=
 OpenBabel11052416033D

 34 40  0  0  1  0  0  0  0  0999 V2000
  188.2680  173.9280  136.1520 C   0  0  2  0  0  3  0  0  0  0  0  0
  185.7230  178.1560  138.4290 C   0  0  0  0  0  2  0  0  0  0  0  0
  181.3390  176.9000  137.3840 C   0  0  2  0  0  3  0  0  0  0  0  0
  186.5330  176.2010  136.7180 C   0  0  1  0  0  0  0  0  0  0  0  0
  189.2610  173.2760  135.4240 O   0  0  0  0  0  1  0  0  0  0  0  0
  187.1010  174.2680  135.2270 C   0  0  0  0  0  2  0  0  0  0  0  0
  188.8450  175.1990  136.7720 C   0  0  0  0  0  2  0  0  0  0  0  0
  187.7810  175.9200  137.5940 C   0  0  1  0  0  3  0  0  0  0  0  0
  183.4980  178.2710  137.4930 C   0  0  2  0  0  3  0  0  0  0  0  0
  188.3340  177.0540  138.1910 O   0  0  0  0  0  1  0  0  0  0  0  0
  186.3130  177.5460  135.9960 C   0  0  0  0  0  0  0  0  0  0  0  0
  185.9840  174.9590  136.0030 C   0  0  0  0  0  2  0  0  0  0  0  0
  187.4160  178.5940  136.1000 C   0  0  0  0  0  1  0  0  0  0  0  0
  185.5690  177.5030  134.6650 C   0  0  0  0  0  1  0  0  0  0  0  0
  184.3640  178.7900  138.6430 C   0  0  0  0  0  2  0  0  0  0  0  0
  182.1190  175.6750  137.8910 C   0  0  2  0  0  3  0  0  0  0  0  0
  181.1140  176.7790  136.0130 O   0  0  0  0  0  1  0  0  0  0  0  0
  183.0080  175.9770  139.0900 C   0  0  0  0  0  2  0  0  0  0  0  0
  181.9690  178.2640  137.6880 C   0  0  2  0  0  3  0  0  0  0  0  0
  185.4940  177.2010  137.2660 C   0  0  2  0  0  0  0  0  0  0  0  0
  183.6340  175.7730  137.7120 C   0  0  2  0  0  3  0  0  0  0  0  0
  184.0690  177.0050  136.9980 N   0  0  1  0  0  0  0  0  0  0  0  0
  181.5090  178.7980  139.0420 C   0  0  0  0  0  2  0  0  0  0  0  0
  180.4290  180.6080  140.0870 C   0  0  0  0  0  2  0  0  0  0  0  0
  181.3390  180.2450  138.9790 N   0  0  0  0  0  0  0  0  0  0  0  0
  179.0120  179.5590  138.4760 O   0  0  0  0  0  1  0  0  0  0  0  0
  179.9240  180.5920  138.7270 C   0  0  1  0  0  0  0  0  0  0  0  0
  179.6750  181.8780  138.2090 O   0  0  0  0  0  0  0  0  0  0  0  0
  181.4220  183.5610  137.5780 C   0  0  0  0  0  2  0  0  0  0  0  0
  180.8050  184.5260  135.3440 C   0  0  0  0  0  2  0  0  0  0  0  0
  180.6770  182.2550  137.2860 C   0  0  2  0  0  3  0  0  0  0  0  0
  180.4160  181.8040  135.5260 S   0  0  0  0  0  0  0  0  0  0  0  0
  179.8020  183.4390  135.0070 C   0  0  0  0  0  2  0  0  0  0  0  0
  180.8250  184.7560  136.8470 C   0  0  0  0  0  2  0  0  0  0  0  0
  1  5  1  6  0  0  0
  1  7  1  0  0  0  0
  2 15  1  0  0  0  0
  3 17  1  6  0  0  0
  3 19  1  0  0  0  0
  3 16  1  0  0  0  0
  4 12  1  6  0  0  0
  4 20  1  0  0  0  0
  4  8  1  0  0  0  0
  6 12  1  0  0  0  0
  6  1  1  0  0  0  0
  7  8  1  0  0  0  0
  8 10  1  6  0  0  0
  9 19  1  0  0  0  0
  9 15  1  1  0  0  0
 11 13  1  0  0  0  0
 11  4  1  0  0  0  0
 11 20  1  0  0  0  0
 14 11  1  0  0  0  0
 16 18  1  1  0  0  0
 19 23  1  1  0  0  0
 20  2  1  1  0  0  0
 21 16  1  0  0  0  0
 21 18  1  1  0  0  0
 22 20  1  0  0  0  0
 22  9  1  0  0  0  0
 22 21  1  0  0  0  0
 25 23  1  0  0  0  0
 25 24  1  0  0  0  0
 26 27  1  0  0  0  0
 27 25  1  0  0  0  0
 27 24  1  0  0  0  0
 28 27  1  0  0  0  0
 30 34  1  0  0  0  0
 31 29  1  0  0  0  0
 31 28  1  0  0  0  0
 32 31  1  0  0  0  0
 33 30  1  0  0  0  0
 33 32  1  0  0  0  0
 34 29  1  0  0  0  0
M  END
>  <MODEL>
1

>  <REMARK>
 VINA RESULT:      -5.7      0.000      0.000
  Name = 
  4 active torsions:
  status: ('A' for Active; 'I' for Inactive)
    1  A    between atoms: C_3  and  N_18
    2  A    between atoms: C_3  and  C_31
    3  A    between atoms: C_14  and  O_16
    4  A    between atoms: O_16  and  C_28
                            x       y       z     vdW  Elec       q    Type
                         _______ _______ _______ _____ _____    ______ ____

>  <TORSDO>
F 4

$$$$
=
 OpenBabel11052416033D

 34 40  0  0  1  0  0  0  0  0999 V2000
  180.5210  178.6920  136.0240 C   0  0  2  0  0  3  0  0  0  0  0  0
  185.1760  178.5530  138.8260 C   0  0  0  0  0  2  0  0  0  0  0  0
  187.6380  175.9200  135.8450 C   0  0  2  0  0  3  0  0  0  0  0  0
  182.9760  177.8820  137.3710 C   0  0  1  0  0  0  0  0  0  0  0  0
  179.1400  178.6640  135.8380 O   0  0  0  0  0  1  0  0  0  0  0  0
  181.0870  177.2850  135.8370 C   0  0  0  0  0  2  0  0  0  0  0  0
  180.8350  179.2100  137.4260 C   0  0  0  0  0  2  0  0  0  0  0  0
  182.3430  179.2710  137.6460 C   0  0  1  0  0  3  0  0  0  0  0  0
  186.4860  176.7010  137.9920 C   0  0  2  0  0  3  0  0  0  0  0  0
  182.6160  179.7880  138.9130 O   0  0  0  0  0  1  0  0  0  0  0  0
  183.2600  176.8630  138.4940 C   0  0  0  0  0  0  0  0  0  0  0  0
  182.6030  177.2890  136.0060 C   0  0  0  0  0  2  0  0  0  0  0  0
  182.8180  177.2280  139.9070 C   0  0  0  0  0  1  0  0  0  0  0  0
  183.1500  175.3850  138.1310 C   0  0  0  0  0  1  0  0  0  0  0  0
  186.5760  177.9750  138.8370 C   0  0  0  0  0  2  0  0  0  0  0  0
  186.8490  176.9840  135.0620 C   0  0  2  0  0  3  0  0  0  0  0  0
  187.0740  174.6630  135.6260 O   0  0  0  0  0  1  0  0  0  0  0  0
  186.8690  178.3570  135.7200 C   0  0  0  0  0  2  0  0  0  0  0  0
  187.7830  176.1700  137.3500 C   0  0  2  0  0  3  0  0  0  0  0  0
  184.4250  177.6570  137.8520 C   0  0  2  0  0  0  0  0  0  0  0  0
  185.6050  177.5020  135.7820 C   0  0  2  0  0  3  0  0  0  0  0  0
  185.3380  176.8160  137.0760 N   0  0  1  0  0  0  0  0  0  0  0  0
  189.0210  177.0070  137.6570 C   0  0  0  0  0  2  0  0  0  0  0  0
  190.4670  177.8460  139.3120 C   0  0  0  0  0  2  0  0  0  0  0  0
  189.1620  177.1840  139.0970 N   0  0  0  0  0  0  0  0  0  0  0  0
  191.0300  175.6010  138.7190 O   0  0  0  0  0  1  0  0  0  0  0  0
  190.3290  176.4310  139.6040 C   0  0  1  0  0  0  0  0  0  0  0  0
  190.3400  176.1410  140.9810 O   0  0  0  0  0  0  0  0  0  0  0  0
  191.5360  177.6940  142.5430 C   0  0  0  0  0  2  0  0  0  0  0  0
  190.2690  177.7530  144.7090 C   0  0  0  0  0  2  0  0  0  0  0  0
  190.2800  177.3270  141.7500 C   0  0  2  0  0  3  0  0  0  0  0  0
  188.6560  177.7800  142.4750 S   0  0  0  0  0  0  0  0  0  0  0  0
  189.0100  177.1270  144.1390 C   0  0  0  0  0  2  0  0  0  0  0  0
  191.4870  177.2040  143.9850 C   0  0  0  0  0  2  0  0  0  0  0  0
  1  5  1  1  0  0  0
  1  7  1  0  0  0  0
  2 15  1  0  0  0  0
  3 17  1  1  0  0  0
  3 19  1  0  0  0  0
  4 12  1  6  0  0  0
  4  8  1  0  0  0  0
  4 20  1  0  0  0  0
  4 11  1  0  0  0  0
  6 12  1  0  0  0  0
  6  1  1  0  0  0  0
  7  8  1  0  0  0  0
  8 10  1  1  0  0  0
  9 15  1  6  0  0  0
 11 13  1  0  0  0  0
 14 11  1  0  0  0  0
 16 18  1  1  0  0  0
 16 21  1  0  0  0  0
 16  3  1  0  0  0  0
 19 23  1  6  0  0  0
 19  9  1  0  0  0  0
 20 11  1  0  0  0  0
 20  2  1  1  0  0  0
 21 18  1  1  0  0  0
 21 22  1  0  0  0  0
 22 20  1  0  0  0  0
 22  9  1  0  0  0  0
 23 25  1  0  0  0  0
 24 27  1  0  0  0  0
 25 24  1  0  0  0  0
 25 27  1  0  0  0  0
 26 27  1  0  0  0  0
 27 28  1  0  0  0  0
 28 31  1  0  0  0  0
 29 34  1  0  0  0  0
 31 32  1  0  0  0  0
 31 29  1  0  0  0  0
 32 33  1  0  0  0  0
 33 30  1  0  0  0  0
 34 30  1  0  0  0  0
M  END
>  <MODEL>
2

>  <REMARK>
 VINA RESULT:      -5.6      3.828      8.597
  Name = 
  4 active torsions:
  status: ('A' for Active; 'I' for Inactive)
    1  A    between atoms: C_3  and  N_18
    2  A    between atoms: C_3  and  C_31
    3  A    between atoms: C_14  and  O_16
    4  A    between atoms: O_16  and  C_28
                            x       y       z     vdW  Elec       q    Type
                         _______ _______ _______ _____ _____    ______ ____

>  <TORSDO>
F 4

$$$$
=
 OpenBabel11052416033D

 34 40  0  0  1  0  0  0  0  0999 V2000
  182.1650  175.7400  137.6130 C   0  0  2  0  0  3  0  0  0  0  0  0
  187.4640  174.6030  137.2120 C   0  0  0  0  0  2  0  0  0  0  0  0
  189.1060  178.8950  138.0930 C   0  0  2  0  0  3  0  0  0  0  0  0
  185.0090  175.7530  136.9740 C   0  0  1  0  0  0  0  0  0  0  0  0
  180.8160  175.6810  137.2680 O   0  0  0  0  0  1  0  0  0  0  0  0
  182.8080  176.9510  136.9380 C   0  0  0  0  0  2  0  0  0  0  0  0
  182.8590  174.4540  137.1720 C   0  0  0  0  0  2  0  0  0  0  0  0
  184.3340  174.4850  137.5580 C   0  0  1  0  0  3  0  0  0  0  0  0
  188.6440  176.6870  136.8840 C   0  0  2  0  0  3  0  0  0  0  0  0
  184.9450  173.2850  137.1900 O   0  0  0  0  0  1  0  0  0  0  0  0
  185.7750  175.7430  135.6350 C   0  0  0  0  0  0  0  0  0  0  0  0
  184.2810  177.0590  137.3200 C   0  0  0  0  0  2  0  0  0  0  0  0
  185.7860  174.4430  134.8370 C   0  0  0  0  0  1  0  0  0  0  0  0
  185.7370  177.0240  134.8070 C   0  0  0  0  0  1  0  0  0  0  0  0
  188.8490  175.2160  137.2540 C   0  0  0  0  0  2  0  0  0  0  0  0
  187.9750  178.5630  139.0820 C   0  0  2  0  0  3  0  0  0  0  0  0
  188.6640  179.8520  137.1790 O   0  0  0  0  0  1  0  0  0  0  0  0
  188.0400  177.1390  139.6190 C   0  0  0  0  0  2  0  0  0  0  0  0
  189.7100  177.7010  137.3450 C   0  0  2  0  0  3  0  0  0  0  0  0
  186.5520  175.7980  136.9750 C   0  0  2  0  0  0  0  0  0  0  0  0
  186.9860  177.5130  138.5790 C   0  0  2  0  0  3  0  0  0  0  0  0
  187.2520  177.0660  137.1840 N   0  0  1  0  0  0  0  0  0  0  0  0
  190.8650  177.0820  138.1280 C   0  0  0  0  0  2  0  0  0  0  0  0
  192.4240  177.3560  139.8680 C   0  0  0  0  0  2  0  0  0  0  0  0
  191.1690  177.8940  139.3000 N   0  0  0  0  0  0  0  0  0  0  0  0
  190.7730  175.7220  140.4260 O   0  0  0  0  0  1  0  0  0  0  0  0
  191.1630  177.0640  140.5240 C   0  0  1  0  0  0  0  0  0  0  0  0
  190.9980  177.7460  141.7450 O   0  0  0  0  0  0  0  0  0  0  0  0
  189.0740  177.3130  143.2920 C   0  0  0  0  0  2  0  0  0  0  0  0
  189.9450  177.3290  145.6460 C   0  0  0  0  0  2  0  0  0  0  0  0
  190.4360  176.8990  142.7270 C   0  0  2  0  0  3  0  0  0  0  0  0
  191.5950  176.0330  143.8580 S   0  0  0  0  0  0  0  0  0  0  0  0
  191.4030  177.2000  145.2440 C   0  0  0  0  0  2  0  0  0  0  0  0
  189.1890  178.1110  144.5840 C   0  0  0  0  0  2  0  0  0  0  0  0
  1  5  1  6  0  0  0
  2 15  1  0  0  0  0
  3 17  1  6  0  0  0
  3 16  1  0  0  0  0
  4 20  1  0  0  0  0
  4 12  1  1  0  0  0
  4  8  1  0  0  0  0
  6 12  1  0  0  0  0
  6  1  1  0  0  0  0
  7  8  1  0  0  0  0
  7  1  1  0  0  0  0
  8 10  1  6  0  0  0
  9 22  1  0  0  0  0
  9 15  1  1  0  0  0
  9 19  1  0  0  0  0
 11  4  1  0  0  0  0
 11 20  1  0  0  0  0
 13 11  1  0  0  0  0
 14 11  1  0  0  0  0
 16 18  1  1  0  0  0
 19  3  1  0  0  0  0
 19 23  1  1  0  0  0
 20 22  1  0  0  0  0
 20  2  1  1  0  0  0
 21 16  1  0  0  0  0
 21 18  1  1  0  0  0
 22 21  1  0  0  0  0
 23 25  1  0  0  0  0
 24 27  1  0  0  0  0
 25 24  1  0  0  0  0
 25 27  1  0  0  0  0
 26 27  1  0  0  0  0
 27 28  1  0  0  0  0
 28 31  1  0  0  0  0
 29 34  1  0  0  0  0
 31 29  1  0  0  0  0
 31 32  1  0  0  0  0
 32 33  1  0  0  0  0
 33 30  1  0  0  0  0
 34 30  1  0  0  0  0
M  END
>  <MODEL>
3

>  <REMARK>
 VINA RESULT:      -5.5      4.671      8.828
  Name = 
  4 active torsions:
  status: ('A' for Active; 'I' for Inactive)
    1  A    between atoms: C_3  and  N_18
    2  A    between atoms: C_3  and  C_31
    3  A    between atoms: C_14  and  O_16
    4  A    between atoms: O_16  and  C_28
                            x       y       z     vdW  Elec       q    Type
                         _______ _______ _______ _____ _____    ______ ____

>  <TORSDO>
F 4

$$$$
=
 OpenBabel11052416033D

 34 40  0  0  1  0  0  0  0  0999 V2000
  187.4490  178.0270  144.9900 C   0  0  2  0  0  3  0  0  0  0  0  0
  191.8430  177.8320  141.7980 C   0  0  0  0  0  2  0  0  0  0  0  0
  189.7940  176.0220  138.0010 C   0  0  2  0  0  3  0  0  0  0  0  0
  189.5540  177.2260  143.1400 C   0  0  1  0  0  0  0  0  0  0  0  0
  186.7220  177.9010  146.1730 O   0  0  0  0  0  1  0  0  0  0  0  0
  187.3280  176.7370  144.1810 C   0  0  0  0  0  2  0  0  0  0  0  0
  188.9120  178.3130  145.3210 C   0  0  0  0  0  2  0  0  0  0  0  0
  189.7250  178.4770  144.0410 C   0  0  1  0  0  3  0  0  0  0  0  0
  191.3780  176.2930  139.9940 C   0  0  2  0  0  3  0  0  0  0  0  0
  191.0490  178.7820  144.3580 O   0  0  0  0  0  1  0  0  0  0  0  0
  190.5570  176.0550  143.1490 C   0  0  0  0  0  0  0  0  0  0  0  0
  188.0910  176.8550  142.8650 C   0  0  0  0  0  2  0  0  0  0  0  0
  191.7080  176.1160  144.1470 C   0  0  0  0  0  1  0  0  0  0  0  0
  189.9960  174.6620  142.8760 C   0  0  0  0  0  1  0  0  0  0  0  0
  192.3420  177.3970  140.4350 C   0  0  0  0  0  2  0  0  0  0  0  0
  188.9020  177.1290  138.5890 C   0  0  2  0  0  3  0  0  0  0  0  0
  189.2100  174.7770  138.2320 O   0  0  0  0  0  1  0  0  0  0  0  0
  189.6820  178.3580  139.0400 C   0  0  0  0  0  2  0  0  0  0  0  0
  191.2490  176.0110  138.4830 C   0  0  2  0  0  3  0  0  0  0  0  0
  190.5440  177.0580  141.9680 C   0  0  2  0  0  0  0  0  0  0  0  0
  189.1210  177.3900  140.0790 C   0  0  2  0  0  3  0  0  0  0  0  0
  190.1000  176.4610  140.7080 N   0  0  1  0  0  0  0  0  0  0  0  0
  192.1310  176.8940  137.6050 C   0  0  0  0  0  2  0  0  0  0  0  0
  193.9700  176.7920  136.1400 C   0  0  0  0  0  2  0  0  0  0  0  0
  193.4360  176.2710  137.4170 N   0  0  0  0  0  0  0  0  0  0  0  0
  192.2480  175.2690  135.4870 O   0  0  0  0  0  1  0  0  0  0  0  0
  193.4460  175.4390  136.1950 C   0  0  1  0  0  0  0  0  0  0  0  0
  194.4440  174.4500  136.1150 O   0  0  0  0  0  0  0  0  0  0  0  0
  194.9740  173.1170  138.1710 C   0  0  0  0  0  2  0  0  0  0  0  0
  195.6060  170.7960  137.4550 C   0  0  0  0  0  2  0  0  0  0  0  0
  194.1180  173.3340  136.9200 C   0  0  2  0  0  3  0  0  0  0  0  0
  193.4660  171.8430  136.0700 S   0  0  0  0  0  0  0  0  0  0  0  0
  195.0470  170.9370  136.0520 C   0  0  0  0  0  2  0  0  0  0  0  0
  196.1210  172.1420  137.9390 C   0  0  0  0  0  2  0  0  0  0  0  0
  1  7  1  0  0  0  0
  1  5  1  1  0  0  0
  3 17  1  1  0  0  0
  3 19  1  0  0  0  0
  3 16  1  0  0  0  0
  4 12  1  6  0  0  0
  4 11  1  0  0  0  0
  4  8  1  0  0  0  0
  6  1  1  0  0  0  0
  8 10  1  1  0  0  0
  8  7  1  0  0  0  0
  9 15  1  6  0  0  0
  9 22  1  0  0  0  0
 11 13  1  0  0  0  0
 12  6  1  0  0  0  0
 14 11  1  0  0  0  0
 15  2  1  0  0  0  0
 16 18  1  6  0  0  0
 16 21  1  0  0  0  0
 19 23  1  6  0  0  0
 19  9  1  0  0  0  0
 20  2  1  6  0  0  0
 20  4  1  0  0  0  0
 20 11  1  0  0  0  0
 21 18  1  6  0  0  0
 21 22  1  0  0  0  0
 22 20  1  0  0  0  0
 24 27  1  0  0  0  0
 24 25  1  0  0  0  0
 25 23  1  0  0  0  0
 26 27  1  0  0  0  0
 27 25  1  0  0  0  0
 28 27  1  0  0  0  0
 28 31  1  0  0  0  0
 30 34  1  0  0  0  0
 31 29  1  0  0  0  0
 32 31  1  0  0  0  0
 33 32  1  0  0  0  0
 33 30  1  0  0  0  0
 34 29  1  0  0  0  0
M  END
>  <MODEL>
4

>  <REMARK>
 VINA RESULT:      -5.5      7.645     11.816
  Name = 
  4 active torsions:
  status: ('A' for Active; 'I' for Inactive)
    1  A    between atoms: C_3  and  N_18
    2  A    between atoms: C_3  and  C_31
    3  A    between atoms: C_14  and  O_16
    4  A    between atoms: O_16  and  C_28
                            x       y       z     vdW  Elec       q    Type
                         _______ _______ _______ _____ _____    ______ ____

>  <TORSDO>
F 4

$$$$
=
 OpenBabel11052416033D

 34 40  0  0  1  0  0  0  0  0999 V2000
  181.7640  179.0160  140.3410 C   0  0  2  0  0  3  0  0  0  0  0  0
  184.1170  174.9430  137.6200 C   0  0  0  0  0  2  0  0  0  0  0  0
  187.3920  177.4550  135.4160 C   0  0  2  0  0  3  0  0  0  0  0  0
  182.9710  177.3140  138.3060 C   0  0  1  0  0  0  0  0  0  0  0  0
  180.7100  179.7550  140.8750 O   0  0  0  0  0  1  0  0  0  0  0  0
  182.1350  179.5810  138.9710 C   0  0  0  0  0  2  0  0  0  0  0  0
  181.3470  177.5520  140.2180 C   0  0  0  0  0  2  0  0  0  0  0  0
  182.4940  176.7180  139.6560 C   0  0  1  0  0  3  0  0  0  0  0  0
  185.3920  175.9050  135.8060 C   0  0  2  0  0  3  0  0  0  0  0  0
  182.1150  175.3760  139.5920 O   0  0  0  0  0  1  0  0  0  0  0  0
  182.4610  176.7970  136.9450 C   0  0  0  0  0  0  0  0  0  0  0  0
  183.3070  178.8090  138.3720 C   0  0  0  0  0  2  0  0  0  0  0  0
  181.3880  175.7140  136.9570 C   0  0  0  0  0  1  0  0  0  0  0  0
  182.3550  177.8160  135.8140 C   0  0  0  0  0  1  0  0  0  0  0  0
  185.1950  174.6160  136.6070 C   0  0  0  0  0  2  0  0  0  0  0  0
  187.3050  177.8990  136.8860 C   0  0  2  0  0  3  0  0  0  0  0  0
  186.8610  178.4500  134.5940 O   0  0  0  0  0  1  0  0  0  0  0  0
  187.1630  176.7370  137.8610 C   0  0  0  0  0  2  0  0  0  0  0  0
  186.7410  176.1070  135.0860 C   0  0  2  0  0  3  0  0  0  0  0  0
  183.8880  176.4350  137.4290 C   0  0  2  0  0  0  0  0  0  0  0  0
  185.9570  177.6210  137.5500 C   0  0  2  0  0  3  0  0  0  0  0  0
  184.9440  177.0470  136.6220 N   0  0  1  0  0  0  0  0  0  0  0  0
  187.7260  174.9560  135.2690 C   0  0  0  0  0  2  0  0  0  0  0  0
  189.9390  174.2570  134.8850 C   0  0  0  0  0  2  0  0  0  0  0  0
  189.0950  175.4420  135.1460 N   0  0  0  0  0  0  0  0  0  0  0  0
  189.3540  174.0710  137.1930 O   0  0  0  0  0  1  0  0  0  0  0  0
  189.9510  174.8630  136.2030 C   0  0  1  0  0  0  0  0  0  0  0  0
  191.1460  175.5490  136.4910 O   0  0  0  0  0  0  0  0  0  0  0  0
  193.0650  173.9810  136.8680 C   0  0  0  0  0  2  0  0  0  0  0  0
  195.1940  175.2260  136.3990 C   0  0  0  0  0  2  0  0  0  0  0  0
  192.2600  174.8850  135.9290 C   0  0  2  0  0  3  0  0  0  0  0  0
  193.1770  175.7530  134.5970 S   0  0  0  0  0  0  0  0  0  0  0  0
  194.5160  176.3690  135.6680 C   0  0  0  0  0  2  0  0  0  0  0  0
  194.2680  174.6880  137.4780 C   0  0  0  0  0  2  0  0  0  0  0  0
  1  5  1  6  0  0  0
  3 17  1  6  0  0  0
  3 16  1  0  0  0  0
  4 12  1  1  0  0  0
  4  8  1  0  0  0  0
  6  1  1  0  0  0  0
  7  1  1  0  0  0  0
  8 10  1  6  0  0  0
  8  7  1  0  0  0  0
  9 15  1  1  0  0  0
  9 22  1  0  0  0  0
 11 13  1  0  0  0  0
 11 20  1  0  0  0  0
 11  4  1  0  0  0  0
 12  6  1  0  0  0  0
 14 11  1  0  0  0  0
 15  2  1  0  0  0  0
 16 21  1  0  0  0  0
 16 18  1  1  0  0  0
 19 23  1  1  0  0  0
 19  3  1  0  0  0  0
 19  9  1  0  0  0  0
 20  2  1  1  0  0  0
 20  4  1  0  0  0  0
 21 18  1  1  0  0  0
 22 20  1  0  0  0  0
 22 21  1  0  0  0  0
 24 25  1  0  0  0  0
 24 27  1  0  0  0  0
 25 23  1  0  0  0  0
 25 27  1  0  0  0  0
 27 28  1  0  0  0  0
 27 26  1  0  0  0  0
 29 34  1  0  0  0  0
 30 34  1  0  0  0  0
 31 28  1  0  0  0  0
 31 29  1  0  0  0  0
 32 33  1  0  0  0  0
 32 31  1  0  0  0  0
 33 30  1  0  0  0  0
M  END
>  <MODEL>
5

>  <REMARK>
 VINA RESULT:      -5.1      3.675      9.440
  Name = 
  4 active torsions:
  status: ('A' for Active; 'I' for Inactive)
    1  A    between atoms: C_3  and  N_18
    2  A    between atoms: C_3  and  C_31
    3  A    between atoms: C_14  and  O_16
    4  A    between atoms: O_16  and  C_28
                            x       y       z     vdW  Elec       q    Type
                         _______ _______ _______ _____ _____    ______ ____

>  <TORSDO>
F 4

$$$$
=
 OpenBabel11052416033D

 34 40  0  0  1  0  0  0  0  0999 V2000
  180.2420  180.0010  138.2800 C   0  0  2  0  0  3  0  0  0  0  0  0
  185.4230  178.3670  138.1060 C   0  0  0  0  0  2  0  0  0  0  0  0
  184.8210  174.6260  135.3620 C   0  0  2  0  0  3  0  0  0  0  0  0
  182.7120  178.4540  138.3320 C   0  0  1  0  0  0  0  0  0  0  0  0
  179.0800  180.5030  138.8620 O   0  0  0  0  0  1  0  0  0  0  0  0
  180.2060  178.4740  138.3090 C   0  0  0  0  0  2  0  0  0  0  0  0
  181.4580  180.5200  139.0450 C   0  0  0  0  0  2  0  0  0  0  0  0
  182.7460  180.0020  138.4120 C   0  0  1  0  0  3  0  0  0  0  0  0
  185.4460  176.0600  137.3880 C   0  0  2  0  0  3  0  0  0  0  0  0
  183.8480  180.5200  139.0930 O   0  0  0  0  0  1  0  0  0  0  0  0
  183.3530  177.5530  139.4070 C   0  0  0  0  0  0  0  0  0  0  0  0
  181.4550  177.8950  137.6510 C   0  0  0  0  0  2  0  0  0  0  0  0
  183.9670  178.2340  140.6250 C   0  0  0  0  0  1  0  0  0  0  0  0
  182.6820  176.2080  139.6720 C   0  0  0  0  0  1  0  0  0  0  0  0
  186.3430  177.2850  137.5790 C   0  0  0  0  0  2  0  0  0  0  0  0
  184.0150  175.8110  134.8020 C   0  0  2  0  0  3  0  0  0  0  0  0
  183.9490  173.6810  135.9040 O   0  0  0  0  0  1  0  0  0  0  0  0
  184.7710  177.1330  134.8500 C   0  0  0  0  0  2  0  0  0  0  0  0
  185.9040  174.9810  136.3860 C   0  0  2  0  0  3  0  0  0  0  0  0
  184.0420  177.7320  138.0300 C   0  0  2  0  0  0  0  0  0  0  0  0
  183.6400  176.8660  135.8420 C   0  0  2  0  0  3  0  0  0  0  0  0
  184.0520  176.5080  137.2270 N   0  0  1  0  0  0  0  0  0  0  0  0
  187.2340  175.2870  135.7030 C   0  0  0  0  0  2  0  0  0  0  0  0
  189.4520  176.0360  135.9390 C   0  0  0  0  0  2  0  0  0  0  0  0
  188.1970  175.7840  136.6790 N   0  0  0  0  0  0  0  0  0  0  0  0
  189.3160  173.6550  136.0840 O   0  0  0  0  0  1  0  0  0  0  0  0
  189.3490  174.8650  136.7900 C   0  0  1  0  0  0  0  0  0  0  0  0
  190.1180  174.9600  137.9660 O   0  0  0  0  0  0  0  0  0  0  0  0
  191.9040  176.7170  138.0280 C   0  0  0  0  0  2  0  0  0  0  0  0
  192.1450  177.5030  140.4000 C   0  0  0  0  0  2  0  0  0  0  0  0
  190.4460  176.3060  138.2490 C   0  0  2  0  0  3  0  0  0  0  0  0
  189.5310  177.1290  139.6110 S   0  0  0  0  0  0  0  0  0  0  0  0
  190.8320  176.9050  140.8670 C   0  0  0  0  0  2  0  0  0  0  0  0
  192.7390  176.6390  139.3000 C   0  0  0  0  0  2  0  0  0  0  0  0
  1  6  1  0  0  0  0
  1  5  1  1  0  0  0
  1  7  1  0  0  0  0
  3 17  1  1  0  0  0
  3 19  1  0  0  0  0
  4 12  1  6  0  0  0
  4  8  1  0  0  0  0
  4 11  1  0  0  0  0
  8  7  1  0  0  0  0
  8 10  1  1  0  0  0
  9 15  1  6  0  0  0
 11 14  1  0  0  0  0
 11 13  1  0  0  0  0
 12  6  1  0  0  0  0
 15  2  1  0  0  0  0
 16 18  1  6  0  0  0
 16  3  1  0  0  0  0
 16 21  1  0  0  0  0
 19 23  1  6  0  0  0
 19  9  1  0  0  0  0
 20  2  1  6  0  0  0
 20  4  1  0  0  0  0
 20 11  1  0  0  0  0
 21 18  1  6  0  0  0
 21 22  1  0  0  0  0
 22  9  1  0  0  0  0
 22 20  1  0  0  0  0
 23 25  1  0  0  0  0
 24 25  1  0  0  0  0
 24 27  1  0  0  0  0
 25 27  1  0  0  0  0
 26 27  1  0  0  0  0
 27 28  1  0  0  0  0
 28 31  1  0  0  0  0
 29 31  1  0  0  0  0
 29 34  1  0  0  0  0
 30 33  1  0  0  0  0
 31 32  1  0  0  0  0
 32 33  1  0  0  0  0
 34 30  1  0  0  0  0
M  END
>  <MODEL>
6

>  <REMARK>
 VINA RESULT:      -4.9      3.057      8.548
  Name = 
  4 active torsions:
  status: ('A' for Active; 'I' for Inactive)
    1  A    between atoms: C_3  and  N_18
    2  A    between atoms: C_3  and  C_31
    3  A    between atoms: C_14  and  O_16
    4  A    between atoms: O_16  and  C_28
                            x       y       z     vdW  Elec       q    Type
                         _______ _______ _______ _____ _____    ______ ____

>  <TORSDO>
F 4

$$$$
=
 OpenBabel11052416033D

 34 40  0  0  1  0  0  0  0  0999 V2000
  180.3100  180.0040  138.0830 C   0  0  2  0  0  3  0  0  0  0  0  0
  185.4940  178.3720  138.1160 C   0  0  0  0  0  2  0  0  0  0  0  0
  185.0330  174.7240  135.2220 C   0  0  2  0  0  3  0  0  0  0  0  0
  182.7750  178.4530  138.2080 C   0  0  1  0  0  0  0  0  0  0  0  0
  179.1190  180.4870  138.6220 O   0  0  0  0  0  1  0  0  0  0  0  0
  180.2730  178.4770  138.0590 C   0  0  0  0  0  2  0  0  0  0  0  0
  181.4850  180.4960  138.9250 C   0  0  0  0  0  2  0  0  0  0  0  0
  182.8040  179.9980  138.3410 C   0  0  1  0  0  3  0  0  0  0  0  0
  185.5550  176.0890  137.3240 C   0  0  2  0  0  3  0  0  0  0  0  0
  183.8700  180.4920  139.0940 O   0  0  0  0  0  1  0  0  0  0  0  0
  183.3620  177.5170  139.2830 C   0  0  0  0  0  0  0  0  0  0  0  0
  181.5540  177.9190  137.4470 C   0  0  0  0  0  2  0  0  0  0  0  0
  183.9130  178.1560  140.5530 C   0  0  0  0  0  1  0  0  0  0  0  0
  182.6800  176.1650  139.4700 C   0  0  0  0  0  1  0  0  0  0  0  0
  186.4400  177.3070  137.6000 C   0  0  0  0  0  2  0  0  0  0  0  0
  184.2560  175.9280  134.6620 C   0  0  2  0  0  3  0  0  0  0  0  0
  184.1360  173.7630  135.6880 O   0  0  0  0  0  1  0  0  0  0  0  0
  185.0070  177.2470  134.7920 C   0  0  0  0  0  2  0  0  0  0  0  0
  186.0630  175.0440  136.3100 C   0  0  2  0  0  3  0  0  0  0  0  0
  184.1190  177.7400  137.9490 C   0  0  2  0  0  0  0  0  0  0  0  0
  183.8280  176.9490  135.7160 C   0  0  2  0  0  3  0  0  0  0  0  0
  184.1700  176.5440  137.1070 N   0  0  1  0  0  0  0  0  0  0  0  0
  187.4260  175.3710  135.7060 C   0  0  0  0  0  2  0  0  0  0  0  0
  189.2820  175.5390  137.1410 C   0  0  0  0  0  2  0  0  0  0  0  0
  188.4660  174.5860  136.3590 N   0  0  0  0  0  0  0  0  0  0  0  0
  189.8950  175.9580  134.8710 O   0  0  0  0  0  1  0  0  0  0  0  0
  189.8060  175.0080  135.8960 C   0  0  1  0  0  0  0  0  0  0  0  0
  190.8530  174.0850  136.0800 O   0  0  0  0  0  0  0  0  0  0  0  0
  192.9830  173.9920  134.7620 C   0  0  0  0  0  2  0  0  0  0  0  0
  194.8910  173.7450  136.3750 C   0  0  0  0  0  2  0  0  0  0  0  0
  192.1070  174.6820  135.8110 C   0  0  2  0  0  3  0  0  0  0  0  0
  192.9560  175.5260  137.2020 S   0  0  0  0  0  0  0  0  0  0  0  0
  194.0810  174.1470  137.5940 C   0  0  0  0  0  2  0  0  0  0  0  0
  193.9940  173.0320  135.3770 C   0  0  0  0  0  2  0  0  0  0  0  0
  1  5  1  1  0  0  0
  1  7  1  0  0  0  0
  3 17  1  1  0  0  0
  3 19  1  0  0  0  0
  4 12  1  6  0  0  0
  4  8  1  0  0  0  0
  4 11  1  0  0  0  0
  6  1  1  0  0  0  0
  8  7  1  0  0  0  0
  8 10  1  1  0  0  0
  9 15  1  6  0  0  0
 11 14  1  0  0  0  0
 11 13  1  0  0  0  0
 12  6  1  0  0  0  0
 15  2  1  0  0  0  0
 16 18  1  6  0  0  0
 16  3  1  0  0  0  0
 16 21  1  0  0  0  0
 19 23  1  6  0  0  0
 19  9  1  0  0  0  0
 20  2  1  1  0  0  0
 20  4  1  0  0  0  0
 20 11  1  0  0  0  0
 21 18  1  6  0  0  0
 21 22  1  0  0  0  0
 22  9  1  0  0  0  0
 22 20  1  0  0  0  0
 23 25  1  0  0  0  0
 25 24  1  0  0  0  0
 26 27  1  0  0  0  0
 27 28  1  0  0  0  0
 27 25  1  0  0  0  0
 27 24  1  0  0  0  0
 29 34  1  0  0  0  0
 29 31  1  0  0  0  0
 30 33  1  0  0  0  0
 31 28  1  0  0  0  0
 31 32  1  0  0  0  0
 32 33  1  0  0  0  0
 34 30  1  0  0  0  0
M  END
>  <MODEL>
7

>  <REMARK>
 VINA RESULT:      -4.6      3.629      9.479
  Name = 
  4 active torsions:
  status: ('A' for Active; 'I' for Inactive)
    1  A    between atoms: C_3  and  N_18
    2  A    between atoms: C_3  and  C_31
    3  A    between atoms: C_14  and  O_16
    4  A    between atoms: O_16  and  C_28
                            x       y       z     vdW  Elec       q    Type
                         _______ _______ _______ _____ _____    ______ ____

>  <TORSDO>
F 4

$$$$
=
 OpenBabel11052416033D

 34 40  0  0  1  0  0  0  0  0999 V2000
  189.7420  174.9680  137.5980 C   0  0  2  0  0  3  0  0  0  0  0  0
  185.4260  178.2200  138.1700 C   0  0  0  0  0  2  0  0  0  0  0  0
  182.2740  175.4740  136.0680 C   0  0  2  0  0  3  0  0  0  0  0  0
  187.3280  176.5460  137.1770 C   0  0  1  0  0  0  0  0  0  0  0  0
  191.0740  174.6450  137.3430 O   0  0  0  0  0  1  0  0  0  0  0  0
  188.9300  174.8240  136.3120 C   0  0  0  0  0  2  0  0  0  0  0  0
  189.6590  176.3990  138.1240 C   0  0  0  0  0  2  0  0  0  0  0  0
  188.2110  176.7690  138.4320 C   0  0  1  0  0  3  0  0  0  0  0  0
  183.7460  177.5030  136.5880 C   0  0  2  0  0  3  0  0  0  0  0  0
  188.1550  178.0620  138.9540 O   0  0  0  0  0  1  0  0  0  0  0  0
  186.9850  177.6810  136.1910 C   0  0  0  0  0  0  0  0  0  0  0  0
  187.4610  175.1440  136.5660 C   0  0  0  0  0  2  0  0  0  0  0  0
  187.6170  179.0470  136.4390 C   0  0  0  0  0  1  0  0  0  0  0  0
  186.8070  177.2940  134.7260 C   0  0  0  0  0  1  0  0  0  0  0  0
  183.9550  178.3650  137.8350 C   0  0  0  0  0  2  0  0  0  0  0  0
  183.1530  174.6270  137.0050 C   0  0  2  0  0  3  0  0  0  0  0  0
  182.5930  175.1880  134.7400 O   0  0  0  0  0  1  0  0  0  0  0  0
  183.4310  175.2970  138.3440 C   0  0  0  0  0  2  0  0  0  0  0  0
  182.3210  176.9880  136.2990 C   0  0  2  0  0  3  0  0  0  0  0  0
  185.9150  177.1660  137.1870 C   0  0  2  0  0  0  0  0  0  0  0  0
  184.5310  175.2230  137.2870 C   0  0  2  0  0  3  0  0  0  0  0  0
  184.8020  176.4780  136.5320 N   0  0  1  0  0  0  0  0  0  0  0  0
  181.2790  177.4260  137.3240 C   0  0  0  0  0  2  0  0  0  0  0  0
  180.2310  176.5870  139.2560 C   0  0  0  0  0  2  0  0  0  0  0  0
  181.5450  176.7960  138.6110 N   0  0  0  0  0  0  0  0  0  0  0  0
  180.6050  178.9410  139.4190 O   0  0  0  0  0  1  0  0  0  0  0  0
  181.0900  177.6610  139.7200 C   0  0  1  0  0  0  0  0  0  0  0  0
  181.6580  177.4140  140.9840 O   0  0  0  0  0  0  0  0  0  0  0  0
  183.7470  178.7240  141.4330 C   0  0  0  0  0  2  0  0  0  0  0  0
  183.9690  179.0150  143.9160 C   0  0  0  0  0  2  0  0  0  0  0  0
  182.2240  178.5920  141.5250 C   0  0  2  0  0  3  0  0  0  0  0  0
  181.3950  179.3340  142.9840 S   0  0  0  0  0  0  0  0  0  0  0  0
  182.5330  178.6280  144.2200 C   0  0  0  0  0  2  0  0  0  0  0  0
  184.4570  178.2530  142.6950 C   0  0  0  0  0  2  0  0  0  0  0  0
  1  5  1  6  0  0  0
  1  7  1  0  0  0  0
  3 17  1  6  0  0  0
  3 19  1  0  0  0  0
  3 16  1  0  0  0  0
  4 12  1  6  0  0  0
  4 20  1  0  0  0  0
  4  8  1  0  0  0  0
  6 12  1  0  0  0  0
  6  1  1  0  0  0  0
  7  8  1  0  0  0  0
  8 10  1  6  0  0  0
  9 15  1  1  0  0  0
 11 13  1  0  0  0  0
 11  4  1  0  0  0  0
 11 20  1  0  0  0  0
 14 11  1  0  0  0  0
 15  2  1  0  0  0  0
 16 21  1  0  0  0  0
 16 18  1  1  0  0  0
 19  9  1  0  0  0  0
 19 23  1  1  0  0  0
 20  2  1  1  0  0  0
 21 18  1  1  0  0  0
 22  9  1  0  0  0  0
 22 20  1  0  0  0  0
 22 21  1  0  0  0  0
 23 25  1  0  0  0  0
 24 27  1  0  0  0  0
 25 24  1  0  0  0  0
 25 27  1  0  0  0  0
 26 27  1  0  0  0  0
 27 28  1  0  0  0  0
 28 31  1  0  0  0  0
 29 31  1  0  0  0  0
 29 34  1  0  0  0  0
 30 33  1  0  0  0  0
 31 32  1  0  0  0  0
 32 33  1  0  0  0  0
 34 30  1  0  0  0  0
M  END
>  <MODEL>
8

>  <REMARK>
 VINA RESULT:      -4.6      3.228      4.185
  Name = 
  4 active torsions:
  status: ('A' for Active; 'I' for Inactive)
    1  A    between atoms: C_3  and  N_18
    2  A    between atoms: C_3  and  C_31
    3  A    between atoms: C_14  and  O_16
    4  A    between atoms: O_16  and  C_28
                            x       y       z     vdW  Elec       q    Type
                         _______ _______ _______ _____ _____    ______ ____

>  <TORSDO>
F 4

$$$$
=
 OpenBabel11052416033D

 34 40  0  0  1  0  0  0  0  0999 V2000
  190.3220  177.2540  137.6820 C   0  0  2  0  0  3  0  0  0  0  0  0
  185.5090  177.4600  135.1670 C   0  0  0  0  0  2  0  0  0  0  0  0
  182.7950  176.8820  138.9340 C   0  0  2  0  0  3  0  0  0  0  0  0
  187.6050  176.7540  136.7530 C   0  0  1  0  0  0  0  0  0  0  0  0
  191.6590  176.9020  137.8550 O   0  0  0  0  0  1  0  0  0  0  0  0
  189.4330  176.2310  138.3860 C   0  0  0  0  0  2  0  0  0  0  0  0
  190.0000  177.3050  136.1910 C   0  0  0  0  0  2  0  0  0  0  0  0
  188.5450  177.7110  135.9740 C   0  0  1  0  0  3  0  0  0  0  0  0
  183.8620  176.4830  136.6420 C   0  0  2  0  0  3  0  0  0  0  0  0
  188.2770  177.7970  134.6080 O   0  0  0  0  0  1  0  0  0  0  0  0
  186.9400  175.5280  136.0940 C   0  0  0  0  0  0  0  0  0  0  0  0
  187.9620  176.6060  138.2380 C   0  0  0  0  0  2  0  0  0  0  0  0
  187.2990  175.2230  134.6440 C   0  0  0  0  0  1  0  0  0  0  0  0
  186.6990  174.3120  136.9830 C   0  0  0  0  0  1  0  0  0  0  0  0
  184.0140  177.3410  135.3830 C   0  0  0  0  0  2  0  0  0  0  0  0
  183.9180  177.8830  139.2570 C   0  0  2  0  0  3  0  0  0  0  0  0
  183.0310  175.6810  139.6030 O   0  0  0  0  0  1  0  0  0  0  0  0
  184.1850  178.8760  138.1330 C   0  0  0  0  0  2  0  0  0  0  0  0
  182.5520  176.6090  137.4460 C   0  0  2  0  0  3  0  0  0  0  0  0
  186.1030  176.7960  136.4010 C   0  0  2  0  0  0  0  0  0  0  0  0
  185.1660  177.7330  138.3870 C   0  0  2  0  0  3  0  0  0  0  0  0
  185.0960  176.5850  137.4420 N   0  0  1  0  0  0  0  0  0  0  0  0
  181.5500  177.5980  136.8560 C   0  0  0  0  0  2  0  0  0  0  0  0
  179.3650  178.4640  136.9630 C   0  0  0  0  0  2  0  0  0  0  0  0
  180.3820  177.7060  137.7230 N   0  0  0  0  0  0  0  0  0  0  0  0
  180.9850  180.1050  137.5870 O   0  0  0  0  0  1  0  0  0  0  0  0
  180.0920  179.1210  138.0330 C   0  0  1  0  0  0  0  0  0  0  0  0
  179.3050  179.3660  139.1740 O   0  0  0  0  0  0  0  0  0  0  0  0
  181.2050  179.2690  140.8070 C   0  0  0  0  0  2  0  0  0  0  0  0
  180.2690  179.5820  143.1150 C   0  0  0  0  0  2  0  0  0  0  0  0
  180.0490  180.0440  140.1680 C   0  0  2  0  0  3  0  0  0  0  0  0
  179.1470  181.2450  141.2250 S   0  0  0  0  0  0  0  0  0  0  0  0
  178.9310  180.1170  142.6400 C   0  0  0  0  0  2  0  0  0  0  0  0
  180.8070  178.5800  142.1060 C   0  0  0  0  0  2  0  0  0  0  0  0
  1  5  1  6  0  0  0
  1  6  1  0  0  0  0
  2 15  1  0  0  0  0
  3 16  1  0  0  0  0
  3 17  1  1  0  0  0
  4 12  1  1  0  0  0
  7  1  1  0  0  0  0
  8 10  1  6  0  0  0
  8  7  1  0  0  0  0
  8  4  1  0  0  0  0
  9 15  1  6  0  0  0
  9 22  1  0  0  0  0
  9 19  1  0  0  0  0
 11 20  1  0  0  0  0
 11  4  1  0  0  0  0
 11 14  1  0  0  0  0
 12  6  1  0  0  0  0
 13 11  1  0  0  0  0
 16 18  1  6  0  0  0
 19 23  1  6  0  0  0
 19  3  1  0  0  0  0
 20  2  1  6  0  0  0
 20  4  1  0  0  0  0
 20 22  1  0  0  0  0
 21 18  1  6  0  0  0
 21 16  1  0  0  0  0
 22 21  1  0  0  0  0
 23 25  1  0  0  0  0
 24 25  1  0  0  0  0
 24 27  1  0  0  0  0
 25 27  1  0  0  0  0
 26 27  1  0  0  0  0
 27 28  1  0  0  0  0
 28 31  1  0  0  0  0
 29 34  1  0  0  0  0
 31 29  1  0  0  0  0
 31 32  1  0  0  0  0
 32 33  1  0  0  0  0
 33 30  1  0  0  0  0
 34 30  1  0  0  0  0
M  END
>  <MODEL>
9

>  <REMARK>
 VINA RESULT:      -4.5      2.752      4.068
  Name = 
  4 active torsions:
  status: ('A' for Active; 'I' for Inactive)
    1  A    between atoms: C_3  and  N_18
    2  A    between atoms: C_3  and  C_31
    3  A    between atoms: C_14  and  O_16
    4  A    between atoms: O_16  and  C_28
                            x       y       z     vdW  Elec       q    Type
                         _______ _______ _______ _____ _____    ______ ____

>  <TORSDO>
F 4

$$$$
