=
 OpenBabel11052415373D

 34 39  0  0  1  0  0  0  0  0999 V2000
  184.6030  178.6070  141.6400 C   0  0  0  0  0  0  0  0  0  0  0  0
  185.8100  178.3050  137.9760 C   0  0  0  0  0  2  0  0  0  0  0  0
  183.5810  178.6420  138.9910 C   0  0  0  0  0  3  0  0  0  0  0  0
  183.9230  178.8070  143.9880 C   0  0  0  0  0  0  0  0  0  0  0  0
  184.9380  178.6040  143.0110 C   0  0  0  0  0  3  0  0  0  0  0  0
  182.2890  179.0010  142.2350 C   0  0  0  0  0  0  0  0  0  0  0  0
  181.0600  179.1520  141.4400 C   0  0  0  0  0  3  0  0  0  0  0  0
  182.5730  179.0040  143.6010 C   0  0  0  0  0  3  0  0  0  0  0  0
  182.7580  178.8300  140.0970 C   0  0  0  0  0  0  0  0  0  0  0  0
  183.2750  178.8100  141.3360 C   0  0  0  0  0  0  0  0  0  0  0  0
  181.3480  179.0510  140.1650 N   0  0  0  0  0  0  0  0  0  0  0  0
  186.9030  177.2510  138.0970 C   0  0  0  0  0  2  0  0  0  0  0  0
  188.1790  177.8220  138.7240 C   0  0  2  0  0  3  0  0  0  0  0  0
  187.9160  178.7470  139.9130 C   0  0  0  0  0  2  0  0  0  0  0  0
  184.9650  178.4200  139.2120 C   0  0  0  0  0  0  0  0  0  0  0  0
  186.9380  178.1070  140.8840 C   0  0  0  0  0  2  0  0  0  0  0  0
  185.4970  178.4150  140.5590 C   0  0  0  0  0  0  0  0  0  0  0  0
  189.0280  178.5040  137.6990 C   0  0  0  0  0  0  0  0  0  0  0  0
  189.8180  177.7450  136.8480 O   0  0  0  0  0  0  0  0  0  0  0  0
  189.0250  179.7600  137.5960 O   0  0  0  0  0  1  0  0  0  0  0  0
  184.2780  178.7740  145.4360 C   0  0  0  0  0  2  0  0  0  0  0  0
  187.6400  177.1570  144.7700 C   0  0  0  0  0  3  0  0  0  0  0  0
  186.3330  178.5200  146.8440 C   0  0  0  0  0  3  0  0  0  0  0  0
  190.2620  177.1260  147.3880 C   0  0  0  0  0  0  0  0  0  0  0  0
  189.6030  176.9120  146.1700 C   0  0  0  0  0  3  0  0  0  0  0  0
  188.2980  177.3730  145.9840 C   0  0  0  0  0  0  0  0  0  0  0  0
  188.2960  178.2730  148.2430 C   0  0  0  0  0  3  0  0  0  0  0  0
  187.6390  178.0590  147.0290 C   0  0  0  0  0  0  0  0  0  0  0  0
  189.6020  177.8080  148.4210 C   0  0  0  0  0  3  0  0  0  0  0  0
  185.6810  178.3060  145.6240 C   0  0  0  0  0  0  0  0  0  0  0  0
  186.3340  177.6210  144.5910 C   0  0  0  0  0  3  0  0  0  0  0  0
  191.6380  176.6370  147.5770 C   0  0  0  0  0  0  0  0  0  0  0  0
  192.3740  177.1300  148.4730 O   0  0  0  0  0  1  0  0  0  0  0  0
  192.1390  175.6250  146.7660 O   0  0  0  0  0  0  0  0  0  0  0  0
  1  5  1  0  0  0  0
  2 12  1  0  0  0  0
  2 15  1  0  0  0  0
  3 15  2  0  0  0  0
  3  9  1  0  0  0  0
  4 21  1  0  0  0  0
  5  4  2  0  0  0  0
  6  8  2  0  0  0  0
  7  6  1  0  0  0  0
  8  4  1  0  0  0  0
  9 11  1  0  0  0  0
  9 10  2  0  0  0  0
 10  1  1  0  0  0  0
 10  6  1  0  0  0  0
 11  7  2  0  0  0  0
 12 13  1  0  0  0  0
 13 18  1  6  0  0  0
 13 14  1  0  0  0  0
 14 16  1  0  0  0  0
 15 17  1  0  0  0  0
 17 16  1  0  0  0  0
 17  1  2  0  0  0  0
 19 18  2  0  0  0  0
 20 18  1  0  0  0  0
 21 30  1  0  0  0  0
 22 26  1  0  0  0  0
 23 28  1  0  0  0  0
 24 32  1  0  0  0  0
 24 29  1  0  0  0  0
 25 24  2  0  0  0  0
 26 25  1  0  0  0  0
 26 28  2  0  0  0  0
 27 29  2  0  0  0  0
 28 27  1  0  0  0  0
 30 23  2  0  0  0  0
 31 22  2  0  0  0  0
 31 30  1  0  0  0  0
 32 33  1  0  0  0  0
 34 32  2  0  0  0  0
M  END
>  <MODEL>
1

>  <REMARK>
 VINA RESULT:     -11.8      0.000      0.000
  Name = 
  4 active torsions:
  status: ('A' for Active; 'I' for Inactive)
    1  A    between atoms: C_3  and  C_25
    2  A    between atoms: C_7  and  C_11
    3  A    between atoms: C_8  and  C_18
    4  A    between atoms: C_18  and  C_30
                            x       y       z     vdW  Elec       q    Type
                         _______ _______ _______ _____ _____    ______ ____

>  <TORSDO>
F 4

$$$$
=
 OpenBabel11052415373D

 34 39  0  0  1  0  0  0  0  0999 V2000
  187.0830  178.0410  144.0800 C   0  0  0  0  0  0  0  0  0  0  0  0
  189.2960  177.0130  147.0850 C   0  0  0  0  0  2  0  0  0  0  0  0
  186.9400  177.7390  146.9010 C   0  0  0  0  0  3  0  0  0  0  0  0
  185.7450  178.6610  142.1210 C   0  0  0  0  0  0  0  0  0  0  0  0
  186.9850  178.2530  142.6880 C   0  0  0  0  0  3  0  0  0  0  0  0
  184.7500  178.6450  144.3100 C   0  0  0  0  0  0  0  0  0  0  0  0
  183.8510  178.7530  145.4700 C   0  0  0  0  0  3  0  0  0  0  0  0
  184.6060  178.8680  142.9410 C   0  0  0  0  0  3  0  0  0  0  0  0
  185.8360  178.1240  146.1460 C   0  0  0  0  0  0  0  0  0  0  0  0
  185.9380  178.2550  144.8140 C   0  0  0  0  0  0  0  0  0  0  0  0
  184.5050  178.4390  146.5620 N   0  0  0  0  0  0  0  0  0  0  0  0
  190.6430  177.6090  146.6940 C   0  0  0  0  0  2  0  0  0  0  0  0
  191.3310  176.7910  145.5980 C   0  0  2  0  0  3  0  0  0  0  0  0
  190.3840  176.3310  144.4890 C   0  0  0  0  0  2  0  0  0  0  0  0
  188.1650  177.5030  146.2250 C   0  0  0  0  0  0  0  0  0  0  0  0
  189.5260  177.4870  144.0040 C   0  0  0  0  0  2  0  0  0  0  0  0
  188.2450  177.6400  144.7860 C   0  0  0  0  0  0  0  0  0  0  0  0
  192.0750  175.6290  146.1740 C   0  0  0  0  0  0  0  0  0  0  0  0
  192.4300  174.5680  145.3540 O   0  0  0  0  0  0  0  0  0  0  0  0
  192.3910  175.6100  147.3940 O   0  0  0  0  0  1  0  0  0  0  0  0
  185.6530  178.9110  140.6540 C   0  0  0  0  0  2  0  0  0  0  0  0
  187.8200  177.3230  137.9800 C   0  0  0  0  0  3  0  0  0  0  0  0
  188.0730  178.2690  140.6090 C   0  0  0  0  0  3  0  0  0  0  0  0
  191.3980  176.6150  138.6370 C   0  0  0  0  0  0  0  0  0  0  0  0
  190.1610  176.6970  137.9820 C   0  0  0  0  0  3  0  0  0  0  0  0
  189.0540  177.2450  138.6330 C   0  0  0  0  0  0  0  0  0  0  0  0
  190.4130  177.6400  140.6100 C   0  0  0  0  0  3  0  0  0  0  0  0
  189.1810  177.7210  139.9580 C   0  0  0  0  0  0  0  0  0  0  0  0
  191.5170  177.0900  139.9510 C   0  0  0  0  0  3  0  0  0  0  0  0
  186.8420  178.3500  139.9490 C   0  0  0  0  0  0  0  0  0  0  0  0
  186.7160  177.8730  138.6380 C   0  0  0  0  0  3  0  0  0  0  0  0
  192.5610  176.0360  137.9440 C   0  0  0  0  0  0  0  0  0  0  0  0
  193.5580  176.7520  137.6620 O   0  0  0  0  0  1  0  0  0  0  0  0
  192.5700  174.6910  137.5950 O   0  0  0  0  0  0  0  0  0  0  0  0
  1 17  1  0  0  0  0
  1 10  1  0  0  0  0
  4  5  1  0  0  0  0
  4  8  2  0  0  0  0
  5  1  2  0  0  0  0
  6 10  2  0  0  0  0
  6  7  1  0  0  0  0
  7 11  2  0  0  0  0
  8  6  1  0  0  0  0
  9 11  1  0  0  0  0
  9  3  2  0  0  0  0
 10  9  1  0  0  0  0
 12  2  1  0  0  0  0
 13 18  1  1  0  0  0
 13 12  1  0  0  0  0
 14 13  1  0  0  0  0
 15  3  1  0  0  0  0
 15  2  1  0  0  0  0
 16 14  1  0  0  0  0
 16 17  1  0  0  0  0
 17 15  2  0  0  0  0
 18 20  1  0  0  0  0
 19 18  2  0  0  0  0
 21  4  1  0  0  0  0
 22 26  2  0  0  0  0
 22 31  1  0  0  0  0
 24 29  1  0  0  0  0
 25 26  1  0  0  0  0
 25 24  2  0  0  0  0
 26 28  1  0  0  0  0
 28 23  2  0  0  0  0
 28 27  1  0  0  0  0
 29 27  2  0  0  0  0
 30 23  1  0  0  0  0
 30 21  1  0  0  0  0
 31 30  2  0  0  0  0
 32 24  1  0  0  0  0
 33 32  1  0  0  0  0
 34 32  2  0  0  0  0
M  END
>  <MODEL>
2

>  <REMARK>
 VINA RESULT:     -11.8      2.270      7.293
  Name = 
  4 active torsions:
  status: ('A' for Active; 'I' for Inactive)
    1  A    between atoms: C_3  and  C_25
    2  A    between atoms: C_7  and  C_11
    3  A    between atoms: C_8  and  C_18
    4  A    between atoms: C_18  and  C_30
                            x       y       z     vdW  Elec       q    Type
                         _______ _______ _______ _____ _____    ______ ____

>  <TORSDO>
F 4

$$$$
=
 OpenBabel11052415373D

 34 39  0  0  1  0  0  0  0  0999 V2000
  188.7090  177.6980  144.6890 C   0  0  0  0  0  0  0  0  0  0  0  0
  191.6820  176.7820  142.3860 C   0  0  0  0  0  2  0  0  0  0  0  0
  191.3860  176.7630  144.8410 C   0  0  0  0  0  3  0  0  0  0  0  0
  186.7720  178.2800  146.0750 C   0  0  0  0  0  0  0  0  0  0  0  0
  187.3810  178.1640  144.7940 C   0  0  0  0  0  3  0  0  0  0  0  0
  188.7960  177.4830  147.0980 C   0  0  0  0  0  0  0  0  0  0  0  0
  189.8510  177.0530  148.0300 C   0  0  0  0  0  3  0  0  0  0  0  0
  187.4880  177.9410  147.2520 C   0  0  0  0  0  3  0  0  0  0  0  0
  190.6050  176.9400  145.9780 C   0  0  0  0  0  0  0  0  0  0  0  0
  189.3410  177.3810  145.8700 C   0  0  0  0  0  0  0  0  0  0  0  0
  190.9270  176.7290  147.3550 N   0  0  0  0  0  0  0  0  0  0  0  0
  191.5620  177.8360  141.2930 C   0  0  0  0  0  2  0  0  0  0  0  0
  190.4100  177.5300  140.3310 C   0  0  2  0  0  3  0  0  0  0  0  0
  189.1370  177.0500  141.0300 C   0  0  0  0  0  2  0  0  0  0  0  0
  190.8150  177.0720  143.5790 C   0  0  0  0  0  0  0  0  0  0  0  0
  188.7930  177.9600  142.1980 C   0  0  0  0  0  2  0  0  0  0  0  0
  189.4460  177.5340  143.4900 C   0  0  0  0  0  0  0  0  0  0  0  0
  190.8300  176.5610  139.2730 C   0  0  0  0  0  0  0  0  0  0  0  0
  192.1280  176.6000  138.7840 O   0  0  0  0  0  0  0  0  0  0  0  0
  190.0200  175.7040  138.8290 O   0  0  0  0  0  1  0  0  0  0  0  0
  185.3780  178.8000  146.1830 C   0  0  0  0  0  2  0  0  0  0  0  0
  182.6830  178.6910  143.5210 C   0  0  0  0  0  3  0  0  0  0  0  0
  185.4790  178.8380  143.6810 C   0  0  0  0  0  3  0  0  0  0  0  0
  183.5860  178.7520  139.9280 C   0  0  0  0  0  0  0  0  0  0  0  0
  182.8210  178.7090  141.1020 C   0  0  0  0  0  3  0  0  0  0  0  0
  183.4450  178.7370  142.3510 C   0  0  0  0  0  0  0  0  0  0  0  0
  185.6160  178.8540  141.2620 C   0  0  0  0  0  3  0  0  0  0  0  0
  184.8550  178.8110  142.4320 C   0  0  0  0  0  0  0  0  0  0  0  0
  184.9840  178.8250  140.0160 C   0  0  0  0  0  3  0  0  0  0  0  0
  184.7100  178.7980  144.8500 C   0  0  0  0  0  0  0  0  0  0  0  0
  183.3140  178.7190  144.7680 C   0  0  0  0  0  3  0  0  0  0  0  0
  182.9210  178.7210  138.6140 C   0  0  0  0  0  0  0  0  0  0  0  0
  182.3090  179.7360  138.1850 O   0  0  0  0  0  1  0  0  0  0  0  0
  182.9630  177.5720  137.8350 O   0  0  0  0  0  0  0  0  0  0  0  0
  1  5  1  0  0  0  0
  1 10  1  0  0  0  0
  2 15  1  0  0  0  0
  3  9  1  0  0  0  0
  4 21  1  0  0  0  0
  4  8  1  0  0  0  0
  5  4  2  0  0  0  0
  6  8  2  0  0  0  0
  6  7  1  0  0  0  0
  9 11  1  0  0  0  0
 10  9  2  0  0  0  0
 10  6  1  0  0  0  0
 11  7  2  0  0  0  0
 12  2  1  0  0  0  0
 13 18  1  6  0  0  0
 13 14  1  0  0  0  0
 13 12  1  0  0  0  0
 14 16  1  0  0  0  0
 15  3  2  0  0  0  0
 16 17  1  0  0  0  0
 17 15  1  0  0  0  0
 17  1  2  0  0  0  0
 19 18  2  0  0  0  0
 20 18  1  0  0  0  0
 22 31  1  0  0  0  0
 23 30  1  0  0  0  0
 24 29  1  0  0  0  0
 24 25  2  0  0  0  0
 25 26  1  0  0  0  0
 26 28  1  0  0  0  0
 26 22  2  0  0  0  0
 27 28  1  0  0  0  0
 28 23  2  0  0  0  0
 29 27  2  0  0  0  0
 30 21  1  0  0  0  0
 31 30  2  0  0  0  0
 32 24  1  0  0  0  0
 33 32  1  0  0  0  0
 34 32  2  0  0  0  0
M  END
>  <MODEL>
3

>  <REMARK>
 VINA RESULT:     -11.8      3.418      7.484
  Name = 
  4 active torsions:
  status: ('A' for Active; 'I' for Inactive)
    1  A    between atoms: C_3  and  C_25
    2  A    between atoms: C_7  and  C_11
    3  A    between atoms: C_8  and  C_18
    4  A    between atoms: C_18  and  C_30
                            x       y       z     vdW  Elec       q    Type
                         _______ _______ _______ _____ _____    ______ ____

>  <TORSDO>
F 4

$$$$
=
 OpenBabel11052415373D

 34 39  0  0  1  0  0  0  0  0999 V2000
  184.4500  178.6490  141.7200 C   0  0  0  0  0  0  0  0  0  0  0  0
  185.9630  178.2510  138.1800 C   0  0  0  0  0  2  0  0  0  0  0  0
  183.6500  178.5620  138.9970 C   0  0  0  0  0  3  0  0  0  0  0  0
  183.5750  178.9120  143.9960 C   0  0  0  0  0  0  0  0  0  0  0  0
  184.6720  178.7020  143.1130 C   0  0  0  0  0  3  0  0  0  0  0  0
  182.0870  178.9990  142.1100 C   0  0  0  0  0  0  0  0  0  0  0  0
  180.9250  179.0890  141.2120 C   0  0  0  0  0  3  0  0  0  0  0  0
  182.2570  179.0580  143.4930 C   0  0  0  0  0  3  0  0  0  0  0  0
  182.7350  178.7660  140.0250 C   0  0  0  0  0  0  0  0  0  0  0  0
  183.1480  178.8040  141.3020 C   0  0  0  0  0  0  0  0  0  0  0  0
  181.3180  178.9500  139.9690 N   0  0  0  0  0  0  0  0  0  0  0  0
  187.0670  177.2320  138.4290 C   0  0  0  0  0  2  0  0  0  0  0  0
  188.2730  177.8600  139.1350 C   0  0  2  0  0  3  0  0  0  0  0  0
  187.8910  178.8180  140.2640 C   0  0  0  0  0  2  0  0  0  0  0  0
  185.0160  178.3860  139.3390 C   0  0  0  0  0  0  0  0  0  0  0  0
  186.8520  178.1860  141.1750 C   0  0  0  0  0  2  0  0  0  0  0  0
  185.4360  178.4430  140.7230 C   0  0  0  0  0  0  0  0  0  0  0  0
  189.1860  178.5290  138.1590 C   0  0  0  0  0  0  0  0  0  0  0  0
  190.1800  177.7890  137.5330 O   0  0  0  0  0  0  0  0  0  0  0  0
  189.0560  179.7530  137.8930 O   0  0  0  0  0  1  0  0  0  0  0  0
  183.8100  178.9400  145.4680 C   0  0  0  0  0  2  0  0  0  0  0  0
  187.0110  178.2860  147.3910 C   0  0  0  0  0  3  0  0  0  0  0  0
  186.0300  178.0080  144.7780 C   0  0  0  0  0  3  0  0  0  0  0  0
  189.9830  176.8890  145.6740 C   0  0  0  0  0  0  0  0  0  0  0  0
  189.1520  177.4000  146.6800 C   0  0  0  0  0  3  0  0  0  0  0  0
  187.8380  177.7740  146.3880 C   0  0  0  0  0  0  0  0  0  0  0  0
  188.1710  177.1250  144.0680 C   0  0  0  0  0  3  0  0  0  0  0  0
  187.3440  177.6340  145.0710 C   0  0  0  0  0  0  0  0  0  0  0  0
  189.4850  176.7530  144.3690 C   0  0  0  0  0  3  0  0  0  0  0  0
  185.2040  178.5150  145.7870 C   0  0  0  0  0  0  0  0  0  0  0  0
  185.6970  178.6580  147.0910 C   0  0  0  0  0  3  0  0  0  0  0  0
  191.3660  176.4980  145.9900 C   0  0  0  0  0  0  0  0  0  0  0  0
  192.0550  175.8560  145.1520 O   0  0  0  0  0  0  0  0  0  0  0  0
  191.9260  176.8330  147.2160 O   0  0  0  0  0  1  0  0  0  0  0  0
  1  5  1  0  0  0  0
  2 12  1  0  0  0  0
  2 15  1  0  0  0  0
  3 15  2  0  0  0  0
  3  9  1  0  0  0  0
  4 21  1  0  0  0  0
  5  4  2  0  0  0  0
  6  8  2  0  0  0  0
  7  6  1  0  0  0  0
  8  4  1  0  0  0  0
  9 10  2  0  0  0  0
 10  1  1  0  0  0  0
 10  6  1  0  0  0  0
 11  9  1  0  0  0  0
 11  7  2  0  0  0  0
 12 13  1  0  0  0  0
 13 18  1  6  0  0  0
 13 14  1  0  0  0  0
 14 16  1  0  0  0  0
 15 17  1  0  0  0  0
 17 16  1  0  0  0  0
 17  1  2  0  0  0  0
 19 18  2  0  0  0  0
 20 18  1  0  0  0  0
 21 30  1  0  0  0  0
 23 28  2  0  0  0  0
 23 30  1  0  0  0  0
 24 32  1  0  0  0  0
 24 25  2  0  0  0  0
 26 25  1  0  0  0  0
 26 22  2  0  0  0  0
 27 29  2  0  0  0  0
 27 28  1  0  0  0  0
 28 26  1  0  0  0  0
 29 24  1  0  0  0  0
 30 31  2  0  0  0  0
 31 22  1  0  0  0  0
 32 34  1  0  0  0  0
 33 32  2  0  0  0  0
M  END
>  <MODEL>
4

>  <REMARK>
 VINA RESULT:     -11.7      0.750      1.585
  Name = 
  4 active torsions:
  status: ('A' for Active; 'I' for Inactive)
    1  A    between atoms: C_3  and  C_25
    2  A    between atoms: C_7  and  C_11
    3  A    between atoms: C_8  and  C_18
    4  A    between atoms: C_18  and  C_30
                            x       y       z     vdW  Elec       q    Type
                         _______ _______ _______ _____ _____    ______ ____

>  <TORSDO>
F 4

$$$$
=
 OpenBabel11052415373D

 34 39  0  0  1  0  0  0  0  0999 V2000
  188.7650  177.6520  144.6730 C   0  0  0  0  0  0  0  0  0  0  0  0
  191.7940  176.8370  142.4050 C   0  0  0  0  0  2  0  0  0  0  0  0
  191.4790  176.8340  144.8580 C   0  0  0  0  0  3  0  0  0  0  0  0
  186.7940  178.1680  146.0370 C   0  0  0  0  0  0  0  0  0  0  0  0
  187.4180  178.0630  144.7620 C   0  0  0  0  0  3  0  0  0  0  0  0
  188.8410  177.4700  147.0860 C   0  0  0  0  0  0  0  0  0  0  0  0
  189.9050  177.0950  148.0310 C   0  0  0  0  0  3  0  0  0  0  0  0
  187.5130  177.8730  147.2230 C   0  0  0  0  0  3  0  0  0  0  0  0
  190.6800  176.9910  145.9870 C   0  0  0  0  0  0  0  0  0  0  0  0
  189.4000  177.3770  145.8630 C   0  0  0  0  0  0  0  0  0  0  0  0
  191.0000  176.8090  147.3680 N   0  0  0  0  0  0  0  0  0  0  0  0
  191.6380  177.8720  141.2990 C   0  0  0  0  0  2  0  0  0  0  0  0
  190.5090  177.5060  140.3310 C   0  0  2  0  0  3  0  0  0  0  0  0
  189.2520  176.9810  141.0260 C   0  0  0  0  0  2  0  0  0  0  0  0
  190.9060  177.1030  143.5880 C   0  0  0  0  0  0  0  0  0  0  0  0
  188.8590  177.8880  142.1800 C   0  0  0  0  0  2  0  0  0  0  0  0
  189.5190  177.5060  143.4820 C   0  0  0  0  0  0  0  0  0  0  0  0
  190.9780  176.5430  139.2880 C   0  0  0  0  0  0  0  0  0  0  0  0
  192.2410  176.6960  138.7340 O   0  0  0  0  0  0  0  0  0  0  0  0
  190.2430  175.5900  138.9160 O   0  0  0  0  0  1  0  0  0  0  0  0
  185.3790  178.6300  146.1280 C   0  0  0  0  0  2  0  0  0  0  0  0
  184.8600  178.1920  142.3990 C   0  0  0  0  0  3  0  0  0  0  0  0
  183.3720  178.9260  144.6600 C   0  0  0  0  0  3  0  0  0  0  0  0
  181.5500  178.8550  140.8710 C   0  0  0  0  0  0  0  0  0  0  0  0
  182.9020  178.5100  141.0070 C   0  0  0  0  0  3  0  0  0  0  0  0
  183.5120  178.5320  142.2640 C   0  0  0  0  0  0  0  0  0  0  0  0
  181.4150  179.2460  143.2670 C   0  0  0  0  0  3  0  0  0  0  0  0
  182.7620  178.9030  143.4030 C   0  0  0  0  0  0  0  0  0  0  0  0
  180.8120  179.2210  142.0070 C   0  0  0  0  0  3  0  0  0  0  0  0
  184.7210  178.5790  144.7900 C   0  0  0  0  0  0  0  0  0  0  0  0
  185.4640  178.2170  143.6590 C   0  0  0  0  0  3  0  0  0  0  0  0
  180.9130  178.8290  139.5440 C   0  0  0  0  0  0  0  0  0  0  0  0
  179.8510  178.1770  139.3580 O   0  0  0  0  0  1  0  0  0  0  0  0
  181.4800  179.5230  138.4820 O   0  0  0  0  0  0  0  0  0  0  0  0
  1  5  1  0  0  0  0
  1 10  1  0  0  0  0
  2 15  1  0  0  0  0
  3  9  1  0  0  0  0
  4 21  1  0  0  0  0
  4  8  1  0  0  0  0
  5  4  2  0  0  0  0
  6  8  2  0  0  0  0
  6  7  1  0  0  0  0
  9 11  1  0  0  0  0
 10  9  2  0  0  0  0
 10  6  1  0  0  0  0
 11  7  2  0  0  0  0
 12  2  1  0  0  0  0
 13 18  1  6  0  0  0
 13 14  1  0  0  0  0
 13 12  1  0  0  0  0
 14 16  1  0  0  0  0
 15  3  2  0  0  0  0
 16 17  1  0  0  0  0
 17 15  1  0  0  0  0
 17  1  2  0  0  0  0
 19 18  2  0  0  0  0
 20 18  1  0  0  0  0
 22 31  1  0  0  0  0
 23 30  1  0  0  0  0
 24 25  2  0  0  0  0
 24 29  1  0  0  0  0
 25 26  1  0  0  0  0
 26 22  2  0  0  0  0
 26 28  1  0  0  0  0
 27 28  1  0  0  0  0
 28 23  2  0  0  0  0
 29 27  2  0  0  0  0
 30 21  1  0  0  0  0
 31 30  2  0  0  0  0
 32 24  1  0  0  0  0
 33 32  1  0  0  0  0
 34 32  2  0  0  0  0
M  END
>  <MODEL>
5

>  <REMARK>
 VINA RESULT:     -11.7      3.576      7.762
  Name = 
  4 active torsions:
  status: ('A' for Active; 'I' for Inactive)
    1  A    between atoms: C_3  and  C_25
    2  A    between atoms: C_7  and  C_11
    3  A    between atoms: C_8  and  C_18
    4  A    between atoms: C_18  and  C_30
                            x       y       z     vdW  Elec       q    Type
                         _______ _______ _______ _____ _____    ______ ____

>  <TORSDO>
F 4

$$$$
=
 OpenBabel11052415373D

 34 39  0  0  1  0  0  0  0  0999 V2000
  187.8570  177.8220  144.3450 C   0  0  0  0  0  0  0  0  0  0  0  0
  190.9580  176.8660  142.2350 C   0  0  0  0  0  2  0  0  0  0  0  0
  190.4810  176.7820  144.6600 C   0  0  0  0  0  3  0  0  0  0  0  0
  185.8450  178.4340  145.6070 C   0  0  0  0  0  0  0  0  0  0  0  0
  186.5430  178.3350  144.3700 C   0  0  0  0  0  3  0  0  0  0  0  0
  187.7590  177.5300  146.7470 C   0  0  0  0  0  0  0  0  0  0  0  0
  188.7270  177.0310  147.7370 C   0  0  0  0  0  3  0  0  0  0  0  0
  186.4600  178.0320  146.8200 C   0  0  0  0  0  3  0  0  0  0  0  0
  189.6250  176.9530  145.7430 C   0  0  0  0  0  0  0  0  0  0  0  0
  188.3890  177.4450  145.5580 C   0  0  0  0  0  0  0  0  0  0  0  0
  189.8370  176.6870  147.1310 N   0  0  0  0  0  0  0  0  0  0  0  0
  190.9550  177.9570  141.1720 C   0  0  0  0  0  2  0  0  0  0  0  0
  189.8670  177.7240  140.1190 C   0  0  2  0  0  3  0  0  0  0  0  0
  188.5310  177.2720  140.7080 C   0  0  0  0  0  2  0  0  0  0  0  0
  190.0160  177.1510  143.3710 C   0  0  0  0  0  0  0  0  0  0  0  0
  188.1340  178.1570  141.8770 C   0  0  0  0  0  2  0  0  0  0  0  0
  188.6750  177.6680  143.1980 C   0  0  0  0  0  0  0  0  0  0  0  0
  190.3290  176.7730  139.0620 C   0  0  0  0  0  0  0  0  0  0  0  0
  190.1710  177.1060  137.7240 O   0  0  0  0  0  0  0  0  0  0  0  0
  190.8690  175.6780  139.3750 O   0  0  0  0  0  1  0  0  0  0  0  0
  184.4670  179.0030  145.6310 C   0  0  0  0  0  2  0  0  0  0  0  0
  181.8740  178.6980  142.8840 C   0  0  0  0  0  3  0  0  0  0  0  0
  184.6520  178.9940  143.1340 C   0  0  0  0  0  3  0  0  0  0  0  0
  182.8950  178.7290  139.3220 C   0  0  0  0  0  0  0  0  0  0  0  0
  182.0940  178.6710  140.4710 C   0  0  0  0  0  3  0  0  0  0  0  0
  182.6730  178.7580  141.7400 C   0  0  0  0  0  0  0  0  0  0  0  0
  184.8710  178.9650  140.7210 C   0  0  0  0  0  3  0  0  0  0  0  0
  184.0730  178.9070  141.8650 C   0  0  0  0  0  0  0  0  0  0  0  0
  184.2840  178.8770  139.4550 C   0  0  0  0  0  3  0  0  0  0  0  0
  183.8460  178.9380  144.2770 C   0  0  0  0  0  0  0  0  0  0  0  0
  182.4590  178.7850  144.1510 C   0  0  0  0  0  3  0  0  0  0  0  0
  182.2790  178.6360  137.9890 C   0  0  0  0  0  0  0  0  0  0  0  0
  182.3630  177.5720  137.3190 O   0  0  0  0  0  0  0  0  0  0  0  0
  181.5970  179.7230  137.4550 O   0  0  0  0  0  1  0  0  0  0  0  0
  1  5  1  0  0  0  0
  1 10  1  0  0  0  0
  2 15  1  0  0  0  0
  3  9  1  0  0  0  0
  4 21  1  0  0  0  0
  4  8  1  0  0  0  0
  5  4  2  0  0  0  0
  6  8  2  0  0  0  0
  6  7  1  0  0  0  0
  9 11  1  0  0  0  0
 10  9  2  0  0  0  0
 10  6  1  0  0  0  0
 11  7  2  0  0  0  0
 12  2  1  0  0  0  0
 13 18  1  6  0  0  0
 13 14  1  0  0  0  0
 13 12  1  0  0  0  0
 14 16  1  0  0  0  0
 15  3  2  0  0  0  0
 16 17  1  0  0  0  0
 17 15  1  0  0  0  0
 17  1  2  0  0  0  0
 18 20  1  0  0  0  0
 19 18  2  0  0  0  0
 22 31  1  0  0  0  0
 23 30  1  0  0  0  0
 24 29  1  0  0  0  0
 24 25  2  0  0  0  0
 25 26  1  0  0  0  0
 26 28  1  0  0  0  0
 26 22  2  0  0  0  0
 27 28  1  0  0  0  0
 28 23  2  0  0  0  0
 29 27  2  0  0  0  0
 30 21  1  0  0  0  0
 31 30  2  0  0  0  0
 32 24  1  0  0  0  0
 33 32  2  0  0  0  0
 34 32  1  0  0  0  0
M  END
>  <MODEL>
6

>  <REMARK>
 VINA RESULT:     -11.2      3.131      7.497
  Name = 
  4 active torsions:
  status: ('A' for Active; 'I' for Inactive)
    1  A    between atoms: C_3  and  C_25
    2  A    between atoms: C_7  and  C_11
    3  A    between atoms: C_8  and  C_18
    4  A    between atoms: C_18  and  C_30
                            x       y       z     vdW  Elec       q    Type
                         _______ _______ _______ _____ _____    ______ ____

>  <TORSDO>
F 4

$$$$
=
 OpenBabel11052415373D

 34 39  0  0  1  0  0  0  0  0999 V2000
  186.4130  178.2570  143.2300 C   0  0  0  0  0  0  0  0  0  0  0  0
  188.9240  177.3050  146.0180 C   0  0  0  0  0  2  0  0  0  0  0  0
  186.5470  177.9850  146.0540 C   0  0  0  0  0  3  0  0  0  0  0  0
  184.8810  178.8300  141.4030 C   0  0  0  0  0  0  0  0  0  0  0  0
  186.1770  178.4520  141.8530 C   0  0  0  0  0  3  0  0  0  0  0  0
  184.1020  178.8210  143.6780 C   0  0  0  0  0  0  0  0  0  0  0  0
  183.3160  178.9250  144.9180 C   0  0  0  0  0  3  0  0  0  0  0  0
  183.8220  179.0250  142.3270 C   0  0  0  0  0  3  0  0  0  0  0  0
  185.3680  178.3410  145.4060 C   0  0  0  0  0  0  0  0  0  0  0  0
  185.3400  178.4580  144.0690 C   0  0  0  0  0  0  0  0  0  0  0  0
  184.0770  178.6360  145.9450 N   0  0  0  0  0  0  0  0  0  0  0  0
  190.2150  177.9220  145.4940 C   0  0  0  0  0  2  0  0  0  0  0  0
  190.8110  177.1040  144.3440 C   0  0  2  0  0  3  0  0  0  0  0  0
  189.7710  176.6140  143.3370 C   0  0  0  0  0  2  0  0  0  0  0  0
  187.7060  177.7650  145.2660 C   0  0  0  0  0  0  0  0  0  0  0  0
  188.8480  177.7490  142.9250 C   0  0  0  0  0  2  0  0  0  0  0  0
  187.6440  177.8870  143.8250 C   0  0  0  0  0  0  0  0  0  0  0  0
  191.6290  175.9630  144.8580 C   0  0  0  0  0  0  0  0  0  0  0  0
  191.9740  174.9270  144.0010 O   0  0  0  0  0  0  0  0  0  0  0  0
  192.0170  175.9390  146.0570 O   0  0  0  0  0  1  0  0  0  0  0  0
  184.6440  179.0610  139.9500 C   0  0  0  0  0  2  0  0  0  0  0  0
  183.9500  176.1880  137.5770 C   0  0  0  0  0  3  0  0  0  0  0  0
  182.8120  177.3560  139.8590 C   0  0  0  0  0  3  0  0  0  0  0  0
  180.9620  174.0460  138.0420 C   0  0  0  0  0  0  0  0  0  0  0  0
  182.1490  174.5670  137.5100 C   0  0  0  0  0  3  0  0  0  0  0  0
  182.7680  175.6670  138.1100 C   0  0  0  0  0  0  0  0  0  0  0  0
  181.0110  175.7370  139.7890 C   0  0  0  0  0  3  0  0  0  0  0  0
  182.1940  176.2560  139.2590 C   0  0  0  0  0  0  0  0  0  0  0  0
  180.3980  174.6360  139.1830 C   0  0  0  0  0  3  0  0  0  0  0  0
  183.9990  177.8700  139.3250 C   0  0  0  0  0  0  0  0  0  0  0  0
  184.5630  177.2890  138.1820 C   0  0  0  0  0  3  0  0  0  0  0  0
  180.3150  172.8870  137.4040 C   0  0  0  0  0  0  0  0  0  0  0  0
  181.0100  171.9380  136.9520 O   0  0  0  0  0  0  0  0  0  0  0  0
  178.9310  172.8300  137.2940 O   0  0  0  0  0  1  0  0  0  0  0  0
  1 17  2  0  0  0  0
  1 10  1  0  0  0  0
  4  5  2  0  0  0  0
  4  8  1  0  0  0  0
  5  1  1  0  0  0  0
  6 10  1  0  0  0  0
  6  7  1  0  0  0  0
  7 11  2  0  0  0  0
  8  6  2  0  0  0  0
  9 11  1  0  0  0  0
  9  3  1  0  0  0  0
 10  9  2  0  0  0  0
 12  2  1  0  0  0  0
 13 18  1  1  0  0  0
 13 12  1  0  0  0  0
 14 13  1  0  0  0  0
 15  2  1  0  0  0  0
 15  3  2  0  0  0  0
 16 14  1  0  0  0  0
 16 17  1  0  0  0  0
 17 15  1  0  0  0  0
 18 20  1  0  0  0  0
 19 18  2  0  0  0  0
 21  4  1  0  0  0  0
 22 26  2  0  0  0  0
 22 31  1  0  0  0  0
 24 29  1  0  0  0  0
 25 24  2  0  0  0  0
 25 26  1  0  0  0  0
 26 28  1  0  0  0  0
 28 27  1  0  0  0  0
 28 23  2  0  0  0  0
 29 27  2  0  0  0  0
 30 23  1  0  0  0  0
 30 21  1  0  0  0  0
 31 30  2  0  0  0  0
 32 24  1  0  0  0  0
 33 32  2  0  0  0  0
 34 32  1  0  0  0  0
M  END
>  <MODEL>
7

>  <REMARK>
 VINA RESULT:     -11.2      3.860      8.666
  Name = 
  4 active torsions:
  status: ('A' for Active; 'I' for Inactive)
    1  A    between atoms: C_3  and  C_25
    2  A    between atoms: C_7  and  C_11
    3  A    between atoms: C_8  and  C_18
    4  A    between atoms: C_18  and  C_30
                            x       y       z     vdW  Elec       q    Type
                         _______ _______ _______ _____ _____    ______ ____

>  <TORSDO>
F 4

$$$$
=
 OpenBabel11052415373D

 34 39  0  0  1  0  0  0  0  0999 V2000
  188.2760  177.9220  142.5890 C   0  0  0  0  0  0  0  0  0  0  0  0
  189.0550  177.1270  146.2960 C   0  0  0  0  0  2  0  0  0  0  0  0
  186.9570  177.6300  145.0870 C   0  0  0  0  0  3  0  0  0  0  0  0
  187.8660  178.3990  140.2190 C   0  0  0  0  0  0  0  0  0  0  0  0
  188.7690  178.1120  141.2800 C   0  0  0  0  0  3  0  0  0  0  0  0
  186.0310  178.3100  141.7700 C   0  0  0  0  0  0  0  0  0  0  0  0
  184.7150  178.3440  142.4270 C   0  0  0  0  0  3  0  0  0  0  0  0
  186.4720  178.5070  140.4620 C   0  0  0  0  0  3  0  0  0  0  0  0
  186.2580  177.9060  143.9160 C   0  0  0  0  0  0  0  0  0  0  0  0
  186.9140  178.0350  142.7510 C   0  0  0  0  0  0  0  0  0  0  0  0
  184.8570  178.1000  143.7070 N   0  0  0  0  0  0  0  0  0  0  0  0
  190.3850  177.8410  146.4920 C   0  0  0  0  0  2  0  0  0  0  0  0
  191.5420  177.0810  145.8350 C   0  0  2  0  0  3  0  0  0  0  0  0
  191.2040  176.5260  144.4510 C   0  0  0  0  0  2  0  0  0  0  0  0
  188.3680  177.5040  145.0130 C   0  0  0  0  0  0  0  0  0  0  0  0
  190.5490  177.5950  143.5910 C   0  0  0  0  0  2  0  0  0  0  0  0
  189.0480  177.6350  143.7420 C   0  0  0  0  0  0  0  0  0  0  0  0
  192.0550  175.9970  146.7280 C   0  0  0  0  0  0  0  0  0  0  0  0
  192.1590  176.2260  148.0930 O   0  0  0  0  0  1  0  0  0  0  0  0
  192.3860  174.8770  146.2550 O   0  0  0  0  0  0  0  0  0  0  0  0
  188.3950  178.6280  138.8430 C   0  0  0  0  0  2  0  0  0  0  0  0
  189.3040  175.2050  137.4910 C   0  0  0  0  0  3  0  0  0  0  0  0
  190.5960  177.4880  138.4850 C   0  0  0  0  0  3  0  0  0  0  0  0
  192.8500  174.1530  137.2700 C   0  0  0  0  0  0  0  0  0  0  0  0
  191.4520  174.1270  137.1790 C   0  0  0  0  0  3  0  0  0  0  0  0
  190.6980  175.2330  137.5810 C   0  0  0  0  0  0  0  0  0  0  0  0
  192.7420  176.4080  138.1730 C   0  0  0  0  0  3  0  0  0  0  0  0
  191.3490  176.3830  138.0820 C   0  0  0  0  0  0  0  0  0  0  0  0
  193.4890  175.2980  137.7690 C   0  0  0  0  0  3  0  0  0  0  0  0
  189.2000  177.4580  138.3880 C   0  0  0  0  0  0  0  0  0  0  0  0
  188.5560  176.3150  137.8960 C   0  0  0  0  0  3  0  0  0  0  0  0
  193.6380  172.9840  136.8450 C   0  0  0  0  0  0  0  0  0  0  0  0
  194.8420  172.8650  137.1940 O   0  0  0  0  0  1  0  0  0  0  0  0
  193.0590  172.0010  136.0520 O   0  0  0  0  0  0  0  0  0  0  0  0
  1 10  1  0  0  0  0
  1 17  1  0  0  0  0
  2 12  1  0  0  0  0
  4  8  2  0  0  0  0
  4  5  1  0  0  0  0
  5  1  2  0  0  0  0
  6  7  1  0  0  0  0
  6 10  2  0  0  0  0
  7 11  2  0  0  0  0
  8  6  1  0  0  0  0
  9  3  2  0  0  0  0
 10  9  1  0  0  0  0
 11  9  1  0  0  0  0
 13 12  1  0  0  0  0
 13 18  1  1  0  0  0
 14 13  1  0  0  0  0
 15  3  1  0  0  0  0
 15  2  1  0  0  0  0
 16 17  1  0  0  0  0
 16 14  1  0  0  0  0
 17 15  2  0  0  0  0
 18 19  1  0  0  0  0
 20 18  2  0  0  0  0
 21  4  1  0  0  0  0
 22 26  2  0  0  0  0
 22 31  1  0  0  0  0
 24 29  1  0  0  0  0
 25 24  2  0  0  0  0
 25 26  1  0  0  0  0
 26 28  1  0  0  0  0
 28 27  1  0  0  0  0
 28 23  2  0  0  0  0
 29 27  2  0  0  0  0
 30 23  1  0  0  0  0
 30 21  1  0  0  0  0
 31 30  2  0  0  0  0
 32 33  1  0  0  0  0
 32 24  1  0  0  0  0
 34 32  2  0  0  0  0
M  END
>  <MODEL>
8

>  <REMARK>
 VINA RESULT:     -11.0      3.266      8.254
  Name = 
  4 active torsions:
  status: ('A' for Active; 'I' for Inactive)
    1  A    between atoms: C_3  and  C_25
    2  A    between atoms: C_7  and  C_11
    3  A    between atoms: C_8  and  C_18
    4  A    between atoms: C_18  and  C_30
                            x       y       z     vdW  Elec       q    Type
                         _______ _______ _______ _____ _____    ______ ____

>  <TORSDO>
F 4

$$$$
=
 OpenBabel11052415373D

 34 39  0  0  1  0  0  0  0  0999 V2000
  188.7170  177.6170  142.6160 C   0  0  0  0  0  0  0  0  0  0  0  0
  190.0700  177.4110  138.9960 C   0  0  0  0  0  2  0  0  0  0  0  0
  191.0560  176.8560  141.1950 C   0  0  0  0  0  3  0  0  0  0  0  0
  187.7780  177.7620  144.8770 C   0  0  0  0  0  0  0  0  0  0  0  0
  187.6500  177.9600  143.4730 C   0  0  0  0  0  3  0  0  0  0  0  0
  190.0010  176.9090  144.5430 C   0  0  0  0  0  0  0  0  0  0  0  0
  191.3590  176.3650  144.6990 C   0  0  0  0  0  3  0  0  0  0  0  0
  188.9740  177.2340  145.4280 C   0  0  0  0  0  3  0  0  0  0  0  0
  190.9660  176.7370  142.5780 C   0  0  0  0  0  0  0  0  0  0  0  0
  189.8440  177.1040  143.2180 C   0  0  0  0  0  0  0  0  0  0  0  0
  191.9290  176.2640  143.5230 N   0  0  0  0  0  0  0  0  0  0  0  0
  189.4650  178.6600  138.3680 C   0  0  0  0  0  2  0  0  0  0  0  0
  187.9710  178.4840  138.0770 C   0  0  2  0  0  3  0  0  0  0  0  0
  187.2060  177.7820  139.2000 C   0  0  0  0  0  2  0  0  0  0  0  0
  189.9410  177.3830  140.4920 C   0  0  0  0  0  0  0  0  0  0  0  0
  187.5430  178.4010  140.5460 C   0  0  0  0  0  2  0  0  0  0  0  0
  188.7390  177.7600  141.2070 C   0  0  0  0  0  0  0  0  0  0  0  0
  187.7510  177.7890  136.7720 C   0  0  0  0  0  0  0  0  0  0  0  0
  188.5900  178.0620  135.7000 O   0  0  0  0  0  0  0  0  0  0  0  0
  186.8180  176.9530  136.6390 O   0  0  0  0  0  1  0  0  0  0  0  0
  186.6580  178.1520  145.7810 C   0  0  0  0  0  2  0  0  0  0  0  0
  183.0740  179.0430  144.9300 C   0  0  0  0  0  3  0  0  0  0  0  0
  185.3880  178.1490  143.6220 C   0  0  0  0  0  3  0  0  0  0  0  0
  181.8450  178.7650  141.4450 C   0  0  0  0  0  0  0  0  0  0  0  0
  181.8720  179.0070  142.8250 C   0  0  0  0  0  3  0  0  0  0  0  0
  183.0470  178.8040  143.5530 C   0  0  0  0  0  0  0  0  0  0  0  0
  184.1860  178.1120  141.5190 C   0  0  0  0  0  3  0  0  0  0  0  0
  184.2140  178.3530  142.8940 C   0  0  0  0  0  0  0  0  0  0  0  0
  183.0060  178.3180  140.7980 C   0  0  0  0  0  3  0  0  0  0  0  0
  185.4110  178.3960  145.0000 C   0  0  0  0  0  0  0  0  0  0  0  0
  184.2530  178.8370  145.6520 C   0  0  0  0  0  3  0  0  0  0  0  0
  180.6030  178.9820  140.6840 C   0  0  0  0  0  0  0  0  0  0  0  0
  179.9190  178.0010  140.2860 O   0  0  0  0  0  0  0  0  0  0  0  0
  180.1720  180.2720  140.3980 O   0  0  0  0  0  1  0  0  0  0  0  0
  1 10  1  0  0  0  0
  1  5  1  0  0  0  0
  2 15  1  0  0  0  0
  3  9  1  0  0  0  0
  4  8  1  0  0  0  0
  4 21  1  0  0  0  0
  5  4  2  0  0  0  0
  6  7  1  0  0  0  0
  6  8  2  0  0  0  0
  9 10  2  0  0  0  0
  9 11  1  0  0  0  0
 10  6  1  0  0  0  0
 11  7  2  0  0  0  0
 12  2  1  0  0  0  0
 13 18  1  6  0  0  0
 13 12  1  0  0  0  0
 13 14  1  0  0  0  0
 14 16  1  0  0  0  0
 15  3  2  0  0  0  0
 15 17  1  0  0  0  0
 16 17  1  0  0  0  0
 17  1  2  0  0  0  0
 19 18  2  0  0  0  0
 20 18  1  0  0  0  0
 22 31  1  0  0  0  0
 23 30  1  0  0  0  0
 24 25  2  0  0  0  0
 25 26  1  0  0  0  0
 26 22  2  0  0  0  0
 27 28  1  0  0  0  0
 28 26  1  0  0  0  0
 28 23  2  0  0  0  0
 29 24  1  0  0  0  0
 29 27  2  0  0  0  0
 30 31  2  0  0  0  0
 30 21  1  0  0  0  0
 32 24  1  0  0  0  0
 33 32  2  0  0  0  0
 34 32  1  0  0  0  0
M  END
>  <MODEL>
9

>  <REMARK>
 VINA RESULT:     -11.0      3.872      7.200
  Name = 
  4 active torsions:
  status: ('A' for Active; 'I' for Inactive)
    1  A    between atoms: C_3  and  C_25
    2  A    between atoms: C_7  and  C_11
    3  A    between atoms: C_8  and  C_18
    4  A    between atoms: C_18  and  C_30
                            x       y       z     vdW  Elec       q    Type
                         _______ _______ _______ _____ _____    ______ ____

>  <TORSDO>
F 4

$$$$
