=
 OpenBabel11052412253D

 30 31  0  0  1  0  0  0  0  0999 V2000
  189.0670  177.3370  140.7350 C   0  0  0  0  0  0  0  0  0  0  0  0
  188.6400  178.5800  140.0080 C   0  0  0  0  0  2  0  0  0  0  0  0
  188.4590  176.9640  141.7240 O   0  0  0  0  0  0  0  0  0  0  0  0
  190.2080  176.4300  138.7440 C   0  0  1  0  0  3  0  0  0  0  0  0
  188.6160  178.3340  138.4980 C   0  0  0  0  0  2  0  0  0  0  0  0
  190.2880  176.5990  140.2740 C   0  0  1  0  0  3  0  0  0  0  0  0
  189.9390  177.7430  138.0080 C   0  0  0  0  0  2  0  0  0  0  0  0
  191.9840  174.1150  136.1450 C   0  0  0  0  0  2  0  0  0  0  0  0
  193.0260  175.0200  135.8540 O   0  0  0  0  0  0  0  0  0  0  0  0
  190.7990  174.8320  136.7870 C   0  0  1  0  0  3  0  0  0  0  0  0
  192.5440  176.3150  137.8600 C   0  0  0  0  0  2  0  0  0  0  0  0
  189.7230  173.8000  137.0660 C   0  0  0  0  0  1  0  0  0  0  0  0
  193.5720  175.5080  137.0650 C   0  0  1  0  0  3  0  0  0  0  0  0
  191.2580  175.5190  138.0840 C   0  0  1  0  0  3  0  0  0  0  0  0
  194.1490  174.4370  137.8750 N   0  0  0  0  0  2  0  0  0  0  0  0
  195.9460  173.7010  139.3090 O   0  0  0  0  0  0  0  0  0  0  0  0
  195.5050  174.4350  138.2320 N   0  0  0  0  0  0  0  0  0  0  0  0
  196.3210  175.0940  137.5590 O   0  0  0  0  0  0  0  0  0  0  0  0
  191.7710  177.5200  140.8120 S   0  0  0  0  0  0  0  0  0  0  0  0
  191.5260  177.0450  142.5450 C   0  0  0  0  0  2  0  0  0  0  0  0
  191.7670  178.2450  143.4410 C   0  0  0  0  0  2  0  0  0  0  0  0
  191.2540  177.9540  144.8420 C   0  0  2  0  0  3  0  0  0  0  0  0
  191.5500  176.6370  145.1910 O   0  0  0  0  0  1  0  0  0  0  0  0
  189.7500  178.1710  144.9350 C   0  0  0  0  0  2  0  0  0  0  0  0
  187.8040  177.3200  146.2890 C   0  0  0  0  0  3  0  0  0  0  0  0
  189.0930  177.2550  145.9300 C   0  0  0  0  0  3  0  0  0  0  0  0
  186.8260  178.3080  145.7240 C   0  0  2  0  0  3  0  0  0  0  0  0
  185.7940  178.6770  146.7730 C   0  0  0  0  0  1  0  0  0  0  0  0
  186.1530  177.7840  144.4540 C   0  0  0  0  0  2  0  0  0  0  0  0
  184.8570  178.5140  144.1300 C   0  0  0  0  0  1  0  0  0  0  0  0
  1  3  2  0  0  0  0
  2  1  1  0  0  0  0
  4  7  1  6  0  0  0
  4  6  1  0  0  0  0
  5  2  1  0  0  0  0
  6  1  1  0  0  0  0
  6 19  1  6  0  0  0
  7  5  1  0  0  0  0
  8 10  1  0  0  0  0
  9  8  1  0  0  0  0
  9 13  1  0  0  0  0
 10 12  1  1  0  0  0
 10 14  1  0  0  0  0
 13 11  1  0  0  0  0
 13 15  1  1  0  0  0
 14 11  1  6  0  0  0
 14  4  1  0  0  0  0
 15 17  1  0  0  0  0
 17 16  2  0  0  0  0
 18 17  2  0  0  0  0
 19 20  1  0  0  0  0
 20 21  1  0  0  0  0
 21 22  1  0  0  0  0
 22 24  1  0  0  0  0
 22 23  1  6  0  0  0
 24 26  1  0  0  0  0
 26 25  2  0  0  0  0
 27 25  1  0  0  0  0
 27 28  1  1  0  0  0
 29 27  1  0  0  0  0
 30 29  1  0  0  0  0
M  END
>  <MODEL>
1

>  <REMARK>
 VINA RESULT:      -7.4      0.000      0.000
  Name = 
  11 active torsions:
  status: ('A' for Active; 'I' for Inactive)
    1  A    between atoms: C_1  and  C_4
    2  A    between atoms: C_1  and  S_5
    3  A    between atoms: C_4  and  C_27
    4  A    between atoms: S_5  and  C_22
    5  A    between atoms: C_6  and  C_17
    6  A    between atoms: C_8  and  C_13
    7  A    between atoms: C_8  and  C_27
    8  A    between atoms: C_9  and  C_17
    9  A    between atoms: N_15  and  N_16
   10  A    between atoms: N_16  and  C_25
   11  A    between atoms: C_19  and  C_29
                            x       y       z     vdW  Elec       q    Type
                         _______ _______ _______ _____ _____    ______ ____

>  <TORSDO>
F 11

$$$$
=
 OpenBabel11052412253D

 30 31  0  0  1  0  0  0  0  0999 V2000
  187.1020  178.5520  147.0840 C   0  0  0  0  0  0  0  0  0  0  0  0
  187.5590  177.5700  148.1250 C   0  0  0  0  0  2  0  0  0  0  0  0
  186.3970  179.4960  147.3970 O   0  0  0  0  0  0  0  0  0  0  0  0
  188.9640  177.9830  145.5690 C   0  0  1  0  0  3  0  0  0  0  0  0
  189.0500  177.2700  147.9580 C   0  0  0  0  0  2  0  0  0  0  0  0
  187.4630  178.3200  145.6470 C   0  0  1  0  0  3  0  0  0  0  0  0
  189.3780  176.8600  146.5210 C   0  0  0  0  0  2  0  0  0  0  0  0
  191.6170  178.0350  142.7010 C   0  0  0  0  0  2  0  0  0  0  0  0
  191.5000  176.6640  142.3900 O   0  0  0  0  0  0  0  0  0  0  0  0
  191.0730  178.3280  144.0960 C   0  0  1  0  0  3  0  0  0  0  0  0
  189.3910  176.5070  143.5960 C   0  0  0  0  0  2  0  0  0  0  0  0
  191.2350  179.8130  144.3590 C   0  0  0  0  0  1  0  0  0  0  0  0
  190.1310  176.3280  142.2700 C   0  0  1  0  0  3  0  0  0  0  0  0
  189.5950  177.9110  144.1670 C   0  0  1  0  0  3  0  0  0  0  0  0
  189.4790  177.0680  141.1920 N   0  0  0  0  0  2  0  0  0  0  0  0
  189.8110  178.0940  139.0320 O   0  0  0  0  0  0  0  0  0  0  0  0
  189.9500  177.0130  139.8730 N   0  0  0  0  0  0  0  0  0  0  0  0
  190.5130  175.9790  139.4620 O   0  0  0  0  0  0  0  0  0  0  0  0
  186.4000  176.9940  144.9790 S   0  0  0  0  0  0  0  0  0  0  0  0
  185.4320  178.1670  143.9900 C   0  0  0  0  0  2  0  0  0  0  0  0
  186.0200  178.2640  142.5950 C   0  0  0  0  0  2  0  0  0  0  0  0
  184.9080  178.4800  141.5810 C   0  0  2  0  0  3  0  0  0  0  0  0
  185.2300  179.5520  140.7470 O   0  0  0  0  0  1  0  0  0  0  0  0
  183.5800  178.7620  142.2700 C   0  0  0  0  0  2  0  0  0  0  0  0
  181.1210  178.6850  141.7330 C   0  0  0  0  0  3  0  0  0  0  0  0
  182.3970  178.4650  141.3900 C   0  0  0  0  0  3  0  0  0  0  0  0
  180.6960  179.2850  143.0410 C   0  0  2  0  0  3  0  0  0  0  0  0
  180.1220  178.2100  143.9450 C   0  0  0  0  0  1  0  0  0  0  0  0
  179.6960  180.4270  142.8470 C   0  0  0  0  0  2  0  0  0  0  0  0
  179.4830  180.7830  141.3820 C   0  0  0  0  0  1  0  0  0  0  0  0
  1  3  2  0  0  0  0
  1  2  1  0  0  0  0
  4  6  1  0  0  0  0
  4  7  1  6  0  0  0
  5  2  1  0  0  0  0
  6 19  1  1  0  0  0
  6  1  1  0  0  0  0
  7  5  1  0  0  0  0
  8 10  1  0  0  0  0
  9  8  1  0  0  0  0
 10 14  1  0  0  0  0
 10 12  1  6  0  0  0
 13 15  1  6  0  0  0
 13  9  1  0  0  0  0
 13 11  1  0  0  0  0
 14 11  1  1  0  0  0
 14  4  1  0  0  0  0
 16 17  2  0  0  0  0
 17 15  1  0  0  0  0
 18 17  2  0  0  0  0
 20 19  1  0  0  0  0
 21 20  1  0  0  0  0
 22 23  1  6  0  0  0
 22 24  1  0  0  0  0
 22 21  1  0  0  0  0
 25 27  1  0  0  0  0
 26 25  2  0  0  0  0
 26 24  1  0  0  0  0
 27 28  1  1  0  0  0
 29 27  1  0  0  0  0
 30 29  1  0  0  0  0
M  END
>  <MODEL>
2

>  <REMARK>
 VINA RESULT:      -7.4      4.104      7.250
  Name = 
  11 active torsions:
  status: ('A' for Active; 'I' for Inactive)
    1  A    between atoms: C_1  and  C_4
    2  A    between atoms: C_1  and  S_5
    3  A    between atoms: C_4  and  C_27
    4  A    between atoms: S_5  and  C_22
    5  A    between atoms: C_6  and  C_17
    6  A    between atoms: C_8  and  C_13
    7  A    between atoms: C_8  and  C_27
    8  A    between atoms: C_9  and  C_17
    9  A    between atoms: N_15  and  N_16
   10  A    between atoms: N_16  and  C_25
   11  A    between atoms: C_19  and  C_29
                            x       y       z     vdW  Elec       q    Type
                         _______ _______ _______ _____ _____    ______ ____

>  <TORSDO>
F 11

$$$$
=
 OpenBabel11052412253D

 30 31  0  0  1  0  0  0  0  0999 V2000
  187.5080  178.2400  147.1600 C   0  0  0  0  0  0  0  0  0  0  0  0
  188.1160  177.1600  148.0100 C   0  0  0  0  0  2  0  0  0  0  0  0
  186.8420  179.1230  147.6710 O   0  0  0  0  0  0  0  0  0  0  0  0
  189.1510  177.8960  145.3520 C   0  0  1  0  0  3  0  0  0  0  0  0
  189.5730  176.9220  147.6090 C   0  0  0  0  0  2  0  0  0  0  0  0
  187.6710  178.1810  145.6700 C   0  0  1  0  0  3  0  0  0  0  0  0
  189.7050  176.6850  146.1040 C   0  0  0  0  0  2  0  0  0  0  0  0
  191.3890  177.9230  142.1490 C   0  0  0  0  0  2  0  0  0  0  0  0
  190.8330  176.7530  141.5910 O   0  0  0  0  0  0  0  0  0  0  0  0
  191.1040  178.0040  143.6460 C   0  0  1  0  0  3  0  0  0  0  0  0
  188.9090  176.8840  143.0780 C   0  0  0  0  0  2  0  0  0  0  0  0
  191.7320  179.2810  144.1730 C   0  0  0  0  0  1  0  0  0  0  0  0
  189.4210  176.8390  141.6380 C   0  0  1  0  0  3  0  0  0  0  0  0
  189.5840  177.9990  143.8790 C   0  0  1  0  0  3  0  0  0  0  0  0
  188.9170  177.9670  140.8580 N   0  0  0  0  0  2  0  0  0  0  0  0
  189.0390  176.7890  138.7540 O   0  0  0  0  0  0  0  0  0  0  0  0
  188.9600  177.9700  139.4570 N   0  0  0  0  0  0  0  0  0  0  0  0
  188.9140  179.0530  138.8400 O   0  0  0  0  0  0  0  0  0  0  0  0
  186.5420  176.9090  145.0040 S   0  0  0  0  0  0  0  0  0  0  0  0
  185.7400  178.0970  143.8930 C   0  0  0  0  0  2  0  0  0  0  0  0
  184.7920  178.9770  144.6850 C   0  0  0  0  0  2  0  0  0  0  0  0
  183.5620  179.2940  143.8490 C   0  0  2  0  0  3  0  0  0  0  0  0
  182.4520  178.6260  144.3660 O   0  0  0  0  0  1  0  0  0  0  0  0
  183.7630  178.8840  142.3960 C   0  0  0  0  0  2  0  0  0  0  0  0
  182.1890  178.7810  140.4340 C   0  0  0  0  0  3  0  0  0  0  0  0
  182.4740  178.5160  141.7150 C   0  0  0  0  0  3  0  0  0  0  0  0
  183.1330  179.4630  139.4890 C   0  0  2  0  0  3  0  0  0  0  0  0
  182.3900  180.5010  138.6680 C   0  0  0  0  0  1  0  0  0  0  0  0
  183.8560  178.4640  138.5820 C   0  0  0  0  0  2  0  0  0  0  0  0
  185.3500  178.3870  138.8630 C   0  0  0  0  0  1  0  0  0  0  0  0
  1  3  2  0  0  0  0
  1  2  1  0  0  0  0
  4  6  1  0  0  0  0
  4  7  1  6  0  0  0
  5  2  1  0  0  0  0
  6 19  1  1  0  0  0
  6  1  1  0  0  0  0
  7  5  1  0  0  0  0
  8 10  1  0  0  0  0
  9 13  1  0  0  0  0
  9  8  1  0  0  0  0
 10 14  1  0  0  0  0
 10 12  1  6  0  0  0
 13 15  1  6  0  0  0
 13 11  1  0  0  0  0
 14 11  1  6  0  0  0
 14  4  1  0  0  0  0
 16 17  2  0  0  0  0
 17 15  1  0  0  0  0
 18 17  2  0  0  0  0
 20 21  1  0  0  0  0
 20 19  1  0  0  0  0
 22 23  1  1  0  0  0
 22 21  1  0  0  0  0
 24 22  1  0  0  0  0
 25 26  2  0  0  0  0
 26 24  1  0  0  0  0
 27 28  1  6  0  0  0
 27 25  1  0  0  0  0
 29 30  1  0  0  0  0
 29 27  1  0  0  0  0
M  END
>  <MODEL>
3

>  <REMARK>
 VINA RESULT:      -7.2      4.146      7.398
  Name = 
  11 active torsions:
  status: ('A' for Active; 'I' for Inactive)
    1  A    between atoms: C_1  and  C_4
    2  A    between atoms: C_1  and  S_5
    3  A    between atoms: C_4  and  C_27
    4  A    between atoms: S_5  and  C_22
    5  A    between atoms: C_6  and  C_17
    6  A    between atoms: C_8  and  C_13
    7  A    between atoms: C_8  and  C_27
    8  A    between atoms: C_9  and  C_17
    9  A    between atoms: N_15  and  N_16
   10  A    between atoms: N_16  and  C_25
   11  A    between atoms: C_19  and  C_29
                            x       y       z     vdW  Elec       q    Type
                         _______ _______ _______ _____ _____    ______ ____

>  <TORSDO>
F 11

$$$$
=
 OpenBabel11052412253D

 30 31  0  0  1  0  0  0  0  0999 V2000
  189.8390  176.1980  143.4270 C   0  0  0  0  0  0  0  0  0  0  0  0
  190.6860  176.7820  144.5220 C   0  0  0  0  0  2  0  0  0  0  0  0
  190.2100  175.2020  142.8290 O   0  0  0  0  0  0  0  0  0  0  0  0
  187.7830  177.2370  144.3100 C   0  0  1  0  0  3  0  0  0  0  0  0
  189.8240  177.1230  145.7400 C   0  0  0  0  0  2  0  0  0  0  0  0
  188.5700  176.8910  143.0310 C   0  0  1  0  0  3  0  0  0  0  0  0
  188.6220  177.9840  145.3480 C   0  0  0  0  0  2  0  0  0  0  0  0
  184.4900  179.2590  144.8850 C   0  0  0  0  0  2  0  0  0  0  0  0
  184.6010  180.0280  143.7070 O   0  0  0  0  0  0  0  0  0  0  0  0
  185.8360  178.6570  145.2740 C   0  0  1  0  0  3  0  0  0  0  0  0
  186.2480  178.4890  142.7850 C   0  0  0  0  0  2  0  0  0  0  0  0
  185.6380  177.8510  146.5440 C   0  0  0  0  0  1  0  0  0  0  0  0
  184.8900  179.1730  142.6170 C   0  0  1  0  0  3  0  0  0  0  0  0
  186.3500  177.7680  144.1290 C   0  0  1  0  0  3  0  0  0  0  0  0
  183.8270  178.1970  142.3910 N   0  0  0  0  0  2  0  0  0  0  0  0
  182.6740  178.5540  140.3000 O   0  0  0  0  0  0  0  0  0  0  0  0
  182.6670  178.5270  141.6770 N   0  0  0  0  0  0  0  0  0  0  0  0
  181.6140  178.7840  142.2940 O   0  0  0  0  0  0  0  0  0  0  0  0
  188.9890  178.3620  142.0330 S   0  0  0  0  0  0  0  0  0  0  0  0
  188.7380  177.4670  140.4750 C   0  0  0  0  0  2  0  0  0  0  0  0
  190.0370  177.4330  139.6930 C   0  0  0  0  0  2  0  0  0  0  0  0
  189.9230  176.4410  138.5460 C   0  0  2  0  0  3  0  0  0  0  0  0
  190.9630  175.5140  138.6160 O   0  0  0  0  0  1  0  0  0  0  0  0
  189.9720  177.1490  137.1980 C   0  0  0  0  0  2  0  0  0  0  0  0
  187.9890  178.6360  136.7540 C   0  0  0  0  0  3  0  0  0  0  0  0
  189.2370  178.4610  137.2070 C   0  0  0  0  0  3  0  0  0  0  0  0
  187.1380  177.5340  136.1950 C   0  0  2  0  0  3  0  0  0  0  0  0
  186.6230  177.9190  134.8210 C   0  0  0  0  0  1  0  0  0  0  0  0
  185.9820  177.1740  137.1310 C   0  0  0  0  0  2  0  0  0  0  0  0
  185.7160  178.2460  138.1780 C   0  0  0  0  0  1  0  0  0  0  0  0
  1  2  1  0  0  0  0
  2  5  1  0  0  0  0
  3  1  2  0  0  0  0
  4  7  1  6  0  0  0
  6 19  1  1  0  0  0
  6  1  1  0  0  0  0
  6  4  1  0  0  0  0
  7  5  1  0  0  0  0
  8 10  1  0  0  0  0
  9  8  1  0  0  0  0
 10 12  1  1  0  0  0
 13 15  1  1  0  0  0
 13 11  1  0  0  0  0
 13  9  1  0  0  0  0
 14 11  1  6  0  0  0
 14  4  1  0  0  0  0
 14 10  1  0  0  0  0
 16 17  2  0  0  0  0
 17 18  2  0  0  0  0
 17 15  1  0  0  0  0
 20 19  1  0  0  0  0
 21 20  1  0  0  0  0
 22 23  1  6  0  0  0
 22 21  1  0  0  0  0
 24 26  1  0  0  0  0
 24 22  1  0  0  0  0
 25 26  2  0  0  0  0
 27 28  1  6  0  0  0
 27 25  1  0  0  0  0
 27 29  1  0  0  0  0
 29 30  1  0  0  0  0
M  END
>  <MODEL>
4

>  <REMARK>
 VINA RESULT:      -7.2      4.197      9.095
  Name = 
  11 active torsions:
  status: ('A' for Active; 'I' for Inactive)
    1  A    between atoms: C_1  and  C_4
    2  A    between atoms: C_1  and  S_5
    3  A    between atoms: C_4  and  C_27
    4  A    between atoms: S_5  and  C_22
    5  A    between atoms: C_6  and  C_17
    6  A    between atoms: C_8  and  C_13
    7  A    between atoms: C_8  and  C_27
    8  A    between atoms: C_9  and  C_17
    9  A    between atoms: N_15  and  N_16
   10  A    between atoms: N_16  and  C_25
   11  A    between atoms: C_19  and  C_29
                            x       y       z     vdW  Elec       q    Type
                         _______ _______ _______ _____ _____    ______ ____

>  <TORSDO>
F 11

$$$$
=
 OpenBabel11052412253D

 30 31  0  0  1  0  0  0  0  0999 V2000
  181.4000  177.6830  139.7860 C   0  0  0  0  0  0  0  0  0  0  0  0
  180.7160  178.5760  138.7890 C   0  0  0  0  0  2  0  0  0  0  0  0
  180.7660  177.1870  140.7020 O   0  0  0  0  0  0  0  0  0  0  0  0
  183.2250  177.1410  138.2170 C   0  0  1  0  0  3  0  0  0  0  0  0
  181.1370  178.2060  137.3650 C   0  0  0  0  0  2  0  0  0  0  0  0
  182.8800  177.4650  139.6840 C   0  0  1  0  0  3  0  0  0  0  0  0
  182.6600  178.1600  137.2280 C   0  0  0  0  0  2  0  0  0  0  0  0
  186.2390  175.2110  136.6500 C   0  0  0  0  0  2  0  0  0  0  0  0
  186.7870  176.3330  135.9950 O   0  0  0  0  0  0  0  0  0  0  0  0
  184.7740  175.4470  137.0070 C   0  0  1  0  0  3  0  0  0  0  0  0
  185.4640  177.8540  137.3620 C   0  0  0  0  0  2  0  0  0  0  0  0
  184.2560  174.2010  137.7020 C   0  0  0  0  0  1  0  0  0  0  0  0
  186.8560  177.4160  136.9040 C   0  0  1  0  0  3  0  0  0  0  0  0
  184.6620  176.6780  137.9220 C   0  0  1  0  0  3  0  0  0  0  0  0
  187.7230  177.1190  138.0420 N   0  0  0  0  0  2  0  0  0  0  0  0
  188.8310  179.2640  137.9950 O   0  0  0  0  0  0  0  0  0  0  0  0
  188.4760  178.1190  138.6720 N   0  0  0  0  0  0  0  0  0  0  0  0
  188.8170  177.9770  139.8630 O   0  0  0  0  0  0  0  0  0  0  0  0
  183.7380  178.9520  140.3060 S   0  0  0  0  0  0  0  0  0  0  0  0
  184.3680  178.0700  141.7600 C   0  0  0  0  0  2  0  0  0  0  0  0
  184.8070  179.0700  142.8120 C   0  0  0  0  0  2  0  0  0  0  0  0
  184.2470  178.6720  144.1680 C   0  0  2  0  0  3  0  0  0  0  0  0
  182.9400  179.1430  144.2980 O   0  0  0  0  0  1  0  0  0  0  0  0
  185.0960  179.2320  145.3020 C   0  0  0  0  0  2  0  0  0  0  0  0
  186.7180  177.5250  146.1930 C   0  0  0  0  0  3  0  0  0  0  0  0
  185.5460  178.1700  146.2660 C   0  0  0  0  0  3  0  0  0  0  0  0
  187.7580  177.7920  145.1460 C   0  0  2  0  0  3  0  0  0  0  0  0
  187.5780  176.8420  143.9770 C   0  0  0  0  0  1  0  0  0  0  0  0
  189.1770  177.6990  145.7130 C   0  0  0  0  0  2  0  0  0  0  0  0
  189.1990  177.3190  147.1870 C   0  0  0  0  0  1  0  0  0  0  0  0
  1  3  2  0  0  0  0
  2  1  1  0  0  0  0
  4  7  1  6  0  0  0
  4  6  1  0  0  0  0
  5  2  1  0  0  0  0
  6  1  1  0  0  0  0
  6 19  1  6  0  0  0
  7  5  1  0  0  0  0
  8 10  1  0  0  0  0
  9  8  1  0  0  0  0
  9 13  1  0  0  0  0
 10 12  1  1  0  0  0
 10 14  1  0  0  0  0
 13 11  1  0  0  0  0
 13 15  1  1  0  0  0
 14 11  1  6  0  0  0
 14  4  1  0  0  0  0
 15 17  1  0  0  0  0
 16 17  2  0  0  0  0
 17 18  2  0  0  0  0
 19 20  1  0  0  0  0
 20 21  1  0  0  0  0
 21 22  1  0  0  0  0
 22 23  1  1  0  0  0
 22 24  1  0  0  0  0
 24 26  1  0  0  0  0
 25 26  2  0  0  0  0
 27 28  1  6  0  0  0
 27 29  1  0  0  0  0
 27 25  1  0  0  0  0
 29 30  1  0  0  0  0
M  END
>  <MODEL>
5

>  <REMARK>
 VINA RESULT:      -6.9      4.822      6.705
  Name = 
  11 active torsions:
  status: ('A' for Active; 'I' for Inactive)
    1  A    between atoms: C_1  and  C_4
    2  A    between atoms: C_1  and  S_5
    3  A    between atoms: C_4  and  C_27
    4  A    between atoms: S_5  and  C_22
    5  A    between atoms: C_6  and  C_17
    6  A    between atoms: C_8  and  C_13
    7  A    between atoms: C_8  and  C_27
    8  A    between atoms: C_9  and  C_17
    9  A    between atoms: N_15  and  N_16
   10  A    between atoms: N_16  and  C_25
   11  A    between atoms: C_19  and  C_29
                            x       y       z     vdW  Elec       q    Type
                         _______ _______ _______ _____ _____    ______ ____

>  <TORSDO>
F 11

$$$$
=
 OpenBabel11052412253D

 30 31  0  0  1  0  0  0  0  0999 V2000
  189.9100  176.1960  143.4630 C   0  0  0  0  0  0  0  0  0  0  0  0
  190.7210  176.7650  144.5930 C   0  0  0  0  0  2  0  0  0  0  0  0
  190.3120  175.2250  142.8450 O   0  0  0  0  0  0  0  0  0  0  0  0
  187.8150  177.1720  144.3270 C   0  0  1  0  0  3  0  0  0  0  0  0
  189.8260  177.0550  145.7990 C   0  0  0  0  0  2  0  0  0  0  0  0
  188.6370  176.8770  143.0570 C   0  0  1  0  0  3  0  0  0  0  0  0
  188.6160  177.9040  145.4040 C   0  0  0  0  0  2  0  0  0  0  0  0
  184.5070  179.1920  144.8210 C   0  0  0  0  0  2  0  0  0  0  0  0
  184.6060  179.9030  143.6070 O   0  0  0  0  0  0  0  0  0  0  0  0
  185.8610  178.6210  145.2320 C   0  0  1  0  0  3  0  0  0  0  0  0
  186.2610  178.3350  142.7520 C   0  0  0  0  0  2  0  0  0  0  0  0
  185.6770  177.8760  146.5410 C   0  0  0  0  0  1  0  0  0  0  0  0
  184.8970  178.9980  142.5580 C   0  0  1  0  0  3  0  0  0  0  0  0
  186.3770  177.6810  144.1290 C   0  0  1  0  0  3  0  0  0  0  0  0
  183.8400  178.0040  142.3870 N   0  0  0  0  0  2  0  0  0  0  0  0
  181.6590  179.0380  142.3370 O   0  0  0  0  0  0  0  0  0  0  0  0
  182.6470  178.3070  141.7160 N   0  0  0  0  0  0  0  0  0  0  0  0
  182.4850  177.9220  140.5410 O   0  0  0  0  0  0  0  0  0  0  0  0
  189.0490  178.3830  142.1110 S   0  0  0  0  0  0  0  0  0  0  0  0
  189.0710  177.4780  140.5390 C   0  0  0  0  0  2  0  0  0  0  0  0
  188.3080  178.2620  139.4880 C   0  0  0  0  0  2  0  0  0  0  0  0
  189.0890  178.2730  138.1840 C   0  0  2  0  0  3  0  0  0  0  0  0
  188.7110  179.3750  137.4150 O   0  0  0  0  0  1  0  0  0  0  0  0
  188.8480  176.9990  137.3870 C   0  0  0  0  0  2  0  0  0  0  0  0
  190.9740  176.1770  136.3160 C   0  0  0  0  0  3  0  0  0  0  0  0
  189.8120  176.8400  136.2440 C   0  0  0  0  0  3  0  0  0  0  0  0
  191.4630  175.4750  137.5480 C   0  0  2  0  0  3  0  0  0  0  0  0
  192.3850  176.3870  138.3360 C   0  0  0  0  0  1  0  0  0  0  0  0
  192.1560  174.1520  137.2150 C   0  0  0  0  0  2  0  0  0  0  0  0
  193.6310  174.1480  137.5920 C   0  0  0  0  0  1  0  0  0  0  0  0
  1  2  1  0  0  0  0
  2  5  1  0  0  0  0
  3  1  2  0  0  0  0
  4  7  1  6  0  0  0
  6 19  1  1  0  0  0
  6  1  1  0  0  0  0
  6  4  1  0  0  0  0
  7  5  1  0  0  0  0
  8 10  1  0  0  0  0
  9  8  1  0  0  0  0
 10 12  1  1  0  0  0
 13 15  1  1  0  0  0
 13 11  1  0  0  0  0
 13  9  1  0  0  0  0
 14 11  1  6  0  0  0
 14  4  1  0  0  0  0
 14 10  1  0  0  0  0
 17 16  2  0  0  0  0
 17 15  1  0  0  0  0
 18 17  2  0  0  0  0
 20 19  1  0  0  0  0
 21 20  1  0  0  0  0
 22 23  1  6  0  0  0
 22 21  1  0  0  0  0
 24 22  1  0  0  0  0
 25 27  1  0  0  0  0
 26 25  2  0  0  0  0
 26 24  1  0  0  0  0
 27 28  1  6  0  0  0
 29 27  1  0  0  0  0
 29 30  1  0  0  0  0
M  END
>  <MODEL>
6

>  <REMARK>
 VINA RESULT:      -6.8      4.163      9.447
  Name = 
  11 active torsions:
  status: ('A' for Active; 'I' for Inactive)
    1  A    between atoms: C_1  and  C_4
    2  A    between atoms: C_1  and  S_5
    3  A    between atoms: C_4  and  C_27
    4  A    between atoms: S_5  and  C_22
    5  A    between atoms: C_6  and  C_17
    6  A    between atoms: C_8  and  C_13
    7  A    between atoms: C_8  and  C_27
    8  A    between atoms: C_9  and  C_17
    9  A    between atoms: N_15  and  N_16
   10  A    between atoms: N_16  and  C_25
   11  A    between atoms: C_19  and  C_29
                            x       y       z     vdW  Elec       q    Type
                         _______ _______ _______ _____ _____    ______ ____

>  <TORSDO>
F 11

$$$$
=
 OpenBabel11052412253D

 30 31  0  0  1  0  0  0  0  0999 V2000
  189.9380  178.0480  144.1880 C   0  0  0  0  0  0  0  0  0  0  0  0
  190.2880  176.7260  144.8110 C   0  0  0  0  0  2  0  0  0  0  0  0
  189.8770  179.0540  144.8740 O   0  0  0  0  0  0  0  0  0  0  0  0
  190.6600  177.3110  141.9470 C   0  0  1  0  0  3  0  0  0  0  0  0
  191.3240  175.9920  143.9580 C   0  0  0  0  0  2  0  0  0  0  0  0
  189.5970  178.1060  142.7290 C   0  0  1  0  0  3  0  0  0  0  0  0
  190.8800  175.9010  142.4970 C   0  0  0  0  0  2  0  0  0  0  0  0
  191.5500  176.7580  138.1830 C   0  0  0  0  0  2  0  0  0  0  0  0
  190.3610  176.0680  137.8670 O   0  0  0  0  0  0  0  0  0  0  0  0
  191.8050  176.7480  139.6870 C   0  0  1  0  0  3  0  0  0  0  0  0
  189.2880  176.8580  139.9060 C   0  0  0  0  0  2  0  0  0  0  0  0
  193.0960  177.5030  139.9470 C   0  0  0  0  0  1  0  0  0  0  0  0
  189.2540  176.7870  138.3790 C   0  0  1  0  0  3  0  0  0  0  0  0
  190.6220  177.4100  140.4120 C   0  0  1  0  0  3  0  0  0  0  0  0
  189.1460  178.1180  137.7860 N   0  0  0  0  0  2  0  0  0  0  0  0
  187.9660  177.5170  135.7670 O   0  0  0  0  0  0  0  0  0  0  0  0
  188.2010  178.4060  136.7920 N   0  0  0  0  0  0  0  0  0  0  0  0
  187.5560  179.4720  136.8440 O   0  0  0  0  0  0  0  0  0  0  0  0
  187.9060  177.4560  142.4940 S   0  0  0  0  0  0  0  0  0  0  0  0
  187.3390  179.0030  141.7340 C   0  0  0  0  0  2  0  0  0  0  0  0
  185.9090  178.8400  141.2550 C   0  0  0  0  0  2  0  0  0  0  0  0
  185.0290  178.3750  142.4040 C   0  0  2  0  0  3  0  0  0  0  0  0
  183.7990  177.9370  141.9120 O   0  0  0  0  0  1  0  0  0  0  0  0
  184.7960  179.4960  143.4080 C   0  0  0  0  0  2  0  0  0  0  0  0
  184.5850  178.6160  145.7580 C   0  0  0  0  0  3  0  0  0  0  0  0
  184.0260  179.0390  144.6170 C   0  0  0  0  0  3  0  0  0  0  0  0
  186.0650  178.5610  145.9970 C   0  0  2  0  0  3  0  0  0  0  0  0
  186.5880  177.1660  145.7120 C   0  0  0  0  0  1  0  0  0  0  0  0
  186.4310  179.0030  147.4160 C   0  0  0  0  0  2  0  0  0  0  0  0
  187.6320  178.2530  147.9750 C   0  0  0  0  0  1  0  0  0  0  0  0
  1  2  1  0  0  0  0
  1  3  2  0  0  0  0
  4  7  1  6  0  0  0
  4  6  1  0  0  0  0
  5  2  1  0  0  0  0
  6 19  1  1  0  0  0
  6  1  1  0  0  0  0
  7  5  1  0  0  0  0
  8 10  1  0  0  0  0
  9  8  1  0  0  0  0
  9 13  1  0  0  0  0
 10 12  1  6  0  0  0
 10 14  1  0  0  0  0
 13 15  1  6  0  0  0
 13 11  1  0  0  0  0
 14 11  1  6  0  0  0
 14  4  1  0  0  0  0
 16 17  2  0  0  0  0
 17 18  2  0  0  0  0
 17 15  1  0  0  0  0
 20 19  1  0  0  0  0
 21 20  1  0  0  0  0
 21 22  1  0  0  0  0
 22 23  1  6  0  0  0
 22 24  1  0  0  0  0
 24 26  1  0  0  0  0
 25 27  1  0  0  0  0
 26 25  2  0  0  0  0
 27 28  1  1  0  0  0
 27 29  1  0  0  0  0
 29 30  1  0  0  0  0
M  END
>  <MODEL>
7

>  <REMARK>
 VINA RESULT:      -6.8      3.107      5.370
  Name = 
  11 active torsions:
  status: ('A' for Active; 'I' for Inactive)
    1  A    between atoms: C_1  and  C_4
    2  A    between atoms: C_1  and  S_5
    3  A    between atoms: C_4  and  C_27
    4  A    between atoms: S_5  and  C_22
    5  A    between atoms: C_6  and  C_17
    6  A    between atoms: C_8  and  C_13
    7  A    between atoms: C_8  and  C_27
    8  A    between atoms: C_9  and  C_17
    9  A    between atoms: N_15  and  N_16
   10  A    between atoms: N_16  and  C_25
   11  A    between atoms: C_19  and  C_29
                            x       y       z     vdW  Elec       q    Type
                         _______ _______ _______ _____ _____    ______ ____

>  <TORSDO>
F 11

$$$$
=
 OpenBabel11052412253D

 30 31  0  0  1  0  0  0  0  0999 V2000
  187.4110  177.6690  137.8800 C   0  0  0  0  0  0  0  0  0  0  0  0
  187.4090  178.6730  136.7610 C   0  0  0  0  0  2  0  0  0  0  0  0
  186.4080  177.4940  138.5510 O   0  0  0  0  0  0  0  0  0  0  0  0
  189.2890  176.4080  136.8940 C   0  0  1  0  0  3  0  0  0  0  0  0
  188.0570  178.0780  135.5090 C   0  0  0  0  0  2  0  0  0  0  0  0
  188.6780  176.9360  138.2070 C   0  0  1  0  0  3  0  0  0  0  0  0
  189.4340  177.4890  135.8220 C   0  0  0  0  0  2  0  0  0  0  0  0
  191.6580  173.3590  136.2950 C   0  0  0  0  0  2  0  0  0  0  0  0
  192.7070  174.1170  135.7350 O   0  0  0  0  0  0  0  0  0  0  0  0
  190.3400  174.1270  136.2420 C   0  0  1  0  0  3  0  0  0  0  0  0
  191.7630  176.1850  136.6090 C   0  0  0  0  0  2  0  0  0  0  0  0
  189.2630  173.2510  136.8560 C   0  0  0  0  0  1  0  0  0  0  0  0
  192.9640  175.2390  136.5590 C   0  0  1  0  0  3  0  0  0  0  0  0
  190.4860  175.4480  137.0150 C   0  0  1  0  0  3  0  0  0  0  0  0
  193.3880  174.8460  137.9000 N   0  0  0  0  0  2  0  0  0  0  0  0
  195.0240  173.3710  138.8890 O   0  0  0  0  0  0  0  0  0  0  0  0
  194.7200  174.5120  138.1820 N   0  0  0  0  0  0  0  0  0  0  0  0
  195.6400  175.2490  137.7750 O   0  0  0  0  0  0  0  0  0  0  0  0
  189.7950  178.0650  139.1080 S   0  0  0  0  0  0  0  0  0  0  0  0
  189.3080  177.3810  140.7160 C   0  0  0  0  0  2  0  0  0  0  0  0
  190.5460  176.9870  141.4990 C   0  0  0  0  0  2  0  0  0  0  0  0
  190.1700  176.0100  142.6020 C   0  0  2  0  0  3  0  0  0  0  0  0
  188.7900  176.0380  142.8090 O   0  0  0  0  0  1  0  0  0  0  0  0
  190.8790  176.3520  143.9050 C   0  0  0  0  0  2  0  0  0  0  0  0
  189.8790  178.2520  145.2200 C   0  0  0  0  0  3  0  0  0  0  0  0
  190.7250  177.7980  144.2860 C   0  0  0  0  0  3  0  0  0  0  0  0
  188.9810  177.3710  146.0370 C   0  0  2  0  0  3  0  0  0  0  0  0
  187.5350  177.7960  145.8630 C   0  0  0  0  0  1  0  0  0  0  0  0
  189.3750  177.3660  147.5160 C   0  0  0  0  0  2  0  0  0  0  0  0
  188.2680  177.8860  148.4230 C   0  0  0  0  0  1  0  0  0  0  0  0
  1  6  1  0  0  0  0
  1  3  2  0  0  0  0
  2  1  1  0  0  0  0
  4  7  1  6  0  0  0
  4 14  1  0  0  0  0
  4  6  1  0  0  0  0
  5  7  1  0  0  0  0
  5  2  1  0  0  0  0
  6 19  1  6  0  0  0
  9  8  1  0  0  0  0
  9 13  1  0  0  0  0
 10  8  1  0  0  0  0
 10 12  1  1  0  0  0
 10 14  1  0  0  0  0
 13 11  1  0  0  0  0
 13 15  1  1  0  0  0
 14 11  1  6  0  0  0
 15 17  1  0  0  0  0
 17 16  2  0  0  0  0
 18 17  2  0  0  0  0
 19 20  1  0  0  0  0
 20 21  1  0  0  0  0
 21 22  1  0  0  0  0
 22 23  1  1  0  0  0
 22 24  1  0  0  0  0
 24 26  1  0  0  0  0
 25 27  1  0  0  0  0
 26 25  2  0  0  0  0
 27 28  1  1  0  0  0
 27 29  1  0  0  0  0
 29 30  1  0  0  0  0
M  END
>  <MODEL>
8

>  <REMARK>
 VINA RESULT:      -6.7      1.596      2.572
  Name = 
  11 active torsions:
  status: ('A' for Active; 'I' for Inactive)
    1  A    between atoms: C_1  and  C_4
    2  A    between atoms: C_1  and  S_5
    3  A    between atoms: C_4  and  C_27
    4  A    between atoms: S_5  and  C_22
    5  A    between atoms: C_6  and  C_17
    6  A    between atoms: C_8  and  C_13
    7  A    between atoms: C_8  and  C_27
    8  A    between atoms: C_9  and  C_17
    9  A    between atoms: N_15  and  N_16
   10  A    between atoms: N_16  and  C_25
   11  A    between atoms: C_19  and  C_29
                            x       y       z     vdW  Elec       q    Type
                         _______ _______ _______ _____ _____    ______ ____

>  <TORSDO>
F 11

$$$$
=
 OpenBabel11052412253D

 30 31  0  0  1  0  0  0  0  0999 V2000
  185.1190  178.3950  138.4140 C   0  0  0  0  0  0  0  0  0  0  0  0
  184.6930  177.1510  137.6870 C   0  0  0  0  0  2  0  0  0  0  0  0
  186.2350  178.8550  138.2440 O   0  0  0  0  0  0  0  0  0  0  0  0
  182.7880  179.1280  138.7560 C   0  0  1  0  0  3  0  0  0  0  0  0
  183.2900  177.3270  137.1040 C   0  0  0  0  0  2  0  0  0  0  0  0
  184.1830  179.0250  139.4020 C   0  0  1  0  0  3  0  0  0  0  0  0
  182.3000  177.8030  138.1680 C   0  0  0  0  0  2  0  0  0  0  0  0
  179.8540  181.5980  139.5020 C   0  0  0  0  0  2  0  0  0  0  0  0
  178.9310  180.5980  139.8720 O   0  0  0  0  0  0  0  0  0  0  0  0
  181.0020  181.0100  138.6870 C   0  0  1  0  0  3  0  0  0  0  0  0
  180.7180  178.9660  140.1490 C   0  0  0  0  0  2  0  0  0  0  0  0
  181.9470  182.1400  138.3250 C   0  0  0  0  0  1  0  0  0  0  0  0
  179.5460  179.7120  140.7890 C   0  0  1  0  0  3  0  0  0  0  0  0
  181.7200  179.9330  139.5170 C   0  0  1  0  0  3  0  0  0  0  0  0
  179.9540  180.3920  142.0160 N   0  0  0  0  0  2  0  0  0  0  0  0
  181.8930  179.8190  143.3350 O   0  0  0  0  0  0  0  0  0  0  0  0
  180.5460  179.6980  143.0800 N   0  0  0  0  0  0  0  0  0  0  0  0
  179.8420  178.9730  143.8110 O   0  0  0  0  0  0  0  0  0  0  0  0
  184.1870  178.0310  140.9340 S   0  0  0  0  0  0  0  0  0  0  0  0
  185.4420  179.0900  141.7050 C   0  0  0  0  0  2  0  0  0  0  0  0
  186.2220  178.2920  142.7320 C   0  0  0  0  0  2  0  0  0  0  0  0
  185.4040  178.1500  144.0060 C   0  0  2  0  0  3  0  0  0  0  0  0
  185.1110  179.4120  144.5230 O   0  0  0  0  0  1  0  0  0  0  0  0
  186.1540  177.3390  145.0540 C   0  0  0  0  0  2  0  0  0  0  0  0
  188.0720  178.1240  146.4840 C   0  0  0  0  0  3  0  0  0  0  0  0
  186.7890  178.2030  146.1080 C   0  0  0  0  0  3  0  0  0  0  0  0
  189.0650  177.1740  145.8820 C   0  0  2  0  0  3  0  0  0  0  0  0
  190.1050  176.7840  146.9160 C   0  0  0  0  0  1  0  0  0  0  0  0
  189.7270  177.7550  144.6310 C   0  0  0  0  0  2  0  0  0  0  0  0
  191.2440  177.8300  144.7480 C   0  0  0  0  0  1  0  0  0  0  0  0
  1  6  1  0  0  0  0
  2  1  1  0  0  0  0
  3  1  2  0  0  0  0
  4  7  1  1  0  0  0
  4  6  1  0  0  0  0
  4 14  1  0  0  0  0
  5  2  1  0  0  0  0
  5  7  1  0  0  0  0
  6 19  1  1  0  0  0
  8  9  1  0  0  0  0
  9 13  1  0  0  0  0
 10 12  1  1  0  0  0
 10  8  1  0  0  0  0
 10 14  1  0  0  0  0
 11 13  1  0  0  0  0
 13 15  1  1  0  0  0
 14 11  1  6  0  0  0
 15 17  1  0  0  0  0
 17 16  2  0  0  0  0
 17 18  2  0  0  0  0
 19 20  1  0  0  0  0
 20 21  1  0  0  0  0
 21 22  1  0  0  0  0
 22 23  1  1  0  0  0
 22 24  1  0  0  0  0
 24 26  1  0  0  0  0
 26 25  2  0  0  0  0
 27 25  1  0  0  0  0
 27 28  1  1  0  0  0
 29 30  1  0  0  0  0
 29 27  1  0  0  0  0
M  END
>  <MODEL>
9

>  <REMARK>
 VINA RESULT:      -6.7      6.793      9.848
  Name = 
  11 active torsions:
  status: ('A' for Active; 'I' for Inactive)
    1  A    between atoms: C_1  and  C_4
    2  A    between atoms: C_1  and  S_5
    3  A    between atoms: C_4  and  C_27
    4  A    between atoms: S_5  and  C_22
    5  A    between atoms: C_6  and  C_17
    6  A    between atoms: C_8  and  C_13
    7  A    between atoms: C_8  and  C_27
    8  A    between atoms: C_9  and  C_17
    9  A    between atoms: N_15  and  N_16
   10  A    between atoms: N_16  and  C_25
   11  A    between atoms: C_19  and  C_29
                            x       y       z     vdW  Elec       q    Type
                         _______ _______ _______ _____ _____    ______ ____

>  <TORSDO>
F 11

$$$$
