=
 OpenBabel11052413293D

 28 31  0  0  1  0  0  0  0  0999 V2000
  187.2120  178.5640  140.6480 C   0  0  1  0  0  3  0  0  0  0  0  0
  184.3590  179.2810  144.6710 C   0  0  0  0  0  1  0  0  0  0  0  0
  187.6480  177.2610  144.2570 C   0  0  2  0  0  3  0  0  0  0  0  0
  186.0450  177.2910  146.1810 C   0  0  0  0  0  1  0  0  0  0  0  0
  185.7890  178.8870  142.6660 C   0  0  2  0  0  3  0  0  0  0  0  0
  188.0510  177.8990  142.9300 C   0  0  0  0  0  2  0  0  0  0  0  0
  184.8510  179.0700  140.3420 C   0  0  0  0  0  3  0  0  0  0  0  0
  185.3320  178.3120  144.0120 C   0  0  1  0  0  3  0  0  0  0  0  0
  184.6560  179.0480  141.7600 N   0  0  0  0  0  2  0  0  0  0  0  0
  186.5240  178.0550  144.9520 C   0  0  2  0  0  3  0  0  0  0  0  0
  186.0210  178.8270  139.8310 N   0  0  0  0  0  0  0  0  0  0  0  0
  186.8370  177.9830  142.0180 C   0  0  2  0  0  3  0  0  0  0  0  0
  188.0890  177.8380  138.3740 C   0  0  0  0  0  2  0  0  0  0  0  0
  188.1950  177.6660  139.8960 C   0  0  1  0  0  3  0  0  0  0  0  0
  188.9750  176.8200  137.6480 C   0  0  0  0  0  0  0  0  0  0  0  0
  190.6160  177.5620  139.4180 C   0  0  0  0  0  2  0  0  0  0  0  0
  190.2090  176.4330  138.4710 C   0  0  0  0  0  2  0  0  0  0  0  0
  189.5640  177.8740  140.4000 N   0  0  0  0  0  2  0  0  0  0  0  0
  188.1660  175.5700  137.3660 C   0  0  0  0  0  1  0  0  0  0  0  0
  189.4210  177.4170  136.3290 C   0  0  0  0  0  1  0  0  0  0  0  0
  188.8630  177.6180  146.4370 C   0  0  0  0  0  3  0  0  0  0  0  0
  190.0090  176.4460  144.6460 C   0  0  0  0  0  0  0  0  0  0  0  0
  191.1240  176.8260  146.7660 C   0  0  0  0  0  0  0  0  0  0  0  0
  188.8610  177.1000  145.1320 C   0  0  0  0  0  0  0  0  0  0  0  0
  191.1340  176.3120  145.4680 C   0  0  0  0  0  3  0  0  0  0  0  0
  190.0730  175.7870  143.0190 Cl  0  0  0  0  0  0  0  0  0  0  0  0
  192.2160  176.6920  147.5550 F   0  0  0  0  0  0  0  0  0  0  0  0
  189.9900  177.4800  147.2500 C   0  0  0  0  0  3  0  0  0  0  0  0
  1 11  1  6  0  0  0
  1 12  1  0  0  0  0
  3 10  1  0  0  0  0
  3 24  1  1  0  0  0
  5  9  1  6  0  0  0
  5  8  1  0  0  0  0
  6  3  1  0  0  0  0
  7  9  1  0  0  0  0
  8  2  1  1  0  0  0
  8 10  1  0  0  0  0
 10  4  1  1  0  0  0
 11  7  2  0  0  0  0
 12  5  1  0  0  0  0
 12  6  1  1  0  0  0
 14 13  1  6  0  0  0
 14 18  1  0  0  0  0
 14  1  1  0  0  0  0
 15 13  1  0  0  0  0
 15 17  1  0  0  0  0
 16 18  1  0  0  0  0
 17 16  1  0  0  0  0
 19 15  1  0  0  0  0
 20 15  1  0  0  0  0
 21 28  1  0  0  0  0
 22 24  1  0  0  0  0
 22 25  2  0  0  0  0
 23 28  2  0  0  0  0
 23 27  1  0  0  0  0
 24 21  2  0  0  0  0
 25 23  1  0  0  0  0
 26 22  1  0  0  0  0
M  END
>  <MODEL>
1

>  <REMARK>
 VINA RESULT:     -10.1      0.000      0.000
  Name = 
  2 active torsions:
  status: ('A' for Active; 'I' for Inactive)
    1  A    between atoms: C_1  and  C_3
    2  A    between atoms: C_10  and  C_13
                            x       y       z     vdW  Elec       q    Type
                         _______ _______ _______ _____ _____    ______ ____

>  <TORSDO>
F 2

$$$$
=
 OpenBabel11052413293D

 28 31  0  0  1  0  0  0  0  0999 V2000
  184.4180  179.1080  142.7610 C   0  0  1  0  0  3  0  0  0  0  0  0
  186.5070  178.5760  147.2550 C   0  0  0  0  0  1  0  0  0  0  0  0
  187.7440  177.4210  143.7610 C   0  0  2  0  0  3  0  0  0  0  0  0
  188.6200  176.8120  146.0280 C   0  0  0  0  0  1  0  0  0  0  0  0
  185.4700  178.8080  144.9990 C   0  0  2  0  0  3  0  0  0  0  0  0
  186.8040  178.3190  142.9630 C   0  0  0  0  0  2  0  0  0  0  0  0
  182.9900  179.1150  144.7320 C   0  0  0  0  0  3  0  0  0  0  0  0
  186.4010  177.9550  145.8680 C   0  0  1  0  0  3  0  0  0  0  0  0
  184.1230  178.8440  145.5620 N   0  0  0  0  0  2  0  0  0  0  0  0
  187.8040  177.8340  145.2460 C   0  0  2  0  0  3  0  0  0  0  0  0
  183.1220  179.2160  143.4430 N   0  0  0  0  0  0  0  0  0  0  0  0
  185.4110  178.2630  143.5720 C   0  0  2  0  0  3  0  0  0  0  0  0
  182.7590  178.3440  140.9910 C   0  0  0  0  0  2  0  0  0  0  0  0
  184.2370  178.5700  141.3410 C   0  0  1  0  0  3  0  0  0  0  0  0
  182.6210  177.6660  139.6250 C   0  0  0  0  0  0  0  0  0  0  0  0
  184.3530  179.4010  139.0180 C   0  0  0  0  0  2  0  0  0  0  0  0
  183.7700  178.0280  138.6770 C   0  0  0  0  0  2  0  0  0  0  0  0
  184.9250  179.4430  140.3740 N   0  0  0  0  0  2  0  0  0  0  0  0
  182.6030  176.1620  139.8160 C   0  0  0  0  0  1  0  0  0  0  0  0
  181.3070  178.0900  139.0010 C   0  0  0  0  0  1  0  0  0  0  0  0
  190.2610  177.3830  143.9100 C   0  0  0  0  0  3  0  0  0  0  0  0
  189.2270  177.4360  141.7140 C   0  0  0  0  0  0  0  0  0  0  0  0
  191.6420  177.4040  141.9250 C   0  0  0  0  0  0  0  0  0  0  0  0
  189.1030  177.4070  143.1160 C   0  0  0  0  0  0  0  0  0  0  0  0
  190.4970  177.4320  141.1270 C   0  0  0  0  0  3  0  0  0  0  0  0
  187.8160  177.4780  140.6670 Cl  0  0  0  0  0  0  0  0  0  0  0  0
  192.8680  177.4000  141.3490 F   0  0  0  0  0  0  0  0  0  0  0  0
  191.5250  177.3800  143.3150 C   0  0  0  0  0  3  0  0  0  0  0  0
  1 11  1  1  0  0  0
  1 12  1  0  0  0  0
  3 24  1  6  0  0  0
  3 10  1  0  0  0  0
  5  9  1  1  0  0  0
  5  8  1  0  0  0  0
  6  3  1  0  0  0  0
  7  9  1  0  0  0  0
  8  2  1  1  0  0  0
 10  8  1  0  0  0  0
 10  4  1  1  0  0  0
 11  7  2  0  0  0  0
 12  6  1  6  0  0  0
 12  5  1  0  0  0  0
 14 13  1  6  0  0  0
 14  1  1  0  0  0  0
 15 19  1  0  0  0  0
 15 13  1  0  0  0  0
 16 18  1  0  0  0  0
 17 16  1  0  0  0  0
 17 15  1  0  0  0  0
 18 14  1  0  0  0  0
 20 15  1  0  0  0  0
 22 24  1  0  0  0  0
 23 28  2  0  0  0  0
 24 21  2  0  0  0  0
 25 22  2  0  0  0  0
 25 23  1  0  0  0  0
 26 22  1  0  0  0  0
 27 23  1  0  0  0  0
 28 21  1  0  0  0  0
M  END
>  <MODEL>
2

>  <REMARK>
 VINA RESULT:      -9.8      2.696      4.503
  Name = 
  2 active torsions:
  status: ('A' for Active; 'I' for Inactive)
    1  A    between atoms: C_1  and  C_3
    2  A    between atoms: C_10  and  C_13
                            x       y       z     vdW  Elec       q    Type
                         _______ _______ _______ _____ _____    ______ ____

>  <TORSDO>
F 2

$$$$
=
 OpenBabel11052413293D

 28 31  0  0  1  0  0  0  0  0999 V2000
  185.6880  177.9780  144.1290 C   0  0  1  0  0  3  0  0  0  0  0  0
  180.7870  178.8770  144.2080 C   0  0  0  0  0  1  0  0  0  0  0  0
  183.2270  178.5390  141.2070 C   0  0  2  0  0  3  0  0  0  0  0  0
  180.8610  179.3620  141.2340 C   0  0  0  0  0  1  0  0  0  0  0  0
  183.2440  178.4530  144.1430 C   0  0  2  0  0  3  0  0  0  0  0  0
  184.3470  177.8690  141.9980 C   0  0  0  0  0  2  0  0  0  0  0  0
  184.7120  179.0100  146.1060 C   0  0  0  0  0  3  0  0  0  0  0  0
  182.0650  179.1060  143.4110 C   0  0  1  0  0  3  0  0  0  0  0  0
  183.4370  179.0590  145.4580 N   0  0  0  0  0  2  0  0  0  0  0  0
  181.8980  178.5390  141.9890 C   0  0  2  0  0  3  0  0  0  0  0  0
  185.7510  178.5320  145.4880 N   0  0  0  0  0  0  0  0  0  0  0  0
  184.5290  178.5850  143.3270 C   0  0  2  0  0  3  0  0  0  0  0  0
  187.9800  176.9730  143.6730 C   0  0  0  0  0  2  0  0  0  0  0  0
  187.0290  178.1510  143.4150 C   0  0  1  0  0  3  0  0  0  0  0  0
  189.3610  177.2460  143.0710 C   0  0  0  0  0  0  0  0  0  0  0  0
  187.9390  177.9970  141.1230 C   0  0  0  0  0  2  0  0  0  0  0  0
  189.2870  178.1440  141.8310 C   0  0  0  0  0  2  0  0  0  0  0  0
  186.8120  178.4040  141.9790 N   0  0  0  0  0  2  0  0  0  0  0  0
  190.2320  177.9220  144.1110 C   0  0  0  0  0  1  0  0  0  0  0  0
  189.9970  175.9240  142.6930 C   0  0  0  0  0  1  0  0  0  0  0  0
  182.8970  176.5020  139.7600 C   0  0  0  0  0  3  0  0  0  0  0  0
  183.1940  178.6570  138.6830 C   0  0  0  0  0  0  0  0  0  0  0  0
  182.8770  176.6590  137.3470 C   0  0  0  0  0  0  0  0  0  0  0  0
  183.0970  177.8880  139.8580 C   0  0  0  0  0  0  0  0  0  0  0  0
  183.0810  178.0380  137.4330 C   0  0  0  0  0  3  0  0  0  0  0  0
  183.4550  180.3940  138.7390 Cl  0  0  0  0  0  0  0  0  0  0  0  0
  182.7700  176.0660  136.1340 F   0  0  0  0  0  0  0  0  0  0  0  0
  182.7870  175.8910  138.5080 C   0  0  0  0  0  3  0  0  0  0  0  0
  1 11  1  1  0  0  0
  3 24  1  6  0  0  0
  3 10  1  0  0  0  0
  3  6  1  0  0  0  0
  5  9  1  1  0  0  0
  8  5  1  0  0  0  0
  8  2  1  1  0  0  0
  9  7  1  0  0  0  0
 10  4  1  6  0  0  0
 10  8  1  0  0  0  0
 11  7  2  0  0  0  0
 12  6  1  6  0  0  0
 12  1  1  0  0  0  0
 12  5  1  0  0  0  0
 14 13  1  6  0  0  0
 14  1  1  0  0  0  0
 15 13  1  0  0  0  0
 15 19  1  0  0  0  0
 16 17  1  0  0  0  0
 16 18  1  0  0  0  0
 17 15  1  0  0  0  0
 18 14  1  0  0  0  0
 20 15  1  0  0  0  0
 21 24  1  0  0  0  0
 22 26  1  0  0  0  0
 22 24  2  0  0  0  0
 23 25  2  0  0  0  0
 23 28  1  0  0  0  0
 25 22  1  0  0  0  0
 27 23  1  0  0  0  0
 28 21  2  0  0  0  0
M  END
>  <MODEL>
3

>  <REMARK>
 VINA RESULT:      -8.9      4.164      7.140
  Name = 
  2 active torsions:
  status: ('A' for Active; 'I' for Inactive)
    1  A    between atoms: C_1  and  C_3
    2  A    between atoms: C_10  and  C_13
                            x       y       z     vdW  Elec       q    Type
                         _______ _______ _______ _____ _____    ______ ____

>  <TORSDO>
F 2

$$$$
=
 OpenBabel11052413293D

 28 31  0  0  1  0  0  0  0  0999 V2000
  189.7100  176.7130  143.5660 C   0  0  1  0  0  3  0  0  0  0  0  0
  188.0210  177.3460  148.2120 C   0  0  0  0  0  1  0  0  0  0  0  0
  186.5980  178.6160  144.8320 C   0  0  2  0  0  3  0  0  0  0  0  0
  185.9470  179.2630  147.1620 C   0  0  0  0  0  1  0  0  0  0  0  0
  188.8600  177.0640  145.8810 C   0  0  2  0  0  3  0  0  0  0  0  0
  187.4080  177.6630  143.9590 C   0  0  0  0  0  2  0  0  0  0  0  0
  191.2840  176.5880  145.4180 C   0  0  0  0  0  3  0  0  0  0  0  0
  188.0620  177.9710  146.8240 C   0  0  1  0  0  3  0  0  0  0  0  0
  190.2410  176.9300  146.3360 N   0  0  0  0  0  2  0  0  0  0  0  0
  186.6260  178.1940  146.3140 C   0  0  2  0  0  3  0  0  0  0  0  0
  191.0440  176.5090  144.1430 N   0  0  0  0  0  0  0  0  0  0  0  0
  188.8440  177.6160  144.4560 C   0  0  2  0  0  3  0  0  0  0  0  0
  190.6180  176.3120  141.2240 C   0  0  0  0  0  2  0  0  0  0  0  0
  189.8160  177.2500  142.1380 C   0  0  1  0  0  3  0  0  0  0  0  0
  190.8340  176.9470  139.8480 C   0  0  0  0  0  0  0  0  0  0  0  0
  188.3850  177.4910  140.1390 C   0  0  0  0  0  2  0  0  0  0  0  0
  189.6940  177.8960  139.4600 C   0  0  0  0  0  2  0  0  0  0  0  0
  188.4760  177.5550  141.6080 N   0  0  0  0  0  2  0  0  0  0  0  0
  192.1340  177.7280  139.8590 C   0  0  0  0  0  1  0  0  0  0  0  0
  190.9400  175.8450  138.8140 C   0  0  0  0  0  1  0  0  0  0  0  0
  184.0990  178.4520  145.1250 C   0  0  0  0  0  3  0  0  0  0  0  0
  184.9740  179.0980  142.9550 C   0  0  0  0  0  0  0  0  0  0  0  0
  182.5810  178.9170  143.3010 C   0  0  0  0  0  0  0  0  0  0  0  0
  185.1970  178.7300  144.2950 C   0  0  0  0  0  0  0  0  0  0  0  0
  183.6670  179.1910  142.4660 C   0  0  0  0  0  3  0  0  0  0  0  0
  186.3070  179.4480  141.8640 Cl  0  0  0  0  0  0  0  0  0  0  0  0
  181.3180  179.0080  142.8200 F   0  0  0  0  0  0  0  0  0  0  0  0
  182.7970  178.5460  144.6290 C   0  0  0  0  0  3  0  0  0  0  0  0
  1 11  1  1  0  0  0
  1 12  1  0  0  0  0
  3 24  1  6  0  0  0
  3 10  1  0  0  0  0
  5  9  1  1  0  0  0
  5  8  1  0  0  0  0
  6  3  1  0  0  0  0
  7  9  1  0  0  0  0
  8  2  1  1  0  0  0
 10  8  1  0  0  0  0
 10  4  1  1  0  0  0
 11  7  2  0  0  0  0
 12  6  1  6  0  0  0
 12  5  1  0  0  0  0
 14 13  1  6  0  0  0
 14  1  1  0  0  0  0
 15 19  1  0  0  0  0
 15 13  1  0  0  0  0
 16 18  1  0  0  0  0
 17 15  1  0  0  0  0
 17 16  1  0  0  0  0
 18 14  1  0  0  0  0
 20 15  1  0  0  0  0
 22 24  1  0  0  0  0
 23 28  2  0  0  0  0
 24 21  2  0  0  0  0
 25 22  2  0  0  0  0
 25 23  1  0  0  0  0
 26 22  1  0  0  0  0
 27 23  1  0  0  0  0
 28 21  1  0  0  0  0
M  END
>  <MODEL>
4

>  <REMARK>
 VINA RESULT:      -8.9      3.140      5.491
  Name = 
  2 active torsions:
  status: ('A' for Active; 'I' for Inactive)
    1  A    between atoms: C_1  and  C_3
    2  A    between atoms: C_10  and  C_13
                            x       y       z     vdW  Elec       q    Type
                         _______ _______ _______ _____ _____    ______ ____

>  <TORSDO>
F 2

$$$$
=
 OpenBabel11052413293D

 28 31  0  0  1  0  0  0  0  0999 V2000
  188.6120  177.2850  141.2630 C   0  0  1  0  0  3  0  0  0  0  0  0
  186.9840  178.0560  136.6160 C   0  0  0  0  0  1  0  0  0  0  0  0
  190.4880  176.9880  137.9000 C   0  0  2  0  0  3  0  0  0  0  0  0
  189.8060  177.7310  135.6080 C   0  0  0  0  0  1  0  0  0  0  0  0
  187.8300  177.6890  138.9330 C   0  0  2  0  0  3  0  0  0  0  0  0
  190.0200  176.5800  139.2940 C   0  0  0  0  0  2  0  0  0  0  0  0
  186.7280  178.7840  140.9090 C   0  0  0  0  0  3  0  0  0  0  0  0
  188.2190  178.0940  137.5070 C   0  0  1  0  0  3  0  0  0  0  0  0
  186.8610  178.6280  139.4930 N   0  0  0  0  0  2  0  0  0  0  0  0
  189.3030  177.1650  136.9300 C   0  0  2  0  0  3  0  0  0  0  0  0
  187.5450  178.1830  141.7210 N   0  0  0  0  0  0  0  0  0  0  0  0
  189.0610  177.6290  139.8350 C   0  0  2  0  0  3  0  0  0  0  0  0
  189.3880  177.8700  143.6140 C   0  0  0  0  0  2  0  0  0  0  0  0
  189.7830  177.2920  142.2470 C   0  0  1  0  0  3  0  0  0  0  0  0
  190.6130  178.0030  144.5230 C   0  0  0  0  0  0  0  0  0  0  0  0
  191.0520  175.6830  143.6260 C   0  0  0  0  0  2  0  0  0  0  0  0
  191.6800  176.9450  144.2180 C   0  0  0  0  0  2  0  0  0  0  0  0
  190.3730  175.9460  142.3460 N   0  0  0  0  0  2  0  0  0  0  0  0
  191.2220  179.3780  144.3380 C   0  0  0  0  0  1  0  0  0  0  0  0
  190.1660  177.8610  145.9640 C   0  0  0  0  0  1  0  0  0  0  0  0
  192.8420  176.3780  137.2360 C   0  0  0  0  0  3  0  0  0  0  0  0
  191.1090  174.6880  137.0550 C   0  0  0  0  0  0  0  0  0  0  0  0
  193.3920  174.1660  136.4260 C   0  0  0  0  0  0  0  0  0  0  0  0
  191.5000  175.9970  137.3930 C   0  0  0  0  0  0  0  0  0  0  0  0
  192.0580  173.7790  136.5740 C   0  0  0  0  0  3  0  0  0  0  0  0
  189.4420  174.1550  137.2190 Cl  0  0  0  0  0  0  0  0  0  0  0  0
  194.3050  173.2810  135.9600 F   0  0  0  0  0  0  0  0  0  0  0  0
  193.7840  175.4650  136.7550 C   0  0  0  0  0  3  0  0  0  0  0  0
  1 11  1  1  0  0  0
  1 14  1  0  0  0  0
  3 24  1  6  0  0  0
  3  6  1  0  0  0  0
  5  9  1  1  0  0  0
  5 12  1  0  0  0  0
  7 11  2  0  0  0  0
  8  2  1  6  0  0  0
  8  5  1  0  0  0  0
  9  7  1  0  0  0  0
 10  4  1  6  0  0  0
 10  8  1  0  0  0  0
 10  3  1  0  0  0  0
 12  6  1  6  0  0  0
 12  1  1  0  0  0  0
 13 15  1  0  0  0  0
 14 18  1  0  0  0  0
 14 13  1  1  0  0  0
 15 20  1  0  0  0  0
 16 17  1  0  0  0  0
 17 15  1  0  0  0  0
 18 16  1  0  0  0  0
 19 15  1  0  0  0  0
 21 24  1  0  0  0  0
 22 26  1  0  0  0  0
 22 24  2  0  0  0  0
 23 25  2  0  0  0  0
 23 28  1  0  0  0  0
 25 22  1  0  0  0  0
 27 23  1  0  0  0  0
 28 21  2  0  0  0  0
M  END
>  <MODEL>
5

>  <REMARK>
 VINA RESULT:      -8.8      3.311      7.361
  Name = 
  2 active torsions:
  status: ('A' for Active; 'I' for Inactive)
    1  A    between atoms: C_1  and  C_3
    2  A    between atoms: C_10  and  C_13
                            x       y       z     vdW  Elec       q    Type
                         _______ _______ _______ _____ _____    ______ ____

>  <TORSDO>
F 2

$$$$
=
 OpenBabel11052413293D

 28 31  0  0  1  0  0  0  0  0999 V2000
  187.7040  177.3910  142.0790 C   0  0  1  0  0  3  0  0  0  0  0  0
  186.5440  178.6270  137.3920 C   0  0  0  0  0  1  0  0  0  0  0  0
  189.8680  177.2880  138.8820 C   0  0  2  0  0  3  0  0  0  0  0  0
  189.4300  178.2530  136.6130 C   0  0  0  0  0  1  0  0  0  0  0  0
  187.1560  178.0260  139.7340 C   0  0  2  0  0  3  0  0  0  0  0  0
  189.2580  176.7870  140.1880 C   0  0  0  0  0  2  0  0  0  0  0  0
  185.9220  179.0030  141.6930 C   0  0  0  0  0  3  0  0  0  0  0  0
  187.6910  178.5310  138.3890 C   0  0  1  0  0  3  0  0  0  0  0  0
  186.1790  178.9600  140.2860 N   0  0  0  0  0  2  0  0  0  0  0  0
  188.7860  177.6030  137.8310 C   0  0  2  0  0  3  0  0  0  0  0  0
  186.6360  178.2980  142.5180 N   0  0  0  0  0  0  0  0  0  0  0  0
  188.2960  177.8320  140.7320 C   0  0  2  0  0  3  0  0  0  0  0  0
  189.8900  178.3080  143.0030 C   0  0  0  0  0  2  0  0  0  0  0  0
  188.7790  177.2600  143.1590 C   0  0  1  0  0  3  0  0  0  0  0  0
  191.0210  178.0550  144.0040 C   0  0  0  0  0  0  0  0  0  0  0  0
  189.0570  177.7560  145.5630 C   0  0  0  0  0  2  0  0  0  0  0  0
  190.5190  177.3970  145.2940 C   0  0  0  0  0  2  0  0  0  0  0  0
  188.1600  177.2790  144.4970 N   0  0  0  0  0  2  0  0  0  0  0  0
  192.0560  177.1490  143.3660 C   0  0  0  0  0  1  0  0  0  0  0  0
  191.6780  179.3780  144.3400 C   0  0  0  0  0  1  0  0  0  0  0  0
  190.4850  175.2460  137.5390 C   0  0  0  0  0  3  0  0  0  0  0  0
  192.2320  176.3990  138.7670 C   0  0  0  0  0  0  0  0  0  0  0  0
  192.7580  174.4260  137.4590 C   0  0  0  0  0  0  0  0  0  0  0  0
  190.8820  176.2960  138.3810 C   0  0  0  0  0  0  0  0  0  0  0  0
  193.1630  175.4640  138.3020 C   0  0  0  0  0  3  0  0  0  0  0  0
  192.7900  177.6840  139.8280 Cl  0  0  0  0  0  0  0  0  0  0  0  0
  193.6650  173.5240  137.0130 F   0  0  0  0  0  0  0  0  0  0  0  0
  191.4200  174.3160  137.0790 C   0  0  0  0  0  3  0  0  0  0  0  0
  1 11  1  1  0  0  0
  1 14  1  0  0  0  0
  3 24  1  6  0  0  0
  3  6  1  0  0  0  0
  5  9  1  1  0  0  0
  5 12  1  0  0  0  0
  7 11  2  0  0  0  0
  8  2  1  6  0  0  0
  8  5  1  0  0  0  0
  9  7  1  0  0  0  0
 10  4  1  6  0  0  0
 10  8  1  0  0  0  0
 10  3  1  0  0  0  0
 12  6  1  6  0  0  0
 12  1  1  0  0  0  0
 13 15  1  0  0  0  0
 14 13  1  1  0  0  0
 14 18  1  0  0  0  0
 15 20  1  0  0  0  0
 15 17  1  0  0  0  0
 17 16  1  0  0  0  0
 18 16  1  0  0  0  0
 19 15  1  0  0  0  0
 21 24  1  0  0  0  0
 22 26  1  0  0  0  0
 23 25  2  0  0  0  0
 24 22  2  0  0  0  0
 25 22  1  0  0  0  0
 27 23  1  0  0  0  0
 28 23  1  0  0  0  0
 28 21  2  0  0  0  0
M  END
>  <MODEL>
6

>  <REMARK>
 VINA RESULT:      -8.7      2.962      6.649
  Name = 
  2 active torsions:
  status: ('A' for Active; 'I' for Inactive)
    1  A    between atoms: C_1  and  C_3
    2  A    between atoms: C_10  and  C_13
                            x       y       z     vdW  Elec       q    Type
                         _______ _______ _______ _____ _____    ______ ____

>  <TORSDO>
F 2

$$$$
=
 OpenBabel11052413293D

 28 31  0  0  1  0  0  0  0  0999 V2000
  184.8880  178.7300  140.1950 C   0  0  1  0  0  3  0  0  0  0  0  0
  183.4900  179.1360  144.9610 C   0  0  0  0  0  1  0  0  0  0  0  0
  186.7040  177.6060  143.4120 C   0  0  2  0  0  3  0  0  0  0  0  0
  185.8590  177.4560  145.7660 C   0  0  0  0  0  1  0  0  0  0  0  0
  184.2010  178.8990  142.5820 C   0  0  2  0  0  3  0  0  0  0  0  0
  186.5370  178.2580  142.0430 C   0  0  0  0  0  2  0  0  0  0  0  0
  182.5160  178.8780  140.7170 C   0  0  0  0  0  3  0  0  0  0  0  0
  184.3140  178.3010  143.9890 C   0  0  1  0  0  3  0  0  0  0  0  0
  182.8170  178.8680  142.1160 N   0  0  0  0  0  2  0  0  0  0  0  0
  185.7770  178.2470  144.4650 C   0  0  2  0  0  3  0  0  0  0  0  0
  183.4670  178.7940  139.8350 N   0  0  0  0  0  0  0  0  0  0  0  0
  185.0880  178.1380  141.5970 C   0  0  2  0  0  3  0  0  0  0  0  0
  184.8510  177.7050  137.8670 C   0  0  0  0  0  2  0  0  0  0  0  0
  185.6790  177.9630  139.1340 C   0  0  1  0  0  3  0  0  0  0  0  0
  185.6170  176.8090  136.8890 C   0  0  0  0  0  0  0  0  0  0  0  0
  187.4890  178.3880  137.5070 C   0  0  0  0  0  2  0  0  0  0  0  0
  187.1350  176.9870  137.0040 C   0  0  0  0  0  2  0  0  0  0  0  0
  186.9530  178.6490  138.8530 N   0  0  0  0  0  2  0  0  0  0  0  0
  185.2740  175.3600  137.1720 C   0  0  0  0  0  1  0  0  0  0  0  0
  185.1790  177.1440  135.4780 C   0  0  0  0  0  1  0  0  0  0  0  0
  188.5000  177.9460  145.1480 C   0  0  0  0  0  3  0  0  0  0  0  0
  189.1660  177.4060  142.8770 C   0  0  0  0  0  0  0  0  0  0  0  0
  190.8450  177.7500  144.5920 C   0  0  0  0  0  0  0  0  0  0  0  0
  188.1510  177.6470  143.8220 C   0  0  0  0  0  0  0  0  0  0  0  0
  190.5090  177.4570  143.2690 C   0  0  0  0  0  3  0  0  0  0  0  0
  188.7940  177.0380  141.2000 Cl  0  0  0  0  0  0  0  0  0  0  0  0
  192.1470  177.7980  144.9640 F   0  0  0  0  0  0  0  0  0  0  0  0
  189.8430  177.9960  145.5310 C   0  0  0  0  0  3  0  0  0  0  0  0
  1 11  1  6  0  0  0
  1 12  1  0  0  0  0
  3 24  1  1  0  0  0
  3 10  1  0  0  0  0
  5  9  1  6  0  0  0
  5  8  1  0  0  0  0
  6  3  1  0  0  0  0
  7  9  1  0  0  0  0
  8 10  1  0  0  0  0
  8  2  1  1  0  0  0
 10  4  1  1  0  0  0
 11  7  2  0  0  0  0
 12  6  1  1  0  0  0
 12  5  1  0  0  0  0
 14 13  1  6  0  0  0
 14  1  1  0  0  0  0
 15 17  1  0  0  0  0
 15 19  1  0  0  0  0
 15 13  1  0  0  0  0
 16 18  1  0  0  0  0
 17 16  1  0  0  0  0
 18 14  1  0  0  0  0
 20 15  1  0  0  0  0
 21 28  1  0  0  0  0
 22 25  2  0  0  0  0
 22 24  1  0  0  0  0
 23 27  1  0  0  0  0
 23 28  2  0  0  0  0
 24 21  2  0  0  0  0
 25 23  1  0  0  0  0
 26 22  1  0  0  0  0
M  END
>  <MODEL>
7

>  <REMARK>
 VINA RESULT:      -8.7      1.894      2.441
  Name = 
  2 active torsions:
  status: ('A' for Active; 'I' for Inactive)
    1  A    between atoms: C_1  and  C_3
    2  A    between atoms: C_10  and  C_13
                            x       y       z     vdW  Elec       q    Type
                         _______ _______ _______ _____ _____    ______ ____

>  <TORSDO>
F 2

$$$$
=
 OpenBabel11052413293D

 28 31  0  0  1  0  0  0  0  0999 V2000
  187.2110  177.4020  143.3060 C   0  0  1  0  0  3  0  0  0  0  0  0
  182.7490  178.9490  141.7130 C   0  0  0  0  0  1  0  0  0  0  0  0
  186.1180  178.6280  139.8110 C   0  0  2  0  0  3  0  0  0  0  0  0
  184.0010  179.7580  139.0930 C   0  0  0  0  0  1  0  0  0  0  0  0
  184.9980  178.2030  142.4930 C   0  0  2  0  0  3  0  0  0  0  0  0
  186.7880  177.7240  140.8420 C   0  0  0  0  0  2  0  0  0  0  0  0
  185.6390  178.3230  144.9200 C   0  0  0  0  0  3  0  0  0  0  0  0
  184.2500  179.0900  141.4910 C   0  0  1  0  0  3  0  0  0  0  0  0
  184.7200  178.6210  143.8640 N   0  0  0  0  0  2  0  0  0  0  0  0
  184.5960  178.7200  140.0370 C   0  0  2  0  0  3  0  0  0  0  0  0
  186.7920  177.7820  144.6610 N   0  0  0  0  0  0  0  0  0  0  0  0
  186.5040  178.2500  142.2400 C   0  0  2  0  0  3  0  0  0  0  0  0
  189.4230  177.7030  144.5250 C   0  0  0  0  0  2  0  0  0  0  0  0
  188.7330  177.4700  143.1740 C   0  0  1  0  0  3  0  0  0  0  0  0
  190.9280  177.9160  144.3390 C   0  0  0  0  0  0  0  0  0  0  0  0
  190.6300  175.9310  142.8060 C   0  0  0  0  0  2  0  0  0  0  0  0
  191.4740  177.1680  143.1170 C   0  0  0  0  0  2  0  0  0  0  0  0
  189.2370  176.2750  142.4740 N   0  0  0  0  0  2  0  0  0  0  0  0
  191.2020  179.3970  144.1650 C   0  0  0  0  0  1  0  0  0  0  0  0
  191.6460  177.4330  145.5820 C   0  0  0  0  0  1  0  0  0  0  0  0
  185.4800  177.5740  137.6120 C   0  0  0  0  0  3  0  0  0  0  0  0
  187.7780  178.2880  137.9350 C   0  0  0  0  0  0  0  0  0  0  0  0
  187.1010  177.2630  135.8440 C   0  0  0  0  0  0  0  0  0  0  0  0
  186.4640  178.1600  138.4240 C   0  0  0  0  0  0  0  0  0  0  0  0
  188.0880  177.8400  136.6460 C   0  0  0  0  0  3  0  0  0  0  0  0
  189.0560  179.0030  138.9070 Cl  0  0  0  0  0  0  0  0  0  0  0  0
  187.4090  176.8310  134.5980 F   0  0  0  0  0  0  0  0  0  0  0  0
  185.7990  177.1280  136.3270 C   0  0  0  0  0  3  0  0  0  0  0  0
  1 11  1  1  0  0  0
  3 24  1  6  0  0  0
  3 10  1  0  0  0  0
  3  6  1  0  0  0  0
  5  9  1  1  0  0  0
  8  2  1  6  0  0  0
  8  5  1  0  0  0  0
  9  7  1  0  0  0  0
 10  4  1  6  0  0  0
 10  8  1  0  0  0  0
 11  7  2  0  0  0  0
 12  6  1  6  0  0  0
 12  5  1  0  0  0  0
 12  1  1  0  0  0  0
 14  1  1  0  0  0  0
 14 13  1  1  0  0  0
 15 13  1  0  0  0  0
 15 20  1  0  0  0  0
 16 17  1  0  0  0  0
 17 15  1  0  0  0  0
 18 16  1  0  0  0  0
 18 14  1  0  0  0  0
 19 15  1  0  0  0  0
 21 24  1  0  0  0  0
 22 24  2  0  0  0  0
 22 26  1  0  0  0  0
 23 28  1  0  0  0  0
 23 25  2  0  0  0  0
 25 22  1  0  0  0  0
 27 23  1  0  0  0  0
 28 21  2  0  0  0  0
M  END
>  <MODEL>
8

>  <REMARK>
 VINA RESULT:      -8.4      3.359      6.766
  Name = 
  2 active torsions:
  status: ('A' for Active; 'I' for Inactive)
    1  A    between atoms: C_1  and  C_3
    2  A    between atoms: C_10  and  C_13
                            x       y       z     vdW  Elec       q    Type
                         _______ _______ _______ _____ _____    ______ ____

>  <TORSDO>
F 2

$$$$
=
 OpenBabel11052413293D

 28 31  0  0  1  0  0  0  0  0999 V2000
  187.2130  177.2230  143.7260 C   0  0  1  0  0  3  0  0  0  0  0  0
  184.9360  179.0030  139.6660 C   0  0  0  0  0  1  0  0  0  0  0  0
  188.5820  177.7630  140.1560 C   0  0  2  0  0  3  0  0  0  0  0  0
  187.5810  178.9980  138.2200 C   0  0  0  0  0  1  0  0  0  0  0  0
  186.1050  178.1330  141.6900 C   0  0  2  0  0  3  0  0  0  0  0  0
  188.3170  177.0310  141.4680 C   0  0  0  0  0  2  0  0  0  0  0  0
  185.3060  178.7100  144.0020 C   0  0  0  0  0  3  0  0  0  0  0  0
  186.2870  178.8680  140.3570 C   0  0  1  0  0  3  0  0  0  0  0  0
  185.2330  178.8900  142.5840 N   0  0  0  0  0  2  0  0  0  0  0  0
  187.2710  178.1270  139.4320 C   0  0  2  0  0  3  0  0  0  0  0  0
  186.2280  177.9600  144.5280 N   0  0  0  0  0  0  0  0  0  0  0  0
  187.4530  177.8990  142.3690 C   0  0  2  0  0  3  0  0  0  0  0  0
  189.6920  177.7740  143.8620 C   0  0  0  0  0  2  0  0  0  0  0  0
  188.5130  177.0340  144.5090 C   0  0  1  0  0  3  0  0  0  0  0  0
  191.0030  177.4440  144.5810 C   0  0  0  0  0  0  0  0  0  0  0  0
  189.5450  177.8360  146.6050 C   0  0  0  0  0  2  0  0  0  0  0  0
  190.7880  177.1280  146.0650 C   0  0  0  0  0  2  0  0  0  0  0  0
  188.3140  177.4030  145.9220 N   0  0  0  0  0  2  0  0  0  0  0  0
  191.6460  176.2430  143.9150 C   0  0  0  0  0  1  0  0  0  0  0  0
  191.9400  178.6280  144.4530 C   0  0  0  0  0  1  0  0  0  0  0  0
  188.9860  176.1680  138.2470 C   0  0  0  0  0  3  0  0  0  0  0  0
  190.8900  176.9360  139.5410 C   0  0  0  0  0  0  0  0  0  0  0  0
  191.2100  175.3970  137.6950 C   0  0  0  0  0  0  0  0  0  0  0  0
  189.5040  176.9450  139.2940 C   0  0  0  0  0  0  0  0  0  0  0  0
  191.7360  176.1630  138.7380 C   0  0  0  0  0  3  0  0  0  0  0  0
  191.5990  177.8780  140.8440 Cl  0  0  0  0  0  0  0  0  0  0  0  0
  192.0350  174.6510  136.9220 F   0  0  0  0  0  0  0  0  0  0  0  0
  189.8360  175.3980  137.4500 C   0  0  0  0  0  3  0  0  0  0  0  0
  1 14  1  0  0  0  0
  1 11  1  1  0  0  0
  3 24  1  6  0  0  0
  3  6  1  0  0  0  0
  5 12  1  0  0  0  0
  5  9  1  1  0  0  0
  7 11  2  0  0  0  0
  8  2  1  6  0  0  0
  8  5  1  0  0  0  0
  9  7  1  0  0  0  0
 10  4  1  6  0  0  0
 10  3  1  0  0  0  0
 10  8  1  0  0  0  0
 12  6  1  6  0  0  0
 12  1  1  0  0  0  0
 13 15  1  0  0  0  0
 14 13  1  6  0  0  0
 14 18  1  0  0  0  0
 15 17  1  0  0  0  0
 17 16  1  0  0  0  0
 18 16  1  0  0  0  0
 19 15  1  0  0  0  0
 20 15  1  0  0  0  0
 21 24  1  0  0  0  0
 22 26  1  0  0  0  0
 23 25  2  0  0  0  0
 24 22  2  0  0  0  0
 25 22  1  0  0  0  0
 27 23  1  0  0  0  0
 28 23  1  0  0  0  0
 28 21  2  0  0  0  0
M  END
>  <MODEL>
9

>  <REMARK>
 VINA RESULT:      -8.0      2.730      6.215
  Name = 
  2 active torsions:
  status: ('A' for Active; 'I' for Inactive)
    1  A    between atoms: C_1  and  C_3
    2  A    between atoms: C_10  and  C_13
                            x       y       z     vdW  Elec       q    Type
                         _______ _______ _______ _____ _____    ______ ____

>  <TORSDO>
F 2

$$$$
