=
 OpenBabel11052412353D

 30 31  0  0  1  0  0  0  0  0999 V2000
  191.2420  176.6440  142.7890 C   0  0  0  0  0  0  0  0  0  0  0  0
  189.0830  178.2070  144.1560 C   0  0  0  0  0  0  0  0  0  0  0  0
  187.5900  177.8480  144.0990 C   0  0  1  0  0  3  0  0  0  0  0  0
  191.7130  177.9520  142.9300 O   0  0  0  0  0  0  0  0  0  0  0  0
  191.5930  175.7600  143.6140 O   0  0  0  0  0  0  0  0  0  0  0  0
  190.1760  178.6130  144.7900 C   0  0  0  0  0  3  0  0  0  0  0  0
  191.4620  178.7020  144.0840 C   0  0  0  0  0  0  0  0  0  0  0  0
  190.2130  176.3110  141.7510 C   0  0  1  0  0  3  0  0  0  0  0  0
  188.3610  177.7550  142.8880 C   0  0  2  0  0  0  0  0  0  0  0  0
  187.3750  176.5270  144.8270 C   0  0  0  0  0  1  0  0  0  0  0  0
  192.3430  179.4930  144.5100 O   0  0  0  0  0  0  0  0  0  0  0  0
  188.7960  176.3750  142.3510 C   0  0  0  0  0  2  0  0  0  0  0  0
  190.3660  177.1130  140.4450 C   0  0  1  0  0  3  0  0  0  0  0  0
  191.8040  177.1420  139.9470 C   0  0  0  0  0  1  0  0  0  0  0  0
  189.3830  176.6880  139.3340 C   0  0  0  0  0  2  0  0  0  0  0  0
  189.9520  176.4590  137.9230 C   0  0  2  0  0  3  0  0  0  0  0  0
  189.5970  177.5700  136.9420 C   0  0  0  0  0  2  0  0  0  0  0  0
  187.2590  178.4160  136.6910 C   0  0  0  0  0  1  0  0  0  0  0  0
  188.9970  179.7900  137.5430 O   0  0  0  0  0  1  0  0  0  0  0  0
  188.5260  178.4790  137.5240 C   0  0  2  0  0  3  0  0  0  0  0  0
  189.6130  175.0820  137.3710 C   0  0  0  0  0  2  0  0  0  0  0  0
  190.9250  173.4090  136.0670 O   0  0  0  0  0  0  0  0  0  0  0  0
  191.8380  174.4170  137.9140 O   0  0  0  0  0  1  0  0  0  0  0  0
  190.8500  174.2810  137.1450 C   0  0  0  0  0  0  0  0  0  0  0  0
  188.1420  178.8990  141.9030 C   0  0  0  0  0  2  0  0  0  0  0  0
  186.9790  178.6200  140.9620 C   0  0  0  0  0  2  0  0  0  0  0  0
  185.6700  179.1010  141.5610 C   0  0  0  0  0  2  0  0  0  0  0  0
  184.6050  179.0830  140.5230 C   0  0  0  0  0  0  0  0  0  0  0  0
  183.5320  178.2100  140.6420 O   0  0  0  0  0  1  0  0  0  0  0  0
  184.6930  179.8350  139.5170 O   0  0  0  0  0  0  0  0  0  0  0  0
  1  4  1  0  0  0  0
  1  5  2  0  0  0  0
  2  6  2  0  0  0  0
  3  2  1  0  0  0  0
  3 10  1  1  0  0  0
  4  7  1  0  0  0  0
  7 11  2  0  0  0  0
  7  6  1  0  0  0  0
  8 13  1  6  0  0  0
  8 12  1  0  0  0  0
  8  1  1  0  0  0  0
  9 25  1  6  0  0  0
  9  3  1  0  0  0  0
  9  2  1  0  0  0  0
 12  9  1  0  0  0  0
 13 14  1  6  0  0  0
 15 13  1  0  0  0  0
 16 17  1  6  0  0  0
 16 15  1  0  0  0  0
 17 20  1  0  0  0  0
 20 18  1  6  0  0  0
 20 19  1  0  0  0  0
 21 16  1  0  0  0  0
 22 24  2  0  0  0  0
 24 21  1  0  0  0  0
 24 23  1  0  0  0  0
 26 27  1  0  0  0  0
 26 25  1  0  0  0  0
 28 29  1  0  0  0  0
 28 27  1  0  0  0  0
 30 28  2  0  0  0  0
M  END
>  <MODEL>
1

>  <REMARK>
 VINA RESULT:      -6.5      0.000      0.000
  Name = 
  11 active torsions:
  status: ('A' for Active; 'I' for Inactive)
    1  A    between atoms: C_1  and  C_4
    2  A    between atoms: C_1  and  C_22
    3  A    between atoms: C_4  and  C_12
    4  A    between atoms: C_7  and  C_23
    5  A    between atoms: C_7  and  C_25
    6  A    between atoms: C_8  and  C_12
    7  A    between atoms: C_8  and  C_30
    8  A    between atoms: C_9  and  C_12
    9  A    between atoms: C_9  and  C_21
   10  A    between atoms: C_10  and  C_15
   11  A    between atoms: C_15  and  C_25
                            x       y       z     vdW  Elec       q    Type
                         _______ _______ _______ _____ _____    ______ ____

>  <TORSDO>
F 11

$$$$
=
 OpenBabel11052412353D

 30 31  0  0  1  0  0  0  0  0999 V2000
  189.0000  177.7550  146.7170 C   0  0  0  0  0  0  0  0  0  0  0  0
  191.4240  177.2230  145.0390 C   0  0  0  0  0  0  0  0  0  0  0  0
  191.7900  178.0170  143.7760 C   0  0  1  0  0  3  0  0  0  0  0  0
  189.3410  176.4150  146.9080 O   0  0  0  0  0  0  0  0  0  0  0  0
  189.3570  178.6190  147.5620 O   0  0  0  0  0  0  0  0  0  0  0  0
  191.7260  176.6160  146.1810 C   0  0  0  0  0  3  0  0  0  0  0  0
  190.6740  176.0020  147.0040 C   0  0  0  0  0  0  0  0  0  0  0  0
  188.3370  178.2020  145.4480 C   0  0  1  0  0  3  0  0  0  0  0  0
  190.4140  177.6420  143.9720 C   0  0  2  0  0  0  0  0  0  0  0  0
  192.1300  179.4470  144.1740 C   0  0  0  0  0  1  0  0  0  0  0  0
  190.9760  175.0660  147.7870 O   0  0  0  0  0  0  0  0  0  0  0  0
  189.3840  178.6950  144.4330 C   0  0  0  0  0  2  0  0  0  0  0  0
  187.3530  177.1700  144.8660 C   0  0  1  0  0  3  0  0  0  0  0  0
  186.2290  176.8300  145.8350 C   0  0  0  0  0  1  0  0  0  0  0  0
  186.8120  177.5440  143.4700 C   0  0  0  0  0  2  0  0  0  0  0  0
  185.3270  177.9290  143.3560 C   0  0  2  0  0  3  0  0  0  0  0  0
  184.7650  177.7580  141.9490 C   0  0  0  0  0  2  0  0  0  0  0  0
  183.7540  179.2040  140.1800 C   0  0  0  0  0  1  0  0  0  0  0  0
  186.1050  179.0170  140.4440 O   0  0  0  0  0  1  0  0  0  0  0  0
  184.9070  179.0460  141.1540 C   0  0  2  0  0  3  0  0  0  0  0  0
  185.0350  179.3120  143.9220 C   0  0  0  0  0  2  0  0  0  0  0  0
  182.5550  179.5800  143.8950 O   0  0  0  0  0  0  0  0  0  0  0  0
  183.6500  179.0970  145.8520 O   0  0  0  0  0  1  0  0  0  0  0  0
  183.7160  179.3330  144.6170 C   0  0  0  0  0  0  0  0  0  0  0  0
  189.9450  176.4670  143.1210 C   0  0  0  0  0  2  0  0  0  0  0  0
  190.2790  176.6650  141.6500 C   0  0  0  0  0  2  0  0  0  0  0  0
  189.1970  177.4690  140.9530 C   0  0  0  0  0  2  0  0  0  0  0  0
  189.6520  177.8480  139.5880 C   0  0  0  0  0  0  0  0  0  0  0  0
  189.0520  178.9080  138.9230 O   0  0  0  0  0  0  0  0  0  0  0  0
  190.5600  177.1850  139.0210 O   0  0  0  0  0  1  0  0  0  0  0  0
  1  4  1  0  0  0  0
  1  5  2  0  0  0  0
  2  6  2  0  0  0  0
  3  9  1  0  0  0  0
  3 10  1  1  0  0  0
  3  2  1  0  0  0  0
  4  7  1  0  0  0  0
  6  7  1  0  0  0  0
  7 11  2  0  0  0  0
  8 13  1  6  0  0  0
  8  1  1  0  0  0  0
  9 25  1  6  0  0  0
  9 12  1  0  0  0  0
  9  2  1  0  0  0  0
 12  8  1  0  0  0  0
 13 14  1  1  0  0  0
 15 13  1  0  0  0  0
 16 17  1  6  0  0  0
 16 15  1  0  0  0  0
 16 21  1  0  0  0  0
 19 20  1  0  0  0  0
 20 18  1  6  0  0  0
 20 17  1  0  0  0  0
 21 24  1  0  0  0  0
 22 24  2  0  0  0  0
 24 23  1  0  0  0  0
 26 25  1  0  0  0  0
 27 26  1  0  0  0  0
 28 27  1  0  0  0  0
 29 28  2  0  0  0  0
 30 28  1  0  0  0  0
M  END
>  <MODEL>
2

>  <REMARK>
 VINA RESULT:      -6.4      2.536      6.308
  Name = 
  11 active torsions:
  status: ('A' for Active; 'I' for Inactive)
    1  A    between atoms: C_1  and  C_4
    2  A    between atoms: C_1  and  C_22
    3  A    between atoms: C_4  and  C_12
    4  A    between atoms: C_7  and  C_23
    5  A    between atoms: C_7  and  C_25
    6  A    between atoms: C_8  and  C_12
    7  A    between atoms: C_8  and  C_30
    8  A    between atoms: C_9  and  C_12
    9  A    between atoms: C_9  and  C_21
   10  A    between atoms: C_10  and  C_15
   11  A    between atoms: C_15  and  C_25
                            x       y       z     vdW  Elec       q    Type
                         _______ _______ _______ _____ _____    ______ ____

>  <TORSDO>
F 11

$$$$
=
 OpenBabel11052412353D

 30 31  0  0  1  0  0  0  0  0999 V2000
  189.0030  177.7470  146.7690 C   0  0  0  0  0  0  0  0  0  0  0  0
  191.3990  177.1910  145.0580 C   0  0  0  0  0  0  0  0  0  0  0  0
  191.7240  177.9420  143.7580 C   0  0  1  0  0  3  0  0  0  0  0  0
  189.3710  176.4200  147.0020 O   0  0  0  0  0  0  0  0  0  0  0  0
  189.3650  178.6470  147.5730 O   0  0  0  0  0  0  0  0  0  0  0  0
  191.7360  176.6310  146.2140 C   0  0  0  0  0  3  0  0  0  0  0  0
  190.7120  176.0320  147.0820 C   0  0  0  0  0  0  0  0  0  0  0  0
  188.3060  178.1360  145.5000 C   0  0  1  0  0  3  0  0  0  0  0  0
  190.3590  177.5540  143.9990 C   0  0  2  0  0  0  0  0  0  0  0  0
  192.0490  179.3910  144.0950 C   0  0  0  0  0  1  0  0  0  0  0  0
  191.0470  175.1300  147.8930 O   0  0  0  0  0  0  0  0  0  0  0  0
  189.3220  178.6070  144.4430 C   0  0  0  0  0  2  0  0  0  0  0  0
  187.3260  177.0680  144.9790 C   0  0  1  0  0  3  0  0  0  0  0  0
  186.1130  176.9030  145.8830 C   0  0  0  0  0  1  0  0  0  0  0  0
  186.9180  177.2640  143.5040 C   0  0  0  0  0  2  0  0  0  0  0  0
  185.9930  178.4470  143.1670 C   0  0  2  0  0  3  0  0  0  0  0  0
  184.5540  178.0270  142.8890 C   0  0  0  0  0  2  0  0  0  0  0  0
  182.2760  179.0100  143.1880 C   0  0  0  0  0  1  0  0  0  0  0  0
  184.1710  179.8890  144.3160 O   0  0  0  0  0  1  0  0  0  0  0  0
  183.6000  178.7020  143.8620 C   0  0  2  0  0  3  0  0  0  0  0  0
  186.5530  179.3320  142.0620 C   0  0  0  0  0  2  0  0  0  0  0  0
  184.8320  179.6990  140.2930 O   0  0  0  0  0  1  0  0  0  0  0  0
  186.4390  178.0820  140.0330 O   0  0  0  0  0  0  0  0  0  0  0  0
  185.9380  178.9910  140.7470 C   0  0  0  0  0  0  0  0  0  0  0  0
  189.8900  176.3400  143.2030 C   0  0  0  0  0  2  0  0  0  0  0  0
  190.4350  176.3520  141.7820 C   0  0  0  0  0  2  0  0  0  0  0  0
  189.6110  177.2680  140.8950 C   0  0  0  0  0  2  0  0  0  0  0  0
  189.9540  177.0270  139.4670 C   0  0  0  0  0  0  0  0  0  0  0  0
  189.5610  177.9350  138.4930 O   0  0  0  0  0  0  0  0  0  0  0  0
  190.5710  175.9810  139.1370 O   0  0  0  0  0  1  0  0  0  0  0  0
  1  4  1  0  0  0  0
  1  5  2  0  0  0  0
  2  6  2  0  0  0  0
  3  9  1  0  0  0  0
  3 10  1  1  0  0  0
  3  2  1  0  0  0  0
  4  7  1  0  0  0  0
  6  7  1  0  0  0  0
  7 11  2  0  0  0  0
  8 13  1  6  0  0  0
  8  1  1  0  0  0  0
  9 25  1  6  0  0  0
  9 12  1  0  0  0  0
  9  2  1  0  0  0  0
 12  8  1  0  0  0  0
 13 14  1  1  0  0  0
 15 13  1  0  0  0  0
 16 21  1  6  0  0  0
 16 15  1  0  0  0  0
 17 16  1  0  0  0  0
 17 20  1  0  0  0  0
 20 18  1  6  0  0  0
 20 19  1  0  0  0  0
 22 24  1  0  0  0  0
 23 24  2  0  0  0  0
 24 21  1  0  0  0  0
 26 25  1  0  0  0  0
 27 26  1  0  0  0  0
 28 27  1  0  0  0  0
 29 28  2  0  0  0  0
 30 28  1  0  0  0  0
M  END
>  <MODEL>
3

>  <REMARK>
 VINA RESULT:      -6.1      2.339      5.993
  Name = 
  11 active torsions:
  status: ('A' for Active; 'I' for Inactive)
    1  A    between atoms: C_1  and  C_4
    2  A    between atoms: C_1  and  C_22
    3  A    between atoms: C_4  and  C_12
    4  A    between atoms: C_7  and  C_23
    5  A    between atoms: C_7  and  C_25
    6  A    between atoms: C_8  and  C_12
    7  A    between atoms: C_8  and  C_30
    8  A    between atoms: C_9  and  C_12
    9  A    between atoms: C_9  and  C_21
   10  A    between atoms: C_10  and  C_15
   11  A    between atoms: C_15  and  C_25
                            x       y       z     vdW  Elec       q    Type
                         _______ _______ _______ _____ _____    ______ ____

>  <TORSDO>
F 11

$$$$
=
 OpenBabel11052412353D

 30 31  0  0  1  0  0  0  0  0999 V2000
  191.3850  176.7280  142.7610 C   0  0  0  0  0  0  0  0  0  0  0  0
  189.0240  178.2200  143.8430 C   0  0  0  0  0  0  0  0  0  0  0  0
  187.5680  177.7510  143.7030 C   0  0  1  0  0  3  0  0  0  0  0  0
  191.7550  178.0730  142.8400 O   0  0  0  0  0  0  0  0  0  0  0  0
  191.7280  175.9300  143.6740 O   0  0  0  0  0  0  0  0  0  0  0  0
  190.0340  178.7470  144.5260 C   0  0  0  0  0  3  0  0  0  0  0  0
  191.3630  178.8800  143.9130 C   0  0  0  0  0  0  0  0  0  0  0  0
  190.4660  176.2500  141.6770 C   0  0  1  0  0  3  0  0  0  0  0  0
  188.4370  177.6310  142.5620 C   0  0  2  0  0  0  0  0  0  0  0  0
  187.3840  176.4710  144.5080 C   0  0  0  0  0  1  0  0  0  0  0  0
  192.1520  179.7600  144.3440 O   0  0  0  0  0  0  0  0  0  0  0  0
  189.0050  176.2530  142.1630 C   0  0  0  0  0  2  0  0  0  0  0  0
  190.6690  176.9700  140.3300 C   0  0  1  0  0  3  0  0  0  0  0  0
  192.1000  177.4490  140.1380 C   0  0  0  0  0  1  0  0  0  0  0  0
  190.1650  176.1670  139.1130 C   0  0  0  0  0  2  0  0  0  0  0  0
  189.0070  176.7590  138.2920 C   0  0  2  0  0  3  0  0  0  0  0  0
  188.0740  175.7020  137.7130 C   0  0  0  0  0  2  0  0  0  0  0  0
  187.1140  175.2070  135.4590 C   0  0  0  0  0  1  0  0  0  0  0  0
  189.2170  174.3390  136.1370 O   0  0  0  0  0  1  0  0  0  0  0  0
  188.3880  175.4540  136.2470 C   0  0  2  0  0  3  0  0  0  0  0  0
  189.4840  177.7410  137.2310 C   0  0  0  0  0  2  0  0  0  0  0  0
  187.5490  179.1880  136.6090 O   0  0  0  0  0  0  0  0  0  0  0  0
  189.1520  179.9520  138.0620 O   0  0  0  0  0  1  0  0  0  0  0  0
  188.7320  179.0250  137.3190 C   0  0  0  0  0  0  0  0  0  0  0  0
  188.2210  178.6860  141.4820 C   0  0  0  0  0  2  0  0  0  0  0  0
  186.7480  179.0270  141.3110 C   0  0  0  0  0  2  0  0  0  0  0  0
  186.2240  178.5130  139.9830 C   0  0  0  0  0  2  0  0  0  0  0  0
  184.8190  178.9650  139.7870 C   0  0  0  0  0  0  0  0  0  0  0  0
  183.7700  178.2220  140.3100 O   0  0  0  0  0  1  0  0  0  0  0  0
  184.5810  180.0040  139.1180 O   0  0  0  0  0  0  0  0  0  0  0  0
  1  4  1  0  0  0  0
  1  5  2  0  0  0  0
  2  6  2  0  0  0  0
  3  2  1  0  0  0  0
  3 10  1  1  0  0  0
  4  7  1  0  0  0  0
  7 11  2  0  0  0  0
  7  6  1  0  0  0  0
  8 13  1  6  0  0  0
  8 12  1  0  0  0  0
  8  1  1  0  0  0  0
  9 25  1  6  0  0  0
  9  3  1  0  0  0  0
  9  2  1  0  0  0  0
 12  9  1  0  0  0  0
 13 14  1  6  0  0  0
 15 13  1  0  0  0  0
 16 21  1  6  0  0  0
 16 15  1  0  0  0  0
 17 16  1  0  0  0  0
 19 20  1  0  0  0  0
 20 18  1  6  0  0  0
 20 17  1  0  0  0  0
 21 24  1  0  0  0  0
 22 24  2  0  0  0  0
 24 23  1  0  0  0  0
 26 25  1  0  0  0  0
 27 26  1  0  0  0  0
 28 27  1  0  0  0  0
 28 29  1  0  0  0  0
 30 28  2  0  0  0  0
M  END
>  <MODEL>
4

>  <REMARK>
 VINA RESULT:      -5.8      1.074      2.490
  Name = 
  11 active torsions:
  status: ('A' for Active; 'I' for Inactive)
    1  A    between atoms: C_1  and  C_4
    2  A    between atoms: C_1  and  C_22
    3  A    between atoms: C_4  and  C_12
    4  A    between atoms: C_7  and  C_23
    5  A    between atoms: C_7  and  C_25
    6  A    between atoms: C_8  and  C_12
    7  A    between atoms: C_8  and  C_30
    8  A    between atoms: C_9  and  C_12
    9  A    between atoms: C_9  and  C_21
   10  A    between atoms: C_10  and  C_15
   11  A    between atoms: C_15  and  C_25
                            x       y       z     vdW  Elec       q    Type
                         _______ _______ _______ _____ _____    ______ ____

>  <TORSDO>
F 11

$$$$
=
 OpenBabel11052412353D

 30 31  0  0  1  0  0  0  0  0999 V2000
  190.7900  177.0480  140.1780 C   0  0  0  0  0  0  0  0  0  0  0  0
  189.1690  177.4540  137.6920 C   0  0  0  0  0  0  0  0  0  0  0  0
  188.2830  178.6810  137.4300 C   0  0  1  0  0  3  0  0  0  0  0  0
  190.5210  175.7810  139.6570 O   0  0  0  0  0  0  0  0  0  0  0  0
  191.9020  177.5960  139.9500 O   0  0  0  0  0  0  0  0  0  0  0  0
  190.0420  176.5270  137.3170 C   0  0  0  0  0  3  0  0  0  0  0  0
  190.5400  175.5340  138.2800 C   0  0  0  0  0  0  0  0  0  0  0  0
  189.7220  177.8260  140.8870 C   0  0  1  0  0  3  0  0  0  0  0  0
  188.2610  178.0910  138.7420 C   0  0  2  0  0  0  0  0  0  0  0  0
  189.1730  179.9100  137.2930 C   0  0  0  0  0  1  0  0  0  0  0  0
  190.9630  174.4280  137.8570 O   0  0  0  0  0  0  0  0  0  0  0  0
  189.0020  178.7740  139.9110 C   0  0  0  0  0  2  0  0  0  0  0  0
  188.7640  176.9500  141.7160 C   0  0  1  0  0  3  0  0  0  0  0  0
  189.4960  175.8680  142.4970 C   0  0  0  0  0  1  0  0  0  0  0  0
  187.8050  177.7560  142.6160 C   0  0  0  0  0  2  0  0  0  0  0  0
  187.7120  177.3610  144.1000 C   0  0  2  0  0  3  0  0  0  0  0  0
  186.2880  177.3820  144.6430 C   0  0  0  0  0  2  0  0  0  0  0  0
  185.4400  178.4650  146.7290 C   0  0  0  0  0  1  0  0  0  0  0  0
  185.0670  179.4200  144.5890 O   0  0  0  0  0  1  0  0  0  0  0  0
  185.9970  178.7030  145.3380 C   0  0  2  0  0  3  0  0  0  0  0  0
  188.6680  178.1560  144.9790 C   0  0  0  0  0  2  0  0  0  0  0  0
  188.7080  176.7850  147.0620 O   0  0  0  0  0  1  0  0  0  0  0  0
  190.5630  176.9120  145.7200 O   0  0  0  0  0  0  0  0  0  0  0  0
  189.3730  177.2610  145.9400 C   0  0  0  0  0  0  0  0  0  0  0  0
  187.0290  177.2420  139.0390 C   0  0  0  0  0  2  0  0  0  0  0  0
  185.8210  177.6980  138.2330 C   0  0  0  0  0  2  0  0  0  0  0  0
  184.6230  177.9260  139.1370 C   0  0  0  0  0  2  0  0  0  0  0  0
  184.7030  179.2820  139.7440 C   0  0  0  0  0  0  0  0  0  0  0  0
  185.0950  179.4300  141.0680 O   0  0  0  0  0  1  0  0  0  0  0  0
  184.3820  180.2940  139.0680 O   0  0  0  0  0  0  0  0  0  0  0  0
  1  8  1  0  0  0  0
  2  9  1  0  0  0  0
  3 10  1  1  0  0  0
  3  2  1  0  0  0  0
  3  9  1  0  0  0  0
  4  1  1  0  0  0  0
  5  1  2  0  0  0  0
  6  2  2  0  0  0  0
  6  7  1  0  0  0  0
  7  4  1  0  0  0  0
  8 13  1  6  0  0  0
  9 25  1  1  0  0  0
  9 12  1  0  0  0  0
 11  7  2  0  0  0  0
 12  8  1  0  0  0  0
 13 14  1  1  0  0  0
 13 15  1  0  0  0  0
 16 15  1  6  0  0  0
 16 17  1  0  0  0  0
 16 21  1  0  0  0  0
 17 20  1  0  0  0  0
 19 20  1  0  0  0  0
 20 18  1  1  0  0  0
 21 24  1  0  0  0  0
 23 24  2  0  0  0  0
 24 22  1  0  0  0  0
 26 25  1  0  0  0  0
 26 27  1  0  0  0  0
 27 28  1  0  0  0  0
 28 29  1  0  0  0  0
 30 28  2  0  0  0  0
M  END
>  <MODEL>
5

>  <REMARK>
 VINA RESULT:      -5.7      1.993      6.300
  Name = 
  11 active torsions:
  status: ('A' for Active; 'I' for Inactive)
    1  A    between atoms: C_1  and  C_4
    2  A    between atoms: C_1  and  C_22
    3  A    between atoms: C_4  and  C_12
    4  A    between atoms: C_7  and  C_23
    5  A    between atoms: C_7  and  C_25
    6  A    between atoms: C_8  and  C_12
    7  A    between atoms: C_8  and  C_30
    8  A    between atoms: C_9  and  C_12
    9  A    between atoms: C_9  and  C_21
   10  A    between atoms: C_10  and  C_15
   11  A    between atoms: C_15  and  C_25
                            x       y       z     vdW  Elec       q    Type
                         _______ _______ _______ _____ _____    ______ ____

>  <TORSDO>
F 11

$$$$
=
 OpenBabel11052412353D

 30 31  0  0  1  0  0  0  0  0999 V2000
  183.1690  177.3150  137.4900 C   0  0  0  0  0  0  0  0  0  0  0  0
  181.6460  177.7150  140.0390 C   0  0  0  0  0  0  0  0  0  0  0  0
  181.6390  179.0240  140.8440 C   0  0  1  0  0  3  0  0  0  0  0  0
  183.0090  176.0550  138.0710 O   0  0  0  0  0  0  0  0  0  0  0  0
  182.3900  177.6840  136.5710 O   0  0  0  0  0  0  0  0  0  0  0  0
  181.0540  176.6480  139.5160 C   0  0  0  0  0  3  0  0  0  0  0  0
  181.8210  175.6860  138.7110 C   0  0  0  0  0  0  0  0  0  0  0  0
  184.1640  178.2920  138.0430 C   0  0  1  0  0  3  0  0  0  0  0  0
  182.8900  178.5610  140.3040 C   0  0  2  0  0  0  0  0  0  0  0  0
  180.9450  180.1030  140.0230 C   0  0  0  0  0  1  0  0  0  0  0  0
  181.4140  174.5000  138.6210 O   0  0  0  0  0  0  0  0  0  0  0  0
  183.4920  179.2380  139.0540 C   0  0  0  0  0  2  0  0  0  0  0  0
  185.4490  177.6310  138.5760 C   0  0  1  0  0  3  0  0  0  0  0  0
  186.0390  176.6310  137.5930 C   0  0  0  0  0  1  0  0  0  0  0  0
  186.5070  178.6400  139.0720 C   0  0  0  0  0  2  0  0  0  0  0  0
  187.7080  178.0900  139.8600 C   0  0  2  0  0  3  0  0  0  0  0  0
  187.5680  178.2580  141.3690 C   0  0  0  0  0  2  0  0  0  0  0  0
  187.9350  176.5680  143.1730 C   0  0  0  0  0  1  0  0  0  0  0  0
  189.5390  178.2520  142.6970 O   0  0  0  0  0  1  0  0  0  0  0  0
  188.5980  177.4140  142.1010 C   0  0  2  0  0  3  0  0  0  0  0  0
  189.0380  178.6230  139.3490 C   0  0  0  0  0  2  0  0  0  0  0  0
  189.2500  177.4340  137.1670 O   0  0  0  0  0  0  0  0  0  0  0  0
  188.9090  179.7010  137.2250 O   0  0  0  0  0  1  0  0  0  0  0  0
  189.0720  178.6250  137.8580 C   0  0  0  0  0  0  0  0  0  0  0  0
  183.8260  177.9180  141.3230 C   0  0  0  0  0  2  0  0  0  0  0  0
  183.5900  178.4580  142.7260 C   0  0  0  0  0  2  0  0  0  0  0  0
  184.9020  178.8450  143.3840 C   0  0  0  0  0  2  0  0  0  0  0  0
  184.7120  178.9580  144.8560 C   0  0  0  0  0  0  0  0  0  0  0  0
  183.4320  179.0020  145.3910 O   0  0  0  0  0  0  0  0  0  0  0  0
  185.7130  179.0490  145.6130 O   0  0  0  0  0  1  0  0  0  0  0  0
  1  8  1  0  0  0  0
  1  4  1  0  0  0  0
  2  9  1  0  0  0  0
  2  3  1  0  0  0  0
  3 10  1  6  0  0  0
  4  7  1  0  0  0  0
  5  1  2  0  0  0  0
  6  2  2  0  0  0  0
  7  6  1  0  0  0  0
  8 13  1  1  0  0  0
  8 12  1  0  0  0  0
  9  3  1  0  0  0  0
  9 25  1  1  0  0  0
 11  7  2  0  0  0  0
 12  9  1  0  0  0  0
 13 14  1  6  0  0  0
 13 15  1  0  0  0  0
 16 15  1  6  0  0  0
 16 17  1  0  0  0  0
 17 20  1  0  0  0  0
 20 19  1  0  0  0  0
 20 18  1  1  0  0  0
 21 16  1  0  0  0  0
 22 24  2  0  0  0  0
 23 24  1  0  0  0  0
 24 21  1  0  0  0  0
 25 26  1  0  0  0  0
 26 27  1  0  0  0  0
 27 28  1  0  0  0  0
 28 29  2  0  0  0  0
 28 30  1  0  0  0  0
M  END
>  <MODEL>
6

>  <REMARK>
 VINA RESULT:      -5.3      2.991      7.126
  Name = 
  11 active torsions:
  status: ('A' for Active; 'I' for Inactive)
    1  A    between atoms: C_1  and  C_4
    2  A    between atoms: C_1  and  C_22
    3  A    between atoms: C_4  and  C_12
    4  A    between atoms: C_7  and  C_23
    5  A    between atoms: C_7  and  C_25
    6  A    between atoms: C_8  and  C_12
    7  A    between atoms: C_8  and  C_30
    8  A    between atoms: C_9  and  C_12
    9  A    between atoms: C_9  and  C_21
   10  A    between atoms: C_10  and  C_15
   11  A    between atoms: C_15  and  C_25
                            x       y       z     vdW  Elec       q    Type
                         _______ _______ _______ _____ _____    ______ ____

>  <TORSDO>
F 11

$$$$
=
 OpenBabel11052412353D

 30 31  0  0  1  0  0  0  0  0999 V2000
  181.2200  178.6510  141.1360 C   0  0  0  0  0  0  0  0  0  0  0  0
  182.2110  178.8630  138.3160 C   0  0  0  0  0  0  0  0  0  0  0  0
  183.0540  177.7870  137.6150 C   0  0  1  0  0  3  0  0  0  0  0  0
  181.3080  180.0130  140.8360 O   0  0  0  0  0  0  0  0  0  0  0  0
  180.1080  178.0650  141.0590 O   0  0  0  0  0  0  0  0  0  0  0  0
  181.2390  179.7670  138.3470 C   0  0  0  0  0  3  0  0  0  0  0  0
  180.9500  180.5130  139.5800 C   0  0  0  0  0  0  0  0  0  0  0  0
  182.4560  177.8470  141.4090 C   0  0  1  0  0  3  0  0  0  0  0  0
  183.3680  178.1180  138.9800 C   0  0  2  0  0  0  0  0  0  0  0  0
  182.2040  176.5350  137.4370 C   0  0  0  0  0  1  0  0  0  0  0  0
  180.3960  181.6400  139.5000 O   0  0  0  0  0  0  0  0  0  0  0  0
  182.9560  177.1650  140.1220 C   0  0  0  0  0  2  0  0  0  0  0  0
  183.5510  178.6280  142.1580 C   0  0  1  0  0  3  0  0  0  0  0  0
  183.0650  179.1750  143.4930 C   0  0  0  0  0  1  0  0  0  0  0  0
  184.8780  177.8540  142.3060 C   0  0  0  0  0  2  0  0  0  0  0  0
  185.8930  178.3620  143.3440 C   0  0  2  0  0  3  0  0  0  0  0  0
  187.2760  178.6240  142.7580 C   0  0  0  0  0  2  0  0  0  0  0  0
  189.4630  177.9810  143.7830 C   0  0  0  0  0  1  0  0  0  0  0  0
  188.5930  176.8480  141.8870 O   0  0  0  0  0  1  0  0  0  0  0  0
  188.2200  177.4750  143.0740 C   0  0  2  0  0  3  0  0  0  0  0  0
  185.9570  177.4780  144.5820 C   0  0  0  0  0  2  0  0  0  0  0  0
  185.2500  179.3470  146.0750 O   0  0  0  0  0  0  0  0  0  0  0  0
  187.0430  178.0290  146.6320 O   0  0  0  0  0  1  0  0  0  0  0  0
  186.1250  178.3010  145.8130 C   0  0  0  0  0  0  0  0  0  0  0  0
  184.6020  178.9970  139.1550 C   0  0  0  0  0  2  0  0  0  0  0  0
  185.7590  178.5270  138.2850 C   0  0  0  0  0  2  0  0  0  0  0  0
  186.9830  178.2220  139.1290 C   0  0  0  0  0  2  0  0  0  0  0  0
  188.2130  178.6190  138.3940 C   0  0  0  0  0  0  0  0  0  0  0  0
  189.4440  178.6010  139.0350 O   0  0  0  0  0  1  0  0  0  0  0  0
  188.1350  179.0040  137.1980 O   0  0  0  0  0  0  0  0  0  0  0  0
  1  8  1  0  0  0  0
  2  6  2  0  0  0  0
  2  9  1  0  0  0  0
  3 10  1  1  0  0  0
  3  2  1  0  0  0  0
  3  9  1  0  0  0  0
  4  1  1  0  0  0  0
  5  1  2  0  0  0  0
  6  7  1  0  0  0  0
  7  4  1  0  0  0  0
  8 13  1  6  0  0  0
  9 25  1  1  0  0  0
  9 12  1  0  0  0  0
 11  7  2  0  0  0  0
 12  8  1  0  0  0  0
 13 15  1  0  0  0  0
 13 14  1  1  0  0  0
 16 15  1  6  0  0  0
 16 21  1  0  0  0  0
 17 20  1  0  0  0  0
 17 16  1  0  0  0  0
 19 20  1  0  0  0  0
 20 18  1  6  0  0  0
 21 24  1  0  0  0  0
 24 22  2  0  0  0  0
 24 23  1  0  0  0  0
 26 27  1  0  0  0  0
 26 25  1  0  0  0  0
 28 29  1  0  0  0  0
 28 27  1  0  0  0  0
 30 28  2  0  0  0  0
M  END
>  <MODEL>
7

>  <REMARK>
 VINA RESULT:      -5.2      3.045      8.407
  Name = 
  11 active torsions:
  status: ('A' for Active; 'I' for Inactive)
    1  A    between atoms: C_1  and  C_4
    2  A    between atoms: C_1  and  C_22
    3  A    between atoms: C_4  and  C_12
    4  A    between atoms: C_7  and  C_23
    5  A    between atoms: C_7  and  C_25
    6  A    between atoms: C_8  and  C_12
    7  A    between atoms: C_8  and  C_30
    8  A    between atoms: C_9  and  C_12
    9  A    between atoms: C_9  and  C_21
   10  A    between atoms: C_10  and  C_15
   11  A    between atoms: C_15  and  C_25
                            x       y       z     vdW  Elec       q    Type
                         _______ _______ _______ _____ _____    ______ ____

>  <TORSDO>
F 11

$$$$
=
 OpenBabel11052412353D

 30 31  0  0  1  0  0  0  0  0999 V2000
  190.9160  176.4950  138.1310 C   0  0  0  0  0  0  0  0  0  0  0  0
  188.7260  176.0620  136.1330 C   0  0  0  0  0  0  0  0  0  0  0  0
  187.8420  177.1820  135.5650 C   0  0  1  0  0  3  0  0  0  0  0  0
  190.4820  175.1760  138.2820 O   0  0  0  0  0  0  0  0  0  0  0  0
  191.9490  176.7400  137.4520 O   0  0  0  0  0  0  0  0  0  0  0  0
  189.4450  174.9510  136.0170 C   0  0  0  0  0  3  0  0  0  0  0  0
  190.1410  174.3840  137.1810 C   0  0  0  0  0  0  0  0  0  0  0  0
  190.0900  177.6360  138.6460 C   0  0  1  0  0  3  0  0  0  0  0  0
  188.1380  177.1940  136.9730 C   0  0  2  0  0  0  0  0  0  0  0  0
  188.7060  178.1090  134.7190 C   0  0  0  0  0  1  0  0  0  0  0  0
  190.4060  173.1550  137.1990 O   0  0  0  0  0  0  0  0  0  0  0  0
  189.1750  178.1880  137.5380 C   0  0  0  0  0  2  0  0  0  0  0  0
  189.3490  177.3210  139.9590 C   0  0  1  0  0  3  0  0  0  0  0  0
  190.2800  176.7830  141.0360 C   0  0  0  0  0  1  0  0  0  0  0  0
  188.4840  178.4870  140.4800 C   0  0  0  0  0  2  0  0  0  0  0  0
  187.3690  178.1580  141.4870 C   0  0  2  0  0  3  0  0  0  0  0  0
  186.0960  178.9690  141.2660 C   0  0  0  0  0  2  0  0  0  0  0  0
  183.7390  178.1410  141.2120 C   0  0  0  0  0  1  0  0  0  0  0  0
  184.6060  179.3170  143.0840 O   0  0  0  0  0  1  0  0  0  0  0  0
  184.9500  178.4040  142.0890 C   0  0  2  0  0  3  0  0  0  0  0  0
  187.8440  178.2280  142.9320 C   0  0  0  0  0  2  0  0  0  0  0  0
  186.7790  176.9630  144.7980 O   0  0  0  0  0  1  0  0  0  0  0  0
  187.9920  175.8620  143.1930 O   0  0  0  0  0  0  0  0  0  0  0  0
  187.5570  176.9530  143.6480 C   0  0  0  0  0  0  0  0  0  0  0  0
  186.9970  176.7220  137.8690 C   0  0  0  0  0  2  0  0  0  0  0  0
  185.7330  177.5420  137.6530 C   0  0  0  0  0  2  0  0  0  0  0  0
  184.6440  176.7000  137.0130 C   0  0  0  0  0  2  0  0  0  0  0  0
  183.4460  176.6720  137.8950 C   0  0  0  0  0  0  0  0  0  0  0  0
  183.2140  175.5780  138.7190 O   0  0  0  0  0  1  0  0  0  0  0  0
  182.6250  177.6250  137.8710 O   0  0  0  0  0  0  0  0  0  0  0  0
  1  4  1  0  0  0  0
  1  8  1  0  0  0  0
  2  9  1  0  0  0  0
  3 10  1  6  0  0  0
  3  2  1  0  0  0  0
  3  9  1  0  0  0  0
  5  1  2  0  0  0  0
  6  2  2  0  0  0  0
  6  7  1  0  0  0  0
  7 11  2  0  0  0  0
  7  4  1  0  0  0  0
  8 13  1  1  0  0  0
  9 12  1  0  0  0  0
  9 25  1  1  0  0  0
 12  8  1  0  0  0  0
 13 15  1  0  0  0  0
 13 14  1  1  0  0  0
 16 15  1  6  0  0  0
 16 21  1  0  0  0  0
 17 16  1  0  0  0  0
 17 20  1  0  0  0  0
 20 18  1  6  0  0  0
 20 19  1  0  0  0  0
 21 24  1  0  0  0  0
 23 24  2  0  0  0  0
 24 22  1  0  0  0  0
 26 25  1  0  0  0  0
 27 26  1  0  0  0  0
 27 28  1  0  0  0  0
 28 29  1  0  0  0  0
 30 28  2  0  0  0  0
M  END
>  <MODEL>
8

>  <REMARK>
 VINA RESULT:      -5.1      2.315      6.345
  Name = 
  11 active torsions:
  status: ('A' for Active; 'I' for Inactive)
    1  A    between atoms: C_1  and  C_4
    2  A    between atoms: C_1  and  C_22
    3  A    between atoms: C_4  and  C_12
    4  A    between atoms: C_7  and  C_23
    5  A    between atoms: C_7  and  C_25
    6  A    between atoms: C_8  and  C_12
    7  A    between atoms: C_8  and  C_30
    8  A    between atoms: C_9  and  C_12
    9  A    between atoms: C_9  and  C_21
   10  A    between atoms: C_10  and  C_15
   11  A    between atoms: C_15  and  C_25
                            x       y       z     vdW  Elec       q    Type
                         _______ _______ _______ _____ _____    ______ ____

>  <TORSDO>
F 11

$$$$
=
 OpenBabel11052412353D

 30 31  0  0  1  0  0  0  0  0999 V2000
  180.7770  178.7100  140.4570 C   0  0  0  0  0  0  0  0  0  0  0  0
  182.2410  178.7840  137.8450 C   0  0  0  0  0  0  0  0  0  0  0  0
  183.1510  177.6570  137.3330 C   0  0  1  0  0  3  0  0  0  0  0  0
  180.9650  180.0560  140.1340 O   0  0  0  0  0  0  0  0  0  0  0  0
  179.6730  178.1560  140.2100 O   0  0  0  0  0  0  0  0  0  0  0  0
  181.3120  179.7190  137.6790 C   0  0  0  0  0  3  0  0  0  0  0  0
  180.8450  180.5200  138.8200 C   0  0  0  0  0  0  0  0  0  0  0  0
  181.9170  177.8790  140.9640 C   0  0  1  0  0  3  0  0  0  0  0  0
  183.2400  178.0290  138.7200 C   0  0  2  0  0  0  0  0  0  0  0  0
  182.2980  176.4270  137.0510 C   0  0  0  0  0  1  0  0  0  0  0  0
  180.3550  181.6590  138.6100 O   0  0  0  0  0  0  0  0  0  0  0  0
  182.6040  177.1340  139.8040 C   0  0  0  0  0  2  0  0  0  0  0  0
  182.8970  178.6530  141.8650 C   0  0  1  0  0  3  0  0  0  0  0  0
  182.1960  179.3420  143.0270 C   0  0  0  0  0  1  0  0  0  0  0  0
  184.1020  177.8150  142.3390 C   0  0  0  0  0  2  0  0  0  0  0  0
  185.3150  178.5650  142.9160 C   0  0  2  0  0  3  0  0  0  0  0  0
  184.9300  179.7050  143.8520 C   0  0  0  0  0  2  0  0  0  0  0  0
  186.1020  178.1150  145.3840 C   0  0  0  0  0  1  0  0  0  0  0  0
  183.9620  179.0020  145.9060 O   0  0  0  0  0  1  0  0  0  0  0  0
  185.1770  179.3170  145.3010 C   0  0  2  0  0  3  0  0  0  0  0  0
  186.2900  179.0170  141.8380 C   0  0  0  0  0  2  0  0  0  0  0  0
  188.6590  178.6220  141.1650 O   0  0  0  0  0  0  0  0  0  0  0  0
  187.6080  177.1850  142.6110 O   0  0  0  0  0  1  0  0  0  0  0  0
  187.5460  178.2150  141.8880 C   0  0  0  0  0  0  0  0  0  0  0  0
  184.4580  178.8760  139.0770 C   0  0  0  0  0  2  0  0  0  0  0  0
  185.5390  178.7880  138.0090 C   0  0  0  0  0  2  0  0  0  0  0  0
  186.5760  177.7410  138.3740 C   0  0  0  0  0  2  0  0  0  0  0  0
  187.8300  177.9880  137.6120 C   0  0  0  0  0  0  0  0  0  0  0  0
  188.2620  177.0690  136.6670 O   0  0  0  0  0  0  0  0  0  0  0  0
  188.5170  179.0160  137.8490 O   0  0  0  0  0  1  0  0  0  0  0  0
  1  8  1  0  0  0  0
  2  9  1  0  0  0  0
  3 10  1  1  0  0  0
  3  2  1  0  0  0  0
  3  9  1  0  0  0  0
  4  1  1  0  0  0  0
  5  1  2  0  0  0  0
  6  2  2  0  0  0  0
  6  7  1  0  0  0  0
  7  4  1  0  0  0  0
  8 13  1  6  0  0  0
  9 25  1  1  0  0  0
  9 12  1  0  0  0  0
 11  7  2  0  0  0  0
 12  8  1  0  0  0  0
 13 15  1  0  0  0  0
 13 14  1  1  0  0  0
 15 16  1  0  0  0  0
 16 21  1  6  0  0  0
 16 17  1  0  0  0  0
 17 20  1  0  0  0  0
 20 18  1  6  0  0  0
 20 19  1  0  0  0  0
 21 24  1  0  0  0  0
 22 24  2  0  0  0  0
 24 23  1  0  0  0  0
 26 27  1  0  0  0  0
 26 25  1  0  0  0  0
 28 30  1  0  0  0  0
 28 27  1  0  0  0  0
 29 28  2  0  0  0  0
M  END
>  <MODEL>
9

>  <REMARK>
 VINA RESULT:      -5.1      3.184      8.491
  Name = 
  11 active torsions:
  status: ('A' for Active; 'I' for Inactive)
    1  A    between atoms: C_1  and  C_4
    2  A    between atoms: C_1  and  C_22
    3  A    between atoms: C_4  and  C_12
    4  A    between atoms: C_7  and  C_23
    5  A    between atoms: C_7  and  C_25
    6  A    between atoms: C_8  and  C_12
    7  A    between atoms: C_8  and  C_30
    8  A    between atoms: C_9  and  C_12
    9  A    between atoms: C_9  and  C_21
   10  A    between atoms: C_10  and  C_15
   11  A    between atoms: C_15  and  C_25
                            x       y       z     vdW  Elec       q    Type
                         _______ _______ _______ _____ _____    ______ ____

>  <TORSDO>
F 11

$$$$
