=
 OpenBabel11052412413D

 25 27  0  0  1  0  0  0  0  0999 V2000
  187.1430  177.8350  146.0520 C   0  0  0  0  0  0  0  0  0  0  0  0
  188.3450  177.4230  145.4310 C   0  0  0  0  0  0  0  0  0  0  0  0
  188.2060  177.7030  148.1740 C   0  0  0  0  0  3  0  0  0  0  0  0
  189.3700  177.3170  147.5970 N   0  0  0  0  0  0  0  0  0  0  0  0
  190.6800  176.7520  145.6660 C   0  0  0  0  0  0  0  0  0  0  0  0
  191.8870  176.4820  146.4980 C   0  0  0  0  0  1  0  0  0  0  0  0
  188.4500  177.2330  144.0450 C   0  0  0  0  0  3  0  0  0  0  0  0
  187.1140  177.9540  147.4080 N   0  0  0  0  0  0  0  0  0  0  0  0
  190.7620  176.5800  144.2830 C   0  0  0  0  0  3  0  0  0  0  0  0
  189.6500  176.8150  143.4650 C   0  0  0  0  0  0  0  0  0  0  0  0
  189.4690  177.1670  146.2490 C   0  0  0  0  0  0  0  0  0  0  0  0
  185.9020  178.1470  145.2930 C   0  0  0  0  0  0  0  0  0  0  0  0
  183.5910  179.1350  143.9370 C   0  0  0  0  0  3  0  0  0  0  0  0
  184.6660  178.5670  145.9890 C   0  0  0  0  0  0  0  0  0  0  0  0
  183.5900  179.1340  145.2360 N   0  0  0  0  0  0  0  0  0  0  0  0
  184.6790  178.4660  143.1400 C   0  0  0  0  0  2  0  0  0  0  0  0
  184.5590  178.4590  147.2400 O   0  0  0  0  0  0  0  0  0  0  0  0
  185.9100  178.1730  143.9560 C   0  0  0  0  0  3  0  0  0  0  0  0
  189.7040  176.6430  142.0420 N   0  0  0  0  0  2  0  0  0  0  0  0
  189.2460  177.5680  141.0480 C   0  0  0  0  0  0  0  0  0  0  0  0
  188.7390  178.6750  141.3740 O   0  0  0  0  0  0  0  0  0  0  0  0
  189.0560  178.3780  138.6980 C   0  0  0  0  0  1  0  0  0  0  0  0
  189.3970  177.2070  139.6040 C   0  0  1  0  0  3  0  0  0  0  0  0
  190.7830  176.6480  139.2980 C   0  0  0  0  0  2  0  0  0  0  0  0
  190.6950  175.4210  138.6350 O   0  0  0  0  0  1  0  0  0  0  0  0
  1  8  1  0  0  0  0
  2  1  2  0  0  0  0
  2 11  1  0  0  0  0
  4  3  1  0  0  0  0
  5 11  1  0  0  0  0
  5  6  1  0  0  0  0
  7  2  1  0  0  0  0
  8  3  2  0  0  0  0
  9  5  2  0  0  0  0
 10  7  2  0  0  0  0
 10  9  1  0  0  0  0
 11  4  2  0  0  0  0
 12 14  1  0  0  0  0
 12  1  1  0  0  0  0
 13 15  2  0  0  0  0
 14 17  2  0  0  0  0
 15 14  1  0  0  0  0
 16 13  1  0  0  0  0
 16 18  1  0  0  0  0
 18 12  2  0  0  0  0
 19 10  1  0  0  0  0
 20 21  2  0  0  0  0
 20 19  1  0  0  0  0
 23 22  1  6  0  0  0
 23 20  1  0  0  0  0
 24 23  1  0  0  0  0
 25 24  1  0  0  0  0
M  END
>  <MODEL>
1

>  <REMARK>
 VINA RESULT:     -10.1      0.000      0.000
  Name = 
  4 active torsions:
  status: ('A' for Active; 'I' for Inactive)
    1  A    between atoms: C_1  and  C_5
    2  A    between atoms: C_2  and  C_21
    3  A    between atoms: N_6  and  C_23
    4  A    between atoms: C_15  and  C_21
                            x       y       z     vdW  Elec       q    Type
                         _______ _______ _______ _____ _____    ______ ____

>  <TORSDO>
F 4

$$$$
=
 OpenBabel11052412413D

 25 27  0  0  1  0  0  0  0  0999 V2000
  190.6960  176.9860  144.8140 C   0  0  0  0  0  0  0  0  0  0  0  0
  189.4380  177.3020  145.3770 C   0  0  0  0  0  0  0  0  0  0  0  0
  191.5830  176.6750  146.9970 C   0  0  0  0  0  3  0  0  0  0  0  0
  190.3820  176.9660  147.5550 N   0  0  0  0  0  0  0  0  0  0  0  0
  188.0730  177.5940  147.3790 C   0  0  0  0  0  0  0  0  0  0  0  0
  187.8980  177.5740  148.8600 C   0  0  0  0  0  1  0  0  0  0  0  0
  188.3310  177.6610  144.5940 C   0  0  0  0  0  3  0  0  0  0  0  0
  191.7300  176.6890  145.6480 N   0  0  0  0  0  0  0  0  0  0  0  0
  186.9830  177.9390  146.5770 C   0  0  0  0  0  3  0  0  0  0  0  0
  187.1040  177.9780  145.1820 C   0  0  0  0  0  0  0  0  0  0  0  0
  189.3080  177.2810  146.7850 C   0  0  0  0  0  0  0  0  0  0  0  0
  190.9470  176.9600  143.3480 C   0  0  0  0  0  0  0  0  0  0  0  0
  191.0500  177.0640  140.4960 C   0  0  0  0  0  3  0  0  0  0  0  0
  190.2530  175.9910  142.4720 C   0  0  0  0  0  0  0  0  0  0  0  0
  190.2870  176.1730  141.0530 N   0  0  0  0  0  0  0  0  0  0  0  0
  192.0110  177.9020  141.2950 C   0  0  0  0  0  2  0  0  0  0  0  0
  189.6080  175.0250  142.9580 O   0  0  0  0  0  0  0  0  0  0  0  0
  191.7130  177.8920  142.7710 C   0  0  0  0  0  3  0  0  0  0  0  0
  186.0040  178.3320  144.3340 N   0  0  0  0  0  2  0  0  0  0  0  0
  184.7360  178.8570  144.7470 C   0  0  0  0  0  0  0  0  0  0  0  0
  184.4850  179.0680  145.9650 O   0  0  0  0  0  0  0  0  0  0  0  0
  184.0630  178.5390  142.3680 C   0  0  0  0  0  1  0  0  0  0  0  0
  183.7120  179.1730  143.7040 C   0  0  1  0  0  3  0  0  0  0  0  0
  182.3040  178.7920  144.1510 C   0  0  0  0  0  2  0  0  0  0  0  0
  181.3420  179.3060  143.2770 O   0  0  0  0  0  1  0  0  0  0  0  0
  1  2  2  0  0  0  0
  1  8  1  0  0  0  0
  2 11  1  0  0  0  0
  3  4  1  0  0  0  0
  5  6  1  0  0  0  0
  7 10  2  0  0  0  0
  7  2  1  0  0  0  0
  8  3  2  0  0  0  0
  9  5  2  0  0  0  0
 10  9  1  0  0  0  0
 11  5  1  0  0  0  0
 11  4  2  0  0  0  0
 12  1  1  0  0  0  0
 13 15  2  0  0  0  0
 13 16  1  0  0  0  0
 14 17  2  0  0  0  0
 14 12  1  0  0  0  0
 15 14  1  0  0  0  0
 16 18  1  0  0  0  0
 18 12  2  0  0  0  0
 19 20  1  0  0  0  0
 19 10  1  0  0  0  0
 20 21  2  0  0  0  0
 23 22  1  6  0  0  0
 23 24  1  0  0  0  0
 23 20  1  0  0  0  0
 25 24  1  0  0  0  0
M  END
>  <MODEL>
2

>  <REMARK>
 VINA RESULT:     -10.0      1.909      6.025
  Name = 
  4 active torsions:
  status: ('A' for Active; 'I' for Inactive)
    1  A    between atoms: C_1  and  C_5
    2  A    between atoms: C_2  and  C_21
    3  A    between atoms: N_6  and  C_23
    4  A    between atoms: C_15  and  C_21
                            x       y       z     vdW  Elec       q    Type
                         _______ _______ _______ _____ _____    ______ ____

>  <TORSDO>
F 4

$$$$
=
 OpenBabel11052412413D

 25 27  0  0  1  0  0  0  0  0999 V2000
  187.1430  177.7410  145.9590 C   0  0  0  0  0  0  0  0  0  0  0  0
  188.3610  177.4090  145.3210 C   0  0  0  0  0  0  0  0  0  0  0  0
  188.1760  177.4220  148.0760 C   0  0  0  0  0  3  0  0  0  0  0  0
  189.3550  177.1120  147.4830 N   0  0  0  0  0  0  0  0  0  0  0  0
  190.7030  176.7550  145.5300 C   0  0  0  0  0  0  0  0  0  0  0  0
  191.9030  176.4240  146.3520 C   0  0  0  0  0  1  0  0  0  0  0  0
  188.4910  177.3550  143.9250 C   0  0  0  0  0  3  0  0  0  0  0  0
  187.0920  177.7290  147.3190 N   0  0  0  0  0  0  0  0  0  0  0  0
  190.8090  176.7180  144.1380 C   0  0  0  0  0  3  0  0  0  0  0  0
  189.7060  177.0140  143.3280 C   0  0  0  0  0  0  0  0  0  0  0  0
  189.4780  177.0940  146.1300 C   0  0  0  0  0  0  0  0  0  0  0  0
  185.9090  178.1060  145.2130 C   0  0  0  0  0  0  0  0  0  0  0  0
  183.6310  179.1930  143.8760 C   0  0  0  0  0  3  0  0  0  0  0  0
  184.7050  178.5920  145.9210 C   0  0  0  0  0  0  0  0  0  0  0  0
  183.6470  179.2040  145.1750 N   0  0  0  0  0  0  0  0  0  0  0  0
  184.6740  178.4640  143.0720 C   0  0  0  0  0  2  0  0  0  0  0  0
  184.6090  178.5020  147.1730 O   0  0  0  0  0  0  0  0  0  0  0  0
  185.9000  178.1190  143.8750 C   0  0  0  0  0  3  0  0  0  0  0  0
  189.7850  176.9800  141.8960 N   0  0  0  0  0  2  0  0  0  0  0  0
  189.1530  177.8840  140.9810 C   0  0  0  0  0  0  0  0  0  0  0  0
  188.4470  178.8430  141.3960 O   0  0  0  0  0  0  0  0  0  0  0  0
  190.3110  176.5320  139.2360 C   0  0  0  0  0  1  0  0  0  0  0  0
  189.3630  177.6870  139.5130 C   0  0  1  0  0  3  0  0  0  0  0  0
  188.0450  177.5200  138.7650 C   0  0  0  0  0  2  0  0  0  0  0  0
  187.6870  178.6990  138.1060 O   0  0  0  0  0  1  0  0  0  0  0  0
  1  8  1  0  0  0  0
  2  1  2  0  0  0  0
  2 11  1  0  0  0  0
  4  3  1  0  0  0  0
  5 11  1  0  0  0  0
  5  6  1  0  0  0  0
  7  2  1  0  0  0  0
  8  3  2  0  0  0  0
  9  5  2  0  0  0  0
 10  7  2  0  0  0  0
 10  9  1  0  0  0  0
 11  4  2  0  0  0  0
 12 14  1  0  0  0  0
 12  1  1  0  0  0  0
 13 15  2  0  0  0  0
 14 17  2  0  0  0  0
 15 14  1  0  0  0  0
 16 18  1  0  0  0  0
 16 13  1  0  0  0  0
 18 12  2  0  0  0  0
 19 10  1  0  0  0  0
 20 21  2  0  0  0  0
 20 19  1  0  0  0  0
 23 22  1  1  0  0  0
 23 20  1  0  0  0  0
 24 23  1  0  0  0  0
 25 24  1  0  0  0  0
M  END
>  <MODEL>
3

>  <REMARK>
 VINA RESULT:      -9.8      0.952      1.183
  Name = 
  4 active torsions:
  status: ('A' for Active; 'I' for Inactive)
    1  A    between atoms: C_1  and  C_5
    2  A    between atoms: C_2  and  C_21
    3  A    between atoms: N_6  and  C_23
    4  A    between atoms: C_15  and  C_21
                            x       y       z     vdW  Elec       q    Type
                         _______ _______ _______ _____ _____    ______ ____

>  <TORSDO>
F 4

$$$$
=
 OpenBabel11052412413D

 25 27  0  0  1  0  0  0  0  0999 V2000
  183.6730  178.4240  142.4390 C   0  0  0  0  0  0  0  0  0  0  0  0
  184.8060  178.2280  143.2630 C   0  0  0  0  0  0  0  0  0  0  0  0
  182.4810  179.2930  144.3020 C   0  0  0  0  0  3  0  0  0  0  0  0
  183.5590  179.1230  145.1060 N   0  0  0  0  0  0  0  0  0  0  0  0
  185.8220  178.4150  145.4750 C   0  0  0  0  0  0  0  0  0  0  0  0
  185.7660  178.8010  146.9140 C   0  0  0  0  0  1  0  0  0  0  0  0
  185.9960  177.6580  142.7860 C   0  0  0  0  0  3  0  0  0  0  0  0
  182.5440  178.9450  142.9920 N   0  0  0  0  0  0  0  0  0  0  0  0
  186.9990  177.8540  144.9730 C   0  0  0  0  0  3  0  0  0  0  0  0
  187.0930  177.4690  143.6300 C   0  0  0  0  0  0  0  0  0  0  0  0
  184.7170  178.5990  144.6250 C   0  0  0  0  0  0  0  0  0  0  0  0
  183.6560  178.0870  140.9910 C   0  0  0  0  0  0  0  0  0  0  0  0
  183.9890  177.2740  138.2730 C   0  0  0  0  0  3  0  0  0  0  0  0
  184.5380  178.7890  140.0330 C   0  0  0  0  0  0  0  0  0  0  0  0
  184.7130  178.2580  138.7160 N   0  0  0  0  0  0  0  0  0  0  0  0
  182.8640  176.6860  139.0810 C   0  0  0  0  0  2  0  0  0  0  0  0
  185.1600  179.8310  140.3690 O   0  0  0  0  0  0  0  0  0  0  0  0
  182.9300  177.0580  140.5390 C   0  0  0  0  0  3  0  0  0  0  0  0
  188.2860  176.8880  143.0890 N   0  0  0  0  0  2  0  0  0  0  0  0
  189.1430  177.4580  142.0910 C   0  0  0  0  0  0  0  0  0  0  0  0
  188.8980  178.5910  141.5940 O   0  0  0  0  0  0  0  0  0  0  0  0
  190.5410  176.7520  140.1520 C   0  0  0  0  0  1  0  0  0  0  0  0
  190.3540  176.6940  141.6590 C   0  0  1  0  0  3  0  0  0  0  0  0
  191.6090  177.1500  142.3960 C   0  0  0  0  0  2  0  0  0  0  0  0
  191.7310  176.5040  143.6300 O   0  0  0  0  0  1  0  0  0  0  0  0
  1  8  2  0  0  0  0
  1  2  1  0  0  0  0
  2 11  1  0  0  0  0
  3  4  2  0  0  0  0
  5  6  1  0  0  0  0
  7  2  2  0  0  0  0
  7 10  1  0  0  0  0
  8  3  1  0  0  0  0
  9  5  1  0  0  0  0
 10  9  2  0  0  0  0
 11  4  1  0  0  0  0
 11  5  2  0  0  0  0
 12  1  1  0  0  0  0
 13 15  2  0  0  0  0
 13 16  1  0  0  0  0
 14 17  2  0  0  0  0
 14 12  1  0  0  0  0
 15 14  1  0  0  0  0
 16 18  1  0  0  0  0
 18 12  2  0  0  0  0
 19 10  1  0  0  0  0
 20 19  1  0  0  0  0
 21 20  2  0  0  0  0
 23 22  1  6  0  0  0
 23 20  1  0  0  0  0
 23 24  1  0  0  0  0
 24 25  1  0  0  0  0
M  END
>  <MODEL>
4

>  <REMARK>
 VINA RESULT:      -9.4      2.756      4.874
  Name = 
  4 active torsions:
  status: ('A' for Active; 'I' for Inactive)
    1  A    between atoms: C_1  and  C_5
    2  A    between atoms: C_2  and  C_21
    3  A    between atoms: N_6  and  C_23
    4  A    between atoms: C_15  and  C_21
                            x       y       z     vdW  Elec       q    Type
                         _______ _______ _______ _____ _____    ______ ____

>  <TORSDO>
F 4

$$$$
=
 OpenBabel11052412413D

 25 27  0  0  1  0  0  0  0  0999 V2000
  187.6330  177.7790  144.6770 C   0  0  0  0  0  0  0  0  0  0  0  0
  186.6470  178.1260  143.7250 C   0  0  0  0  0  0  0  0  0  0  0  0
  186.0270  178.0110  146.4130 C   0  0  0  0  0  3  0  0  0  0  0  0
  185.0640  178.3360  145.5160 N   0  0  0  0  0  0  0  0  0  0  0  0
  184.3330  178.7570  143.2680 C   0  0  0  0  0  0  0  0  0  0  0  0
  182.9420  179.0490  143.7180 C   0  0  0  0  0  1  0  0  0  0  0  0
  186.9250  178.2320  142.3550 C   0  0  0  0  0  3  0  0  0  0  0  0
  187.2890  177.7400  145.9930 N   0  0  0  0  0  0  0  0  0  0  0  0
  184.6340  178.8450  141.9080 C   0  0  0  0  0  3  0  0  0  0  0  0
  185.9290  178.5880  141.4420 C   0  0  0  0  0  0  0  0  0  0  0  0
  185.3390  178.4040  144.1860 C   0  0  0  0  0  0  0  0  0  0  0  0
  189.0360  177.4510  144.3090 C   0  0  0  0  0  0  0  0  0  0  0  0
  191.6330  176.9540  143.2270 C   0  0  0  0  0  3  0  0  0  0  0  0
  189.3460  176.3030  143.4280 C   0  0  0  0  0  0  0  0  0  0  0  0
  190.6540  176.1830  142.8600 N   0  0  0  0  0  0  0  0  0  0  0  0
  191.4800  177.9640  144.3330 C   0  0  0  0  0  2  0  0  0  0  0  0
  188.4670  175.4460  143.1470 O   0  0  0  0  0  0  0  0  0  0  0  0
  190.0410  178.2580  144.6660 C   0  0  0  0  0  3  0  0  0  0  0  0
  186.2680  178.6750  140.0520 N   0  0  0  0  0  2  0  0  0  0  0  0
  187.4860  178.2360  139.4360 C   0  0  0  0  0  0  0  0  0  0  0  0
  188.4010  177.6970  140.1150 O   0  0  0  0  0  0  0  0  0  0  0  0
  189.1130  178.5360  137.5710 C   0  0  0  0  0  1  0  0  0  0  0  0
  187.6490  178.4080  137.9590 C   0  0  1  0  0  3  0  0  0  0  0  0
  186.9580  177.2980  137.1750 C   0  0  0  0  0  2  0  0  0  0  0  0
  187.6410  176.0860  137.3100 O   0  0  0  0  0  1  0  0  0  0  0  0
  1  8  1  0  0  0  0
  2 11  1  0  0  0  0
  2  1  2  0  0  0  0
  4  3  1  0  0  0  0
  5  6  1  0  0  0  0
  5 11  1  0  0  0  0
  7  2  1  0  0  0  0
  8  3  2  0  0  0  0
  9  5  2  0  0  0  0
 10  9  1  0  0  0  0
 10  7  2  0  0  0  0
 11  4  2  0  0  0  0
 12 18  2  0  0  0  0
 12  1  1  0  0  0  0
 13 16  1  0  0  0  0
 14 12  1  0  0  0  0
 15 13  2  0  0  0  0
 15 14  1  0  0  0  0
 16 18  1  0  0  0  0
 17 14  2  0  0  0  0
 19 10  1  0  0  0  0
 20 19  1  0  0  0  0
 20 21  2  0  0  0  0
 23 22  1  1  0  0  0
 23 20  1  0  0  0  0
 24 25  1  0  0  0  0
 24 23  1  0  0  0  0
M  END
>  <MODEL>
5

>  <REMARK>
 VINA RESULT:      -9.2      2.223      5.056
  Name = 
  4 active torsions:
  status: ('A' for Active; 'I' for Inactive)
    1  A    between atoms: C_1  and  C_5
    2  A    between atoms: C_2  and  C_21
    3  A    between atoms: N_6  and  C_23
    4  A    between atoms: C_15  and  C_21
                            x       y       z     vdW  Elec       q    Type
                         _______ _______ _______ _____ _____    ______ ____

>  <TORSDO>
F 4

$$$$
=
 OpenBabel11052412413D

 25 27  0  0  1  0  0  0  0  0999 V2000
  187.5090  177.8680  145.8540 C   0  0  0  0  0  0  0  0  0  0  0  0
  186.9390  178.1260  144.5860 C   0  0  0  0  0  0  0  0  0  0  0  0
  185.3880  178.2220  146.8680 C   0  0  0  0  0  3  0  0  0  0  0  0
  184.8210  178.4620  145.6600 N   0  0  0  0  0  0  0  0  0  0  0  0
  184.9580  178.6910  143.2750 C   0  0  0  0  0  0  0  0  0  0  0  0
  183.5040  179.0030  143.1670 C   0  0  0  0  0  1  0  0  0  0  0  0
  187.6960  178.1240  143.4050 C   0  0  0  0  0  3  0  0  0  0  0  0
  186.7110  177.9320  146.9560 N   0  0  0  0  0  0  0  0  0  0  0  0
  185.7320  178.6730  142.1130 C   0  0  0  0  0  3  0  0  0  0  0  0
  187.1030  178.3930  142.1690 C   0  0  0  0  0  0  0  0  0  0  0  0
  185.5580  178.4250  144.5180 C   0  0  0  0  0  0  0  0  0  0  0  0
  188.9430  177.5270  146.0450 C   0  0  0  0  0  0  0  0  0  0  0  0
  191.5650  176.5230  146.5750 C   0  0  0  0  0  3  0  0  0  0  0  0
  189.5490  177.5030  147.3940 C   0  0  0  0  0  0  0  0  0  0  0  0
  190.8330  176.8990  147.5800 N   0  0  0  0  0  0  0  0  0  0  0  0
  191.1500  176.7760  145.1500 C   0  0  0  0  0  2  0  0  0  0  0  0
  188.9380  177.9790  148.3880 O   0  0  0  0  0  0  0  0  0  0  0  0
  189.6890  177.1170  145.0140 C   0  0  0  0  0  3  0  0  0  0  0  0
  187.9220  178.3710  140.9920 N   0  0  0  0  0  2  0  0  0  0  0  0
  189.0530  177.5240  140.7490 C   0  0  0  0  0  0  0  0  0  0  0  0
  189.4240  176.6740  141.6040 O   0  0  0  0  0  0  0  0  0  0  0  0
  190.5490  176.3790  139.1170 C   0  0  0  0  0  1  0  0  0  0  0  0
  189.7790  177.6470  139.4480 C   0  0  1  0  0  3  0  0  0  0  0  0
  188.8470  178.0480  138.3090 C   0  0  0  0  0  2  0  0  0  0  0  0
  189.0560  179.3770  137.9320 O   0  0  0  0  0  1  0  0  0  0  0  0
  1 12  1  0  0  0  0
  1  8  1  0  0  0  0
  2  1  2  0  0  0  0
  3  8  2  0  0  0  0
  4  3  1  0  0  0  0
  5 11  1  0  0  0  0
  6  5  1  0  0  0  0
  7  2  1  0  0  0  0
  9 10  1  0  0  0  0
  9  5  2  0  0  0  0
 10  7  2  0  0  0  0
 11  2  1  0  0  0  0
 11  4  2  0  0  0  0
 12 14  1  0  0  0  0
 13 15  2  0  0  0  0
 14 15  1  0  0  0  0
 14 17  2  0  0  0  0
 16 13  1  0  0  0  0
 18 16  1  0  0  0  0
 18 12  2  0  0  0  0
 19 10  1  0  0  0  0
 20 19  1  0  0  0  0
 20 21  2  0  0  0  0
 23 22  1  6  0  0  0
 23 20  1  0  0  0  0
 24 23  1  0  0  0  0
 25 24  1  0  0  0  0
M  END
>  <MODEL>
6

>  <REMARK>
 VINA RESULT:      -9.2      1.646      4.664
  Name = 
  4 active torsions:
  status: ('A' for Active; 'I' for Inactive)
    1  A    between atoms: C_1  and  C_5
    2  A    between atoms: C_2  and  C_21
    3  A    between atoms: N_6  and  C_23
    4  A    between atoms: C_15  and  C_21
                            x       y       z     vdW  Elec       q    Type
                         _______ _______ _______ _____ _____    ______ ____

>  <TORSDO>
F 4

$$$$
=
 OpenBabel11052412413D

 25 27  0  0  1  0  0  0  0  0999 V2000
  187.8650  177.8190  144.8730 C   0  0  0  0  0  0  0  0  0  0  0  0
  186.6770  178.1760  144.1940 C   0  0  0  0  0  0  0  0  0  0  0  0
  186.7070  177.9460  146.9450 C   0  0  0  0  0  3  0  0  0  0  0  0
  185.5560  178.2790  146.3120 N   0  0  0  0  0  0  0  0  0  0  0  0
  184.3110  178.7630  144.3180 C   0  0  0  0  0  0  0  0  0  0  0  0
  183.0590  179.0020  145.0930 C   0  0  0  0  0  1  0  0  0  0  0  0
  186.6240  178.3390  142.8020 C   0  0  0  0  0  3  0  0  0  0  0  0
  187.8400  177.7230  146.2310 N   0  0  0  0  0  0  0  0  0  0  0  0
  184.2820  178.9090  142.9300 C   0  0  0  0  0  3  0  0  0  0  0  0
  185.4360  178.7020  142.1640 C   0  0  0  0  0  0  0  0  0  0  0  0
  185.5090  178.4030  144.9590 C   0  0  0  0  0  0  0  0  0  0  0  0
  189.1470  177.5410  144.1740 C   0  0  0  0  0  0  0  0  0  0  0  0
  191.4170  177.1270  142.4900 C   0  0  0  0  0  3  0  0  0  0  0  0
  189.2840  176.3860  143.2600 C   0  0  0  0  0  0  0  0  0  0  0  0
  190.4150  176.3070  142.3870 N   0  0  0  0  0  0  0  0  0  0  0  0
  191.4950  178.1570  143.5840 C   0  0  0  0  0  2  0  0  0  0  0  0
  188.4040  175.4860  143.2170 O   0  0  0  0  0  0  0  0  0  0  0  0
  190.1700  178.3990  144.2590 C   0  0  0  0  0  3  0  0  0  0  0  0
  185.4370  178.8490  140.7380 N   0  0  0  0  0  2  0  0  0  0  0  0
  184.5040  178.2720  139.8150 C   0  0  0  0  0  0  0  0  0  0  0  0
  183.5470  177.5580  140.2190 O   0  0  0  0  0  0  0  0  0  0  0  0
  186.0840  178.2490  137.8870 C   0  0  0  0  0  1  0  0  0  0  0  0
  184.6700  178.5500  138.3540 C   0  0  1  0  0  3  0  0  0  0  0  0
  183.6340  177.8140  137.5120 C   0  0  0  0  0  2  0  0  0  0  0  0
  184.1080  176.5620  137.1110 O   0  0  0  0  0  1  0  0  0  0  0  0
  1  8  1  0  0  0  0
  2  1  2  0  0  0  0
  2 11  1  0  0  0  0
  4  3  1  0  0  0  0
  5 11  1  0  0  0  0
  5  6  1  0  0  0  0
  7  2  1  0  0  0  0
  8  3  2  0  0  0  0
  9  5  2  0  0  0  0
 10  7  2  0  0  0  0
 10  9  1  0  0  0  0
 11  4  2  0  0  0  0
 12 18  2  0  0  0  0
 12  1  1  0  0  0  0
 13 16  1  0  0  0  0
 14 12  1  0  0  0  0
 15 13  2  0  0  0  0
 15 14  1  0  0  0  0
 16 18  1  0  0  0  0
 17 14  2  0  0  0  0
 19 10  1  0  0  0  0
 20 21  2  0  0  0  0
 20 19  1  0  0  0  0
 23 22  1  6  0  0  0
 23 20  1  0  0  0  0
 24 23  1  0  0  0  0
 25 24  1  0  0  0  0
M  END
>  <MODEL>
7

>  <REMARK>
 VINA RESULT:      -9.1      2.894      5.502
  Name = 
  4 active torsions:
  status: ('A' for Active; 'I' for Inactive)
    1  A    between atoms: C_1  and  C_5
    2  A    between atoms: C_2  and  C_21
    3  A    between atoms: N_6  and  C_23
    4  A    between atoms: C_15  and  C_21
                            x       y       z     vdW  Elec       q    Type
                         _______ _______ _______ _____ _____    ______ ____

>  <TORSDO>
F 4

$$$$
=
 OpenBabel11052412413D

 25 27  0  0  1  0  0  0  0  0999 V2000
  187.1430  178.2160  141.0000 C   0  0  0  0  0  0  0  0  0  0  0  0
  186.5680  178.2430  142.2920 C   0  0  0  0  0  0  0  0  0  0  0  0
  185.1100  179.0430  140.0880 C   0  0  0  0  0  3  0  0  0  0  0  0
  184.5440  179.0870  141.3190 N   0  0  0  0  0  0  0  0  0  0  0  0
  184.6290  178.7340  143.6910 C   0  0  0  0  0  0  0  0  0  0  0  0
  183.2280  179.2130  143.8670 C   0  0  0  0  0  1  0  0  0  0  0  0
  187.2590  177.8130  143.4340 C   0  0  0  0  0  3  0  0  0  0  0  0
  186.3880  178.6120  139.9380 N   0  0  0  0  0  0  0  0  0  0  0  0
  185.3420  178.3090  144.8140 C   0  0  0  0  0  3  0  0  0  0  0  0
  186.6570  177.8430  144.6940 C   0  0  0  0  0  0  0  0  0  0  0  0
  185.2340  178.6970  142.4230 C   0  0  0  0  0  0  0  0  0  0  0  0
  188.5390  177.7750  140.7430 C   0  0  0  0  0  0  0  0  0  0  0  0
  191.2590  177.2690  140.0280 C   0  0  0  0  0  3  0  0  0  0  0  0
  188.9550  177.2970  139.4060 C   0  0  0  0  0  0  0  0  0  0  0  0
  190.3480  177.1560  139.1090 N   0  0  0  0  0  0  0  0  0  0  0  0
  190.9060  177.4690  141.4780 C   0  0  0  0  0  2  0  0  0  0  0  0
  188.1020  177.0400  138.5150 O   0  0  0  0  0  0  0  0  0  0  0  0
  189.4820  177.9140  141.6810 C   0  0  0  0  0  3  0  0  0  0  0  0
  187.4110  177.3970  145.8290 N   0  0  0  0  0  2  0  0  0  0  0  0
  188.8020  177.6340  146.0820 C   0  0  0  0  0  0  0  0  0  0  0  0
  189.5040  178.3050  145.2770 O   0  0  0  0  0  0  0  0  0  0  0  0
  190.8440  176.6410  147.1100 C   0  0  0  0  0  1  0  0  0  0  0  0
  189.4100  177.0880  147.3350 C   0  0  1  0  0  3  0  0  0  0  0  0
  189.3070  178.0730  148.4950 C   0  0  0  0  0  2  0  0  0  0  0  0
  188.0440  178.0170  149.0920 O   0  0  0  0  0  1  0  0  0  0  0  0
  1  2  1  0  0  0  0
  2 11  2  0  0  0  0
  2  7  1  0  0  0  0
  3  4  2  0  0  0  0
  4 11  1  0  0  0  0
  5  6  1  0  0  0  0
  5  9  2  0  0  0  0
  7 10  2  0  0  0  0
  8  3  1  0  0  0  0
  8  1  2  0  0  0  0
 10  9  1  0  0  0  0
 10 19  1  0  0  0  0
 11  5  1  0  0  0  0
 12  1  1  0  0  0  0
 12 18  2  0  0  0  0
 13 16  1  0  0  0  0
 14 12  1  0  0  0  0
 15 14  1  0  0  0  0
 15 13  2  0  0  0  0
 16 18  1  0  0  0  0
 17 14  2  0  0  0  0
 19 20  1  0  0  0  0
 20 23  1  0  0  0  0
 21 20  2  0  0  0  0
 23 22  1  6  0  0  0
 23 24  1  0  0  0  0
 24 25  1  0  0  0  0
M  END
>  <MODEL>
8

>  <REMARK>
 VINA RESULT:      -9.0      2.211      7.131
  Name = 
  4 active torsions:
  status: ('A' for Active; 'I' for Inactive)
    1  A    between atoms: C_1  and  C_5
    2  A    between atoms: C_2  and  C_21
    3  A    between atoms: N_6  and  C_23
    4  A    between atoms: C_15  and  C_21
                            x       y       z     vdW  Elec       q    Type
                         _______ _______ _______ _____ _____    ______ ____

>  <TORSDO>
F 4

$$$$
=
 OpenBabel11052412413D

 25 27  0  0  1  0  0  0  0  0999 V2000
  187.4420  177.8050  145.9270 C   0  0  0  0  0  0  0  0  0  0  0  0
  188.8030  177.5930  145.6090 C   0  0  0  0  0  0  0  0  0  0  0  0
  187.8570  177.0740  148.1500 C   0  0  0  0  0  3  0  0  0  0  0  0
  189.1670  176.8750  147.8680 N   0  0  0  0  0  0  0  0  0  0  0  0
  191.0230  176.8920  146.3450 C   0  0  0  0  0  0  0  0  0  0  0  0
  191.9590  176.3980  147.3950 C   0  0  0  0  0  1  0  0  0  0  0  0
  189.3200  177.8100  144.3230 C   0  0  0  0  0  3  0  0  0  0  0  0
  187.0130  177.5310  147.1890 N   0  0  0  0  0  0  0  0  0  0  0  0
  191.5140  177.1250  145.0590 C   0  0  0  0  0  3  0  0  0  0  0  0
  190.6680  177.5800  144.0400 C   0  0  0  0  0  0  0  0  0  0  0  0
  189.6640  177.1180  146.6260 C   0  0  0  0  0  0  0  0  0  0  0  0
  186.4490  178.3170  144.9450 C   0  0  0  0  0  0  0  0  0  0  0  0
  184.3290  178.9630  143.1430 C   0  0  0  0  0  3  0  0  0  0  0  0
  186.2730  177.6670  143.6280 C   0  0  0  0  0  0  0  0  0  0  0  0
  185.1300  177.9900  142.8290 N   0  0  0  0  0  0  0  0  0  0  0  0
  184.5960  179.8680  144.3150 C   0  0  0  0  0  2  0  0  0  0  0  0
  187.0980  176.8110  143.2120 O   0  0  0  0  0  0  0  0  0  0  0  0
  185.6080  179.3030  145.2770 C   0  0  0  0  0  3  0  0  0  0  0  0
  191.1450  177.8240  142.7100 N   0  0  0  0  0  2  0  0  0  0  0  0
  190.8780  177.0320  141.5450 C   0  0  0  0  0  0  0  0  0  0  0  0
  190.1500  176.0050  141.6090 O   0  0  0  0  0  0  0  0  0  0  0  0
  192.9820  177.3980  140.2590 C   0  0  0  0  0  1  0  0  0  0  0  0
  191.4640  177.4580  140.2360 C   0  0  1  0  0  3  0  0  0  0  0  0
  190.8910  176.6610  139.0680 C   0  0  0  0  0  2  0  0  0  0  0  0
  189.7810  177.3070  138.5150 O   0  0  0  0  0  1  0  0  0  0  0  0
  1  8  1  0  0  0  0
  2  1  2  0  0  0  0
  2 11  1  0  0  0  0
  4  3  1  0  0  0  0
  5 11  1  0  0  0  0
  5  6  1  0  0  0  0
  7  2  1  0  0  0  0
  8  3  2  0  0  0  0
  9  5  2  0  0  0  0
 10  7  2  0  0  0  0
 10  9  1  0  0  0  0
 11  4  2  0  0  0  0
 12 18  2  0  0  0  0
 12  1  1  0  0  0  0
 13 16  1  0  0  0  0
 14 12  1  0  0  0  0
 15 13  2  0  0  0  0
 15 14  1  0  0  0  0
 16 18  1  0  0  0  0
 17 14  2  0  0  0  0
 19 10  1  0  0  0  0
 20 21  2  0  0  0  0
 20 19  1  0  0  0  0
 23 22  1  1  0  0  0
 23 20  1  0  0  0  0
 24 23  1  0  0  0  0
 25 24  1  0  0  0  0
M  END
>  <MODEL>
9

>  <REMARK>
 VINA RESULT:      -8.9      1.749      2.038
  Name = 
  4 active torsions:
  status: ('A' for Active; 'I' for Inactive)
    1  A    between atoms: C_1  and  C_5
    2  A    between atoms: C_2  and  C_21
    3  A    between atoms: N_6  and  C_23
    4  A    between atoms: C_15  and  C_21
                            x       y       z     vdW  Elec       q    Type
                         _______ _______ _______ _____ _____    ______ ____

>  <TORSDO>
F 4

$$$$
