=
 OpenBabel11052413263D

 28 31  0  0  1  0  0  0  0  0999 V2000
  187.9110  177.1740  145.0000 C   0  0  1  0  0  3  0  0  0  0  0  0
  185.4180  179.1260  147.6810 O   0  0  0  0  0  0  0  0  0  0  0  0
  185.4230  178.8450  142.6140 C   0  0  2  0  0  3  0  0  0  0  0  0
  185.8610  178.5460  145.4170 C   0  0  0  0  0  0  0  0  0  0  0  0
  186.3290  177.8940  143.1860 O   0  0  0  0  0  0  0  0  0  0  0  0
  187.4170  177.9260  147.3270 C   0  0  0  0  0  3  0  0  0  0  0  0
  184.6130  179.1580  144.9230 C   0  0  0  0  0  3  0  0  0  0  0  0
  186.1840  178.5620  146.8550 C   0  0  0  0  0  0  0  0  0  0  0  0
  184.3770  179.2630  143.6150 C   0  0  0  0  0  3  0  0  0  0  0  0
  188.2230  177.2950  146.4720 C   0  0  0  0  0  3  0  0  0  0  0  0
  186.6700  177.9150  144.5460 C   0  0  0  0  0  0  0  0  0  0  0  0
  183.2690  178.4130  141.4080 C   0  0  0  0  0  2  0  0  0  0  0  0
  184.4080  178.9580  138.8670 C   0  0  0  0  0  2  0  0  0  0  0  0
  182.8700  176.9880  139.3460 C   0  0  0  0  0  0  0  0  0  0  0  0
  184.7910  178.3020  141.3280 C   0  0  1  0  0  3  0  0  0  0  0  0
  186.5970  178.6120  139.7640 O   0  0  0  0  0  1  0  0  0  0  0  0
  184.0470  177.5090  138.5600 C   0  0  0  0  0  2  0  0  0  0  0  0
  185.3180  179.0620  140.0950 C   0  0  1  0  0  3  0  0  0  0  0  0
  182.0990  175.9500  138.7580 N   0  0  0  0  0  1  0  0  0  0  0  0
  182.5850  177.3430  140.6080 C   0  0  0  0  0  3  0  0  0  0  0  0
  189.1060  177.5260  144.1630 C   0  0  0  0  0  0  0  0  0  0  0  0
  190.0390  178.4280  144.6780 C   0  0  0  0  0  3  0  0  0  0  0  0
  190.4590  177.3240  142.1660 C   0  0  0  0  0  0  0  0  0  0  0  0
  191.1650  178.7590  143.9220 C   0  0  0  0  0  3  0  0  0  0  0  0
  188.4270  176.0810  142.3670 F   0  0  0  0  0  0  0  0  0  0  0  0
  189.3160  176.9650  142.8910 C   0  0  0  0  0  0  0  0  0  0  0  0
  190.7570  176.6430  140.5770 Cl  0  0  0  0  0  0  0  0  0  0  0  0
  191.3500  178.2060  142.6940 N   0  0  0  0  0  0  0  0  0  0  0  0
  1 21  1  6  0  0  0
  1 10  1  0  0  0  0
  3  5  1  0  0  0  0
  3  9  1  1  0  0  0
  4  8  1  0  0  0  0
  5 11  1  0  0  0  0
  7  4  1  0  0  0  0
  8  6  1  0  0  0  0
  8  2  2  0  0  0  0
  9  7  2  0  0  0  0
 10  6  2  0  0  0  0
 11  1  1  0  0  0  0
 11  4  2  0  0  0  0
 13 18  1  0  0  0  0
 14 20  2  0  0  0  0
 15 12  1  1  0  0  0
 15  3  1  0  0  0  0
 17 13  1  0  0  0  0
 17 14  1  0  0  0  0
 18 16  1  6  0  0  0
 18 15  1  0  0  0  0
 19 14  1  0  0  0  0
 20 12  1  0  0  0  0
 21 22  1  0  0  0  0
 23 28  2  0  0  0  0
 23 26  1  0  0  0  0
 24 22  2  0  0  0  0
 25 26  1  0  0  0  0
 26 21  2  0  0  0  0
 27 23  1  0  0  0  0
 28 24  1  0  0  0  0
M  END
>  <MODEL>
1

>  <REMARK>
 VINA RESULT:     -10.4      0.000      0.000
  Name = 
  2 active torsions:
  status: ('A' for Active; 'I' for Inactive)
    1  A    between atoms: C_1  and  C_2
    2  A    between atoms: C_10  and  C_13
                            x       y       z     vdW  Elec       q    Type
                         _______ _______ _______ _____ _____    ______ ____

>  <TORSDO>
F 2

$$$$
=
 OpenBabel11052413263D

 28 31  0  0  1  0  0  0  0  0999 V2000
  187.5800  176.8920  145.0000 C   0  0  1  0  0  3  0  0  0  0  0  0
  185.3700  179.3440  147.5130 O   0  0  0  0  0  0  0  0  0  0  0  0
  185.4210  178.7880  142.4680 C   0  0  2  0  0  3  0  0  0  0  0  0
  185.7580  178.5810  145.2940 C   0  0  0  0  0  0  0  0  0  0  0  0
  186.1600  177.7440  143.1120 O   0  0  0  0  0  0  0  0  0  0  0  0
  187.1670  177.8370  147.2720 C   0  0  0  0  0  3  0  0  0  0  0  0
  184.6270  179.3480  144.7360 C   0  0  0  0  0  3  0  0  0  0  0  0
  186.0540  178.6260  146.7370 C   0  0  0  0  0  0  0  0  0  0  0  0
  184.4330  179.4150  143.4190 C   0  0  0  0  0  3  0  0  0  0  0  0
  187.8810  177.0440  146.4720 C   0  0  0  0  0  3  0  0  0  0  0  0
  186.4760  177.7870  144.4780 C   0  0  0  0  0  0  0  0  0  0  0  0
  183.2190  178.3980  141.3370 C   0  0  0  0  0  2  0  0  0  0  0  0
  184.2640  178.9910  138.7660 C   0  0  0  0  0  2  0  0  0  0  0  0
  182.7300  177.0220  139.2610 C   0  0  0  0  0  0  0  0  0  0  0  0
  184.7360  178.2780  141.1960 C   0  0  1  0  0  3  0  0  0  0  0  0
  186.4830  178.6100  139.5710 O   0  0  0  0  0  1  0  0  0  0  0  0
  183.8800  177.5510  138.4420 C   0  0  0  0  0  2  0  0  0  0  0  0
  185.2210  179.0620  139.9600 C   0  0  1  0  0  3  0  0  0  0  0  0
  181.9290  176.0020  138.6810 N   0  0  0  0  0  1  0  0  0  0  0  0
  182.4960  177.3510  140.5400 C   0  0  0  0  0  3  0  0  0  0  0  0
  188.8290  177.0120  144.1780 C   0  0  0  0  0  0  0  0  0  0  0  0
  189.0250  176.1150  143.1250 C   0  0  0  0  0  3  0  0  0  0  0  0
  190.9310  178.0720  143.6140 C   0  0  0  0  0  0  0  0  0  0  0  0
  190.1730  176.2170  142.3390 C   0  0  0  0  0  3  0  0  0  0  0  0
  189.6280  178.8930  145.4410 F   0  0  0  0  0  0  0  0  0  0  0  0
  189.7940  178.0050  144.4270 C   0  0  0  0  0  0  0  0  0  0  0  0
  192.1550  179.2970  143.8920 Cl  0  0  0  0  0  0  0  0  0  0  0  0
  191.0940  177.1840  142.5960 N   0  0  0  0  0  0  0  0  0  0  0  0
  1 21  1  6  0  0  0
  1 10  1  0  0  0  0
  3  5  1  0  0  0  0
  3  9  1  1  0  0  0
  4  8  1  0  0  0  0
  5 11  1  0  0  0  0
  7  4  1  0  0  0  0
  8  6  1  0  0  0  0
  8  2  2  0  0  0  0
  9  7  2  0  0  0  0
 10  6  2  0  0  0  0
 11  1  1  0  0  0  0
 11  4  2  0  0  0  0
 13 18  1  0  0  0  0
 14 20  2  0  0  0  0
 15 12  1  1  0  0  0
 15  3  1  0  0  0  0
 17 13  1  0  0  0  0
 17 14  1  0  0  0  0
 18 16  1  6  0  0  0
 18 15  1  0  0  0  0
 19 14  1  0  0  0  0
 20 12  1  0  0  0  0
 21 26  1  0  0  0  0
 22 21  2  0  0  0  0
 23 27  1  0  0  0  0
 23 26  2  0  0  0  0
 24 28  2  0  0  0  0
 24 22  1  0  0  0  0
 26 25  1  0  0  0  0
 28 23  1  0  0  0  0
M  END
>  <MODEL>
2

>  <REMARK>
 VINA RESULT:      -9.8      1.260      1.543
  Name = 
  2 active torsions:
  status: ('A' for Active; 'I' for Inactive)
    1  A    between atoms: C_1  and  C_2
    2  A    between atoms: C_10  and  C_13
                            x       y       z     vdW  Elec       q    Type
                         _______ _______ _______ _____ _____    ______ ____

>  <TORSDO>
F 2

$$$$
=
 OpenBabel11052413263D

 28 31  0  0  1  0  0  0  0  0999 V2000
  188.8380  176.8250  145.5530 C   0  0  1  0  0  3  0  0  0  0  0  0
  187.6540  178.2260  149.2750 O   0  0  0  0  0  0  0  0  0  0  0  0
  185.8320  179.0010  144.6010 C   0  0  2  0  0  3  0  0  0  0  0  0
  187.2070  178.1200  146.9410 C   0  0  0  0  0  0  0  0  0  0  0  0
  186.7890  177.9350  144.6150 O   0  0  0  0  0  0  0  0  0  0  0  0
  189.2760  177.0880  147.9950 C   0  0  0  0  0  3  0  0  0  0  0  0
  185.9280  178.8450  147.0620 C   0  0  0  0  0  3  0  0  0  0  0  0
  188.0210  177.8310  148.1360 C   0  0  0  0  0  0  0  0  0  0  0  0
  185.2530  179.2220  145.9760 C   0  0  0  0  0  3  0  0  0  0  0  0
  189.6620  176.6320  146.8030 C   0  0  0  0  0  3  0  0  0  0  0  0
  187.5910  177.6670  145.7330 C   0  0  0  0  0  0  0  0  0  0  0  0
  183.5450  179.6670  143.8240 C   0  0  0  0  0  2  0  0  0  0  0  0
  184.1840  179.2380  141.0930 C   0  0  0  0  0  2  0  0  0  0  0  0
  182.0200  178.4690  142.1880 C   0  0  0  0  0  0  0  0  0  0  0  0
  184.7360  178.7480  143.5610 C   0  0  1  0  0  3  0  0  0  0  0  0
  186.0360  177.8680  141.7330 O   0  0  0  0  0  1  0  0  0  0  0  0
  183.0810  178.1860  141.1550 C   0  0  0  0  0  2  0  0  0  0  0  0
  185.2750  178.9680  142.1330 C   0  0  1  0  0  3  0  0  0  0  0  0
  180.7180  177.9510  141.9470 N   0  0  0  0  0  1  0  0  0  0  0  0
  182.2510  179.0540  143.3720 C   0  0  0  0  0  3  0  0  0  0  0  0
  189.6840  177.3200  144.4180 C   0  0  0  0  0  0  0  0  0  0  0  0
  190.6490  178.2950  144.6790 C   0  0  0  0  0  3  0  0  0  0  0  0
  190.3750  177.3140  142.0980 C   0  0  0  0  0  0  0  0  0  0  0  0
  191.4570  178.7600  143.6400 C   0  0  0  0  0  3  0  0  0  0  0  0
  188.6170  175.8680  142.8280 F   0  0  0  0  0  0  0  0  0  0  0  0
  189.5440  176.8200  143.1110 C   0  0  0  0  0  0  0  0  0  0  0  0
  190.2310  176.7140  140.4560 Cl  0  0  0  0  0  0  0  0  0  0  0  0
  191.3050  178.2640  142.3830 N   0  0  0  0  0  0  0  0  0  0  0  0
  1 21  1  6  0  0  0
  1 11  1  0  0  0  0
  1 10  1  0  0  0  0
  3  5  1  0  0  0  0
  3  9  1  1  0  0  0
  4  7  1  0  0  0  0
  4  8  1  0  0  0  0
  5 11  1  0  0  0  0
  6  8  1  0  0  0  0
  8  2  2  0  0  0  0
  9  7  2  0  0  0  0
 10  6  2  0  0  0  0
 11  4  2  0  0  0  0
 13 17  1  0  0  0  0
 13 18  1  0  0  0  0
 14 20  2  0  0  0  0
 15 12  1  1  0  0  0
 15  3  1  0  0  0  0
 17 14  1  0  0  0  0
 18 16  1  6  0  0  0
 18 15  1  0  0  0  0
 19 14  1  0  0  0  0
 20 12  1  0  0  0  0
 21 22  1  0  0  0  0
 23 28  2  0  0  0  0
 23 26  1  0  0  0  0
 24 22  2  0  0  0  0
 25 26  1  0  0  0  0
 26 21  2  0  0  0  0
 27 23  1  0  0  0  0
 28 24  1  0  0  0  0
M  END
>  <MODEL>
3

>  <REMARK>
 VINA RESULT:      -9.5      1.506      2.092
  Name = 
  2 active torsions:
  status: ('A' for Active; 'I' for Inactive)
    1  A    between atoms: C_1  and  C_2
    2  A    between atoms: C_10  and  C_13
                            x       y       z     vdW  Elec       q    Type
                         _______ _______ _______ _____ _____    ______ ____

>  <TORSDO>
F 2

$$$$
=
 OpenBabel11052413263D

 28 31  0  0  1  0  0  0  0  0999 V2000
  187.5070  177.1600  144.9420 C   0  0  1  0  0  3  0  0  0  0  0  0
  184.0700  179.4830  144.8830 O   0  0  0  0  0  0  0  0  0  0  0  0
  187.5460  178.4430  141.3330 C   0  0  2  0  0  3  0  0  0  0  0  0
  185.8910  178.5710  143.6550 C   0  0  0  0  0  0  0  0  0  0  0  0
  187.7010  177.5930  142.4760 O   0  0  0  0  0  0  0  0  0  0  0  0
  185.6220  178.2510  146.1610 C   0  0  0  0  0  3  0  0  0  0  0  0
  185.4020  179.0970  142.3660 C   0  0  0  0  0  3  0  0  0  0  0  0
  185.1310  178.8040  144.8960 C   0  0  0  0  0  0  0  0  0  0  0  0
  186.1480  179.0030  141.2640 C   0  0  0  0  0  3  0  0  0  0  0  0
  186.7250  177.5020  146.1890 C   0  0  0  0  0  3  0  0  0  0  0  0
  187.0070  177.8200  143.6730 C   0  0  0  0  0  0  0  0  0  0  0  0
  187.1050  178.2540  138.8740 C   0  0  0  0  0  2  0  0  0  0  0  0
  189.8080  177.6190  138.2860 C   0  0  0  0  0  2  0  0  0  0  0  0
  187.8090  176.4090  137.2800 C   0  0  0  0  0  0  0  0  0  0  0  0
  187.9260  177.7110  140.0420 C   0  0  1  0  0  3  0  0  0  0  0  0
  190.1650  176.9950  140.5660 O   0  0  0  0  0  1  0  0  0  0  0  0
  189.2310  176.3060  137.7700 C   0  0  0  0  0  2  0  0  0  0  0  0
  189.4320  177.8600  139.7520 C   0  0  1  0  0  3  0  0  0  0  0  0
  187.3930  175.4900  136.2790 N   0  0  0  0  0  1  0  0  0  0  0  0
  186.8790  177.2140  137.8150 C   0  0  0  0  0  3  0  0  0  0  0  0
  188.9760  177.3870  145.1460 C   0  0  0  0  0  0  0  0  0  0  0  0
  189.6600  178.1930  144.2340 C   0  0  0  0  0  3  0  0  0  0  0  0
  191.0410  177.0890  146.3730 C   0  0  0  0  0  0  0  0  0  0  0  0
  191.0240  178.4290  144.4120 C   0  0  0  0  0  3  0  0  0  0  0  0
  189.0320  176.0430  147.1370 F   0  0  0  0  0  0  0  0  0  0  0  0
  189.6730  176.8270  146.2320 C   0  0  0  0  0  0  0  0  0  0  0  0
  191.9440  176.4090  147.7150 Cl  0  0  0  0  0  0  0  0  0  0  0  0
  191.6800  177.8770  145.4680 N   0  0  0  0  0  0  0  0  0  0  0  0
  1 21  1  1  0  0  0
  1 10  1  0  0  0  0
  2  8  2  0  0  0  0
  3  9  1  6  0  0  0
  3  5  1  0  0  0  0
  4 11  2  0  0  0  0
  4  8  1  0  0  0  0
  5 11  1  0  0  0  0
  6 10  2  0  0  0  0
  7  4  1  0  0  0  0
  8  6  1  0  0  0  0
  9  7  2  0  0  0  0
 11  1  1  0  0  0  0
 13 18  1  0  0  0  0
 14 17  1  0  0  0  0
 14 20  2  0  0  0  0
 15 12  1  6  0  0  0
 15  3  1  0  0  0  0
 17 13  1  0  0  0  0
 18 15  1  0  0  0  0
 18 16  1  1  0  0  0
 19 14  1  0  0  0  0
 20 12  1  0  0  0  0
 21 26  1  0  0  0  0
 22 24  1  0  0  0  0
 22 21  2  0  0  0  0
 23 27  1  0  0  0  0
 24 28  2  0  0  0  0
 26 23  2  0  0  0  0
 26 25  1  0  0  0  0
 28 23  1  0  0  0  0
M  END
>  <MODEL>
4

>  <REMARK>
 VINA RESULT:      -9.3      3.012      3.696
  Name = 
  2 active torsions:
  status: ('A' for Active; 'I' for Inactive)
    1  A    between atoms: C_1  and  C_2
    2  A    between atoms: C_10  and  C_13
                            x       y       z     vdW  Elec       q    Type
                         _______ _______ _______ _____ _____    ______ ____

>  <TORSDO>
F 2

$$$$
=
 OpenBabel11052413263D

 28 31  0  0  1  0  0  0  0  0999 V2000
  187.4140  176.9890  143.7680 C   0  0  1  0  0  3  0  0  0  0  0  0
  186.6920  178.7070  147.4750 O   0  0  0  0  0  0  0  0  0  0  0  0
  184.1650  178.8970  143.0780 C   0  0  2  0  0  3  0  0  0  0  0  0
  185.9200  178.3360  145.2560 C   0  0  0  0  0  0  0  0  0  0  0  0
  185.1820  177.8890  143.0480 O   0  0  0  0  0  0  0  0  0  0  0  0
  188.1830  177.5270  146.0800 C   0  0  0  0  0  3  0  0  0  0  0  0
  184.6260  179.0030  145.4990 C   0  0  0  0  0  3  0  0  0  0  0  0
  186.9150  178.2150  146.3370 C   0  0  0  0  0  0  0  0  0  0  0  0
  183.7780  179.2300  144.4960 C   0  0  0  0  0  3  0  0  0  0  0  0
  188.4220  176.9700  144.8930 C   0  0  0  0  0  3  0  0  0  0  0  0
  186.1540  177.7810  144.0530 C   0  0  0  0  0  0  0  0  0  0  0  0
  181.6780  179.0880  142.8340 C   0  0  0  0  0  2  0  0  0  0  0  0
  181.7990  179.0120  140.0000 C   0  0  0  0  0  2  0  0  0  0  0  0
  180.1200  177.7000  141.3910 C   0  0  0  0  0  0  0  0  0  0  0  0
  182.9490  178.4810  142.2430 C   0  0  1  0  0  3  0  0  0  0  0  0
  183.9840  178.0500  140.1110 O   0  0  0  0  0  1  0  0  0  0  0  0
  180.9730  177.7380  140.1480 C   0  0  0  0  0  2  0  0  0  0  0  0
  183.1170  178.9190  140.7740 C   0  0  1  0  0  3  0  0  0  0  0  0
  178.9310  176.9230  141.3440 N   0  0  0  0  0  1  0  0  0  0  0  0
  180.4720  178.2350  142.5690 C   0  0  0  0  0  3  0  0  0  0  0  0
  188.0530  177.4060  142.4760 C   0  0  0  0  0  0  0  0  0  0  0  0
  187.5080  178.4860  141.7790 C   0  0  0  0  0  3  0  0  0  0  0  0
  189.7430  177.1990  140.7560 C   0  0  0  0  0  0  0  0  0  0  0  0
  188.0940  178.9000  140.5820 C   0  0  0  0  0  3  0  0  0  0  0  0
  189.7400  175.7020  142.6190 F   0  0  0  0  0  0  0  0  0  0  0  0
  189.1860  176.7520  141.9610 C   0  0  0  0  0  0  0  0  0  0  0  0
  191.1580  176.4110  140.0820 Cl  0  0  0  0  0  0  0  0  0  0  0  0
  189.1890  178.2540  140.1000 N   0  0  0  0  0  0  0  0  0  0  0  0
  1 21  1  6  0  0  0
  1 11  1  0  0  0  0
  1 10  1  0  0  0  0
  3  9  1  1  0  0  0
  4  7  1  0  0  0  0
  4  8  1  0  0  0  0
  5  3  1  0  0  0  0
  5 11  1  0  0  0  0
  6  8  1  0  0  0  0
  8  2  2  0  0  0  0
  9  7  2  0  0  0  0
 10  6  2  0  0  0  0
 11  4  2  0  0  0  0
 13 17  1  0  0  0  0
 13 18  1  0  0  0  0
 14 20  2  0  0  0  0
 15 12  1  1  0  0  0
 15  3  1  0  0  0  0
 17 14  1  0  0  0  0
 18 16  1  6  0  0  0
 18 15  1  0  0  0  0
 19 14  1  0  0  0  0
 20 12  1  0  0  0  0
 22 21  2  0  0  0  0
 23 26  2  0  0  0  0
 24 22  1  0  0  0  0
 26 21  1  0  0  0  0
 26 25  1  0  0  0  0
 27 23  1  0  0  0  0
 28 24  2  0  0  0  0
 28 23  1  0  0  0  0
M  END
>  <MODEL>
5

>  <REMARK>
 VINA RESULT:      -9.0      1.878      2.333
  Name = 
  2 active torsions:
  status: ('A' for Active; 'I' for Inactive)
    1  A    between atoms: C_1  and  C_2
    2  A    between atoms: C_10  and  C_13
                            x       y       z     vdW  Elec       q    Type
                         _______ _______ _______ _____ _____    ______ ____

>  <TORSDO>
F 2

$$$$
=
 OpenBabel11052413263D

 28 31  0  0  1  0  0  0  0  0999 V2000
  184.6370  179.2190  142.8520 C   0  0  1  0  0  3  0  0  0  0  0  0
  184.5320  178.2970  146.8950 O   0  0  0  0  0  0  0  0  0  0  0  0
  187.6770  176.9090  143.1610 C   0  0  2  0  0  3  0  0  0  0  0  0
  185.6880  178.0980  144.8260 C   0  0  0  0  0  0  0  0  0  0  0  0
  186.8180  177.9770  142.7450 O   0  0  0  0  0  0  0  0  0  0  0  0
  183.4480  179.2770  145.0450 C   0  0  0  0  0  3  0  0  0  0  0  0
  186.8280  177.3810  145.4290 C   0  0  0  0  0  3  0  0  0  0  0  0
  184.5590  178.5450  145.6610 C   0  0  0  0  0  0  0  0  0  0  0  0
  187.7880  176.8600  144.6640 C   0  0  0  0  0  3  0  0  0  0  0  0
  183.4750  179.5790  143.7460 C   0  0  0  0  0  3  0  0  0  0  0  0
  185.7220  178.3940  143.5140 C   0  0  0  0  0  0  0  0  0  0  0  0
  188.9690  177.9100  141.2610 C   0  0  0  0  0  2  0  0  0  0  0  0
  191.3320  178.1750  142.8100 C   0  0  0  0  0  2  0  0  0  0  0  0
  191.2830  177.2920  140.4240 C   0  0  0  0  0  0  0  0  0  0  0  0
  189.0540  177.0150  142.4960 C   0  0  1  0  0  3  0  0  0  0  0  0
  190.5010  176.5630  144.3680 O   0  0  0  0  0  1  0  0  0  0  0  0
  191.9330  177.2210  141.7830 C   0  0  0  0  0  2  0  0  0  0  0  0
  190.0990  177.5670  143.4860 C   0  0  1  0  0  3  0  0  0  0  0  0
  192.0800  176.9450  139.2990 N   0  0  0  0  0  1  0  0  0  0  0  0
  189.9790  177.5270  140.2190 C   0  0  0  0  0  3  0  0  0  0  0  0
  184.1620  178.5900  141.5750 C   0  0  0  0  0  0  0  0  0  0  0  0
  182.9170  177.9600  141.5630 C   0  0  0  0  0  3  0  0  0  0  0  0
  184.4200  178.0400  139.2320 C   0  0  0  0  0  0  0  0  0  0  0  0
  182.4490  177.3800  140.3820 C   0  0  0  0  0  3  0  0  0  0  0  0
  186.1390  179.2440  140.3750 F   0  0  0  0  0  0  0  0  0  0  0  0
  184.9260  178.6330  140.3940 C   0  0  0  0  0  0  0  0  0  0  0  0
  185.3410  178.0740  137.7400 Cl  0  0  0  0  0  0  0  0  0  0  0  0
  183.2030  177.4320  139.2520 N   0  0  0  0  0  0  0  0  0  0  0  0
  1 21  1  6  0  0  0
  1 11  1  0  0  0  0
  1 10  1  0  0  0  0
  3  9  1  1  0  0  0
  4  7  1  0  0  0  0
  4  8  1  0  0  0  0
  5  3  1  0  0  0  0
  5 11  1  0  0  0  0
  6  8  1  0  0  0  0
  8  2  2  0  0  0  0
  9  7  2  0  0  0  0
 10  6  2  0  0  0  0
 11  4  2  0  0  0  0
 13 18  1  0  0  0  0
 14 17  1  0  0  0  0
 15 12  1  6  0  0  0
 15  3  1  0  0  0  0
 15 18  1  0  0  0  0
 17 13  1  0  0  0  0
 18 16  1  1  0  0  0
 19 14  1  0  0  0  0
 20 14  2  0  0  0  0
 20 12  1  0  0  0  0
 22 21  1  0  0  0  0
 23 28  2  0  0  0  0
 23 26  1  0  0  0  0
 24 22  2  0  0  0  0
 25 26  1  0  0  0  0
 26 21  2  0  0  0  0
 27 23  1  0  0  0  0
 28 24  1  0  0  0  0
M  END
>  <MODEL>
6

>  <REMARK>
 VINA RESULT:      -8.9      2.135      6.016
  Name = 
  2 active torsions:
  status: ('A' for Active; 'I' for Inactive)
    1  A    between atoms: C_1  and  C_2
    2  A    between atoms: C_10  and  C_13
                            x       y       z     vdW  Elec       q    Type
                         _______ _______ _______ _____ _____    ______ ____

>  <TORSDO>
F 2

$$$$
=
 OpenBabel11052413263D

 28 31  0  0  1  0  0  0  0  0999 V2000
  186.9760  177.1760  144.0440 C   0  0  1  0  0  3  0  0  0  0  0  0
  185.3360  179.1740  147.2890 O   0  0  0  0  0  0  0  0  0  0  0  0
  183.9620  178.8870  142.4110 C   0  0  2  0  0  3  0  0  0  0  0  0
  185.1380  178.5840  144.9930 C   0  0  0  0  0  0  0  0  0  0  0  0
  184.9730  177.9210  142.7230 O   0  0  0  0  0  0  0  0  0  0  0  0
  187.1440  177.9380  146.4130 C   0  0  0  0  0  3  0  0  0  0  0  0
  183.8140  179.2180  144.8520 C   0  0  0  0  0  3  0  0  0  0  0  0
  185.8400  178.5960  146.2900 C   0  0  0  0  0  0  0  0  0  0  0  0
  183.2330  179.3250  143.6560 C   0  0  0  0  0  3  0  0  0  0  0  0
  187.6770  177.2920  145.3760 C   0  0  0  0  0  3  0  0  0  0  0  0
  185.6700  177.9380  143.9390 C   0  0  0  0  0  0  0  0  0  0  0  0
  181.5630  178.7500  141.7010 C   0  0  0  0  0  2  0  0  0  0  0  0
  182.2190  178.8400  138.9410 C   0  0  0  0  0  2  0  0  0  0  0  0
  180.5170  177.2400  139.9490 C   0  0  0  0  0  0  0  0  0  0  0  0
  182.9960  178.3540  141.3480 C   0  0  1  0  0  3  0  0  0  0  0  0
  184.4610  178.1810  139.4440 O   0  0  0  0  0  1  0  0  0  0  0  0
  181.5730  177.4600  138.8950 C   0  0  0  0  0  2  0  0  0  0  0  0
  183.3700  178.8880  139.9510 C   0  0  1  0  0  3  0  0  0  0  0  0
  179.4820  176.3110  139.6550 N   0  0  0  0  0  1  0  0  0  0  0  0
  180.5630  177.7550  141.1870 C   0  0  0  0  0  3  0  0  0  0  0  0
  187.9040  177.5060  142.9120 C   0  0  0  0  0  0  0  0  0  0  0  0
  187.3960  178.1960  141.8100 C   0  0  0  0  0  3  0  0  0  0  0  0
  190.0830  177.5040  141.8580 C   0  0  0  0  0  0  0  0  0  0  0  0
  188.2450  178.5250  140.7530 C   0  0  0  0  0  3  0  0  0  0  0  0
  189.7890  176.4870  144.0010 F   0  0  0  0  0  0  0  0  0  0  0  0
  189.2660  177.1550  142.9400 C   0  0  0  0  0  0  0  0  0  0  0  0
  191.7860  177.0860  141.8560 Cl  0  0  0  0  0  0  0  0  0  0  0  0
  189.5590  178.1760  140.7980 N   0  0  0  0  0  0  0  0  0  0  0  0
  1 21  1  6  0  0  0
  1 10  1  0  0  0  0
  3  5  1  0  0  0  0
  3  9  1  1  0  0  0
  4  8  1  0  0  0  0
  5 11  1  0  0  0  0
  7  4  1  0  0  0  0
  8  6  1  0  0  0  0
  8  2  2  0  0  0  0
  9  7  2  0  0  0  0
 10  6  2  0  0  0  0
 11  1  1  0  0  0  0
 11  4  2  0  0  0  0
 13 18  1  0  0  0  0
 14 20  2  0  0  0  0
 15 12  1  1  0  0  0
 15  3  1  0  0  0  0
 17 13  1  0  0  0  0
 17 14  1  0  0  0  0
 18 16  1  6  0  0  0
 18 15  1  0  0  0  0
 19 14  1  0  0  0  0
 20 12  1  0  0  0  0
 21 26  1  0  0  0  0
 22 21  2  0  0  0  0
 23 26  2  0  0  0  0
 24 28  2  0  0  0  0
 24 22  1  0  0  0  0
 26 25  1  0  0  0  0
 27 23  1  0  0  0  0
 28 23  1  0  0  0  0
M  END
>  <MODEL>
7

>  <REMARK>
 VINA RESULT:      -8.7      1.625      1.974
  Name = 
  2 active torsions:
  status: ('A' for Active; 'I' for Inactive)
    1  A    between atoms: C_1  and  C_2
    2  A    between atoms: C_10  and  C_13
                            x       y       z     vdW  Elec       q    Type
                         _______ _______ _______ _____ _____    ______ ____

>  <TORSDO>
F 2

$$$$
=
 OpenBabel11052413263D

 28 31  0  0  1  0  0  0  0  0999 V2000
  188.1740  176.7190  143.0560 C   0  0  1  0  0  3  0  0  0  0  0  0
  185.8500  179.5230  141.0690 O   0  0  0  0  0  0  0  0  0  0  0  0
  190.3700  177.4720  140.0090 C   0  0  2  0  0  3  0  0  0  0  0  0
  187.8110  178.1760  141.0550 C   0  0  0  0  0  0  0  0  0  0  0  0
  189.7220  176.7730  141.0780 O   0  0  0  0  0  0  0  0  0  0  0  0
  186.2040  178.2500  143.0220 C   0  0  0  0  0  3  0  0  0  0  0  0
  188.1940  178.5910  139.6920 C   0  0  0  0  0  3  0  0  0  0  0  0
  186.5780  178.6940  141.6770 C   0  0  0  0  0  0  0  0  0  0  0  0
  189.3690  178.2300  139.1750 C   0  0  0  0  0  3  0  0  0  0  0  0
  186.9450  177.3470  143.6670 C   0  0  0  0  0  3  0  0  0  0  0  0
  188.5660  177.2680  141.6990 C   0  0  0  0  0  0  0  0  0  0  0  0
  190.4680  176.1820  137.8630 C   0  0  0  0  0  2  0  0  0  0  0  0
  193.2740  176.5240  137.6110 C   0  0  0  0  0  2  0  0  0  0  0  0
  192.0650  174.3210  137.2080 C   0  0  0  0  0  0  0  0  0  0  0  0
  191.2110  176.5190  139.1540 C   0  0  1  0  0  3  0  0  0  0  0  0
  193.4290  177.0360  139.9400 O   0  0  0  0  0  1  0  0  0  0  0  0
  193.3160  175.0020  137.7010 C   0  0  0  0  0  2  0  0  0  0  0  0
  192.5860  177.1390  138.8330 C   0  0  1  0  0  3  0  0  0  0  0  0
  192.1960  173.0030  136.6930 N   0  0  0  0  0  1  0  0  0  0  0  0
  190.8270  174.8190  137.3470 C   0  0  0  0  0  3  0  0  0  0  0  0
  189.3260  176.7380  144.0170 C   0  0  0  0  0  0  0  0  0  0  0  0
  190.5930  176.3820  143.5500 C   0  0  0  0  0  3  0  0  0  0  0  0
  190.2850  177.1270  146.2050 C   0  0  0  0  0  0  0  0  0  0  0  0
  191.6810  176.4060  144.4240 C   0  0  0  0  0  3  0  0  0  0  0  0
  187.9480  177.4720  145.8440 F   0  0  0  0  0  0  0  0  0  0  0  0
  189.1670  177.1170  145.3630 C   0  0  0  0  0  0  0  0  0  0  0  0
  190.1280  177.5950  147.8890 Cl  0  0  0  0  0  0  0  0  0  0  0  0
  191.5060  176.7740  145.7210 N   0  0  0  0  0  0  0  0  0  0  0  0
  1 10  1  0  0  0  0
  1 21  1  1  0  0  0
  2  8  2  0  0  0  0
  3  9  1  6  0  0  0
  3  5  1  0  0  0  0
  4  8  1  0  0  0  0
  4 11  2  0  0  0  0
  5 11  1  0  0  0  0
  6 10  2  0  0  0  0
  7  4  1  0  0  0  0
  8  6  1  0  0  0  0
  9  7  2  0  0  0  0
 11  1  1  0  0  0  0
 13 17  1  0  0  0  0
 13 18  1  0  0  0  0
 14 20  2  0  0  0  0
 14 17  1  0  0  0  0
 15 12  1  6  0  0  0
 15  3  1  0  0  0  0
 18 15  1  0  0  0  0
 18 16  1  1  0  0  0
 19 14  1  0  0  0  0
 20 12  1  0  0  0  0
 21 26  1  0  0  0  0
 22 21  2  0  0  0  0
 22 24  1  0  0  0  0
 23 27  1  0  0  0  0
 24 28  2  0  0  0  0
 26 25  1  0  0  0  0
 26 23  2  0  0  0  0
 28 23  1  0  0  0  0
M  END
>  <MODEL>
8

>  <REMARK>
 VINA RESULT:      -8.4      3.963      6.247
  Name = 
  2 active torsions:
  status: ('A' for Active; 'I' for Inactive)
    1  A    between atoms: C_1  and  C_2
    2  A    between atoms: C_10  and  C_13
                            x       y       z     vdW  Elec       q    Type
                         _______ _______ _______ _____ _____    ______ ____

>  <TORSDO>
F 2

$$$$
=
 OpenBabel11052413263D

 28 31  0  0  1  0  0  0  0  0999 V2000
  187.9970  177.0360  143.9640 C   0  0  1  0  0  3  0  0  0  0  0  0
  184.4290  178.7410  145.2180 O   0  0  0  0  0  0  0  0  0  0  0  0
  186.7550  178.6280  140.7090 C   0  0  2  0  0  3  0  0  0  0  0  0
  185.8910  178.2650  143.4040 C   0  0  0  0  0  0  0  0  0  0  0  0
  187.3660  177.7170  141.6300 O   0  0  0  0  0  0  0  0  0  0  0  0
  186.4490  177.6790  145.8120 C   0  0  0  0  0  3  0  0  0  0  0  0
  184.9650  178.8150  142.3960 C   0  0  0  0  0  3  0  0  0  0  0  0
  185.5240  178.2530  144.8310 C   0  0  0  0  0  0  0  0  0  0  0  0
  185.3420  178.9480  141.1240 C   0  0  0  0  0  3  0  0  0  0  0  0
  187.5970  177.1270  145.4170 C   0  0  0  0  0  3  0  0  0  0  0  0
  187.0490  177.7140  142.9960 C   0  0  0  0  0  0  0  0  0  0  0  0
  185.5550  178.4950  138.5130 C   0  0  0  0  0  2  0  0  0  0  0  0
  187.9680  178.5600  137.0200 C   0  0  0  0  0  2  0  0  0  0  0  0
  186.0360  176.9750  136.5390 C   0  0  0  0  0  0  0  0  0  0  0  0
  186.8160  178.0900  139.2760 C   0  0  1  0  0  3  0  0  0  0  0  0
  189.1960  177.8960  138.9600 O   0  0  0  0  0  1  0  0  0  0  0  0
  187.5300  177.1820  136.5350 C   0  0  0  0  0  2  0  0  0  0  0  0
  188.0710  178.6110  138.5470 C   0  0  1  0  0  3  0  0  0  0  0  0
  185.5020  176.0480  135.6030 N   0  0  0  0  0  1  0  0  0  0  0  0
  185.2000  177.5000  137.4460 C   0  0  0  0  0  3  0  0  0  0  0  0
  189.4140  177.4880  143.7640 C   0  0  0  0  0  0  0  0  0  0  0  0
  190.0060  178.2840  144.7460 C   0  0  0  0  0  3  0  0  0  0  0  0
  191.4820  177.5660  142.5090 C   0  0  0  0  0  0  0  0  0  0  0  0
  191.3270  178.7050  144.5870 C   0  0  0  0  0  3  0  0  0  0  0  0
  189.6110  176.3450  141.6600 F   0  0  0  0  0  0  0  0  0  0  0  0
  190.1600  177.1220  142.6290 C   0  0  0  0  0  0  0  0  0  0  0  0
  192.4450  177.1280  141.1100 Cl  0  0  0  0  0  0  0  0  0  0  0  0
  192.0310  178.3400  143.4820 N   0  0  0  0  0  0  0  0  0  0  0  0
  1 21  1  1  0  0  0
  1 10  1  0  0  0  0
  3  9  1  1  0  0  0
  3  5  1  0  0  0  0
  4  8  1  0  0  0  0
  5 11  1  0  0  0  0
  7  4  1  0  0  0  0
  8  2  2  0  0  0  0
  8  6  1  0  0  0  0
  9  7  2  0  0  0  0
 10  6  2  0  0  0  0
 11  4  2  0  0  0  0
 11  1  1  0  0  0  0
 13 18  1  0  0  0  0
 14 20  2  0  0  0  0
 15 12  1  6  0  0  0
 15  3  1  0  0  0  0
 17 14  1  0  0  0  0
 17 13  1  0  0  0  0
 18 16  1  1  0  0  0
 18 15  1  0  0  0  0
 19 14  1  0  0  0  0
 20 12  1  0  0  0  0
 21 22  1  0  0  0  0
 23 26  1  0  0  0  0
 23 28  2  0  0  0  0
 24 22  2  0  0  0  0
 25 26  1  0  0  0  0
 26 21  2  0  0  0  0
 27 23  1  0  0  0  0
 28 24  1  0  0  0  0
M  END
>  <MODEL>
9

>  <REMARK>
 VINA RESULT:      -8.2      2.059      2.574
  Name = 
  2 active torsions:
  status: ('A' for Active; 'I' for Inactive)
    1  A    between atoms: C_1  and  C_2
    2  A    between atoms: C_10  and  C_13
                            x       y       z     vdW  Elec       q    Type
                         _______ _______ _______ _____ _____    ______ ____

>  <TORSDO>
F 2

$$$$
