=
 OpenBabel11052414193D

 34 37  0  0  1  0  0  0  0  0999 V2000
  184.2780  178.6990  145.2400 C   0  0  0  0  0  0  0  0  0  0  0  0
  186.5620  177.8760  144.7870 C   0  0  0  0  0  0  0  0  0  0  0  0
  184.9340  178.2410  142.9310 C   0  0  0  0  0  0  0  0  0  0  0  0
  186.0800  178.9070  146.9640 C   0  0  0  0  0  2  0  0  0  0  0  0
  186.8890  178.0710  146.1330 O   0  0  0  0  0  0  0  0  0  0  0  0
  187.0690  177.0960  142.6080 O   0  0  0  0  0  0  0  0  0  0  0  0
  185.2400  178.2950  144.3020 C   0  0  0  0  0  0  0  0  0  0  0  0
  184.5890  178.6560  146.7100 C   0  0  0  0  0  2  0  0  0  0  0  0
  183.6470  178.6190  142.4960 C   0  0  0  0  0  0  0  0  0  0  0  0
  182.9930  179.0290  144.8080 C   0  0  0  0  0  3  0  0  0  0  0  0
  187.4090  177.2740  143.9560 C   0  0  0  0  0  3  0  0  0  0  0  0
  186.0210  177.8340  141.9590 C   0  0  2  0  0  3  0  0  0  0  0  0
  182.6800  178.9920  143.4460 C   0  0  0  0  0  3  0  0  0  0  0  0
  183.5180  177.1520  140.5290 C   0  0  0  0  0  1  0  0  0  0  0  0
  183.2790  178.5720  141.0370 C   0  0  1  0  0  3  0  0  0  0  0  0
  181.8380  179.0830  140.7620 C   0  0  1  0  0  3  0  0  0  0  0  0
  181.7340  179.8390  139.4140 C   0  0  1  0  0  3  0  0  0  0  0  0
  180.9110  180.9610  139.5260 O   0  0  0  0  0  1  0  0  0  0  0  0
  183.0850  180.2940  138.8960 C   0  0  0  0  0  1  0  0  0  0  0  0
  180.1000  177.4480  139.2690 S   0  0  0  0  0  1  0  0  0  0  0  0
  179.7880  178.2690  141.7720 O   0  0  0  0  0  1  0  0  0  0  0  0
  180.8060  177.9410  140.8760 C   0  0  2  0  0  3  0  0  0  0  0  0
  186.5570  178.9780  141.3560 O   0  0  0  0  0  0  0  0  0  0  0  0
  187.2860  178.5060  140.2610 C   0  0  0  0  0  2  0  0  0  0  0  0
  188.7720  178.6250  140.5380 C   0  0  0  0  0  2  0  0  0  0  0  0
  189.4360  177.2830  140.3190 C   0  0  0  0  0  2  0  0  0  0  0  0
  190.7930  177.2570  140.9920 C   0  0  0  0  0  2  0  0  0  0  0  0
  190.1660  175.1160  142.9200 O   0  0  0  0  0  1  0  0  0  0  0  0
  190.6180  177.3650  142.4330 N   0  0  0  0  0  0  0  0  0  0  0  0
  191.1310  176.1210  143.0330 C   0  0  1  0  0  3  0  0  0  0  0  0
  190.8400  177.4970  145.1410 C   0  0  0  0  0  2  0  0  0  0  0  0
  191.1970  178.7720  144.3680 C   0  0  0  0  0  2  0  0  0  0  0  0
  191.4260  178.5000  142.8770 C   0  0  0  0  0  2  0  0  0  0  0  0
  191.5170  176.2800  144.5170 C   0  0  0  0  0  2  0  0  0  0  0  0
  1  8  1  0  0  0  0
  2  5  1  0  0  0  0
  3  7  1  0  0  0  0
  5  4  1  0  0  0  0
  6 11  1  0  0  0  0
  7  2  1  0  0  0  0
  7  1  2  0  0  0  0
  8  4  1  0  0  0  0
  9  3  2  0  0  0  0
  9 13  1  0  0  0  0
 10  1  1  0  0  0  0
 11  2  2  0  0  0  0
 12 23  1  1  0  0  0
 12  6  1  0  0  0  0
 12  3  1  0  0  0  0
 13 10  2  0  0  0  0
 15 14  1  1  0  0  0
 15  9  1  0  0  0  0
 16 17  1  6  0  0  0
 16 22  1  0  0  0  0
 16 15  1  0  0  0  0
 17 19  1  1  0  0  0
 17 18  1  0  0  0  0
 22 20  1  6  0  0  0
 22 21  1  0  0  0  0
 24 25  1  0  0  0  0
 24 23  1  0  0  0  0
 26 25  1  0  0  0  0
 26 27  1  0  0  0  0
 27 29  1  0  0  0  0
 29 33  1  0  0  0  0
 29 30  1  0  0  0  0
 30 28  1  1  0  0  0
 30 34  1  0  0  0  0
 32 31  1  0  0  0  0
 33 32  1  0  0  0  0
 34 31  1  0  0  0  0
M  END
>  <MODEL>
1

>  <REMARK>
 VINA RESULT:      -7.5      0.000      0.000
  Name = 
  10 active torsions:
  status: ('A' for Active; 'I' for Inactive)
    1  A    between atoms: C_3  and  N_13
    2  A    between atoms: C_3  and  C_17
    3  A    between atoms: O_5  and  C_18
    4  A    between atoms: O_5  and  C_31
    5  A    between atoms: C_7  and  C_23
    6  A    between atoms: C_17  and  C_29
    7  A    between atoms: C_18  and  C_29
    8  A    between atoms: C_21  and  C_28
    9  A    between atoms: C_23  and  C_27
   10  A    between atoms: C_23  and  C_28
                            x       y       z     vdW  Elec       q    Type
                         _______ _______ _______ _____ _____    ______ ____

>  <TORSDO>
F 10

$$$$
=
 OpenBabel11052414193D

 34 37  0  0  1  0  0  0  0  0999 V2000
  185.4410  178.4200  144.7040 C   0  0  0  0  0  0  0  0  0  0  0  0
  185.1380  178.8490  142.2910 C   0  0  0  0  0  0  0  0  0  0  0  0
  187.3930  178.3450  143.2350 C   0  0  0  0  0  0  0  0  0  0  0  0
  183.1690  178.3200  143.6600 C   0  0  0  0  0  2  0  0  0  0  0  0
  183.7530  178.8740  142.4790 O   0  0  0  0  0  0  0  0  0  0  0  0
  187.0680  179.1310  140.9450 O   0  0  0  0  0  0  0  0  0  0  0  0
  186.0100  178.5150  143.4250 C   0  0  0  0  0  0  0  0  0  0  0  0
  183.9780  178.7030  144.9050 C   0  0  0  0  0  2  0  0  0  0  0  0
  188.2110  178.0550  144.3480 C   0  0  0  0  0  0  0  0  0  0  0  0
  186.2620  178.1770  145.8060 C   0  0  0  0  0  3  0  0  0  0  0  0
  185.6780  179.1710  141.1180 C   0  0  0  0  0  3  0  0  0  0  0  0
  187.9490  178.4200  141.8300 C   0  0  2  0  0  3  0  0  0  0  0  0
  187.6360  177.9940  145.6290 C   0  0  0  0  0  3  0  0  0  0  0  0
  190.3950  179.1080  144.7420 C   0  0  0  0  0  1  0  0  0  0  0  0
  189.6960  177.8700  144.1870 C   0  0  1  0  0  3  0  0  0  0  0  0
  190.2100  176.5460  144.8170 C   0  0  1  0  0  3  0  0  0  0  0  0
  191.1330  175.7610  143.8520 C   0  0  1  0  0  3  0  0  0  0  0  0
  190.4040  174.8600  143.0740 O   0  0  0  0  0  1  0  0  0  0  0  0
  191.9100  176.6710  142.9190 C   0  0  0  0  0  1  0  0  0  0  0  0
  192.2090  175.6180  146.5660 S   0  0  0  0  0  1  0  0  0  0  0  0
  189.9210  176.7950  147.2120 O   0  0  0  0  0  1  0  0  0  0  0  0
  190.8700  176.7960  146.1900 C   0  0  2  0  0  3  0  0  0  0  0  0
  188.1570  177.1240  141.3430 O   0  0  0  0  0  0  0  0  0  0  0  0
  189.3630  177.1880  140.6390 C   0  0  0  0  0  2  0  0  0  0  0  0
  189.1070  177.0150  139.1550 C   0  0  0  0  0  2  0  0  0  0  0  0
  189.5380  178.2640  138.4180 C   0  0  0  0  0  2  0  0  0  0  0  0
  189.0680  178.2080  136.9790 C   0  0  0  0  0  2  0  0  0  0  0  0
  186.2510  178.6860  137.7070 O   0  0  0  0  0  1  0  0  0  0  0  0
  187.9430  177.2920  136.8750 N   0  0  0  0  0  0  0  0  0  0  0  0
  186.7520  178.0930  136.5450 C   0  0  1  0  0  3  0  0  0  0  0  0
  185.8000  175.7760  136.1630 C   0  0  0  0  0  2  0  0  0  0  0  0
  187.1680  175.2830  135.6810 C   0  0  0  0  0  2  0  0  0  0  0  0
  188.2430  176.3720  135.7770 C   0  0  0  0  0  2  0  0  0  0  0  0
  185.6320  177.2670  135.8820 C   0  0  0  0  0  2  0  0  0  0  0  0
  1  8  1  0  0  0  0
  1 10  1  0  0  0  0
  2  5  1  0  0  0  0
  2  7  1  0  0  0  0
  3  7  1  0  0  0  0
  3  9  2  0  0  0  0
  4  8  1  0  0  0  0
  5  4  1  0  0  0  0
  6 11  1  0  0  0  0
  6 12  1  0  0  0  0
  7  1  2  0  0  0  0
  9 13  1  0  0  0  0
 11  2  2  0  0  0  0
 12 23  1  6  0  0  0
 12  3  1  0  0  0  0
 13 10  2  0  0  0  0
 15  9  1  0  0  0  0
 15 14  1  1  0  0  0
 15 16  1  0  0  0  0
 16 17  1  6  0  0  0
 16 22  1  0  0  0  0
 17 19  1  6  0  0  0
 18 17  1  0  0  0  0
 22 20  1  1  0  0  0
 22 21  1  0  0  0  0
 24 23  1  0  0  0  0
 25 24  1  0  0  0  0
 26 25  1  0  0  0  0
 27 26  1  0  0  0  0
 29 27  1  0  0  0  0
 30 29  1  0  0  0  0
 30 28  1  1  0  0  0
 32 33  1  0  0  0  0
 32 31  1  0  0  0  0
 33 29  1  0  0  0  0
 34 31  1  0  0  0  0
 34 30  1  0  0  0  0
M  END
>  <MODEL>
2

>  <REMARK>
 VINA RESULT:      -7.4      3.588      7.277
  Name = 
  10 active torsions:
  status: ('A' for Active; 'I' for Inactive)
    1  A    between atoms: C_3  and  N_13
    2  A    between atoms: C_3  and  C_17
    3  A    between atoms: O_5  and  C_18
    4  A    between atoms: O_5  and  C_31
    5  A    between atoms: C_7  and  C_23
    6  A    between atoms: C_17  and  C_29
    7  A    between atoms: C_18  and  C_29
    8  A    between atoms: C_21  and  C_28
    9  A    between atoms: C_23  and  C_27
   10  A    between atoms: C_23  and  C_28
                            x       y       z     vdW  Elec       q    Type
                         _______ _______ _______ _____ _____    ______ ____

>  <TORSDO>
F 10

$$$$
=
 OpenBabel11052414193D

 34 37  0  0  1  0  0  0  0  0999 V2000
  185.4380  178.4050  144.5300 C   0  0  0  0  0  0  0  0  0  0  0  0
  185.1760  178.8070  142.1070 C   0  0  0  0  0  0  0  0  0  0  0  0
  187.4160  178.3320  143.0970 C   0  0  0  0  0  0  0  0  0  0  0  0
  183.1860  178.2750  143.4460 C   0  0  0  0  0  2  0  0  0  0  0  0
  183.7870  178.8220  142.2700 O   0  0  0  0  0  0  0  0  0  0  0  0
  187.1270  179.0910  140.7930 O   0  0  0  0  0  0  0  0  0  0  0  0
  186.0290  178.4920  143.2600 C   0  0  0  0  0  0  0  0  0  0  0  0
  183.9690  178.6770  144.7010 C   0  0  0  0  0  2  0  0  0  0  0  0
  188.2160  178.0600  144.2270 C   0  0  0  0  0  0  0  0  0  0  0  0
  186.2400  178.1810  145.6490 C   0  0  0  0  0  3  0  0  0  0  0  0
  185.7340  179.1210  140.9410 C   0  0  0  0  0  3  0  0  0  0  0  0
  187.9980  178.3960  141.7010 C   0  0  2  0  0  3  0  0  0  0  0  0
  187.6190  178.0070  145.4980 C   0  0  0  0  0  3  0  0  0  0  0  0
  190.3850  179.1290  144.6640 C   0  0  0  0  0  1  0  0  0  0  0  0
  189.7060  177.8850  144.0960 C   0  0  1  0  0  3  0  0  0  0  0  0
  190.2170  176.5660  144.7350 C   0  0  1  0  0  3  0  0  0  0  0  0
  191.1430  175.7730  143.7790 C   0  0  1  0  0  3  0  0  0  0  0  0
  190.4240  174.8240  143.0500 O   0  0  0  0  0  1  0  0  0  0  0  0
  191.8720  176.6710  142.7970 C   0  0  0  0  0  1  0  0  0  0  0  0
  192.1960  175.6340  146.5060 S   0  0  0  0  0  1  0  0  0  0  0  0
  189.9200  176.8480  147.1260 O   0  0  0  0  0  1  0  0  0  0  0  0
  190.8740  176.8240  146.1080 C   0  0  2  0  0  3  0  0  0  0  0  0
  188.2250  177.0980  141.2320 O   0  0  0  0  0  0  0  0  0  0  0  0
  189.2740  177.2190  140.3150 C   0  0  0  0  0  2  0  0  0  0  0  0
  188.7380  177.1270  138.9000 C   0  0  0  0  0  2  0  0  0  0  0  0
  189.6000  176.1810  138.0940 C   0  0  0  0  0  2  0  0  0  0  0  0
  190.9410  176.8200  137.7990 C   0  0  0  0  0  2  0  0  0  0  0  0
  193.8620  176.9500  137.4160 O   0  0  0  0  0  1  0  0  0  0  0  0
  191.8100  175.8450  137.1580 N   0  0  0  0  0  0  0  0  0  0  0  0
  193.1000  175.8690  137.8690 C   0  0  1  0  0  3  0  0  0  0  0  0
  193.4520  173.7910  136.4640 C   0  0  0  0  0  2  0  0  0  0  0  0
  191.9590  173.4610  136.5600 C   0  0  0  0  0  2  0  0  0  0  0  0
  191.1770  174.5360  137.3230 C   0  0  0  0  0  2  0  0  0  0  0  0
  193.9140  174.5720  137.6900 C   0  0  0  0  0  2  0  0  0  0  0  0
  1  8  1  0  0  0  0
  1 10  1  0  0  0  0
  2  5  1  0  0  0  0
  2  7  1  0  0  0  0
  3  7  1  0  0  0  0
  3  9  2  0  0  0  0
  4  8  1  0  0  0  0
  5  4  1  0  0  0  0
  6 11  1  0  0  0  0
  6 12  1  0  0  0  0
  7  1  2  0  0  0  0
  9 13  1  0  0  0  0
 11  2  2  0  0  0  0
 12 23  1  6  0  0  0
 12  3  1  0  0  0  0
 13 10  2  0  0  0  0
 15  9  1  0  0  0  0
 15 14  1  1  0  0  0
 15 16  1  0  0  0  0
 16 17  1  6  0  0  0
 16 22  1  0  0  0  0
 17 19  1  6  0  0  0
 18 17  1  0  0  0  0
 22 20  1  1  0  0  0
 22 21  1  0  0  0  0
 24 23  1  0  0  0  0
 25 24  1  0  0  0  0
 26 25  1  0  0  0  0
 27 26  1  0  0  0  0
 29 33  1  0  0  0  0
 29 27  1  0  0  0  0
 29 30  1  0  0  0  0
 30 28  1  6  0  0  0
 31 32  1  0  0  0  0
 31 34  1  0  0  0  0
 32 33  1  0  0  0  0
 34 30  1  0  0  0  0
M  END
>  <MODEL>
3

>  <REMARK>
 VINA RESULT:      -7.4      3.772      6.947
  Name = 
  10 active torsions:
  status: ('A' for Active; 'I' for Inactive)
    1  A    between atoms: C_3  and  N_13
    2  A    between atoms: C_3  and  C_17
    3  A    between atoms: O_5  and  C_18
    4  A    between atoms: O_5  and  C_31
    5  A    between atoms: C_7  and  C_23
    6  A    between atoms: C_17  and  C_29
    7  A    between atoms: C_18  and  C_29
    8  A    between atoms: C_21  and  C_28
    9  A    between atoms: C_23  and  C_27
   10  A    between atoms: C_23  and  C_28
                            x       y       z     vdW  Elec       q    Type
                         _______ _______ _______ _____ _____    ______ ____

>  <TORSDO>
F 10

$$$$
=
 OpenBabel11052414193D

 34 37  0  0  1  0  0  0  0  0999 V2000
  180.3330  180.3790  138.6180 C   0  0  0  0  0  0  0  0  0  0  0  0
  180.0120  180.3410  141.0670 C   0  0  0  0  0  0  0  0  0  0  0  0
  181.7780  178.9530  139.9780 C   0  0  0  0  0  0  0  0  0  0  0  0
  179.0210  182.1740  139.7670 C   0  0  0  0  0  2  0  0  0  0  0  0
  179.0790  181.3760  140.9510 O   0  0  0  0  0  0  0  0  0  0  0  0
  181.1630  178.6980  142.3290 O   0  0  0  0  0  0  0  0  0  0  0  0
  180.7370  179.8910  139.8710 C   0  0  0  0  0  0  0  0  0  0  0  0
  179.1540  181.3050  138.5110 C   0  0  0  0  0  2  0  0  0  0  0  0
  182.4360  178.5160  138.8100 C   0  0  0  0  0  0  0  0  0  0  0  0
  180.9580  179.9090  137.4630 C   0  0  0  0  0  3  0  0  0  0  0  0
  180.2160  179.7270  142.2290 C   0  0  0  0  0  3  0  0  0  0  0  0
  182.1990  178.4890  141.3560 C   0  0  2  0  0  3  0  0  0  0  0  0
  182.0030  178.9860  137.5580 C   0  0  0  0  0  3  0  0  0  0  0  0
  182.9380  176.1130  138.9080 C   0  0  0  0  0  1  0  0  0  0  0  0
  183.5540  177.5100  138.8820 C   0  0  1  0  0  3  0  0  0  0  0  0
  184.6040  177.6930  137.7530 C   0  0  1  0  0  3  0  0  0  0  0  0
  186.0110  178.0210  138.3110 C   0  0  1  0  0  3  0  0  0  0  0  0
  186.6710  178.9500  137.5040 O   0  0  0  0  0  1  0  0  0  0  0  0
  185.9620  178.5720  139.7240 C   0  0  0  0  0  1  0  0  0  0  0  0
  186.1880  175.5530  136.8420 S   0  0  0  0  0  1  0  0  0  0  0  0
  184.3190  176.8630  135.4910 O   0  0  0  0  0  1  0  0  0  0  0  0
  184.6190  176.4790  136.7980 C   0  0  2  0  0  3  0  0  0  0  0  0
  183.3540  179.1760  141.7450 O   0  0  0  0  0  0  0  0  0  0  0  0
  183.8360  178.4800  142.8580 C   0  0  0  0  0  2  0  0  0  0  0  0
  184.4240  179.4520  143.8620 C   0  0  0  0  0  2  0  0  0  0  0  0
  185.1060  178.6830  144.9720 C   0  0  0  0  0  2  0  0  0  0  0  0
  186.2280  177.8370  144.4060 C   0  0  0  0  0  2  0  0  0  0  0  0
  188.8530  176.5080  144.2150 O   0  0  0  0  0  1  0  0  0  0  0  0
  187.1020  177.4100  145.4880 N   0  0  0  0  0  0  0  0  0  0  0  0
  188.4910  177.5860  145.0280 C   0  0  1  0  0  3  0  0  0  0  0  0
  188.9320  177.1300  147.4810 C   0  0  0  0  0  2  0  0  0  0  0  0
  187.6240  177.8330  147.8570 C   0  0  0  0  0  2  0  0  0  0  0  0
  186.8400  178.2950  146.6230 C   0  0  0  0  0  2  0  0  0  0  0  0
  189.5010  177.7020  146.1860 C   0  0  0  0  0  2  0  0  0  0  0  0
  1  7  1  0  0  0  0
  2 11  2  0  0  0  0
  3 12  1  0  0  0  0
  4  5  1  0  0  0  0
  5  2  1  0  0  0  0
  7  3  2  0  0  0  0
  7  2  1  0  0  0  0
  8  1  1  0  0  0  0
  8  4  1  0  0  0  0
  9 15  1  0  0  0  0
  9  3  1  0  0  0  0
 10 13  1  0  0  0  0
 10  1  2  0  0  0  0
 11  6  1  0  0  0  0
 12 23  1  1  0  0  0
 12  6  1  0  0  0  0
 13  9  2  0  0  0  0
 15 14  1  6  0  0  0
 16 22  1  1  0  0  0
 16 17  1  0  0  0  0
 16 15  1  0  0  0  0
 17 19  1  1  0  0  0
 18 17  1  0  0  0  0
 22 21  1  6  0  0  0
 22 20  1  0  0  0  0
 23 24  1  0  0  0  0
 24 25  1  0  0  0  0
 25 26  1  0  0  0  0
 27 26  1  0  0  0  0
 27 29  1  0  0  0  0
 29 33  1  0  0  0  0
 30 28  1  6  0  0  0
 30 29  1  0  0  0  0
 30 34  1  0  0  0  0
 31 32  1  0  0  0  0
 33 32  1  0  0  0  0
 34 31  1  0  0  0  0
M  END
>  <MODEL>
4

>  <REMARK>
 VINA RESULT:      -7.2      2.781      6.002
  Name = 
  10 active torsions:
  status: ('A' for Active; 'I' for Inactive)
    1  A    between atoms: C_3  and  N_13
    2  A    between atoms: C_3  and  C_17
    3  A    between atoms: O_5  and  C_18
    4  A    between atoms: O_5  and  C_31
    5  A    between atoms: C_7  and  C_23
    6  A    between atoms: C_17  and  C_29
    7  A    between atoms: C_18  and  C_29
    8  A    between atoms: C_21  and  C_28
    9  A    between atoms: C_23  and  C_27
   10  A    between atoms: C_23  and  C_28
                            x       y       z     vdW  Elec       q    Type
                         _______ _______ _______ _____ _____    ______ ____

>  <TORSDO>
F 10

$$$$
=
 OpenBabel11052414193D

 34 37  0  0  1  0  0  0  0  0999 V2000
  186.4470  177.3630  137.5310 C   0  0  0  0  0  0  0  0  0  0  0  0
  187.6930  177.9240  139.5880 C   0  0  0  0  0  0  0  0  0  0  0  0
  185.2630  178.4490  139.3730 C   0  0  0  0  0  0  0  0  0  0  0  0
  188.6720  176.3210  138.0050 C   0  0  0  0  0  2  0  0  0  0  0  0
  188.8090  177.2470  139.0840 O   0  0  0  0  0  0  0  0  0  0  0  0
  186.6370  179.2900  141.2100 O   0  0  0  0  0  0  0  0  0  0  0  0
  186.4370  177.8990  138.8280 C   0  0  0  0  0  0  0  0  0  0  0  0
  187.7310  176.8690  136.9260 C   0  0  0  0  0  2  0  0  0  0  0  0
  184.0780  178.4400  138.6080 C   0  0  0  0  0  0  0  0  0  0  0  0
  185.2820  177.3970  136.7630 C   0  0  0  0  0  3  0  0  0  0  0  0
  187.7680  178.6270  140.7150 C   0  0  0  0  0  3  0  0  0  0  0  0
  185.2990  178.9790  140.7900 C   0  0  2  0  0  3  0  0  0  0  0  0
  184.1060  177.9300  137.2990 C   0  0  0  0  0  3  0  0  0  0  0  0
  182.7170  180.4830  138.7170 C   0  0  0  0  0  1  0  0  0  0  0  0
  182.8020  179.0220  139.1540 C   0  0  1  0  0  3  0  0  0  0  0  0
  181.5460  178.1950  138.7640 C   0  0  1  0  0  3  0  0  0  0  0  0
  180.8010  177.6430  140.0050 C   0  0  1  0  0  3  0  0  0  0  0  0
  180.9410  176.2580  140.1040 O   0  0  0  0  0  1  0  0  0  0  0  0
  181.2910  178.2620  141.3010 C   0  0  0  0  0  1  0  0  0  0  0  0
  178.9310  179.1990  138.4950 S   0  0  0  0  0  1  0  0  0  0  0  0
  180.5670  178.4230  136.5570 O   0  0  0  0  0  1  0  0  0  0  0  0
  180.6150  178.9950  137.8280 C   0  0  2  0  0  3  0  0  0  0  0  0
  184.7440  178.0300  141.6550 O   0  0  0  0  0  0  0  0  0  0  0  0
  185.4430  178.1790  142.8570 C   0  0  0  0  0  2  0  0  0  0  0  0
  184.4960  178.6180  143.9570 C   0  0  0  0  0  2  0  0  0  0  0  0
  185.2930  179.1360  145.1330 C   0  0  0  0  0  2  0  0  0  0  0  0
  185.8260  177.9790  145.9510 C   0  0  0  0  0  2  0  0  0  0  0  0
  187.5820  178.4910  148.2650 O   0  0  0  0  0  1  0  0  0  0  0  0
  187.2800  178.0410  145.9830 N   0  0  0  0  0  0  0  0  0  0  0  0
  187.7160  177.5040  147.2830 C   0  0  1  0  0  3  0  0  0  0  0  0
  189.9620  177.6100  146.1170 C   0  0  0  0  0  2  0  0  0  0  0  0
  189.2910  177.2940  144.7760 C   0  0  0  0  0  2  0  0  0  0  0  0
  187.7680  177.1830  144.9030 C   0  0  0  0  0  2  0  0  0  0  0  0
  189.1730  177.0030  147.2730 C   0  0  0  0  0  2  0  0  0  0  0  0
  1  7  1  0  0  0  0
  2 11  2  0  0  0  0
  3 12  1  0  0  0  0
  4  5  1  0  0  0  0
  5  2  1  0  0  0  0
  7  3  2  0  0  0  0
  7  2  1  0  0  0  0
  8  1  1  0  0  0  0
  8  4  1  0  0  0  0
  9 15  1  0  0  0  0
  9  3  1  0  0  0  0
 10 13  1  0  0  0  0
 10  1  2  0  0  0  0
 11  6  1  0  0  0  0
 12  6  1  0  0  0  0
 12 23  1  1  0  0  0
 13  9  2  0  0  0  0
 15 14  1  6  0  0  0
 16 22  1  1  0  0  0
 16 15  1  0  0  0  0
 16 17  1  0  0  0  0
 17 18  1  0  0  0  0
 17 19  1  1  0  0  0
 22 21  1  6  0  0  0
 22 20  1  0  0  0  0
 23 24  1  0  0  0  0
 24 25  1  0  0  0  0
 25 26  1  0  0  0  0
 26 27  1  0  0  0  0
 27 29  1  0  0  0  0
 29 30  1  0  0  0  0
 30 28  1  1  0  0  0
 31 34  1  0  0  0  0
 32 33  1  0  0  0  0
 32 31  1  0  0  0  0
 33 29  1  0  0  0  0
 34 30  1  0  0  0  0
M  END
>  <MODEL>
5

>  <REMARK>
 VINA RESULT:      -7.0      2.316      5.248
  Name = 
  10 active torsions:
  status: ('A' for Active; 'I' for Inactive)
    1  A    between atoms: C_3  and  N_13
    2  A    between atoms: C_3  and  C_17
    3  A    between atoms: O_5  and  C_18
    4  A    between atoms: O_5  and  C_31
    5  A    between atoms: C_7  and  C_23
    6  A    between atoms: C_17  and  C_29
    7  A    between atoms: C_18  and  C_29
    8  A    between atoms: C_21  and  C_28
    9  A    between atoms: C_23  and  C_27
   10  A    between atoms: C_23  and  C_28
                            x       y       z     vdW  Elec       q    Type
                         _______ _______ _______ _____ _____    ______ ____

>  <TORSDO>
F 10

$$$$
=
 OpenBabel11052414193D

 34 37  0  0  1  0  0  0  0  0999 V2000
  184.9730  175.9370  136.4350 C   0  0  0  0  0  0  0  0  0  0  0  0
  187.3490  176.5740  136.2130 C   0  0  0  0  0  0  0  0  0  0  0  0
  185.8680  177.6910  137.8820 C   0  0  0  0  0  0  0  0  0  0  0  0
  186.5900  174.4520  135.2350 C   0  0  0  0  0  2  0  0  0  0  0  0
  187.5370  175.5200  135.3120 O   0  0  0  0  0  0  0  0  0  0  0  0
  188.1110  178.5050  137.3540 O   0  0  0  0  0  0  0  0  0  0  0  0
  186.0450  176.7300  136.8710 C   0  0  0  0  0  0  0  0  0  0  0  0
  185.1540  174.9850  135.2860 C   0  0  0  0  0  2  0  0  0  0  0  0
  184.5980  177.8410  138.4760 C   0  0  0  0  0  0  0  0  0  0  0  0
  183.7080  176.1210  136.9950 C   0  0  0  0  0  3  0  0  0  0  0  0
  188.3130  177.4610  136.4410 C   0  0  0  0  0  3  0  0  0  0  0  0
  187.0670  178.4930  138.3420 C   0  0  2  0  0  3  0  0  0  0  0  0
  183.5230  177.0650  138.0100 C   0  0  0  0  0  3  0  0  0  0  0  0
  183.4790  179.9670  138.9930 C   0  0  0  0  0  1  0  0  0  0  0  0
  184.3660  178.8610  139.5590 C   0  0  1  0  0  3  0  0  0  0  0  0
  183.8030  178.2360  140.8650 C   0  0  1  0  0  3  0  0  0  0  0  0
  184.6390  178.6280  142.1080 C   0  0  1  0  0  3  0  0  0  0  0  0
  184.9970  177.5030  142.8520 O   0  0  0  0  0  1  0  0  0  0  0  0
  185.9070  179.3780  141.7440 C   0  0  0  0  0  1  0  0  0  0  0  0
  181.8610  179.0030  142.7520 S   0  0  0  0  0  1  0  0  0  0  0  0
  181.5060  177.5050  140.5910 O   0  0  0  0  0  1  0  0  0  0  0  0
  182.3030  178.5580  141.0400 C   0  0  2  0  0  3  0  0  0  0  0  0
  187.5570  177.9520  139.5360 O   0  0  0  0  0  0  0  0  0  0  0  0
  188.8700  178.4220  139.6380 C   0  0  0  0  0  2  0  0  0  0  0  0
  189.6830  177.5010  140.5260 C   0  0  0  0  0  2  0  0  0  0  0  0
  189.3430  177.7670  141.9760 C   0  0  0  0  0  2  0  0  0  0  0  0
  188.8760  176.4900  142.6440 C   0  0  0  0  0  2  0  0  0  0  0  0
  191.4940  175.6300  143.6950 O   0  0  0  0  0  1  0  0  0  0  0  0
  189.3310  176.4750  144.0260 N   0  0  0  0  0  0  0  0  0  0  0  0
  190.7720  176.7820  144.0200 C   0  0  1  0  0  3  0  0  0  0  0  0
  190.3300  176.9700  146.5070 C   0  0  0  0  0  2  0  0  0  0  0  0
  188.9200  177.5010  146.2260 C   0  0  0  0  0  2  0  0  0  0  0  0
  188.6010  177.5310  144.7270 C   0  0  0  0  0  2  0  0  0  0  0  0
  191.2800  177.3290  145.3680 C   0  0  0  0  0  2  0  0  0  0  0  0
  1  7  2  0  0  0  0
  1 10  1  0  0  0  0
  2 11  2  0  0  0  0
  2  7  1  0  0  0  0
  3 12  1  0  0  0  0
  3  9  2  0  0  0  0
  4  8  1  0  0  0  0
  4  5  1  0  0  0  0
  5  2  1  0  0  0  0
  6 12  1  0  0  0  0
  7  3  1  0  0  0  0
  8  1  1  0  0  0  0
  9 15  1  0  0  0  0
 10 13  2  0  0  0  0
 11  6  1  0  0  0  0
 12 23  1  1  0  0  0
 13  9  1  0  0  0  0
 15 14  1  6  0  0  0
 16 15  1  6  0  0  0
 16 22  1  0  0  0  0
 16 17  1  0  0  0  0
 17 19  1  6  0  0  0
 17 18  1  0  0  0  0
 22 21  1  1  0  0  0
 22 20  1  0  0  0  0
 23 24  1  0  0  0  0
 24 25  1  0  0  0  0
 25 26  1  0  0  0  0
 26 27  1  0  0  0  0
 27 29  1  0  0  0  0
 29 33  1  0  0  0  0
 30 28  1  1  0  0  0
 30 29  1  0  0  0  0
 30 34  1  0  0  0  0
 32 31  1  0  0  0  0
 33 32  1  0  0  0  0
 34 31  1  0  0  0  0
M  END
>  <MODEL>
6

>  <REMARK>
 VINA RESULT:      -6.9      3.083      5.611
  Name = 
  10 active torsions:
  status: ('A' for Active; 'I' for Inactive)
    1  A    between atoms: C_3  and  N_13
    2  A    between atoms: C_3  and  C_17
    3  A    between atoms: O_5  and  C_18
    4  A    between atoms: O_5  and  C_31
    5  A    between atoms: C_7  and  C_23
    6  A    between atoms: C_17  and  C_29
    7  A    between atoms: C_18  and  C_29
    8  A    between atoms: C_21  and  C_28
    9  A    between atoms: C_23  and  C_27
   10  A    between atoms: C_23  and  C_28
                            x       y       z     vdW  Elec       q    Type
                         _______ _______ _______ _____ _____    ______ ____

>  <TORSDO>
F 10

$$$$
=
 OpenBabel11052414193D

 34 37  0  0  1  0  0  0  0  0999 V2000
  187.9930  177.5250  143.0340 C   0  0  0  0  0  0  0  0  0  0  0  0
  185.7530  178.5610  143.1310 C   0  0  0  0  0  0  0  0  0  0  0  0
  186.9400  178.2620  140.9560 C   0  0  0  0  0  0  0  0  0  0  0  0
  186.5570  177.2820  145.0680 C   0  0  0  0  0  2  0  0  0  0  0  0
  185.6820  178.2560  144.4940 O   0  0  0  0  0  0  0  0  0  0  0  0
  184.9030  179.5930  141.1750 O   0  0  0  0  0  0  0  0  0  0  0  0
  186.9070  178.0940  142.3510 C   0  0  0  0  0  0  0  0  0  0  0  0
  187.9850  177.4430  144.5350 C   0  0  0  0  0  2  0  0  0  0  0  0
  188.0740  177.8320  140.2360 C   0  0  0  0  0  0  0  0  0  0  0  0
  189.1310  177.1420  142.3210 C   0  0  0  0  0  3  0  0  0  0  0  0
  184.8210  179.3060  142.5450 C   0  0  0  0  0  3  0  0  0  0  0  0
  185.7260  178.8460  140.2650 C   0  0  2  0  0  3  0  0  0  0  0  0
  189.1690  177.2930  140.9320 C   0  0  0  0  0  3  0  0  0  0  0  0
  189.3270  178.9150  138.4200 C   0  0  0  0  0  1  0  0  0  0  0  0
  188.1490  177.9980  138.7410 C   0  0  1  0  0  3  0  0  0  0  0  0
  188.2090  176.6420  137.9860 C   0  0  1  0  0  3  0  0  0  0  0  0
  187.1410  176.5480  136.8690 C   0  0  1  0  0  3  0  0  0  0  0  0
  186.0550  175.7680  137.2710 O   0  0  0  0  0  1  0  0  0  0  0  0
  186.6160  177.9090  136.4490 C   0  0  0  0  0  1  0  0  0  0  0  0
  189.6680  175.8770  135.7050 S   0  0  0  0  0  1  0  0  0  0  0  0
  190.2650  175.3810  138.2410 O   0  0  0  0  0  1  0  0  0  0  0  0
  189.6330  176.3520  137.4650 C   0  0  2  0  0  3  0  0  0  0  0  0
  184.9760  177.8130  139.6930 O   0  0  0  0  0  0  0  0  0  0  0  0
  184.0130  178.4530  138.9060 C   0  0  0  0  0  2  0  0  0  0  0  0
  182.8800  177.4960  138.5930 C   0  0  0  0  0  2  0  0  0  0  0  0
  182.2990  176.9600  139.8820 C   0  0  0  0  0  2  0  0  0  0  0  0
  180.8400  177.3500  139.9980 C   0  0  0  0  0  2  0  0  0  0  0  0
  181.0470  180.2770  139.6980 O   0  0  0  0  0  1  0  0  0  0  0  0
  180.6950  178.3740  141.0220 N   0  0  0  0  0  0  0  0  0  0  0  0
  180.0730  179.5480  140.3880 C   0  0  1  0  0  3  0  0  0  0  0  0
  179.8850  180.2540  142.8130 C   0  0  0  0  0  2  0  0  0  0  0  0
  179.6970  178.7930  143.2330 C   0  0  0  0  0  2  0  0  0  0  0  0
  179.8010  177.8300  142.0450 C   0  0  0  0  0  2  0  0  0  0  0  0
  179.3710  180.4800  141.3940 C   0  0  0  0  0  2  0  0  0  0  0  0
  1  8  1  0  0  0  0
  2  5  1  0  0  0  0
  3  7  2  0  0  0  0
  5  4  1  0  0  0  0
  6 11  1  0  0  0  0
  7  1  1  0  0  0  0
  7  2  1  0  0  0  0
  8  4  1  0  0  0  0
  9 13  2  0  0  0  0
  9  3  1  0  0  0  0
 10  1  2  0  0  0  0
 11  2  2  0  0  0  0
 12 23  1  1  0  0  0
 12  3  1  0  0  0  0
 12  6  1  0  0  0  0
 13 10  1  0  0  0  0
 15 14  1  1  0  0  0
 15  9  1  0  0  0  0
 16 17  1  6  0  0  0
 16 15  1  0  0  0  0
 17 19  1  1  0  0  0
 17 18  1  0  0  0  0
 22 20  1  6  0  0  0
 22 16  1  0  0  0  0
 22 21  1  0  0  0  0
 24 23  1  0  0  0  0
 25 24  1  0  0  0  0
 25 26  1  0  0  0  0
 26 27  1  0  0  0  0
 27 29  1  0  0  0  0
 29 33  1  0  0  0  0
 30 28  1  1  0  0  0
 30 29  1  0  0  0  0
 30 34  1  0  0  0  0
 31 32  1  0  0  0  0
 33 32  1  0  0  0  0
 34 31  1  0  0  0  0
M  END
>  <MODEL>
7

>  <REMARK>
 VINA RESULT:      -6.8      3.362      7.583
  Name = 
  10 active torsions:
  status: ('A' for Active; 'I' for Inactive)
    1  A    between atoms: C_3  and  N_13
    2  A    between atoms: C_3  and  C_17
    3  A    between atoms: O_5  and  C_18
    4  A    between atoms: O_5  and  C_31
    5  A    between atoms: C_7  and  C_23
    6  A    between atoms: C_17  and  C_29
    7  A    between atoms: C_18  and  C_29
    8  A    between atoms: C_21  and  C_28
    9  A    between atoms: C_23  and  C_27
   10  A    between atoms: C_23  and  C_28
                            x       y       z     vdW  Elec       q    Type
                         _______ _______ _______ _____ _____    ______ ____

>  <TORSDO>
F 10

$$$$
=
 OpenBabel11052414193D

 34 37  0  0  1  0  0  0  0  0999 V2000
  185.9810  173.5900  137.0460 C   0  0  0  0  0  0  0  0  0  0  0  0
  187.7570  174.9360  135.9820 C   0  0  0  0  0  0  0  0  0  0  0  0
  185.7130  176.0160  136.9220 C   0  0  0  0  0  0  0  0  0  0  0  0
  188.2590  172.6290  136.6590 C   0  0  0  0  0  2  0  0  0  0  0  0
  188.5500  173.7890  135.8760 O   0  0  0  0  0  0  0  0  0  0  0  0
  187.3290  177.2250  135.5450 O   0  0  0  0  0  0  0  0  0  0  0  0
  186.4660  174.8540  136.6780 C   0  0  0  0  0  0  0  0  0  0  0  0
  186.7520  172.3500  136.6890 C   0  0  0  0  0  2  0  0  0  0  0  0
  184.4620  175.9040  137.5650 C   0  0  0  0  0  0  0  0  0  0  0  0
  184.7230  173.4820  137.6410 C   0  0  0  0  0  3  0  0  0  0  0  0
  188.1310  176.0830  135.4200 C   0  0  0  0  0  3  0  0  0  0  0  0
  186.3010  177.3570  136.5400 C   0  0  2  0  0  3  0  0  0  0  0  0
  183.9710  174.6310  137.9000 C   0  0  0  0  0  3  0  0  0  0  0  0
  182.6560  177.3120  136.6760 C   0  0  0  0  0  1  0  0  0  0  0  0
  183.6240  177.1240  137.8410 C   0  0  1  0  0  3  0  0  0  0  0  0
  182.9140  177.0670  139.2210 C   0  0  1  0  0  3  0  0  0  0  0  0
  183.2630  178.2870  140.1080 C   0  0  1  0  0  3  0  0  0  0  0  0
  183.8040  177.8860  141.3310 O   0  0  0  0  0  1  0  0  0  0  0  0
  184.2480  179.2290  139.4420 C   0  0  0  0  0  1  0  0  0  0  0  0
  180.4140  178.2090  139.8270 S   0  0  0  0  0  1  0  0  0  0  0  0
  180.9860  175.6330  139.5540 O   0  0  0  0  0  1  0  0  0  0  0  0
  181.3900  176.8730  139.0610 C   0  0  2  0  0  3  0  0  0  0  0  0
  186.8270  177.9760  137.6790 O   0  0  0  0  0  0  0  0  0  0  0  0
  187.9120  178.7270  137.2180 C   0  0  0  0  0  2  0  0  0  0  0  0
  189.0560  178.6490  138.2110 C   0  0  0  0  0  2  0  0  0  0  0  0
  188.9090  177.4030  139.0550 C   0  0  0  0  0  2  0  0  0  0  0  0
  189.6880  177.5520  140.3450 C   0  0  0  0  0  2  0  0  0  0  0  0
  190.3180  175.6250  142.4870 O   0  0  0  0  0  1  0  0  0  0  0  0
  188.8520  177.1420  141.4630 N   0  0  0  0  0  0  0  0  0  0  0  0
  189.7410  176.8930  142.6110 C   0  0  1  0  0  3  0  0  0  0  0  0
  187.5080  176.8180  143.8060 C   0  0  0  0  0  2  0  0  0  0  0  0
  186.9470  177.8700  142.8440 C   0  0  0  0  0  2  0  0  0  0  0  0
  187.9590  178.2630  141.7610 C   0  0  0  0  0  2  0  0  0  0  0  0
  189.0170  176.9830  143.9680 C   0  0  0  0  0  2  0  0  0  0  0  0
  1 10  1  0  0  0  0
  2  7  1  0  0  0  0
  3  9  2  0  0  0  0
  4  8  1  0  0  0  0
  5  2  1  0  0  0  0
  5  4  1  0  0  0  0
  6 12  1  0  0  0  0
  7  3  1  0  0  0  0
  7  1  2  0  0  0  0
  8  1  1  0  0  0  0
  9 15  1  0  0  0  0
  9 13  1  0  0  0  0
 10 13  2  0  0  0  0
 11  6  1  0  0  0  0
 11  2  2  0  0  0  0
 12  3  1  0  0  0  0
 12 23  1  1  0  0  0
 15 14  1  6  0  0  0
 16 15  1  6  0  0  0
 16 17  1  0  0  0  0
 17 19  1  6  0  0  0
 17 18  1  0  0  0  0
 22 16  1  0  0  0  0
 22 21  1  1  0  0  0
 22 20  1  0  0  0  0
 24 23  1  0  0  0  0
 24 25  1  0  0  0  0
 25 26  1  0  0  0  0
 26 27  1  0  0  0  0
 27 29  1  0  0  0  0
 29 33  1  0  0  0  0
 29 30  1  0  0  0  0
 30 28  1  6  0  0  0
 30 34  1  0  0  0  0
 31 34  1  0  0  0  0
 32 31  1  0  0  0  0
 33 32  1  0  0  0  0
M  END
>  <MODEL>
8

>  <REMARK>
 VINA RESULT:      -6.8      3.713      5.993
  Name = 
  10 active torsions:
  status: ('A' for Active; 'I' for Inactive)
    1  A    between atoms: C_3  and  N_13
    2  A    between atoms: C_3  and  C_17
    3  A    between atoms: O_5  and  C_18
    4  A    between atoms: O_5  and  C_31
    5  A    between atoms: C_7  and  C_23
    6  A    between atoms: C_17  and  C_29
    7  A    between atoms: C_18  and  C_29
    8  A    between atoms: C_21  and  C_28
    9  A    between atoms: C_23  and  C_27
   10  A    between atoms: C_23  and  C_28
                            x       y       z     vdW  Elec       q    Type
                         _______ _______ _______ _____ _____    ______ ____

>  <TORSDO>
F 10

$$$$
=
 OpenBabel11052414193D

 34 37  0  0  1  0  0  0  0  0999 V2000
  186.1560  175.4940  136.0190 C   0  0  0  0  0  0  0  0  0  0  0  0
  187.5010  176.7830  137.6410 C   0  0  0  0  0  0  0  0  0  0  0  0
  185.0880  177.3020  137.2690 C   0  0  0  0  0  0  0  0  0  0  0  0
  188.3520  174.6220  136.8420 C   0  0  0  0  0  2  0  0  0  0  0  0
  188.5680  175.9010  137.4420 O   0  0  0  0  0  0  0  0  0  0  0  0
  186.5630  178.7490  138.5730 O   0  0  0  0  0  0  0  0  0  0  0  0
  186.2170  176.5150  136.9800 C   0  0  0  0  0  0  0  0  0  0  0  0
  187.3960  174.7280  135.6490 C   0  0  0  0  0  2  0  0  0  0  0  0
  183.8760  177.0420  136.5970 C   0  0  0  0  0  0  0  0  0  0  0  0
  184.9660  175.2720  135.3250 C   0  0  0  0  0  3  0  0  0  0  0  0
  187.6460  177.8820  138.3760 C   0  0  0  0  0  3  0  0  0  0  0  0
  185.1980  178.3650  138.3410 C   0  0  2  0  0  3  0  0  0  0  0  0
  183.8340  176.0390  135.6140 C   0  0  0  0  0  3  0  0  0  0  0  0
  181.8980  178.0680  135.5610 C   0  0  0  0  0  1  0  0  0  0  0  0
  182.6460  177.8640  136.8760 C   0  0  1  0  0  3  0  0  0  0  0  0
  181.7560  177.2570  137.9950 C   0  0  1  0  0  3  0  0  0  0  0  0
  181.1400  178.3470  138.9070 C   0  0  1  0  0  3  0  0  0  0  0  0
  181.3320  178.0450  140.2570 O   0  0  0  0  0  1  0  0  0  0  0  0
  181.7210  179.7240  138.6430 C   0  0  0  0  0  1  0  0  0  0  0  0
  178.9890  176.7510  137.9010 S   0  0  0  0  0  1  0  0  0  0  0  0
  180.9590  174.9800  137.7440 O   0  0  0  0  0  1  0  0  0  0  0  0
  180.6890  176.3070  137.4110 C   0  0  2  0  0  3  0  0  0  0  0  0
  184.6370  177.8850  139.5300 O   0  0  0  0  0  0  0  0  0  0  0  0
  184.7960  178.9230  140.4540 C   0  0  0  0  0  2  0  0  0  0  0  0
  184.3570  178.4630  141.8310 C   0  0  0  0  0  2  0  0  0  0  0  0
  185.0700  179.2780  142.8870 C   0  0  0  0  0  2  0  0  0  0  0  0
  184.9250  178.6150  144.2410 C   0  0  0  0  0  2  0  0  0  0  0  0
  185.6750  179.3880  146.9870 O   0  0  0  0  0  1  0  0  0  0  0  0
  186.2310  178.5280  144.8770 N   0  0  0  0  0  0  0  0  0  0  0  0
  186.0100  178.2170  146.3000 C   0  0  1  0  0  3  0  0  0  0  0  0
  188.5140  177.8500  146.1920 C   0  0  0  0  0  2  0  0  0  0  0  0
  188.3870  177.3460  144.7510 C   0  0  0  0  0  2  0  0  0  0  0  0
  186.9460  177.4250  144.2340 C   0  0  0  0  0  2  0  0  0  0  0  0
  187.2350  177.5720  146.9770 C   0  0  0  0  0  2  0  0  0  0  0  0
  1  7  1  0  0  0  0
  2 11  2  0  0  0  0
  3 12  1  0  0  0  0
  4  5  1  0  0  0  0
  5  2  1  0  0  0  0
  7  3  2  0  0  0  0
  7  2  1  0  0  0  0
  8  1  1  0  0  0  0
  8  4  1  0  0  0  0
  9 15  1  0  0  0  0
  9  3  1  0  0  0  0
 10 13  1  0  0  0  0
 10  1  2  0  0  0  0
 11  6  1  0  0  0  0
 12  6  1  0  0  0  0
 12 23  1  1  0  0  0
 13  9  2  0  0  0  0
 15 14  1  6  0  0  0
 16 15  1  6  0  0  0
 16 17  1  0  0  0  0
 17 19  1  6  0  0  0
 17 18  1  0  0  0  0
 22 21  1  1  0  0  0
 22 20  1  0  0  0  0
 22 16  1  0  0  0  0
 23 24  1  0  0  0  0
 24 25  1  0  0  0  0
 25 26  1  0  0  0  0
 26 27  1  0  0  0  0
 27 29  1  0  0  0  0
 29 30  1  0  0  0  0
 30 34  1  0  0  0  0
 30 28  1  1  0  0  0
 31 34  1  0  0  0  0
 32 31  1  0  0  0  0
 33 32  1  0  0  0  0
 33 29  1  0  0  0  0
M  END
>  <MODEL>
9

>  <REMARK>
 VINA RESULT:      -6.8      3.384      6.179
  Name = 
  10 active torsions:
  status: ('A' for Active; 'I' for Inactive)
    1  A    between atoms: C_3  and  N_13
    2  A    between atoms: C_3  and  C_17
    3  A    between atoms: O_5  and  C_18
    4  A    between atoms: O_5  and  C_31
    5  A    between atoms: C_7  and  C_23
    6  A    between atoms: C_17  and  C_29
    7  A    between atoms: C_18  and  C_29
    8  A    between atoms: C_21  and  C_28
    9  A    between atoms: C_23  and  C_27
   10  A    between atoms: C_23  and  C_28
                            x       y       z     vdW  Elec       q    Type
                         _______ _______ _______ _____ _____    ______ ____

>  <TORSDO>
F 10

$$$$
