=
 OpenBabel11052413433D

 27 32  0  0  1  0  0  0  0  0999 V2000
  181.6410  178.2430  140.9680 C   0  0  0  0  0  2  0  0  0  0  0  0
  182.9520  178.6650  138.8410 C   0  0  1  0  0  3  0  0  0  0  0  0
  184.5560  179.6020  140.6330 C   0  0  0  0  0  2  0  0  0  0  0  0
  186.2120  176.9750  136.5080 C   0  0  0  0  0  2  0  0  0  0  0  0
  188.0670  177.6100  137.6220 C   0  0  0  0  0  2  0  0  0  0  0  0
  183.1650  177.2200  138.7580 N   0  0  0  0  0  2  0  0  0  0  0  0
  186.5790  178.2530  139.0930 O   0  0  0  0  0  0  0  0  0  0  0  0
  186.0060  177.6840  143.3520 C   0  0  0  0  0  2  0  0  0  0  0  0
  187.4160  178.7300  138.1880 O   0  0  0  0  0  0  0  0  0  0  0  0
  185.4200  178.7590  144.2670 C   0  0  0  0  0  2  0  0  0  0  0  0
  185.2940  178.3540  138.5250 C   0  0  2  0  0  0  0  0  0  0  0  0
  181.8680  179.0320  139.7580 N   0  0  0  0  0  0  0  0  0  0  0  0
  187.1810  176.5330  137.4230 O   0  0  0  0  0  0  0  0  0  0  0  0
  185.0030  177.6650  137.1760 C   0  0  2  0  0  3  0  0  0  0  0  0
  182.1690  179.0030  142.1730 C   0  0  0  0  0  2  0  0  0  0  0  0
  184.2940  179.3270  139.1340 C   0  0  1  0  0  3  0  0  0  0  0  0
  185.8980  178.1250  141.8910 C   0  0  0  0  0  2  0  0  0  0  0  0
  184.5930  177.0040  138.4900 C   0  0  2  0  0  3  0  0  0  0  0  0
  184.1250  179.3650  143.7140 C   0  0  0  0  0  2  0  0  0  0  0  0
  183.5620  178.5170  142.5710 C   0  0  2  0  0  3  0  0  0  0  0  0
  184.5150  178.3790  141.4400 N   0  0  1  0  0  0  0  0  0  0  0  0
  179.3880  182.3730  138.8610 C   0  0  0  0  0  3  0  0  0  0  0  0
  181.0270  180.1660  139.4560 C   0  0  0  0  0  0  0  0  0  0  0  0
  181.3530  181.0380  138.4010 C   0  0  0  0  0  3  0  0  0  0  0  0
  180.5380  182.1340  138.1070 C   0  0  0  0  0  3  0  0  0  0  0  0
  179.0500  181.5150  139.9110 C   0  0  0  0  0  3  0  0  0  0  0  0
  179.8650  180.4180  140.2050 C   0  0  0  0  0  3  0  0  0  0  0  0
  1 15  1  0  0  0  0
  2  6  1  1  0  0  0
  2 16  1  0  0  0  0
  2 12  1  0  0  0  0
  4 13  1  0  0  0  0
  5  9  1  0  0  0  0
  8 10  1  0  0  0  0
  9  7  1  0  0  0  0
 11  7  1  1  0  0  0
 11 16  1  0  0  0  0
 12  1  1  0  0  0  0
 13  5  1  0  0  0  0
 14  4  1  1  0  0  0
 14 18  1  0  0  0  0
 14 11  1  0  0  0  0
 16  3  1  1  0  0  0
 17  8  1  0  0  0  0
 18 11  1  0  0  0  0
 18  6  1  6  0  0  0
 19 10  1  0  0  0  0
 20 15  1  6  0  0  0
 20 19  1  0  0  0  0
 21  3  1  1  0  0  0
 21 17  1  0  0  0  0
 21 20  1  0  0  0  0
 22 26  1  0  0  0  0
 23 12  1  0  0  0  0
 23 27  1  0  0  0  0
 24 23  2  0  0  0  0
 25 24  1  0  0  0  0
 25 22  2  0  0  0  0
 26 27  2  0  0  0  0
M  END
>  <MODEL>
1

>  <REMARK>
 VINA RESULT:      -6.3      0.000      0.000
  Name = 
  1 active torsions:
  status: ('A' for Active; 'I' for Inactive)
    1  A    between atoms: C_9  and  N_15
                            x       y       z     vdW  Elec       q    Type
                         _______ _______ _______ _____ _____    ______ ____

>  <TORSDO>
F 1

$$$$
=
 OpenBabel11052413433D

 27 32  0  0  1  0  0  0  0  0999 V2000
  181.1650  177.2510  140.3590 C   0  0  0  0  0  2  0  0  0  0  0  0
  181.0750  179.7830  140.3170 C   0  0  1  0  0  3  0  0  0  0  0  0
  182.5760  179.2840  138.2770 C   0  0  0  0  0  2  0  0  0  0  0  0
  179.0370  183.0440  138.2810 C   0  0  0  0  0  2  0  0  0  0  0  0
  180.0790  183.1780  136.2860 C   0  0  0  0  0  2  0  0  0  0  0  0
  179.6810  179.6660  139.8900 N   0  0  0  0  0  2  0  0  0  0  0  0
  180.9980  181.3230  136.9980 O   0  0  0  0  0  0  0  0  0  0  0  0
  181.5820  177.3470  135.3720 C   0  0  0  0  0  2  0  0  0  0  0  0
  181.2640  182.6020  136.7980 O   0  0  0  0  0  0  0  0  0  0  0  0
  182.8240  176.5030  135.6570 C   0  0  0  0  0  2  0  0  0  0  0  0
  180.8510  181.1690  138.3910 C   0  0  2  0  0  0  0  0  0  0  0  0
  181.6050  178.5410  140.8890 N   0  0  0  0  0  0  0  0  0  0  0  0
  178.9310  182.6770  136.9310 O   0  0  0  0  0  0  0  0  0  0  0  0
  179.8000  182.0120  139.1410 C   0  0  2  0  0  3  0  0  0  0  0  0
  182.2600  176.6640  139.4860 C   0  0  0  0  0  2  0  0  0  0  0  0
  181.8830  180.3510  139.1550 C   0  0  1  0  0  3  0  0  0  0  0  0
  181.5960  178.6070  136.2400 C   0  0  0  0  0  2  0  0  0  0  0  0
  179.4990  180.5690  138.7450 C   0  0  2  0  0  3  0  0  0  0  0  0
  183.1640  176.4350  137.1490 C   0  0  0  0  0  2  0  0  0  0  0  0
  181.9990  176.9350  138.0060 C   0  0  2  0  0  3  0  0  0  0  0  0
  181.6210  178.3370  137.6920 N   0  0  1  0  0  0  0  0  0  0  0  0
  184.4030  178.7200  144.0920 C   0  0  0  0  0  3  0  0  0  0  0  0
  182.5530  178.6000  141.9760 C   0  0  0  0  0  0  0  0  0  0  0  0
  183.9110  178.3050  141.7600 C   0  0  0  0  0  3  0  0  0  0  0  0
  184.8280  178.3640  142.8110 C   0  0  0  0  0  3  0  0  0  0  0  0
  183.0570  179.0180  144.3230 C   0  0  0  0  0  3  0  0  0  0  0  0
  182.1400  178.9590  143.2710 C   0  0  0  0  0  3  0  0  0  0  0  0
  1 12  1  0  0  0  0
  2  6  1  6  0  0  0
  2 12  1  0  0  0  0
  5  9  1  0  0  0  0
  5 13  1  0  0  0  0
  8 10  1  0  0  0  0
  8 17  1  0  0  0  0
  9  7  1  0  0  0  0
 10 19  1  0  0  0  0
 11  7  1  6  0  0  0
 11 18  1  0  0  0  0
 11 14  1  0  0  0  0
 11 16  1  0  0  0  0
 12 23  1  0  0  0  0
 13  4  1  0  0  0  0
 14  4  1  6  0  0  0
 15  1  1  0  0  0  0
 16  3  1  6  0  0  0
 16  2  1  0  0  0  0
 18 14  1  0  0  0  0
 18  6  1  1  0  0  0
 20 19  1  6  0  0  0
 20 15  1  0  0  0  0
 21 17  1  6  0  0  0
 21 20  1  0  0  0  0
 21  3  1  0  0  0  0
 22 26  1  0  0  0  0
 23 27  1  0  0  0  0
 24 23  2  0  0  0  0
 24 25  1  0  0  0  0
 25 22  2  0  0  0  0
 27 26  2  0  0  0  0
M  END
>  <MODEL>
2

>  <REMARK>
 VINA RESULT:      -6.2      3.082      6.397
  Name = 
  1 active torsions:
  status: ('A' for Active; 'I' for Inactive)
    1  A    between atoms: C_9  and  N_15
                            x       y       z     vdW  Elec       q    Type
                         _______ _______ _______ _____ _____    ______ ____

>  <TORSDO>
F 1

$$$$
=
 OpenBabel11052413433D

 27 32  0  0  1  0  0  0  0  0999 V2000
  188.9100  177.8720  135.6660 C   0  0  0  0  0  2  0  0  0  0  0  0
  188.0240  177.4460  138.0010 C   0  0  1  0  0  3  0  0  0  0  0  0
  189.8670  175.6500  137.8110 C   0  0  0  0  0  2  0  0  0  0  0  0
  188.9740  178.2790  142.1640 C   0  0  0  0  0  2  0  0  0  0  0  0
  190.6070  176.8040  142.6570 C   0  0  0  0  0  2  0  0  0  0  0  0
  188.6570  178.7010  138.4050 N   0  0  0  0  0  2  0  0  0  0  0  0
  190.5100  176.4590  140.4980 O   0  0  0  0  0  0  0  0  0  0  0  0
  193.3920  176.3180  137.2620 C   0  0  0  0  0  2  0  0  0  0  0  0
  190.1810  175.9060  141.6530 O   0  0  0  0  0  0  0  0  0  0  0  0
  193.2670  175.3670  136.0730 C   0  0  0  0  0  2  0  0  0  0  0  0
  189.3090  176.9470  139.9450 C   0  0  2  0  0  0  0  0  0  0  0  0
  187.8830  177.3180  136.5470 N   0  0  0  0  0  0  0  0  0  0  0  0
  190.3650  178.1460  142.2990 O   0  0  0  0  0  0  0  0  0  0  0  0
  188.4580  177.9520  140.7460 C   0  0  2  0  0  3  0  0  0  0  0  0
  189.7720  176.7450  135.1250 C   0  0  0  0  0  2  0  0  0  0  0  0
  188.7640  176.2990  138.6790 C   0  0  1  0  0  3  0  0  0  0  0  0
  192.1270  176.2530  138.1200 C   0  0  0  0  0  2  0  0  0  0  0  0
  189.3990  178.4350  139.6450 C   0  0  2  0  0  3  0  0  0  0  0  0
  191.8730  175.3960  135.4360 C   0  0  0  0  0  2  0  0  0  0  0  0
  191.0680  176.6030  135.9210 C   0  0  2  0  0  3  0  0  0  0  0  0
  190.8900  176.6140  137.3960 N   0  0  1  0  0  0  0  0  0  0  0  0
  184.4800  175.3540  134.9120 C   0  0  0  0  0  3  0  0  0  0  0  0
  186.7280  176.6510  135.9950 C   0  0  0  0  0  0  0  0  0  0  0  0
  185.7970  177.3600  135.2150 C   0  0  0  0  0  3  0  0  0  0  0  0
  184.6800  176.7150  134.6780 C   0  0  0  0  0  3  0  0  0  0  0  0
  185.3970  174.6350  135.6820 C   0  0  0  0  0  3  0  0  0  0  0  0
  186.5140  175.2810  136.2190 C   0  0  0  0  0  3  0  0  0  0  0  0
  1 12  1  0  0  0  0
  2  6  1  6  0  0  0
  2 16  1  0  0  0  0
  4 13  1  0  0  0  0
  7  9  1  0  0  0  0
  8 17  1  0  0  0  0
  9  5  1  0  0  0  0
 10  8  1  0  0  0  0
 11  7  1  1  0  0  0
 11 14  1  0  0  0  0
 12  2  1  0  0  0  0
 13  5  1  0  0  0  0
 14  4  1  1  0  0  0
 15  1  1  0  0  0  0
 16  3  1  6  0  0  0
 16 11  1  0  0  0  0
 18  6  1  6  0  0  0
 18 11  1  0  0  0  0
 18 14  1  0  0  0  0
 19 20  1  0  0  0  0
 19 10  1  0  0  0  0
 20 15  1  6  0  0  0
 20 21  1  0  0  0  0
 21  3  1  6  0  0  0
 21 17  1  0  0  0  0
 22 26  1  0  0  0  0
 23 27  1  0  0  0  0
 23 12  1  0  0  0  0
 24 23  2  0  0  0  0
 25 22  2  0  0  0  0
 25 24  1  0  0  0  0
 26 27  2  0  0  0  0
M  END
>  <MODEL>
3

>  <REMARK>
 VINA RESULT:      -6.2      5.457      7.829
  Name = 
  1 active torsions:
  status: ('A' for Active; 'I' for Inactive)
    1  A    between atoms: C_9  and  N_15
                            x       y       z     vdW  Elec       q    Type
                         _______ _______ _______ _____ _____    ______ ____

>  <TORSDO>
F 1

$$$$
=
 OpenBabel11052413433D

 27 32  0  0  1  0  0  0  0  0999 V2000
  189.4310  178.6250  139.0690 C   0  0  0  0  0  2  0  0  0  0  0  0
  190.7720  176.4760  139.0810 C   0  0  1  0  0  3  0  0  0  0  0  0
  188.6900  175.7800  137.7220 C   0  0  0  0  0  2  0  0  0  0  0  0
  193.4530  174.1700  136.5460 C   0  0  0  0  0  2  0  0  0  0  0  0
  192.0760  173.1490  135.0810 C   0  0  0  0  0  2  0  0  0  0  0  0
  191.7090  177.1270  138.1660 N   0  0  0  0  0  2  0  0  0  0  0  0
  190.6100  174.4770  136.0200 O   0  0  0  0  0  0  0  0  0  0  0  0
  187.6340  177.2870  134.5940 C   0  0  0  0  0  2  0  0  0  0  0  0
  190.9830  173.2090  135.9750 O   0  0  0  0  0  0  0  0  0  0  0  0
  186.2900  177.5040  135.2880 C   0  0  0  0  0  2  0  0  0  0  0  0
  191.0730  174.9740  137.2550 C   0  0  2  0  0  0  0  0  0  0  0  0
  189.8880  177.4240  139.7660 N   0  0  0  0  0  0  0  0  0  0  0  0
  192.9450  174.2470  135.2400 O   0  0  0  0  0  0  0  0  0  0  0  0
  192.5750  174.8910  137.5920 C   0  0  2  0  0  3  0  0  0  0  0  0
  187.9840  178.4410  138.6430 C   0  0  0  0  0  2  0  0  0  0  0  0
  190.0560  175.3670  138.3180 C   0  0  1  0  0  3  0  0  0  0  0  0
  188.5230  176.3800  135.4460 C   0  0  0  0  0  2  0  0  0  0  0  0
  191.9680  176.1890  137.0650 C   0  0  2  0  0  3  0  0  0  0  0  0
  186.4320  177.7240  136.7970 C   0  0  0  0  0  2  0  0  0  0  0  0
  187.8850  178.0120  137.1800 C   0  0  2  0  0  3  0  0  0  0  0  0
  188.8050  176.9110  136.7960 N   0  0  1  0  0  0  0  0  0  0  0  0
  188.6960  176.6760  143.7830 C   0  0  0  0  0  3  0  0  0  0  0  0
  189.4820  177.1690  141.1280 C   0  0  0  0  0  0  0  0  0  0  0  0
  190.2790  176.3810  141.9770 C   0  0  0  0  0  3  0  0  0  0  0  0
  189.8870  176.1350  143.2960 C   0  0  0  0  0  3  0  0  0  0  0  0
  187.8950  177.4640  142.9530 C   0  0  0  0  0  3  0  0  0  0  0  0
  188.2870  177.7090  141.6340 C   0  0  0  0  0  3  0  0  0  0  0  0
  1 12  1  0  0  0  0
  2  6  1  6  0  0  0
  2 12  1  0  0  0  0
  5 13  1  0  0  0  0
  5  9  1  0  0  0  0
  8 10  1  0  0  0  0
  8 17  1  0  0  0  0
  9  7  1  0  0  0  0
 10 19  1  0  0  0  0
 11  7  1  6  0  0  0
 11 14  1  0  0  0  0
 11 16  1  0  0  0  0
 12 23  1  0  0  0  0
 13  4  1  0  0  0  0
 14  4  1  6  0  0  0
 15  1  1  0  0  0  0
 16  3  1  6  0  0  0
 16  2  1  0  0  0  0
 18 11  1  0  0  0  0
 18 14  1  0  0  0  0
 18  6  1  1  0  0  0
 20 19  1  1  0  0  0
 20 15  1  0  0  0  0
 21 17  1  6  0  0  0
 21 20  1  0  0  0  0
 21  3  1  0  0  0  0
 23 27  2  0  0  0  0
 23 24  1  0  0  0  0
 24 25  2  0  0  0  0
 25 22  1  0  0  0  0
 26 22  2  0  0  0  0
 27 26  1  0  0  0  0
M  END
>  <MODEL>
4

>  <REMARK>
 VINA RESULT:      -6.1      5.338      8.266
  Name = 
  1 active torsions:
  status: ('A' for Active; 'I' for Inactive)
    1  A    between atoms: C_9  and  N_15
                            x       y       z     vdW  Elec       q    Type
                         _______ _______ _______ _____ _____    ______ ____

>  <TORSDO>
F 1

$$$$
=
 OpenBabel11052413433D

 27 32  0  0  1  0  0  0  0  0999 V2000
  183.7990  179.2970  139.1760 C   0  0  0  0  0  2  0  0  0  0  0  0
  182.6320  177.0860  139.5880 C   0  0  1  0  0  3  0  0  0  0  0  0
  180.6510  178.6010  138.9250 C   0  0  0  0  0  2  0  0  0  0  0  0
  181.0220  173.6760  137.4180 C   0  0  0  0  0  2  0  0  0  0  0  0
  179.0480  174.4190  136.6220 C   0  0  0  0  0  2  0  0  0  0  0  0
  183.2570  176.5970  138.3590 N   0  0  0  0  0  2  0  0  0  0  0  0
  179.8230  176.3250  137.3700 O   0  0  0  0  0  0  0  0  0  0  0  0
  180.3000  180.3150  135.7440 C   0  0  0  0  0  2  0  0  0  0  0  0
  178.9310  175.3880  137.6440 O   0  0  0  0  0  0  0  0  0  0  0  0
  180.1290  181.5830  136.5800 C   0  0  0  0  0  2  0  0  0  0  0  0
  180.8780  176.1350  138.2840 C   0  0  2  0  0  0  0  0  0  0  0  0
  183.2650  178.3040  140.1060 N   0  0  0  0  0  0  0  0  0  0  0  0
  180.3920  174.1850  136.2710 O   0  0  0  0  0  0  0  0  0  0  0  0
  181.5980  174.7720  138.3410 C   0  0  2  0  0  3  0  0  0  0  0  0
  182.8520  180.4840  139.1070 C   0  0  0  0  0  2  0  0  0  0  0  0
  181.1300  177.1940  139.3490 C   0  0  1  0  0  3  0  0  0  0  0  0
  180.2550  179.0820  136.6490 C   0  0  0  0  0  2  0  0  0  0  0  0
  182.2070  175.9400  137.5680 C   0  0  2  0  0  3  0  0  0  0  0  0
  180.9130  181.5350  137.8950 C   0  0  0  0  0  2  0  0  0  0  0  0
  181.9320  180.3930  137.8910 C   0  0  2  0  0  3  0  0  0  0  0  0
  181.2990  179.0640  137.6940 N   0  0  1  0  0  0  0  0  0  0  0  0
  183.5560  178.9180  144.3080 C   0  0  0  0  0  3  0  0  0  0  0  0
  183.3620  178.5100  141.5320 C   0  0  0  0  0  0  0  0  0  0  0  0
  184.6060  178.4310  142.1830 C   0  0  0  0  0  3  0  0  0  0  0  0
  184.7010  178.6330  143.5620 C   0  0  0  0  0  3  0  0  0  0  0  0
  182.3130  179.0020  143.6750 C   0  0  0  0  0  3  0  0  0  0  0  0
  182.2190  178.8010  142.2950 C   0  0  0  0  0  3  0  0  0  0  0  0
  1 12  1  0  0  0  0
  2  6  1  6  0  0  0
  2 12  1  0  0  0  0
  5  9  1  0  0  0  0
  7  9  1  0  0  0  0
  8 10  1  0  0  0  0
  8 17  1  0  0  0  0
 10 19  1  0  0  0  0
 11  7  1  6  0  0  0
 11 14  1  0  0  0  0
 11 16  1  0  0  0  0
 12 23  1  0  0  0  0
 13  5  1  0  0  0  0
 13  4  1  0  0  0  0
 14  4  1  6  0  0  0
 15  1  1  0  0  0  0
 16  3  1  6  0  0  0
 16  2  1  0  0  0  0
 18 11  1  0  0  0  0
 18 14  1  0  0  0  0
 18  6  1  1  0  0  0
 20 19  1  1  0  0  0
 20 15  1  0  0  0  0
 21 17  1  6  0  0  0
 21 20  1  0  0  0  0
 21  3  1  0  0  0  0
 23 24  2  0  0  0  0
 23 27  1  0  0  0  0
 24 25  1  0  0  0  0
 25 22  2  0  0  0  0
 26 22  1  0  0  0  0
 27 26  2  0  0  0  0
M  END
>  <MODEL>
5

>  <REMARK>
 VINA RESULT:      -6.0      3.435      6.071
  Name = 
  1 active torsions:
  status: ('A' for Active; 'I' for Inactive)
    1  A    between atoms: C_9  and  N_15
                            x       y       z     vdW  Elec       q    Type
                         _______ _______ _______ _____ _____    ______ ____

>  <TORSDO>
F 1

$$$$
=
 OpenBabel11052413433D

 27 32  0  0  1  0  0  0  0  0999 V2000
  181.4430  178.9070  140.5920 C   0  0  0  0  0  2  0  0  0  0  0  0
  183.7470  178.2700  139.7540 C   0  0  1  0  0  3  0  0  0  0  0  0
  182.5170  176.0030  139.6590 C   0  0  0  0  0  2  0  0  0  0  0  0
  185.8840  177.5020  136.0420 C   0  0  0  0  0  2  0  0  0  0  0  0
  185.2410  175.4200  135.4640 C   0  0  0  0  0  2  0  0  0  0  0  0
  183.4370  179.0030  138.5270 N   0  0  0  0  0  2  0  0  0  0  0  0
  183.8430  175.7330  137.1180 O   0  0  0  0  0  0  0  0  0  0  0  0
  179.5640  175.3080  137.6650 C   0  0  0  0  0  2  0  0  0  0  0  0
  184.9450  175.0740  136.8010 O   0  0  0  0  0  0  0  0  0  0  0  0
  178.9320  174.8440  138.9770 C   0  0  0  0  0  2  0  0  0  0  0  0
  184.2510  176.7930  137.9520 C   0  0  2  0  0  0  0  0  0  0  0  0
  182.8470  178.6030  140.8630 N   0  0  0  0  0  0  0  0  0  0  0  0
  185.0090  176.7860  135.2100 O   0  0  0  0  0  0  0  0  0  0  0  0
  185.2970  177.8040  137.4390 C   0  0  2  0  0  3  0  0  0  0  0  0
  180.5840  177.7170  140.9830 C   0  0  0  0  0  2  0  0  0  0  0  0
  183.8280  176.7850  139.4140 C   0  0  1  0  0  3  0  0  0  0  0  0
  181.0650  175.5340  137.8590 C   0  0  0  0  0  2  0  0  0  0  0  0
  183.8080  178.1390  137.3970 C   0  0  2  0  0  3  0  0  0  0  0  0
  179.4690  175.6030  140.1940 C   0  0  0  0  0  2  0  0  0  0  0  0
  180.2400  176.8550  139.7700 C   0  0  2  0  0  3  0  0  0  0  0  0
  181.3930  176.5430  138.8870 N   0  0  1  0  0  0  0  0  0  0  0  0
  184.3500  178.7020  144.8440 C   0  0  0  0  0  3  0  0  0  0  0  0
  183.3550  178.6340  142.2140 C   0  0  0  0  0  0  0  0  0  0  0  0
  184.6940  178.2970  142.4830 C   0  0  0  0  0  3  0  0  0  0  0  0
  185.1870  178.3300  143.7900 C   0  0  0  0  0  3  0  0  0  0  0  0
  183.0190  179.0420  144.5920 C   0  0  0  0  0  3  0  0  0  0  0  0
  182.5260  179.0090  143.2850 C   0  0  0  0  0  3  0  0  0  0  0  0
  1 12  1  0  0  0  0
  1 15  1  0  0  0  0
  2  6  1  6  0  0  0
  2 12  1  0  0  0  0
  5  9  1  0  0  0  0
  8 17  1  0  0  0  0
  8 10  1  0  0  0  0
  9  7  1  0  0  0  0
 10 19  1  0  0  0  0
 11  7  1  6  0  0  0
 11 16  1  0  0  0  0
 12 23  1  0  0  0  0
 13  5  1  0  0  0  0
 13  4  1  0  0  0  0
 14  4  1  6  0  0  0
 14 11  1  0  0  0  0
 16  3  1  6  0  0  0
 16  2  1  0  0  0  0
 18 14  1  0  0  0  0
 18 11  1  0  0  0  0
 18  6  1  1  0  0  0
 20 19  1  1  0  0  0
 20 15  1  0  0  0  0
 21 17  1  6  0  0  0
 21  3  1  0  0  0  0
 21 20  1  0  0  0  0
 23 24  2  0  0  0  0
 23 27  1  0  0  0  0
 24 25  1  0  0  0  0
 25 22  2  0  0  0  0
 26 22  1  0  0  0  0
 27 26  2  0  0  0  0
M  END
>  <MODEL>
6

>  <REMARK>
 VINA RESULT:      -5.9      2.306      4.975
  Name = 
  1 active torsions:
  status: ('A' for Active; 'I' for Inactive)
    1  A    between atoms: C_9  and  N_15
                            x       y       z     vdW  Elec       q    Type
                         _______ _______ _______ _____ _____    ______ ____

>  <TORSDO>
F 1

$$$$
=
 OpenBabel11052413433D

 27 32  0  0  1  0  0  0  0  0999 V2000
  187.0330  176.2440  145.4230 C   0  0  0  0  0  2  0  0  0  0  0  0
  187.7510  177.1900  143.1850 C   0  0  1  0  0  3  0  0  0  0  0  0
  189.3800  178.3790  144.7960 C   0  0  0  0  0  2  0  0  0  0  0  0
  190.8150  176.6680  140.1400 C   0  0  0  0  0  2  0  0  0  0  0  0
  192.6260  177.6950  141.0060 C   0  0  0  0  0  2  0  0  0  0  0  0
  188.3060  175.8720  142.8740 N   0  0  0  0  0  2  0  0  0  0  0  0
  191.3400  177.7750  142.7760 O   0  0  0  0  0  0  0  0  0  0  0  0
  191.7740  176.7130  146.9560 C   0  0  0  0  0  2  0  0  0  0  0  0
  191.8340  178.5390  141.8170 O   0  0  0  0  0  0  0  0  0  0  0  0
  191.1220  177.5030  148.0910 C   0  0  0  0  0  2  0  0  0  0  0  0
  189.9860  177.5650  142.4470 C   0  0  2  0  0  0  0  0  0  0  0  0
  186.8100  177.1640  144.3090 N   0  0  0  0  0  0  0  0  0  0  0  0
  192.0230  176.4350  140.8140 O   0  0  0  0  0  0  0  0  0  0  0  0
  189.6240  176.9390  141.0850 C   0  0  2  0  0  3  0  0  0  0  0  0
  187.5740  177.0160  146.6140 C   0  0  0  0  0  2  0  0  0  0  0  0
  188.9090  178.1690  143.3380 C   0  0  1  0  0  3  0  0  0  0  0  0
  191.2740  177.2280  145.6050 C   0  0  0  0  0  2  0  0  0  0  0  0
  189.6610  176.0820  142.3480 C   0  0  2  0  0  3  0  0  0  0  0  0
  189.6340  177.7720  147.8450 C   0  0  0  0  0  2  0  0  0  0  0  0
  189.0940  176.9010  146.7090 C   0  0  2  0  0  3  0  0  0  0  0  0
  189.8110  177.1280  145.4280 N   0  0  1  0  0  0  0  0  0  0  0  0
  183.4310  179.7530  144.2910 C   0  0  0  0  0  3  0  0  0  0  0  0
  185.6650  178.0440  144.3050 C   0  0  0  0  0  0  0  0  0  0  0  0
  185.2730  178.7040  143.1260 C   0  0  0  0  0  3  0  0  0  0  0  0
  184.1640  179.5530  143.1200 C   0  0  0  0  0  3  0  0  0  0  0  0
  183.8050  179.1030  145.4700 C   0  0  0  0  0  3  0  0  0  0  0  0
  184.9150  178.2530  145.4740 C   0  0  0  0  0  3  0  0  0  0  0  0
  1 15  1  0  0  0  0
  2  6  1  1  0  0  0
  2 16  1  0  0  0  0
  2 12  1  0  0  0  0
  4 13  1  0  0  0  0
  5  9  1  0  0  0  0
  8 10  1  0  0  0  0
  9  7  1  0  0  0  0
 11  7  1  1  0  0  0
 11 16  1  0  0  0  0
 12  1  1  0  0  0  0
 13  5  1  0  0  0  0
 14  4  1  6  0  0  0
 14 18  1  0  0  0  0
 14 11  1  0  0  0  0
 16  3  1  1  0  0  0
 17  8  1  0  0  0  0
 18 11  1  0  0  0  0
 18  6  1  1  0  0  0
 19 10  1  0  0  0  0
 20 15  1  6  0  0  0
 20 19  1  0  0  0  0
 21  3  1  1  0  0  0
 21 17  1  0  0  0  0
 21 20  1  0  0  0  0
 22 26  1  0  0  0  0
 23 12  1  0  0  0  0
 23 27  1  0  0  0  0
 24 23  2  0  0  0  0
 25 24  1  0  0  0  0
 25 22  2  0  0  0  0
 26 27  2  0  0  0  0
M  END
>  <MODEL>
7

>  <REMARK>
 VINA RESULT:      -5.8      4.812      6.684
  Name = 
  1 active torsions:
  status: ('A' for Active; 'I' for Inactive)
    1  A    between atoms: C_9  and  N_15
                            x       y       z     vdW  Elec       q    Type
                         _______ _______ _______ _____ _____    ______ ____

>  <TORSDO>
F 1

$$$$
=
 OpenBabel11052413433D

 27 32  0  0  1  0  0  0  0  0999 V2000
  191.4670  177.9300  140.8460 C   0  0  0  0  0  2  0  0  0  0  0  0
  188.9650  177.7290  140.5010 C   0  0  1  0  0  3  0  0  0  0  0  0
  189.3130  176.2920  142.6170 C   0  0  0  0  0  2  0  0  0  0  0  0
  185.2220  179.3780  141.9840 C   0  0  0  0  0  2  0  0  0  0  0  0
  184.9020  178.3240  143.9510 C   0  0  0  0  0  2  0  0  0  0  0  0
  188.8570  179.1270  140.9190 N   0  0  0  0  0  2  0  0  0  0  0  0
  186.9360  177.6250  143.5450 O   0  0  0  0  0  0  0  0  0  0  0  0
  190.6570  177.4950  145.7660 C   0  0  0  0  0  2  0  0  0  0  0  0
  185.6800  177.2140  143.5520 O   0  0  0  0  0  0  0  0  0  0  0  0
  191.6700  176.3590  145.6340 C   0  0  0  0  0  2  0  0  0  0  0  0
  187.2840  177.7910  142.1900 C   0  0  2  0  0  0  0  0  0  0  0  0
  190.3320  177.3460  140.1330 N   0  0  0  0  0  0  0  0  0  0  0  0
  185.3630  179.5230  143.3730 O   0  0  0  0  0  0  0  0  0  0  0  0
  186.4520  178.7390  141.3030 C   0  0  2  0  0  3  0  0  0  0  0  0
  192.0340  176.9070  141.8160 C   0  0  0  0  0  2  0  0  0  0  0  0
  188.3210  176.8600  141.5760 C   0  0  1  0  0  3  0  0  0  0  0  0
  189.5540  177.3390  144.7170 C   0  0  0  0  0  2  0  0  0  0  0  0
  187.7740  179.2030  141.9100 C   0  0  2  0  0  3  0  0  0  0  0  0
  192.0030  176.0310  144.1740 C   0  0  0  0  0  2  0  0  0  0  0  0
  191.5120  177.1330  143.2330 C   0  0  2  0  0  3  0  0  0  0  0  0
  190.0450  177.3470  143.3240 N   0  0  1  0  0  0  0  0  0  0  0  0
  190.9660  174.5620  136.9770 C   0  0  0  0  0  3  0  0  0  0  0  0
  190.5480  176.4000  139.0640 C   0  0  0  0  0  0  0  0  0  0  0  0
  189.4610  175.8740  138.3440 C   0  0  0  0  0  3  0  0  0  0  0  0
  189.6690  174.9610  137.3080 C   0  0  0  0  0  3  0  0  0  0  0  0
  192.0560  175.0770  137.6820 C   0  0  0  0  0  3  0  0  0  0  0  0
  191.8470  175.9920  138.7180 C   0  0  0  0  0  3  0  0  0  0  0  0
  1 15  1  0  0  0  0
  2  6  1  1  0  0  0
  2 16  1  0  0  0  0
  4 13  1  0  0  0  0
  7  9  1  0  0  0  0
  9  5  1  0  0  0  0
 10  8  1  0  0  0  0
 11  7  1  1  0  0  0
 12  2  1  0  0  0  0
 12  1  1  0  0  0  0
 13  5  1  0  0  0  0
 14 18  1  0  0  0  0
 14  4  1  1  0  0  0
 14 11  1  0  0  0  0
 16 11  1  0  0  0  0
 16  3  1  1  0  0  0
 17  8  1  0  0  0  0
 18  6  1  6  0  0  0
 18 11  1  0  0  0  0
 19 10  1  0  0  0  0
 20 15  1  6  0  0  0
 20 21  1  0  0  0  0
 20 19  1  0  0  0  0
 21  3  1  6  0  0  0
 21 17  1  0  0  0  0
 22 25  2  0  0  0  0
 22 26  1  0  0  0  0
 23 12  1  0  0  0  0
 24 23  2  0  0  0  0
 25 24  1  0  0  0  0
 26 27  2  0  0  0  0
 27 23  1  0  0  0  0
M  END
>  <MODEL>
8

>  <REMARK>
 VINA RESULT:      -5.5      4.543      8.291
  Name = 
  1 active torsions:
  status: ('A' for Active; 'I' for Inactive)
    1  A    between atoms: C_9  and  N_15
                            x       y       z     vdW  Elec       q    Type
                         _______ _______ _______ _____ _____    ______ ____

>  <TORSDO>
F 1

$$$$
=
 OpenBabel11052413433D

 27 32  0  0  1  0  0  0  0  0999 V2000
  188.3900  178.8090  137.2100 C   0  0  0  0  0  2  0  0  0  0  0  0
  187.8730  178.0940  139.5850 C   0  0  1  0  0  3  0  0  0  0  0  0
  189.3150  176.1210  138.7530 C   0  0  0  0  0  2  0  0  0  0  0  0
  189.6790  178.0140  143.5430 C   0  0  0  0  0  2  0  0  0  0  0  0
  191.0930  176.2600  143.4620 C   0  0  0  0  0  2  0  0  0  0  0  0
  188.7760  179.1530  140.0360 N   0  0  0  0  0  2  0  0  0  0  0  0
  190.5560  176.3300  141.3410 O   0  0  0  0  0  0  0  0  0  0  0  0
  192.7470  176.3780  137.6020 C   0  0  0  0  0  2  0  0  0  0  0  0
  190.3470  175.6280  142.4420 O   0  0  0  0  0  0  0  0  0  0  0  0
  192.2500  175.6860  136.3330 C   0  0  0  0  0  2  0  0  0  0  0  0
  189.3780  177.0740  141.1260 C   0  0  2  0  0  0  0  0  0  0  0  0
  187.4560  178.2530  138.1880 N   0  0  0  0  0  0  0  0  0  0  0  0
  191.0270  177.6650  143.3680 O   0  0  0  0  0  0  0  0  0  0  0  0
  188.8700  178.0260  142.2270 C   0  0  2  0  0  3  0  0  0  0  0  0
  188.9340  177.6890  136.3390 C   0  0  0  0  0  2  0  0  0  0  0  0
  188.5130  176.7500  139.9160 C   0  0  1  0  0  3  0  0  0  0  0  0
  191.6630  176.3360  138.6800 C   0  0  0  0  0  2  0  0  0  0  0  0
  189.6690  178.5640  141.0430 C   0  0  2  0  0  3  0  0  0  0  0  0
  190.7920  176.0250  136.0070 C   0  0  0  0  0  2  0  0  0  0  0  0
  190.3070  177.2240  136.8230 C   0  0  2  0  0  3  0  0  0  0  0  0
  190.3990  176.9920  138.2880 N   0  0  1  0  0  0  0  0  0  0  0  0
  183.5260  177.1190  137.0100 C   0  0  0  0  0  3  0  0  0  0  0  0
  186.1230  177.8660  137.7890 C   0  0  0  0  0  0  0  0  0  0  0  0
  184.9970  178.4910  138.3550 C   0  0  0  0  0  3  0  0  0  0  0  0
  183.7080  178.1190  137.9680 C   0  0  0  0  0  3  0  0  0  0  0  0
  184.6350  176.4910  136.4380 C   0  0  0  0  0  3  0  0  0  0  0  0
  185.9240  176.8640  136.8250 C   0  0  0  0  0  3  0  0  0  0  0  0
  1 12  1  0  0  0  0
  2 16  1  0  0  0  0
  2  6  1  6  0  0  0
  7  9  1  0  0  0  0
  8 17  1  0  0  0  0
  9  5  1  0  0  0  0
 10  8  1  0  0  0  0
 11  7  1  1  0  0  0
 11 14  1  0  0  0  0
 12  2  1  0  0  0  0
 13  5  1  0  0  0  0
 13  4  1  0  0  0  0
 14  4  1  1  0  0  0
 15 20  1  0  0  0  0
 15  1  1  0  0  0  0
 16  3  1  6  0  0  0
 16 11  1  0  0  0  0
 18  6  1  6  0  0  0
 18 11  1  0  0  0  0
 18 14  1  0  0  0  0
 19 10  1  0  0  0  0
 20 19  1  6  0  0  0
 20 21  1  0  0  0  0
 21 17  1  6  0  0  0
 21  3  1  0  0  0  0
 22 25  1  0  0  0  0
 23 12  1  0  0  0  0
 23 24  1  0  0  0  0
 25 24  2  0  0  0  0
 26 27  1  0  0  0  0
 26 22  2  0  0  0  0
 27 23  2  0  0  0  0
M  END
>  <MODEL>
9

>  <REMARK>
 VINA RESULT:      -5.5      4.016      7.114
  Name = 
  1 active torsions:
  status: ('A' for Active; 'I' for Inactive)
    1  A    between atoms: C_9  and  N_15
                            x       y       z     vdW  Elec       q    Type
                         _______ _______ _______ _____ _____    ______ ____

>  <TORSDO>
F 1

$$$$
