=
 OpenBabel11052413183D

 31 34  0  0  1  0  0  0  0  0999 V2000
  191.4790  178.4680  144.1780 C   0  0  0  0  0  0  0  0  0  0  0  0
  187.7470  177.6350  143.8650 C   0  0  0  0  0  0  0  0  0  0  0  0
  186.8980  177.8810  144.9610 C   0  0  0  0  0  0  0  0  0  0  0  0
  186.3020  177.7690  147.3950 C   0  0  0  0  0  2  0  0  0  0  0  0
  189.2050  177.3260  144.0960 C   0  0  2  0  0  3  0  0  0  0  0  0
  192.0400  177.3840  143.6340 C   0  0  0  0  0  3  0  0  0  0  0  0
  187.4310  177.8460  146.3720 C   0  0  0  0  0  2  0  0  0  0  0  0
  188.0700  177.3650  141.3290 C   0  0  1  0  0  3  0  0  0  0  0  0
  192.2960  179.5090  144.5940 O   0  0  0  0  0  1  0  0  0  0  0  0
  185.0750  178.2480  143.4490 N   0  0  0  0  0  0  0  0  0  0  0  0
  185.3100  178.7980  147.1010 N   0  0  0  0  0  2  0  0  0  0  0  0
  189.5610  177.2040  141.6250 C   0  0  0  0  0  2  0  0  0  0  0  0
  187.2330  177.7210  142.5480 C   0  0  0  0  0  0  0  0  0  0  0  0
  189.9870  178.6350  144.2850 C   0  0  0  0  0  2  0  0  0  0  0  0
  183.6150  179.4370  145.5630 N   0  0  0  0  0  1  0  0  0  0  0  0
  189.7750  176.4870  142.9510 C   0  0  1  0  0  3  0  0  0  0  0  0
  191.2530  176.1820  143.1930 C   0  0  0  0  0  2  0  0  0  0  0  0
  185.8730  178.0070  142.3790 C   0  0  0  0  0  3  0  0  0  0  0  0
  185.5510  178.2220  144.7230 C   0  0  0  0  0  0  0  0  0  0  0  0
  184.5990  178.4160  145.8810 C   0  0  1  0  0  3  0  0  0  0  0  0
  187.9190  178.3890  140.2140 C   0  0  0  0  0  2  0  0  0  0  0  0
  189.0200  178.2620  139.2610 N   0  0  0  0  0  2  0  0  0  0  0  0
  187.0090  177.9760  137.9510 C   0  0  0  0  0  1  0  0  0  0  0  0
  188.9800  179.0250  136.9290 C   0  0  0  0  0  1  0  0  0  0  0  0
  188.5290  177.9520  137.9130 C   0  0  0  0  0  0  0  0  0  0  0  0
  187.9560  175.6670  137.3270 O   0  0  0  0  0  1  0  0  0  0  0  0
  189.0200  176.5670  137.4460 C   0  0  2  0  0  3  0  0  0  0  0  0
  190.0200  176.0330  138.3630 N   0  0  0  0  0  2  0  0  0  0  0  0
  191.2280  175.4230  137.9070 C   0  0  0  0  0  0  0  0  0  0  0  0
  192.6040  176.2990  137.8550 S   0  0  0  0  0  0  0  0  0  0  0  0
  191.2380  174.0690  137.4640 N   0  0  0  0  0  1  0  0  0  0  0  0
  1 14  1  0  0  0  0
  1  9  1  0  0  0  0
  2  5  1  0  0  0  0
  2  3  1  0  0  0  0
  3  7  1  0  0  0  0
  5 14  1  6  0  0  0
  6  1  2  0  0  0  0
  7  4  1  0  0  0  0
  8 21  1  6  0  0  0
  8 12  1  0  0  0  0
  8 13  1  0  0  0  0
 10 19  1  0  0  0  0
 11  4  1  0  0  0  0
 13  2  2  0  0  0  0
 16 12  1  6  0  0  0
 16 17  1  0  0  0  0
 16  5  1  0  0  0  0
 17  6  1  0  0  0  0
 18 13  1  0  0  0  0
 18 10  2  0  0  0  0
 19  3  2  0  0  0  0
 19 20  1  0  0  0  0
 20 15  1  6  0  0  0
 20 11  1  0  0  0  0
 22 21  1  0  0  0  0
 24 25  1  0  0  0  0
 25 23  1  0  0  0  0
 25 22  1  0  0  0  0
 27 26  1  1  0  0  0
 27 25  1  0  0  0  0
 27 28  1  0  0  0  0
 29 28  1  0  0  0  0
 30 29  2  0  0  0  0
 31 29  1  0  0  0  0
M  END
>  <MODEL>
1

>  <REMARK>
 VINA RESULT:      -8.4      0.000      0.000
  Name = 
  6 active torsions:
  status: ('A' for Active; 'I' for Inactive)
    1  A    between atoms: C_1  and  N_24
    2  A    between atoms: N_9  and  C_22
    3  A    between atoms: N_9  and  C_23
    4  A    between atoms: C_15  and  C_23
    5  A    between atoms: C_19  and  C_22
    6  A    between atoms: C_19  and  N_24
                            x       y       z     vdW  Elec       q    Type
                         _______ _______ _______ _____ _____    ______ ____

>  <TORSDO>
F 6

$$$$
=
 OpenBabel11052413183D

 31 34  0  0  1  0  0  0  0  0999 V2000
  191.4760  178.3430  144.2510 C   0  0  0  0  0  0  0  0  0  0  0  0
  187.7410  177.6250  143.7500 C   0  0  0  0  0  0  0  0  0  0  0  0
  186.8420  177.9250  144.7920 C   0  0  0  0  0  0  0  0  0  0  0  0
  186.1100  177.8930  147.1910 C   0  0  0  0  0  2  0  0  0  0  0  0
  189.1730  177.2740  144.0690 C   0  0  2  0  0  3  0  0  0  0  0  0
  192.0290  177.2280  143.7640 C   0  0  0  0  0  3  0  0  0  0  0  0
  187.2950  177.9090  146.2300 C   0  0  0  0  0  2  0  0  0  0  0  0
  188.1930  177.2800  141.2430 C   0  0  1  0  0  3  0  0  0  0  0  0
  192.3050  179.3670  144.6870 O   0  0  0  0  0  1  0  0  0  0  0  0
  185.1180  178.3140  143.1730 N   0  0  0  0  0  0  0  0  0  0  0  0
  185.1720  178.9460  146.8190 N   0  0  0  0  0  2  0  0  0  0  0  0
  189.6590  177.0790  141.6260 C   0  0  0  0  0  2  0  0  0  0  0  0
  187.3030  177.6940  142.4050 C   0  0  0  0  0  0  0  0  0  0  0  0
  189.9870  178.5610  144.2710 C   0  0  0  0  0  2  0  0  0  0  0  0
  183.5860  179.6020  145.1740 N   0  0  0  0  0  1  0  0  0  0  0  0
  189.7760  176.3890  142.9770 C   0  0  1  0  0  3  0  0  0  0  0  0
  191.2270  176.0420  143.3080 C   0  0  0  0  0  2  0  0  0  0  0  0
  185.9650  178.0200  142.1550 C   0  0  0  0  0  3  0  0  0  0  0  0
  185.5220  178.3040  144.4710 C   0  0  0  0  0  0  0  0  0  0  0  0
  184.5160  178.5580  145.5700 C   0  0  1  0  0  3  0  0  0  0  0  0
  188.1380  178.2810  140.0990 C   0  0  0  0  0  2  0  0  0  0  0  0
  189.3580  178.1970  139.2980 N   0  0  0  0  0  2  0  0  0  0  0  0
  188.9210  179.0870  137.0930 C   0  0  0  0  0  1  0  0  0  0  0  0
  190.2270  177.0210  137.3270 C   0  0  0  0  0  1  0  0  0  0  0  0
  189.0640  177.8130  137.9110 C   0  0  0  0  0  0  0  0  0  0  0  0
  187.9950  175.7430  137.2290 O   0  0  0  0  0  1  0  0  0  0  0  0
  187.7650  176.9870  137.8270 C   0  0  2  0  0  3  0  0  0  0  0  0
  186.7350  177.7080  137.0870 N   0  0  0  0  0  2  0  0  0  0  0  0
  185.4100  177.8790  137.5900 C   0  0  0  0  0  0  0  0  0  0  0  0
  184.2140  176.9050  137.0580 S   0  0  0  0  0  0  0  0  0  0  0  0
  185.1130  178.9140  138.5230 N   0  0  0  0  0  1  0  0  0  0  0  0
  1 14  1  0  0  0  0
  1  9  1  0  0  0  0
  2  5  1  0  0  0  0
  2  3  1  0  0  0  0
  3  7  1  0  0  0  0
  5 14  1  6  0  0  0
  6  1  2  0  0  0  0
  7  4  1  0  0  0  0
  8 21  1  6  0  0  0
  8 12  1  0  0  0  0
  8 13  1  0  0  0  0
 10 19  1  0  0  0  0
 11  4  1  0  0  0  0
 13  2  2  0  0  0  0
 16 12  1  6  0  0  0
 16 17  1  0  0  0  0
 16  5  1  0  0  0  0
 17  6  1  0  0  0  0
 18 13  1  0  0  0  0
 18 10  2  0  0  0  0
 19  3  2  0  0  0  0
 19 20  1  0  0  0  0
 20 15  1  6  0  0  0
 20 11  1  0  0  0  0
 22 21  1  0  0  0  0
 23 25  1  0  0  0  0
 24 25  1  0  0  0  0
 25 22  1  0  0  0  0
 27 26  1  6  0  0  0
 27 25  1  0  0  0  0
 28 29  1  0  0  0  0
 28 27  1  0  0  0  0
 29 31  1  0  0  0  0
 30 29  2  0  0  0  0
M  END
>  <MODEL>
2

>  <REMARK>
 VINA RESULT:      -8.1      1.884      2.562
  Name = 
  6 active torsions:
  status: ('A' for Active; 'I' for Inactive)
    1  A    between atoms: C_1  and  N_24
    2  A    between atoms: N_9  and  C_22
    3  A    between atoms: N_9  and  C_23
    4  A    between atoms: C_15  and  C_23
    5  A    between atoms: C_19  and  C_22
    6  A    between atoms: C_19  and  N_24
                            x       y       z     vdW  Elec       q    Type
                         _______ _______ _______ _____ _____    ______ ____

>  <TORSDO>
F 6

$$$$
=
 OpenBabel11052413183D

 31 34  0  0  1  0  0  0  0  0999 V2000
  186.0760  179.4370  146.9650 C   0  0  0  0  0  0  0  0  0  0  0  0
  185.1980  178.2460  143.4260 C   0  0  0  0  0  0  0  0  0  0  0  0
  183.9380  178.5720  142.8880 C   0  0  0  0  0  0  0  0  0  0  0  0
  181.4390  178.7610  143.0050 C   0  0  0  0  0  2  0  0  0  0  0  0
  185.3650  178.1020  144.9180 C   0  0  2  0  0  3  0  0  0  0  0  0
  186.6320  178.3390  147.4850 C   0  0  0  0  0  3  0  0  0  0  0  0
  182.7480  178.7890  143.7890 C   0  0  0  0  0  2  0  0  0  0  0  0
  187.6710  177.6420  143.0680 C   0  0  1  0  0  3  0  0  0  0  0  0
  186.0350  180.5940  147.7300 O   0  0  0  0  0  1  0  0  0  0  0  0
  184.8880  178.5580  140.6880 N   0  0  0  0  0  0  0  0  0  0  0  0
  181.5480  179.6470  141.8510 N   0  0  0  0  0  2  0  0  0  0  0  0
  187.8030  177.6560  144.5910 C   0  0  0  0  0  2  0  0  0  0  0  0
  186.3100  178.0960  142.5620 C   0  0  0  0  0  0  0  0  0  0  0  0
  185.5610  179.4870  145.5520 C   0  0  0  0  0  2  0  0  0  0  0  0
  182.5910  179.9080  139.7310 N   0  0  0  0  0  1  0  0  0  0  0  0
  186.5240  177.1590  145.2490 C   0  0  1  0  0  3  0  0  0  0  0  0
  186.6870  177.0220  146.7630 C   0  0  0  0  0  2  0  0  0  0  0  0
  186.1090  178.2350  141.1840 C   0  0  0  0  0  3  0  0  0  0  0  0
  183.8130  178.7580  141.4960 C   0  0  0  0  0  0  0  0  0  0  0  0
  182.4590  179.0330  140.8840 C   0  0  1  0  0  3  0  0  0  0  0  0
  188.8020  178.4770  142.4900 C   0  0  0  0  0  2  0  0  0  0  0  0
  189.7330  177.6240  141.7540 N   0  0  0  0  0  2  0  0  0  0  0  0
  192.1170  177.6530  141.3520 C   0  0  0  0  0  1  0  0  0  0  0  0
  191.2140  178.7460  143.3570 C   0  0  0  0  0  1  0  0  0  0  0  0
  191.0400  177.5560  142.4200 C   0  0  0  0  0  0  0  0  0  0  0  0
  190.2250  175.3060  142.8270 O   0  0  0  0  0  1  0  0  0  0  0  0
  191.1970  176.2380  143.2050 C   0  0  2  0  0  3  0  0  0  0  0  0
  191.1240  176.4750  144.6420 N   0  0  0  0  0  2  0  0  0  0  0  0
  191.8200  175.6630  145.5880 C   0  0  0  0  0  0  0  0  0  0  0  0
  191.8910  176.1270  147.1510 S   0  0  0  0  0  0  0  0  0  0  0  0
  192.4840  174.4720  145.1770 N   0  0  0  0  0  1  0  0  0  0  0  0
  1  6  2  0  0  0  0
  1  9  1  0  0  0  0
  2  5  1  0  0  0  0
  3  2  1  0  0  0  0
  3  7  1  0  0  0  0
  4  7  1  0  0  0  0
  5 16  1  0  0  0  0
  5 14  1  1  0  0  0
  8 21  1  6  0  0  0
  8 12  1  0  0  0  0
 10 18  2  0  0  0  0
 10 19  1  0  0  0  0
 11  4  1  0  0  0  0
 13  8  1  0  0  0  0
 13  2  2  0  0  0  0
 14  1  1  0  0  0  0
 16 12  1  1  0  0  0
 16 17  1  0  0  0  0
 17  6  1  0  0  0  0
 18 13  1  0  0  0  0
 19  3  2  0  0  0  0
 20 15  1  6  0  0  0
 20 19  1  0  0  0  0
 20 11  1  0  0  0  0
 22 25  1  0  0  0  0
 22 21  1  0  0  0  0
 23 25  1  0  0  0  0
 25 27  1  0  0  0  0
 25 24  1  0  0  0  0
 27 26  1  6  0  0  0
 27 28  1  0  0  0  0
 28 29  1  0  0  0  0
 29 30  2  0  0  0  0
 31 29  1  0  0  0  0
M  END
>  <MODEL>
3

>  <REMARK>
 VINA RESULT:      -7.7      3.560      5.414
  Name = 
  6 active torsions:
  status: ('A' for Active; 'I' for Inactive)
    1  A    between atoms: C_1  and  N_24
    2  A    between atoms: N_9  and  C_22
    3  A    between atoms: N_9  and  C_23
    4  A    between atoms: C_15  and  C_23
    5  A    between atoms: C_19  and  C_22
    6  A    between atoms: C_19  and  N_24
                            x       y       z     vdW  Elec       q    Type
                         _______ _______ _______ _____ _____    ______ ____

>  <TORSDO>
F 6

$$$$
=
 OpenBabel11052413183D

 31 34  0  0  1  0  0  0  0  0999 V2000
  186.0720  179.4960  146.9790 C   0  0  0  0  0  0  0  0  0  0  0  0
  184.7180  178.2400  143.6170 C   0  0  0  0  0  0  0  0  0  0  0  0
  183.3890  178.5390  143.2600 C   0  0  0  0  0  0  0  0  0  0  0  0
  180.9300  178.6920  143.7300 C   0  0  0  0  0  2  0  0  0  0  0  0
  185.0990  178.1200  145.0710 C   0  0  2  0  0  3  0  0  0  0  0  0
  186.7150  178.4150  147.4280 C   0  0  0  0  0  3  0  0  0  0  0  0
  182.3360  178.7510  144.3200 C   0  0  0  0  0  2  0  0  0  0  0  0
  187.1250  177.6680  142.9180 C   0  0  1  0  0  3  0  0  0  0  0  0
  186.1210  180.6640  147.7270 O   0  0  0  0  0  1  0  0  0  0  0  0
  184.0160  178.5070  140.9480 N   0  0  0  0  0  0  0  0  0  0  0  0
  180.8580  179.5620  142.5620 N   0  0  0  0  0  2  0  0  0  0  0  0
  187.4720  177.7070  144.4050 C   0  0  0  0  0  2  0  0  0  0  0  0
  185.6980  178.0940  142.6050 C   0  0  0  0  0  0  0  0  0  0  0  0
  185.3590  179.5180  145.6540 C   0  0  0  0  0  2  0  0  0  0  0  0
  181.5840  179.8070  140.3120 N   0  0  0  0  0  1  0  0  0  0  0  0
  186.3090  177.2000  145.2460 C   0  0  1  0  0  3  0  0  0  0  0  0
  186.6880  177.0880  146.7220 C   0  0  0  0  0  2  0  0  0  0  0  0
  185.3000  178.2100  141.2680 C   0  0  0  0  0  3  0  0  0  0  0  0
  183.0640  178.7020  141.8980 C   0  0  0  0  0  0  0  0  0  0  0  0
  181.6320  178.9480  141.4830 C   0  0  1  0  0  3  0  0  0  0  0  0
  188.1480  178.5120  142.1730 C   0  0  0  0  0  2  0  0  0  0  0  0
  188.8570  177.6930  141.1920 N   0  0  0  0  0  2  0  0  0  0  0  0
  190.6810  178.3470  142.6380 C   0  0  0  0  0  1  0  0  0  0  0  0
  190.0320  175.9830  142.5030 C   0  0  0  0  0  1  0  0  0  0  0  0
  190.1690  177.2680  141.6960 C   0  0  0  0  0  0  0  0  0  0  0  0
  192.3370  177.8060  140.7440 O   0  0  0  0  0  1  0  0  0  0  0  0
  191.1690  177.0630  140.5410 C   0  0  2  0  0  3  0  0  0  0  0  0
  190.5690  177.4230  139.2610 N   0  0  0  0  0  2  0  0  0  0  0  0
  190.4330  176.4900  138.1890 C   0  0  0  0  0  0  0  0  0  0  0  0
  189.7110  176.9550  136.8030 S   0  0  0  0  0  0  0  0  0  0  0  0
  190.8870  175.1470  138.3310 N   0  0  0  0  0  1  0  0  0  0  0  0
  1  6  2  0  0  0  0
  1  9  1  0  0  0  0
  2  5  1  0  0  0  0
  3  2  1  0  0  0  0
  3  7  1  0  0  0  0
  4  7  1  0  0  0  0
  5 16  1  0  0  0  0
  5 14  1  6  0  0  0
  8 21  1  6  0  0  0
  8 12  1  0  0  0  0
 10 18  2  0  0  0  0
 10 19  1  0  0  0  0
 11  4  1  0  0  0  0
 13  8  1  0  0  0  0
 13  2  2  0  0  0  0
 14  1  1  0  0  0  0
 16 12  1  6  0  0  0
 16 17  1  0  0  0  0
 17  6  1  0  0  0  0
 18 13  1  0  0  0  0
 19  3  2  0  0  0  0
 20 15  1  6  0  0  0
 20 19  1  0  0  0  0
 20 11  1  0  0  0  0
 22 25  1  0  0  0  0
 22 21  1  0  0  0  0
 25 24  1  0  0  0  0
 25 23  1  0  0  0  0
 27 26  1  1  0  0  0
 27 25  1  0  0  0  0
 28 27  1  0  0  0  0
 29 31  1  0  0  0  0
 29 28  1  0  0  0  0
 30 29  2  0  0  0  0
M  END
>  <MODEL>
4

>  <REMARK>
 VINA RESULT:      -7.6      2.654      4.534
  Name = 
  6 active torsions:
  status: ('A' for Active; 'I' for Inactive)
    1  A    between atoms: C_1  and  N_24
    2  A    between atoms: N_9  and  C_22
    3  A    between atoms: N_9  and  C_23
    4  A    between atoms: C_15  and  C_23
    5  A    between atoms: C_19  and  C_22
    6  A    between atoms: C_19  and  N_24
                            x       y       z     vdW  Elec       q    Type
                         _______ _______ _______ _____ _____    ______ ____

>  <TORSDO>
F 6

$$$$
=
 OpenBabel11052413183D

 31 34  0  0  1  0  0  0  0  0999 V2000
  187.6600  176.0050  136.1570 C   0  0  0  0  0  0  0  0  0  0  0  0
  186.9040  178.2620  139.1660 C   0  0  0  0  0  0  0  0  0  0  0  0
  185.5640  178.5720  139.4680 C   0  0  0  0  0  0  0  0  0  0  0  0
  183.2460  179.3060  138.8520 C   0  0  0  0  0  2  0  0  0  0  0  0
  187.3050  177.9650  137.7430 C   0  0  2  0  0  3  0  0  0  0  0  0
  188.6800  176.6530  135.5880 C   0  0  0  0  0  3  0  0  0  0  0  0
  184.5160  178.6020  138.3840 C   0  0  0  0  0  2  0  0  0  0  0  0
  189.3390  177.9670  139.9360 C   0  0  1  0  0  3  0  0  0  0  0  0
  187.2450  174.7970  135.6130 O   0  0  0  0  0  1  0  0  0  0  0  0
  186.1460  178.7660  141.7840 N   0  0  0  0  0  0  0  0  0  0  0  0
  182.8330  178.7550  140.1380 N   0  0  0  0  0  2  0  0  0  0  0  0
  189.6470  177.5340  138.5030 C   0  0  0  0  0  2  0  0  0  0  0  0
  187.8590  178.1920  140.2100 C   0  0  0  0  0  0  0  0  0  0  0  0
  186.9930  176.4970  137.4140 C   0  0  0  0  0  2  0  0  0  0  0  0
  183.3960  178.6490  142.4440 N   0  0  0  0  0  1  0  0  0  0  0  0
  188.7810  178.2950  137.5100 C   0  0  1  0  0  3  0  0  0  0  0  0
  189.1780  177.9880  136.0670 C   0  0  0  0  0  2  0  0  0  0  0  0
  187.4440  178.4790  141.5150 C   0  0  0  0  0  3  0  0  0  0  0  0
  185.1970  178.7920  140.8120 C   0  0  0  0  0  0  0  0  0  0  0  0
  183.7830  179.2000  141.1570 C   0  0  1  0  0  3  0  0  0  0  0  0
  189.9420  176.9380  140.8800 C   0  0  0  0  0  2  0  0  0  0  0  0
  190.7130  177.6060  141.9270 N   0  0  0  0  0  2  0  0  0  0  0  0
  189.3600  175.9680  143.0800 C   0  0  0  0  0  1  0  0  0  0  0  0
  191.6860  176.3260  143.7810 C   0  0  0  0  0  1  0  0  0  0  0  0
  190.4410  177.0240  143.2470 C   0  0  0  0  0  0  0  0  0  0  0  0
  190.7880  179.2350  144.1860 O   0  0  0  0  0  1  0  0  0  0  0  0
  189.9710  178.1010  144.2440 C   0  0  2  0  0  3  0  0  0  0  0  0
  189.9470  177.5770  145.6050 N   0  0  0  0  0  2  0  0  0  0  0  0
  188.7780  177.6220  146.4230 C   0  0  0  0  0  0  0  0  0  0  0  0
  187.3110  177.7720  145.7250 S   0  0  0  0  0  0  0  0  0  0  0  0
  188.8800  177.5740  147.8440 N   0  0  0  0  0  1  0  0  0  0  0  0
  1 14  1  0  0  0  0
  2  3  2  0  0  0  0
  2 13  1  0  0  0  0
  3 19  1  0  0  0  0
  4 11  1  0  0  0  0
  5 14  1  1  0  0  0
  5  2  1  0  0  0  0
  6 17  1  0  0  0  0
  6  1  2  0  0  0  0
  7  4  1  0  0  0  0
  7  3  1  0  0  0  0
  8 13  1  0  0  0  0
  8 21  1  1  0  0  0
  9  1  1  0  0  0  0
 11 20  1  0  0  0  0
 12  8  1  0  0  0  0
 13 18  2  0  0  0  0
 16 17  1  6  0  0  0
 16  5  1  0  0  0  0
 16 12  1  0  0  0  0
 18 10  1  0  0  0  0
 19 20  1  0  0  0  0
 19 10  2  0  0  0  0
 20 15  1  1  0  0  0
 21 22  1  0  0  0  0
 22 25  1  0  0  0  0
 23 25  1  0  0  0  0
 25 24  1  0  0  0  0
 25 27  1  0  0  0  0
 27 26  1  1  0  0  0
 27 28  1  0  0  0  0
 28 29  1  0  0  0  0
 29 31  1  0  0  0  0
 30 29  2  0  0  0  0
M  END
>  <MODEL>
5

>  <REMARK>
 VINA RESULT:      -7.4      2.917      6.846
  Name = 
  6 active torsions:
  status: ('A' for Active; 'I' for Inactive)
    1  A    between atoms: C_1  and  N_24
    2  A    between atoms: N_9  and  C_22
    3  A    between atoms: N_9  and  C_23
    4  A    between atoms: C_15  and  C_23
    5  A    between atoms: C_19  and  C_22
    6  A    between atoms: C_19  and  N_24
                            x       y       z     vdW  Elec       q    Type
                         _______ _______ _______ _____ _____    ______ ____

>  <TORSDO>
F 6

$$$$
=
 OpenBabel11052413183D

 31 34  0  0  1  0  0  0  0  0999 V2000
  191.9960  174.2440  136.9620 C   0  0  0  0  0  0  0  0  0  0  0  0
  189.6690  177.1320  137.9420 C   0  0  0  0  0  0  0  0  0  0  0  0
  188.4760  177.3240  137.2190 C   0  0  0  0  0  0  0  0  0  0  0  0
  187.1570  177.5210  135.0950 C   0  0  0  0  0  2  0  0  0  0  0  0
  190.8640  176.5030  137.2690 C   0  0  2  0  0  3  0  0  0  0  0  0
  193.1910  174.8400  136.9990 C   0  0  0  0  0  3  0  0  0  0  0  0
  188.3720  176.8990  135.7760 C   0  0  0  0  0  2  0  0  0  0  0  0
  191.0130  177.4130  140.1150 C   0  0  1  0  0  3  0  0  0  0  0  0
  191.9320  172.8860  136.6820 O   0  0  0  0  0  1  0  0  0  0  0  0
  187.4540  178.2470  139.1800 N   0  0  0  0  0  0  0  0  0  0  0  0
  185.9750  177.3050  135.9210 N   0  0  0  0  0  2  0  0  0  0  0  0
  192.1320  176.6380  139.4190 C   0  0  0  0  0  2  0  0  0  0  0  0
  189.7250  177.4960  139.3100 C   0  0  0  0  0  0  0  0  0  0  0  0
  190.7210  174.9730  137.2880 C   0  0  0  0  0  2  0  0  0  0  0  0
  184.9200  177.9380  137.9550 N   0  0  0  0  0  1  0  0  0  0  0  0
  192.1660  176.9570  137.9310 C   0  0  1  0  0  3  0  0  0  0  0  0
  193.3700  176.3120  137.2450 C   0  0  0  0  0  2  0  0  0  0  0  0
  188.5950  178.0800  139.8930 C   0  0  0  0  0  3  0  0  0  0  0  0
  187.3530  177.8630  137.8800 C   0  0  0  0  0  0  0  0  0  0  0  0
  186.0840  178.1500  137.1110 C   0  0  1  0  0  3  0  0  0  0  0  0
  190.7900  176.7890  141.4840 C   0  0  0  0  0  2  0  0  0  0  0  0
  191.6140  177.4630  142.4850 N   0  0  0  0  0  2  0  0  0  0  0  0
  191.0450  179.3440  143.8930 C   0  0  0  0  0  1  0  0  0  0  0  0
  189.3350  177.6590  143.3750 C   0  0  0  0  0  1  0  0  0  0  0  0
  190.8200  177.8590  143.6550 C   0  0  0  0  0  0  0  0  0  0  0  0
  191.7110  175.7900  144.5600 O   0  0  0  0  0  1  0  0  0  0  0  0
  191.2350  177.0590  144.9060 C   0  0  2  0  0  3  0  0  0  0  0  0
  190.1200  176.9340  145.8380 N   0  0  0  0  0  2  0  0  0  0  0  0
  190.2670  177.1480  147.2420 C   0  0  0  0  0  0  0  0  0  0  0  0
  189.0060  177.7180  148.1060 S   0  0  0  0  0  0  0  0  0  0  0  0
  191.5130  176.9050  147.8890 N   0  0  0  0  0  1  0  0  0  0  0  0
  1  6  2  0  0  0  0
  1 14  1  0  0  0  0
  2 13  1  0  0  0  0
  3 19  1  0  0  0  0
  3  2  2  0  0  0  0
  4  7  1  0  0  0  0
  4 11  1  0  0  0  0
  5 14  1  1  0  0  0
  5 16  1  0  0  0  0
  5  2  1  0  0  0  0
  6 17  1  0  0  0  0
  7  3  1  0  0  0  0
  8 21  1  1  0  0  0
  9  1  1  0  0  0  0
 10 18  1  0  0  0  0
 11 20  1  0  0  0  0
 12  8  1  0  0  0  0
 13 18  2  0  0  0  0
 13  8  1  0  0  0  0
 16 17  1  6  0  0  0
 16 12  1  0  0  0  0
 19 10  2  0  0  0  0
 20 19  1  0  0  0  0
 20 15  1  1  0  0  0
 21 22  1  0  0  0  0
 22 25  1  0  0  0  0
 24 25  1  0  0  0  0
 25 23  1  0  0  0  0
 25 27  1  0  0  0  0
 27 26  1  6  0  0  0
 27 28  1  0  0  0  0
 28 29  1  0  0  0  0
 29 31  1  0  0  0  0
 29 30  2  0  0  0  0
M  END
>  <MODEL>
6

>  <REMARK>
 VINA RESULT:      -7.1      3.725      7.731
  Name = 
  6 active torsions:
  status: ('A' for Active; 'I' for Inactive)
    1  A    between atoms: C_1  and  N_24
    2  A    between atoms: N_9  and  C_22
    3  A    between atoms: N_9  and  C_23
    4  A    between atoms: C_15  and  C_23
    5  A    between atoms: C_19  and  C_22
    6  A    between atoms: C_19  and  N_24
                            x       y       z     vdW  Elec       q    Type
                         _______ _______ _______ _____ _____    ______ ____

>  <TORSDO>
F 6

$$$$
=
 OpenBabel11052413183D

 31 34  0  0  1  0  0  0  0  0999 V2000
  189.6910  174.8390  137.3100 C   0  0  0  0  0  0  0  0  0  0  0  0
  187.0250  177.5190  137.9660 C   0  0  0  0  0  0  0  0  0  0  0  0
  185.7910  177.4340  137.2940 C   0  0  0  0  0  0  0  0  0  0  0  0
  184.3790  177.1120  135.2450 C   0  0  0  0  0  2  0  0  0  0  0  0
  188.2690  176.9510  137.3300 C   0  0  2  0  0  3  0  0  0  0  0  0
  190.7920  175.5850  137.1840 C   0  0  0  0  0  3  0  0  0  0  0  0
  185.6930  176.7720  135.9420 C   0  0  0  0  0  2  0  0  0  0  0  0
  188.3980  178.3200  139.9870 C   0  0  1  0  0  3  0  0  0  0  0  0
  189.8050  173.4580  137.2480 O   0  0  0  0  0  1  0  0  0  0  0  0
  184.7240  178.5200  139.1440 N   0  0  0  0  0  0  0  0  0  0  0  0
  183.2700  176.8790  136.1630 N   0  0  0  0  0  2  0  0  0  0  0  0
  189.5860  177.5960  139.3540 C   0  0  0  0  0  2  0  0  0  0  0  0
  187.0810  178.1030  139.2550 C   0  0  0  0  0  0  0  0  0  0  0  0
  188.3400  175.4390  137.5940 C   0  0  0  0  0  2  0  0  0  0  0  0
  182.2140  177.6890  138.1330 N   0  0  0  0  0  1  0  0  0  0  0  0
  189.5200  177.6720  137.8360 C   0  0  1  0  0  3  0  0  0  0  0  0
  190.7750  177.0880  137.1880 C   0  0  0  0  0  2  0  0  0  0  0  0
  185.9040  178.6210  139.8060 C   0  0  0  0  0  3  0  0  0  0  0  0
  184.6290  177.9210  137.9280 C   0  0  0  0  0  0  0  0  0  0  0  0
  183.3050  177.9120  137.1990 C   0  0  1  0  0  3  0  0  0  0  0  0
  188.3140  177.9010  141.4470 C   0  0  0  0  0  2  0  0  0  0  0  0
  189.6560  177.7730  142.0120 N   0  0  0  0  0  2  0  0  0  0  0  0
  188.2130  176.5370  143.5070 C   0  0  0  0  0  1  0  0  0  0  0  0
  190.4980  175.7370  143.0940 C   0  0  0  0  0  1  0  0  0  0  0  0
  189.6420  176.9890  143.2530 C   0  0  0  0  0  0  0  0  0  0  0  0
  190.7070  179.0340  144.0150 O   0  0  0  0  0  1  0  0  0  0  0  0
  190.1480  177.8260  144.4450 C   0  0  2  0  0  3  0  0  0  0  0  0
  191.1250  177.0800  145.2290 N   0  0  0  0  0  2  0  0  0  0  0  0
  190.9600  176.8340  146.6260 C   0  0  0  0  0  0  0  0  0  0  0  0
  189.5180  177.1250  147.3310 S   0  0  0  0  0  0  0  0  0  0  0  0
  192.0500  176.3720  147.4180 N   0  0  0  0  0  1  0  0  0  0  0  0
  1 14  1  0  0  0  0
  2 13  1  0  0  0  0
  3 19  1  0  0  0  0
  3  2  2  0  0  0  0
  4  7  1  0  0  0  0
  4 11  1  0  0  0  0
  5 14  1  1  0  0  0
  5 16  1  0  0  0  0
  5  2  1  0  0  0  0
  6 17  1  0  0  0  0
  6  1  2  0  0  0  0
  7  3  1  0  0  0  0
  8 21  1  1  0  0  0
  9  1  1  0  0  0  0
 10 18  1  0  0  0  0
 11 20  1  0  0  0  0
 12  8  1  0  0  0  0
 13 18  2  0  0  0  0
 13  8  1  0  0  0  0
 16 17  1  6  0  0  0
 16 12  1  0  0  0  0
 19 10  2  0  0  0  0
 20 19  1  0  0  0  0
 20 15  1  1  0  0  0
 21 22  1  0  0  0  0
 22 25  1  0  0  0  0
 24 25  1  0  0  0  0
 25 23  1  0  0  0  0
 25 27  1  0  0  0  0
 27 26  1  6  0  0  0
 27 28  1  0  0  0  0
 28 29  1  0  0  0  0
 29 30  2  0  0  0  0
 29 31  1  0  0  0  0
M  END
>  <MODEL>
7

>  <REMARK>
 VINA RESULT:      -7.0      3.541      7.334
  Name = 
  6 active torsions:
  status: ('A' for Active; 'I' for Inactive)
    1  A    between atoms: C_1  and  N_24
    2  A    between atoms: N_9  and  C_22
    3  A    between atoms: N_9  and  C_23
    4  A    between atoms: C_15  and  C_23
    5  A    between atoms: C_19  and  C_22
    6  A    between atoms: C_19  and  N_24
                            x       y       z     vdW  Elec       q    Type
                         _______ _______ _______ _____ _____    ______ ____

>  <TORSDO>
F 6

$$$$
=
 OpenBabel11052413183D

 31 34  0  0  1  0  0  0  0  0999 V2000
  191.1320  175.9970  143.4620 C   0  0  0  0  0  0  0  0  0  0  0  0
  189.7230  177.5720  140.2610 C   0  0  0  0  0  0  0  0  0  0  0  0
  190.1620  177.0920  139.0120 C   0  0  0  0  0  0  0  0  0  0  0  0
  191.9390  176.3770  137.3920 C   0  0  0  0  0  2  0  0  0  0  0  0
  190.6320  177.4900  141.4610 C   0  0  2  0  0  3  0  0  0  0  0  0
  191.3800  177.0800  144.2050 C   0  0  0  0  0  3  0  0  0  0  0  0
  191.5340  176.4850  138.8590 C   0  0  0  0  0  2  0  0  0  0  0  0
  187.9160  178.7240  141.6810 C   0  0  1  0  0  3  0  0  0  0  0  0
  191.3570  174.7420  144.0100 O   0  0  0  0  0  1  0  0  0  0  0  0
  188.0440  177.6790  138.0570 N   0  0  0  0  0  0  0  0  0  0  0  0
  190.8620  175.7450  136.6380 N   0  0  0  0  0  2  0  0  0  0  0  0
  188.8280  178.4760  142.8830 C   0  0  0  0  0  2  0  0  0  0  0  0
  188.4120  178.0940  140.3880 C   0  0  0  0  0  0  0  0  0  0  0  0
  190.5440  176.0860  142.0800 C   0  0  0  0  0  2  0  0  0  0  0  0
  188.6590  176.0720  135.8090 N   0  0  0  0  0  1  0  0  0  0  0  0
  190.2920  178.5790  142.4810 C   0  0  1  0  0  3  0  0  0  0  0  0
  191.2160  178.4840  143.6940 C   0  0  0  0  0  2  0  0  0  0  0  0
  187.6040  178.1550  139.2480 C   0  0  0  0  0  3  0  0  0  0  0  0
  189.2780  177.1270  137.9140 C   0  0  0  0  0  0  0  0  0  0  0  0
  189.7480  176.6890  136.5460 C   0  0  1  0  0  3  0  0  0  0  0  0
  186.5170  178.2510  142.0460 C   0  0  0  0  0  2  0  0  0  0  0  0
  186.4600  177.8910  143.4610 N   0  0  0  0  0  2  0  0  0  0  0  0
  185.5950  180.0890  143.9740 C   0  0  0  0  0  1  0  0  0  0  0  0
  184.0330  178.2530  143.5070 C   0  0  0  0  0  1  0  0  0  0  0  0
  185.3720  178.5960  144.1500 C   0  0  0  0  0  0  0  0  0  0  0  0
  184.1840  178.7330  146.2630 O   0  0  0  0  0  1  0  0  0  0  0  0
  185.3430  178.2430  145.6500 C   0  0  2  0  0  3  0  0  0  0  0  0
  186.5220  178.7650  146.3320 N   0  0  0  0  0  2  0  0  0  0  0  0
  187.5360  177.9140  146.8670 C   0  0  0  0  0  0  0  0  0  0  0  0
  187.7910  177.8780  148.4780 S   0  0  0  0  0  0  0  0  0  0  0  0
  188.3530  177.1250  146.0070 N   0  0  0  0  0  1  0  0  0  0  0  0
  1  9  1  0  0  0  0
  1  6  2  0  0  0  0
  2 13  1  0  0  0  0
  2  5  1  0  0  0  0
  3  2  2  0  0  0  0
  4  7  1  0  0  0  0
  5 14  1  1  0  0  0
  5 16  1  0  0  0  0
  7  3  1  0  0  0  0
  8 21  1  1  0  0  0
  8 12  1  0  0  0  0
 10 18  1  0  0  0  0
 11  4  1  0  0  0  0
 13  8  1  0  0  0  0
 14  1  1  0  0  0  0
 16 12  1  1  0  0  0
 16 17  1  0  0  0  0
 17  6  1  0  0  0  0
 18 13  2  0  0  0  0
 19 10  2  0  0  0  0
 19  3  1  0  0  0  0
 20 15  1  1  0  0  0
 20 11  1  0  0  0  0
 20 19  1  0  0  0  0
 21 22  1  0  0  0  0
 22 25  1  0  0  0  0
 23 25  1  0  0  0  0
 24 25  1  0  0  0  0
 25 27  1  0  0  0  0
 27 26  1  1  0  0  0
 27 28  1  0  0  0  0
 28 29  1  0  0  0  0
 29 30  2  0  0  0  0
 31 29  1  0  0  0  0
M  END
>  <MODEL>
8

>  <REMARK>
 VINA RESULT:      -6.8      3.105      7.290
  Name = 
  6 active torsions:
  status: ('A' for Active; 'I' for Inactive)
    1  A    between atoms: C_1  and  N_24
    2  A    between atoms: N_9  and  C_22
    3  A    between atoms: N_9  and  C_23
    4  A    between atoms: C_15  and  C_23
    5  A    between atoms: C_19  and  C_22
    6  A    between atoms: C_19  and  N_24
                            x       y       z     vdW  Elec       q    Type
                         _______ _______ _______ _____ _____    ______ ____

>  <TORSDO>
F 6

$$$$
=
 OpenBabel11052413183D

 31 34  0  0  1  0  0  0  0  0999 V2000
  184.2970  176.4290  138.1920 C   0  0  0  0  0  0  0  0  0  0  0  0
  183.0410  178.5940  141.0990 C   0  0  0  0  0  0  0  0  0  0  0  0
  181.6620  178.6260  141.3820 C   0  0  0  0  0  0  0  0  0  0  0  0
  179.2500  178.8290  140.7240 C   0  0  0  0  0  2  0  0  0  0  0  0
  183.5150  178.3320  139.6910 C   0  0  2  0  0  3  0  0  0  0  0  0
  185.1650  177.2550  137.6000 C   0  0  0  0  0  3  0  0  0  0  0  0
  180.6460  178.3910  140.2910 C   0  0  0  0  0  2  0  0  0  0  0  0
  185.4720  178.8520  141.8930 C   0  0  1  0  0  3  0  0  0  0  0  0
  184.1540  175.1400  137.6970 O   0  0  0  0  0  1  0  0  0  0  0  0
  182.1590  179.0320  143.6900 N   0  0  0  0  0  0  0  0  0  0  0  0
  178.9450  178.2540  142.0290 N   0  0  0  0  0  2  0  0  0  0  0  0
  185.8840  178.4360  140.4810 C   0  0  0  0  0  2  0  0  0  0  0  0
  183.9750  178.7700  142.1490 C   0  0  0  0  0  0  0  0  0  0  0  0
  183.5250  176.8190  139.4230 C   0  0  0  0  0  2  0  0  0  0  0  0
  179.4860  178.3620  144.3410 N   0  0  0  0  0  1  0  0  0  0  0  0
  184.8910  178.9570  139.4520 C   0  0  1  0  0  3  0  0  0  0  0  0
  185.3640  178.6830  138.0250 C   0  0  0  0  0  2  0  0  0  0  0  0
  183.4910  179.0140  143.4390 C   0  0  0  0  0  3  0  0  0  0  0  0
  181.2390  178.8170  142.7130 C   0  0  0  0  0  0  0  0  0  0  0  0
  179.7660  178.9310  143.0330 C   0  0  1  0  0  3  0  0  0  0  0  0
  186.2670  178.0130  142.8820 C   0  0  0  0  0  2  0  0  0  0  0  0
  187.7000  178.2170  142.6780 N   0  0  0  0  0  2  0  0  0  0  0  0
  188.3580  177.9170  144.9850 C   0  0  0  0  0  1  0  0  0  0  0  0
  187.9430  175.9470  143.5790 C   0  0  0  0  0  1  0  0  0  0  0  0
  188.4950  177.3680  143.5740 C   0  0  0  0  0  0  0  0  0  0  0  0
  190.4860  178.6560  143.0550 O   0  0  0  0  0  1  0  0  0  0  0  0
  189.9790  177.3570  143.1570 C   0  0  2  0  0  3  0  0  0  0  0  0
  190.1600  176.6530  141.8920 N   0  0  0  0  0  2  0  0  0  0  0  0
  190.7010  177.2890  140.7330 C   0  0  0  0  0  0  0  0  0  0  0  0
  189.7050  177.7370  139.5220 S   0  0  0  0  0  0  0  0  0  0  0  0
  192.1040  177.5010  140.6070 N   0  0  0  0  0  1  0  0  0  0  0  0
  1 14  1  0  0  0  0
  2  3  2  0  0  0  0
  2 13  1  0  0  0  0
  3 19  1  0  0  0  0
  4 11  1  0  0  0  0
  5 14  1  1  0  0  0
  5  2  1  0  0  0  0
  6 17  1  0  0  0  0
  6  1  2  0  0  0  0
  7  4  1  0  0  0  0
  7  3  1  0  0  0  0
  8 13  1  0  0  0  0
  8 21  1  1  0  0  0
  9  1  1  0  0  0  0
 11 20  1  0  0  0  0
 12  8  1  0  0  0  0
 13 18  2  0  0  0  0
 16 17  1  6  0  0  0
 16  5  1  0  0  0  0
 16 12  1  0  0  0  0
 18 10  1  0  0  0  0
 19 20  1  0  0  0  0
 19 10  2  0  0  0  0
 20 15  1  1  0  0  0
 22 21  1  0  0  0  0
 22 25  1  0  0  0  0
 25 24  1  0  0  0  0
 25 23  1  0  0  0  0
 27 26  1  6  0  0  0
 27 25  1  0  0  0  0
 28 27  1  0  0  0  0
 29 28  1  0  0  0  0
 30 29  2  0  0  0  0
 31 29  1  0  0  0  0
M  END
>  <MODEL>
9

>  <REMARK>
 VINA RESULT:      -6.8      3.430      6.450
  Name = 
  6 active torsions:
  status: ('A' for Active; 'I' for Inactive)
    1  A    between atoms: C_1  and  N_24
    2  A    between atoms: N_9  and  C_22
    3  A    between atoms: N_9  and  C_23
    4  A    between atoms: C_15  and  C_23
    5  A    between atoms: C_19  and  C_22
    6  A    between atoms: C_19  and  N_24
                            x       y       z     vdW  Elec       q    Type
                         _______ _______ _______ _____ _____    ______ ____

>  <TORSDO>
F 6

$$$$
