=
 OpenBabel11052412403D

 25 28  0  0  1  0  0  0  0  0999 V2000
  186.7050  177.9470  144.9540 C   0  0  0  0  0  0  0  0  0  0  0  0
  187.9370  177.4930  144.4810 C   0  0  0  0  0  0  0  0  0  0  0  0
  187.4460  177.9150  147.2580 C   0  0  0  0  0  3  0  0  0  0  0  0
  185.5130  178.2720  144.3480 C   0  0  0  0  0  0  0  0  0  0  0  0
  182.9460  179.0420  143.7060 C   0  0  0  0  0  3  0  0  0  0  0  0
  188.6980  177.4520  146.8130 C   0  0  0  0  0  3  0  0  0  0  0  0
  184.6460  178.6510  145.3070 N   0  0  0  0  0  0  0  0  0  0  0  0
  183.3730  179.0390  145.0430 C   0  0  0  0  0  3  0  0  0  0  0  0
  190.2750  176.6960  144.9480 C   0  0  2  0  0  3  0  0  0  0  0  0
  191.4420  177.1150  145.8290 C   0  0  0  0  0  1  0  0  0  0  0  0
  188.1690  177.1890  143.0300 C   0  0  0  0  0  2  0  0  0  0  0  0
  183.8380  178.6490  142.6900 C   0  0  0  0  0  3  0  0  0  0  0  0
  186.4690  178.1580  146.2970 C   0  0  0  0  0  0  0  0  0  0  0  0
  185.2070  178.5880  146.5090 N   0  0  0  0  0  0  0  0  0  0  0  0
  190.5500  177.1020  143.5670 N   0  0  0  0  0  0  0  0  0  0  0  0
  185.1480  178.2550  143.0030 C   0  0  0  0  0  3  0  0  0  0  0  0
  189.6230  177.3150  142.6770 C   0  0  0  0  0  0  0  0  0  0  0  0
  188.9580  177.2570  145.4320 C   0  0  0  0  0  0  0  0  0  0  0  0
  189.9670  177.6630  141.3720 O   0  0  0  0  0  0  0  0  0  0  0  0
  189.2020  177.2550  140.2970 N   0  0  0  0  0  2  0  0  0  0  0  0
  188.6800  178.4380  139.6170 C   0  0  2  0  0  3  0  0  0  0  0  0
  187.2250  178.4440  139.6320 N   0  0  0  0  0  1  0  0  0  0  0  0
  189.2040  178.5420  138.2190 C   0  0  0  0  0  0  0  0  0  0  0  0
  188.9590  179.6900  137.4790 O   0  0  0  0  0  0  0  0  0  0  0  0
  189.8910  177.6120  137.7200 O   0  0  0  0  0  1  0  0  0  0  0  0
  1 13  1  0  0  0  0
  2  1  1  0  0  0  0
  2 18  2  0  0  0  0
  4  1  2  0  0  0  0
  4  7  1  0  0  0  0
  5  8  2  0  0  0  0
  6  3  2  0  0  0  0
  7 14  1  0  0  0  0
  8  7  1  0  0  0  0
  9 18  1  0  0  0  0
  9 10  1  1  0  0  0
 11  2  1  0  0  0  0
 12 16  2  0  0  0  0
 12  5  1  0  0  0  0
 13 14  2  0  0  0  0
 13  3  1  0  0  0  0
 15  9  1  0  0  0  0
 16  4  1  0  0  0  0
 17 11  1  0  0  0  0
 17 15  2  0  0  0  0
 18  6  1  0  0  0  0
 19 17  1  0  0  0  0
 20 19  1  0  0  0  0
 21 22  1  6  0  0  0
 21 20  1  0  0  0  0
 23 21  1  0  0  0  0
 24 23  2  0  0  0  0
 25 23  1  0  0  0  0
M  END
>  <MODEL>
1

>  <REMARK>
 VINA RESULT:     -10.1      0.000      0.000
  Name = 
  4 active torsions:
  status: ('A' for Active; 'I' for Inactive)
    1  A    between atoms: C_2  and  C_21
    2  A    between atoms: O_6  and  N_15
    3  A    between atoms: O_6  and  C_23
    4  A    between atoms: N_15  and  C_21
                            x       y       z     vdW  Elec       q    Type
                         _______ _______ _______ _____ _____    ______ ____

>  <TORSDO>
F 4

$$$$
=
 OpenBabel11052412403D

 25 28  0  0  1  0  0  0  0  0999 V2000
  186.9730  177.8920  145.7260 C   0  0  0  0  0  0  0  0  0  0  0  0
  188.2300  177.3210  145.5220 C   0  0  0  0  0  0  0  0  0  0  0  0
  187.3640  178.1870  148.0960 C   0  0  0  0  0  3  0  0  0  0  0  0
  185.9070  178.1680  144.9010 C   0  0  0  0  0  0  0  0  0  0  0  0
  183.5160  178.9330  143.7630 C   0  0  0  0  0  3  0  0  0  0  0  0
  188.6350  177.6110  147.9230 C   0  0  0  0  0  3  0  0  0  0  0  0
  184.9340  178.7260  145.6480 N   0  0  0  0  0  0  0  0  0  0  0  0
  183.7410  179.1190  145.1350 C   0  0  0  0  0  3  0  0  0  0  0  0
  190.4180  176.5110  146.4580 C   0  0  2  0  0  3  0  0  0  0  0  0
  191.4670  177.0130  147.4380 C   0  0  0  0  0  1  0  0  0  0  0  0
  188.6530  176.7860  144.1840 C   0  0  0  0  0  2  0  0  0  0  0  0
  184.5220  178.3520  142.9660 C   0  0  0  0  0  3  0  0  0  0  0  0
  186.5560  178.3180  146.9700 C   0  0  0  0  0  0  0  0  0  0  0  0
  185.3060  178.8270  146.9180 N   0  0  0  0  0  0  0  0  0  0  0  0
  190.9190  176.6860  145.0920 N   0  0  0  0  0  0  0  0  0  0  0  0
  185.7430  177.9570  143.5330 C   0  0  0  0  0  3  0  0  0  0  0  0
  190.1480  176.7970  144.0470 C   0  0  0  0  0  0  0  0  0  0  0  0
  189.0830  177.1930  146.6440 C   0  0  0  0  0  0  0  0  0  0  0  0
  190.7020  176.9240  142.7750 O   0  0  0  0  0  0  0  0  0  0  0  0
  190.2910  176.1190  141.7300 N   0  0  0  0  0  2  0  0  0  0  0  0
  190.5490  176.8140  140.4720 C   0  0  2  0  0  3  0  0  0  0  0  0
  191.7960  177.5610  140.5390 N   0  0  0  0  0  1  0  0  0  0  0  0
  189.4080  177.7070  140.0960 C   0  0  0  0  0  0  0  0  0  0  0  0
  189.5130  178.5190  138.9760 O   0  0  0  0  0  0  0  0  0  0  0  0
  188.3420  177.7030  140.7670 O   0  0  0  0  0  1  0  0  0  0  0  0
  1 13  1  0  0  0  0
  2  1  1  0  0  0  0
  2 18  2  0  0  0  0
  4  7  1  0  0  0  0
  4  1  2  0  0  0  0
  5  8  2  0  0  0  0
  6  3  2  0  0  0  0
  7 14  1  0  0  0  0
  8  7  1  0  0  0  0
  9 18  1  0  0  0  0
  9 10  1  1  0  0  0
 11  2  1  0  0  0  0
 12 16  2  0  0  0  0
 12  5  1  0  0  0  0
 13  3  1  0  0  0  0
 14 13  2  0  0  0  0
 15  9  1  0  0  0  0
 16  4  1  0  0  0  0
 17 11  1  0  0  0  0
 17 15  2  0  0  0  0
 18  6  1  0  0  0  0
 19 17  1  0  0  0  0
 20 19  1  0  0  0  0
 21 22  1  1  0  0  0
 21 20  1  0  0  0  0
 23 21  1  0  0  0  0
 23 25  1  0  0  0  0
 24 23  2  0  0  0  0
M  END
>  <MODEL>
2

>  <REMARK>
 VINA RESULT:     -10.0      1.476      1.757
  Name = 
  4 active torsions:
  status: ('A' for Active; 'I' for Inactive)
    1  A    between atoms: C_2  and  C_21
    2  A    between atoms: O_6  and  N_15
    3  A    between atoms: O_6  and  C_23
    4  A    between atoms: N_15  and  C_21
                            x       y       z     vdW  Elec       q    Type
                         _______ _______ _______ _____ _____    ______ ____

>  <TORSDO>
F 4

$$$$
=
 OpenBabel11052412403D

 25 28  0  0  1  0  0  0  0  0999 V2000
  189.2350  177.4380  144.5240 C   0  0  0  0  0  0  0  0  0  0  0  0
  189.1730  177.3770  143.1310 C   0  0  0  0  0  0  0  0  0  0  0  0
  191.5840  176.8540  144.5600 C   0  0  0  0  0  3  0  0  0  0  0  0
  188.3120  177.7090  145.5080 C   0  0  0  0  0  0  0  0  0  0  0  0
  186.9390  178.1580  147.8540 C   0  0  0  0  0  3  0  0  0  0  0  0
  191.5510  176.7790  143.1550 C   0  0  0  0  0  3  0  0  0  0  0  0
  188.9350  177.6200  146.7000 N   0  0  0  0  0  0  0  0  0  0  0  0
  188.3030  177.8320  147.8820 C   0  0  0  0  0  3  0  0  0  0  0  0
  190.2980  176.9130  140.9320 C   0  0  2  0  0  3  0  0  0  0  0  0
  191.6190  177.2530  140.2600 C   0  0  0  0  0  1  0  0  0  0  0  0
  187.8850  177.5680  142.3830 C   0  0  0  0  0  2  0  0  0  0  0  0
  186.2720  178.2550  146.6180 C   0  0  0  0  0  3  0  0  0  0  0  0
  190.4040  177.1920  145.2150 C   0  0  0  0  0  0  0  0  0  0  0  0
  190.2150  177.3040  146.5480 N   0  0  0  0  0  0  0  0  0  0  0  0
  189.2420  177.7560  140.3620 N   0  0  0  0  0  0  0  0  0  0  0  0
  186.9590  178.0290  145.4160 C   0  0  0  0  0  3  0  0  0  0  0  0
  188.1380  178.0540  140.9860 C   0  0  0  0  0  0  0  0  0  0  0  0
  190.3610  177.0560  142.4340 C   0  0  0  0  0  0  0  0  0  0  0  0
  187.1660  178.8320  140.3620 O   0  0  0  0  0  0  0  0  0  0  0  0
  186.0900  179.3360  141.0670 N   0  0  0  0  0  2  0  0  0  0  0  0
  184.8570  178.8730  140.4350 C   0  0  2  0  0  3  0  0  0  0  0  0
  184.3680  179.8520  139.4750 N   0  0  0  0  0  1  0  0  0  0  0  0
  183.8090  178.5480  141.4520 C   0  0  0  0  0  0  0  0  0  0  0  0
  184.1850  178.2710  142.7590 O   0  0  0  0  0  1  0  0  0  0  0  0
  182.5880  178.5540  141.1420 O   0  0  0  0  0  0  0  0  0  0  0  0
  1 13  1  0  0  0  0
  1  4  2  0  0  0  0
  2  1  1  0  0  0  0
  3 13  1  0  0  0  0
  4  7  1  0  0  0  0
  5  8  2  0  0  0  0
  6  3  2  0  0  0  0
  7  8  1  0  0  0  0
  9 10  1  6  0  0  0
  9 18  1  0  0  0  0
 11  2  1  0  0  0  0
 12  5  1  0  0  0  0
 13 14  2  0  0  0  0
 14  7  1  0  0  0  0
 15  9  1  0  0  0  0
 15 17  2  0  0  0  0
 16  4  1  0  0  0  0
 16 12  2  0  0  0  0
 17 11  1  0  0  0  0
 18  2  2  0  0  0  0
 18  6  1  0  0  0  0
 19 17  1  0  0  0  0
 19 20  1  0  0  0  0
 21 22  1  6  0  0  0
 21 20  1  0  0  0  0
 21 23  1  0  0  0  0
 23 24  1  0  0  0  0
 25 23  2  0  0  0  0
M  END
>  <MODEL>
3

>  <REMARK>
 VINA RESULT:      -9.3      2.630      4.547
  Name = 
  4 active torsions:
  status: ('A' for Active; 'I' for Inactive)
    1  A    between atoms: C_2  and  C_21
    2  A    between atoms: O_6  and  N_15
    3  A    between atoms: O_6  and  C_23
    4  A    between atoms: N_15  and  C_21
                            x       y       z     vdW  Elec       q    Type
                         _______ _______ _______ _____ _____    ______ ____

>  <TORSDO>
F 4

$$$$
=
 OpenBabel11052412403D

 25 28  0  0  1  0  0  0  0  0999 V2000
  188.5890  177.6810  144.5470 C   0  0  0  0  0  0  0  0  0  0  0  0
  188.8850  177.5090  143.1930 C   0  0  0  0  0  0  0  0  0  0  0  0
  190.8750  177.2610  145.2190 C   0  0  0  0  0  3  0  0  0  0  0  0
  187.4350  177.9640  145.2400 C   0  0  0  0  0  0  0  0  0  0  0  0
  185.4910  178.4990  147.1190 C   0  0  0  0  0  3  0  0  0  0  0  0
  191.2040  177.0760  143.8640 C   0  0  0  0  0  3  0  0  0  0  0  0
  187.7370  178.0100  146.5530 N   0  0  0  0  0  0  0  0  0  0  0  0
  186.8170  178.2700  147.5160 C   0  0  0  0  0  3  0  0  0  0  0  0
  190.5510  176.9540  141.3960 C   0  0  2  0  0  3  0  0  0  0  0  0
  191.9830  177.3290  141.0460 C   0  0  0  0  0  1  0  0  0  0  0  0
  187.8210  177.5540  142.1340 C   0  0  0  0  0  2  0  0  0  0  0  0
  185.1560  178.4560  145.7520 C   0  0  0  0  0  3  0  0  0  0  0  0
  189.5530  177.5680  145.5270 C   0  0  0  0  0  0  0  0  0  0  0  0
  189.0270  177.7700  146.7540 N   0  0  0  0  0  0  0  0  0  0  0  0
  189.6380  177.6770  140.5060 N   0  0  0  0  0  0  0  0  0  0  0  0
  186.1360  178.1840  144.7850 C   0  0  0  0  0  3  0  0  0  0  0  0
  188.3990  177.9480  140.8060 C   0  0  0  0  0  0  0  0  0  0  0  0
  190.2250  177.2160  142.8470 C   0  0  0  0  0  0  0  0  0  0  0  0
  187.5820  178.6080  139.8910 O   0  0  0  0  0  0  0  0  0  0  0  0
  186.2400  178.8140  140.1460 N   0  0  0  0  0  2  0  0  0  0  0  0
  185.4710  178.4000  138.9740 C   0  0  2  0  0  3  0  0  0  0  0  0
  186.2820  178.4800  137.7690 N   0  0  0  0  0  1  0  0  0  0  0  0
  184.2150  179.2020  138.8330 C   0  0  0  0  0  0  0  0  0  0  0  0
  183.0540  178.5840  138.3910 O   0  0  0  0  0  0  0  0  0  0  0  0
  184.1950  180.4230  139.1420 O   0  0  0  0  0  1  0  0  0  0  0  0
  1  4  2  0  0  0  0
  1 13  1  0  0  0  0
  2  1  1  0  0  0  0
  3 13  1  0  0  0  0
  4  7  1  0  0  0  0
  5  8  2  0  0  0  0
  6  3  2  0  0  0  0
  7 14  1  0  0  0  0
  7  8  1  0  0  0  0
  9 10  1  6  0  0  0
  9 18  1  0  0  0  0
 11  2  1  0  0  0  0
 12  5  1  0  0  0  0
 13 14  2  0  0  0  0
 15 17  2  0  0  0  0
 15  9  1  0  0  0  0
 16  4  1  0  0  0  0
 16 12  2  0  0  0  0
 17 11  1  0  0  0  0
 18  2  2  0  0  0  0
 18  6  1  0  0  0  0
 19 20  1  0  0  0  0
 19 17  1  0  0  0  0
 21 22  1  6  0  0  0
 21 20  1  0  0  0  0
 23 21  1  0  0  0  0
 23 25  1  0  0  0  0
 24 23  2  0  0  0  0
M  END
>  <MODEL>
4

>  <REMARK>
 VINA RESULT:      -9.2      2.429      3.651
  Name = 
  4 active torsions:
  status: ('A' for Active; 'I' for Inactive)
    1  A    between atoms: C_2  and  C_21
    2  A    between atoms: O_6  and  N_15
    3  A    between atoms: O_6  and  C_23
    4  A    between atoms: N_15  and  C_21
                            x       y       z     vdW  Elec       q    Type
                         _______ _______ _______ _____ _____    ______ ____

>  <TORSDO>
F 4

$$$$
=
 OpenBabel11052412403D

 25 28  0  0  1  0  0  0  0  0999 V2000
  187.4900  178.0090  142.2570 C   0  0  0  0  0  0  0  0  0  0  0  0
  187.2320  177.8120  143.6150 C   0  0  0  0  0  0  0  0  0  0  0  0
  185.2750  178.8940  141.8460 C   0  0  0  0  0  3  0  0  0  0  0  0
  188.5800  177.7740  141.4510 C   0  0  0  0  0  0  0  0  0  0  0  0
  190.4020  177.5320  139.3970 C   0  0  0  0  0  3  0  0  0  0  0  0
  184.9830  178.7030  143.2090 C   0  0  0  0  0  3  0  0  0  0  0  0
  188.2630  178.1570  140.1980 N   0  0  0  0  0  0  0  0  0  0  0  0
  189.1240  178.0590  139.1550 C   0  0  0  0  0  3  0  0  0  0  0  0
  185.6320  177.9100  145.5510 C   0  0  2  0  0  3  0  0  0  0  0  0
  184.6210  178.8960  146.1150 C   0  0  0  0  0  1  0  0  0  0  0  0
  188.2310  177.1630  144.5280 C   0  0  0  0  0  2  0  0  0  0  0  0
  190.7510  177.1270  140.7000 C   0  0  0  0  0  3  0  0  0  0  0  0
  186.5450  178.5400  141.4030 C   0  0  0  0  0  0  0  0  0  0  0  0
  187.0230  178.6280  140.1420 N   0  0  0  0  0  0  0  0  0  0  0  0
  186.8400  177.9390  146.3800 N   0  0  0  0  0  0  0  0  0  0  0  0
  189.8320  177.2450  141.7550 C   0  0  0  0  0  3  0  0  0  0  0  0
  188.0210  177.5930  145.9510 C   0  0  0  0  0  0  0  0  0  0  0  0
  185.9560  178.1820  144.1010 C   0  0  0  0  0  0  0  0  0  0  0  0
  189.1160  177.6130  146.8120 O   0  0  0  0  0  0  0  0  0  0  0  0
  189.9510  176.5190  146.9350 N   0  0  0  0  0  2  0  0  0  0  0  0
  191.3370  176.9790  146.8830 C   0  0  2  0  0  3  0  0  0  0  0  0
  191.6580  177.5020  145.5630 N   0  0  0  0  0  1  0  0  0  0  0  0
  192.2890  175.8940  147.2780 C   0  0  0  0  0  0  0  0  0  0  0  0
  192.9950  176.0030  148.4680 O   0  0  0  0  0  1  0  0  0  0  0  0
  192.4310  174.8700  146.5590 O   0  0  0  0  0  0  0  0  0  0  0  0
  1  2  1  0  0  0  0
  2 18  2  0  0  0  0
  2 11  1  0  0  0  0
  3  6  2  0  0  0  0
  4 16  1  0  0  0  0
  4  1  2  0  0  0  0
  5 12  1  0  0  0  0
  6 18  1  0  0  0  0
  7  4  1  0  0  0  0
  8  5  2  0  0  0  0
  8  7  1  0  0  0  0
  9 10  1  1  0  0  0
  9 15  1  0  0  0  0
 11 17  1  0  0  0  0
 12 16  2  0  0  0  0
 13  3  1  0  0  0  0
 13  1  1  0  0  0  0
 14  7  1  0  0  0  0
 14 13  2  0  0  0  0
 17 15  2  0  0  0  0
 17 19  1  0  0  0  0
 18  9  1  0  0  0  0
 19 20  1  0  0  0  0
 21 22  1  6  0  0  0
 21 20  1  0  0  0  0
 21 23  1  0  0  0  0
 23 24  1  0  0  0  0
 25 23  2  0  0  0  0
M  END
>  <MODEL>
5

>  <REMARK>
 VINA RESULT:      -9.1      3.154      6.570
  Name = 
  4 active torsions:
  status: ('A' for Active; 'I' for Inactive)
    1  A    between atoms: C_2  and  C_21
    2  A    between atoms: O_6  and  N_15
    3  A    between atoms: O_6  and  C_23
    4  A    between atoms: N_15  and  C_21
                            x       y       z     vdW  Elec       q    Type
                         _______ _______ _______ _____ _____    ______ ____

>  <TORSDO>
F 4

$$$$
=
 OpenBabel11052412403D

 25 28  0  0  1  0  0  0  0  0999 V2000
  189.1040  177.3870  144.1470 C   0  0  0  0  0  0  0  0  0  0  0  0
  188.5550  177.5850  142.8790 C   0  0  0  0  0  0  0  0  0  0  0  0
  191.2230  176.6500  143.2410 C   0  0  0  0  0  3  0  0  0  0  0  0
  188.6220  177.5350  145.4270 C   0  0  0  0  0  0  0  0  0  0  0  0
  188.2170  177.6410  148.1510 C   0  0  0  0  0  3  0  0  0  0  0  0
  190.6960  176.8350  141.9500 C   0  0  0  0  0  3  0  0  0  0  0  0
  189.6030  177.1900  146.2850 N   0  0  0  0  0  0  0  0  0  0  0  0
  189.4530  177.2250  147.6330 C   0  0  0  0  0  3  0  0  0  0  0  0
  188.7770  177.4560  140.3790 C   0  0  2  0  0  3  0  0  0  0  0  0
  189.8160  177.8230  139.3300 C   0  0  0  0  0  1  0  0  0  0  0  0
  187.1230  177.9950  142.6880 C   0  0  0  0  0  2  0  0  0  0  0  0
  187.1810  178.0060  147.2700 C   0  0  0  0  0  3  0  0  0  0  0  0
  190.3980  176.9410  144.3220 C   0  0  0  0  0  0  0  0  0  0  0  0
  190.6990  176.8210  145.6330 N   0  0  0  0  0  0  0  0  0  0  0  0
  187.7070  178.4570  140.3620 N   0  0  0  0  0  0  0  0  0  0  0  0
  187.3740  177.9570  145.8820 C   0  0  0  0  0  3  0  0  0  0  0  0
  186.9360  178.7110  141.3810 C   0  0  0  0  0  0  0  0  0  0  0  0
  189.3760  177.3180  141.7590 C   0  0  0  0  0  0  0  0  0  0  0  0
  185.9160  179.6520  141.2740 O   0  0  0  0  0  0  0  0  0  0  0  0
  184.5870  179.2800  141.3380 N   0  0  0  0  0  2  0  0  0  0  0  0
  184.1190  178.9780  139.9870 C   0  0  2  0  0  3  0  0  0  0  0  0
  184.3230  180.1150  139.1020 N   0  0  0  0  0  1  0  0  0  0  0  0
  182.6860  178.5470  139.9880 C   0  0  0  0  0  0  0  0  0  0  0  0
  182.1280  178.0240  138.8300 O   0  0  0  0  0  0  0  0  0  0  0  0
  181.9920  178.6240  141.0360 O   0  0  0  0  0  1  0  0  0  0  0  0
  1 13  1  0  0  0  0
  1  4  2  0  0  0  0
  2  1  1  0  0  0  0
  3 13  1  0  0  0  0
  4 16  1  0  0  0  0
  4  7  1  0  0  0  0
  6  3  2  0  0  0  0
  7  8  1  0  0  0  0
  8  5  2  0  0  0  0
  9 10  1  6  0  0  0
  9 18  1  0  0  0  0
 11  2  1  0  0  0  0
 12  5  1  0  0  0  0
 13 14  2  0  0  0  0
 14  7  1  0  0  0  0
 15  9  1  0  0  0  0
 15 17  2  0  0  0  0
 16 12  2  0  0  0  0
 17 11  1  0  0  0  0
 18  6  1  0  0  0  0
 18  2  2  0  0  0  0
 19 20  1  0  0  0  0
 19 17  1  0  0  0  0
 21 22  1  6  0  0  0
 21 23  1  0  0  0  0
 21 20  1  0  0  0  0
 23 25  1  0  0  0  0
 24 23  2  0  0  0  0
M  END
>  <MODEL>
6

>  <REMARK>
 VINA RESULT:      -9.0      2.893      5.187
  Name = 
  4 active torsions:
  status: ('A' for Active; 'I' for Inactive)
    1  A    between atoms: C_2  and  C_21
    2  A    between atoms: O_6  and  N_15
    3  A    between atoms: O_6  and  C_23
    4  A    between atoms: N_15  and  C_21
                            x       y       z     vdW  Elec       q    Type
                         _______ _______ _______ _____ _____    ______ ____

>  <TORSDO>
F 4

$$$$
=
 OpenBabel11052412403D

 25 28  0  0  1  0  0  0  0  0999 V2000
  187.9550  177.7510  144.4660 C   0  0  0  0  0  0  0  0  0  0  0  0
  187.6560  178.0850  143.1440 C   0  0  0  0  0  0  0  0  0  0  0  0
  185.6770  178.1170  145.1960 C   0  0  0  0  0  3  0  0  0  0  0  0
  189.1080  177.3740  145.1150 C   0  0  0  0  0  0  0  0  0  0  0  0
  191.0520  176.5960  146.9070 C   0  0  0  0  0  3  0  0  0  0  0  0
  185.3460  178.4640  143.8730 C   0  0  0  0  0  3  0  0  0  0  0  0
  188.8100  177.1770  146.4150 N   0  0  0  0  0  0  0  0  0  0  0  0
  189.7310  176.7940  147.3350 C   0  0  0  0  0  3  0  0  0  0  0  0
  185.9900  178.8700  141.4330 C   0  0  2  0  0  3  0  0  0  0  0  0
  184.5520  178.5560  141.0500 C   0  0  0  0  0  1  0  0  0  0  0  0
  188.7150  178.1520  142.0810 C   0  0  0  0  0  2  0  0  0  0  0  0
  191.3820  176.7970  145.5530 C   0  0  0  0  0  3  0  0  0  0  0  0
  186.9960  177.7590  145.4570 C   0  0  0  0  0  0  0  0  0  0  0  0
  187.5250  177.4080  146.6490 N   0  0  0  0  0  0  0  0  0  0  0  0
  186.8910  178.2450  140.4600 N   0  0  0  0  0  0  0  0  0  0  0  0
  190.4020  177.1930  144.6300 C   0  0  0  0  0  3  0  0  0  0  0  0
  188.1270  177.9250  140.7180 C   0  0  0  0  0  0  0  0  0  0  0  0
  186.3190  178.4340  142.8420 C   0  0  0  0  0  0  0  0  0  0  0  0
  188.9320  177.3680  139.7270 O   0  0  0  0  0  0  0  0  0  0  0  0
  190.0160  178.0530  139.2140 N   0  0  0  0  0  2  0  0  0  0  0  0
  191.0990  177.1040  138.9720 C   0  0  2  0  0  3  0  0  0  0  0  0
  190.5990  175.7370  138.9710 N   0  0  0  0  0  1  0  0  0  0  0  0
  192.2060  177.2710  139.9660 C   0  0  0  0  0  0  0  0  0  0  0  0
  193.5250  177.1850  139.5430 O   0  0  0  0  0  0  0  0  0  0  0  0
  191.9520  177.5210  141.1740 O   0  0  0  0  0  1  0  0  0  0  0  0
  1  4  2  0  0  0  0
  1 13  1  0  0  0  0
  2  1  1  0  0  0  0
  3 13  1  0  0  0  0
  4  7  1  0  0  0  0
  5  8  2  0  0  0  0
  6  3  2  0  0  0  0
  7 14  1  0  0  0  0
  7  8  1  0  0  0  0
  9 10  1  6  0  0  0
  9 18  1  0  0  0  0
 11  2  1  0  0  0  0
 12  5  1  0  0  0  0
 13 14  2  0  0  0  0
 15 17  2  0  0  0  0
 15  9  1  0  0  0  0
 16  4  1  0  0  0  0
 16 12  2  0  0  0  0
 17 11  1  0  0  0  0
 18  2  2  0  0  0  0
 18  6  1  0  0  0  0
 19 17  1  0  0  0  0
 20 19  1  0  0  0  0
 21 22  1  1  0  0  0
 21 20  1  0  0  0  0
 21 23  1  0  0  0  0
 23 25  1  0  0  0  0
 24 23  2  0  0  0  0
M  END
>  <MODEL>
7

>  <REMARK>
 VINA RESULT:      -8.9      1.894      4.727
  Name = 
  4 active torsions:
  status: ('A' for Active; 'I' for Inactive)
    1  A    between atoms: C_2  and  C_21
    2  A    between atoms: O_6  and  N_15
    3  A    between atoms: O_6  and  C_23
    4  A    between atoms: N_15  and  C_21
                            x       y       z     vdW  Elec       q    Type
                         _______ _______ _______ _____ _____    ______ ____

>  <TORSDO>
F 4

$$$$
=
 OpenBabel11052412403D

 25 28  0  0  1  0  0  0  0  0999 V2000
  188.0820  177.6680  144.9750 C   0  0  0  0  0  0  0  0  0  0  0  0
  187.4930  178.1130  143.7910 C   0  0  0  0  0  0  0  0  0  0  0  0
  186.0150  177.8770  146.2170 C   0  0  0  0  0  3  0  0  0  0  0  0
  189.3550  177.2760  145.3170 C   0  0  0  0  0  0  0  0  0  0  0  0
  191.6600  176.4090  146.5560 C   0  0  0  0  0  3  0  0  0  0  0  0
  185.3940  178.3340  145.0400 C   0  0  0  0  0  3  0  0  0  0  0  0
  189.3550  176.9470  146.6240 N   0  0  0  0  0  0  0  0  0  0  0  0
  190.4620  176.5150  147.2790 C   0  0  0  0  0  3  0  0  0  0  0  0
  185.4780  178.9900  142.5710 C   0  0  2  0  0  3  0  0  0  0  0  0
  183.9960  178.6590  142.4810 C   0  0  0  0  0  1  0  0  0  0  0  0
  188.2890  178.3190  142.5350 C   0  0  0  0  0  2  0  0  0  0  0  0
  191.6790  176.7470  145.1890 C   0  0  0  0  0  3  0  0  0  0  0  0
  187.3650  177.5470  146.1480 C   0  0  0  0  0  0  0  0  0  0  0  0
  188.1490  177.1060  147.1550 N   0  0  0  0  0  0  0  0  0  0  0  0
  186.1510  178.4940  141.3680 N   0  0  0  0  0  0  0  0  0  0  0  0
  190.5130  177.1900  144.5460 C   0  0  0  0  0  3  0  0  0  0  0  0
  187.4190  178.1980  141.3170 C   0  0  0  0  0  0  0  0  0  0  0  0
  186.1160  178.4370  143.8240 C   0  0  0  0  0  0  0  0  0  0  0  0
  187.9940  177.7670  140.1240 O   0  0  0  0  0  0  0  0  0  0  0  0
  188.6790  178.6410  139.3020 N   0  0  0  0  0  2  0  0  0  0  0  0
  189.6370  177.8790  138.5030 C   0  0  2  0  0  3  0  0  0  0  0  0
  188.9540  177.1020  137.4800 N   0  0  0  0  0  1  0  0  0  0  0  0
  190.4930  177.0040  139.3630 C   0  0  0  0  0  0  0  0  0  0  0  0
  190.5650  175.6440  139.0980 O   0  0  0  0  0  0  0  0  0  0  0  0
  191.1720  177.4940  140.3040 O   0  0  0  0  0  1  0  0  0  0  0  0
  1  4  2  0  0  0  0
  1 13  1  0  0  0  0
  2 18  2  0  0  0  0
  2  1  1  0  0  0  0
  4  7  1  0  0  0  0
  5  8  2  0  0  0  0
  6  3  2  0  0  0  0
  7 14  1  0  0  0  0
  7  8  1  0  0  0  0
  9 10  1  6  0  0  0
  9 18  1  0  0  0  0
 11  2  1  0  0  0  0
 12  5  1  0  0  0  0
 13  3  1  0  0  0  0
 13 14  2  0  0  0  0
 15  9  1  0  0  0  0
 16 12  2  0  0  0  0
 16  4  1  0  0  0  0
 17 15  2  0  0  0  0
 17 11  1  0  0  0  0
 18  6  1  0  0  0  0
 19 17  1  0  0  0  0
 20 19  1  0  0  0  0
 21 22  1  6  0  0  0
 21 20  1  0  0  0  0
 21 23  1  0  0  0  0
 23 25  1  0  0  0  0
 24 23  2  0  0  0  0
M  END
>  <MODEL>
8

>  <REMARK>
 VINA RESULT:      -8.8      1.890      4.644
  Name = 
  4 active torsions:
  status: ('A' for Active; 'I' for Inactive)
    1  A    between atoms: C_2  and  C_21
    2  A    between atoms: O_6  and  N_15
    3  A    between atoms: O_6  and  C_23
    4  A    between atoms: N_15  and  C_21
                            x       y       z     vdW  Elec       q    Type
                         _______ _______ _______ _____ _____    ______ ____

>  <TORSDO>
F 4

$$$$
=
 OpenBabel11052412403D

 25 28  0  0  1  0  0  0  0  0999 V2000
  186.5390  178.1380  144.8880 C   0  0  0  0  0  0  0  0  0  0  0  0
  185.5860  178.5390  143.9510 C   0  0  0  0  0  0  0  0  0  0  0  0
  184.9580  178.2520  146.7160 C   0  0  0  0  0  3  0  0  0  0  0  0
  187.8740  177.8150  144.8100 C   0  0  0  0  0  0  0  0  0  0  0  0
  190.4920  177.0810  145.2580 C   0  0  0  0  0  3  0  0  0  0  0  0
  183.9760  178.6640  145.7970 C   0  0  0  0  0  3  0  0  0  0  0  0
  188.3000  177.5000  146.0490 N   0  0  0  0  0  0  0  0  0  0  0  0
  189.5780  177.1330  146.3210 C   0  0  0  0  0  3  0  0  0  0  0  0
  183.2470  179.2990  143.4310 C   0  0  2  0  0  3  0  0  0  0  0  0
  181.8310  178.8900  143.8070 C   0  0  0  0  0  1  0  0  0  0  0  0
  185.9360  178.7740  142.5100 C   0  0  0  0  0  2  0  0  0  0  0  0
  190.0650  177.4070  143.9560 C   0  0  0  0  0  3  0  0  0  0  0  0
  186.2330  177.9920  146.2250 C   0  0  0  0  0  0  0  0  0  0  0  0
  187.3150  177.6020  146.9330 N   0  0  0  0  0  0  0  0  0  0  0  0
  183.5340  178.8260  142.0730 N   0  0  0  0  0  0  0  0  0  0  0  0
  188.7350  177.7820  143.7150 C   0  0  0  0  0  3  0  0  0  0  0  0
  184.7360  178.5960  141.6260 C   0  0  0  0  0  0  0  0  0  0  0  0
  184.2740  178.7920  144.4160 C   0  0  0  0  0  0  0  0  0  0  0  0
  184.9300  178.1830  140.3100 O   0  0  0  0  0  0  0  0  0  0  0  0
  185.6210  178.9680  139.4070 N   0  0  0  0  0  2  0  0  0  0  0  0
  186.7590  178.2060  138.8990 C   0  0  2  0  0  3  0  0  0  0  0  0
  187.9940  178.6280  139.5430 N   0  0  0  0  0  1  0  0  0  0  0  0
  186.8670  178.3100  137.4090 C   0  0  0  0  0  0  0  0  0  0  0  0
  187.5500  179.3780  136.8450 O   0  0  0  0  0  1  0  0  0  0  0  0
  186.3710  177.4230  136.6660 O   0  0  0  0  0  0  0  0  0  0  0  0
  1 13  1  0  0  0  0
  2 18  2  0  0  0  0
  2  1  1  0  0  0  0
  4  1  2  0  0  0  0
  4  7  1  0  0  0  0
  5  8  2  0  0  0  0
  6  3  2  0  0  0  0
  7  8  1  0  0  0  0
  7 14  1  0  0  0  0
  9 10  1  1  0  0  0
  9 18  1  0  0  0  0
 11  2  1  0  0  0  0
 12  5  1  0  0  0  0
 13  3  1  0  0  0  0
 13 14  2  0  0  0  0
 15  9  1  0  0  0  0
 16 12  2  0  0  0  0
 16  4  1  0  0  0  0
 17 15  2  0  0  0  0
 17 11  1  0  0  0  0
 18  6  1  0  0  0  0
 19 17  1  0  0  0  0
 20 19  1  0  0  0  0
 21 20  1  0  0  0  0
 21 22  1  1  0  0  0
 23 21  1  0  0  0  0
 24 23  1  0  0  0  0
 25 23  2  0  0  0  0
M  END
>  <MODEL>
9

>  <REMARK>
 VINA RESULT:      -8.8      1.978      4.777
  Name = 
  4 active torsions:
  status: ('A' for Active; 'I' for Inactive)
    1  A    between atoms: C_2  and  C_21
    2  A    between atoms: O_6  and  N_15
    3  A    between atoms: O_6  and  C_23
    4  A    between atoms: N_15  and  C_21
                            x       y       z     vdW  Elec       q    Type
                         _______ _______ _______ _____ _____    ______ ____

>  <TORSDO>
F 4

$$$$
