=
 OpenBabel11052414053D

 34 39  0  0  1  0  0  0  0  0999 V2000
  188.6280  176.9370  145.4400 C   0  0  1  0  0  3  0  0  0  0  0  0
  190.4090  176.7280  143.6150 C   0  0  2  0  0  3  0  0  0  0  0  0
  188.0740  177.5570  143.0720 C   0  0  0  0  0  0  0  0  0  0  0  0
  187.4300  178.1820  140.8390 N   0  0  0  0  0  0  0  0  0  0  0  0
  191.0390  177.3120  145.9740 C   0  0  0  0  0  3  0  0  0  0  0  0
  191.3950  176.9060  144.7460 C   0  0  0  0  0  3  0  0  0  0  0  0
  189.5860  177.6170  141.0350 C   0  0  0  0  0  3  0  0  0  0  0  0
  188.9950  177.1240  143.9830 C   0  0  0  0  0  0  0  0  0  0  0  0
  187.9640  178.3130  139.6160 C   0  0  0  0  0  3  0  0  0  0  0  0
  189.6250  177.6940  146.3090 C   0  0  0  0  0  2  0  0  0  0  0  0
  186.7310  177.8400  143.4760 C   0  0  0  0  0  0  0  0  0  0  0  0
  187.3090  177.3750  145.7460 O   0  0  0  0  0  0  0  0  0  0  0  0
  190.4400  175.2820  143.1540 C   0  0  0  0  0  1  0  0  0  0  0  0
  186.1510  178.4290  141.1870 C   0  0  0  0  0  3  0  0  0  0  0  0
  185.7550  178.2560  142.5180 C   0  0  0  0  0  0  0  0  0  0  0  0
  189.2970  177.9660  139.7270 C   0  0  0  0  0  0  0  0  0  0  0  0
  188.3760  177.7640  141.7010 C   0  0  0  0  0  0  0  0  0  0  0  0
  186.3930  177.7550  144.7670 C   0  0  0  0  0  3  0  0  0  0  0  0
  182.0010  178.7790  142.1860 C   0  0  0  0  0  0  0  0  0  0  0  0
  181.6540  179.1070  143.4990 C   0  0  0  0  0  3  0  0  0  0  0  0
  184.3290  178.5250  142.8530 C   0  0  0  0  0  0  0  0  0  0  0  0
  182.6380  179.1520  144.4890 C   0  0  0  0  0  3  0  0  0  0  0  0
  183.3310  178.4960  141.8640 C   0  0  0  0  0  3  0  0  0  0  0  0
  183.9690  178.8670  144.1670 C   0  0  0  0  0  3  0  0  0  0  0  0
  181.0490  178.7410  141.2230 F   0  0  0  0  0  0  0  0  0  0  0  0
  190.2490  177.9620  138.6640 N   0  0  0  0  0  2  0  0  0  0  0  0
  190.1310  177.0660  137.5240 C   0  0  0  0  0  2  0  0  0  0  0  0
  189.7490  174.1670  137.0030 C   0  0  0  0  0  1  0  0  0  0  0  0
  191.2810  176.1140  137.5130 C   0  0  0  0  0  0  0  0  0  0  0  0
  191.0970  174.7410  137.2780 C   0  0  0  0  0  0  0  0  0  0  0  0
  193.4260  174.3880  137.5530 C   0  0  0  0  0  3  0  0  0  0  0  0
  193.6070  175.7510  137.7940 C   0  0  0  0  0  3  0  0  0  0  0  0
  192.5310  176.5810  137.7700 N   0  0  0  0  0  0  0  0  0  0  0  0
  192.1770  173.9150  137.3020 N   0  0  0  0  0  0  0  0  0  0  0  0
  1 12  1  0  0  0  0
  1 10  1  1  0  0  0
  2 13  1  1  0  0  0
  2  8  1  0  0  0  0
  2  6  1  0  0  0  0
  3 11  1  0  0  0  0
  3  8  2  0  0  0  0
  4 14  1  0  0  0  0
  4 17  1  0  0  0  0
  5 10  1  0  0  0  0
  6  5  2  0  0  0  0
  7 17  2  0  0  0  0
  8  1  1  0  0  0  0
  9 16  2  0  0  0  0
  9  4  1  0  0  0  0
 11 18  2  0  0  0  0
 14 15  2  0  0  0  0
 15 21  1  0  0  0  0
 15 11  1  0  0  0  0
 16  7  1  0  0  0  0
 17  3  1  0  0  0  0
 18 12  1  0  0  0  0
 19 20  1  0  0  0  0
 20 22  2  0  0  0  0
 21 24  2  0  0  0  0
 23 19  2  0  0  0  0
 23 21  1  0  0  0  0
 24 22  1  0  0  0  0
 25 19  1  0  0  0  0
 26 16  1  0  0  0  0
 27 26  1  0  0  0  0
 28 30  1  0  0  0  0
 29 27  1  0  0  0  0
 29 33  1  0  0  0  0
 30 34  1  0  0  0  0
 30 29  2  0  0  0  0
 31 32  1  0  0  0  0
 33 32  2  0  0  0  0
 34 31  2  0  0  0  0
M  END
>  <MODEL>
1

>  <REMARK>
 VINA RESULT:     -10.4      0.000      0.000
  Name = 
  4 active torsions:
  status: ('A' for Active; 'I' for Inactive)
    1  A    between atoms: C_3  and  C_13
    2  A    between atoms: C_3  and  N_17
    3  A    between atoms: C_12  and  C_28
    4  A    between atoms: N_17  and  C_29
                            x       y       z     vdW  Elec       q    Type
                         _______ _______ _______ _____ _____    ______ ____

>  <TORSDO>
F 4

$$$$
=
 OpenBabel11052414053D

 34 39  0  0  1  0  0  0  0  0999 V2000
  188.5620  176.9550  145.3900 C   0  0  1  0  0  3  0  0  0  0  0  0
  190.3230  176.7890  143.5420 C   0  0  2  0  0  3  0  0  0  0  0  0
  187.9730  177.5970  143.0370 C   0  0  0  0  0  0  0  0  0  0  0  0
  187.2940  178.2400  140.8190 N   0  0  0  0  0  0  0  0  0  0  0  0
  190.9750  177.3530  145.9000 C   0  0  0  0  0  3  0  0  0  0  0  0
  191.3210  176.9650  144.6630 C   0  0  0  0  0  3  0  0  0  0  0  0
  189.4590  177.6990  140.9830 C   0  0  0  0  0  3  0  0  0  0  0  0
  188.9090  177.1630  143.9310 C   0  0  0  0  0  0  0  0  0  0  0  0
  187.8110  178.3930  139.5920 C   0  0  0  0  0  3  0  0  0  0  0  0
  189.5610  177.7140  146.2570 C   0  0  0  0  0  2  0  0  0  0  0  0
  186.6310  177.8590  143.4610 C   0  0  0  0  0  0  0  0  0  0  0  0
  187.2420  177.3740  145.7170 O   0  0  0  0  0  0  0  0  0  0  0  0
  190.3660  175.3490  143.0640 C   0  0  0  0  0  1  0  0  0  0  0  0
  186.0170  178.4670  141.1860 C   0  0  0  0  0  3  0  0  0  0  0  0
  185.6390  178.2740  142.5200 C   0  0  0  0  0  0  0  0  0  0  0  0
  189.1500  178.0590  139.6830 C   0  0  0  0  0  0  0  0  0  0  0  0
  188.2550  177.8240  141.6650 C   0  0  0  0  0  0  0  0  0  0  0  0
  186.3100  177.7550  144.7550 C   0  0  0  0  0  3  0  0  0  0  0  0
  181.8830  178.8140  142.2330 C   0  0  0  0  0  0  0  0  0  0  0  0
  181.5410  179.0640  143.5630 C   0  0  0  0  0  3  0  0  0  0  0  0
  184.2140  178.5220  142.8740 C   0  0  0  0  0  0  0  0  0  0  0  0
  182.5290  179.0520  144.5510 C   0  0  0  0  0  3  0  0  0  0  0  0
  183.2120  178.5510  141.8900 C   0  0  0  0  0  3  0  0  0  0  0  0
  183.8580  178.7870  144.2080 C   0  0  0  0  0  3  0  0  0  0  0  0
  180.9280  178.8300  141.2730 F   0  0  0  0  0  0  0  0  0  0  0  0
  190.0890  178.0790  138.6090 N   0  0  0  0  0  2  0  0  0  0  0  0
  189.7170  177.7180  137.2500 C   0  0  0  0  0  2  0  0  0  0  0  0
  187.2000  176.2290  136.7260 C   0  0  0  0  0  1  0  0  0  0  0  0
  189.7000  176.2320  137.1120 C   0  0  0  0  0  0  0  0  0  0  0  0
  188.5070  175.5280  136.8760 C   0  0  0  0  0  0  0  0  0  0  0  0
  189.7120  173.4860  136.9150 C   0  0  0  0  0  3  0  0  0  0  0  0
  190.8950  174.1850  137.1570 C   0  0  0  0  0  3  0  0  0  0  0  0
  190.8620  175.5400  137.2520 N   0  0  0  0  0  0  0  0  0  0  0  0
  188.5460  174.1720  136.7820 N   0  0  0  0  0  0  0  0  0  0  0  0
  1 12  1  0  0  0  0
  1 10  1  1  0  0  0
  2 13  1  1  0  0  0
  2  8  1  0  0  0  0
  2  6  1  0  0  0  0
  3 11  1  0  0  0  0
  3  8  2  0  0  0  0
  4 14  1  0  0  0  0
  4 17  1  0  0  0  0
  5 10  1  0  0  0  0
  6  5  2  0  0  0  0
  7 17  2  0  0  0  0
  8  1  1  0  0  0  0
  9 16  2  0  0  0  0
  9  4  1  0  0  0  0
 11 18  2  0  0  0  0
 14 15  2  0  0  0  0
 15 21  1  0  0  0  0
 15 11  1  0  0  0  0
 16  7  1  0  0  0  0
 17  3  1  0  0  0  0
 18 12  1  0  0  0  0
 19 20  1  0  0  0  0
 20 22  2  0  0  0  0
 21 24  2  0  0  0  0
 23 19  2  0  0  0  0
 23 21  1  0  0  0  0
 24 22  1  0  0  0  0
 25 19  1  0  0  0  0
 26 16  1  0  0  0  0
 27 26  1  0  0  0  0
 28 30  1  0  0  0  0
 29 27  1  0  0  0  0
 29 33  1  0  0  0  0
 30 29  2  0  0  0  0
 31 32  1  0  0  0  0
 32 33  2  0  0  0  0
 34 30  1  0  0  0  0
 34 31  2  0  0  0  0
M  END
>  <MODEL>
2

>  <REMARK>
 VINA RESULT:     -10.3      1.000      1.383
  Name = 
  4 active torsions:
  status: ('A' for Active; 'I' for Inactive)
    1  A    between atoms: C_3  and  C_13
    2  A    between atoms: C_3  and  N_17
    3  A    between atoms: C_12  and  C_28
    4  A    between atoms: N_17  and  C_29
                            x       y       z     vdW  Elec       q    Type
                         _______ _______ _______ _____ _____    ______ ____

>  <TORSDO>
F 4

$$$$
=
 OpenBabel11052414053D

 34 39  0  0  1  0  0  0  0  0999 V2000
  185.6090  178.0280  146.2200 C   0  0  1  0  0  3  0  0  0  0  0  0
  187.6780  177.7970  144.7330 C   0  0  2  0  0  3  0  0  0  0  0  0
  185.4180  178.3870  143.7430 C   0  0  0  0  0  0  0  0  0  0  0  0
  185.1160  178.7550  141.3840 N   0  0  0  0  0  0  0  0  0  0  0  0
  187.8690  178.6390  147.0910 C   0  0  0  0  0  3  0  0  0  0  0  0
  188.4490  178.1530  145.9830 C   0  0  0  0  0  3  0  0  0  0  0  0
  187.2410  178.3820  141.9780 C   0  0  0  0  0  3  0  0  0  0  0  0
  186.2010  178.1110  144.8280 C   0  0  0  0  0  0  0  0  0  0  0  0
  185.8360  178.8180  140.2550 C   0  0  0  0  0  3  0  0  0  0  0  0
  186.3970  178.9370  147.1550 C   0  0  0  0  0  2  0  0  0  0  0  0
  184.0120  178.5980  143.8970 C   0  0  0  0  0  0  0  0  0  0  0  0
  184.2320  178.3860  146.2650 O   0  0  0  0  0  0  0  0  0  0  0  0
  187.8760  176.3220  144.4320 C   0  0  0  0  0  1  0  0  0  0  0  0
  183.7840  178.9300  141.4970 C   0  0  0  0  0  3  0  0  0  0  0  0
  183.1840  178.8470  142.7590 C   0  0  0  0  0  0  0  0  0  0  0  0
  187.1520  178.5880  140.6120 C   0  0  0  0  0  0  0  0  0  0  0  0
  185.9300  178.4930  142.4240 C   0  0  0  0  0  0  0  0  0  0  0  0
  183.4700  178.6030  145.1200 C   0  0  0  0  0  3  0  0  0  0  0  0
  179.6100  179.7940  141.8600 C   0  0  0  0  0  0  0  0  0  0  0  0
  178.9320  179.4350  143.0270 C   0  0  0  0  0  3  0  0  0  0  0  0
  181.7080  179.0320  142.8330 C   0  0  0  0  0  0  0  0  0  0  0  0
  179.6340  178.8820  144.1000 C   0  0  0  0  0  3  0  0  0  0  0  0
  180.9910  179.6000  141.7670 C   0  0  0  0  0  3  0  0  0  0  0  0
  181.0150  178.6860  144.0050 C   0  0  0  0  0  3  0  0  0  0  0  0
  178.9310  180.3360  140.8210 F   0  0  0  0  0  0  0  0  0  0  0  0
  188.2650  178.5630  139.7200 N   0  0  0  0  0  2  0  0  0  0  0  0
  188.7470  177.3300  139.1180 C   0  0  0  0  0  2  0  0  0  0  0  0
  190.5200  176.3100  136.9650 C   0  0  0  0  0  1  0  0  0  0  0  0
  190.2240  177.2230  139.3050 C   0  0  0  0  0  0  0  0  0  0  0  0
  191.0600  176.7290  138.2900 C   0  0  0  0  0  0  0  0  0  0  0  0
  192.9370  176.9950  139.7140 C   0  0  0  0  0  3  0  0  0  0  0  0
  192.1050  177.4790  140.7250 C   0  0  0  0  0  3  0  0  0  0  0  0
  190.7690  177.5790  140.4980 N   0  0  0  0  0  0  0  0  0  0  0  0
  192.3960  176.6310  138.5220 N   0  0  0  0  0  0  0  0  0  0  0  0
  1 12  1  0  0  0  0
  1 10  1  1  0  0  0
  2 13  1  1  0  0  0
  2  8  1  0  0  0  0
  2  6  1  0  0  0  0
  3 11  1  0  0  0  0
  3  8  2  0  0  0  0
  4 14  1  0  0  0  0
  4 17  1  0  0  0  0
  5 10  1  0  0  0  0
  6  5  2  0  0  0  0
  7 17  2  0  0  0  0
  8  1  1  0  0  0  0
  9 16  2  0  0  0  0
  9  4  1  0  0  0  0
 11 18  2  0  0  0  0
 14 15  2  0  0  0  0
 15 21  1  0  0  0  0
 15 11  1  0  0  0  0
 16  7  1  0  0  0  0
 17  3  1  0  0  0  0
 18 12  1  0  0  0  0
 19 20  1  0  0  0  0
 20 22  2  0  0  0  0
 21 24  2  0  0  0  0
 23 19  2  0  0  0  0
 23 21  1  0  0  0  0
 24 22  1  0  0  0  0
 25 19  1  0  0  0  0
 26 16  1  0  0  0  0
 27 29  1  0  0  0  0
 27 26  1  0  0  0  0
 28 30  1  0  0  0  0
 29 33  1  0  0  0  0
 30 34  1  0  0  0  0
 30 29  2  0  0  0  0
 31 32  1  0  0  0  0
 33 32  2  0  0  0  0
 34 31  2  0  0  0  0
M  END
>  <MODEL>
3

>  <REMARK>
 VINA RESULT:      -9.5      1.882      2.884
  Name = 
  4 active torsions:
  status: ('A' for Active; 'I' for Inactive)
    1  A    between atoms: C_3  and  C_13
    2  A    between atoms: C_3  and  N_17
    3  A    between atoms: C_12  and  C_28
    4  A    between atoms: N_17  and  C_29
                            x       y       z     vdW  Elec       q    Type
                         _______ _______ _______ _____ _____    ______ ____

>  <TORSDO>
F 4

$$$$
=
 OpenBabel11052414053D

 34 39  0  0  1  0  0  0  0  0999 V2000
  181.9550  178.9030  141.5610 C   0  0  1  0  0  3  0  0  0  0  0  0
  182.8820  178.9820  139.1770 C   0  0  2  0  0  3  0  0  0  0  0  0
  184.4180  178.6280  141.1650 C   0  0  0  0  0  0  0  0  0  0  0  0
  186.7940  178.3510  140.9070 N   0  0  0  0  0  0  0  0  0  0  0  0
  180.5920  178.0640  139.6430 C   0  0  0  0  0  3  0  0  0  0  0  0
  181.5010  178.5230  138.7700 C   0  0  0  0  0  3  0  0  0  0  0  0
  185.6850  178.5120  138.9700 C   0  0  0  0  0  3  0  0  0  0  0  0
  183.1630  178.8020  140.6540 C   0  0  0  0  0  0  0  0  0  0  0  0
  187.7170  178.2530  139.9390 C   0  0  0  0  0  3  0  0  0  0  0  0
  180.9000  177.9000  141.1040 C   0  0  0  0  0  2  0  0  0  0  0  0
  184.6200  178.5430  142.5790 C   0  0  0  0  0  0  0  0  0  0  0  0
  182.2620  178.6710  142.9310 O   0  0  0  0  0  0  0  0  0  0  0  0
  183.0540  180.4390  138.7900 C   0  0  0  0  0  1  0  0  0  0  0  0
  187.0160  178.2960  142.2360 C   0  0  0  0  0  3  0  0  0  0  0  0
  185.9350  178.4010  143.1180 C   0  0  0  0  0  0  0  0  0  0  0  0
  187.0410  178.3510  138.7370 C   0  0  0  0  0  0  0  0  0  0  0  0
  185.5770  178.5100  140.3550 C   0  0  0  0  0  0  0  0  0  0  0  0
  183.5670  178.5550  143.4030 C   0  0  0  0  0  3  0  0  0  0  0  0
  187.5320  177.5060  146.4550 C   0  0  0  0  0  0  0  0  0  0  0  0
  186.7230  178.2170  147.3430 C   0  0  0  0  0  3  0  0  0  0  0  0
  186.2310  178.3500  144.5770 C   0  0  0  0  0  0  0  0  0  0  0  0
  185.6640  178.9890  146.8580 C   0  0  0  0  0  3  0  0  0  0  0  0
  187.2840  177.5680  145.0810 C   0  0  0  0  0  3  0  0  0  0  0  0
  185.4170  179.0520  145.4830 C   0  0  0  0  0  3  0  0  0  0  0  0
  188.5550  176.7530  146.9240 F   0  0  0  0  0  0  0  0  0  0  0  0
  187.6330  178.2970  137.4400 N   0  0  0  0  0  2  0  0  0  0  0  0
  189.0630  178.1170  137.2510 C   0  0  0  0  0  2  0  0  0  0  0  0
  191.0000  176.8740  139.1290 C   0  0  0  0  0  1  0  0  0  0  0  0
  189.3830  176.6600  137.1960 C   0  0  0  0  0  0  0  0  0  0  0  0
  190.3080  176.0750  138.0770 C   0  0  0  0  0  0  0  0  0  0  0  0
  189.9800  173.9780  137.0220 C   0  0  0  0  0  3  0  0  0  0  0  0
  189.0670  174.5600  136.1420 C   0  0  0  0  0  3  0  0  0  0  0  0
  188.7910  175.8870  136.2470 N   0  0  0  0  0  0  0  0  0  0  0  0
  190.5800  174.7480  137.9670 N   0  0  0  0  0  0  0  0  0  0  0  0
  1 10  1  6  0  0  0
  1 12  1  0  0  0  0
  2 13  1  1  0  0  0
  2  8  1  0  0  0  0
  3 11  1  0  0  0  0
  4 14  1  0  0  0  0
  5 10  1  0  0  0  0
  6  2  1  0  0  0  0
  6  5  2  0  0  0  0
  7 17  2  0  0  0  0
  8  3  2  0  0  0  0
  8  1  1  0  0  0  0
  9  4  1  0  0  0  0
 11 15  1  0  0  0  0
 11 18  2  0  0  0  0
 12 18  1  0  0  0  0
 14 15  2  0  0  0  0
 15 21  1  0  0  0  0
 16  7  1  0  0  0  0
 16  9  2  0  0  0  0
 17  4  1  0  0  0  0
 17  3  1  0  0  0  0
 19 25  1  0  0  0  0
 19 20  1  0  0  0  0
 21 23  1  0  0  0  0
 21 24  2  0  0  0  0
 22 20  2  0  0  0  0
 23 19  2  0  0  0  0
 24 22  1  0  0  0  0
 26 16  1  0  0  0  0
 27 26  1  0  0  0  0
 29 27  1  0  0  0  0
 29 30  1  0  0  0  0
 30 28  1  0  0  0  0
 31 34  1  0  0  0  0
 32 33  1  0  0  0  0
 32 31  2  0  0  0  0
 33 29  2  0  0  0  0
 34 30  2  0  0  0  0
M  END
>  <MODEL>
4

>  <REMARK>
 VINA RESULT:      -9.5      2.825      5.731
  Name = 
  4 active torsions:
  status: ('A' for Active; 'I' for Inactive)
    1  A    between atoms: C_3  and  C_13
    2  A    between atoms: C_3  and  N_17
    3  A    between atoms: C_12  and  C_28
    4  A    between atoms: N_17  and  C_29
                            x       y       z     vdW  Elec       q    Type
                         _______ _______ _______ _____ _____    ______ ____

>  <TORSDO>
F 4

$$$$
=
 OpenBabel11052414053D

 34 39  0  0  1  0  0  0  0  0999 V2000
  188.2870  177.9390  139.4220 C   0  0  1  0  0  3  0  0  0  0  0  0
  186.5890  178.2190  137.5290 C   0  0  2  0  0  3  0  0  0  0  0  0
  185.8860  178.4390  139.9560 C   0  0  0  0  0  0  0  0  0  0  0  0
  183.6130  178.9170  140.5870 N   0  0  0  0  0  0  0  0  0  0  0  0
  188.9850  178.9040  137.2260 C   0  0  0  0  0  3  0  0  0  0  0  0
  187.7850  178.6220  136.6980 C   0  0  0  0  0  3  0  0  0  0  0  0
  183.9580  178.9140  138.3770 C   0  0  0  0  0  3  0  0  0  0  0  0
  186.8580  178.2370  139.0180 C   0  0  0  0  0  0  0  0  0  0  0  0
  182.4300  179.2000  140.0240 C   0  0  0  0  0  3  0  0  0  0  0  0
  189.2220  178.9100  138.7100 C   0  0  0  0  0  2  0  0  0  0  0  0
  186.1970  178.3640  141.3510 C   0  0  0  0  0  0  0  0  0  0  0  0
  188.5010  178.0230  140.8260 O   0  0  0  0  0  0  0  0  0  0  0  0
  186.1320  176.8360  137.1010 C   0  0  0  0  0  1  0  0  0  0  0  0
  183.8730  178.8250  141.9070 C   0  0  0  0  0  3  0  0  0  0  0  0
  185.1740  178.5350  142.3340 C   0  0  0  0  0  0  0  0  0  0  0  0
  182.6330  179.2000  138.6570 C   0  0  0  0  0  0  0  0  0  0  0  0
  184.5390  178.7380  139.6260 C   0  0  0  0  0  0  0  0  0  0  0  0
  187.4620  178.1750  141.7410 C   0  0  0  0  0  3  0  0  0  0  0  0
  186.7550  177.6850  145.6890 C   0  0  0  0  0  0  0  0  0  0  0  0
  185.7940  178.1770  146.5750 C   0  0  0  0  0  3  0  0  0  0  0  0
  185.4090  178.4290  143.8010 C   0  0  0  0  0  0  0  0  0  0  0  0
  184.6390  178.7890  146.0830 C   0  0  0  0  0  3  0  0  0  0  0  0
  186.5600  177.8050  144.3110 C   0  0  0  0  0  3  0  0  0  0  0  0
  184.4450  178.9090  144.7030 C   0  0  0  0  0  3  0  0  0  0  0  0
  187.8730  177.0870  146.1660 F   0  0  0  0  0  0  0  0  0  0  0  0
  181.6380  179.4550  137.6670 N   0  0  0  0  0  2  0  0  0  0  0  0
  180.4850  180.3010  137.9290 C   0  0  0  0  0  2  0  0  0  0  0  0
  179.7320  180.7340  135.0880 C   0  0  0  0  0  1  0  0  0  0  0  0
  180.6710  181.6240  137.2630 C   0  0  0  0  0  0  0  0  0  0  0  0
  180.3250  181.8250  135.9150 C   0  0  0  0  0  0  0  0  0  0  0  0
  181.0800  184.0670  136.0620 C   0  0  0  0  0  3  0  0  0  0  0  0
  181.4300  183.8660  137.3970 C   0  0  0  0  0  3  0  0  0  0  0  0
  181.2190  182.6490  137.9660 N   0  0  0  0  0  0  0  0  0  0  0  0
  180.5370  183.0430  135.3520 N   0  0  0  0  0  0  0  0  0  0  0  0
  1 10  1  6  0  0  0
  1 12  1  0  0  0  0
  2 13  1  6  0  0  0
  2  8  1  0  0  0  0
  3 11  1  0  0  0  0
  4 14  1  0  0  0  0
  5 10  1  0  0  0  0
  6  5  2  0  0  0  0
  6  2  1  0  0  0  0
  7 16  1  0  0  0  0
  7 17  2  0  0  0  0
  8  1  1  0  0  0  0
  8  3  2  0  0  0  0
  9  4  1  0  0  0  0
 11 18  2  0  0  0  0
 11 15  1  0  0  0  0
 12 18  1  0  0  0  0
 14 15  2  0  0  0  0
 15 21  1  0  0  0  0
 16  9  2  0  0  0  0
 17  3  1  0  0  0  0
 17  4  1  0  0  0  0
 19 25  1  0  0  0  0
 19 20  1  0  0  0  0
 21 23  1  0  0  0  0
 21 24  2  0  0  0  0
 22 20  2  0  0  0  0
 23 19  2  0  0  0  0
 24 22  1  0  0  0  0
 26 27  1  0  0  0  0
 26 16  1  0  0  0  0
 28 30  1  0  0  0  0
 29 27  1  0  0  0  0
 29 33  1  0  0  0  0
 30 29  2  0  0  0  0
 31 32  1  0  0  0  0
 32 33  2  0  0  0  0
 34 30  1  0  0  0  0
 34 31  2  0  0  0  0
M  END
>  <MODEL>
5

>  <REMARK>
 VINA RESULT:      -9.3      4.522      8.176
  Name = 
  4 active torsions:
  status: ('A' for Active; 'I' for Inactive)
    1  A    between atoms: C_3  and  C_13
    2  A    between atoms: C_3  and  N_17
    3  A    between atoms: C_12  and  C_28
    4  A    between atoms: N_17  and  C_29
                            x       y       z     vdW  Elec       q    Type
                         _______ _______ _______ _____ _____    ______ ____

>  <TORSDO>
F 4

$$$$
=
 OpenBabel11052414053D

 34 39  0  0  1  0  0  0  0  0999 V2000
  186.5860  177.5480  145.3210 C   0  0  1  0  0  3  0  0  0  0  0  0
  188.7020  177.4550  143.8860 C   0  0  2  0  0  3  0  0  0  0  0  0
  186.4650  178.0930  142.8740 C   0  0  0  0  0  0  0  0  0  0  0  0
  186.2280  178.6360  140.5410 N   0  0  0  0  0  0  0  0  0  0  0  0
  188.8100  178.1180  146.3050 C   0  0  0  0  0  3  0  0  0  0  0  0
  189.4300  177.7240  145.1820 C   0  0  0  0  0  3  0  0  0  0  0  0
  188.3390  178.2430  141.1710 C   0  0  0  0  0  3  0  0  0  0  0  0
  187.2180  177.7440  143.9590 C   0  0  0  0  0  0  0  0  0  0  0  0
  186.9810  178.7920  139.4420 C   0  0  0  0  0  3  0  0  0  0  0  0
  187.3330  178.3930  146.3460 C   0  0  0  0  0  2  0  0  0  0  0  0
  185.0510  178.2750  143.0000 C   0  0  0  0  0  0  0  0  0  0  0  0
  185.2040  177.8860  145.3510 O   0  0  0  0  0  0  0  0  0  0  0  0
  188.9290  176.0100  143.4800 C   0  0  0  0  0  1  0  0  0  0  0  0
  184.8910  178.7860  140.6260 C   0  0  0  0  0  3  0  0  0  0  0  0
  184.2550  178.6010  141.8590 C   0  0  0  0  0  0  0  0  0  0  0  0
  188.2880  178.5510  139.8220 C   0  0  0  0  0  0  0  0  0  0  0  0
  187.0140  178.3050  141.5830 C   0  0  0  0  0  0  0  0  0  0  0  0
  184.4730  178.1810  144.2020 C   0  0  0  0  0  3  0  0  0  0  0  0
  180.7100  179.1230  143.1400 C   0  0  0  0  0  0  0  0  0  0  0  0
  179.9720  178.9920  141.9610 C   0  0  0  0  0  3  0  0  0  0  0  0
  182.7750  178.7620  141.9010 C   0  0  0  0  0  0  0  0  0  0  0  0
  180.6270  178.7400  140.7530 C   0  0  0  0  0  3  0  0  0  0  0  0
  182.1020  179.0030  143.1110 C   0  0  0  0  0  3  0  0  0  0  0  0
  182.0200  178.6210  140.7240 C   0  0  0  0  0  3  0  0  0  0  0  0
  180.0760  179.3620  144.3130 F   0  0  0  0  0  0  0  0  0  0  0  0
  189.4280  178.6070  138.9660 N   0  0  0  0  0  2  0  0  0  0  0  0
  189.3960  178.1050  137.6010 C   0  0  0  0  0  2  0  0  0  0  0  0
  187.8950  175.5610  137.2850 C   0  0  0  0  0  1  0  0  0  0  0  0
  190.0930  176.7880  137.5340 C   0  0  0  0  0  0  0  0  0  0  0  0
  189.3820  175.5840  137.3960 C   0  0  0  0  0  0  0  0  0  0  0  0
  191.4210  174.3770  137.4660 C   0  0  0  0  0  3  0  0  0  0  0  0
  192.1270  175.5720  137.6100 C   0  0  0  0  0  3  0  0  0  0  0  0
  191.4480  176.7480  137.6430 N   0  0  0  0  0  0  0  0  0  0  0  0
  190.0660  174.4100  137.3640 N   0  0  0  0  0  0  0  0  0  0  0  0
  1 12  1  0  0  0  0
  1 10  1  1  0  0  0
  2 13  1  1  0  0  0
  2  8  1  0  0  0  0
  2  6  1  0  0  0  0
  3 11  1  0  0  0  0
  3  8  2  0  0  0  0
  4 14  1  0  0  0  0
  4 17  1  0  0  0  0
  5 10  1  0  0  0  0
  6  5  2  0  0  0  0
  7 17  2  0  0  0  0
  8  1  1  0  0  0  0
  9 16  2  0  0  0  0
  9  4  1  0  0  0  0
 11 18  2  0  0  0  0
 14 15  2  0  0  0  0
 15 21  1  0  0  0  0
 15 11  1  0  0  0  0
 16  7  1  0  0  0  0
 17  3  1  0  0  0  0
 18 12  1  0  0  0  0
 19 25  1  0  0  0  0
 20 19  2  0  0  0  0
 21 23  2  0  0  0  0
 22 20  1  0  0  0  0
 23 19  1  0  0  0  0
 24 22  2  0  0  0  0
 24 21  1  0  0  0  0
 26 16  1  0  0  0  0
 27 26  1  0  0  0  0
 28 30  1  0  0  0  0
 29 27  1  0  0  0  0
 29 33  1  0  0  0  0
 30 29  2  0  0  0  0
 31 32  1  0  0  0  0
 32 33  2  0  0  0  0
 34 30  1  0  0  0  0
 34 31  2  0  0  0  0
M  END
>  <MODEL>
6

>  <REMARK>
 VINA RESULT:      -9.2      1.367      2.062
  Name = 
  4 active torsions:
  status: ('A' for Active; 'I' for Inactive)
    1  A    between atoms: C_3  and  C_13
    2  A    between atoms: C_3  and  N_17
    3  A    between atoms: C_12  and  C_28
    4  A    between atoms: N_17  and  C_29
                            x       y       z     vdW  Elec       q    Type
                         _______ _______ _______ _____ _____    ______ ____

>  <TORSDO>
F 4

$$$$
=
 OpenBabel11052414053D

 34 39  0  0  1  0  0  0  0  0999 V2000
  181.7090  178.9940  141.6270 C   0  0  1  0  0  3  0  0  0  0  0  0
  182.5130  179.0700  139.2000 C   0  0  2  0  0  3  0  0  0  0  0  0
  184.1440  178.6840  141.1040 C   0  0  0  0  0  0  0  0  0  0  0  0
  186.5000  178.3730  140.7230 N   0  0  0  0  0  0  0  0  0  0  0  0
  180.2370  178.1840  139.7780 C   0  0  0  0  0  3  0  0  0  0  0  0
  181.1070  178.6340  138.8620 C   0  0  0  0  0  3  0  0  0  0  0  0
  185.2950  178.5580  138.8470 C   0  0  0  0  0  3  0  0  0  0  0  0
  182.8680  178.8790  140.6590 C   0  0  0  0  0  0  0  0  0  0  0  0
  187.3700  178.2650  139.7080 C   0  0  0  0  0  3  0  0  0  0  0  0
  180.6180  178.0100  141.2220 C   0  0  0  0  0  2  0  0  0  0  0  0
  184.4170  178.5900  142.5060 C   0  0  0  0  0  0  0  0  0  0  0  0
  182.0830  178.7510  142.9790 O   0  0  0  0  0  0  0  0  0  0  0  0
  182.6880  180.5260  138.8100 C   0  0  0  0  0  1  0  0  0  0  0  0
  186.7890  178.3080  142.0380 C   0  0  0  0  0  3  0  0  0  0  0  0
  185.7560  178.4250  142.9760 C   0  0  0  0  0  0  0  0  0  0  0  0
  186.6340  178.3790  138.5440 C   0  0  0  0  0  0  0  0  0  0  0  0
  185.2580  178.5520  140.2360 C   0  0  0  0  0  0  0  0  0  0  0  0
  183.4080  178.6130  143.3830 C   0  0  0  0  0  3  0  0  0  0  0  0
  187.5220  177.5080  146.2200 C   0  0  0  0  0  0  0  0  0  0  0  0
  186.7580  178.2090  147.1540 C   0  0  0  0  0  3  0  0  0  0  0  0
  186.1260  178.3630  144.4180 C   0  0  0  0  0  0  0  0  0  0  0  0
  185.6740  178.9820  146.7290 C   0  0  0  0  0  3  0  0  0  0  0  0
  187.2040  177.5800  144.8610 C   0  0  0  0  0  3  0  0  0  0  0  0
  185.3580  179.0550  145.3690 C   0  0  0  0  0  3  0  0  0  0  0  0
  188.5700  176.7530  146.6300 F   0  0  0  0  0  0  0  0  0  0  0  0
  187.1580  178.3220  137.2180 N   0  0  0  0  0  2  0  0  0  0  0  0
  186.5630  177.4880  136.1860 C   0  0  0  0  0  2  0  0  0  0  0  0
  184.5960  175.4550  137.0920 C   0  0  0  0  0  1  0  0  0  0  0  0
  186.9530  176.0640  136.4050 C   0  0  0  0  0  0  0  0  0  0  0  0
  186.0240  175.1050  136.8450 C   0  0  0  0  0  0  0  0  0  0  0  0
  187.7310  173.4590  136.8440 C   0  0  0  0  0  3  0  0  0  0  0  0
  188.6540  174.4130  136.4140 C   0  0  0  0  0  3  0  0  0  0  0  0
  188.2450  175.6920  136.2070 N   0  0  0  0  0  0  0  0  0  0  0  0
  186.4380  173.8270  137.0500 N   0  0  0  0  0  0  0  0  0  0  0  0
  1 10  1  6  0  0  0
  1 12  1  0  0  0  0
  2 13  1  1  0  0  0
  2  8  1  0  0  0  0
  3 11  1  0  0  0  0
  4 14  1  0  0  0  0
  5 10  1  0  0  0  0
  6  2  1  0  0  0  0
  6  5  2  0  0  0  0
  7 17  2  0  0  0  0
  8  3  2  0  0  0  0
  8  1  1  0  0  0  0
  9  4  1  0  0  0  0
 11 15  1  0  0  0  0
 11 18  2  0  0  0  0
 12 18  1  0  0  0  0
 14 15  2  0  0  0  0
 15 21  1  0  0  0  0
 16  7  1  0  0  0  0
 16  9  2  0  0  0  0
 17  4  1  0  0  0  0
 17  3  1  0  0  0  0
 19 25  1  0  0  0  0
 19 20  1  0  0  0  0
 21 23  1  0  0  0  0
 21 24  2  0  0  0  0
 22 20  2  0  0  0  0
 23 19  2  0  0  0  0
 24 22  1  0  0  0  0
 26 16  1  0  0  0  0
 27 29  1  0  0  0  0
 27 26  1  0  0  0  0
 29 30  1  0  0  0  0
 30 34  2  0  0  0  0
 30 28  1  0  0  0  0
 31 34  1  0  0  0  0
 32 31  2  0  0  0  0
 33 29  2  0  0  0  0
 33 32  1  0  0  0  0
M  END
>  <MODEL>
7

>  <REMARK>
 VINA RESULT:      -9.1      3.273      6.150
  Name = 
  4 active torsions:
  status: ('A' for Active; 'I' for Inactive)
    1  A    between atoms: C_3  and  C_13
    2  A    between atoms: C_3  and  N_17
    3  A    between atoms: C_12  and  C_28
    4  A    between atoms: N_17  and  C_29
                            x       y       z     vdW  Elec       q    Type
                         _______ _______ _______ _____ _____    ______ ____

>  <TORSDO>
F 4

$$$$
=
 OpenBabel11052414053D

 34 39  0  0  1  0  0  0  0  0999 V2000
  188.8930  177.8780  146.2940 C   0  0  1  0  0  3  0  0  0  0  0  0
  186.5010  178.4610  146.9910 C   0  0  2  0  0  3  0  0  0  0  0  0
  187.1150  178.1690  144.5470 C   0  0  0  0  0  0  0  0  0  0  0  0
  185.4950  178.4230  142.7850 N   0  0  0  0  0  0  0  0  0  0  0  0
  187.9620  177.0390  148.4560 C   0  0  0  0  0  3  0  0  0  0  0  0
  186.8610  177.7870  148.2940 C   0  0  0  0  0  3  0  0  0  0  0  0
  184.6340  178.6080  144.8420 C   0  0  0  0  0  3  0  0  0  0  0  0
  187.4660  178.1490  145.8670 C   0  0  0  0  0  0  0  0  0  0  0  0
  184.1830  178.6460  142.6230 C   0  0  0  0  0  3  0  0  0  0  0  0
  188.9040  176.7500  147.3200 C   0  0  0  0  0  2  0  0  0  0  0  0
  188.0970  177.9410  143.5310 C   0  0  0  0  0  0  0  0  0  0  0  0
  189.7470  177.5350  145.2090 O   0  0  0  0  0  0  0  0  0  0  0  0
  186.4300  179.9610  147.2120 C   0  0  0  0  0  1  0  0  0  0  0  0
  186.4050  178.2390  141.8080 C   0  0  0  0  0  3  0  0  0  0  0  0
  187.7420  178.0020  142.1490 C   0  0  0  0  0  0  0  0  0  0  0  0
  183.6410  178.7620  143.8890 C   0  0  0  0  0  0  0  0  0  0  0  0
  185.7890  178.4010  144.0990 C   0  0  0  0  0  0  0  0  0  0  0  0
  189.3510  177.6270  143.8770 C   0  0  0  0  0  3  0  0  0  0  0  0
  189.4350  178.2550  138.7510 C   0  0  0  0  0  0  0  0  0  0  0  0
  190.5270  177.4030  138.9260 C   0  0  0  0  0  3  0  0  0  0  0  0
  188.7140  177.8200  141.0350 C   0  0  0  0  0  0  0  0  0  0  0  0
  190.7150  176.7530  140.1480 C   0  0  0  0  0  3  0  0  0  0  0  0
  188.5310  178.4570  139.7960 C   0  0  0  0  0  3  0  0  0  0  0  0
  189.8110  176.9560  141.1950 C   0  0  0  0  0  3  0  0  0  0  0  0
  189.2480  178.8820  137.5640 F   0  0  0  0  0  0  0  0  0  0  0  0
  182.2680  179.0030  144.1900 N   0  0  0  0  0  2  0  0  0  0  0  0
  181.1930  178.2850  143.5240 C   0  0  0  0  0  2  0  0  0  0  0  0
  181.4740  177.7150  140.6220 C   0  0  0  0  0  1  0  0  0  0  0  0
  180.5680  179.1610  142.4900 C   0  0  0  0  0  0  0  0  0  0  0  0
  180.7120  178.8980  141.1170 C   0  0  0  0  0  0  0  0  0  0  0  0
  179.4410  180.8360  140.6180 C   0  0  0  0  0  3  0  0  0  0  0  0
  179.3060  181.1020  141.9810 C   0  0  0  0  0  3  0  0  0  0  0  0
  179.8730  180.2600  142.8840 N   0  0  0  0  0  0  0  0  0  0  0  0
  180.1420  179.7420  140.2170 N   0  0  0  0  0  0  0  0  0  0  0  0
  1 10  1  1  0  0  0
  2 13  1  1  0  0  0
  2  6  1  0  0  0  0
  3  8  2  0  0  0  0
  4 17  1  0  0  0  0
  6  5  2  0  0  0  0
  8  1  1  0  0  0  0
  8  2  1  0  0  0  0
  9  4  1  0  0  0  0
  9 16  2  0  0  0  0
 10  5  1  0  0  0  0
 11 18  2  0  0  0  0
 11  3  1  0  0  0  0
 12  1  1  0  0  0  0
 14 15  2  0  0  0  0
 14  4  1  0  0  0  0
 15 11  1  0  0  0  0
 16 26  1  0  0  0  0
 16  7  1  0  0  0  0
 17  3  1  0  0  0  0
 17  7  2  0  0  0  0
 18 12  1  0  0  0  0
 19 20  2  0  0  0  0
 19 23  1  0  0  0  0
 20 22  1  0  0  0  0
 21 24  1  0  0  0  0
 21 15  1  0  0  0  0
 22 24  2  0  0  0  0
 23 21  2  0  0  0  0
 25 19  1  0  0  0  0
 27 26  1  0  0  0  0
 28 30  1  0  0  0  0
 29 33  1  0  0  0  0
 29 27  1  0  0  0  0
 30 29  2  0  0  0  0
 31 32  1  0  0  0  0
 32 33  2  0  0  0  0
 34 31  2  0  0  0  0
 34 30  1  0  0  0  0
M  END
>  <MODEL>
8

>  <REMARK>
 VINA RESULT:      -9.0      3.457      8.091
  Name = 
  4 active torsions:
  status: ('A' for Active; 'I' for Inactive)
    1  A    between atoms: C_3  and  C_13
    2  A    between atoms: C_3  and  N_17
    3  A    between atoms: C_12  and  C_28
    4  A    between atoms: N_17  and  C_29
                            x       y       z     vdW  Elec       q    Type
                         _______ _______ _______ _____ _____    ______ ____

>  <TORSDO>
F 4

$$$$
=
 OpenBabel11052414053D

 34 39  0  0  1  0  0  0  0  0999 V2000
  185.8000  178.6050  138.6250 C   0  0  1  0  0  3  0  0  0  0  0  0
  188.0990  178.1920  137.5810 C   0  0  2  0  0  3  0  0  0  0  0  0
  187.7590  178.0490  140.0910 C   0  0  0  0  0  0  0  0  0  0  0  0
  189.5630  177.5220  141.5940 N   0  0  0  0  0  0  0  0  0  0  0  0
  185.9950  177.5740  136.3580 C   0  0  0  0  0  3  0  0  0  0  0  0
  187.3180  177.7940  136.3500 C   0  0  0  0  0  3  0  0  0  0  0  0
  190.1340  177.4460  139.4320 C   0  0  0  0  0  3  0  0  0  0  0  0
  187.2550  178.2430  138.8370 C   0  0  0  0  0  0  0  0  0  0  0  0
  190.8590  177.1780  141.5620 C   0  0  0  0  0  3  0  0  0  0  0  0
  185.1830  177.6370  137.6210 C   0  0  0  0  0  2  0  0  0  0  0  0
  186.9200  178.1910  141.2410 C   0  0  0  0  0  0  0  0  0  0  0  0
  185.0370  178.5860  139.8260 O   0  0  0  0  0  0  0  0  0  0  0  0
  188.7530  179.5400  137.3400 C   0  0  0  0  0  1  0  0  0  0  0  0
  188.8010  177.6770  142.6960 C   0  0  0  0  0  3  0  0  0  0  0  0
  187.4530  178.0270  142.5560 C   0  0  0  0  0  0  0  0  0  0  0  0
  191.2210  177.1280  140.2290 C   0  0  0  0  0  0  0  0  0  0  0  0
  189.1100  177.6920  140.3380 C   0  0  0  0  0  0  0  0  0  0  0  0
  185.6140  178.4370  141.0850 C   0  0  0  0  0  3  0  0  0  0  0  0
  184.6320  178.9270  144.9460 C   0  0  0  0  0  0  0  0  0  0  0  0
  185.1980  178.5860  146.1760 C   0  0  0  0  0  3  0  0  0  0  0  0
  186.6550  178.2010  143.8020 C   0  0  0  0  0  0  0  0  0  0  0  0
  186.4910  178.0600  146.2270 C   0  0  0  0  0  3  0  0  0  0  0  0
  185.3590  178.7420  143.7670 C   0  0  0  0  0  3  0  0  0  0  0  0
  187.2170  177.8730  145.0470 C   0  0  0  0  0  3  0  0  0  0  0  0
  183.3810  179.4430  144.8950 F   0  0  0  0  0  0  0  0  0  0  0  0
  192.5160  176.8000  139.7280 N   0  0  0  0  0  2  0  0  0  0  0  0
  192.8060  176.7530  138.3040 C   0  0  0  0  0  2  0  0  0  0  0  0
  191.3450  174.5840  136.8960 C   0  0  0  0  0  1  0  0  0  0  0  0
  193.4640  175.4560  137.9680 C   0  0  0  0  0  0  0  0  0  0  0  0
  192.7680  174.4260  137.3120 C   0  0  0  0  0  0  0  0  0  0  0  0
  194.7040  173.0610  137.4150 C   0  0  0  0  0  3  0  0  0  0  0  0
  195.3920  174.0810  138.0720 C   0  0  0  0  0  3  0  0  0  0  0  0
  194.7560  175.2530  138.3350 N   0  0  0  0  0  0  0  0  0  0  0  0
  193.4090  173.2560  137.0510 N   0  0  0  0  0  0  0  0  0  0  0  0
  1 10  1  6  0  0  0
  1  8  1  0  0  0  0
  1 12  1  0  0  0  0
  2 13  1  6  0  0  0
  2  8  1  0  0  0  0
  3 17  1  0  0  0  0
  3 11  1  0  0  0  0
  4 14  1  0  0  0  0
  5 10  1  0  0  0  0
  6  5  2  0  0  0  0
  6  2  1  0  0  0  0
  7 16  1  0  0  0  0
  7 17  2  0  0  0  0
  8  3  2  0  0  0  0
  9  4  1  0  0  0  0
 11 15  1  0  0  0  0
 12 18  1  0  0  0  0
 15 14  2  0  0  0  0
 15 21  1  0  0  0  0
 16  9  2  0  0  0  0
 17  4  1  0  0  0  0
 18 11  2  0  0  0  0
 19 20  1  0  0  0  0
 20 22  2  0  0  0  0
 21 24  2  0  0  0  0
 23 21  1  0  0  0  0
 23 19  2  0  0  0  0
 24 22  1  0  0  0  0
 25 19  1  0  0  0  0
 26 16  1  0  0  0  0
 27 26  1  0  0  0  0
 28 30  1  0  0  0  0
 29 27  1  0  0  0  0
 29 33  1  0  0  0  0
 30 29  2  0  0  0  0
 31 32  1  0  0  0  0
 32 33  2  0  0  0  0
 34 30  1  0  0  0  0
 34 31  2  0  0  0  0
M  END
>  <MODEL>
9

>  <REMARK>
 VINA RESULT:      -9.0      2.327      4.680
  Name = 
  4 active torsions:
  status: ('A' for Active; 'I' for Inactive)
    1  A    between atoms: C_3  and  C_13
    2  A    between atoms: C_3  and  N_17
    3  A    between atoms: C_12  and  C_28
    4  A    between atoms: N_17  and  C_29
                            x       y       z     vdW  Elec       q    Type
                         _______ _______ _______ _____ _____    ______ ____

>  <TORSDO>
F 4

$$$$
