=
 OpenBabel11052412263D

 30 34  0  0  1  0  0  0  0  0999 V2000
  186.4260  178.2010  144.7470 C   0  0  0  0  0  0  0  0  0  0  0  0
  186.8380  178.2240  147.2660 C   0  0  0  0  0  0  0  0  0  0  0  0
  190.4280  176.9600  144.2050 O   0  0  0  0  0  0  0  0  0  0  0  0
  186.9160  177.9820  143.4390 C   0  0  0  0  0  0  0  0  0  0  0  0
  185.0660  178.8200  144.9420 C   0  0  0  0  0  2  0  0  0  0  0  0
  183.8770  178.8390  141.4170 O   0  0  0  0  0  1  0  0  0  0  0  0
  188.3610  178.6050  141.0650 C   0  0  2  0  0  3  0  0  0  0  0  0
  184.7650  179.0260  142.4790 C   0  0  1  0  0  3  0  0  0  0  0  0
  190.0300  176.6510  141.5960 C   0  0  2  0  0  3  0  0  0  0  0  0
  190.9070  175.8230  143.4850 C   0  0  0  0  0  2  0  0  0  0  0  0
  184.1220  178.5530  143.7800 C   0  0  2  0  0  3  0  0  0  0  0  0
  186.0550  178.2480  142.2060 C   0  0  1  0  0  3  0  0  0  0  0  0
  187.8450  178.2900  148.3290 C   0  0  0  0  0  3  0  0  0  0  0  0
  189.0000  178.7510  139.6890 C   0  0  0  0  0  1  0  0  0  0  0  0
  185.6290  178.4020  147.5690 O   0  0  0  0  0  0  0  0  0  0  0  0
  189.0750  177.2990  144.3530 C   0  0  0  0  0  0  0  0  0  0  0  0
  189.0930  177.8900  148.1110 C   0  0  0  0  0  3  0  0  0  0  0  0
  187.2690  177.9700  145.8610 C   0  0  0  0  0  0  0  0  0  0  0  0
  188.2140  177.4690  143.2390 C   0  0  0  0  0  0  0  0  0  0  0  0
  190.0960  175.5030  142.3910 O   0  0  0  0  0  0  0  0  0  0  0  0
  188.6430  177.2790  141.7920 C   0  0  1  0  0  3  0  0  0  0  0  0
  186.2760  178.4550  139.8310 O   0  0  0  0  0  1  0  0  0  0  0  0
  189.5200  177.2630  146.8140 C   0  0  0  0  0  2  0  0  0  0  0  0
  188.6000  177.5500  145.6490 C   0  0  0  0  0  0  0  0  0  0  0  0
  186.8400  178.8870  141.0350 C   0  0  2  0  0  3  0  0  0  0  0  0
  190.2150  176.2800  140.2620 O   0  0  0  0  0  0  0  0  0  0  0  0
  191.4830  176.7580  139.9280 C   0  0  0  0  0  1  0  0  0  0  0  0
  182.7510  179.1930  144.0290 C   0  0  0  0  0  2  0  0  0  0  0  0
  180.3040  178.9130  143.6000 C   0  0  0  0  0  1  0  0  0  0  0  0
  181.5940  178.2020  143.9620 C   0  0  0  0  0  2  0  0  0  0  0  0
  1  5  1  0  0  0  0
  1 18  1  0  0  0  0
  2 15  2  0  0  0  0
  2 13  1  0  0  0  0
  3 16  1  0  0  0  0
  4  1  2  0  0  0  0
  7 14  1  6  0  0  0
  7 21  1  0  0  0  0
  8  6  1  6  0  0  0
  8 11  1  0  0  0  0
  9 26  1  6  0  0  0
  9 21  1  0  0  0  0
  9 20  1  0  0  0  0
 10  3  1  0  0  0  0
 11 28  1  1  0  0  0
 11  5  1  0  0  0  0
 12  8  1  0  0  0  0
 12  4  1  1  0  0  0
 16 24  1  0  0  0  0
 17 13  2  0  0  0  0
 18  2  1  0  0  0  0
 19  4  1  0  0  0  0
 19 16  2  0  0  0  0
 20 10  1  0  0  0  0
 21 19  1  1  0  0  0
 23 17  1  0  0  0  0
 24 18  2  0  0  0  0
 24 23  1  0  0  0  0
 25 22  1  6  0  0  0
 25  7  1  0  0  0  0
 25 12  1  0  0  0  0
 27 26  1  0  0  0  0
 29 30  1  0  0  0  0
 30 28  1  0  0  0  0
M  END
>  <MODEL>
1

>  <REMARK>
 VINA RESULT:     -11.3      0.000      0.000
  Name = 
  3 active torsions:
  status: ('A' for Active; 'I' for Inactive)
    1  A    between atoms: C_9  and  C_12
    2  A    between atoms: C_9  and  C_21
    3  A    between atoms: C_10  and  O_15
                            x       y       z     vdW  Elec       q    Type
                         _______ _______ _______ _____ _____    ______ ____

>  <TORSDO>
F 3

$$$$
=
 OpenBabel11052412263D

 30 34  0  0  1  0  0  0  0  0999 V2000
  186.7050  178.1730  142.5200 C   0  0  0  0  0  0  0  0  0  0  0  0
  184.2620  178.6000  143.1220 C   0  0  0  0  0  0  0  0  0  0  0  0
  187.5920  178.0210  146.6470 O   0  0  0  0  0  0  0  0  0  0  0  0
  188.0370  177.9450  142.9380 C   0  0  0  0  0  0  0  0  0  0  0  0
  186.4100  178.4130  141.0620 C   0  0  0  0  0  2  0  0  0  0  0  0
  189.7640  177.6960  139.6190 O   0  0  0  0  0  1  0  0  0  0  0  0
  190.6060  178.6610  143.9370 C   0  0  2  0  0  3  0  0  0  0  0  0
  188.8300  178.2420  140.5040 C   0  0  1  0  0  3  0  0  0  0  0  0
  190.1020  177.3150  146.1310 C   0  0  2  0  0  3  0  0  0  0  0  0
  188.2610  176.9840  147.3670 C   0  0  0  0  0  2  0  0  0  0  0  0
  187.4280  177.7650  140.1370 C   0  0  2  0  0  3  0  0  0  0  0  0
  189.1810  177.8210  141.9340 C   0  0  1  0  0  3  0  0  0  0  0  0
  183.3310  179.0620  144.1560 C   0  0  0  0  0  3  0  0  0  0  0  0
  192.0540  178.8160  144.3870 C   0  0  0  0  0  1  0  0  0  0  0  0
  183.8380  178.4740  141.9430 O   0  0  0  0  0  0  0  0  0  0  0  0
  187.3200  177.9920  145.2710 C   0  0  0  0  0  0  0  0  0  0  0  0
  183.6560  178.9970  145.4420 C   0  0  0  0  0  3  0  0  0  0  0  0
  185.6790  178.3120  143.4850 C   0  0  0  0  0  0  0  0  0  0  0  0
  188.3380  177.7880  144.3060 C   0  0  0  0  0  0  0  0  0  0  0  0
  189.2220  176.3280  146.5890 O   0  0  0  0  0  0  0  0  0  0  0  0
  189.8030  177.5570  144.6460 C   0  0  1  0  0  3  0  0  0  0  0  0
  191.5750  177.8030  141.8830 O   0  0  0  0  0  1  0  0  0  0  0  0
  184.9330  178.3640  145.9180 C   0  0  0  0  0  2  0  0  0  0  0  0
  186.0050  178.2510  144.8570 C   0  0  0  0  0  0  0  0  0  0  0  0
  190.4860  178.5100  142.4010 C   0  0  2  0  0  3  0  0  0  0  0  0
  191.4110  176.8560  146.3000 O   0  0  0  0  0  0  0  0  0  0  0  0
  191.5500  176.6640  147.6750 C   0  0  0  0  0  1  0  0  0  0  0  0
  187.0810  178.0300  138.6670 C   0  0  0  0  0  2  0  0  0  0  0  0
  185.1050  177.4390  137.2530 C   0  0  0  0  0  1  0  0  0  0  0  0
  185.5940  178.2690  138.4250 C   0  0  0  0  0  2  0  0  0  0  0  0
  1  4  2  0  0  0  0
  1 18  1  0  0  0  0
  2 18  1  0  0  0  0
  2 13  1  0  0  0  0
  3 10  1  0  0  0  0
  4 19  1  0  0  0  0
  5  1  1  0  0  0  0
  7 14  1  6  0  0  0
  7 21  1  0  0  0  0
  8  6  1  6  0  0  0
  8 12  1  0  0  0  0
  9 26  1  6  0  0  0
  9 20  1  0  0  0  0
 11 28  1  6  0  0  0
 11  8  1  0  0  0  0
 11  5  1  0  0  0  0
 12 25  1  0  0  0  0
 12  4  1  1  0  0  0
 13 17  2  0  0  0  0
 15  2  2  0  0  0  0
 16  3  1  0  0  0  0
 17 23  1  0  0  0  0
 18 24  2  0  0  0  0
 19 16  2  0  0  0  0
 20 10  1  0  0  0  0
 21 19  1  1  0  0  0
 21  9  1  0  0  0  0
 24 16  1  0  0  0  0
 24 23  1  0  0  0  0
 25 22  1  1  0  0  0
 25  7  1  0  0  0  0
 26 27  1  0  0  0  0
 29 30  1  0  0  0  0
 30 28  1  0  0  0  0
M  END
>  <MODEL>
2

>  <REMARK>
 VINA RESULT:      -9.9      1.841      4.963
  Name = 
  3 active torsions:
  status: ('A' for Active; 'I' for Inactive)
    1  A    between atoms: C_9  and  C_12
    2  A    between atoms: C_9  and  C_21
    3  A    between atoms: C_10  and  O_15
                            x       y       z     vdW  Elec       q    Type
                         _______ _______ _______ _____ _____    ______ ____

>  <TORSDO>
F 3

$$$$
=
 OpenBabel11052412263D

 30 34  0  0  1  0  0  0  0  0999 V2000
  188.3480  177.6390  143.2030 C   0  0  0  0  0  0  0  0  0  0  0  0
  190.2000  177.4370  141.4590 C   0  0  0  0  0  0  0  0  0  0  0  0
  185.6630  178.6230  140.0920 O   0  0  0  0  0  0  0  0  0  0  0  0
  186.9940  177.9110  143.5110 C   0  0  0  0  0  0  0  0  0  0  0  0
  189.3480  177.4720  144.3170 C   0  0  0  0  0  2  0  0  0  0  0  0
  187.0440  177.5000  147.2380 O   0  0  0  0  0  1  0  0  0  0  0  0
  184.7110  179.5500  143.9750 C   0  0  2  0  0  3  0  0  0  0  0  0
  187.5860  177.9160  146.0180 C   0  0  1  0  0  3  0  0  0  0  0  0
  183.6160  178.6030  141.7870 C   0  0  2  0  0  3  0  0  0  0  0  0
  184.4140  178.0050  139.7790 C   0  0  0  0  0  2  0  0  0  0  0  0
  188.7190  176.9780  145.6090 C   0  0  2  0  0  3  0  0  0  0  0  0
  186.4880  177.9250  144.9510 C   0  0  1  0  0  3  0  0  0  0  0  0
  190.6420  177.8070  140.1110 C   0  0  0  0  0  3  0  0  0  0  0  0
  183.3870  180.2180  144.3260 C   0  0  0  0  0  1  0  0  0  0  0  0
  191.0430  176.9480  142.2560 O   0  0  0  0  0  0  0  0  0  0  0  0
  186.5100  178.2280  141.1390 C   0  0  0  0  0  0  0  0  0  0  0  0
  189.7590  178.1110  139.1650 C   0  0  0  0  0  3  0  0  0  0  0  0
  188.7800  177.6660  141.8550 C   0  0  0  0  0  0  0  0  0  0  0  0
  186.0600  178.1400  142.4800 C   0  0  0  0  0  0  0  0  0  0  0  0
  183.7590  177.5180  140.9160 O   0  0  0  0  0  0  0  0  0  0  0  0
  184.6340  178.4300  142.9230 C   0  0  1  0  0  3  0  0  0  0  0  0
  184.5680  178.6100  146.2090 O   0  0  0  0  0  1  0  0  0  0  0  0
  188.2770  178.0000  139.3830 C   0  0  0  0  0  2  0  0  0  0  0  0
  187.8600  177.9920  140.8370 C   0  0  0  0  0  0  0  0  0  0  0  0
  185.4650  179.0530  145.2320 C   0  0  2  0  0  3  0  0  0  0  0  0
  182.3130  178.6000  142.2910 O   0  0  0  0  0  0  0  0  0  0  0  0
  181.5150  179.0250  141.2280 C   0  0  0  0  0  1  0  0  0  0  0  0
  189.7760  176.8140  146.7080 C   0  0  0  0  0  2  0  0  0  0  0  0
  192.0570  175.8420  147.0270 C   0  0  0  0  0  1  0  0  0  0  0  0
  191.2050  176.7640  146.1760 C   0  0  0  0  0  2  0  0  0  0  0  0
  1  4  1  0  0  0  0
  1  5  1  0  0  0  0
  2 18  1  0  0  0  0
  2 15  2  0  0  0  0
  3 16  1  0  0  0  0
  5 11  1  0  0  0  0
  7 14  1  1  0  0  0
  7 25  1  0  0  0  0
  8  6  1  1  0  0  0
  9 26  1  1  0  0  0
  9 21  1  0  0  0  0
 10  3  1  0  0  0  0
 10 20  1  0  0  0  0
 11  8  1  0  0  0  0
 11 28  1  1  0  0  0
 12  4  1  6  0  0  0
 12 25  1  0  0  0  0
 12  8  1  0  0  0  0
 13  2  1  0  0  0  0
 16 19  1  0  0  0  0
 17 23  1  0  0  0  0
 17 13  2  0  0  0  0
 18  1  2  0  0  0  0
 19  4  2  0  0  0  0
 20  9  1  0  0  0  0
 21 19  1  6  0  0  0
 21  7  1  0  0  0  0
 23 24  1  0  0  0  0
 24 16  2  0  0  0  0
 24 18  1  0  0  0  0
 25 22  1  1  0  0  0
 27 26  1  0  0  0  0
 30 28  1  0  0  0  0
 30 29  1  0  0  0  0
M  END
>  <MODEL>
3

>  <REMARK>
 VINA RESULT:      -9.9      1.403      6.750
  Name = 
  3 active torsions:
  status: ('A' for Active; 'I' for Inactive)
    1  A    between atoms: C_9  and  C_12
    2  A    between atoms: C_9  and  C_21
    3  A    between atoms: C_10  and  O_15
                            x       y       z     vdW  Elec       q    Type
                         _______ _______ _______ _____ _____    ______ ____

>  <TORSDO>
F 3

$$$$
=
 OpenBabel11052412263D

 30 34  0  0  1  0  0  0  0  0999 V2000
  186.6670  178.4790  142.8220 C   0  0  0  0  0  0  0  0  0  0  0  0
  186.7280  178.4070  140.2710 C   0  0  0  0  0  0  0  0  0  0  0  0
  190.6670  177.1190  142.8560 O   0  0  0  0  0  0  0  0  0  0  0  0
  187.3230  178.2750  144.0580 C   0  0  0  0  0  0  0  0  0  0  0  0
  185.1910  178.7820  142.8000 C   0  0  0  0  0  2  0  0  0  0  0  0
  184.5830  179.1960  146.4460 O   0  0  0  0  0  1  0  0  0  0  0  0
  188.3620  176.7540  146.2300 C   0  0  2  0  0  3  0  0  0  0  0  0
  185.0790  178.6070  145.2800 C   0  0  1  0  0  3  0  0  0  0  0  0
  190.7930  177.4070  145.4950 C   0  0  2  0  0  3  0  0  0  0  0  0
  191.7910  177.7090  143.5100 C   0  0  0  0  0  2  0  0  0  0  0  0
  184.7070  179.4600  144.0710 C   0  0  2  0  0  3  0  0  0  0  0  0
  186.6000  178.4680  145.3890 C   0  0  1  0  0  3  0  0  0  0  0  0
  187.3900  177.8470  139.0890 C   0  0  0  0  0  3  0  0  0  0  0  0
  188.9290  176.1620  147.5160 C   0  0  0  0  0  1  0  0  0  0  0  0
  185.6210  178.9880  140.1220 O   0  0  0  0  0  0  0  0  0  0  0  0
  189.3650  177.6410  142.8790 C   0  0  0  0  0  0  0  0  0  0  0  0
  188.6510  177.4300  139.1490 C   0  0  0  0  0  3  0  0  0  0  0  0
  187.3670  178.2590  141.6110 C   0  0  0  0  0  0  0  0  0  0  0  0
  188.6870  177.9210  144.0930 C   0  0  0  0  0  0  0  0  0  0  0  0
  191.4380  178.3590  144.6980 O   0  0  0  0  0  0  0  0  0  0  0  0
  189.2910  177.7180  145.4740 C   0  0  1  0  0  3  0  0  0  0  0  0
  186.8980  177.9960  147.7180 O   0  0  0  0  0  1  0  0  0  0  0  0
  189.4940  177.5950  140.3820 C   0  0  0  0  0  2  0  0  0  0  0  0
  188.7040  177.8100  141.6530 C   0  0  0  0  0  0  0  0  0  0  0  0
  186.9760  177.4070  146.4520 C   0  0  2  0  0  3  0  0  0  0  0  0
  191.2960  177.5010  146.7950 O   0  0  0  0  0  0  0  0  0  0  0  0
  192.0550  176.3440  146.9720 C   0  0  0  0  0  1  0  0  0  0  0  0
  183.2040  179.7560  143.9970 C   0  0  0  0  0  2  0  0  0  0  0  0
  180.9740  178.6280  143.9160 C   0  0  0  0  0  1  0  0  0  0  0  0
  182.3900  178.6280  143.3720 C   0  0  0  0  0  2  0  0  0  0  0  0
  1  4  1  0  0  0  0
  2 18  1  0  0  0  0
  3 16  1  0  0  0  0
  3 10  1  0  0  0  0
  4 19  2  0  0  0  0
  5  1  1  0  0  0  0
  5 11  1  0  0  0  0
  7 25  1  0  0  0  0
  7 14  1  1  0  0  0
  8 12  1  0  0  0  0
  8  6  1  1  0  0  0
  9 26  1  1  0  0  0
 10 20  1  0  0  0  0
 11 28  1  6  0  0  0
 11  8  1  0  0  0  0
 12  4  1  6  0  0  0
 12 25  1  0  0  0  0
 13 17  2  0  0  0  0
 13  2  1  0  0  0  0
 15  2  2  0  0  0  0
 16 19  1  0  0  0  0
 17 23  1  0  0  0  0
 18 24  1  0  0  0  0
 18  1  2  0  0  0  0
 20  9  1  0  0  0  0
 21 19  1  6  0  0  0
 21  9  1  0  0  0  0
 21  7  1  0  0  0  0
 23 24  1  0  0  0  0
 24 16  2  0  0  0  0
 25 22  1  1  0  0  0
 26 27  1  0  0  0  0
 30 29  1  0  0  0  0
 30 28  1  0  0  0  0
M  END
>  <MODEL>
4

>  <REMARK>
 VINA RESULT:      -9.3      1.371      4.992
  Name = 
  3 active torsions:
  status: ('A' for Active; 'I' for Inactive)
    1  A    between atoms: C_9  and  C_12
    2  A    between atoms: C_9  and  C_21
    3  A    between atoms: C_10  and  O_15
                            x       y       z     vdW  Elec       q    Type
                         _______ _______ _______ _____ _____    ______ ____

>  <TORSDO>
F 3

$$$$
=
 OpenBabel11052412263D

 30 34  0  0  1  0  0  0  0  0999 V2000
  187.6900  178.1320  141.7910 C   0  0  0  0  0  0  0  0  0  0  0  0
  189.4290  177.6070  143.5830 C   0  0  0  0  0  0  0  0  0  0  0  0
  184.7390  178.1930  144.8140 O   0  0  0  0  0  0  0  0  0  0  0  0
  186.3430  178.3910  141.4450 C   0  0  0  0  0  0  0  0  0  0  0  0
  188.7130  177.9240  140.7050 C   0  0  0  0  0  2  0  0  0  0  0  0
  186.6560  178.7930  137.7300 O   0  0  0  0  0  1  0  0  0  0  0  0
  183.6280  177.7310  140.8910 C   0  0  2  0  0  3  0  0  0  0  0  0
  186.9660  178.1910  138.9530 C   0  0  1  0  0  3  0  0  0  0  0  0
  182.9010  178.9960  143.0710 C   0  0  2  0  0  3  0  0  0  0  0  0
  183.8030  179.2300  145.1100 C   0  0  0  0  0  2  0  0  0  0  0  0
  188.3540  178.6320  139.4090 C   0  0  2  0  0  3  0  0  0  0  0  0
  185.9120  178.5820  139.9930 C   0  0  1  0  0  3  0  0  0  0  0  0
  189.6590  177.0850  144.9330 C   0  0  0  0  0  3  0  0  0  0  0  0
  182.1610  177.6110  140.4940 C   0  0  0  0  0  1  0  0  0  0  0  0
  190.4180  177.7540  142.8170 O   0  0  0  0  0  0  0  0  0  0  0  0
  185.7030  178.2530  143.7970 C   0  0  0  0  0  0  0  0  0  0  0  0
  188.6990  177.1230  145.8510 C   0  0  0  0  0  3  0  0  0  0  0  0
  188.0400  177.9310  143.1480 C   0  0  0  0  0  0  0  0  0  0  0  0
  185.3600  178.5180  142.4470 C   0  0  0  0  0  0  0  0  0  0  0  0
  183.4120  179.9390  143.9690 O   0  0  0  0  0  0  0  0  0  0  0  0
  183.9430  178.7870  141.9640 C   0  0  1  0  0  3  0  0  0  0  0  0
  183.9150  178.6800  138.6740 O   0  0  0  0  0  1  0  0  0  0  0  0
  187.3730  177.7830  145.5990 C   0  0  0  0  0  2  0  0  0  0  0  0
  187.0330  177.9620  144.1360 C   0  0  0  0  0  0  0  0  0  0  0  0
  184.5510  177.9230  139.6630 C   0  0  2  0  0  3  0  0  0  0  0  0
  181.7090  179.4920  142.5360 O   0  0  0  0  0  0  0  0  0  0  0  0
  180.7080  179.0160  143.3830 C   0  0  0  0  0  1  0  0  0  0  0  0
  189.4290  178.3990  138.3400 C   0  0  0  0  0  2  0  0  0  0  0  0
  191.1870  176.6230  138.2740 C   0  0  0  0  0  1  0  0  0  0  0  0
  189.7140  176.9250  138.0730 C   0  0  0  0  0  2  0  0  0  0  0  0
  1 18  1  0  0  0  0
  2 13  1  0  0  0  0
  3 10  1  0  0  0  0
  4  1  2  0  0  0  0
  4 19  1  0  0  0  0
  5  1  1  0  0  0  0
  7 14  1  6  0  0  0
  7 21  1  0  0  0  0
  8  6  1  6  0  0  0
  8 11  1  0  0  0  0
  8 12  1  0  0  0  0
  9 26  1  6  0  0  0
  9 20  1  0  0  0  0
 11 28  1  6  0  0  0
 11  5  1  0  0  0  0
 12  4  1  1  0  0  0
 13 17  2  0  0  0  0
 15  2  2  0  0  0  0
 16 24  1  0  0  0  0
 16  3  1  0  0  0  0
 18  2  1  0  0  0  0
 18 24  2  0  0  0  0
 19 16  2  0  0  0  0
 20 10  1  0  0  0  0
 21 19  1  1  0  0  0
 21  9  1  0  0  0  0
 23 17  1  0  0  0  0
 24 23  1  0  0  0  0
 25 22  1  6  0  0  0
 25 12  1  0  0  0  0
 25  7  1  0  0  0  0
 26 27  1  0  0  0  0
 30 29  1  0  0  0  0
 30 28  1  0  0  0  0
M  END
>  <MODEL>
5

>  <REMARK>
 VINA RESULT:      -9.0      1.763      6.184
  Name = 
  3 active torsions:
  status: ('A' for Active; 'I' for Inactive)
    1  A    between atoms: C_9  and  C_12
    2  A    between atoms: C_9  and  C_21
    3  A    between atoms: C_10  and  O_15
                            x       y       z     vdW  Elec       q    Type
                         _______ _______ _______ _____ _____    ______ ____

>  <TORSDO>
F 3

$$$$
=
 OpenBabel11052412263D

 30 34  0  0  1  0  0  0  0  0999 V2000
  187.7060  178.1150  142.4350 C   0  0  0  0  0  0  0  0  0  0  0  0
  185.3160  178.4670  143.2580 C   0  0  0  0  0  0  0  0  0  0  0  0
  186.2490  178.2180  138.4710 O   0  0  0  0  0  0  0  0  0  0  0  0
  188.6080  177.9580  141.3570 C   0  0  0  0  0  0  0  0  0  0  0  0
  188.1830  177.8950  143.8470 C   0  0  0  0  0  2  0  0  0  0  0  0
  191.8300  177.5030  143.2210 O   0  0  0  0  0  1  0  0  0  0  0  0
  189.9230  176.5660  139.2490 C   0  0  2  0  0  3  0  0  0  0  0  0
  190.4590  177.3080  143.0270 C   0  0  1  0  0  3  0  0  0  0  0  0
  188.7230  178.1170  137.5070 C   0  0  2  0  0  3  0  0  0  0  0  0
  186.6870  179.0470  137.3930 C   0  0  0  0  0  2  0  0  0  0  0  0
  189.6710  178.1600  144.0170 C   0  0  2  0  0  3  0  0  0  0  0  0
  190.0920  177.6830  141.5880 C   0  0  1  0  0  3  0  0  0  0  0  0
  183.8920  178.3590  142.9290 C   0  0  0  0  0  3  0  0  0  0  0  0
  190.7940  176.0110  138.1280 C   0  0  0  0  0  1  0  0  0  0  0  0
  185.6440  178.6500  144.4600 O   0  0  0  0  0  0  0  0  0  0  0  0
  186.7760  178.2530  139.7700 C   0  0  0  0  0  0  0  0  0  0  0  0
  183.4810  178.3940  141.6660 C   0  0  0  0  0  3  0  0  0  0  0  0
  186.3330  178.3400  142.1750 C   0  0  0  0  0  0  0  0  0  0  0  0
  188.1610  178.0920  140.0260 C   0  0  0  0  0  0  0  0  0  0  0  0
  188.0520  179.3440  137.4680 O   0  0  0  0  0  0  0  0  0  0  0  0
  189.2120  177.8950  138.9450 C   0  0  1  0  0  3  0  0  0  0  0  0
  192.0340  176.9850  140.3740 O   0  0  0  0  0  1  0  0  0  0  0  0
  184.4220  178.6430  140.5210 C   0  0  0  0  0  2  0  0  0  0  0  0
  185.8760  178.3740  140.8400 C   0  0  0  0  0  0  0  0  0  0  0  0
  190.6910  176.6620  140.5900 C   0  0  2  0  0  3  0  0  0  0  0  0
  189.8050  178.1740  136.6250 O   0  0  0  0  0  0  0  0  0  0  0  0
  189.3320  177.6120  135.4380 C   0  0  0  0  0  1  0  0  0  0  0  0
  190.1060  177.9320  145.4700 C   0  0  0  0  0  2  0  0  0  0  0  0
  189.0710  177.8090  147.7430 C   0  0  0  0  0  1  0  0  0  0  0  0
  189.0380  177.2620  146.3290 C   0  0  0  0  0  2  0  0  0  0  0  0
  1  5  1  0  0  0  0
  2 15  2  0  0  0  0
  3 16  1  0  0  0  0
  4  1  2  0  0  0  0
  5 11  1  0  0  0  0
  7 14  1  6  0  0  0
  7 25  1  0  0  0  0
  8  6  1  6  0  0  0
  8 11  1  0  0  0  0
  9 26  1  6  0  0  0
  9 21  1  0  0  0  0
 10 20  1  0  0  0  0
 10  3  1  0  0  0  0
 11 28  1  1  0  0  0
 12  4  1  1  0  0  0
 12  8  1  0  0  0  0
 13  2  1  0  0  0  0
 16 19  2  0  0  0  0
 16 24  1  0  0  0  0
 17 13  2  0  0  0  0
 18  1  1  0  0  0  0
 18  2  1  0  0  0  0
 19  4  1  0  0  0  0
 20  9  1  0  0  0  0
 21  7  1  0  0  0  0
 21 19  1  1  0  0  0
 23 24  1  0  0  0  0
 23 17  1  0  0  0  0
 24 18  2  0  0  0  0
 25 22  1  6  0  0  0
 25 12  1  0  0  0  0
 27 26  1  0  0  0  0
 28 30  1  0  0  0  0
 30 29  1  0  0  0  0
M  END
>  <MODEL>
6

>  <REMARK>
 VINA RESULT:      -8.7      1.950      5.777
  Name = 
  3 active torsions:
  status: ('A' for Active; 'I' for Inactive)
    1  A    between atoms: C_9  and  C_12
    2  A    between atoms: C_9  and  C_21
    3  A    between atoms: C_10  and  O_15
                            x       y       z     vdW  Elec       q    Type
                         _______ _______ _______ _____ _____    ______ ____

>  <TORSDO>
F 3

$$$$
=
 OpenBabel11052412263D

 30 34  0  0  1  0  0  0  0  0999 V2000
  187.6040  178.1690  140.4180 C   0  0  0  0  0  0  0  0  0  0  0  0
  188.9330  177.7140  138.2880 C   0  0  0  0  0  0  0  0  0  0  0  0
  191.0250  177.1080  142.6600 O   0  0  0  0  0  0  0  0  0  0  0  0
  187.5490  178.2020  141.8310 C   0  0  0  0  0  0  0  0  0  0  0  0
  186.3440  178.3640  139.6160 C   0  0  0  0  0  2  0  0  0  0  0  0
  183.9980  179.2870  142.3520 O   0  0  0  0  0  1  0  0  0  0  0  0
  187.3330  177.1050  144.4510 C   0  0  2  0  0  3  0  0  0  0  0  0
  185.0010  178.5620  141.7030 C   0  0  1  0  0  3  0  0  0  0  0  0
  189.8170  177.8020  144.9230 C   0  0  2  0  0  3  0  0  0  0  0  0
  191.6800  177.8650  143.6780 C   0  0  0  0  0  2  0  0  0  0  0  0
  185.3000  179.1940  140.3460 C   0  0  2  0  0  3  0  0  0  0  0  0
  186.2600  178.5460  142.5740 C   0  0  1  0  0  3  0  0  0  0  0  0
  190.0890  177.0270  137.7030 C   0  0  0  0  0  3  0  0  0  0  0  0
  187.1700  176.7560  145.9260 C   0  0  0  0  0  1  0  0  0  0  0  0
  188.0600  178.1880  137.5150 O   0  0  0  0  0  0  0  0  0  0  0  0
  189.8950  177.5370  141.9470 C   0  0  0  0  0  0  0  0  0  0  0  0
  191.1420  176.7110  138.4490 C   0  0  0  0  0  3  0  0  0  0  0  0
  188.8130  177.8160  139.7710 C   0  0  0  0  0  0  0  0  0  0  0  0
  188.7060  177.9520  142.5970 C   0  0  0  0  0  0  0  0  0  0  0  0
  190.7910  178.6630  144.4060 O   0  0  0  0  0  0  0  0  0  0  0  0
  188.5320  178.0040  144.1070 C   0  0  1  0  0  3  0  0  0  0  0  0
  185.3430  178.4560  144.7850 O   0  0  0  0  0  1  0  0  0  0  0  0
  191.2570  177.1190  139.8900 C   0  0  0  0  0  2  0  0  0  0  0  0
  189.9400  177.4710  140.5460 C   0  0  0  0  0  0  0  0  0  0  0  0
  186.0340  177.6880  143.8430 C   0  0  2  0  0  3  0  0  0  0  0  0
  189.6020  178.1280  146.2640 O   0  0  0  0  0  0  0  0  0  0  0  0
  190.3300  177.1810  146.9860 C   0  0  0  0  0  1  0  0  0  0  0  0
  184.0420  179.3720  139.4880 C   0  0  0  0  0  2  0  0  0  0  0  0
  182.7390  177.2780  139.0770 C   0  0  0  0  0  1  0  0  0  0  0  0
  183.7930  178.2170  138.5230 C   0  0  0  0  0  2  0  0  0  0  0  0
  1  4  1  0  0  0  0
  2 18  1  0  0  0  0
  3 10  1  0  0  0  0
  4 19  2  0  0  0  0
  5 11  1  0  0  0  0
  5  1  1  0  0  0  0
  7 14  1  1  0  0  0
  8  6  1  1  0  0  0
  8 12  1  0  0  0  0
  9 26  1  1  0  0  0
 10 20  1  0  0  0  0
 11 28  1  6  0  0  0
 11  8  1  0  0  0  0
 12  4  1  6  0  0  0
 12 25  1  0  0  0  0
 13  2  1  0  0  0  0
 13 17  2  0  0  0  0
 15  2  2  0  0  0  0
 16 19  1  0  0  0  0
 16  3  1  0  0  0  0
 17 23  1  0  0  0  0
 18  1  2  0  0  0  0
 18 24  1  0  0  0  0
 20  9  1  0  0  0  0
 21 19  1  6  0  0  0
 21  7  1  0  0  0  0
 21  9  1  0  0  0  0
 23 24  1  0  0  0  0
 24 16  2  0  0  0  0
 25  7  1  0  0  0  0
 25 22  1  1  0  0  0
 26 27  1  0  0  0  0
 30 29  1  0  0  0  0
 30 28  1  0  0  0  0
M  END
>  <MODEL>
7

>  <REMARK>
 VINA RESULT:      -8.6      2.067      5.536
  Name = 
  3 active torsions:
  status: ('A' for Active; 'I' for Inactive)
    1  A    between atoms: C_9  and  C_12
    2  A    between atoms: C_9  and  C_21
    3  A    between atoms: C_10  and  O_15
                            x       y       z     vdW  Elec       q    Type
                         _______ _______ _______ _____ _____    ______ ____

>  <TORSDO>
F 3

$$$$
