=
 OpenBabel11052413463D

 27 31  0  0  1  0  0  0  0  0999 V2000
  186.1940  179.1440  141.1950 C   0  0  0  0  0  2  0  0  0  0  0  0
  185.6310  178.6190  143.5590 C   0  0  0  0  0  0  0  0  0  0  0  0
  187.4220  176.9640  142.9250 C   0  0  0  0  0  2  0  0  0  0  0  0
  186.7860  178.5960  147.5360 N   0  0  0  0  0  2  0  0  0  0  0  0
  188.1600  177.8880  149.1950 O   0  0  0  0  0  0  0  0  0  0  0  0
  184.9610  179.3460  144.4970 N   0  0  0  0  0  0  0  0  0  0  0  0
  188.2200  177.0640  145.7350 C   0  0  0  0  0  3  0  0  0  0  0  0
  190.0580  177.7190  140.4620 C   0  0  2  0  0  3  0  0  0  0  0  0
  188.5800  177.0830  147.0830 C   0  0  0  0  0  3  0  0  0  0  0  0
  191.1140  176.8170  139.8610 C   0  0  0  0  0  1  0  0  0  0  0  0
  187.1320  177.8240  145.2880 C   0  0  0  0  0  0  0  0  0  0  0  0
  185.2200  178.6860  142.1850 N   0  0  0  0  0  0  0  0  0  0  0  0
  187.8450  177.8630  147.9780 C   0  0  0  0  0  0  0  0  0  0  0  0
  186.4170  178.5940  146.2280 C   0  0  0  0  0  0  0  0  0  0  0  0
  187.1730  178.0350  140.8220 C   0  0  1  0  0  3  0  0  0  0  0  0
  186.7340  177.8310  143.9390 C   0  0  0  0  0  0  0  0  0  0  0  0
  189.2130  176.9390  141.4580 C   0  0  0  0  0  2  0  0  0  0  0  0
  185.3240  179.3500  145.8060 C   0  0  0  0  0  3  0  0  0  0  0  0
  189.1930  178.2860  139.3750 C   0  0  0  0  0  3  0  0  0  0  0  0
  187.8780  178.4650  139.5560 C   0  0  0  0  0  3  0  0  0  0  0  0
  188.1130  177.7780  141.9330 N   0  0  2  0  0  0  0  0  0  0  0  0
  181.2480  177.8650  141.0180 N   0  0  0  0  0  0  0  0  0  0  0  0
  183.8620  178.3970  141.7900 C   0  0  0  0  0  0  0  0  0  0  0  0
  183.5930  177.6850  140.6100 C   0  0  0  0  0  3  0  0  0  0  0  0
  182.2720  177.4260  140.2400 C   0  0  0  0  0  3  0  0  0  0  0  0
  181.4740  178.5620  142.1640 C   0  0  0  0  0  3  0  0  0  0  0  0
  182.7820  178.8390  142.5680 C   0  0  0  0  0  3  0  0  0  0  0  0
  1 12  1  0  0  0  0
  2 16  2  0  0  0  0
  2  6  1  0  0  0  0
  3 16  1  0  0  0  0
  4 13  1  0  0  0  0
  6 18  2  0  0  0  0
  7  9  2  0  0  0  0
  8 10  1  6  0  0  0
  8 17  1  0  0  0  0
  9 13  1  0  0  0  0
 11  7  1  0  0  0  0
 11 14  2  0  0  0  0
 12  2  1  0  0  0  0
 13  5  2  0  0  0  0
 14  4  1  0  0  0  0
 15 20  1  6  0  0  0
 15  1  1  0  0  0  0
 15 21  1  0  0  0  0
 16 11  1  0  0  0  0
 18 14  1  0  0  0  0
 19 20  2  0  0  0  0
 19  8  1  0  0  0  0
 21 17  1  6  0  0  0
 21  3  1  0  0  0  0
 22 26  1  0  0  0  0
 23 12  1  0  0  0  0
 23 27  1  0  0  0  0
 24 23  2  0  0  0  0
 25 24  1  0  0  0  0
 25 22  2  0  0  0  0
 26 27  2  0  0  0  0
M  END
>  <MODEL>
1

>  <REMARK>
 VINA RESULT:      -9.0      0.000      0.000
  Name = 
  1 active torsions:
  status: ('A' for Active; 'I' for Inactive)
    1  A    between atoms: C_9  and  N_15
                            x       y       z     vdW  Elec       q    Type
                         _______ _______ _______ _____ _____    ______ ____

>  <TORSDO>
F 1

$$$$
=
 OpenBabel11052413463D

 27 31  0  0  1  0  0  0  0  0999 V2000
  190.0460  178.1790  142.0060 C   0  0  0  0  0  2  0  0  0  0  0  0
  187.6120  178.1570  141.4990 C   0  0  0  0  0  0  0  0  0  0  0  0
  187.8530  176.8400  143.6330 C   0  0  0  0  0  2  0  0  0  0  0  0
  183.7910  179.4000  142.5020 N   0  0  0  0  0  2  0  0  0  0  0  0
  182.0430  179.4610  143.9440 O   0  0  0  0  0  0  0  0  0  0  0  0
  186.8720  178.9290  140.6540 N   0  0  0  0  0  0  0  0  0  0  0  0
  185.1820  177.8230  144.2980 C   0  0  0  0  0  3  0  0  0  0  0  0
  190.4950  177.5170  146.1120 C   0  0  2  0  0  3  0  0  0  0  0  0
  183.8930  178.2620  144.6010 C   0  0  0  0  0  3  0  0  0  0  0  0
  190.8750  176.7520  147.3620 C   0  0  0  0  0  1  0  0  0  0  0  0
  185.7780  178.1810  143.0830 C   0  0  0  0  0  0  0  0  0  0  0  0
  188.9470  177.7810  141.1270 N   0  0  0  0  0  0  0  0  0  0  0  0
  183.2060  179.0590  143.6820 C   0  0  0  0  0  0  0  0  0  0  0  0
  185.0460  178.9850  142.1840 C   0  0  0  0  0  0  0  0  0  0  0  0
  190.1510  177.2600  143.2190 C   0  0  1  0  0  3  0  0  0  0  0  0
  187.0740  177.7580  142.7370 C   0  0  0  0  0  0  0  0  0  0  0  0
  189.3110  176.8450  145.4300 C   0  0  0  0  0  2  0  0  0  0  0  0
  185.6170  179.3450  140.9650 C   0  0  0  0  0  3  0  0  0  0  0  0
  191.6670  177.5820  145.1780 C   0  0  0  0  0  3  0  0  0  0  0  0
  191.5030  177.5020  143.8520 C   0  0  0  0  0  3  0  0  0  0  0  0
  189.0360  177.5100  144.1570 N   0  0  2  0  0  0  0  0  0  0  0  0
  189.7530  175.8280  137.4740 N   0  0  0  0  0  0  0  0  0  0  0  0
  189.2210  177.1050  139.8820 C   0  0  0  0  0  0  0  0  0  0  0  0
  190.4720  176.5140  139.6440 C   0  0  0  0  0  3  0  0  0  0  0  0
  190.7190  175.8750  138.4280 C   0  0  0  0  0  3  0  0  0  0  0  0
  188.5320  176.3950  137.6700 C   0  0  0  0  0  3  0  0  0  0  0  0
  188.2470  177.0420  138.8750 C   0  0  0  0  0  3  0  0  0  0  0  0
  2 16  1  0  0  0  0
  4 13  1  0  0  0  0
  6 18  1  0  0  0  0
  6  2  2  0  0  0  0
  7  9  2  0  0  0  0
  8 10  1  1  0  0  0
 11  7  1  0  0  0  0
 12  2  1  0  0  0  0
 12  1  1  0  0  0  0
 13  5  2  0  0  0  0
 13  9  1  0  0  0  0
 14  4  1  0  0  0  0
 14 11  1  0  0  0  0
 15  1  1  6  0  0  0
 15 20  1  0  0  0  0
 15 21  1  0  0  0  0
 16 11  2  0  0  0  0
 16  3  1  0  0  0  0
 17  8  1  0  0  0  0
 18 14  2  0  0  0  0
 19  8  1  0  0  0  0
 20 19  2  0  0  0  0
 21  3  1  6  0  0  0
 21 17  1  0  0  0  0
 22 26  2  0  0  0  0
 22 25  1  0  0  0  0
 23 12  1  0  0  0  0
 24 23  1  0  0  0  0
 25 24  2  0  0  0  0
 26 27  1  0  0  0  0
 27 23  2  0  0  0  0
M  END
>  <MODEL>
2

>  <REMARK>
 VINA RESULT:      -8.3      2.559      5.659
  Name = 
  1 active torsions:
  status: ('A' for Active; 'I' for Inactive)
    1  A    between atoms: C_9  and  N_15
                            x       y       z     vdW  Elec       q    Type
                         _______ _______ _______ _____ _____    ______ ____

>  <TORSDO>
F 1

$$$$
=
 OpenBabel11052413463D

 27 31  0  0  1  0  0  0  0  0999 V2000
  189.1990  178.3510  145.3000 C   0  0  0  0  0  2  0  0  0  0  0  0
  190.3090  177.4580  143.2620 C   0  0  0  0  0  0  0  0  0  0  0  0
  187.8810  176.8320  143.0190 C   0  0  0  0  0  2  0  0  0  0  0  0
  190.8380  177.6630  139.1600 N   0  0  0  0  0  2  0  0  0  0  0  0
  190.0230  177.5250  137.0490 O   0  0  0  0  0  0  0  0  0  0  0  0
  191.5260  177.7360  142.7170 N   0  0  0  0  0  0  0  0  0  0  0  0
  188.3200  177.0720  140.1400 C   0  0  0  0  0  3  0  0  0  0  0  0
  185.1430  178.8660  144.4170 C   0  0  2  0  0  3  0  0  0  0  0  0
  188.5370  177.1510  138.7630 C   0  0  0  0  0  3  0  0  0  0  0  0
  183.6580  178.5790  144.4910 C   0  0  0  0  0  1  0  0  0  0  0  0
  189.3780  177.2940  141.0310 C   0  0  0  0  0  0  0  0  0  0  0  0
  190.1620  177.4340  144.6910 N   0  0  0  0  0  0  0  0  0  0  0  0
  189.8150  177.4510  138.2870 C   0  0  0  0  0  0  0  0  0  0  0  0
  190.6510  177.5920  140.5040 C   0  0  0  0  0  0  0  0  0  0  0  0
  187.7720  177.8280  145.1690 C   0  0  1  0  0  3  0  0  0  0  0  0
  189.2020  177.2220  142.4250 C   0  0  0  0  0  0  0  0  0  0  0  0
  185.8600  177.7190  143.7200 C   0  0  0  0  0  2  0  0  0  0  0  0
  191.7190  177.8070  141.3740 C   0  0  0  0  0  3  0  0  0  0  0  0
  185.6940  179.0630  145.7980 C   0  0  0  0  0  3  0  0  0  0  0  0
  186.9130  178.6200  146.1290 C   0  0  0  0  0  3  0  0  0  0  0  0
  187.3050  177.9390  143.7710 N   0  0  2  0  0  0  0  0  0  0  0  0
  192.6210  175.0020  147.1090 N   0  0  0  0  0  0  0  0  0  0  0  0
  190.9950  176.5970  145.5200 C   0  0  0  0  0  0  0  0  0  0  0  0
  191.1240  176.8490  146.8950 C   0  0  0  0  0  3  0  0  0  0  0  0
  191.9440  176.0340  147.6770 C   0  0  0  0  0  3  0  0  0  0  0  0
  192.5210  174.7340  145.7790 C   0  0  0  0  0  3  0  0  0  0  0  0
  191.7090  175.5260  144.9640 C   0  0  0  0  0  3  0  0  0  0  0  0
  2 12  1  0  0  0  0
  4 14  1  0  0  0  0
  5 13  2  0  0  0  0
  6  2  1  0  0  0  0
  7 11  1  0  0  0  0
  8 10  1  1  0  0  0
  8 19  1  0  0  0  0
  9  7  2  0  0  0  0
 11 16  1  0  0  0  0
 12  1  1  0  0  0  0
 12 23  1  0  0  0  0
 13  9  1  0  0  0  0
 13  4  1  0  0  0  0
 14 11  2  0  0  0  0
 14 18  1  0  0  0  0
 15  1  1  6  0  0  0
 15 20  1  0  0  0  0
 16  3  1  0  0  0  0
 16  2  2  0  0  0  0
 17 21  1  0  0  0  0
 17  8  1  0  0  0  0
 18  6  2  0  0  0  0
 19 20  2  0  0  0  0
 21  3  1  6  0  0  0
 21 15  1  0  0  0  0
 22 25  1  0  0  0  0
 23 24  1  0  0  0  0
 24 25  2  0  0  0  0
 26 22  2  0  0  0  0
 27 23  2  0  0  0  0
 27 26  1  0  0  0  0
M  END
>  <MODEL>
3

>  <REMARK>
 VINA RESULT:      -8.3      3.517      7.962
  Name = 
  1 active torsions:
  status: ('A' for Active; 'I' for Inactive)
    1  A    between atoms: C_9  and  N_15
                            x       y       z     vdW  Elec       q    Type
                         _______ _______ _______ _____ _____    ______ ____

>  <TORSDO>
F 1

$$$$
=
 OpenBabel11052413463D

 27 31  0  0  1  0  0  0  0  0999 V2000
  185.6290  179.0840  140.5570 C   0  0  0  0  0  2  0  0  0  0  0  0
  185.0720  178.5300  142.9160 C   0  0  0  0  0  0  0  0  0  0  0  0
  187.0800  177.1130  142.3610 C   0  0  0  0  0  2  0  0  0  0  0  0
  186.1090  178.7250  146.9210 N   0  0  0  0  0  2  0  0  0  0  0  0
  187.5150  178.2300  148.6280 O   0  0  0  0  0  0  0  0  0  0  0  0
  184.2870  179.1790  143.8210 N   0  0  0  0  0  0  0  0  0  0  0  0
  187.7790  177.3630  145.1880 C   0  0  0  0  0  3  0  0  0  0  0  0
  189.6640  178.1630  139.9520 C   0  0  2  0  0  3  0  0  0  0  0  0
  188.0960  177.4510  146.5440 C   0  0  0  0  0  3  0  0  0  0  0  0
  190.8450  177.3960  139.3970 C   0  0  0  0  0  1  0  0  0  0  0  0
  186.6140  177.9660  144.6980 C   0  0  0  0  0  0  0  0  0  0  0  0
  184.6950  178.5200  141.5300 N   0  0  0  0  0  0  0  0  0  0  0  0
  187.2400  178.1430  147.4040 C   0  0  0  0  0  0  0  0  0  0  0  0
  185.7800  178.6530  145.6040 C   0  0  0  0  0  0  0  0  0  0  0  0
  186.7530  178.1060  140.2320 C   0  0  1  0  0  3  0  0  0  0  0  0
  186.2570  177.8990  143.3390 C   0  0  0  0  0  0  0  0  0  0  0  0
  188.9000  177.2960  140.9420 C   0  0  0  0  0  2  0  0  0  0  0  0
  184.6110  179.2520  145.1390 C   0  0  0  0  0  3  0  0  0  0  0  0
  188.7640  178.5940  138.8320 C   0  0  0  0  0  3  0  0  0  0  0  0
  187.4330  178.6030  138.9750 C   0  0  0  0  0  3  0  0  0  0  0  0
  187.6870  177.9930  141.3720 N   0  0  2  0  0  0  0  0  0  0  0  0
  180.9030  177.1260  140.3090 N   0  0  0  0  0  0  0  0  0  0  0  0
  183.3980  178.0500  141.1060 C   0  0  0  0  0  0  0  0  0  0  0  0
  182.2240  178.6720  141.5590 C   0  0  0  0  0  3  0  0  0  0  0  0
  180.9800  178.1940  141.1450 C   0  0  0  0  0  3  0  0  0  0  0  0
  182.0210  176.4970  139.8570 C   0  0  0  0  0  3  0  0  0  0  0  0
  183.2840  176.9470  140.2470 C   0  0  0  0  0  3  0  0  0  0  0  0
  1 12  1  0  0  0  0
  2 16  2  0  0  0  0
  2  6  1  0  0  0  0
  3 16  1  0  0  0  0
  4 13  1  0  0  0  0
  6 18  2  0  0  0  0
  7  9  2  0  0  0  0
  8 10  1  6  0  0  0
  8 17  1  0  0  0  0
  9 13  1  0  0  0  0
 11  7  1  0  0  0  0
 11 14  2  0  0  0  0
 12  2  1  0  0  0  0
 13  5  2  0  0  0  0
 14  4  1  0  0  0  0
 15 20  1  6  0  0  0
 15  1  1  0  0  0  0
 15 21  1  0  0  0  0
 16 11  1  0  0  0  0
 18 14  1  0  0  0  0
 19 20  2  0  0  0  0
 19  8  1  0  0  0  0
 21 17  1  6  0  0  0
 21  3  1  0  0  0  0
 22 25  1  0  0  0  0
 23 12  1  0  0  0  0
 23 24  1  0  0  0  0
 25 24  2  0  0  0  0
 26 27  1  0  0  0  0
 26 22  2  0  0  0  0
 27 23  2  0  0  0  0
M  END
>  <MODEL>
4

>  <REMARK>
 VINA RESULT:      -7.7      0.858      1.249
  Name = 
  1 active torsions:
  status: ('A' for Active; 'I' for Inactive)
    1  A    between atoms: C_9  and  N_15
                            x       y       z     vdW  Elec       q    Type
                         _______ _______ _______ _____ _____    ______ ____

>  <TORSDO>
F 1

$$$$
=
 OpenBabel11052413463D

 27 31  0  0  1  0  0  0  0  0999 V2000
  188.0650  178.8980  141.4920 C   0  0  0  0  0  2  0  0  0  0  0  0
  188.4290  177.8780  143.7300 C   0  0  0  0  0  0  0  0  0  0  0  0
  189.4190  176.2420  142.0900 C   0  0  0  0  0  2  0  0  0  0  0  0
  191.0840  176.7600  146.7040 N   0  0  0  0  0  2  0  0  0  0  0  0
  192.8410  175.5220  147.4280 O   0  0  0  0  0  0  0  0  0  0  0  0
  188.3680  178.4240  144.9770 N   0  0  0  0  0  0  0  0  0  0  0  0
  191.3030  175.5650  144.2200 C   0  0  0  0  0  3  0  0  0  0  0  0
  190.9040  177.2800  138.8800 C   0  0  2  0  0  3  0  0  0  0  0  0
  192.1810  175.2150  145.2470 C   0  0  0  0  0  3  0  0  0  0  0  0
  191.4110  176.4410  137.7260 C   0  0  0  0  0  1  0  0  0  0  0  0
  190.3090  176.5250  144.4430 C   0  0  0  0  0  0  0  0  0  0  0  0
  187.5130  178.3230  142.7170 N   0  0  0  0  0  0  0  0  0  0  0  0
  192.0550  175.8290  146.4950 C   0  0  0  0  0  0  0  0  0  0  0  0
  190.2180  177.1170  145.7200 C   0  0  0  0  0  0  0  0  0  0  0  0
  188.5540  177.8130  140.5380 C   0  0  1  0  0  3  0  0  0  0  0  0
  189.4030  176.9050  143.4360 C   0  0  0  0  0  0  0  0  0  0  0  0
  190.4020  176.3780  139.9990 C   0  0  0  0  0  2  0  0  0  0  0  0
  189.2300  178.0680  145.9660 C   0  0  0  0  0  3  0  0  0  0  0  0
  189.8060  178.1860  138.4080 C   0  0  0  0  0  3  0  0  0  0  0  0
  188.7490  178.4580  139.1840 C   0  0  0  0  0  3  0  0  0  0  0  0
  189.7930  177.1920  141.0500 N   0  0  2  0  0  0  0  0  0  0  0  0
  183.3380  178.2530  143.3300 N   0  0  0  0  0  0  0  0  0  0  0  0
  186.0850  178.2900  142.9260 C   0  0  0  0  0  0  0  0  0  0  0  0
  185.2000  178.2770  141.8360 C   0  0  0  0  0  3  0  0  0  0  0  0
  183.8220  178.2560  142.0600 C   0  0  0  0  0  3  0  0  0  0  0  0
  184.1680  178.2710  144.4070 C   0  0  0  0  0  3  0  0  0  0  0  0
  185.5520  178.2900  144.2230 C   0  0  0  0  0  3  0  0  0  0  0  0
  1 12  1  0  0  0  0
  2  6  1  0  0  0  0
  3 16  1  0  0  0  0
  6 18  2  0  0  0  0
  7 11  1  0  0  0  0
  7  9  2  0  0  0  0
  8 10  1  6  0  0  0
  8 17  1  0  0  0  0
  9 13  1  0  0  0  0
 11 14  2  0  0  0  0
 12 23  1  0  0  0  0
 12  2  1  0  0  0  0
 13  4  1  0  0  0  0
 13  5  2  0  0  0  0
 14 18  1  0  0  0  0
 14  4  1  0  0  0  0
 15 20  1  6  0  0  0
 15 21  1  0  0  0  0
 15  1  1  0  0  0  0
 16  2  2  0  0  0  0
 16 11  1  0  0  0  0
 19  8  1  0  0  0  0
 19 20  2  0  0  0  0
 21 17  1  6  0  0  0
 21  3  1  0  0  0  0
 22 26  1  0  0  0  0
 23 27  1  0  0  0  0
 24 25  1  0  0  0  0
 24 23  2  0  0  0  0
 25 22  2  0  0  0  0
 27 26  2  0  0  0  0
M  END
>  <MODEL>
5

>  <REMARK>
 VINA RESULT:      -7.7      2.418      3.171
  Name = 
  1 active torsions:
  status: ('A' for Active; 'I' for Inactive)
    1  A    between atoms: C_9  and  N_15
                            x       y       z     vdW  Elec       q    Type
                         _______ _______ _______ _____ _____    ______ ____

>  <TORSDO>
F 1

$$$$
=
 OpenBabel11052413463D

 27 31  0  0  1  0  0  0  0  0999 V2000
  188.5710  178.3180  139.4890 C   0  0  0  0  0  2  0  0  0  0  0  0
  190.7300  177.0980  139.6760 C   0  0  0  0  0  0  0  0  0  0  0  0
  189.3940  175.8180  137.9670 C   0  0  0  0  0  2  0  0  0  0  0  0
  194.3230  176.0040  137.9330 N   0  0  0  0  0  2  0  0  0  0  0  0
  195.4930  174.9380  136.3100 O   0  0  0  0  0  0  0  0  0  0  0  0
  191.9230  177.4780  140.2130 N   0  0  0  0  0  0  0  0  0  0  0  0
  191.9700  175.1540  136.7550 C   0  0  0  0  0  3  0  0  0  0  0  0
  186.9240  177.4210  135.7500 C   0  0  2  0  0  3  0  0  0  0  0  0
  193.2000  174.8060  136.1960 C   0  0  0  0  0  3  0  0  0  0  0  0
  185.9440  176.8010  134.7770 C   0  0  0  0  0  1  0  0  0  0  0  0
  191.9220  175.9370  137.9150 C   0  0  0  0  0  0  0  0  0  0  0  0
  189.5070  177.5320  140.2920 N   0  0  0  0  0  0  0  0  0  0  0  0
  194.3780  175.2450  136.8050 C   0  0  0  0  0  0  0  0  0  0  0  0
  193.1370  176.3550  138.4960 C   0  0  0  0  0  0  0  0  0  0  0  0
  187.7570  177.4300  138.5530 C   0  0  1  0  0  3  0  0  0  0  0  0
  190.7030  176.3080  138.5120 C   0  0  0  0  0  0  0  0  0  0  0  0
  187.7530  176.3330  136.4180 C   0  0  0  0  0  2  0  0  0  0  0  0
  193.1120  177.1280  139.6560 C   0  0  0  0  0  3  0  0  0  0  0  0
  186.1830  178.2190  136.7810 C   0  0  0  0  0  3  0  0  0  0  0  0
  186.5890  178.2530  138.0570 C   0  0  0  0  0  3  0  0  0  0  0  0
  188.6010  176.9260  137.4510 N   0  0  2  0  0  0  0  0  0  0  0  0
  188.6960  176.7790  144.3640 N   0  0  0  0  0  0  0  0  0  0  0  0
  189.2350  177.2820  141.6870 C   0  0  0  0  0  0  0  0  0  0  0  0
  190.1280  176.5340  142.4700 C   0  0  0  0  0  3  0  0  0  0  0  0
  189.8400  176.2940  143.8150 C   0  0  0  0  0  3  0  0  0  0  0  0
  187.8080  177.5030  143.6320 C   0  0  0  0  0  3  0  0  0  0  0  0
  188.0610  177.7650  142.2840 C   0  0  0  0  0  3  0  0  0  0  0  0
  1 12  1  0  0  0  0
  2  6  1  0  0  0  0
  2 12  1  0  0  0  0
  3 16  1  0  0  0  0
  4 14  1  0  0  0  0
  5 13  2  0  0  0  0
  7 11  1  0  0  0  0
  8 10  1  6  0  0  0
  8 17  1  0  0  0  0
  8 19  1  0  0  0  0
  9  7  2  0  0  0  0
  9 13  1  0  0  0  0
 11 14  2  0  0  0  0
 11 16  1  0  0  0  0
 12 23  1  0  0  0  0
 13  4  1  0  0  0  0
 14 18  1  0  0  0  0
 15 20  1  6  0  0  0
 15  1  1  0  0  0  0
 16  2  2  0  0  0  0
 18  6  2  0  0  0  0
 19 20  2  0  0  0  0
 21 17  1  6  0  0  0
 21  3  1  0  0  0  0
 21 15  1  0  0  0  0
 23 27  2  0  0  0  0
 23 24  1  0  0  0  0
 24 25  2  0  0  0  0
 25 22  1  0  0  0  0
 26 22  2  0  0  0  0
 27 26  1  0  0  0  0
M  END
>  <MODEL>
6

>  <REMARK>
 VINA RESULT:      -7.4      4.607      8.093
  Name = 
  1 active torsions:
  status: ('A' for Active; 'I' for Inactive)
    1  A    between atoms: C_9  and  N_15
                            x       y       z     vdW  Elec       q    Type
                         _______ _______ _______ _____ _____    ______ ____

>  <TORSDO>
F 1

$$$$
=
 OpenBabel11052413463D

 27 31  0  0  1  0  0  0  0  0999 V2000
  188.3730  176.4310  142.6400 C   0  0  0  0  0  2  0  0  0  0  0  0
  190.5970  176.2610  143.7380 C   0  0  0  0  0  0  0  0  0  0  0  0
  189.3980  178.1100  144.9590 C   0  0  0  0  0  2  0  0  0  0  0  0
  192.8040  175.2500  147.0930 N   0  0  0  0  0  2  0  0  0  0  0  0
  193.3300  175.5420  149.2790 O   0  0  0  0  0  0  0  0  0  0  0  0
  191.5360  175.2750  143.6980 N   0  0  0  0  0  0  0  0  0  0  0  0
  190.9400  177.2830  147.3000 C   0  0  0  0  0  3  0  0  0  0  0  0
  185.7360  178.1840  145.3730 C   0  0  2  0  0  3  0  0  0  0  0  0
  191.7020  176.9140  148.4100 C   0  0  0  0  0  3  0  0  0  0  0  0
  184.8430  179.2660  145.9430 C   0  0  0  0  0  1  0  0  0  0  0  0
  191.1150  176.6240  146.0770 C   0  0  0  0  0  0  0  0  0  0  0  0
  189.8280  176.5530  142.5610 N   0  0  0  0  0  0  0  0  0  0  0  0
  192.6380  175.8840  148.2860 C   0  0  0  0  0  0  0  0  0  0  0  0
  192.0730  175.5920  145.9990 C   0  0  0  0  0  0  0  0  0  0  0  0
  187.7480  177.6450  143.3200 C   0  0  1  0  0  3  0  0  0  0  0  0
  190.3700  176.9670  144.9340 C   0  0  0  0  0  0  0  0  0  0  0  0
  187.1920  178.6210  145.4420 C   0  0  0  0  0  2  0  0  0  0  0  0
  192.2710  174.9300  144.7890 C   0  0  0  0  0  3  0  0  0  0  0  0
  185.3440  177.8960  143.9540 C   0  0  0  0  0  3  0  0  0  0  0  0
  186.2650  177.6120  143.0240 C   0  0  0  0  0  3  0  0  0  0  0  0
  188.0340  177.6320  144.7690 N   0  0  2  0  0  0  0  0  0  0  0  0
  191.6980  177.4680  138.8900 N   0  0  0  0  0  0  0  0  0  0  0  0
  190.4640  176.8750  141.3050 C   0  0  0  0  0  0  0  0  0  0  0  0
  189.7660  176.7500  140.0940 C   0  0  0  0  0  3  0  0  0  0  0  0
  190.4040  177.0550  138.8900 C   0  0  0  0  0  3  0  0  0  0  0  0
  192.4030  177.5950  140.0460 C   0  0  0  0  0  3  0  0  0  0  0  0
  191.8000  177.3010  141.2700 C   0  0  0  0  0  3  0  0  0  0  0  0
  2 16  1  0  0  0  0
  4 13  1  0  0  0  0
  6  2  2  0  0  0  0
  6 18  1  0  0  0  0
  7  9  2  0  0  0  0
  8 17  1  0  0  0  0
  8 10  1  6  0  0  0
 11  7  1  0  0  0  0
 12  1  1  0  0  0  0
 12  2  1  0  0  0  0
 13  9  1  0  0  0  0
 13  5  2  0  0  0  0
 14 11  1  0  0  0  0
 14  4  1  0  0  0  0
 15  1  1  6  0  0  0
 15 21  1  0  0  0  0
 16  3  1  0  0  0  0
 16 11  2  0  0  0  0
 18 14  2  0  0  0  0
 19  8  1  0  0  0  0
 20 15  1  0  0  0  0
 20 19  2  0  0  0  0
 21  3  1  6  0  0  0
 21 17  1  0  0  0  0
 22 26  1  0  0  0  0
 23 12  1  0  0  0  0
 24 23  2  0  0  0  0
 25 22  2  0  0  0  0
 25 24  1  0  0  0  0
 26 27  2  0  0  0  0
 27 23  1  0  0  0  0
M  END
>  <MODEL>
7

>  <REMARK>
 VINA RESULT:      -7.3      3.066      6.391
  Name = 
  1 active torsions:
  status: ('A' for Active; 'I' for Inactive)
    1  A    between atoms: C_9  and  N_15
                            x       y       z     vdW  Elec       q    Type
                         _______ _______ _______ _____ _____    ______ ____

>  <TORSDO>
F 1

$$$$
=
 OpenBabel11052413463D

 27 31  0  0  1  0  0  0  0  0999 V2000
  188.6890  178.2290  139.2280 C   0  0  0  0  0  2  0  0  0  0  0  0
  190.8430  176.9880  139.3020 C   0  0  0  0  0  0  0  0  0  0  0  0
  189.4240  175.7490  137.6290 C   0  0  0  0  0  2  0  0  0  0  0  0
  194.3490  175.8960  137.3880 N   0  0  0  0  0  2  0  0  0  0  0  0
  195.4390  174.8500  135.6980 O   0  0  0  0  0  0  0  0  0  0  0  0
  192.0610  177.3490  139.7940 N   0  0  0  0  0  0  0  0  0  0  0  0
  191.9400  175.0860  136.2970 C   0  0  0  0  0  3  0  0  0  0  0  0
  186.8760  177.4110  135.5480 C   0  0  2  0  0  3  0  0  0  0  0  0
  193.1420  174.7380  135.6800 C   0  0  0  0  0  3  0  0  0  0  0  0
  185.8500  176.8170  134.6070 C   0  0  0  0  0  1  0  0  0  0  0  0
  191.9490  175.8490  137.4710 C   0  0  0  0  0  0  0  0  0  0  0  0
  189.6510  177.4210  139.9770 N   0  0  0  0  0  0  0  0  0  0  0  0
  194.3490  175.1570  136.2450 C   0  0  0  0  0  0  0  0  0  0  0  0
  193.1910  176.2470  138.0070 C   0  0  0  0  0  0  0  0  0  0  0  0
  187.8270  177.3640  138.3130 C   0  0  1  0  0  3  0  0  0  0  0  0
  190.7600  176.2190  138.1260 C   0  0  0  0  0  0  0  0  0  0  0  0
  187.7230  176.3050  136.1610 C   0  0  0  0  0  2  0  0  0  0  0  0
  193.2220  176.9990  139.1800 C   0  0  0  0  0  3  0  0  0  0  0  0
  186.1870  178.1980  136.6230 C   0  0  0  0  0  3  0  0  0  0  0  0
  186.6470  178.2050  137.8810 C   0  0  0  0  0  3  0  0  0  0  0  0
  188.6200  176.8730  137.1670 N   0  0  2  0  0  0  0  0  0  0  0  0
  189.0380  176.6450  144.0790 N   0  0  0  0  0  0  0  0  0  0  0  0
  189.4370  177.1480  141.3780 C   0  0  0  0  0  0  0  0  0  0  0  0
  188.2430  177.5290  142.0100 C   0  0  0  0  0  3  0  0  0  0  0  0
  188.0610  177.2660  143.3680 C   0  0  0  0  0  3  0  0  0  0  0  0
  190.2090  176.2680  143.4980 C   0  0  0  0  0  3  0  0  0  0  0  0
  190.4270  176.5130  142.1410 C   0  0  0  0  0  3  0  0  0  0  0  0
  1 12  1  0  0  0  0
  2  6  1  0  0  0  0
  2 12  1  0  0  0  0
  3 16  1  0  0  0  0
  4 14  1  0  0  0  0
  5 13  2  0  0  0  0
  7 11  1  0  0  0  0
  8 10  1  6  0  0  0
  8 17  1  0  0  0  0
  8 19  1  0  0  0  0
  9 13  1  0  0  0  0
  9  7  2  0  0  0  0
 11 14  2  0  0  0  0
 11 16  1  0  0  0  0
 12 23  1  0  0  0  0
 13  4  1  0  0  0  0
 14 18  1  0  0  0  0
 15 20  1  6  0  0  0
 15  1  1  0  0  0  0
 16  2  2  0  0  0  0
 18  6  2  0  0  0  0
 19 20  2  0  0  0  0
 21 17  1  6  0  0  0
 21  3  1  0  0  0  0
 21 15  1  0  0  0  0
 23 24  2  0  0  0  0
 23 27  1  0  0  0  0
 24 25  1  0  0  0  0
 25 22  2  0  0  0  0
 26 22  1  0  0  0  0
 27 26  2  0  0  0  0
M  END
>  <MODEL>
8

>  <REMARK>
 VINA RESULT:      -7.1      4.822      8.433
  Name = 
  1 active torsions:
  status: ('A' for Active; 'I' for Inactive)
    1  A    between atoms: C_9  and  N_15
                            x       y       z     vdW  Elec       q    Type
                         _______ _______ _______ _____ _____    ______ ____

>  <TORSDO>
F 1

$$$$
=
 OpenBabel11052413463D

 27 31  0  0  1  0  0  0  0  0999 V2000
  187.6060  176.7360  143.3190 C   0  0  0  0  0  2  0  0  0  0  0  0
  185.5140  178.0450  143.0200 C   0  0  0  0  0  0  0  0  0  0  0  0
  187.1390  179.0080  141.3530 C   0  0  0  0  0  2  0  0  0  0  0  0
  182.2570  178.9910  140.6430 N   0  0  0  0  0  2  0  0  0  0  0  0
  181.3800  179.8420  138.7340 O   0  0  0  0  0  0  0  0  0  0  0  0
  184.2390  177.7920  143.4300 N   0  0  0  0  0  0  0  0  0  0  0  0
  184.7920  179.5730  139.7040 C   0  0  0  0  0  3  0  0  0  0  0  0
  189.7940  177.0060  139.7640 C   0  0  2  0  0  3  0  0  0  0  0  0
  183.6710  179.8760  138.9310 C   0  0  0  0  0  3  0  0  0  0  0  0
  190.9300  177.4380  138.8620 C   0  0  0  0  0  1  0  0  0  0  0  0
  184.6380  178.9700  140.9590 C   0  0  0  0  0  0  0  0  0  0  0  0
  186.6160  177.6660  143.8600 N   0  0  0  0  0  0  0  0  0  0  0  0
  182.3980  179.5740  139.4220 C   0  0  0  0  0  0  0  0  0  0  0  0
  183.3350  178.6870  141.4140 C   0  0  0  0  0  0  0  0  0  0  0  0
  188.5890  177.4450  142.3920 C   0  0  1  0  0  3  0  0  0  0  0  0
  185.7420  178.6510  141.7700 C   0  0  0  0  0  0  0  0  0  0  0  0
  188.9440  178.2090  140.1440 C   0  0  0  0  0  2  0  0  0  0  0  0
  183.1590  178.0960  142.6640 C   0  0  0  0  0  3  0  0  0  0  0  0
  190.3420  176.3450  140.9940 C   0  0  0  0  0  3  0  0  0  0  0  0
  189.7660  176.5170  142.1900 C   0  0  0  0  0  3  0  0  0  0  0  0
  187.9310  177.8080  141.1190 N   0  0  2  0  0  0  0  0  0  0  0  0
  186.8690  178.9540  147.8700 N   0  0  0  0  0  0  0  0  0  0  0  0
  186.7090  178.1130  145.2290 C   0  0  0  0  0  0  0  0  0  0  0  0
  187.7390  177.6560  146.0650 C   0  0  0  0  0  3  0  0  0  0  0  0
  187.8040  178.0920  147.3900 C   0  0  0  0  0  3  0  0  0  0  0  0
  185.8560  179.4110  147.0880 C   0  0  0  0  0  3  0  0  0  0  0  0
  185.7580  178.9990  145.7570 C   0  0  0  0  0  3  0  0  0  0  0  0
  1 12  1  0  0  0  0
  2  6  1  0  0  0  0
  2 12  1  0  0  0  0
  3 16  1  0  0  0  0
  4 14  1  0  0  0  0
  5 13  2  0  0  0  0
  7 11  1  0  0  0  0
  8 10  1  6  0  0  0
  8 17  1  0  0  0  0
  8 19  1  0  0  0  0
  9 13  1  0  0  0  0
  9  7  2  0  0  0  0
 11 14  2  0  0  0  0
 11 16  1  0  0  0  0
 12 23  1  0  0  0  0
 13  4  1  0  0  0  0
 14 18  1  0  0  0  0
 15 20  1  6  0  0  0
 15  1  1  0  0  0  0
 16  2  2  0  0  0  0
 18  6  2  0  0  0  0
 19 20  2  0  0  0  0
 21 17  1  6  0  0  0
 21  3  1  0  0  0  0
 21 15  1  0  0  0  0
 23 27  2  0  0  0  0
 23 24  1  0  0  0  0
 24 25  2  0  0  0  0
 25 22  1  0  0  0  0
 26 22  2  0  0  0  0
 27 26  1  0  0  0  0
M  END
>  <MODEL>
9

>  <REMARK>
 VINA RESULT:      -7.1      2.758      5.845
  Name = 
  1 active torsions:
  status: ('A' for Active; 'I' for Inactive)
    1  A    between atoms: C_9  and  N_15
                            x       y       z     vdW  Elec       q    Type
                         _______ _______ _______ _____ _____    ______ ____

>  <TORSDO>
F 1

$$$$
