=
 OpenBabel11052414283D

 32 35  0  0  1  0  0  0  0  0999 V2000
  181.4760  177.9490  139.5270 C   0  0  1  0  0  3  0  0  0  0  0  0
  182.4020  179.1360  139.1890 C   0  0  2  0  0  3  0  0  0  0  0  0
  179.9750  178.1790  139.2640 C   0  0  2  0  0  3  0  0  0  0  0  0
  180.2420  183.2790  137.9620 C   0  0  0  0  0  3  0  0  0  0  0  0
  181.9720  179.9350  137.9700 C   0  0  0  0  0  2  0  0  0  0  0  0
  178.9310  181.8200  139.3720 C   0  0  0  0  0  3  0  0  0  0  0  0
  179.8240  180.7640  139.1530 C   0  0  0  0  0  0  0  0  0  0  0  0
  179.5240  178.1180  137.7980 C   0  0  0  0  0  2  0  0  0  0  0  0
  181.9740  176.5530  139.2470 C   0  0  0  0  0  0  0  0  0  0  0  0
  179.5280  179.4890  139.9140 C   0  0  0  0  0  2  0  0  0  0  0  0
  182.0530  175.9500  137.8710 C   0  0  0  0  0  2  0  0  0  0  0  0
  182.3220  175.8660  140.1920 O   0  0  0  0  0  0  0  0  0  0  0  0
  179.8400  176.8010  137.1150 C   0  0  0  0  0  2  0  0  0  0  0  0
  180.9690  180.9890  138.3330 C   0  0  0  0  0  0  0  0  0  0  0  0
  181.3210  176.7370  136.7980 C   0  0  0  0  0  2  0  0  0  0  0  0
  179.1330  183.0670  138.7790 C   0  0  0  0  0  3  0  0  0  0  0  0
  181.1500  182.2440  137.7400 C   0  0  0  0  0  3  0  0  0  0  0  0
  184.5570  180.1640  138.9560 O   0  0  0  0  0  1  0  0  0  0  0  0
  183.9270  179.0070  139.4320 C   0  0  1  0  0  0  0  0  0  0  0  0
  185.7260  178.7310  142.7420 C   0  0  0  0  0  3  0  0  0  0  0  0
  183.3610  178.7880  143.1560 C   0  0  0  0  0  3  0  0  0  0  0  0
  184.1890  178.9090  140.8930 N   0  0  0  0  0  0  0  0  0  0  0  0
  184.6650  178.7160  143.6490 C   0  0  0  0  0  0  0  0  0  0  0  0
  183.1460  178.8820  141.7810 C   0  0  0  0  0  3  0  0  0  0  0  0
  185.4790  178.8230  141.3710 C   0  0  0  0  0  0  0  0  0  0  0  0
  186.4640  178.8250  140.5830 O   0  0  0  0  0  0  0  0  0  0  0  0
  183.9810  178.9080  145.9490 N   0  0  0  0  0  2  0  0  0  0  0  0
  186.2460  178.1940  145.6250 C   0  0  0  0  0  1  0  0  0  0  0  0
  184.9150  178.6200  145.1030 C   0  0  0  0  0  0  0  0  0  0  0  0
  184.5030  177.7900  138.6620 C   0  0  0  0  0  2  0  0  0  0  0  0
  185.4060  178.1510  137.4890 C   0  0  0  0  0  2  0  0  0  0  0  0
  185.1750  177.2010  136.3310 C   0  0  0  0  0  1  0  0  0  0  0  0
  1  9  1  6  0  0  0
  2 19  1  6  0  0  0
  2  1  1  0  0  0  0
  3  8  1  6  0  0  0
  3  1  1  0  0  0  0
  3 10  1  0  0  0  0
  4 16  1  0  0  0  0
  5 14  1  0  0  0  0
  5  2  1  0  0  0  0
  7  6  1  0  0  0  0
  7 10  1  0  0  0  0
  9 12  2  0  0  0  0
 11  9  1  0  0  0  0
 13  8  1  0  0  0  0
 14  7  2  0  0  0  0
 15 13  1  0  0  0  0
 15 11  1  0  0  0  0
 16  6  2  0  0  0  0
 17  4  2  0  0  0  0
 17 14  1  0  0  0  0
 19 18  1  6  0  0  0
 19 22  1  0  0  0  0
 20 23  2  0  0  0  0
 21 23  1  0  0  0  0
 22 25  1  0  0  0  0
 22 24  1  0  0  0  0
 23 29  1  0  0  0  0
 24 21  2  0  0  0  0
 25 20  1  0  0  0  0
 26 25  2  0  0  0  0
 29 28  1  0  0  0  0
 29 27  2  0  0  0  0
 30 19  1  0  0  0  0
 31 30  1  0  0  0  0
 32 31  1  0  0  0  0
M  END
>  <MODEL>
1

>  <REMARK>
 VINA RESULT:      -7.1      0.000      0.000
  Name = 
  5 active torsions:
  status: ('A' for Active; 'I' for Inactive)
    1  A    between atoms: C_1  and  C_4
    2  A    between atoms: C_1  and  C_27
    3  A    between atoms: C_5  and  C_27
    4  A    between atoms: N_16  and  C_27
    5  A    between atoms: C_19  and  C_26
                            x       y       z     vdW  Elec       q    Type
                         _______ _______ _______ _____ _____    ______ ____

>  <TORSDO>
F 5

$$$$
=
 OpenBabel11052414283D

 32 35  0  0  1  0  0  0  0  0999 V2000
  182.4350  178.5170  137.9280 C   0  0  1  0  0  3  0  0  0  0  0  0
  181.9730  178.9550  139.3340 C   0  0  2  0  0  3  0  0  0  0  0  0
  183.8130  177.8300  137.8640 C   0  0  2  0  0  3  0  0  0  0  0  0
  185.2010  178.5170  142.9010 C   0  0  0  0  0  3  0  0  0  0  0  0
  182.3890  178.0100  140.4500 C   0  0  0  0  0  2  0  0  0  0  0  0
  186.1450  178.7840  140.6930 C   0  0  0  0  0  3  0  0  0  0  0  0
  184.8960  178.5540  140.1040 C   0  0  0  0  0  0  0  0  0  0  0  0
  183.8700  176.3720  138.3400 C   0  0  0  0  0  2  0  0  0  0  0  0
  181.3990  177.9780  136.9730 C   0  0  0  0  0  0  0  0  0  0  0  0
  184.8520  178.6800  138.5960 C   0  0  0  0  0  2  0  0  0  0  0  0
  180.7950  176.6040  137.0760 C   0  0  0  0  0  2  0  0  0  0  0  0
  181.0380  178.6930  136.0540 O   0  0  0  0  0  0  0  0  0  0  0  0
  182.9380  175.4440  137.5830 C   0  0  0  0  0  2  0  0  0  0  0  0
  183.7680  178.3250  140.9470 C   0  0  0  0  0  0  0  0  0  0  0  0
  181.5110  175.6750  138.0410 C   0  0  0  0  0  2  0  0  0  0  0  0
  186.3010  178.7610  142.0810 C   0  0  0  0  0  3  0  0  0  0  0  0
  183.9460  178.2970  142.3350 C   0  0  0  0  0  3  0  0  0  0  0  0
  180.5330  180.2000  140.7950 O   0  0  0  0  0  1  0  0  0  0  0  0
  180.6070  179.6670  139.5020 C   0  0  1  0  0  0  0  0  0  0  0  0
  181.4830  182.7220  137.4610 C   0  0  0  0  0  3  0  0  0  0  0  0
  179.2520  182.0360  136.8970 C   0  0  0  0  0  3  0  0  0  0  0  0
  180.5140  180.7930  138.5340 N   0  0  0  0  0  0  0  0  0  0  0  0
  180.3210  182.9150  136.7120 C   0  0  0  0  0  0  0  0  0  0  0  0
  179.3680  180.9880  137.8090 C   0  0  0  0  0  3  0  0  0  0  0  0
  181.5690  181.6650  138.3690 C   0  0  0  0  0  0  0  0  0  0  0  0
  182.6330  181.5290  139.0330 O   0  0  0  0  0  0  0  0  0  0  0  0
  181.1130  184.9640  135.7310 N   0  0  0  0  0  2  0  0  0  0  0  0
  179.0910  184.1040  134.7750 C   0  0  0  0  0  1  0  0  0  0  0  0
  180.2200  184.0300  135.7470 C   0  0  0  0  0  0  0  0  0  0  0  0
  179.4410  178.6600  139.3260 C   0  0  0  0  0  2  0  0  0  0  0  0
  178.9310  178.0470  140.6240 C   0  0  0  0  0  2  0  0  0  0  0  0
  178.9450  176.5330  140.5370 C   0  0  0  0  0  1  0  0  0  0  0  0
  1  9  1  1  0  0  0
  1  2  1  0  0  0  0
  2 19  1  6  0  0  0
  2  5  1  0  0  0  0
  3  1  1  0  0  0  0
  3  8  1  1  0  0  0
  3 10  1  0  0  0  0
  5 14  1  0  0  0  0
  6 16  1  0  0  0  0
  7  6  2  0  0  0  0
  7 14  1  0  0  0  0
  9 11  1  0  0  0  0
 10  7  1  0  0  0  0
 11 15  1  0  0  0  0
 12  9  2  0  0  0  0
 13 15  1  0  0  0  0
 13  8  1  0  0  0  0
 14 17  2  0  0  0  0
 16  4  2  0  0  0  0
 17  4  1  0  0  0  0
 19 18  1  1  0  0  0
 20 25  1  0  0  0  0
 21 24  2  0  0  0  0
 22 19  1  0  0  0  0
 23 21  1  0  0  0  0
 23 20  2  0  0  0  0
 24 22  1  0  0  0  0
 25 22  1  0  0  0  0
 25 26  2  0  0  0  0
 27 29  2  0  0  0  0
 28 29  1  0  0  0  0
 29 23  1  0  0  0  0
 30 19  1  0  0  0  0
 30 31  1  0  0  0  0
 32 31  1  0  0  0  0
M  END
>  <MODEL>
2

>  <REMARK>
 VINA RESULT:      -6.2      2.489      6.694
  Name = 
  5 active torsions:
  status: ('A' for Active; 'I' for Inactive)
    1  A    between atoms: C_1  and  C_4
    2  A    between atoms: C_1  and  C_27
    3  A    between atoms: C_5  and  C_27
    4  A    between atoms: N_16  and  C_27
    5  A    between atoms: C_19  and  C_26
                            x       y       z     vdW  Elec       q    Type
                         _______ _______ _______ _____ _____    ______ ____

>  <TORSDO>
F 5

$$$$
=
 OpenBabel11052414283D

 32 35  0  0  1  0  0  0  0  0999 V2000
  182.3280  178.6150  138.6960 C   0  0  1  0  0  3  0  0  0  0  0  0
  181.2870  178.0510  139.6850 C   0  0  2  0  0  3  0  0  0  0  0  0
  182.5010  177.8220  137.3870 C   0  0  2  0  0  3  0  0  0  0  0  0
  179.3630  173.7590  138.5800 C   0  0  0  0  0  3  0  0  0  0  0  0
  180.0680  177.4320  139.0210 C   0  0  0  0  0  2  0  0  0  0  0  0
  181.5620  174.1620  137.6650 C   0  0  0  0  0  3  0  0  0  0  0  0
  181.4800  175.5190  137.9970 C   0  0  0  0  0  0  0  0  0  0  0  0
  181.4000  177.9990  136.3320 C   0  0  0  0  0  2  0  0  0  0  0  0
  182.4490  180.1130  138.5650 C   0  0  0  0  0  0  0  0  0  0  0  0
  182.7170  176.3400  137.7000 C   0  0  0  0  0  2  0  0  0  0  0  0
  181.4570  180.9750  137.8320 C   0  0  0  0  0  2  0  0  0  0  0  0
  183.4150  180.6580  139.0720 O   0  0  0  0  0  0  0  0  0  0  0  0
  181.2010  179.4370  135.8920 C   0  0  0  0  0  2  0  0  0  0  0  0
  180.3110  175.9960  138.6610 C   0  0  0  0  0  0  0  0  0  0  0  0
  180.4680  180.2030  136.9760 C   0  0  0  0  0  2  0  0  0  0  0  0
  180.5120  173.2870  137.9490 C   0  0  0  0  0  3  0  0  0  0  0  0
  179.2650  175.1060  138.9290 C   0  0  0  0  0  3  0  0  0  0  0  0
  179.9830  178.1480  141.6970 O   0  0  0  0  0  1  0  0  0  0  0  0
  181.0500  178.7700  141.0380 C   0  0  1  0  0  0  0  0  0  0  0  0
  183.3540  178.8330  144.0290 C   0  0  0  0  0  3  0  0  0  0  0  0
  184.5920  178.0590  142.1220 C   0  0  0  0  0  3  0  0  0  0  0  0
  182.2610  178.6320  141.8900 N   0  0  0  0  0  0  0  0  0  0  0  0
  184.5550  178.3760  143.4810 C   0  0  0  0  0  0  0  0  0  0  0  0
  183.4410  178.1960  141.3480 C   0  0  0  0  0  3  0  0  0  0  0  0
  182.2190  178.9620  143.2280 C   0  0  0  0  0  0  0  0  0  0  0  0
  181.1550  179.3860  143.7580 O   0  0  0  0  0  0  0  0  0  0  0  0
  185.7990  178.7460  145.5070 N   0  0  0  0  0  2  0  0  0  0  0  0
  186.9630  177.5030  143.8210 C   0  0  0  0  0  1  0  0  0  0  0  0
  185.7630  178.2340  144.3210 C   0  0  0  0  0  0  0  0  0  0  0  0
  180.6750  180.2570  140.8070 C   0  0  0  0  0  2  0  0  0  0  0  0
  179.1800  180.5230  140.6810 C   0  0  0  0  0  2  0  0  0  0  0  0
  178.9300  181.9440  140.2160 C   0  0  0  0  0  1  0  0  0  0  0  0
  1  9  1  6  0  0  0
  1  2  1  0  0  0  0
  2 19  1  1  0  0  0
  3  8  1  6  0  0  0
  3 10  1  0  0  0  0
  3  1  1  0  0  0  0
  4 17  1  0  0  0  0
  5  2  1  0  0  0  0
  6 16  1  0  0  0  0
  6  7  2  0  0  0  0
  7 14  1  0  0  0  0
  9 12  2  0  0  0  0
 10  7  1  0  0  0  0
 11  9  1  0  0  0  0
 13  8  1  0  0  0  0
 13 15  1  0  0  0  0
 14 17  2  0  0  0  0
 14  5  1  0  0  0  0
 15 11  1  0  0  0  0
 16  4  2  0  0  0  0
 19 18  1  1  0  0  0
 19 22  1  0  0  0  0
 21 23  1  0  0  0  0
 22 25  1  0  0  0  0
 23 20  2  0  0  0  0
 23 29  1  0  0  0  0
 24 22  1  0  0  0  0
 24 21  2  0  0  0  0
 25 26  2  0  0  0  0
 25 20  1  0  0  0  0
 28 29  1  0  0  0  0
 29 27  2  0  0  0  0
 30 19  1  0  0  0  0
 31 30  1  0  0  0  0
 32 31  1  0  0  0  0
M  END
>  <MODEL>
3

>  <REMARK>
 VINA RESULT:      -6.1      1.926      4.978
  Name = 
  5 active torsions:
  status: ('A' for Active; 'I' for Inactive)
    1  A    between atoms: C_1  and  C_4
    2  A    between atoms: C_1  and  C_27
    3  A    between atoms: C_5  and  C_27
    4  A    between atoms: N_16  and  C_27
    5  A    between atoms: C_19  and  C_26
                            x       y       z     vdW  Elec       q    Type
                         _______ _______ _______ _____ _____    ______ ____

>  <TORSDO>
F 5

$$$$
=
 OpenBabel11052414283D

 32 35  0  0  1  0  0  0  0  0999 V2000
  189.2350  175.4250  137.6970 C   0  0  1  0  0  3  0  0  0  0  0  0
  188.5970  176.6310  138.4180 C   0  0  2  0  0  3  0  0  0  0  0  0
  188.3540  174.7420  136.6330 C   0  0  2  0  0  3  0  0  0  0  0  0
  183.9340  177.4840  137.4840 C   0  0  0  0  0  3  0  0  0  0  0  0
  187.6990  177.4820  137.5340 C   0  0  0  0  0  2  0  0  0  0  0  0
  184.6330  175.1900  137.1930 C   0  0  0  0  0  3  0  0  0  0  0  0
  185.9800  175.5640  137.2720 C   0  0  0  0  0  0  0  0  0  0  0  0
  188.2150  175.4750  135.2910 C   0  0  0  0  0  2  0  0  0  0  0  0
  190.7070  175.4840  137.3750 C   0  0  0  0  0  0  0  0  0  0  0  0
  186.9780  174.4260  137.2210 C   0  0  0  0  0  2  0  0  0  0  0  0
  191.2920  176.3100  136.2620 C   0  0  0  0  0  2  0  0  0  0  0  0
  191.4700  174.8110  138.0480 O   0  0  0  0  0  0  0  0  0  0  0  0
  189.5380  175.7290  134.5940 C   0  0  0  0  0  2  0  0  0  0  0  0
  186.3030  176.9360  137.4870 C   0  0  0  0  0  0  0  0  0  0  0  0
  190.2670  176.8640  135.2870 C   0  0  0  0  0  2  0  0  0  0  0  0
  183.6160  176.1410  137.2940 C   0  0  0  0  0  3  0  0  0  0  0  0
  185.2700  177.8760  137.5760 C   0  0  0  0  0  3  0  0  0  0  0  0
  189.7350  178.6490  139.0390 O   0  0  0  0  0  1  0  0  0  0  0  0
  189.3980  177.3760  139.5150 C   0  0  1  0  0  0  0  0  0  0  0  0
  187.9830  176.9650  142.9920 C   0  0  0  0  0  3  0  0  0  0  0  0
  186.6770  178.6060  141.8200 C   0  0  0  0  0  3  0  0  0  0  0  0
  188.5440  177.5460  140.7210 N   0  0  0  0  0  0  0  0  0  0  0  0
  186.9210  177.8720  142.9830 C   0  0  0  0  0  0  0  0  0  0  0  0
  187.4950  178.4270  140.7060 C   0  0  0  0  0  3  0  0  0  0  0  0
  188.7830  176.8070  141.8600 C   0  0  0  0  0  0  0  0  0  0  0  0
  189.7270  175.9710  141.9040 O   0  0  0  0  0  0  0  0  0  0  0  0
  184.8660  178.5100  144.0620 N   0  0  0  0  0  2  0  0  0  0  0  0
  186.5740  177.7040  145.5380 C   0  0  0  0  0  1  0  0  0  0  0  0
  186.0680  178.0490  144.1770 C   0  0  0  0  0  0  0  0  0  0  0  0
  190.7110  176.6180  139.8420 C   0  0  0  0  0  2  0  0  0  0  0  0
  191.8540  177.5060  140.3190 C   0  0  0  0  0  2  0  0  0  0  0  0
  193.1460  177.1300  139.6200 C   0  0  0  0  0  1  0  0  0  0  0  0
  1  9  1  6  0  0  0
  1  2  1  0  0  0  0
  2 19  1  6  0  0  0
  3  8  1  6  0  0  0
  3 10  1  0  0  0  0
  3  1  1  0  0  0  0
  4 17  1  0  0  0  0
  5  2  1  0  0  0  0
  6  7  2  0  0  0  0
  6 16  1  0  0  0  0
  7 14  1  0  0  0  0
  9 12  2  0  0  0  0
 10  7  1  0  0  0  0
 11  9  1  0  0  0  0
 13 15  1  0  0  0  0
 13  8  1  0  0  0  0
 14  5  1  0  0  0  0
 14 17  2  0  0  0  0
 15 11  1  0  0  0  0
 16  4  2  0  0  0  0
 19 18  1  6  0  0  0
 19 30  1  0  0  0  0
 19 22  1  0  0  0  0
 21 23  1  0  0  0  0
 22 25  1  0  0  0  0
 23 20  2  0  0  0  0
 23 29  1  0  0  0  0
 24 22  1  0  0  0  0
 24 21  2  0  0  0  0
 25 26  2  0  0  0  0
 25 20  1  0  0  0  0
 27 29  2  0  0  0  0
 29 28  1  0  0  0  0
 30 31  1  0  0  0  0
 32 31  1  0  0  0  0
M  END
>  <MODEL>
4

>  <REMARK>
 VINA RESULT:      -6.1      4.052      6.961
  Name = 
  5 active torsions:
  status: ('A' for Active; 'I' for Inactive)
    1  A    between atoms: C_1  and  C_4
    2  A    between atoms: C_1  and  C_27
    3  A    between atoms: C_5  and  C_27
    4  A    between atoms: N_16  and  C_27
    5  A    between atoms: C_19  and  C_26
                            x       y       z     vdW  Elec       q    Type
                         _______ _______ _______ _____ _____    ______ ____

>  <TORSDO>
F 5

$$$$
=
 OpenBabel11052414283D

 32 35  0  0  1  0  0  0  0  0999 V2000
  181.3320  177.9650  136.9080 C   0  0  1  0  0  3  0  0  0  0  0  0
  182.4690  178.2200  137.9190 C   0  0  2  0  0  3  0  0  0  0  0  0
  181.6760  177.0190  135.7410 C   0  0  2  0  0  3  0  0  0  0  0  0
  186.8070  176.4200  136.7850 C   0  0  0  0  0  3  0  0  0  0  0  0
  183.3580  177.0130  138.1740 C   0  0  0  0  0  2  0  0  0  0  0  0
  185.3690  176.8870  134.9020 C   0  0  0  0  0  3  0  0  0  0  0  0
  184.2680  177.0520  135.7510 C   0  0  0  0  0  0  0  0  0  0  0  0
  181.7230  175.5200  136.0710 C   0  0  0  0  0  2  0  0  0  0  0  0
  179.9220  177.8570  137.4330 C   0  0  0  0  0  0  0  0  0  0  0  0
  182.9780  177.4670  135.0750 C   0  0  0  0  0  2  0  0  0  0  0  0
  179.3870  176.6540  138.1610 C   0  0  0  0  0  2  0  0  0  0  0  0
  179.1650  178.7940  137.2450 O   0  0  0  0  0  0  0  0  0  0  0  0
  180.4240  174.9790  136.6400 C   0  0  0  0  0  2  0  0  0  0  0  0
  184.4580  176.9190  137.1580 C   0  0  0  0  0  0  0  0  0  0  0  0
  180.2770  175.4260  138.0810 C   0  0  0  0  0  2  0  0  0  0  0  0
  186.6290  176.5690  135.4120 C   0  0  0  0  0  3  0  0  0  0  0  0
  185.7260  176.5910  137.6500 C   0  0  0  0  0  3  0  0  0  0  0  0
  180.9600  178.9000  139.6550 O   0  0  0  0  0  1  0  0  0  0  0  0
  182.2260  179.1690  139.1200 C   0  0  1  0  0  0  0  0  0  0  0  0
  185.5080  179.0140  140.9820 C   0  0  0  0  0  3  0  0  0  0  0  0
  183.8060  177.9990  142.3390 C   0  0  0  0  0  3  0  0  0  0  0  0
  183.2390  178.9000  140.1750 N   0  0  0  0  0  0  0  0  0  0  0  0
  185.1390  178.3790  142.1700 C   0  0  0  0  0  0  0  0  0  0  0  0
  182.8780  178.2660  141.3340 C   0  0  0  0  0  3  0  0  0  0  0  0
  184.5560  179.2650  139.9930 C   0  0  0  0  0  0  0  0  0  0  0  0
  184.9300  179.8330  138.9300 O   0  0  0  0  0  0  0  0  0  0  0  0
  187.3400  177.7470  142.9110 N   0  0  0  0  0  2  0  0  0  0  0  0
  185.7870  178.2470  144.6680 C   0  0  0  0  0  1  0  0  0  0  0  0
  186.1390  178.1100  143.2240 C   0  0  0  0  0  0  0  0  0  0  0  0
  182.2530  180.6490  138.6600 C   0  0  0  0  0  2  0  0  0  0  0  0
  180.9200  181.3770  138.7840 C   0  0  0  0  0  2  0  0  0  0  0  0
  180.5230  181.9880  137.4540 C   0  0  0  0  0  1  0  0  0  0  0  0
  1  9  1  1  0  0  0
  1  2  1  0  0  0  0
  2  5  1  0  0  0  0
  2 19  1  1  0  0  0
  3 10  1  1  0  0  0
  3  8  1  0  0  0  0
  3  1  1  0  0  0  0
  4 17  1  0  0  0  0
  6 16  1  0  0  0  0
  6  7  2  0  0  0  0
  7 14  1  0  0  0  0
  8 13  1  0  0  0  0
  9 11  1  0  0  0  0
 10  7  1  0  0  0  0
 12  9  2  0  0  0  0
 13 15  1  0  0  0  0
 14 17  2  0  0  0  0
 14  5  1  0  0  0  0
 15 11  1  0  0  0  0
 16  4  2  0  0  0  0
 19 18  1  1  0  0  0
 19 22  1  0  0  0  0
 20 23  2  0  0  0  0
 22 24  1  0  0  0  0
 23 21  1  0  0  0  0
 23 29  1  0  0  0  0
 24 21  2  0  0  0  0
 25 22  1  0  0  0  0
 25 20  1  0  0  0  0
 26 25  2  0  0  0  0
 27 29  2  0  0  0  0
 29 28  1  0  0  0  0
 30 31  1  0  0  0  0
 30 19  1  0  0  0  0
 32 31  1  0  0  0  0
M  END
>  <MODEL>
5

>  <REMARK>
 VINA RESULT:      -5.8      1.783      4.724
  Name = 
  5 active torsions:
  status: ('A' for Active; 'I' for Inactive)
    1  A    between atoms: C_1  and  C_4
    2  A    between atoms: C_1  and  C_27
    3  A    between atoms: C_5  and  C_27
    4  A    between atoms: N_16  and  C_27
    5  A    between atoms: C_19  and  C_26
                            x       y       z     vdW  Elec       q    Type
                         _______ _______ _______ _____ _____    ______ ____

>  <TORSDO>
F 5

$$$$
=
 OpenBabel11052414283D

 32 35  0  0  1  0  0  0  0  0999 V2000
  182.9830  176.7580  138.6580 C   0  0  1  0  0  3  0  0  0  0  0  0
  183.2710  178.1200  139.3250 C   0  0  2  0  0  3  0  0  0  0  0  0
  181.5020  176.3350  138.6190 C   0  0  2  0  0  3  0  0  0  0  0  0
  179.5440  180.2820  141.5110 C   0  0  0  0  0  3  0  0  0  0  0  0
  182.2000  179.1710  139.0840 C   0  0  0  0  0  2  0  0  0  0  0  0
  179.3850  177.8760  141.3570 C   0  0  0  0  0  3  0  0  0  0  0  0
  180.4500  177.8390  140.4490 C   0  0  0  0  0  0  0  0  0  0  0  0
  180.6200  177.0360  137.5760 C   0  0  0  0  0  2  0  0  0  0  0  0
  183.7980  176.3710  137.4490 C   0  0  0  0  0  0  0  0  0  0  0  0
  180.8890  176.4560  140.0150 C   0  0  0  0  0  2  0  0  0  0  0  0
  183.5960  176.9550  136.0770 C   0  0  0  0  0  2  0  0  0  0  0  0
  184.6630  175.5240  137.5870 O   0  0  0  0  0  0  0  0  0  0  0  0
  181.1090  176.8680  136.1500 C   0  0  0  0  0  2  0  0  0  0  0  0
  181.0890  179.0600  140.0860 C   0  0  0  0  0  0  0  0  0  0  0  0
  182.3150  177.7570  135.9200 C   0  0  0  0  0  2  0  0  0  0  0  0
  178.9310  179.0870  141.8820 C   0  0  0  0  0  3  0  0  0  0  0  0
  180.6130  180.2660  140.6150 C   0  0  0  0  0  3  0  0  0  0  0  0
  184.7610  179.9830  139.0740 O   0  0  0  0  0  1  0  0  0  0  0  0
  184.7310  178.6280  139.4260 C   0  0  1  0  0  0  0  0  0  0  0  0
  186.9900  178.4000  142.4440 C   0  0  0  0  0  3  0  0  0  0  0  0
  184.7090  178.2460  143.1790 C   0  0  0  0  0  3  0  0  0  0  0  0
  185.2010  178.5060  140.8320 N   0  0  0  0  0  0  0  0  0  0  0  0
  186.0710  178.2680  143.4860 C   0  0  0  0  0  0  0  0  0  0  0  0
  184.2980  178.3640  141.8520 C   0  0  0  0  0  3  0  0  0  0  0  0
  186.5480  178.5140  141.1250 C   0  0  0  0  0  0  0  0  0  0  0  0
  187.4100  178.6230  140.2100 O   0  0  0  0  0  0  0  0  0  0  0  0
  187.7290  177.7500  145.1520 N   0  0  0  0  0  2  0  0  0  0  0  0
  185.6190  178.4810  146.0220 C   0  0  0  0  0  1  0  0  0  0  0  0
  186.5280  178.1480  144.8870 C   0  0  0  0  0  0  0  0  0  0  0  0
  185.6480  177.8520  138.4450 C   0  0  0  0  0  2  0  0  0  0  0  0
  186.3630  178.7260  137.4210 C   0  0  0  0  0  2  0  0  0  0  0  0
  187.1560  177.8680  136.4540 C   0  0  0  0  0  1  0  0  0  0  0  0
  1  9  1  6  0  0  0
  1  2  1  0  0  0  0
  2 19  1  6  0  0  0
  3  8  1  6  0  0  0
  3  1  1  0  0  0  0
  3 10  1  0  0  0  0
  4 16  1  0  0  0  0
  5  2  1  0  0  0  0
  5 14  1  0  0  0  0
  6 16  2  0  0  0  0
  7  6  1  0  0  0  0
  9 12  2  0  0  0  0
 10  7  1  0  0  0  0
 11  9  1  0  0  0  0
 13  8  1  0  0  0  0
 14  7  2  0  0  0  0
 14 17  1  0  0  0  0
 15 11  1  0  0  0  0
 15 13  1  0  0  0  0
 17  4  2  0  0  0  0
 19 18  1  6  0  0  0
 19 22  1  0  0  0  0
 20 23  2  0  0  0  0
 21 23  1  0  0  0  0
 22 25  1  0  0  0  0
 22 24  1  0  0  0  0
 23 29  1  0  0  0  0
 24 21  2  0  0  0  0
 25 20  1  0  0  0  0
 26 25  2  0  0  0  0
 29 27  2  0  0  0  0
 29 28  1  0  0  0  0
 30 19  1  0  0  0  0
 31 30  1  0  0  0  0
 32 31  1  0  0  0  0
M  END
>  <MODEL>
6

>  <REMARK>
 VINA RESULT:      -5.7      1.897      2.466
  Name = 
  5 active torsions:
  status: ('A' for Active; 'I' for Inactive)
    1  A    between atoms: C_1  and  C_4
    2  A    between atoms: C_1  and  C_27
    3  A    between atoms: C_5  and  C_27
    4  A    between atoms: N_16  and  C_27
    5  A    between atoms: C_19  and  C_26
                            x       y       z     vdW  Elec       q    Type
                         _______ _______ _______ _____ _____    ______ ____

>  <TORSDO>
F 5

$$$$
=
 OpenBabel11052414283D

 32 35  0  0  1  0  0  0  0  0999 V2000
  180.5380  177.4660  138.4900 C   0  0  1  0  0  3  0  0  0  0  0  0
  180.4780  178.6970  139.4180 C   0  0  2  0  0  3  0  0  0  0  0  0
  181.0380  177.7350  137.0570 C   0  0  2  0  0  3  0  0  0  0  0  0
  181.3430  182.9870  137.3710 C   0  0  0  0  0  3  0  0  0  0  0  0
  181.5960  179.7020  139.1940 C   0  0  0  0  0  2  0  0  0  0  0  0
  180.4890  181.2930  135.8760 C   0  0  0  0  0  3  0  0  0  0  0  0
  180.7170  180.2980  136.8330 C   0  0  0  0  0  0  0  0  0  0  0  0
  182.5500  177.9390  136.8910 C   0  0  0  0  0  2  0  0  0  0  0  0
  180.9600  176.1460  139.0840 C   0  0  0  0  0  0  0  0  0  0  0  0
  180.2640  178.9050  136.4470 C   0  0  0  0  0  2  0  0  0  0  0  0
  182.3800  175.8010  139.4420 C   0  0  0  0  0  2  0  0  0  0  0  0
  180.1020  175.3010  139.2740 O   0  0  0  0  0  0  0  0  0  0  0  0
  183.3820  176.7670  137.3780 C   0  0  0  0  0  2  0  0  0  0  0  0
  181.2500  180.6710  138.1020 C   0  0  0  0  0  0  0  0  0  0  0  0
  183.4170  176.7670  138.8940 C   0  0  0  0  0  2  0  0  0  0  0  0
  180.8030  182.6280  136.1380 C   0  0  0  0  0  3  0  0  0  0  0  0
  181.5680  182.0120  138.3430 C   0  0  0  0  0  3  0  0  0  0  0  0
  179.3540  177.2830  140.9970 O   0  0  0  0  0  1  0  0  0  0  0  0
  179.9750  178.5330  140.8740 C   0  0  1  0  0  0  0  0  0  0  0  0
  182.0300  178.5620  144.0430 C   0  0  0  0  0  3  0  0  0  0  0  0
  183.5180  178.6790  142.1620 C   0  0  0  0  0  3  0  0  0  0  0  0
  181.1350  178.5640  141.8050 N   0  0  0  0  0  0  0  0  0  0  0  0
  183.3320  178.6330  143.5450 C   0  0  0  0  0  0  0  0  0  0  0  0
  182.4120  178.6460  141.3140 C   0  0  0  0  0  3  0  0  0  0  0  0
  180.9420  178.5330  143.1690 C   0  0  0  0  0  0  0  0  0  0  0  0
  179.7800  178.4770  143.6580 O   0  0  0  0  0  0  0  0  0  0  0  0
  184.3430  179.0280  145.6920 N   0  0  0  0  0  2  0  0  0  0  0  0
  185.8530  178.2750  143.9900 C   0  0  0  0  0  1  0  0  0  0  0  0
  184.4910  178.6620  144.4610 C   0  0  0  0  0  0  0  0  0  0  0  0
  178.9320  179.6270  141.2190 C   0  0  0  0  0  2  0  0  0  0  0  0
  179.5220  181.0120  141.4620 C   0  0  0  0  0  2  0  0  0  0  0  0
  178.9420  182.0140  140.4830 C   0  0  0  0  0  1  0  0  0  0  0  0
  1  9  1  1  0  0  0
  1  2  1  0  0  0  0
  2 19  1  1  0  0  0
  3 10  1  1  0  0  0
  3  1  1  0  0  0  0
  4 17  1  0  0  0  0
  5  2  1  0  0  0  0
  6 16  1  0  0  0  0
  6  7  2  0  0  0  0
  7 14  1  0  0  0  0
  8  3  1  0  0  0  0
  8 13  1  0  0  0  0
  9 12  2  0  0  0  0
  9 11  1  0  0  0  0
 10  7  1  0  0  0  0
 13 15  1  0  0  0  0
 14 17  2  0  0  0  0
 14  5  1  0  0  0  0
 15 11  1  0  0  0  0
 16  4  2  0  0  0  0
 19 18  1  1  0  0  0
 19 30  1  0  0  0  0
 19 22  1  0  0  0  0
 21 23  1  0  0  0  0
 22 25  1  0  0  0  0
 23 20  2  0  0  0  0
 23 29  1  0  0  0  0
 24 22  1  0  0  0  0
 24 21  2  0  0  0  0
 25 26  2  0  0  0  0
 25 20  1  0  0  0  0
 28 29  1  0  0  0  0
 29 27  2  0  0  0  0
 30 31  1  0  0  0  0
 32 31  1  0  0  0  0
M  END
>  <MODEL>
7

>  <REMARK>
 VINA RESULT:      -5.7      2.265      3.747
  Name = 
  5 active torsions:
  status: ('A' for Active; 'I' for Inactive)
    1  A    between atoms: C_1  and  C_4
    2  A    between atoms: C_1  and  C_27
    3  A    between atoms: C_5  and  C_27
    4  A    between atoms: N_16  and  C_27
    5  A    between atoms: C_19  and  C_26
                            x       y       z     vdW  Elec       q    Type
                         _______ _______ _______ _____ _____    ______ ____

>  <TORSDO>
F 5

$$$$
=
 OpenBabel11052414283D

 32 35  0  0  1  0  0  0  0  0999 V2000
  180.5340  176.1150  137.6080 C   0  0  1  0  0  3  0  0  0  0  0  0
  182.0410  176.3790  137.8070 C   0  0  2  0  0  3  0  0  0  0  0  0
  180.1440  174.6470  137.3440 C   0  0  2  0  0  3  0  0  0  0  0  0
  185.0120  172.6560  136.9960 C   0  0  0  0  0  3  0  0  0  0  0  0
  182.7790  175.2680  138.5360 C   0  0  0  0  0  2  0  0  0  0  0  0
  182.9140  172.5710  135.8030 C   0  0  0  0  0  3  0  0  0  0  0  0
  182.3950  173.6060  136.5890 C   0  0  0  0  0  0  0  0  0  0  0  0
  180.1520  173.7100  138.5600 C   0  0  0  0  0  2  0  0  0  0  0  0
  179.5560  176.9020  138.4440 C   0  0  0  0  0  0  0  0  0  0  0  0
  181.0050  174.0760  136.2150 C   0  0  0  0  0  2  0  0  0  0  0  0
  179.2920  176.6380  139.9010 C   0  0  0  0  0  2  0  0  0  0  0  0
  178.9310  177.7980  137.9040 O   0  0  0  0  0  0  0  0  0  0  0  0
  179.2350  174.1590  139.6820 C   0  0  0  0  0  2  0  0  0  0  0  0
  183.2250  174.1940  137.5880 C   0  0  0  0  0  0  0  0  0  0  0  0
  179.8650  175.3280  140.4140 C   0  0  0  0  0  2  0  0  0  0  0  0
  184.2100  172.0940  136.0050 C   0  0  0  0  0  3  0  0  0  0  0  0
  184.5180  173.6970  137.7840 C   0  0  0  0  0  3  0  0  0  0  0  0
  182.1760  178.1970  139.3670 O   0  0  0  0  0  1  0  0  0  0  0  0
  182.5350  177.8250  138.0650 C   0  0  1  0  0  0  0  0  0  0  0  0
  186.0480  177.5380  136.7070 C   0  0  0  0  0  3  0  0  0  0  0  0
  186.1640  178.2900  138.9850 C   0  0  0  0  0  3  0  0  0  0  0  0
  184.0190  177.8650  137.9680 N   0  0  0  0  0  0  0  0  0  0  0  0
  186.8170  177.9380  137.8020 C   0  0  0  0  0  0  0  0  0  0  0  0
  184.7720  178.2450  139.0470 C   0  0  0  0  0  3  0  0  0  0  0  0
  184.6560  177.5010  136.8000 C   0  0  0  0  0  0  0  0  0  0  0  0
  183.9960  177.1270  135.7920 O   0  0  0  0  0  0  0  0  0  0  0  0
  188.9200  179.1060  137.8210 N   0  0  0  0  0  2  0  0  0  0  0  0
  189.0850  176.7370  137.4960 C   0  0  0  0  0  1  0  0  0  0  0  0
  188.2910  177.9820  137.7130 C   0  0  0  0  0  0  0  0  0  0  0  0
  181.8670  178.8150  137.0760 C   0  0  0  0  0  2  0  0  0  0  0  0
  181.4810  180.1580  137.6870 C   0  0  0  0  0  2  0  0  0  0  0  0
  180.6740  180.9770  136.6980 C   0  0  0  0  0  1  0  0  0  0  0  0
  1  2  1  0  0  0  0
  1  9  1  1  0  0  0
  2 19  1  1  0  0  0
  2  5  1  0  0  0  0
  3 10  1  6  0  0  0
  3  1  1  0  0  0  0
  3  8  1  0  0  0  0
  4 17  1  0  0  0  0
  6 16  1  0  0  0  0
  6  7  2  0  0  0  0
  7 14  1  0  0  0  0
  8 13  1  0  0  0  0
  9 11  1  0  0  0  0
 10  7  1  0  0  0  0
 11 15  1  0  0  0  0
 12  9  2  0  0  0  0
 13 15  1  0  0  0  0
 14 17  2  0  0  0  0
 14  5  1  0  0  0  0
 16  4  2  0  0  0  0
 19 18  1  1  0  0  0
 20 25  1  0  0  0  0
 20 23  2  0  0  0  0
 21 24  2  0  0  0  0
 22 19  1  0  0  0  0
 22 24  1  0  0  0  0
 23 21  1  0  0  0  0
 25 22  1  0  0  0  0
 26 25  2  0  0  0  0
 28 29  1  0  0  0  0
 29 23  1  0  0  0  0
 29 27  2  0  0  0  0
 30 31  1  0  0  0  0
 30 19  1  0  0  0  0
 32 31  1  0  0  0  0
M  END
>  <MODEL>
8

>  <REMARK>
 VINA RESULT:      -5.7      3.212      6.346
  Name = 
  5 active torsions:
  status: ('A' for Active; 'I' for Inactive)
    1  A    between atoms: C_1  and  C_4
    2  A    between atoms: C_1  and  C_27
    3  A    between atoms: C_5  and  C_27
    4  A    between atoms: N_16  and  C_27
    5  A    between atoms: C_19  and  C_26
                            x       y       z     vdW  Elec       q    Type
                         _______ _______ _______ _____ _____    ______ ____

>  <TORSDO>
F 5

$$$$
=
 OpenBabel11052414283D

 32 35  0  0  1  0  0  0  0  0999 V2000
  183.6370  177.1300  135.5980 C   0  0  1  0  0  3  0  0  0  0  0  0
  183.9990  177.5100  137.0490 C   0  0  2  0  0  3  0  0  0  0  0  0
  184.8180  176.6950  134.7090 C   0  0  2  0  0  3  0  0  0  0  0  0
  188.7060  177.7200  138.1160 C   0  0  0  0  0  3  0  0  0  0  0  0
  185.1180  176.6760  137.6510 C   0  0  0  0  0  2  0  0  0  0  0  0
  188.1650  178.1010  135.7930 C   0  0  0  0  0  3  0  0  0  0  0  0
  186.8580  177.6440  135.9960 C   0  0  0  0  0  0  0  0  0  0  0  0
  185.3640  175.2790  134.9470 C   0  0  0  0  0  2  0  0  0  0  0  0
  182.3410  176.3990  135.3540 C   0  0  0  0  0  0  0  0  0  0  0  0
  185.9420  177.7290  134.7930 C   0  0  0  0  0  2  0  0  0  0  0  0
  182.1270  174.9420  135.6660 C   0  0  0  0  0  2  0  0  0  0  0  0
  181.4140  177.0200  134.8630 O   0  0  0  0  0  0  0  0  0  0  0  0
  184.3250  174.1870  134.7750 C   0  0  0  0  0  2  0  0  0  0  0  0
  186.4650  177.2390  137.3060 C   0  0  0  0  0  0  0  0  0  0  0  0
  183.4000  174.1740  135.9760 C   0  0  0  0  0  2  0  0  0  0  0  0
  189.0860  178.1360  136.8410 C   0  0  0  0  0  3  0  0  0  0  0  0
  187.4050  177.2720  138.3420 C   0  0  0  0  0  3  0  0  0  0  0  0
  181.9270  176.9570  138.1240 O   0  0  0  0  0  1  0  0  0  0  0  0
  182.8820  177.9750  138.0180 C   0  0  1  0  0  0  0  0  0  0  0  0
  184.9310  179.4250  140.8400 C   0  0  0  0  0  3  0  0  0  0  0  0
  183.6330  177.5940  141.6950 C   0  0  0  0  0  3  0  0  0  0  0  0
  183.4630  178.2050  139.3680 N   0  0  0  0  0  0  0  0  0  0  0  0
  184.5560  178.6180  141.9160 C   0  0  0  0  0  0  0  0  0  0  0  0
  183.1040  177.4040  140.4190 C   0  0  0  0  0  3  0  0  0  0  0  0
  184.3850  179.2090  139.5740 C   0  0  0  0  0  0  0  0  0  0  0  0
  184.7560  179.9530  138.6250 O   0  0  0  0  0  0  0  0  0  0  0  0
  184.7340  179.8380  143.9830 N   0  0  0  0  0  2  0  0  0  0  0  0
  186.1670  177.9240  143.8140 C   0  0  0  0  0  1  0  0  0  0  0  0
  185.1270  178.8400  143.2610 C   0  0  0  0  0  0  0  0  0  0  0  0
  182.1790  179.2450  137.4710 C   0  0  0  0  0  2  0  0  0  0  0  0
  180.7480  179.4370  137.9590 C   0  0  0  0  0  2  0  0  0  0  0  0
  180.7160  180.3670  139.1550 C   0  0  0  0  0  1  0  0  0  0  0  0
  1  9  1  1  0  0  0
  1  2  1  0  0  0  0
  2  5  1  0  0  0  0
  2 19  1  1  0  0  0
  3 10  1  1  0  0  0
  3  8  1  0  0  0  0
  3  1  1  0  0  0  0
  4 17  1  0  0  0  0
  6  7  2  0  0  0  0
  6 16  1  0  0  0  0
  7 14  1  0  0  0  0
  9 11  1  0  0  0  0
 10  7  1  0  0  0  0
 11 15  1  0  0  0  0
 12  9  2  0  0  0  0
 13  8  1  0  0  0  0
 13 15  1  0  0  0  0
 14  5  1  0  0  0  0
 14 17  2  0  0  0  0
 16  4  2  0  0  0  0
 19 18  1  1  0  0  0
 19 22  1  0  0  0  0
 20 23  2  0  0  0  0
 21 23  1  0  0  0  0
 22 25  1  0  0  0  0
 22 24  1  0  0  0  0
 23 29  1  0  0  0  0
 24 21  2  0  0  0  0
 25 20  1  0  0  0  0
 26 25  2  0  0  0  0
 29 28  1  0  0  0  0
 29 27  2  0  0  0  0
 30 31  1  0  0  0  0
 30 19  1  0  0  0  0
 31 32  1  0  0  0  0
M  END
>  <MODEL>
9

>  <REMARK>
 VINA RESULT:      -5.6      2.205      5.507
  Name = 
  5 active torsions:
  status: ('A' for Active; 'I' for Inactive)
    1  A    between atoms: C_1  and  C_4
    2  A    between atoms: C_1  and  C_27
    3  A    between atoms: C_5  and  C_27
    4  A    between atoms: N_16  and  C_27
    5  A    between atoms: C_19  and  C_26
                            x       y       z     vdW  Elec       q    Type
                         _______ _______ _______ _____ _____    ______ ____

>  <TORSDO>
F 5

$$$$
