=
 OpenBabel11052415193D

 37 41  0  0  1  0  0  0  0  0999 V2000
  182.6570  176.9000  137.5060 C   0  0  1  0  0  0  0  0  0  0  0  0
  183.4500  179.0450  139.9600 C   0  0  2  0  0  3  0  0  0  0  0  0
  184.9030  177.8610  137.7760 O   0  0  0  0  0  0  0  0  0  0  0  0
  182.8760  177.9990  140.9100 C   0  0  0  0  0  2  0  0  0  0  0  0
  182.8460  179.0600  138.5420 C   0  0  2  0  0  3  0  0  0  0  0  0
  183.3890  178.2130  142.3470 C   0  0  1  0  0  3  0  0  0  0  0  0
  186.8400  178.0900  138.9690 O   0  0  0  0  0  0  0  0  0  0  0  0
  181.4260  178.6850  138.5840 N   0  0  2  0  0  0  0  0  0  0  0  0
  183.0650  175.9670  138.4620 O   0  0  0  0  0  1  0  0  0  0  0  0
  186.7530  179.4040  141.3430 O   0  0  0  0  0  0  0  0  0  0  0  0
  185.5980  178.2980  138.9010 C   0  0  0  0  0  0  0  0  0  0  0  0
  181.2760  177.4230  137.8500 C   0  0  0  0  0  2  0  0  0  0  0  0
  184.9050  178.9470  139.9780 N   0  0  0  0  0  0  0  0  0  0  0  0
  183.5220  178.1340  137.5410 C   0  0  2  0  0  3  0  0  0  0  0  0
  184.6700  179.0720  142.5090 C   0  0  2  0  0  3  0  0  0  0  0  0
  182.6640  176.2730  136.1280 C   0  0  0  0  0  1  0  0  0  0  0  0
  185.5240  179.1300  141.2610 C   0  0  0  0  0  0  0  0  0  0  0  0
  180.9550  179.9350  136.5490 N   0  0  0  0  0  2  0  0  0  0  0  0
  179.5850  182.0340  136.6360 C   0  0  0  0  0  2  0  0  0  0  0  0
  180.3840  181.0420  135.8610 C   0  0  0  0  0  0  0  0  0  0  0  0
  180.5740  181.1940  134.5940 N   0  0  0  0  0  2  0  0  0  0  0  0
  181.4470  182.9760  137.7580 F   0  0  0  0  0  0  0  0  0  0  0  0
  180.5950  181.0080  138.7720 C   0  0  0  0  0  2  0  0  0  0  0  0
  180.2610  182.2970  137.9890 C   0  0  2  0  0  0  0  0  0  0  0  0
  180.5880  179.7070  137.9480 C   0  0  2  0  0  3  0  0  0  0  0  0
  179.3530  183.1480  138.8240 C   0  0  0  0  0  0  0  0  0  0  0  0
  178.9300  182.7330  139.9350 O   0  0  0  0  0  1  0  0  0  0  0  0
  178.9800  184.4120  138.3800 O   0  0  0  0  0  0  0  0  0  0  0  0
  186.4140  177.6390  143.5910 C   0  0  0  0  0  3  0  0  0  0  0  0
  185.4480  178.6430  143.7180 C   0  0  0  0  0  0  0  0  0  0  0  0
  185.2170  179.2300  144.9720 C   0  0  0  0  0  3  0  0  0  0  0  0
  185.7170  179.4120  147.3560 N   0  0  0  0  0  1  0  0  0  0  0  0
  186.9160  177.8110  145.9540 C   0  0  0  0  0  3  0  0  0  0  0  0
  185.9510  178.8140  146.0870 C   0  0  0  0  0  0  0  0  0  0  0  0
  187.1470  177.2240  144.7060 C   0  0  0  0  0  3  0  0  0  0  0  0
  182.2680  178.6950  143.2660 C   0  0  0  0  0  2  0  0  0  0  0  0
  180.9380  178.8040  142.5350 C   0  0  0  0  0  1  0  0  0  0  0  0
  1 16  1  6  0  0  0
  1 14  1  0  0  0  0
  1 12  1  0  0  0  0
  1  9  1  0  0  0  0
  2 13  1  0  0  0  0
  2  4  1  1  0  0  0
  3 11  1  0  0  0  0
  4  6  1  0  0  0  0
  5  8  1  0  0  0  0
  5  2  1  0  0  0  0
  6 15  1  0  0  0  0
  6 36  1  0  0  0  0
 11  7  2  0  0  0  0
 11 13  1  0  0  0  0
 12  8  1  0  0  0  0
 13 17  1  0  0  0  0
 14  3  1  0  0  0  0
 14  5  1  0  0  0  0
 15 30  1  0  0  0  0
 17 10  2  0  0  0  0
 17 15  1  0  0  0  0
 18 25  1  0  0  0  0
 19 24  1  0  0  0  0
 20 18  1  0  0  0  0
 20 19  1  0  0  0  0
 21 20  2  0  0  0  0
 22 24  1  0  0  0  0
 24 23  1  0  0  0  0
 24 26  1  0  0  0  0
 25  8  1  0  0  0  0
 25 23  1  0  0  0  0
 26 27  1  0  0  0  0
 28 26  2  0  0  0  0
 29 30  2  0  0  0  0
 29 35  1  0  0  0  0
 30 31  1  0  0  0  0
 31 34  2  0  0  0  0
 33 34  1  0  0  0  0
 34 32  1  0  0  0  0
 35 33  2  0  0  0  0
 37 36  1  0  0  0  0
M  END
>  <MODEL>
1

>  <REMARK>
 VINA RESULT:      -8.7      0.000      0.000
  Name = 
  4 active torsions:
  status: ('A' for Active; 'I' for Inactive)
    1  A    between atoms: C_6  and  C_31
    2  A    between atoms: C_7  and  C_14
    3  A    between atoms: C_11  and  C_33
    4  A    between atoms: N_20  and  C_36
                            x       y       z     vdW  Elec       q    Type
                         _______ _______ _______ _____ _____    ______ ____

>  <TORSDO>
F 4

$$$$
=
 OpenBabel11052415193D

 37 41  0  0  1  0  0  0  0  0999 V2000
  182.7830  176.5380  137.3050 C   0  0  1  0  0  0  0  0  0  0  0  0
  183.7490  178.7010  139.6800 C   0  0  2  0  0  3  0  0  0  0  0  0
  185.0430  177.4960  137.4100 O   0  0  0  0  0  0  0  0  0  0  0  0
  183.2420  177.6630  140.6770 C   0  0  0  0  0  2  0  0  0  0  0  0
  183.0470  178.7060  138.3080 C   0  0  2  0  0  3  0  0  0  0  0  0
  183.8540  177.8870  142.0730 C   0  0  1  0  0  3  0  0  0  0  0  0
  187.0590  177.7310  138.4610 O   0  0  0  0  0  0  0  0  0  0  0  0
  181.6330  178.3330  138.4540 N   0  0  2  0  0  0  0  0  0  0  0  0
  183.2550  175.6110  138.2370 O   0  0  0  0  0  1  0  0  0  0  0  0
  187.1420  179.0640  140.8250 O   0  0  0  0  0  0  0  0  0  0  0  0
  185.8170  177.9410  138.4790 C   0  0  0  0  0  0  0  0  0  0  0  0
  181.4300  177.0660  137.7420 C   0  0  0  0  0  2  0  0  0  0  0  0
  185.2020  178.6000  139.5980 N   0  0  0  0  0  0  0  0  0  0  0  0
  183.6490  177.7700  137.2700 C   0  0  2  0  0  3  0  0  0  0  0  0
  185.1460  178.7440  142.1370 C   0  0  2  0  0  3  0  0  0  0  0  0
  182.6920  175.9000  135.9350 C   0  0  0  0  0  1  0  0  0  0  0  0
  185.9100  178.7910  140.8320 C   0  0  0  0  0  0  0  0  0  0  0  0
  181.1070  179.6630  136.4830 N   0  0  0  0  0  2  0  0  0  0  0  0
  179.6560  181.7010  136.6760 C   0  0  0  0  0  2  0  0  0  0  0  0
  180.4910  180.7800  135.8520 C   0  0  0  0  0  0  0  0  0  0  0  0
  180.6710  181.0020  134.5940 N   0  0  0  0  0  2  0  0  0  0  0  0
  181.4840  182.6580  137.8420 F   0  0  0  0  0  0  0  0  0  0  0  0
  180.7120  180.6100  138.7570 C   0  0  0  0  0  2  0  0  0  0  0  0
  180.3260  181.9230  138.0390 C   0  0  2  0  0  0  0  0  0  0  0  0
  180.7530  179.3520  137.8700 C   0  0  2  0  0  3  0  0  0  0  0  0
  179.3880  182.6940  138.9170 C   0  0  0  0  0  0  0  0  0  0  0  0
  179.0160  182.2260  140.0250 O   0  0  0  0  0  1  0  0  0  0  0  0
  178.9310  183.9450  138.5160 O   0  0  0  0  0  0  0  0  0  0  0  0
  185.5270  178.4840  144.5970 C   0  0  0  0  0  3  0  0  0  0  0  0
  186.0050  178.3230  143.2920 C   0  0  0  0  0  0  0  0  0  0  0  0
  187.2810  177.7740  143.0830 C   0  0  0  0  0  3  0  0  0  0  0  0
  189.3570  176.8340  143.9580 N   0  0  0  0  0  1  0  0  0  0  0  0
  187.5830  177.5530  145.4750 C   0  0  0  0  0  3  0  0  0  0  0  0
  188.0660  177.3910  144.1730 C   0  0  0  0  0  0  0  0  0  0  0  0
  186.3140  178.0990  145.6860 C   0  0  0  0  0  3  0  0  0  0  0  0
  182.8020  178.3780  143.0650 C   0  0  0  0  0  2  0  0  0  0  0  0
  181.6940  179.1630  142.3780 C   0  0  0  0  0  1  0  0  0  0  0  0
  1 16  1  6  0  0  0
  1 12  1  0  0  0  0
  1  9  1  0  0  0  0
  2  4  1  1  0  0  0
  3 11  1  0  0  0  0
  4  6  1  0  0  0  0
  5  8  1  0  0  0  0
  5  2  1  0  0  0  0
  6 15  1  0  0  0  0
  6 36  1  0  0  0  0
  7 11  2  0  0  0  0
 10 17  2  0  0  0  0
 11 13  1  0  0  0  0
 12  8  1  0  0  0  0
 13  2  1  0  0  0  0
 13 17  1  0  0  0  0
 14  1  1  0  0  0  0
 14  3  1  0  0  0  0
 14  5  1  0  0  0  0
 15 30  1  0  0  0  0
 17 15  1  0  0  0  0
 18 25  1  0  0  0  0
 19 24  1  0  0  0  0
 20 18  1  0  0  0  0
 20 19  1  0  0  0  0
 21 20  2  0  0  0  0
 22 24  1  0  0  0  0
 24 23  1  0  0  0  0
 24 26  1  0  0  0  0
 25  8  1  0  0  0  0
 25 23  1  0  0  0  0
 26 27  1  0  0  0  0
 28 26  2  0  0  0  0
 29 35  1  0  0  0  0
 30 29  2  0  0  0  0
 31 30  1  0  0  0  0
 31 34  2  0  0  0  0
 32 34  1  0  0  0  0
 33 35  2  0  0  0  0
 34 33  1  0  0  0  0
 37 36  1  0  0  0  0
M  END
>  <MODEL>
2

>  <REMARK>
 VINA RESULT:      -7.6      1.094      1.334
  Name = 
  4 active torsions:
  status: ('A' for Active; 'I' for Inactive)
    1  A    between atoms: C_6  and  C_31
    2  A    between atoms: C_7  and  C_14
    3  A    between atoms: C_11  and  C_33
    4  A    between atoms: N_20  and  C_36
                            x       y       z     vdW  Elec       q    Type
                         _______ _______ _______ _____ _____    ______ ____

>  <TORSDO>
F 4

$$$$
=
 OpenBabel11052415193D

 37 41  0  0  1  0  0  0  0  0999 V2000
  182.9500  177.0760  138.2330 C   0  0  1  0  0  0  0  0  0  0  0  0
  185.1620  178.8690  140.0070 C   0  0  2  0  0  3  0  0  0  0  0  0
  185.2150  177.5910  137.4290 O   0  0  0  0  0  0  0  0  0  0  0  0
  184.8880  177.8830  141.1380 C   0  0  0  0  0  2  0  0  0  0  0  0
  183.9980  179.0900  139.0200 C   0  0  2  0  0  3  0  0  0  0  0  0
  186.0240  177.9010  142.1790 C   0  0  1  0  0  3  0  0  0  0  0  0
  187.4840  177.3820  137.6030 O   0  0  0  0  0  0  0  0  0  0  0  0
  182.7080  178.9770  139.7130 N   0  0  2  0  0  0  0  0  0  0  0  0
  183.5560  176.0210  138.9200 O   0  0  0  0  0  1  0  0  0  0  0  0
  188.7330  178.5260  139.7250 O   0  0  0  0  0  0  0  0  0  0  0  0
  186.4120  177.8170  138.1040 C   0  0  0  0  0  0  0  0  0  0  0  0
  182.0030  177.8170  139.1570 C   0  0  0  0  0  2  0  0  0  0  0  0
  186.4190  178.5070  139.3630 N   0  0  0  0  0  0  0  0  0  0  0  0
  183.9580  178.1260  137.8430 C   0  0  2  0  0  3  0  0  0  0  0  0
  187.3800  178.5000  141.7190 C   0  0  2  0  0  3  0  0  0  0  0  0
  182.2140  176.5530  137.0180 C   0  0  0  0  0  1  0  0  0  0  0  0
  187.5720  178.4860  140.2190 C   0  0  0  0  0  0  0  0  0  0  0  0
  180.8170  180.2960  140.4970 N   0  0  0  0  0  2  0  0  0  0  0  0
  179.7700  182.0230  139.0090 C   0  0  0  0  0  2  0  0  0  0  0  0
  179.8090  181.2800  140.3020 C   0  0  0  0  0  0  0  0  0  0  0  0
  178.9310  181.5090  141.2200 N   0  0  0  0  0  2  0  0  0  0  0  0
  179.0040  180.1810  137.7300 F   0  0  0  0  0  0  0  0  0  0  0  0
  181.3530  180.2260  138.0610 C   0  0  0  0  0  2  0  0  0  0  0  0
  180.0690  181.0600  137.8520 C   0  0  2  0  0  0  0  0  0  0  0  0
  181.8880  180.1760  139.5050 C   0  0  2  0  0  3  0  0  0  0  0  0
  180.2100  181.8540  136.5890 C   0  0  0  0  0  0  0  0  0  0  0  0
  181.0420  182.7960  136.5140 O   0  0  0  0  0  1  0  0  0  0  0  0
  179.4260  181.5450  135.4820 O   0  0  0  0  0  0  0  0  0  0  0  0
  188.6390  176.4610  142.4430 C   0  0  0  0  0  3  0  0  0  0  0  0
  188.5190  177.8550  142.4510 C   0  0  0  0  0  0  0  0  0  0  0  0
  189.4630  178.6290  143.1450 C   0  0  0  0  0  3  0  0  0  0  0  0
  191.4720  178.7940  144.5240 N   0  0  0  0  0  1  0  0  0  0  0  0
  190.6310  176.6150  143.8110 C   0  0  0  0  0  3  0  0  0  0  0  0
  190.5170  178.0080  143.8230 C   0  0  0  0  0  0  0  0  0  0  0  0
  189.6930  175.8420  143.1210 C   0  0  0  0  0  3  0  0  0  0  0  0
  185.5550  178.5160  143.4960 C   0  0  0  0  0  2  0  0  0  0  0  0
  186.0340  177.7190  144.7000 C   0  0  0  0  0  1  0  0  0  0  0  0
  1 16  1  6  0  0  0
  1  9  1  0  0  0  0
  1 12  1  0  0  0  0
  2  4  1  1  0  0  0
  3 14  1  0  0  0  0
  3 11  1  0  0  0  0
  4  6  1  0  0  0  0
  5  8  1  0  0  0  0
  5  2  1  0  0  0  0
  6 36  1  0  0  0  0
  7 11  2  0  0  0  0
 10 17  2  0  0  0  0
 11 13  1  0  0  0  0
 12  8  1  0  0  0  0
 13  2  1  0  0  0  0
 13 17  1  0  0  0  0
 14  1  1  0  0  0  0
 14  5  1  0  0  0  0
 15  6  1  0  0  0  0
 15 30  1  0  0  0  0
 17 15  1  0  0  0  0
 19 20  1  0  0  0  0
 20 18  1  0  0  0  0
 20 21  2  0  0  0  0
 22 24  1  0  0  0  0
 23 25  1  0  0  0  0
 24 23  1  0  0  0  0
 24 19  1  0  0  0  0
 25  8  1  0  0  0  0
 25 18  1  0  0  0  0
 26 24  1  0  0  0  0
 27 26  1  0  0  0  0
 28 26  2  0  0  0  0
 29 30  2  0  0  0  0
 29 35  1  0  0  0  0
 30 31  1  0  0  0  0
 31 34  2  0  0  0  0
 33 34  1  0  0  0  0
 34 32  1  0  0  0  0
 35 33  2  0  0  0  0
 36 37  1  0  0  0  0
M  END
>  <MODEL>
3

>  <REMARK>
 VINA RESULT:      -7.4      2.425      3.225
  Name = 
  4 active torsions:
  status: ('A' for Active; 'I' for Inactive)
    1  A    between atoms: C_6  and  C_31
    2  A    between atoms: C_7  and  C_14
    3  A    between atoms: C_11  and  C_33
    4  A    between atoms: N_20  and  C_36
                            x       y       z     vdW  Elec       q    Type
                         _______ _______ _______ _____ _____    ______ ____

>  <TORSDO>
F 4

$$$$
=
 OpenBabel11052415193D

 37 41  0  0  1  0  0  0  0  0999 V2000
  188.3500  177.7950  135.6870 C   0  0  1  0  0  0  0  0  0  0  0  0
  186.2010  177.0490  138.1520 C   0  0  2  0  0  3  0  0  0  0  0  0
  187.1750  175.6420  135.8390 O   0  0  0  0  0  0  0  0  0  0  0  0
  185.4990  178.3530  137.7850 C   0  0  0  0  0  2  0  0  0  0  0  0
  187.7150  177.0050  137.8650 C   0  0  2  0  0  3  0  0  0  0  0  0
  184.0490  178.3700  138.3080 C   0  0  1  0  0  3  0  0  0  0  0  0
  185.2440  174.4210  135.7940 O   0  0  0  0  0  0  0  0  0  0  0  0
  188.3110  178.3360  138.0470 N   0  0  2  0  0  0  0  0  0  0  0  0
  187.1820  178.2610  135.0790 O   0  0  0  0  0  1  0  0  0  0  0  0
  183.4590  174.7430  137.8150 O   0  0  0  0  0  0  0  0  0  0  0  0
  185.9410  175.2920  136.3800 C   0  0  0  0  0  0  0  0  0  0  0  0
  188.8130  178.7820  136.7420 C   0  0  0  0  0  2  0  0  0  0  0  0
  185.4590  175.9370  137.5700 N   0  0  0  0  0  0  0  0  0  0  0  0
  188.0950  176.5340  136.4690 C   0  0  2  0  0  3  0  0  0  0  0  0
  183.4230  176.9970  138.6670 C   0  0  2  0  0  3  0  0  0  0  0  0
  189.4290  177.5790  134.6460 C   0  0  0  0  0  1  0  0  0  0  0  0
  184.0850  175.8270  137.9740 C   0  0  0  0  0  0  0  0  0  0  0  0
  190.4920  177.3800  138.5590 N   0  0  0  0  0  2  0  0  0  0  0  0
  191.4200  177.5110  140.8860 C   0  0  0  0  0  2  0  0  0  0  0  0
  191.5380  177.0620  139.4690 C   0  0  0  0  0  0  0  0  0  0  0  0
  192.5600  176.3780  139.0770 N   0  0  0  0  0  2  0  0  0  0  0  0
  189.7050  175.9770  141.4520 F   0  0  0  0  0  0  0  0  0  0  0  0
  188.9290  177.9640  140.4140 C   0  0  0  0  0  2  0  0  0  0  0  0
  189.9730  177.3340  141.3640 C   0  0  2  0  0  0  0  0  0  0  0  0
  189.4300  178.2900  138.9950 C   0  0  2  0  0  3  0  0  0  0  0  0
  189.8320  177.9600  142.7180 C   0  0  0  0  0  0  0  0  0  0  0  0
  188.7480  177.8780  143.3530 O   0  0  0  0  0  1  0  0  0  0  0  0
  190.9090  178.6290  143.2900 O   0  0  0  0  0  0  0  0  0  0  0  0
  181.0940  176.5910  139.4900 C   0  0  0  0  0  3  0  0  0  0  0  0
  181.9370  177.0220  138.4590 C   0  0  0  0  0  0  0  0  0  0  0  0
  181.3830  177.4670  137.2490 C   0  0  0  0  0  3  0  0  0  0  0  0
  179.4370  177.9320  135.8490 N   0  0  0  0  0  1  0  0  0  0  0  0
  179.1580  177.0480  138.1080 C   0  0  0  0  0  3  0  0  0  0  0  0
  179.9960  177.4800  137.0750 C   0  0  0  0  0  0  0  0  0  0  0  0
  179.7080  176.6040  139.3150 C   0  0  0  0  0  3  0  0  0  0  0  0
  183.8850  179.3780  139.4440 C   0  0  0  0  0  2  0  0  0  0  0  0
  184.2380  178.7750  140.7960 C   0  0  0  0  0  1  0  0  0  0  0  0
  1 16  1  6  0  0  0
  1 14  1  0  0  0  0
  1 12  1  0  0  0  0
  2  4  1  6  0  0  0
  3 11  1  0  0  0  0
  3 14  1  0  0  0  0
  4  6  1  0  0  0  0
  5  8  1  0  0  0  0
  5  2  1  0  0  0  0
  6 15  1  0  0  0  0
  6 36  1  0  0  0  0
  7 11  2  0  0  0  0
  8 25  1  0  0  0  0
  9  1  1  0  0  0  0
 10 17  2  0  0  0  0
 11 13  1  0  0  0  0
 12  8  1  0  0  0  0
 13 17  1  0  0  0  0
 13  2  1  0  0  0  0
 14  5  1  0  0  0  0
 17 15  1  0  0  0  0
 18 25  1  0  0  0  0
 18 20  1  0  0  0  0
 19 24  1  0  0  0  0
 20 19  1  0  0  0  0
 21 20  2  0  0  0  0
 23 24  1  0  0  0  0
 24 22  1  0  0  0  0
 24 26  1  0  0  0  0
 25 23  1  0  0  0  0
 26 28  2  0  0  0  0
 26 27  1  0  0  0  0
 30 15  1  0  0  0  0
 30 29  2  0  0  0  0
 31 30  1  0  0  0  0
 32 34  1  0  0  0  0
 33 35  2  0  0  0  0
 34 31  2  0  0  0  0
 34 33  1  0  0  0  0
 35 29  1  0  0  0  0
 36 37  1  0  0  0  0
M  END
>  <MODEL>
4

>  <REMARK>
 VINA RESULT:      -6.7      4.575      8.565
  Name = 
  4 active torsions:
  status: ('A' for Active; 'I' for Inactive)
    1  A    between atoms: C_6  and  C_31
    2  A    between atoms: C_7  and  C_14
    3  A    between atoms: C_11  and  C_33
    4  A    between atoms: N_20  and  C_36
                            x       y       z     vdW  Elec       q    Type
                         _______ _______ _______ _____ _____    ______ ____

>  <TORSDO>
F 4

$$$$
=
 OpenBabel11052415193D

 37 41  0  0  1  0  0  0  0  0999 V2000
  190.3000  175.7340  137.9520 C   0  0  1  0  0  0  0  0  0  0  0  0
  189.6060  177.4470  140.7520 C   0  0  2  0  0  3  0  0  0  0  0  0
  191.8760  177.3090  138.9880 O   0  0  0  0  0  0  0  0  0  0  0  0
  189.2650  176.0920  141.3640 C   0  0  0  0  0  2  0  0  0  0  0  0
  189.3990  177.5600  139.2280 C   0  0  2  0  0  3  0  0  0  0  0  0
  189.2990  176.1540  142.9040 C   0  0  1  0  0  3  0  0  0  0  0  0
  193.2340  177.9140  140.7240 O   0  0  0  0  0  0  0  0  0  0  0  0
  188.2630  176.7310  138.8020 N   0  0  2  0  0  0  0  0  0  0  0  0
  190.7910  174.8100  138.8770 O   0  0  0  0  0  1  0  0  0  0  0  0
  192.0910  178.5870  143.0920 O   0  0  0  0  0  0  0  0  0  0  0  0
  192.0620  177.7040  140.3100 C   0  0  0  0  0  0  0  0  0  0  0  0
  188.7840  175.6790  137.9220 C   0  0  0  0  0  2  0  0  0  0  0  0
  190.9390  177.8390  141.1950 N   0  0  0  0  0  0  0  0  0  0  0  0
  190.5940  177.1480  138.3810 C   0  0  2  0  0  3  0  0  0  0  0  0
  190.0780  177.3370  143.5360 C   0  0  2  0  0  3  0  0  0  0  0  0
  190.8730  175.4530  136.5790 C   0  0  0  0  0  1  0  0  0  0  0  0
  191.1170  177.9410  142.6160 C   0  0  0  0  0  0  0  0  0  0  0  0
  186.4260  178.3230  138.9450 N   0  0  0  0  0  2  0  0  0  0  0  0
  184.8920  178.6710  136.9900 C   0  0  0  0  0  2  0  0  0  0  0  0
  185.2860  178.9740  138.3970 C   0  0  0  0  0  0  0  0  0  0  0  0
  184.5940  179.7960  139.1130 N   0  0  0  0  0  2  0  0  0  0  0  0
  184.1120  176.4820  137.4560 F   0  0  0  0  0  0  0  0  0  0  0  0
  186.4550  176.6280  137.1140 C   0  0  0  0  0  2  0  0  0  0  0  0
  185.0640  177.1700  136.7200 C   0  0  2  0  0  0  0  0  0  0  0  0
  187.2770  177.5250  138.0600 C   0  0  2  0  0  3  0  0  0  0  0  0
  184.8440  176.9170  135.2590 C   0  0  0  0  0  0  0  0  0  0  0  0
  185.6760  176.2440  134.5940 O   0  0  0  0  0  0  0  0  0  0  0  0
  183.7080  177.4140  134.6290 O   0  0  0  0  0  1  0  0  0  0  0  0
  191.6530  175.9740  144.9250 C   0  0  0  0  0  3  0  0  0  0  0  0
  190.6480  176.9460  144.8680 C   0  0  0  0  0  0  0  0  0  0  0  0
  190.1860  177.5370  146.0540 C   0  0  0  0  0  3  0  0  0  0  0  0
  190.2600  177.7590  148.4850 N   0  0  0  0  0  1  0  0  0  0  0  0
  191.7320  176.1850  147.3360 C   0  0  0  0  0  3  0  0  0  0  0  0
  190.7280  177.1570  147.2850 C   0  0  0  0  0  0  0  0  0  0  0  0
  192.1940  175.5940  146.1560 C   0  0  0  0  0  3  0  0  0  0  0  0
  187.8950  176.0270  143.4920 C   0  0  0  0  0  2  0  0  0  0  0  0
  187.2020  177.3760  143.6100 C   0  0  0  0  0  1  0  0  0  0  0  0
  1 16  1  6  0  0  0
  1 14  1  0  0  0  0
  1  9  1  0  0  0  0
  2 13  1  0  0  0  0
  2  4  1  6  0  0  0
  3 11  1  0  0  0  0
  4  6  1  0  0  0  0
  5  2  1  0  0  0  0
  6 36  1  0  0  0  0
  6 15  1  0  0  0  0
  8  5  1  0  0  0  0
 11  7  2  0  0  0  0
 11 13  1  0  0  0  0
 12  1  1  0  0  0  0
 12  8  1  0  0  0  0
 13 17  1  0  0  0  0
 14  3  1  0  0  0  0
 14  5  1  0  0  0  0
 15 30  1  0  0  0  0
 17 10  2  0  0  0  0
 17 15  1  0  0  0  0
 19 20  1  0  0  0  0
 20 18  1  0  0  0  0
 20 21  2  0  0  0  0
 23 25  1  0  0  0  0
 24 19  1  0  0  0  0
 24 23  1  0  0  0  0
 24 22  1  0  0  0  0
 25  8  1  0  0  0  0
 25 18  1  0  0  0  0
 26 24  1  0  0  0  0
 27 26  2  0  0  0  0
 28 26  1  0  0  0  0
 29 35  1  0  0  0  0
 30 29  2  0  0  0  0
 30 31  1  0  0  0  0
 31 34  2  0  0  0  0
 34 33  1  0  0  0  0
 34 32  1  0  0  0  0
 35 33  2  0  0  0  0
 36 37  1  0  0  0  0
M  END
>  <MODEL>
5

>  <REMARK>
 VINA RESULT:      -6.2      4.598      6.824
  Name = 
  4 active torsions:
  status: ('A' for Active; 'I' for Inactive)
    1  A    between atoms: C_6  and  C_31
    2  A    between atoms: C_7  and  C_14
    3  A    between atoms: C_11  and  C_33
    4  A    between atoms: N_20  and  C_36
                            x       y       z     vdW  Elec       q    Type
                         _______ _______ _______ _____ _____    ______ ____

>  <TORSDO>
F 4

$$$$
=
 OpenBabel11052415193D

 37 41  0  0  1  0  0  0  0  0999 V2000
  189.1180  178.8330  138.8470 C   0  0  1  0  0  0  0  0  0  0  0  0
  189.0240  176.8500  141.5510 C   0  0  2  0  0  3  0  0  0  0  0  0
  187.0260  178.1590  139.9470 O   0  0  0  0  0  0  0  0  0  0  0  0
  190.0080  177.8370  142.1730 C   0  0  0  0  0  2  0  0  0  0  0  0
  189.0800  176.7330  140.0140 C   0  0  2  0  0  3  0  0  0  0  0  0
  190.0200  177.7160  143.7090 C   0  0  1  0  0  3  0  0  0  0  0  0
  185.6270  178.1910  141.7540 O   0  0  0  0  0  0  0  0  0  0  0  0
  190.4540  176.9340  139.5330 N   0  0  2  0  0  0  0  0  0  0  0  0
  189.1790  179.8280  139.8260 O   0  0  0  0  0  1  0  0  0  0  0  0
  186.4110  176.9230  144.0230 O   0  0  0  0  0  0  0  0  0  0  0  0
  186.7340  177.8320  141.2680 C   0  0  0  0  0  0  0  0  0  0  0  0
  190.4670  178.1530  138.7170 C   0  0  0  0  0  2  0  0  0  0  0  0
  187.6910  177.1240  142.0720 N   0  0  0  0  0  0  0  0  0  0  0  0
  188.1960  177.7150  139.2590 C   0  0  2  0  0  3  0  0  0  0  0  0
  188.7950  177.0220  144.3620 C   0  0  2  0  0  3  0  0  0  0  0  0
  188.6890  179.4290  137.5230 C   0  0  0  0  0  1  0  0  0  0  0  0
  187.5530  177.0440  143.4990 C   0  0  0  0  0  0  0  0  0  0  0  0
  192.2400  176.0090  138.1620 N   0  0  0  0  0  2  0  0  0  0  0  0
  191.7790  174.1100  136.5880 C   0  0  0  0  0  2  0  0  0  0  0  0
  192.7220  175.1090  137.1700 C   0  0  0  0  0  0  0  0  0  0  0  0
  193.9460  175.1730  136.7680 N   0  0  0  0  0  2  0  0  0  0  0  0
  190.5330  175.6950  135.3430 F   0  0  0  0  0  0  0  0  0  0  0  0
  189.8630  175.4940  137.6100 C   0  0  0  0  0  2  0  0  0  0  0  0
  190.4100  174.7640  136.3630 C   0  0  2  0  0  0  0  0  0  0  0  0
  190.8970  175.8050  138.7080 C   0  0  2  0  0  3  0  0  0  0  0  0
  189.4310  173.7040  135.9560 C   0  0  0  0  0  0  0  0  0  0  0  0
  189.2840  173.4000  134.7430 O   0  0  0  0  0  0  0  0  0  0  0  0
  188.6850  173.0390  136.9230 O   0  0  0  0  0  1  0  0  0  0  0  0
  189.5160  177.3800  146.7320 C   0  0  0  0  0  3  0  0  0  0  0  0
  188.5490  177.5670  145.7380 C   0  0  0  0  0  0  0  0  0  0  0  0
  187.3640  178.2560  146.0430 C   0  0  0  0  0  3  0  0  0  0  0  0
  185.9540  179.4530  147.6370 N   0  0  0  0  0  1  0  0  0  0  0  0
  188.1240  178.5640  148.3210 C   0  0  0  0  0  3  0  0  0  0  0  0
  187.1540  178.7530  147.3320 C   0  0  0  0  0  0  0  0  0  0  0  0
  189.3040  177.8780  148.0210 C   0  0  0  0  0  3  0  0  0  0  0  0
  191.3350  177.1190  144.2050 C   0  0  0  0  0  2  0  0  0  0  0  0
  191.4220  175.6250  143.9310 C   0  0  0  0  0  1  0  0  0  0  0  0
  1 16  1  6  0  0  0
  1 14  1  0  0  0  0
  1  9  1  0  0  0  0
  2 13  1  0  0  0  0
  2  4  1  6  0  0  0
  3 11  1  0  0  0  0
  4  6  1  0  0  0  0
  5  2  1  0  0  0  0
  6 36  1  0  0  0  0
  6 15  1  0  0  0  0
  8  5  1  0  0  0  0
 11  7  2  0  0  0  0
 11 13  1  0  0  0  0
 12  1  1  0  0  0  0
 12  8  1  0  0  0  0
 13 17  1  0  0  0  0
 14  3  1  0  0  0  0
 14  5  1  0  0  0  0
 15 30  1  0  0  0  0
 17 10  2  0  0  0  0
 17 15  1  0  0  0  0
 18 25  1  0  0  0  0
 19 20  1  0  0  0  0
 20 18  1  0  0  0  0
 21 20  2  0  0  0  0
 22 24  1  0  0  0  0
 23 25  1  0  0  0  0
 24 19  1  0  0  0  0
 24 23  1  0  0  0  0
 25  8  1  0  0  0  0
 26 24  1  0  0  0  0
 26 28  1  0  0  0  0
 27 26  2  0  0  0  0
 29 35  1  0  0  0  0
 30 31  1  0  0  0  0
 30 29  2  0  0  0  0
 31 34  2  0  0  0  0
 34 32  1  0  0  0  0
 34 33  1  0  0  0  0
 35 33  2  0  0  0  0
 37 36  1  0  0  0  0
M  END
>  <MODEL>
6

>  <REMARK>
 VINA RESULT:      -6.0      6.046      8.781
  Name = 
  4 active torsions:
  status: ('A' for Active; 'I' for Inactive)
    1  A    between atoms: C_6  and  C_31
    2  A    between atoms: C_7  and  C_14
    3  A    between atoms: C_11  and  C_33
    4  A    between atoms: N_20  and  C_36
                            x       y       z     vdW  Elec       q    Type
                         _______ _______ _______ _____ _____    ______ ____

>  <TORSDO>
F 4

$$$$
=
 OpenBabel11052415193D

 37 41  0  0  1  0  0  0  0  0999 V2000
  190.5010  176.7480  139.0340 C   0  0  1  0  0  0  0  0  0  0  0  0
  188.5890  176.0200  136.3760 C   0  0  2  0  0  3  0  0  0  0  0  0
  189.4310  178.4640  137.6390 O   0  0  0  0  0  0  0  0  0  0  0  0
  187.8070  175.1160  137.3250 C   0  0  0  0  0  2  0  0  0  0  0  0
  190.0750  176.2260  136.7270 C   0  0  2  0  0  3  0  0  0  0  0  0
  186.4050  174.8050  136.7660 C   0  0  1  0  0  3  0  0  0  0  0  0
  187.5530  179.4970  136.8430 O   0  0  0  0  0  0  0  0  0  0  0  0
  190.6300  175.0150  137.3470 N   0  0  2  0  0  0  0  0  0  0  0  0
  189.2700  176.6740  139.6890 O   0  0  0  0  0  1  0  0  0  0  0  0
  185.9250  178.1150  135.1660 O   0  0  0  0  0  0  0  0  0  0  0  0
  188.2590  178.4530  136.8860 C   0  0  0  0  0  0  0  0  0  0  0  0
  191.0060  175.3510  138.7250 C   0  0  0  0  0  2  0  0  0  0  0  0
  187.8480  177.2630  136.1960 N   0  0  0  0  0  0  0  0  0  0  0  0
  190.3610  177.3820  137.6750 C   0  0  2  0  0  3  0  0  0  0  0  0
  185.8650  175.7590  135.6680 C   0  0  2  0  0  3  0  0  0  0  0  0
  191.5010  177.5030  139.8850 C   0  0  0  0  0  1  0  0  0  0  0  0
  186.5170  177.1240  135.6750 C   0  0  0  0  0  0  0  0  0  0  0  0
  191.7440  173.1290  136.2850 N   0  0  0  0  0  2  0  0  0  0  0  0
  194.2050  173.2150  135.8040 C   0  0  0  0  0  2  0  0  0  0  0  0
  192.9070  172.4800  135.7830 C   0  0  0  0  0  0  0  0  0  0  0  0
  192.8420  171.2700  135.3390 N   0  0  0  0  0  2  0  0  0  0  0  0
  194.4750  173.1010  138.1560 F   0  0  0  0  0  0  0  0  0  0  0  0
  193.1000  174.8890  137.4190 C   0  0  0  0  0  2  0  0  0  0  0  0
  194.3290  174.0040  137.1140 C   0  0  2  0  0  0  0  0  0  0  0  0
  191.8220  174.5500  136.6300 C   0  0  2  0  0  3  0  0  0  0  0  0
  195.5450  174.8770  137.0370 C   0  0  0  0  0  0  0  0  0  0  0  0
  195.6960  175.6800  136.0790 O   0  0  0  0  0  0  0  0  0  0  0  0
  196.5120  174.8140  138.0350 O   0  0  0  0  0  1  0  0  0  0  0  0
  183.6210  175.4730  134.5950 C   0  0  0  0  0  3  0  0  0  0  0  0
  184.3680  175.8360  135.7220 C   0  0  0  0  0  0  0  0  0  0  0  0
  183.7070  176.2700  136.8820 C   0  0  0  0  0  3  0  0  0  0  0  0
  181.6440  176.7750  138.0880 N   0  0  0  0  0  1  0  0  0  0  0  0
  181.5710  175.9720  135.7820 C   0  0  0  0  0  3  0  0  0  0  0  0
  182.3110  176.3370  136.9110 C   0  0  0  0  0  0  0  0  0  0  0  0
  182.2260  175.5410  134.6260 C   0  0  0  0  0  3  0  0  0  0  0  0
  186.2910  173.3410  136.3450 C   0  0  0  0  0  2  0  0  0  0  0  0
  185.1570  172.6270  137.0650 C   0  0  0  0  0  1  0  0  0  0  0  0
  1  9  1  0  0  0  0
  1 16  1  1  0  0  0
  2  5  1  0  0  0  0
  2  4  1  1  0  0  0
  3 14  1  0  0  0  0
  5  8  1  0  0  0  0
  5 14  1  0  0  0  0
  6  4  1  0  0  0  0
  7 11  2  0  0  0  0
  8 12  1  0  0  0  0
 10 17  2  0  0  0  0
 11  3  1  0  0  0  0
 12  1  1  0  0  0  0
 13  2  1  0  0  0  0
 13 11  1  0  0  0  0
 14  1  1  0  0  0  0
 15 17  1  0  0  0  0
 15 30  1  0  0  0  0
 15  6  1  0  0  0  0
 17 13  1  0  0  0  0
 18 25  1  0  0  0  0
 19 24  1  0  0  0  0
 20 19  1  0  0  0  0
 20 18  1  0  0  0  0
 21 20  2  0  0  0  0
 24 23  1  0  0  0  0
 24 22  1  0  0  0  0
 25  8  1  0  0  0  0
 25 23  1  0  0  0  0
 26 24  1  0  0  0  0
 26 28  1  0  0  0  0
 27 26  2  0  0  0  0
 29 35  2  0  0  0  0
 29 30  1  0  0  0  0
 30 31  2  0  0  0  0
 31 34  1  0  0  0  0
 33 34  2  0  0  0  0
 34 32  1  0  0  0  0
 35 33  1  0  0  0  0
 36  6  1  0  0  0  0
 36 37  1  0  0  0  0
M  END
>  <MODEL>
7

>  <REMARK>
 VINA RESULT:      -5.9      6.711     11.213
  Name = 
  4 active torsions:
  status: ('A' for Active; 'I' for Inactive)
    1  A    between atoms: C_6  and  C_31
    2  A    between atoms: C_7  and  C_14
    3  A    between atoms: C_11  and  C_33
    4  A    between atoms: N_20  and  C_36
                            x       y       z     vdW  Elec       q    Type
                         _______ _______ _______ _____ _____    ______ ____

>  <TORSDO>
F 4

$$$$
=
 OpenBabel11052415193D

 37 41  0  0  1  0  0  0  0  0999 V2000
  188.4060  177.6140  137.0630 C   0  0  1  0  0  0  0  0  0  0  0  0
  190.7580  175.2400  137.3520 C   0  0  2  0  0  3  0  0  0  0  0  0
  190.0150  177.5360  138.9190 O   0  0  0  0  0  0  0  0  0  0  0  0
  191.1540  175.6130  135.9270 C   0  0  0  0  0  2  0  0  0  0  0  0
  189.2780  175.4720  137.7140 C   0  0  2  0  0  3  0  0  0  0  0  0
  192.5860  175.1430  135.6060 C   0  0  1  0  0  3  0  0  0  0  0  0
  192.1580  177.6690  139.7020 O   0  0  0  0  0  0  0  0  0  0  0  0
  188.4210  175.2490  136.5420 N   0  0  2  0  0  0  0  0  0  0  0  0
  189.4250  178.2570  136.3560 O   0  0  0  0  0  1  0  0  0  0  0  0
  193.9110  175.7100  139.0230 O   0  0  0  0  0  0  0  0  0  0  0  0
  191.3160  177.0450  139.0030 C   0  0  0  0  0  0  0  0  0  0  0  0
  187.7870  176.5290  136.2040 C   0  0  0  0  0  2  0  0  0  0  0  0
  191.6960  175.8650  138.2780 N   0  0  0  0  0  0  0  0  0  0  0  0
  188.9530  176.8600  138.2470 C   0  0  2  0  0  3  0  0  0  0  0  0
  193.5020  174.8270  136.8180 C   0  0  2  0  0  3  0  0  0  0  0  0
  187.3580  178.6180  137.4960 C   0  0  0  0  0  1  0  0  0  0  0  0
  193.0760  175.5130  138.0970 C   0  0  0  0  0  0  0  0  0  0  0  0
  187.5170  173.0500  136.0210 N   0  0  0  0  0  2  0  0  0  0  0  0
  185.1780  172.4460  136.6980 C   0  0  0  0  0  2  0  0  0  0  0  0
  186.4620  172.0950  136.0260 C   0  0  0  0  0  0  0  0  0  0  0  0
  186.6090  170.9540  135.4390 N   0  0  0  0  0  2  0  0  0  0  0  0
  184.5010  174.0140  135.0560 F   0  0  0  0  0  0  0  0  0  0  0  0
  185.9760  174.8940  136.6920 C   0  0  0  0  0  2  0  0  0  0  0  0
  184.8230  173.9090  136.4000 C   0  0  2  0  0  0  0  0  0  0  0  0
  187.3740  174.2620  136.8300 C   0  0  2  0  0  3  0  0  0  0  0  0
  183.6370  174.2950  137.2290 C   0  0  0  0  0  0  0  0  0  0  0  0
  182.5950  173.5870  137.2270 O   0  0  0  0  0  0  0  0  0  0  0  0
  183.6840  175.4380  138.0210 O   0  0  0  0  0  1  0  0  0  0  0  0
  195.2640  176.1740  135.6560 C   0  0  0  0  0  3  0  0  0  0  0  0
  194.9400  175.0880  136.4770 C   0  0  0  0  0  0  0  0  0  0  0  0
  195.9610  174.2590  136.9670 C   0  0  0  0  0  3  0  0  0  0  0  0
  198.3270  173.6780  137.1350 N   0  0  0  0  0  1  0  0  0  0  0  0
  197.6120  175.6040  135.8150 C   0  0  0  0  0  3  0  0  0  0  0  0
  197.2940  174.5180  136.6360 C   0  0  0  0  0  0  0  0  0  0  0  0
  196.5970  176.4310  135.3260 C   0  0  0  0  0  3  0  0  0  0  0  0
  192.5770  173.9990  134.5940 C   0  0  0  0  0  2  0  0  0  0  0  0
  192.5160  172.6380  135.2730 C   0  0  0  0  0  1  0  0  0  0  0  0
  1 16  1  1  0  0  0
  1 14  1  0  0  0  0
  2  4  1  6  0  0  0
  2  5  1  0  0  0  0
  2 13  1  0  0  0  0
  3 11  1  0  0  0  0
  5 14  1  0  0  0  0
  6  4  1  0  0  0  0
  6 15  1  0  0  0  0
  8 25  1  0  0  0  0
  8  5  1  0  0  0  0
  9  1  1  0  0  0  0
 11  7  2  0  0  0  0
 12  8  1  0  0  0  0
 12  1  1  0  0  0  0
 13 11  1  0  0  0  0
 14  3  1  0  0  0  0
 15 17  1  0  0  0  0
 17 13  1  0  0  0  0
 17 10  2  0  0  0  0
 18 20  1  0  0  0  0
 18 25  1  0  0  0  0
 20 19  1  0  0  0  0
 21 20  2  0  0  0  0
 22 24  1  0  0  0  0
 23 25  1  0  0  0  0
 24 23  1  0  0  0  0
 24 19  1  0  0  0  0
 24 26  1  0  0  0  0
 26 28  1  0  0  0  0
 27 26  2  0  0  0  0
 29 30  1  0  0  0  0
 30 15  1  0  0  0  0
 30 31  2  0  0  0  0
 33 34  2  0  0  0  0
 34 31  1  0  0  0  0
 34 32  1  0  0  0  0
 35 29  2  0  0  0  0
 35 33  1  0  0  0  0
 36 37  1  0  0  0  0
 36  6  1  0  0  0  0
M  END
>  <MODEL>
8

>  <REMARK>
 VINA RESULT:      -5.8      7.625     10.441
  Name = 
  4 active torsions:
  status: ('A' for Active; 'I' for Inactive)
    1  A    between atoms: C_6  and  C_31
    2  A    between atoms: C_7  and  C_14
    3  A    between atoms: C_11  and  C_33
    4  A    between atoms: N_20  and  C_36
                            x       y       z     vdW  Elec       q    Type
                         _______ _______ _______ _____ _____    ______ ____

>  <TORSDO>
F 4

$$$$
