=
 OpenBabel11052414463D

 32 34  0  0  1  0  0  0  0  0999 V2000
  188.1930  177.0700  142.3310 C   0  0  0  0  0  2  0  0  0  0  0  0
  187.1460  177.6990  143.2500 C   0  0  2  0  0  3  0  0  0  0  0  0
  186.2680  178.7430  142.5540 C   0  0  2  0  0  3  0  0  0  0  0  0
  184.8640  178.8300  143.1910 C   0  0  0  0  0  2  0  0  0  0  0  0
  184.5320  177.8630  138.3890 C   0  0  0  0  0  2  0  0  0  0  0  0
  186.2930  178.6260  141.0140 C   0  0  0  0  0  2  0  0  0  0  0  0
  182.7860  177.6890  140.1630 C   0  0  0  0  0  2  0  0  0  0  0  0
  183.8120  178.4030  140.9990 C   0  0  0  0  0  0  0  0  0  0  0  0
  183.7900  178.2250  142.3250 C   0  0  0  0  0  3  0  0  0  0  0  0
  184.9970  179.1420  140.3950 C   0  0  2  0  0  3  0  0  0  0  0  0
  183.0410  177.8130  138.6660 C   0  0  0  0  0  2  0  0  0  0  0  0
  185.0640  179.1100  138.9280 N   0  0  0  0  0  2  0  0  0  0  0  0
  187.7500  178.2410  144.3900 O   0  0  0  0  0  0  0  0  0  0  0  0
  187.5670  177.2860  145.3910 C   0  0  1  0  0  3  0  0  0  0  0  0
  188.7400  177.3410  146.3550 C   0  0  0  0  0  1  0  0  0  0  0  0
  186.1880  178.6030  146.9390 C   0  0  0  0  0  2  0  0  0  0  0  0
  186.2920  177.5620  146.1180 C   0  0  0  0  0  3  0  0  0  0  0  0
  189.3750  177.8310  142.3250 O   0  0  0  0  0  0  0  0  0  0  0  0
  190.4760  176.9600  142.1900 C   0  0  1  0  0  3  0  0  0  0  0  0
  190.1330  175.6360  142.4970 O   0  0  0  0  0  1  0  0  0  0  0  0
  191.1680  177.0830  140.8530 C   0  0  0  0  0  0  0  0  0  0  0  0
  192.0720  177.8920  140.7030 O   0  0  0  0  0  0  0  0  0  0  0  0
  191.2250  176.7470  138.3820 C   0  0  2  0  0  3  0  0  0  0  0  0
  190.7940  176.1640  139.7180 C   0  0  2  0  0  3  0  0  0  0  0  0
  189.7500  176.7040  138.7250 C   0  0  1  0  0  3  0  0  0  0  0  0
  191.0860  174.4130  137.9340 O   0  0  0  0  0  1  0  0  0  0  0  0
  193.0530  175.5360  137.2260 C   0  0  0  0  0  1  0  0  0  0  0  0
  191.5530  175.6210  137.4190 C   0  0  2  0  0  3  0  0  0  0  0  0
  189.2620  178.1230  138.9830 C   0  0  0  0  0  2  0  0  0  0  0  0
  188.6370  178.6690  137.7480 C   0  0  0  0  0  0  0  0  0  0  0  0
  188.9510  179.9530  137.3200 O   0  0  0  0  0  1  0  0  0  0  0  0
  187.8470  177.9580  137.0730 O   0  0  0  0  0  0  0  0  0  0  0  0
  2  1  1  6  0  0  0
  2 13  1  0  0  0  0
  3  4  1  0  0  0  0
  3  2  1  1  0  0  0
  5 11  1  0  0  0  0
  5 12  1  0  0  0  0
  6  3  1  0  0  0  0
  7  8  1  0  0  0  0
  8  9  2  0  0  0  0
  9  4  1  0  0  0  0
 10  8  1  0  0  0  0
 10  6  1  1  0  0  0
 11  7  1  0  0  0  0
 12 10  1  0  0  0  0
 13 14  1  0  0  0  0
 14 17  1  0  0  0  0
 14 15  1  1  0  0  0
 17 16  2  0  0  0  0
 18  1  1  0  0  0  0
 19 18  1  0  0  0  0
 19 20  1  6  0  0  0
 21 19  1  0  0  0  0
 22 21  2  0  0  0  0
 23 28  1  6  0  0  0
 23 25  1  0  0  0  0
 23 24  1  0  0  0  0
 24 21  1  1  0  0  0
 25 29  1  1  0  0  0
 25 24  1  0  0  0  0
 28 27  1  1  0  0  0
 28 26  1  0  0  0  0
 30 29  1  0  0  0  0
 31 30  1  0  0  0  0
 32 30  2  0  0  0  0
M  END
>  <MODEL>
1

>  <REMARK>
 VINA RESULT:      -7.1      0.000      0.000
  Name = 
  12 active torsions:
  status: ('A' for Active; 'I' for Inactive)
    1  A    between atoms: C_1  and  C_5
    2  A    between atoms: C_1  and  O_30
    3  A    between atoms: C_2  and  C_5
    4  A    between atoms: C_3  and  C_8
    5  A    between atoms: C_3  and  C_20
    6  A    between atoms: C_4  and  C_24
    7  A    between atoms: C_4  and  O_30
    8  A    between atoms: C_5  and  O_14
    9  A    between atoms: C_13  and  O_14
   10  A    between atoms: C_13  and  C_29
   11  A    between atoms: C_15  and  C_26
   12  A    between atoms: C_16  and  C_24
                            x       y       z     vdW  Elec       q    Type
                         _______ _______ _______ _____ _____    ______ ____

>  <TORSDO>
F 12

$$$$
=
 OpenBabel11052414463D

 32 34  0  0  1  0  0  0  0  0999 V2000
  186.9810  178.7130  140.7370 C   0  0  0  0  0  2  0  0  0  0  0  0
  187.2510  178.0660  139.3790 C   0  0  2  0  0  3  0  0  0  0  0  0
  188.7350  178.0330  139.0010 C   0  0  2  0  0  3  0  0  0  0  0  0
  189.0210  178.8590  137.7270 C   0  0  0  0  0  2  0  0  0  0  0  0
  190.5450  174.2250  137.1690 C   0  0  0  0  0  2  0  0  0  0  0  0
  189.3330  176.6100  139.0190 C   0  0  0  0  0  2  0  0  0  0  0  0
  190.2240  176.0040  135.4490 C   0  0  0  0  0  2  0  0  0  0  0  0
  190.0530  176.8920  136.6510 C   0  0  0  0  0  0  0  0  0  0  0  0
  189.3120  177.9980  136.5260 C   0  0  0  0  0  3  0  0  0  0  0  0
  190.5030  176.4850  138.0460 C   0  0  2  0  0  3  0  0  0  0  0  0
  190.9170  174.6860  135.7720 C   0  0  0  0  0  2  0  0  0  0  0  0
  191.1220  175.1560  138.1340 N   0  0  0  0  0  2  0  0  0  0  0  0
  186.5000  178.6900  138.3760 O   0  0  0  0  0  0  0  0  0  0  0  0
  185.4400  177.8180  138.1180 C   0  0  1  0  0  3  0  0  0  0  0  0
  184.1270  178.5290  138.3980 C   0  0  0  0  0  1  0  0  0  0  0  0
  186.1640  176.2890  136.3360 C   0  0  0  0  0  2  0  0  0  0  0  0
  185.4910  177.3790  136.6900 C   0  0  0  0  0  3  0  0  0  0  0  0
  187.8710  178.2260  141.7100 O   0  0  0  0  0  0  0  0  0  0  0  0
  187.1540  177.9710  142.8960 C   0  0  1  0  0  3  0  0  0  0  0  0
  185.7740  177.8860  142.6630 O   0  0  0  0  0  1  0  0  0  0  0  0
  187.6840  176.7840  143.6660 C   0  0  0  0  0  0  0  0  0  0  0  0
  188.2430  175.8710  143.0760 O   0  0  0  0  0  0  0  0  0  0  0  0
  187.5410  178.1560  145.7450 C   0  0  2  0  0  3  0  0  0  0  0  0
  187.5850  176.7500  145.1700 C   0  0  2  0  0  3  0  0  0  0  0  0
  188.7880  177.3190  145.9410 C   0  0  1  0  0  3  0  0  0  0  0  0
  185.8450  179.2370  147.0190 O   0  0  0  0  0  1  0  0  0  0  0  0
  187.6500  178.2710  148.2190 C   0  0  0  0  0  1  0  0  0  0  0  0
  186.7260  178.1560  147.0240 C   0  0  2  0  0  3  0  0  0  0  0  0
  189.9100  177.8960  145.0880 C   0  0  0  0  0  2  0  0  0  0  0  0
  191.1290  177.0540  145.2270 C   0  0  0  0  0  0  0  0  0  0  0  0
  191.5240  176.2280  144.1820 O   0  0  0  0  0  0  0  0  0  0  0  0
  191.8190  177.1120  146.2770 O   0  0  0  0  0  1  0  0  0  0  0  0
  1 18  1  0  0  0  0
  2  1  1  1  0  0  0
  3  6  1  0  0  0  0
  3  2  1  6  0  0  0
  4  3  1  0  0  0  0
  5 12  1  0  0  0  0
  7 11  1  0  0  0  0
  7  8  1  0  0  0  0
  8 10  1  0  0  0  0
  9  8  2  0  0  0  0
  9  4  1  0  0  0  0
 10 12  1  0  0  0  0
 10  6  1  1  0  0  0
 11  5  1  0  0  0  0
 13  2  1  0  0  0  0
 14 13  1  0  0  0  0
 14 15  1  6  0  0  0
 16 17  2  0  0  0  0
 17 14  1  0  0  0  0
 18 19  1  0  0  0  0
 19 20  1  6  0  0  0
 19 21  1  0  0  0  0
 22 21  2  0  0  0  0
 23 25  1  0  0  0  0
 23 28  1  1  0  0  0
 24 21  1  6  0  0  0
 24 23  1  0  0  0  0
 24 25  1  0  0  0  0
 25 29  1  6  0  0  0
 26 28  1  0  0  0  0
 28 27  1  1  0  0  0
 29 30  1  0  0  0  0
 30 32  1  0  0  0  0
 31 30  2  0  0  0  0
M  END
>  <MODEL>
2

>  <REMARK>
 VINA RESULT:      -7.0      2.534      7.619
  Name = 
  12 active torsions:
  status: ('A' for Active; 'I' for Inactive)
    1  A    between atoms: C_1  and  C_5
    2  A    between atoms: C_1  and  O_30
    3  A    between atoms: C_2  and  C_5
    4  A    between atoms: C_3  and  C_8
    5  A    between atoms: C_3  and  C_20
    6  A    between atoms: C_4  and  C_24
    7  A    between atoms: C_4  and  O_30
    8  A    between atoms: C_5  and  O_14
    9  A    between atoms: C_13  and  O_14
   10  A    between atoms: C_13  and  C_29
   11  A    between atoms: C_15  and  C_26
   12  A    between atoms: C_16  and  C_24
                            x       y       z     vdW  Elec       q    Type
                         _______ _______ _______ _____ _____    ______ ____

>  <TORSDO>
F 12

$$$$
=
 OpenBabel11052414463D

 32 34  0  0  1  0  0  0  0  0999 V2000
  186.0450  178.6520  141.8410 C   0  0  0  0  0  2  0  0  0  0  0  0
  186.1900  178.3210  143.3270 C   0  0  2  0  0  3  0  0  0  0  0  0
  187.2720  177.2760  143.6190 C   0  0  2  0  0  3  0  0  0  0  0  0
  188.0420  177.5960  144.9190 C   0  0  0  0  0  2  0  0  0  0  0  0
  191.1310  177.2220  141.1210 C   0  0  0  0  0  2  0  0  0  0  0  0
  188.1480  176.9530  142.3900 C   0  0  0  0  0  2  0  0  0  0  0  0
  191.5280  178.1610  143.3980 C   0  0  0  0  0  2  0  0  0  0  0  0
  190.1840  177.5550  143.6930 C   0  0  0  0  0  0  0  0  0  0  0  0
  189.4390  178.0980  144.6620 C   0  0  0  0  0  3  0  0  0  0  0  0
  189.5450  176.4980  142.8050 C   0  0  2  0  0  3  0  0  0  0  0  0
  192.1850  177.5830  142.1500 C   0  0  0  0  0  2  0  0  0  0  0  0
  190.3420  176.1070  141.6350 N   0  0  0  0  0  2  0  0  0  0  0  0
  184.9610  177.9230  143.8670 O   0  0  0  0  0  0  0  0  0  0  0  0
  184.6290  178.9160  144.7900 C   0  0  1  0  0  3  0  0  0  0  0  0
  183.1710  179.3020  144.6070 C   0  0  0  0  0  1  0  0  0  0  0  0
  185.7110  179.0100  146.9940 C   0  0  0  0  0  2  0  0  0  0  0  0
  184.8550  178.4060  146.1760 C   0  0  0  0  0  3  0  0  0  0  0  0
  184.9110  179.4520  141.6150 O   0  0  0  0  0  0  0  0  0  0  0  0
  184.0370  178.7670  140.7470 C   0  0  1  0  0  3  0  0  0  0  0  0
  182.7290  178.7260  141.2490 O   0  0  0  0  0  1  0  0  0  0  0  0
  184.0940  179.2750  139.3250 C   0  0  0  0  0  0  0  0  0  0  0  0
  184.4570  180.4190  139.0980 O   0  0  0  0  0  0  0  0  0  0  0  0
  184.0700  176.9090  138.5350 C   0  0  2  0  0  3  0  0  0  0  0  0
  183.7680  178.3550  138.1770 C   0  0  2  0  0  3  0  0  0  0  0  0
  184.9580  177.6210  137.5360 C   0  0  1  0  0  3  0  0  0  0  0  0
  181.8900  175.9530  138.4650 O   0  0  0  0  0  1  0  0  0  0  0  0
  183.6920  174.5940  137.7320 C   0  0  0  0  0  1  0  0  0  0  0  0
  183.1120  175.9930  137.7960 C   0  0  2  0  0  3  0  0  0  0  0  0
  186.3160  177.8750  138.1780 C   0  0  0  0  0  2  0  0  0  0  0  0
  187.2910  178.2960  137.1350 C   0  0  0  0  0  0  0  0  0  0  0  0
  187.4820  179.6470  136.8680 O   0  0  0  0  0  1  0  0  0  0  0  0
  187.9660  177.4330  136.5160 O   0  0  0  0  0  0  0  0  0  0  0  0
  2  1  1  6  0  0  0
  2 13  1  0  0  0  0
  3  2  1  6  0  0  0
  3  4  1  0  0  0  0
  5 12  1  0  0  0  0
  5 11  1  0  0  0  0
  6  3  1  0  0  0  0
  7  8  1  0  0  0  0
  8  9  2  0  0  0  0
  9  4  1  0  0  0  0
 10  6  1  6  0  0  0
 10  8  1  0  0  0  0
 11  7  1  0  0  0  0
 12 10  1  0  0  0  0
 13 14  1  0  0  0  0
 14 15  1  1  0  0  0
 14 17  1  0  0  0  0
 17 16  2  0  0  0  0
 18  1  1  0  0  0  0
 19 20  1  1  0  0  0
 19 18  1  0  0  0  0
 21 19  1  0  0  0  0
 22 21  2  0  0  0  0
 23 28  1  6  0  0  0
 24 23  1  0  0  0  0
 24 21  1  1  0  0  0
 25 24  1  0  0  0  0
 25 29  1  1  0  0  0
 25 23  1  0  0  0  0
 28 27  1  1  0  0  0
 28 26  1  0  0  0  0
 30 29  1  0  0  0  0
 31 30  1  0  0  0  0
 32 30  2  0  0  0  0
M  END
>  <MODEL>
3

>  <REMARK>
 VINA RESULT:      -7.0      2.818      5.994
  Name = 
  12 active torsions:
  status: ('A' for Active; 'I' for Inactive)
    1  A    between atoms: C_1  and  C_5
    2  A    between atoms: C_1  and  O_30
    3  A    between atoms: C_2  and  C_5
    4  A    between atoms: C_3  and  C_8
    5  A    between atoms: C_3  and  C_20
    6  A    between atoms: C_4  and  C_24
    7  A    between atoms: C_4  and  O_30
    8  A    between atoms: C_5  and  O_14
    9  A    between atoms: C_13  and  O_14
   10  A    between atoms: C_13  and  C_29
   11  A    between atoms: C_15  and  C_26
   12  A    between atoms: C_16  and  C_24
                            x       y       z     vdW  Elec       q    Type
                         _______ _______ _______ _____ _____    ______ ____

>  <TORSDO>
F 12

$$$$
=
 OpenBabel11052414463D

 32 34  0  0  1  0  0  0  0  0999 V2000
  187.5080  178.7820  140.6640 C   0  0  0  0  0  2  0  0  0  0  0  0
  187.6110  178.0610  139.3200 C   0  0  2  0  0  3  0  0  0  0  0  0
  189.0460  177.9480  138.7940 C   0  0  2  0  0  3  0  0  0  0  0  0
  189.2160  178.6600  137.4350 C   0  0  0  0  0  2  0  0  0  0  0  0
  190.5540  173.9480  137.1020 C   0  0  0  0  0  2  0  0  0  0  0  0
  189.6060  176.5110  138.8660 C   0  0  0  0  0  2  0  0  0  0  0  0
  190.0970  175.5960  135.2850 C   0  0  0  0  0  2  0  0  0  0  0  0
  190.0770  176.5810  136.4210 C   0  0  0  0  0  0  0  0  0  0  0  0
  189.3550  177.6990  136.2840 C   0  0  0  0  0  3  0  0  0  0  0  0
  190.6620  176.2700  137.7910 C   0  0  2  0  0  3  0  0  0  0  0  0
  190.7870  174.2850  135.6410 C   0  0  0  0  0  2  0  0  0  0  0  0
  191.2530  174.9320  137.9220 N   0  0  0  0  0  2  0  0  0  0  0  0
  186.7820  178.6670  138.3690 O   0  0  0  0  0  0  0  0  0  0  0  0
  185.7180  177.7810  138.1940 C   0  0  1  0  0  3  0  0  0  0  0  0
  184.4090  178.5220  138.4140 C   0  0  0  0  0  1  0  0  0  0  0  0
  186.1110  175.9490  136.6050 C   0  0  0  0  0  2  0  0  0  0  0  0
  185.7600  177.2150  136.8120 C   0  0  0  0  0  3  0  0  0  0  0  0
  188.2750  178.1270  141.6430 O   0  0  0  0  0  0  0  0  0  0  0  0
  187.5450  178.1000  142.8490 C   0  0  1  0  0  3  0  0  0  0  0  0
  186.1840  177.8460  142.6290 O   0  0  0  0  0  1  0  0  0  0  0  0
  188.1450  177.1770  143.8840 C   0  0  0  0  0  0  0  0  0  0  0  0
  188.2430  175.9810  143.6560 O   0  0  0  0  0  0  0  0  0  0  0  0
  188.4650  176.7650  146.3240 C   0  0  2  0  0  3  0  0  0  0  0  0
  188.6870  177.7360  145.1760 C   0  0  2  0  0  3  0  0  0  0  0  0
  187.6490  178.0410  146.2700 C   0  0  1  0  0  3  0  0  0  0  0  0
  189.4230  178.1240  148.0290 O   0  0  0  0  0  1  0  0  0  0  0  0
  190.9200  176.9190  146.6360 C   0  0  0  0  0  1  0  0  0  0  0  0
  189.5790  176.9210  147.3420 C   0  0  2  0  0  3  0  0  0  0  0  0
  186.2070  177.6900  145.9320 C   0  0  0  0  0  2  0  0  0  0  0  0
  185.3010  178.7600  146.4300 C   0  0  0  0  0  0  0  0  0  0  0  0
  183.9850  178.8190  145.9870 O   0  0  0  0  0  0  0  0  0  0  0  0
  185.7170  179.5960  147.2750 O   0  0  0  0  0  1  0  0  0  0  0  0
  1 18  1  0  0  0  0
  2  1  1  1  0  0  0
  3  6  1  0  0  0  0
  3  2  1  6  0  0  0
  4  3  1  0  0  0  0
  5 12  1  0  0  0  0
  7 11  1  0  0  0  0
  7  8  1  0  0  0  0
  8 10  1  0  0  0  0
  9  8  2  0  0  0  0
  9  4  1  0  0  0  0
 10 12  1  0  0  0  0
 10  6  1  1  0  0  0
 11  5  1  0  0  0  0
 13  2  1  0  0  0  0
 14 13  1  0  0  0  0
 14 15  1  6  0  0  0
 16 17  2  0  0  0  0
 17 14  1  0  0  0  0
 18 19  1  0  0  0  0
 19 20  1  6  0  0  0
 19 21  1  0  0  0  0
 22 21  2  0  0  0  0
 23 28  1  1  0  0  0
 24 21  1  6  0  0  0
 24 25  1  0  0  0  0
 24 23  1  0  0  0  0
 25 29  1  6  0  0  0
 25 23  1  0  0  0  0
 28 27  1  6  0  0  0
 28 26  1  0  0  0  0
 29 30  1  0  0  0  0
 30 32  1  0  0  0  0
 31 30  2  0  0  0  0
M  END
>  <MODEL>
4

>  <REMARK>
 VINA RESULT:      -6.9      2.560      7.640
  Name = 
  12 active torsions:
  status: ('A' for Active; 'I' for Inactive)
    1  A    between atoms: C_1  and  C_5
    2  A    between atoms: C_1  and  O_30
    3  A    between atoms: C_2  and  C_5
    4  A    between atoms: C_3  and  C_8
    5  A    between atoms: C_3  and  C_20
    6  A    between atoms: C_4  and  C_24
    7  A    between atoms: C_4  and  O_30
    8  A    between atoms: C_5  and  O_14
    9  A    between atoms: C_13  and  O_14
   10  A    between atoms: C_13  and  C_29
   11  A    between atoms: C_15  and  C_26
   12  A    between atoms: C_16  and  C_24
                            x       y       z     vdW  Elec       q    Type
                         _______ _______ _______ _____ _____    ______ ____

>  <TORSDO>
F 12

$$$$
=
 OpenBabel11052414463D

 32 34  0  0  1  0  0  0  0  0999 V2000
  186.0360  178.8220  142.0890 C   0  0  0  0  0  2  0  0  0  0  0  0
  186.1830  178.2970  143.5170 C   0  0  2  0  0  3  0  0  0  0  0  0
  187.2510  177.2080  143.6620 C   0  0  2  0  0  3  0  0  0  0  0  0
  188.0710  177.3780  144.9600 C   0  0  0  0  0  2  0  0  0  0  0  0
  191.0220  177.3380  141.0360 C   0  0  0  0  0  2  0  0  0  0  0  0
  188.0780  176.9960  142.3760 C   0  0  0  0  0  2  0  0  0  0  0  0
  191.5160  178.0300  143.3820 C   0  0  0  0  0  2  0  0  0  0  0  0
  190.1690  177.4230  143.6610 C   0  0  0  0  0  0  0  0  0  0  0  0
  189.4690  177.8760  144.7070 C   0  0  0  0  0  3  0  0  0  0  0  0
  189.4770  176.4750  142.6930 C   0  0  2  0  0  3  0  0  0  0  0  0
  192.1180  177.5720  142.0590 C   0  0  0  0  0  2  0  0  0  0  0  0
  190.2260  176.1910  141.4620 N   0  0  0  0  0  2  0  0  0  0  0  0
  184.9510  177.8500  144.0090 O   0  0  0  0  0  0  0  0  0  0  0  0
  184.5130  178.8580  144.8690 C   0  0  1  0  0  3  0  0  0  0  0  0
  183.0300  179.0970  144.6450 C   0  0  0  0  0  1  0  0  0  0  0  0
  185.7020  179.0390  147.0110 C   0  0  0  0  0  2  0  0  0  0  0  0
  184.7580  178.4490  146.2850 C   0  0  0  0  0  3  0  0  0  0  0  0
  184.7940  178.4520  141.5450 O   0  0  0  0  0  0  0  0  0  0  0  0
  184.6470  179.0680  140.2850 C   0  0  1  0  0  3  0  0  0  0  0  0
  185.7660  178.8570  139.4680 O   0  0  0  0  0  1  0  0  0  0  0  0
  183.3520  178.7080  139.5960 C   0  0  0  0  0  0  0  0  0  0  0  0
  182.9860  179.3340  138.6130 O   0  0  0  0  0  0  0  0  0  0  0  0
  181.1510  177.5420  139.4560 C   0  0  2  0  0  3  0  0  0  0  0  0
  182.5380  177.5340  140.0780 C   0  0  2  0  0  3  0  0  0  0  0  0
  181.3000  177.8700  140.9270 C   0  0  1  0  0  3  0  0  0  0  0  0
  181.7250  175.2770  139.0000 O   0  0  0  0  0  1  0  0  0  0  0  0
  179.6330  176.0480  138.1860 C   0  0  0  0  0  1  0  0  0  0  0  0
  180.6540  176.1170  139.3040 C   0  0  2  0  0  3  0  0  0  0  0  0
  181.0200  179.3530  141.1330 C   0  0  0  0  0  2  0  0  0  0  0  0
  180.1120  179.5340  142.2980 C   0  0  0  0  0  0  0  0  0  0  0  0
  179.3550  178.4640  142.7610 O   0  0  0  0  0  0  0  0  0  0  0  0
  180.0520  180.6460  142.8840 O   0  0  0  0  0  1  0  0  0  0  0  0
  2  1  1  6  0  0  0
  2 13  1  0  0  0  0
  3  2  1  6  0  0  0
  3  4  1  0  0  0  0
  5 12  1  0  0  0  0
  5 11  1  0  0  0  0
  6  3  1  0  0  0  0
  7  8  1  0  0  0  0
  8  9  2  0  0  0  0
  9  4  1  0  0  0  0
 10  6  1  6  0  0  0
 10  8  1  0  0  0  0
 11  7  1  0  0  0  0
 12 10  1  0  0  0  0
 13 14  1  0  0  0  0
 14 15  1  1  0  0  0
 14 17  1  0  0  0  0
 17 16  2  0  0  0  0
 18  1  1  0  0  0  0
 19 20  1  6  0  0  0
 19 18  1  0  0  0  0
 21 19  1  0  0  0  0
 22 21  2  0  0  0  0
 23 28  1  1  0  0  0
 23 24  1  0  0  0  0
 23 25  1  0  0  0  0
 24 21  1  6  0  0  0
 24 25  1  0  0  0  0
 25 29  1  6  0  0  0
 26 28  1  0  0  0  0
 28 27  1  6  0  0  0
 29 30  1  0  0  0  0
 30 31  2  0  0  0  0
 30 32  1  0  0  0  0
M  END
>  <MODEL>
5

>  <REMARK>
 VINA RESULT:      -6.9      3.421      7.469
  Name = 
  12 active torsions:
  status: ('A' for Active; 'I' for Inactive)
    1  A    between atoms: C_1  and  C_5
    2  A    between atoms: C_1  and  O_30
    3  A    between atoms: C_2  and  C_5
    4  A    between atoms: C_3  and  C_8
    5  A    between atoms: C_3  and  C_20
    6  A    between atoms: C_4  and  C_24
    7  A    between atoms: C_4  and  O_30
    8  A    between atoms: C_5  and  O_14
    9  A    between atoms: C_13  and  O_14
   10  A    between atoms: C_13  and  C_29
   11  A    between atoms: C_15  and  C_26
   12  A    between atoms: C_16  and  C_24
                            x       y       z     vdW  Elec       q    Type
                         _______ _______ _______ _____ _____    ______ ____

>  <TORSDO>
F 12

$$$$
=
 OpenBabel11052414463D

 32 34  0  0  1  0  0  0  0  0999 V2000
  188.9920  177.3930  140.1840 C   0  0  0  0  0  2  0  0  0  0  0  0
  190.0480  177.3820  139.0790 C   0  0  2  0  0  3  0  0  0  0  0  0
  189.4580  177.2830  137.6690 C   0  0  2  0  0  3  0  0  0  0  0  0
  188.7900  178.6060  137.2330 C   0  0  0  0  0  2  0  0  0  0  0  0
  185.6000  174.8830  136.9670 C   0  0  0  0  0  2  0  0  0  0  0  0
  188.6120  176.0100  137.4540 C   0  0  0  0  0  2  0  0  0  0  0  0
  185.1750  177.3410  136.8920 C   0  0  0  0  0  2  0  0  0  0  0  0
  186.6730  177.4210  136.7820 C   0  0  0  0  0  0  0  0  0  0  0  0
  187.2860  178.5260  137.2210 C   0  0  0  0  0  3  0  0  0  0  0  0
  187.5340  176.2280  136.3950 C   0  0  2  0  0  3  0  0  0  0  0  0
  184.6210  175.9640  136.5470 C   0  0  0  0  0  2  0  0  0  0  0  0
  186.7930  174.9880  136.1330 N   0  0  0  0  0  2  0  0  0  0  0  0
  190.9800  176.3610  139.2960 O   0  0  0  0  0  0  0  0  0  0  0  0
  192.1690  176.8250  138.7310 C   0  0  1  0  0  3  0  0  0  0  0  0
  193.1200  177.2470  139.8390 C   0  0  0  0  0  1  0  0  0  0  0  0
  192.1090  174.6360  137.6160 C   0  0  0  0  0  2  0  0  0  0  0  0
  192.7880  175.7410  137.9100 C   0  0  0  0  0  3  0  0  0  0  0  0
  189.5960  177.4400  141.4530 O   0  0  0  0  0  0  0  0  0  0  0  0
  188.7110  178.0660  142.3550 C   0  0  1  0  0  3  0  0  0  0  0  0
  187.5300  178.4810  141.7230 O   0  0  0  0  0  1  0  0  0  0  0  0
  188.4450  177.2430  143.5930 C   0  0  0  0  0  0  0  0  0  0  0  0
  187.9840  176.1160  143.4920 O   0  0  0  0  0  0  0  0  0  0  0  0
  188.2560  176.8910  146.0550 C   0  0  2  0  0  3  0  0  0  0  0  0
  188.8090  177.7810  144.9540 C   0  0  2  0  0  3  0  0  0  0  0  0
  187.6370  178.2550  145.8300 C   0  0  1  0  0  3  0  0  0  0  0  0
  188.9750  178.1420  147.9490 O   0  0  0  0  0  1  0  0  0  0  0  0
  190.6190  176.8680  146.8070 C   0  0  0  0  0  1  0  0  0  0  0  0
  189.1760  176.9460  147.2610 C   0  0  2  0  0  3  0  0  0  0  0  0
  186.2470  178.0730  145.2340 C   0  0  0  0  0  2  0  0  0  0  0  0
  185.2520  178.8220  146.0480 C   0  0  0  0  0  0  0  0  0  0  0  0
  183.9570  178.9960  145.5740 O   0  0  0  0  0  0  0  0  0  0  0  0
  185.5720  179.2720  147.1790 O   0  0  0  0  0  1  0  0  0  0  0  0
  1 18  1  0  0  0  0
  2 13  1  0  0  0  0
  2  1  1  1  0  0  0
  3  2  1  1  0  0  0
  4  3  1  0  0  0  0
  6  3  1  0  0  0  0
  8  7  1  0  0  0  0
  8  9  2  0  0  0  0
  9  4  1  0  0  0  0
 10  8  1  0  0  0  0
 10  6  1  1  0  0  0
 11  7  1  0  0  0  0
 11  5  1  0  0  0  0
 12 10  1  0  0  0  0
 12  5  1  0  0  0  0
 14 13  1  0  0  0  0
 14 15  1  1  0  0  0
 16 17  2  0  0  0  0
 17 14  1  0  0  0  0
 18 19  1  0  0  0  0
 19 20  1  6  0  0  0
 19 21  1  0  0  0  0
 22 21  2  0  0  0  0
 23 28  1  1  0  0  0
 24 21  1  6  0  0  0
 24 25  1  0  0  0  0
 24 23  1  0  0  0  0
 25 29  1  6  0  0  0
 25 23  1  0  0  0  0
 28 27  1  6  0  0  0
 28 26  1  0  0  0  0
 29 30  1  0  0  0  0
 30 32  1  0  0  0  0
 31 30  2  0  0  0  0
M  END
>  <MODEL>
6

>  <REMARK>
 VINA RESULT:      -6.9      2.565      7.072
  Name = 
  12 active torsions:
  status: ('A' for Active; 'I' for Inactive)
    1  A    between atoms: C_1  and  C_5
    2  A    between atoms: C_1  and  O_30
    3  A    between atoms: C_2  and  C_5
    4  A    between atoms: C_3  and  C_8
    5  A    between atoms: C_3  and  C_20
    6  A    between atoms: C_4  and  C_24
    7  A    between atoms: C_4  and  O_30
    8  A    between atoms: C_5  and  O_14
    9  A    between atoms: C_13  and  O_14
   10  A    between atoms: C_13  and  C_29
   11  A    between atoms: C_15  and  C_26
   12  A    between atoms: C_16  and  C_24
                            x       y       z     vdW  Elec       q    Type
                         _______ _______ _______ _____ _____    ______ ____

>  <TORSDO>
F 12

$$$$
=
 OpenBabel11052414463D

 32 34  0  0  1  0  0  0  0  0999 V2000
  185.4430  179.1400  141.9420 C   0  0  0  0  0  2  0  0  0  0  0  0
  184.0330  178.5620  142.0680 C   0  0  2  0  0  3  0  0  0  0  0  0
  183.3820  178.2370  140.7190 C   0  0  2  0  0  3  0  0  0  0  0  0
  184.1910  178.8150  139.5380 C   0  0  0  0  0  2  0  0  0  0  0  0
  179.5620  180.4480  139.4320 C   0  0  0  0  0  2  0  0  0  0  0  0
  181.8660  178.5290  140.6930 C   0  0  0  0  0  2  0  0  0  0  0  0
  181.5610  181.2710  138.1840 C   0  0  0  0  0  2  0  0  0  0  0  0
  182.1970  180.0200  138.7240 C   0  0  0  0  0  0  0  0  0  0  0  0
  183.5230  180.0030  138.8960 C   0  0  0  0  0  3  0  0  0  0  0  0
  181.3870  178.8590  139.2810 C   0  0  2  0  0  3  0  0  0  0  0  0
  180.0370  181.2340  138.2240 C   0  0  0  0  0  2  0  0  0  0  0  0
  179.9310  179.0480  139.2490 N   0  0  0  0  0  2  0  0  0  0  0  0
  183.2150  179.4130  142.8190 O   0  0  0  0  0  0  0  0  0  0  0  0
  182.8290  178.6620  143.9310 C   0  0  1  0  0  3  0  0  0  0  0  0
  183.7610  178.9710  145.0910 C   0  0  0  0  0  1  0  0  0  0  0  0
  180.4170  178.1980  143.9660 C   0  0  0  0  0  2  0  0  0  0  0  0
  181.4220  179.0020  144.3000 C   0  0  0  0  0  3  0  0  0  0  0  0
  186.3130  178.5420  142.8690 O   0  0  0  0  0  0  0  0  0  0  0  0
  187.2910  177.8080  142.1670 C   0  0  1  0  0  3  0  0  0  0  0  0
  188.0140  178.6180  141.2810 O   0  0  0  0  0  1  0  0  0  0  0  0
  188.1880  176.9980  143.0720 C   0  0  0  0  0  0  0  0  0  0  0  0
  188.0240  175.7910  143.1790 O   0  0  0  0  0  0  0  0  0  0  0  0
  189.9010  176.7430  144.8680 C   0  0  2  0  0  3  0  0  0  0  0  0
  189.3310  177.6600  143.7980 C   0  0  2  0  0  3  0  0  0  0  0  0
  189.1040  177.9600  145.2900 C   0  0  1  0  0  3  0  0  0  0  0  0
  191.6850  177.1300  146.3980 O   0  0  0  0  0  1  0  0  0  0  0  0
  191.7400  178.3240  144.3470 C   0  0  0  0  0  1  0  0  0  0  0  0
  191.3830  177.0250  145.0410 C   0  0  2  0  0  3  0  0  0  0  0  0
  187.7700  177.5010  145.8630 C   0  0  0  0  0  2  0  0  0  0  0  0
  187.6820  177.8870  147.2970 C   0  0  0  0  0  0  0  0  0  0  0  0
  186.5960  178.6250  147.7520 O   0  0  0  0  0  0  0  0  0  0  0  0
  188.5750  177.5210  148.1050 O   0  0  0  0  0  1  0  0  0  0  0  0
  1 18  1  0  0  0  0
  2  1  1  6  0  0  0
  2 13  1  0  0  0  0
  3  2  1  1  0  0  0
  4  3  1  0  0  0  0
  6  3  1  0  0  0  0
  7 11  1  0  0  0  0
  7  8  1  0  0  0  0
  8  9  2  0  0  0  0
  8 10  1  0  0  0  0
  9  4  1  0  0  0  0
 10  6  1  1  0  0  0
 11  5  1  0  0  0  0
 12 10  1  0  0  0  0
 12  5  1  0  0  0  0
 13 14  1  0  0  0  0
 14 17  1  0  0  0  0
 14 15  1  1  0  0  0
 16 17  2  0  0  0  0
 19 20  1  1  0  0  0
 19 18  1  0  0  0  0
 19 21  1  0  0  0  0
 21 22  2  0  0  0  0
 23 28  1  1  0  0  0
 23 25  1  0  0  0  0
 24 21  1  6  0  0  0
 24 23  1  0  0  0  0
 24 25  1  0  0  0  0
 25 29  1  6  0  0  0
 28 27  1  6  0  0  0
 28 26  1  0  0  0  0
 29 30  1  0  0  0  0
 30 31  2  0  0  0  0
 30 32  1  0  0  0  0
M  END
>  <MODEL>
7

>  <REMARK>
 VINA RESULT:      -6.7      3.448      5.932
  Name = 
  12 active torsions:
  status: ('A' for Active; 'I' for Inactive)
    1  A    between atoms: C_1  and  C_5
    2  A    between atoms: C_1  and  O_30
    3  A    between atoms: C_2  and  C_5
    4  A    between atoms: C_3  and  C_8
    5  A    between atoms: C_3  and  C_20
    6  A    between atoms: C_4  and  C_24
    7  A    between atoms: C_4  and  O_30
    8  A    between atoms: C_5  and  O_14
    9  A    between atoms: C_13  and  O_14
   10  A    between atoms: C_13  and  C_29
   11  A    between atoms: C_15  and  C_26
   12  A    between atoms: C_16  and  C_24
                            x       y       z     vdW  Elec       q    Type
                         _______ _______ _______ _____ _____    ______ ____

>  <TORSDO>
F 12

$$$$
=
 OpenBabel11052414463D

 32 34  0  0  1  0  0  0  0  0999 V2000
  185.9810  179.0040  140.7790 C   0  0  0  0  0  2  0  0  0  0  0  0
  186.3140  178.5640  142.2050 C   0  0  2  0  0  3  0  0  0  0  0  0
  187.4430  177.5310  142.2800 C   0  0  2  0  0  3  0  0  0  0  0  0
  187.2260  176.5260  143.4320 C   0  0  0  0  0  2  0  0  0  0  0  0
  191.5720  178.7670  143.8800 C   0  0  0  0  0  2  0  0  0  0  0  0
  188.8490  178.1650  142.2060 C   0  0  0  0  0  2  0  0  0  0  0  0
  190.3150  177.4030  145.5480 C   0  0  0  0  0  2  0  0  0  0  0  0
  189.4430  177.0770  144.3670 C   0  0  0  0  0  0  0  0  0  0  0  0
  188.1650  176.7510  144.5880 C   0  0  0  0  0  3  0  0  0  0  0  0
  189.8850  177.3080  142.9290 C   0  0  2  0  0  3  0  0  0  0  0  0
  191.6820  177.9480  145.1520 C   0  0  0  0  0  2  0  0  0  0  0  0
  191.2330  177.8710  142.7790 N   0  0  0  0  0  2  0  0  0  0  0  0
  185.1690  178.0920  142.8570 O   0  0  0  0  0  0  0  0  0  0  0  0
  184.6240  179.2090  143.4920 C   0  0  1  0  0  3  0  0  0  0  0  0
  183.1270  179.0080  143.6610 C   0  0  0  0  0  1  0  0  0  0  0  0
  184.9190  178.6320  145.8630 C   0  0  0  0  0  2  0  0  0  0  0  0
  185.2700  179.3900  144.8270 C   0  0  0  0  0  3  0  0  0  0  0  0
  186.9850  178.5970  139.8830 O   0  0  0  0  0  0  0  0  0  0  0  0
  186.3840  178.2360  138.6600 C   0  0  1  0  0  3  0  0  0  0  0  0
  185.1720  178.9110  138.4560 O   0  0  0  0  0  1  0  0  0  0  0  0
  187.3190  178.3580  137.4800 C   0  0  0  0  0  0  0  0  0  0  0  0
  187.8410  179.4320  137.2210 O   0  0  0  0  0  0  0  0  0  0  0  0
  187.5730  175.8760  137.4930 C   0  0  2  0  0  3  0  0  0  0  0  0
  187.6660  177.1430  136.6580 C   0  0  2  0  0  3  0  0  0  0  0  0
  188.9380  176.3840  137.0740 C   0  0  1  0  0  3  0  0  0  0  0  0
  185.8090  174.4620  136.7480 O   0  0  0  0  0  1  0  0  0  0  0  0
  187.9520  173.4750  137.0030 C   0  0  0  0  0  1  0  0  0  0  0  0
  187.1730  174.7120  136.6060 C   0  0  2  0  0  3  0  0  0  0  0  0
  189.6610  176.9230  138.3010 C   0  0  0  0  0  2  0  0  0  0  0  0
  190.8930  176.1250  138.5470 C   0  0  0  0  0  0  0  0  0  0  0  0
  192.0360  176.7460  139.0350 O   0  0  0  0  0  1  0  0  0  0  0  0
  190.8920  174.8840  138.3420 O   0  0  0  0  0  0  0  0  0  0  0  0
  2  1  1  6  0  0  0
  2 13  1  0  0  0  0
  3  2  1  1  0  0  0
  3  4  1  0  0  0  0
  4  9  1  0  0  0  0
  5 11  1  0  0  0  0
  6  3  1  0  0  0  0
  8  9  2  0  0  0  0
  8  7  1  0  0  0  0
 10  6  1  1  0  0  0
 10  8  1  0  0  0  0
 11  7  1  0  0  0  0
 12 10  1  0  0  0  0
 12  5  1  0  0  0  0
 13 14  1  0  0  0  0
 14 15  1  1  0  0  0
 14 17  1  0  0  0  0
 17 16  2  0  0  0  0
 18  1  1  0  0  0  0
 19 20  1  6  0  0  0
 19 18  1  0  0  0  0
 21 19  1  0  0  0  0
 22 21  2  0  0  0  0
 23 28  1  6  0  0  0
 24 25  1  0  0  0  0
 24 21  1  1  0  0  0
 24 23  1  0  0  0  0
 25 23  1  0  0  0  0
 25 29  1  1  0  0  0
 28 26  1  0  0  0  0
 28 27  1  1  0  0  0
 29 30  1  0  0  0  0
 30 31  1  0  0  0  0
 32 30  2  0  0  0  0
M  END
>  <MODEL>
8

>  <REMARK>
 VINA RESULT:      -6.7      2.494      5.257
  Name = 
  12 active torsions:
  status: ('A' for Active; 'I' for Inactive)
    1  A    between atoms: C_1  and  C_5
    2  A    between atoms: C_1  and  O_30
    3  A    between atoms: C_2  and  C_5
    4  A    between atoms: C_3  and  C_8
    5  A    between atoms: C_3  and  C_20
    6  A    between atoms: C_4  and  C_24
    7  A    between atoms: C_4  and  O_30
    8  A    between atoms: C_5  and  O_14
    9  A    between atoms: C_13  and  O_14
   10  A    between atoms: C_13  and  C_29
   11  A    between atoms: C_15  and  C_26
   12  A    between atoms: C_16  and  C_24
                            x       y       z     vdW  Elec       q    Type
                         _______ _______ _______ _____ _____    ______ ____

>  <TORSDO>
F 12

$$$$
=
 OpenBabel11052414463D

 32 34  0  0  1  0  0  0  0  0999 V2000
  188.7680  177.4550  141.0820 C   0  0  0  0  0  2  0  0  0  0  0  0
  188.7020  177.9720  142.5190 C   0  0  2  0  0  3  0  0  0  0  0  0
  190.0790  178.1790  143.1590 C   0  0  2  0  0  3  0  0  0  0  0  0
  191.1580  177.2940  142.4960 C   0  0  0  0  0  2  0  0  0  0  0  0
  190.9470  176.4450  147.3270 C   0  0  0  0  0  2  0  0  0  0  0  0
  190.0420  178.1380  144.7010 C   0  0  0  0  0  2  0  0  0  0  0  0
  192.0630  175.1170  145.5330 C   0  0  0  0  0  2  0  0  0  0  0  0
  191.7420  176.3170  144.6860 C   0  0  0  0  0  0  0  0  0  0  0  0
  191.5880  176.1440  143.3680 C   0  0  0  0  0  3  0  0  0  0  0  0
  191.3750  177.6690  145.2790 C   0  0  2  0  0  3  0  0  0  0  0  0
  192.0140  175.4090  147.0280 C   0  0  0  0  0  2  0  0  0  0  0  0
  191.3610  177.7190  146.7460 N   0  0  0  0  0  2  0  0  0  0  0  0
  187.9100  177.1330  143.3110 O   0  0  0  0  0  0  0  0  0  0  0  0
  186.9130  177.9590  143.8330 C   0  0  1  0  0  3  0  0  0  0  0  0
  185.7330  177.9860  142.8760 C   0  0  0  0  0  1  0  0  0  0  0  0
  186.0650  178.2650  146.1190 C   0  0  0  0  0  2  0  0  0  0  0  0
  186.4800  177.4370  145.1650 C   0  0  0  0  0  3  0  0  0  0  0  0
  188.7040  178.5180  140.1640 O   0  0  0  0  0  0  0  0  0  0  0  0
  187.9450  178.1100  139.0480 C   0  0  1  0  0  3  0  0  0  0  0  0
  186.6150  178.5450  139.1360 O   0  0  0  0  0  1  0  0  0  0  0  0
  188.5860  178.4730  137.7290 C   0  0  0  0  0  0  0  0  0  0  0  0
  188.9880  179.6110  137.5360 O   0  0  0  0  0  0  0  0  0  0  0  0
  188.7720  176.0270  137.2780 C   0  0  2  0  0  3  0  0  0  0  0  0
  188.7930  177.4200  136.6710 C   0  0  2  0  0  3  0  0  0  0  0  0
  190.0850  176.5930  136.7800 C   0  0  1  0  0  3  0  0  0  0  0  0
  187.7240  173.9190  136.9200 O   0  0  0  0  0  1  0  0  0  0  0  0
  189.3420  174.6080  135.3260 C   0  0  0  0  0  1  0  0  0  0  0  0
  188.2300  175.0380  136.2610 C   0  0  2  0  0  3  0  0  0  0  0  0
  190.9720  176.9060  137.9780 C   0  0  0  0  0  2  0  0  0  0  0  0
  192.2360  176.1250  137.8820 C   0  0  0  0  0  0  0  0  0  0  0  0
  193.4590  176.7840  137.8510 O   0  0  0  0  0  0  0  0  0  0  0  0
  192.2000  174.8670  137.8600 O   0  0  0  0  0  1  0  0  0  0  0  0
  2  1  1  6  0  0  0
  2 13  1  0  0  0  0
  3  2  1  6  0  0  0
  3  6  1  0  0  0  0
  4  3  1  0  0  0  0
  4  9  1  0  0  0  0
  7 11  1  0  0  0  0
  8 10  1  0  0  0  0
  8  7  1  0  0  0  0
  9  8  2  0  0  0  0
 10  6  1  6  0  0  0
 10 12  1  0  0  0  0
 11  5  1  0  0  0  0
 12  5  1  0  0  0  0
 13 14  1  0  0  0  0
 14 15  1  6  0  0  0
 14 17  1  0  0  0  0
 17 16  2  0  0  0  0
 18  1  1  0  0  0  0
 19 20  1  1  0  0  0
 19 18  1  0  0  0  0
 21 19  1  0  0  0  0
 22 21  2  0  0  0  0
 23 28  1  6  0  0  0
 24 25  1  0  0  0  0
 24 23  1  0  0  0  0
 24 21  1  1  0  0  0
 25 23  1  0  0  0  0
 25 29  1  1  0  0  0
 28 27  1  6  0  0  0
 28 26  1  0  0  0  0
 30 29  1  0  0  0  0
 31 30  2  0  0  0  0
 32 30  1  0  0  0  0
M  END
>  <MODEL>
9

>  <REMARK>
 VINA RESULT:      -6.7      2.788      5.830
  Name = 
  12 active torsions:
  status: ('A' for Active; 'I' for Inactive)
    1  A    between atoms: C_1  and  C_5
    2  A    between atoms: C_1  and  O_30
    3  A    between atoms: C_2  and  C_5
    4  A    between atoms: C_3  and  C_8
    5  A    between atoms: C_3  and  C_20
    6  A    between atoms: C_4  and  C_24
    7  A    between atoms: C_4  and  O_30
    8  A    between atoms: C_5  and  O_14
    9  A    between atoms: C_13  and  O_14
   10  A    between atoms: C_13  and  C_29
   11  A    between atoms: C_15  and  C_26
   12  A    between atoms: C_16  and  C_24
                            x       y       z     vdW  Elec       q    Type
                         _______ _______ _______ _____ _____    ______ ____

>  <TORSDO>
F 12

$$$$
