=
 OpenBabel11052413573D

 34 38  0  0  1  0  0  0  0  0999 V2000
  184.0840  177.5670  138.8070 C   0  0  2  0  0  3  0  0  0  0  0  0
  182.4120  175.7790  139.4290 C   0  0  1  0  0  3  0  0  0  0  0  0
  182.5150  178.0220  140.6500 C   0  0  0  0  0  0  0  0  0  0  0  0
  181.1290  179.3040  143.1120 C   0  0  0  0  0  3  0  0  0  0  0  0
  182.8100  175.1060  138.2720 O   0  0  0  0  0  1  0  0  0  0  0  0
  180.4170  176.6650  140.6430 C   0  0  0  0  0  2  0  0  0  0  0  0
  183.0710  177.1330  139.5870 C   0  0  2  0  0  3  0  0  0  0  0  0
  180.5690  178.8260  141.9930 C   0  0  0  0  0  0  0  0  0  0  0  0
  183.3800  179.0980  141.2740 C   0  0  1  0  0  3  0  0  0  0  0  0
  184.4780  179.3300  138.7670 S   0  0  0  0  0  0  0  0  0  0  0  0
  180.9110  176.0010  139.3630 C   0  0  0  0  0  2  0  0  0  0  0  0
  182.5040  179.0290  143.5700 C   0  0  0  0  0  3  0  0  0  0  0  0
  183.5530  178.8560  142.7590 C   0  0  0  0  0  0  0  0  0  0  0  0
  181.2330  177.8670  141.0630 C   0  0  0  0  0  0  0  0  0  0  0  0
  184.7080  179.3730  140.5590 C   0  0  0  0  0  2  0  0  0  0  0  0
  187.0300  177.3740  143.0870 C   0  0  0  0  0  0  0  0  0  0  0  0
  187.2060  177.3860  144.4730 C   0  0  0  0  0  3  0  0  0  0  0  0
  184.8250  178.3690  143.3500 C   0  0  0  0  0  0  0  0  0  0  0  0
  186.1960  177.8810  145.3010 C   0  0  0  0  0  3  0  0  0  0  0  0
  185.8440  177.8590  142.5300 C   0  0  0  0  0  3  0  0  0  0  0  0
  185.0090  178.3660  144.7430 C   0  0  0  0  0  3  0  0  0  0  0  0
  188.0070  176.8890  142.2840 F   0  0  0  0  0  0  0  0  0  0  0  0
  185.4560  177.0660  136.8120 C   0  0  0  0  0  1  0  0  0  0  0  0
  184.8110  176.6730  138.0140 O   0  0  0  0  0  0  0  0  0  0  0  0
  179.1520  179.2050  141.7280 C   0  0  0  0  0  2  0  0  0  0  0  0
  179.0630  180.9530  141.2470 S   0  0  0  0  0  0  0  0  0  0  0  0
  179.8000  180.6060  139.6260 C   0  0  0  0  0  2  0  0  0  0  0  0
  180.6790  180.4920  137.0120 O   0  0  0  0  0  1  0  0  0  0  0  0
  180.1900  181.9070  138.9360 C   0  0  1  0  0  3  0  0  0  0  0  0
  181.0030  181.7050  137.6280 C   0  0  2  0  0  3  0  0  0  0  0  0
  180.6880  184.0790  137.3450 C   0  0  0  0  0  2  0  0  0  0  0  0
  179.3720  184.1410  138.1300 C   0  0  0  0  0  2  0  0  0  0  0  0
  178.9620  182.7730  138.6860 C   0  0  0  0  0  2  0  0  0  0  0  0
  180.8110  182.7940  136.6590 N   0  0  0  0  0  2  0  0  0  0  0  0
  1 24  1  6  0  0  0
  1  7  1  0  0  0  0
  2  5  1  6  0  0  0
  2  7  1  0  0  0  0
  3 14  2  0  0  0  0
  3  9  1  0  0  0  0
  4 12  1  0  0  0  0
  6 14  1  0  0  0  0
  7  3  1  6  0  0  0
  8  4  2  0  0  0  0
  9 15  1  6  0  0  0
  9 13  1  0  0  0  0
 10  1  1  0  0  0  0
 10 15  1  0  0  0  0
 11  2  1  0  0  0  0
 11  6  1  0  0  0  0
 13 18  1  0  0  0  0
 13 12  2  0  0  0  0
 14  8  1  0  0  0  0
 16 17  1  0  0  0  0
 17 19  2  0  0  0  0
 18 21  2  0  0  0  0
 20 16  2  0  0  0  0
 20 18  1  0  0  0  0
 21 19  1  0  0  0  0
 22 16  1  0  0  0  0
 23 24  1  0  0  0  0
 25  8  1  0  0  0  0
 26 25  1  0  0  0  0
 27 26  1  0  0  0  0
 29 27  1  6  0  0  0
 30 28  1  6  0  0  0
 30 29  1  0  0  0  0
 31 32  1  0  0  0  0
 32 33  1  0  0  0  0
 33 29  1  0  0  0  0
 34 31  1  0  0  0  0
 34 30  1  0  0  0  0
M  END
>  <MODEL>
1

>  <REMARK>
 VINA RESULT:      -7.3      0.000      0.000
  Name = 
  6 active torsions:
  status: ('A' for Active; 'I' for Inactive)
    1  A    between atoms: C_1  and  O_19
    2  A    between atoms: C_3  and  C_13
    3  A    between atoms: C_3  and  S_17
    4  A    between atoms: C_12  and  C_28
    5  A    between atoms: S_17  and  C_29
    6  A    between atoms: C_18  and  C_29
                            x       y       z     vdW  Elec       q    Type
                         _______ _______ _______ _____ _____    ______ ____

>  <TORSDO>
F 6

$$$$
=
 OpenBabel11052413573D

 34 38  0  0  1  0  0  0  0  0999 V2000
  181.0840  179.5690  141.2240 C   0  0  2  0  0  3  0  0  0  0  0  0
  183.0540  178.5930  142.4680 C   0  0  1  0  0  3  0  0  0  0  0  0
  182.8500  178.4480  139.9240 C   0  0  0  0  0  0  0  0  0  0  0  0
  184.4250  177.0950  137.6190 C   0  0  0  0  0  3  0  0  0  0  0  0
  182.5710  179.2500  143.6020 O   0  0  0  0  0  1  0  0  0  0  0  0
  185.0820  178.2960  141.0390 C   0  0  0  0  0  2  0  0  0  0  0  0
  182.2560  178.8980  141.2180 C   0  0  2  0  0  3  0  0  0  0  0  0
  184.8600  177.9920  138.5150 C   0  0  0  0  0  0  0  0  0  0  0  0
  181.9600  178.1820  138.7270 C   0  0  1  0  0  3  0  0  0  0  0  0
  180.4600  180.2750  139.6820 S   0  0  0  0  0  0  0  0  0  0  0  0
  184.4840  179.0450  142.2240 C   0  0  0  0  0  2  0  0  0  0  0  0
  183.1880  176.3000  137.7310 C   0  0  0  0  0  3  0  0  0  0  0  0
  182.0560  176.7330  138.2950 C   0  0  0  0  0  0  0  0  0  0  0  0
  184.1900  178.2720  139.8170 C   0  0  0  0  0  0  0  0  0  0  0  0
  180.5120  178.6650  138.8630 C   0  0  0  0  0  2  0  0  0  0  0  0
  179.7040  174.3300  140.0510 C   0  0  0  0  0  0  0  0  0  0  0  0
  178.9540  173.8430  138.9770 C   0  0  0  0  0  3  0  0  0  0  0  0
  180.9690  175.7500  138.5340 C   0  0  0  0  0  0  0  0  0  0  0  0
  179.2110  174.2990  137.6820 C   0  0  0  0  0  3  0  0  0  0  0  0
  180.7080  175.2750  139.8290 C   0  0  0  0  0  3  0  0  0  0  0  0
  180.2160  175.2450  137.4610 C   0  0  0  0  0  3  0  0  0  0  0  0
  179.4580  173.8840  141.3060 F   0  0  0  0  0  0  0  0  0  0  0  0
  179.1010  180.3880  142.4520 C   0  0  0  0  0  1  0  0  0  0  0  0
  180.3660  179.7440  142.4110 O   0  0  0  0  0  0  0  0  0  0  0  0
  186.1560  178.6690  138.2220 C   0  0  0  0  0  2  0  0  0  0  0  0
  187.4790  177.4320  138.0880 S   0  0  0  0  0  0  0  0  0  0  0  0
  188.5240  178.3360  139.2650 C   0  0  0  0  0  2  0  0  0  0  0  0
  191.0870  177.5250  139.8930 O   0  0  0  0  0  1  0  0  0  0  0  0
  188.7320  177.5090  140.5260 C   0  0  1  0  0  3  0  0  0  0  0  0
  190.1150  176.8050  140.5940 C   0  0  2  0  0  3  0  0  0  0  0  0
  189.4650  176.2660  142.8540 C   0  0  0  0  0  2  0  0  0  0  0  0
  188.5530  177.4860  143.0320 C   0  0  0  0  0  2  0  0  0  0  0  0
  188.4900  178.3540  141.7710 C   0  0  0  0  0  2  0  0  0  0  0  0
  190.5840  176.5930  141.9710 N   0  0  0  0  0  2  0  0  0  0  0  0
  1 24  1  1  0  0  0
  2  5  1  1  0  0  0
  4 12  1  0  0  0  0
  4  8  2  0  0  0  0
  6 11  1  0  0  0  0
  7  3  1  6  0  0  0
  7  1  1  0  0  0  0
  7  2  1  0  0  0  0
  8 14  1  0  0  0  0
  9 15  1  1  0  0  0
  9  3  1  0  0  0  0
 10  1  1  0  0  0  0
 11  2  1  0  0  0  0
 12 13  2  0  0  0  0
 13 18  1  0  0  0  0
 13  9  1  0  0  0  0
 14  3  2  0  0  0  0
 14  6  1  0  0  0  0
 15 10  1  0  0  0  0
 16 22  1  0  0  0  0
 17 16  2  0  0  0  0
 18 20  2  0  0  0  0
 19 17  1  0  0  0  0
 20 16  1  0  0  0  0
 21 19  2  0  0  0  0
 21 18  1  0  0  0  0
 24 23  1  0  0  0  0
 25  8  1  0  0  0  0
 26 25  1  0  0  0  0
 26 27  1  0  0  0  0
 29 27  1  6  0  0  0
 29 30  1  0  0  0  0
 29 33  1  0  0  0  0
 30 28  1  6  0  0  0
 30 34  1  0  0  0  0
 31 32  1  0  0  0  0
 33 32  1  0  0  0  0
 34 31  1  0  0  0  0
M  END
>  <MODEL>
2

>  <REMARK>
 VINA RESULT:      -7.1      3.999      8.067
  Name = 
  6 active torsions:
  status: ('A' for Active; 'I' for Inactive)
    1  A    between atoms: C_1  and  O_19
    2  A    between atoms: C_3  and  C_13
    3  A    between atoms: C_3  and  S_17
    4  A    between atoms: C_12  and  C_28
    5  A    between atoms: S_17  and  C_29
    6  A    between atoms: C_18  and  C_29
                            x       y       z     vdW  Elec       q    Type
                         _______ _______ _______ _____ _____    ______ ____

>  <TORSDO>
F 6

$$$$
=
 OpenBabel11052413573D

 34 38  0  0  1  0  0  0  0  0999 V2000
  187.0950  177.9600  137.3940 C   0  0  2  0  0  3  0  0  0  0  0  0
  188.2490  177.4850  139.5910 C   0  0  1  0  0  3  0  0  0  0  0  0
  188.8750  176.2580  137.4370 C   0  0  0  0  0  0  0  0  0  0  0  0
  190.7600  173.9230  136.6510 C   0  0  0  0  0  3  0  0  0  0  0  0
  187.5860  178.6040  140.0990 O   0  0  0  0  0  1  0  0  0  0  0  0
  190.5050  176.4460  139.3220 C   0  0  0  0  0  2  0  0  0  0  0  0
  188.0080  177.2700  138.1110 C   0  0  2  0  0  3  0  0  0  0  0  0
  191.0710  175.0860  137.2380 C   0  0  0  0  0  0  0  0  0  0  0  0
  188.3970  175.5610  136.1790 C   0  0  1  0  0  3  0  0  0  0  0  0
  187.2050  177.9640  135.5910 S   0  0  0  0  0  0  0  0  0  0  0  0
  189.7420  177.6790  139.7920 C   0  0  0  0  0  2  0  0  0  0  0  0
  189.4060  173.3490  136.5450 C   0  0  0  0  0  3  0  0  0  0  0  0
  188.2870  174.0670  136.4000 C   0  0  0  0  0  0  0  0  0  0  0  0
  190.0920  175.9560  137.9520 C   0  0  0  0  0  0  0  0  0  0  0  0
  187.1450  176.1600  135.5300 C   0  0  0  0  0  2  0  0  0  0  0  0
  185.3800  171.7230  135.7290 C   0  0  0  0  0  0  0  0  0  0  0  0
  184.4880  172.0910  136.7400 C   0  0  0  0  0  3  0  0  0  0  0  0
  186.9830  173.3690  136.5310 C   0  0  0  0  0  0  0  0  0  0  0  0
  184.8340  173.1000  137.6430 C   0  0  0  0  0  3  0  0  0  0  0  0
  186.6180  172.3620  135.6230 C   0  0  0  0  0  3  0  0  0  0  0  0
  186.0740  173.7380  137.5370 C   0  0  0  0  0  3  0  0  0  0  0  0
  185.0420  170.7500  134.8500 F   0  0  0  0  0  0  0  0  0  0  0  0
  184.7680  178.1860  138.1960 C   0  0  0  0  0  1  0  0  0  0  0  0
  186.0860  178.6880  138.0330 O   0  0  0  0  0  0  0  0  0  0  0  0
  192.5110  175.4710  137.2600 C   0  0  0  0  0  2  0  0  0  0  0  0
  193.5430  173.9830  137.3980 S   0  0  0  0  0  0  0  0  0  0  0  0
  194.2850  174.2740  135.7670 C   0  0  0  0  0  2  0  0  0  0  0  0
  195.5810  176.7110  135.8070 O   0  0  0  0  0  1  0  0  0  0  0  0
  195.8040  174.2840  135.8760 C   0  0  1  0  0  3  0  0  0  0  0  0
  196.4490  175.6520  135.5240 C   0  0  2  0  0  3  0  0  0  0  0  0
  198.4780  174.6390  136.3440 C   0  0  0  0  0  2  0  0  0  0  0  0
  197.7750  173.6780  137.3100 C   0  0  0  0  0  2  0  0  0  0  0  0
  196.2500  173.8100  137.2530 C   0  0  0  0  0  2  0  0  0  0  0  0
  197.7210  175.8840  136.2240 N   0  0  0  0  0  2  0  0  0  0  0  0
  1 24  1  1  0  0  0
  1  7  1  0  0  0  0
  2 11  1  0  0  0  0
  2  5  1  6  0  0  0
  3 14  2  0  0  0  0
  4  8  2  0  0  0  0
  6 11  1  0  0  0  0
  7  3  1  6  0  0  0
  7  2  1  0  0  0  0
  8 25  1  0  0  0  0
  8 14  1  0  0  0  0
  9 15  1  1  0  0  0
  9 13  1  0  0  0  0
  9  3  1  0  0  0  0
 10  1  1  0  0  0  0
 12  4  1  0  0  0  0
 13 18  1  0  0  0  0
 13 12  2  0  0  0  0
 14  6  1  0  0  0  0
 15 10  1  0  0  0  0
 16 17  1  0  0  0  0
 17 19  2  0  0  0  0
 18 21  2  0  0  0  0
 20 16  2  0  0  0  0
 20 18  1  0  0  0  0
 21 19  1  0  0  0  0
 22 16  1  0  0  0  0
 24 23  1  0  0  0  0
 25 26  1  0  0  0  0
 27 26  1  0  0  0  0
 29 27  1  1  0  0  0
 29 33  1  0  0  0  0
 30 28  1  1  0  0  0
 30 29  1  0  0  0  0
 30 34  1  0  0  0  0
 31 32  1  0  0  0  0
 33 32  1  0  0  0  0
 34 31  1  0  0  0  0
M  END
>  <MODEL>
3

>  <REMARK>
 VINA RESULT:      -7.1      7.525     11.944
  Name = 
  6 active torsions:
  status: ('A' for Active; 'I' for Inactive)
    1  A    between atoms: C_1  and  O_19
    2  A    between atoms: C_3  and  C_13
    3  A    between atoms: C_3  and  S_17
    4  A    between atoms: C_12  and  C_28
    5  A    between atoms: S_17  and  C_29
    6  A    between atoms: C_18  and  C_29
                            x       y       z     vdW  Elec       q    Type
                         _______ _______ _______ _____ _____    ______ ____

>  <TORSDO>
F 6

$$$$
=
 OpenBabel11052413573D

 34 38  0  0  1  0  0  0  0  0999 V2000
  184.9570  176.7420  136.4440 C   0  0  2  0  0  3  0  0  0  0  0  0
  186.7880  178.4560  136.1400 C   0  0  1  0  0  3  0  0  0  0  0  0
  185.9230  177.7920  138.4520 C   0  0  0  0  0  0  0  0  0  0  0  0
  186.3940  178.7180  141.3750 C   0  0  0  0  0  3  0  0  0  0  0  0
  186.8230  178.0740  134.7970 O   0  0  0  0  0  1  0  0  0  0  0  0
  188.2100  178.7600  138.1710 C   0  0  0  0  0  2  0  0  0  0  0  0
  185.8330  177.6250  136.9710 C   0  0  2  0  0  3  0  0  0  0  0  0
  187.2860  178.2460  140.4940 C   0  0  0  0  0  0  0  0  0  0  0  0
  184.7250  177.4870  139.3280 C   0  0  1  0  0  3  0  0  0  0  0  0
  184.2100  175.4920  137.5130 S   0  0  0  0  0  0  0  0  0  0  0  0
  188.1790  178.2820  136.7240 C   0  0  0  0  0  2  0  0  0  0  0  0
  185.0440  179.2140  141.0490 C   0  0  0  0  0  3  0  0  0  0  0  0
  184.2720  178.7260  140.0720 C   0  0  0  0  0  0  0  0  0  0  0  0
  187.0780  178.2220  139.0180 C   0  0  0  0  0  0  0  0  0  0  0  0
  183.5710  176.7560  138.6350 C   0  0  0  0  0  2  0  0  0  0  0  0
  180.6480  179.8450  139.9950 C   0  0  0  0  0  0  0  0  0  0  0  0
  180.6820  180.8270  139.0030 C   0  0  0  0  0  3  0  0  0  0  0  0
  183.0360  179.4680  139.7170 C   0  0  0  0  0  0  0  0  0  0  0  0
  181.8850  181.1290  138.3610 C   0  0  0  0  0  3  0  0  0  0  0  0
  181.8170  179.1660  140.3470 C   0  0  0  0  0  3  0  0  0  0  0  0
  183.0560  180.4510  138.7130 C   0  0  0  0  0  3  0  0  0  0  0  0
  179.4800  179.5470  140.6140 F   0  0  0  0  0  0  0  0  0  0  0  0
  183.3660  177.1600  134.5990 C   0  0  0  0  0  1  0  0  0  0  0  0
  184.6430  176.7710  135.0820 O   0  0  0  0  0  0  0  0  0  0  0  0
  188.6100  177.8190  141.0320 C   0  0  0  0  0  2  0  0  0  0  0  0
  188.3690  176.7790  142.5000 S   0  0  0  0  0  0  0  0  0  0  0  0
  189.3070  177.9310  143.5430 C   0  0  0  0  0  2  0  0  0  0  0  0
  191.9600  178.2150  144.2510 O   0  0  0  0  0  1  0  0  0  0  0  0
  189.8010  177.2220  144.7970 C   0  0  1  0  0  3  0  0  0  0  0  0
  191.3490  177.1400  144.9030 C   0  0  2  0  0  3  0  0  0  0  0  0
  190.9160  176.3140  147.1280 C   0  0  0  0  0  2  0  0  0  0  0  0
  189.5810  177.0500  147.2940 C   0  0  0  0  0  2  0  0  0  0  0  0
  189.2030  177.8560  146.0460 C   0  0  0  0  0  2  0  0  0  0  0  0
  191.8270  177.0950  146.2930 N   0  0  0  0  0  2  0  0  0  0  0  0
  1 24  1  6  0  0  0
  1  7  1  0  0  0  0
  1 10  1  0  0  0  0
  2  5  1  6  0  0  0
  2 11  1  0  0  0  0
  2  7  1  0  0  0  0
  3 14  2  0  0  0  0
  3  9  1  0  0  0  0
  6 14  1  0  0  0  0
  7  3  1  1  0  0  0
  8 25  1  0  0  0  0
  8  4  2  0  0  0  0
  9 15  1  6  0  0  0
  9 13  1  0  0  0  0
 10 15  1  0  0  0  0
 11  6  1  0  0  0  0
 12  4  1  0  0  0  0
 13 12  2  0  0  0  0
 14  8  1  0  0  0  0
 16 20  1  0  0  0  0
 16 22  1  0  0  0  0
 17 16  2  0  0  0  0
 18 13  1  0  0  0  0
 18 20  2  0  0  0  0
 19 21  2  0  0  0  0
 19 17  1  0  0  0  0
 21 18  1  0  0  0  0
 23 24  1  0  0  0  0
 25 26  1  0  0  0  0
 26 27  1  0  0  0  0
 29 27  1  6  0  0  0
 29 30  1  0  0  0  0
 29 33  1  0  0  0  0
 30 28  1  1  0  0  0
 30 34  1  0  0  0  0
 31 32  1  0  0  0  0
 33 32  1  0  0  0  0
 34 31  1  0  0  0  0
M  END
>  <MODEL>
4

>  <REMARK>
 VINA RESULT:      -7.0      4.382      8.711
  Name = 
  6 active torsions:
  status: ('A' for Active; 'I' for Inactive)
    1  A    between atoms: C_1  and  O_19
    2  A    between atoms: C_3  and  C_13
    3  A    between atoms: C_3  and  S_17
    4  A    between atoms: C_12  and  C_28
    5  A    between atoms: S_17  and  C_29
    6  A    between atoms: C_18  and  C_29
                            x       y       z     vdW  Elec       q    Type
                         _______ _______ _______ _____ _____    ______ ____

>  <TORSDO>
F 6

$$$$
=
 OpenBabel11052413573D

 34 38  0  0  1  0  0  0  0  0999 V2000
  187.2060  177.9640  137.3630 C   0  0  2  0  0  3  0  0  0  0  0  0
  188.3120  177.4960  139.5860 C   0  0  1  0  0  3  0  0  0  0  0  0
  188.9640  176.2410  137.4560 C   0  0  0  0  0  0  0  0  0  0  0  0
  190.8350  173.8760  136.7280 C   0  0  0  0  0  3  0  0  0  0  0  0
  187.6530  178.6270  140.0700 O   0  0  0  0  0  1  0  0  0  0  0  0
  190.5590  176.4270  139.3710 C   0  0  0  0  0  2  0  0  0  0  0  0
  188.0970  177.2690  138.1040 C   0  0  2  0  0  3  0  0  0  0  0  0
  191.1490  175.0410  137.3100 C   0  0  0  0  0  0  0  0  0  0  0  0
  188.5020  175.5380  136.1960 C   0  0  1  0  0  3  0  0  0  0  0  0
  187.3510  177.9500  135.5630 S   0  0  0  0  0  0  0  0  0  0  0  0
  189.8030  177.6740  139.8140 C   0  0  0  0  0  2  0  0  0  0  0  0
  189.4760  173.3170  136.6020 C   0  0  0  0  0  3  0  0  0  0  0  0
  188.3690  174.0470  136.4280 C   0  0  0  0  0  0  0  0  0  0  0  0
  190.1670  175.9290  137.9970 C   0  0  0  0  0  0  0  0  0  0  0  0
  187.2700  176.1450  135.5170 C   0  0  0  0  0  2  0  0  0  0  0  0
  185.4040  171.8070  135.6660 C   0  0  0  0  0  0  0  0  0  0  0  0
  184.5400  172.1240  136.7160 C   0  0  0  0  0  3  0  0  0  0  0  0
  187.0540  173.3670  136.5400 C   0  0  0  0  0  0  0  0  0  0  0  0
  184.9230  173.0640  137.6760 C   0  0  0  0  0  3  0  0  0  0  0  0
  186.6520  172.4280  135.5760 C   0  0  0  0  0  3  0  0  0  0  0  0
  186.1720  173.6850  137.5870 C   0  0  0  0  0  3  0  0  0  0  0  0
  185.0300  170.9000  134.7320 F   0  0  0  0  0  0  0  0  0  0  0  0
  184.8720  178.2160  138.1380 C   0  0  0  0  0  1  0  0  0  0  0  0
  186.1930  178.7100  137.9750 O   0  0  0  0  0  0  0  0  0  0  0  0
  192.5930  175.4090  137.3570 C   0  0  0  0  0  2  0  0  0  0  0  0
  193.3980  174.9380  135.7990 S   0  0  0  0  0  0  0  0  0  0  0  0
  194.9640  174.5840  136.6460 C   0  0  0  0  0  2  0  0  0  0  0  0
  195.4090  173.3900  139.0940 O   0  0  0  0  0  1  0  0  0  0  0  0
  195.2130  173.0820  136.6830 C   0  0  1  0  0  3  0  0  0  0  0  0
  195.8070  172.5780  138.0270 C   0  0  2  0  0  3  0  0  0  0  0  0
  195.4090  170.3840  137.1080 C   0  0  0  0  0  2  0  0  0  0  0  0
  194.2370  170.8150  136.2190 C   0  0  0  0  0  2  0  0  0  0  0  0
  193.9460  172.3150  136.3260 C   0  0  0  0  0  2  0  0  0  0  0  0
  195.4420  171.1860  138.3300 N   0  0  0  0  0  2  0  0  0  0  0  0
  1 24  1  1  0  0  0
  1  7  1  0  0  0  0
  2 11  1  0  0  0  0
  2  5  1  6  0  0  0
  3 14  2  0  0  0  0
  4  8  2  0  0  0  0
  6 11  1  0  0  0  0
  7  3  1  6  0  0  0
  7  2  1  0  0  0  0
  8 25  1  0  0  0  0
  8 14  1  0  0  0  0
  9 15  1  1  0  0  0
  9 13  1  0  0  0  0
  9  3  1  0  0  0  0
 10  1  1  0  0  0  0
 12  4  1  0  0  0  0
 13 18  1  0  0  0  0
 13 12  2  0  0  0  0
 14  6  1  0  0  0  0
 15 10  1  0  0  0  0
 16 17  1  0  0  0  0
 17 19  2  0  0  0  0
 18 21  2  0  0  0  0
 20 16  2  0  0  0  0
 20 18  1  0  0  0  0
 21 19  1  0  0  0  0
 22 16  1  0  0  0  0
 24 23  1  0  0  0  0
 26 27  1  0  0  0  0
 26 25  1  0  0  0  0
 29 27  1  1  0  0  0
 29 30  1  0  0  0  0
 30 34  1  0  0  0  0
 30 28  1  1  0  0  0
 31 34  1  0  0  0  0
 32 33  1  0  0  0  0
 32 31  1  0  0  0  0
 33 29  1  0  0  0  0
M  END
>  <MODEL>
5

>  <REMARK>
 VINA RESULT:      -7.0      7.373     11.950
  Name = 
  6 active torsions:
  status: ('A' for Active; 'I' for Inactive)
    1  A    between atoms: C_1  and  O_19
    2  A    between atoms: C_3  and  C_13
    3  A    between atoms: C_3  and  S_17
    4  A    between atoms: C_12  and  C_28
    5  A    between atoms: S_17  and  C_29
    6  A    between atoms: C_18  and  C_29
                            x       y       z     vdW  Elec       q    Type
                         _______ _______ _______ _____ _____    ______ ____

>  <TORSDO>
F 6

$$$$
=
 OpenBabel11052413573D

 34 38  0  0  1  0  0  0  0  0999 V2000
  183.7430  177.2160  138.3050 C   0  0  2  0  0  3  0  0  0  0  0  0
  185.6390  178.8140  138.7870 C   0  0  1  0  0  3  0  0  0  0  0  0
  184.0060  178.0610  140.6030 C   0  0  0  0  0  0  0  0  0  0  0  0
  183.4840  178.7560  143.5810 C   0  0  0  0  0  3  0  0  0  0  0  0
  186.1160  178.5200  137.5080 O   0  0  0  0  0  1  0  0  0  0  0  0
  186.2900  178.8840  141.1980 C   0  0  0  0  0  2  0  0  0  0  0  0
  184.4220  177.9990  139.1710 C   0  0  2  0  0  3  0  0  0  0  0  0
  184.6040  178.2830  143.0180 C   0  0  0  0  0  0  0  0  0  0  0  0
  182.5680  177.7820  140.9930 C   0  0  1  0  0  3  0  0  0  0  0  0
  182.6220  175.9530  138.9460 S   0  0  0  0  0  0  0  0  0  0  0  0
  186.7370  178.5050  139.7910 C   0  0  0  0  0  2  0  0  0  0  0  0
  182.3510  179.3660  142.8610 C   0  0  0  0  0  3  0  0  0  0  0  0
  181.9410  178.9990  141.6420 C   0  0  0  0  0  0  0  0  0  0  0  0
  184.9140  178.3710  141.5620 C   0  0  0  0  0  0  0  0  0  0  0  0
  181.6910  177.1810  139.8890 C   0  0  0  0  0  2  0  0  0  0  0  0
  180.1310  180.9610  138.9470 C   0  0  0  0  0  0  0  0  0  0  0  0
  179.0640  181.5030  139.6680 C   0  0  0  0  0  3  0  0  0  0  0  0
  180.9340  179.8470  140.9550 C   0  0  0  0  0  0  0  0  0  0  0  0
  178.9300  181.2260  141.0310 C   0  0  0  0  0  3  0  0  0  0  0  0
  181.0630  180.1420  139.5890 C   0  0  0  0  0  3  0  0  0  0  0  0
  179.8630  180.4050  141.6730 C   0  0  0  0  0  3  0  0  0  0  0  0
  180.2640  181.2340  137.6270 F   0  0  0  0  0  0  0  0  0  0  0  0
  183.2600  176.5240  135.9810 C   0  0  0  0  0  1  0  0  0  0  0  0
  183.9180  177.3570  136.9240 O   0  0  0  0  0  0  0  0  0  0  0  0
  185.6430  177.7300  143.9330 C   0  0  0  0  0  2  0  0  0  0  0  0
  185.6710  178.6840  145.4780 S   0  0  0  0  0  0  0  0  0  0  0  0
  186.8620  177.5400  146.2320 C   0  0  0  0  0  2  0  0  0  0  0  0
  189.0630  176.7830  147.7150 O   0  0  0  0  0  1  0  0  0  0  0  0
  188.2450  177.7490  145.6310 C   0  0  1  0  0  3  0  0  0  0  0  0
  189.4000  177.6410  146.6630 C   0  0  2  0  0  3  0  0  0  0  0  0
  190.8280  177.7340  144.7220 C   0  0  0  0  0  2  0  0  0  0  0  0
  189.8020  177.1180  143.7630 C   0  0  0  0  0  2  0  0  0  0  0  0
  188.4730  176.8040  144.4580 C   0  0  0  0  0  2  0  0  0  0  0  0
  190.6630  177.1830  146.0660 N   0  0  0  0  0  2  0  0  0  0  0  0
  1 24  1  1  0  0  0
  1 10  1  0  0  0  0
  1  7  1  0  0  0  0
  2  5  1  6  0  0  0
  2  7  1  0  0  0  0
  2 11  1  0  0  0  0
  3  9  1  0  0  0  0
  3 14  2  0  0  0  0
  6 14  1  0  0  0  0
  7  3  1  1  0  0  0
  8  4  2  0  0  0  0
  8 25  1  0  0  0  0
  9 15  1  6  0  0  0
  9 13  1  0  0  0  0
 10 15  1  0  0  0  0
 11  6  1  0  0  0  0
 12  4  1  0  0  0  0
 13 12  2  0  0  0  0
 14  8  1  0  0  0  0
 16 20  2  0  0  0  0
 16 17  1  0  0  0  0
 17 19  2  0  0  0  0
 18 13  1  0  0  0  0
 18 21  2  0  0  0  0
 19 21  1  0  0  0  0
 20 18  1  0  0  0  0
 22 16  1  0  0  0  0
 23 24  1  0  0  0  0
 25 26  1  0  0  0  0
 26 27  1  0  0  0  0
 29 27  1  1  0  0  0
 29 30  1  0  0  0  0
 30 28  1  1  0  0  0
 31 34  1  0  0  0  0
 32 33  1  0  0  0  0
 32 31  1  0  0  0  0
 33 29  1  0  0  0  0
 34 30  1  0  0  0  0
M  END
>  <MODEL>
6

>  <REMARK>
 VINA RESULT:      -6.7      4.119      7.960
  Name = 
  6 active torsions:
  status: ('A' for Active; 'I' for Inactive)
    1  A    between atoms: C_1  and  O_19
    2  A    between atoms: C_3  and  C_13
    3  A    between atoms: C_3  and  S_17
    4  A    between atoms: C_12  and  C_28
    5  A    between atoms: S_17  and  C_29
    6  A    between atoms: C_18  and  C_29
                            x       y       z     vdW  Elec       q    Type
                         _______ _______ _______ _____ _____    ______ ____

>  <TORSDO>
F 6

$$$$
=
 OpenBabel11052413573D

 34 38  0  0  1  0  0  0  0  0999 V2000
  188.0270  176.1730  136.0480 C   0  0  2  0  0  3  0  0  0  0  0  0
  186.2170  174.5900  136.8240 C   0  0  1  0  0  3  0  0  0  0  0  0
  186.2900  177.0360  137.5660 C   0  0  0  0  0  0  0  0  0  0  0  0
  184.7050  178.8310  139.5380 C   0  0  0  0  0  3  0  0  0  0  0  0
  186.7070  173.6830  135.8820 O   0  0  0  0  0  1  0  0  0  0  0  0
  184.1440  175.7540  137.5930 C   0  0  0  0  0  2  0  0  0  0  0  0
  186.9160  175.9330  136.7780 C   0  0  2  0  0  3  0  0  0  0  0  0
  184.2480  178.1440  138.4830 C   0  0  0  0  0  0  0  0  0  0  0  0
  187.1300  178.1980  138.0530 C   0  0  1  0  0  3  0  0  0  0  0  0
  188.5030  177.8800  135.6960 S   0  0  0  0  0  0  0  0  0  0  0  0
  184.7440  174.8280  136.5410 C   0  0  0  0  0  2  0  0  0  0  0  0
  186.0080  178.6270  140.1980 C   0  0  0  0  0  3  0  0  0  0  0  0
  187.1300  178.2660  139.5670 C   0  0  0  0  0  0  0  0  0  0  0  0
  184.9650  176.9980  137.8520 C   0  0  0  0  0  0  0  0  0  0  0  0
  188.5390  178.2890  137.4560 C   0  0  0  0  0  2  0  0  0  0  0  0
  189.5030  177.9190  142.5060 C   0  0  0  0  0  0  0  0  0  0  0  0
  190.5610  177.2140  141.9260 C   0  0  0  0  0  3  0  0  0  0  0  0
  188.3060  177.8830  140.3880 C   0  0  0  0  0  0  0  0  0  0  0  0
  190.5010  176.8480  140.5790 C   0  0  0  0  0  3  0  0  0  0  0  0
  188.3850  178.2550  141.7390 C   0  0  0  0  0  3  0  0  0  0  0  0
  189.3810  177.1840  139.8120 C   0  0  0  0  0  3  0  0  0  0  0  0
  189.5640  178.2790  143.8100 F   0  0  0  0  0  0  0  0  0  0  0  0
  189.9910  174.6770  136.1660 C   0  0  0  0  0  1  0  0  0  0  0  0
  188.7940  175.1180  135.5440 O   0  0  0  0  0  0  0  0  0  0  0  0
  182.8870  178.4910  137.9850 C   0  0  0  0  0  2  0  0  0  0  0  0
  182.1930  179.8400  138.9840 S   0  0  0  0  0  0  0  0  0  0  0  0
  180.8750  178.7680  139.6240 C   0  0  0  0  0  2  0  0  0  0  0  0
  179.2060  177.0620  141.0100 O   0  0  0  0  0  1  0  0  0  0  0  0
  180.7020  178.9840  141.1210 C   0  0  1  0  0  3  0  0  0  0  0  0
  179.4890  178.2280  141.7280 C   0  0  2  0  0  3  0  0  0  0  0  0
  180.4070  178.9360  143.8430 C   0  0  0  0  0  2  0  0  0  0  0  0
  181.8580  179.0010  143.3510 C   0  0  0  0  0  2  0  0  0  0  0  0
  181.9860  178.6420  141.8670 C   0  0  0  0  0  2  0  0  0  0  0  0
  179.6800  177.8780  143.1430 N   0  0  0  0  0  2  0  0  0  0  0  0
  1 24  1  6  0  0  0
  1  7  1  0  0  0  0
  2  5  1  6  0  0  0
  3 14  2  0  0  0  0
  3  9  1  0  0  0  0
  4 12  1  0  0  0  0
  6 14  1  0  0  0  0
  7  2  1  0  0  0  0
  7  3  1  6  0  0  0
  8  4  2  0  0  0  0
  9 15  1  1  0  0  0
  9 13  1  0  0  0  0
 10  1  1  0  0  0  0
 10 15  1  0  0  0  0
 11  2  1  0  0  0  0
 11  6  1  0  0  0  0
 13 12  2  0  0  0  0
 13 18  1  0  0  0  0
 14  8  1  0  0  0  0
 16 22  1  0  0  0  0
 17 16  1  0  0  0  0
 18 20  1  0  0  0  0
 19 17  2  0  0  0  0
 20 16  2  0  0  0  0
 21 18  2  0  0  0  0
 21 19  1  0  0  0  0
 24 23  1  0  0  0  0
 25  8  1  0  0  0  0
 25 26  1  0  0  0  0
 26 27  1  0  0  0  0
 29 27  1  6  0  0  0
 29 30  1  0  0  0  0
 29 33  1  0  0  0  0
 30 28  1  6  0  0  0
 30 34  1  0  0  0  0
 32 31  1  0  0  0  0
 33 32  1  0  0  0  0
 34 31  1  0  0  0  0
M  END
>  <MODEL>
7

>  <REMARK>
 VINA RESULT:      -6.5      3.334      5.213
  Name = 
  6 active torsions:
  status: ('A' for Active; 'I' for Inactive)
    1  A    between atoms: C_1  and  O_19
    2  A    between atoms: C_3  and  C_13
    3  A    between atoms: C_3  and  S_17
    4  A    between atoms: C_12  and  C_28
    5  A    between atoms: S_17  and  C_29
    6  A    between atoms: C_18  and  C_29
                            x       y       z     vdW  Elec       q    Type
                         _______ _______ _______ _____ _____    ______ ____

>  <TORSDO>
F 6

$$$$
=
 OpenBabel11052413573D

 34 38  0  0  1  0  0  0  0  0999 V2000
  181.8970  178.0500  136.4030 C   0  0  2  0  0  3  0  0  0  0  0  0
  182.7230  178.4170  138.7620 C   0  0  1  0  0  3  0  0  0  0  0  0
  184.1470  177.2420  136.9940 C   0  0  0  0  0  0  0  0  0  0  0  0
  186.8840  175.7820  136.9230 C   0  0  0  0  0  3  0  0  0  0  0  0
  181.6060  179.2340  138.9500 O   0  0  0  0  0  1  0  0  0  0  0  0
  185.2120  178.3540  138.9630 C   0  0  0  0  0  2  0  0  0  0  0  0
  182.8550  177.9040  137.3440 C   0  0  2  0  0  3  0  0  0  0  0  0
  186.6200  177.0450  137.2830 C   0  0  0  0  0  0  0  0  0  0  0  0
  184.2060  176.2330  135.8660 C   0  0  1  0  0  3  0  0  0  0  0  0
  182.3240  177.8300  134.6620 S   0  0  0  0  0  0  0  0  0  0  0  0
  183.9680  179.2270  139.0780 C   0  0  0  0  0  2  0  0  0  0  0  0
  185.8900  174.7000  136.7940 C   0  0  0  0  0  3  0  0  0  0  0  0
  184.6300  174.8730  136.3810 C   0  0  0  0  0  0  0  0  0  0  0  0
  185.2730  177.5400  137.6890 C   0  0  0  0  0  0  0  0  0  0  0  0
  182.9620  176.1680  134.9740 C   0  0  0  0  0  2  0  0  0  0  0  0
  181.6010  172.8090  137.3630 C   0  0  0  0  0  0  0  0  0  0  0  0
  181.9270  171.5640  136.8190 C   0  0  0  0  0  3  0  0  0  0  0  0
  183.6860  173.7350  136.5140 C   0  0  0  0  0  0  0  0  0  0  0  0
  183.1300  171.3970  136.1290 C   0  0  0  0  0  3  0  0  0  0  0  0
  182.4780  173.8870  137.2140 C   0  0  0  0  0  3  0  0  0  0  0  0
  184.0070  172.4750  135.9800 C   0  0  0  0  0  3  0  0  0  0  0  0
  180.4380  172.9710  138.0370 F   0  0  0  0  0  0  0  0  0  0  0  0
  179.8770  179.4500  136.1370 C   0  0  0  0  0  1  0  0  0  0  0  0
  180.5890  178.3930  136.7620 O   0  0  0  0  0  0  0  0  0  0  0  0
  187.7780  177.9790  137.3800 C   0  0  0  0  0  2  0  0  0  0  0  0
  189.2570  177.0700  137.9140 S   0  0  0  0  0  0  0  0  0  0  0  0
  189.4970  178.1760  139.3330 C   0  0  0  0  0  2  0  0  0  0  0  0
  191.2130  177.5060  141.3880 O   0  0  0  0  0  1  0  0  0  0  0  0
  188.9090  177.5520  140.5910 C   0  0  1  0  0  3  0  0  0  0  0  0
  189.9660  176.8860  141.5140 C   0  0  2  0  0  3  0  0  0  0  0  0
  188.1350  176.6850  143.0700 C   0  0  0  0  0  2  0  0  0  0  0  0
  187.3690  177.9050  142.5440 C   0  0  0  0  0  2  0  0  0  0  0  0
  188.0800  178.5720  141.3610 C   0  0  0  0  0  2  0  0  0  0  0  0
  189.5750  176.8910  142.9310 N   0  0  0  0  0  2  0  0  0  0  0  0
  1 24  1  6  0  0  0
  1  7  1  0  0  0  0
  2  5  1  6  0  0  0
  2 11  1  0  0  0  0
  3 14  2  0  0  0  0
  4  8  2  0  0  0  0
  6 11  1  0  0  0  0
  7  3  1  6  0  0  0
  7  2  1  0  0  0  0
  8 25  1  0  0  0  0
  8 14  1  0  0  0  0
  9 15  1  1  0  0  0
  9 13  1  0  0  0  0
  9  3  1  0  0  0  0
 10 15  1  0  0  0  0
 10  1  1  0  0  0  0
 12  4  1  0  0  0  0
 13 18  1  0  0  0  0
 13 12  2  0  0  0  0
 14  6  1  0  0  0  0
 16 22  1  0  0  0  0
 17 16  2  0  0  0  0
 18 20  2  0  0  0  0
 19 17  1  0  0  0  0
 20 16  1  0  0  0  0
 21 19  2  0  0  0  0
 21 18  1  0  0  0  0
 23 24  1  0  0  0  0
 25 26  1  0  0  0  0
 26 27  1  0  0  0  0
 29 27  1  6  0  0  0
 29 33  1  0  0  0  0
 29 30  1  0  0  0  0
 30 28  1  1  0  0  0
 30 34  1  0  0  0  0
 32 31  1  0  0  0  0
 33 32  1  0  0  0  0
 34 31  1  0  0  0  0
M  END
>  <MODEL>
8

>  <REMARK>
 VINA RESULT:      -6.5      4.394      8.494
  Name = 
  6 active torsions:
  status: ('A' for Active; 'I' for Inactive)
    1  A    between atoms: C_1  and  O_19
    2  A    between atoms: C_3  and  C_13
    3  A    between atoms: C_3  and  S_17
    4  A    between atoms: C_12  and  C_28
    5  A    between atoms: S_17  and  C_29
    6  A    between atoms: C_18  and  C_29
                            x       y       z     vdW  Elec       q    Type
                         _______ _______ _______ _____ _____    ______ ____

>  <TORSDO>
F 6

$$$$
=
 OpenBabel11052413573D

 34 38  0  0  1  0  0  0  0  0999 V2000
  190.4510  177.7570  143.2280 C   0  0  2  0  0  3  0  0  0  0  0  0
  188.6200  176.0160  143.2310 C   0  0  1  0  0  3  0  0  0  0  0  0
  188.8490  177.7470  145.0980 C   0  0  0  0  0  0  0  0  0  0  0  0
  187.4690  178.3080  147.8200 C   0  0  0  0  0  3  0  0  0  0  0  0
  189.0100  175.7080  141.9260 O   0  0  0  0  0  1  0  0  0  0  0  0
  186.6530  176.6480  144.6350 C   0  0  0  0  0  2  0  0  0  0  0  0
  189.3760  177.1900  143.8170 C   0  0  2  0  0  3  0  0  0  0  0  0
  186.9190  178.2550  146.5990 C   0  0  0  0  0  0  0  0  0  0  0  0
  189.7700  178.4940  146.0420 C   0  0  1  0  0  3  0  0  0  0  0  0
  190.9820  179.4020  143.7520 S   0  0  0  0  0  0  0  0  0  0  0  0
  187.1450  176.3780  143.2170 C   0  0  0  0  0  2  0  0  0  0  0  0
  188.7990  177.7850  148.1860 C   0  0  0  0  0  3  0  0  0  0  0  0
  189.8630  177.7840  147.3770 C   0  0  0  0  0  0  0  0  0  0  0  0
  187.5430  177.5820  145.4240 C   0  0  0  0  0  0  0  0  0  0  0  0
  191.1430  178.8620  145.4680 C   0  0  0  0  0  2  0  0  0  0  0  0
  193.0230  176.8010  149.2320 C   0  0  0  0  0  0  0  0  0  0  0  0
  193.3830  175.6280  148.5640 C   0  0  0  0  0  3  0  0  0  0  0  0
  191.0680  177.0270  147.8010 C   0  0  0  0  0  0  0  0  0  0  0  0
  192.5950  175.1540  147.5120 C   0  0  0  0  0  3  0  0  0  0  0  0
  191.8740  177.4980  148.8500 C   0  0  0  0  0  3  0  0  0  0  0  0
  191.4450  175.8520  147.1300 C   0  0  0  0  0  3  0  0  0  0  0  0
  193.7900  177.2640  150.2480 F   0  0  0  0  0  0  0  0  0  0  0  0
  191.8560  177.7890  141.1940 C   0  0  0  0  0  1  0  0  0  0  0  0
  191.1370  177.0960  142.2030 O   0  0  0  0  0  0  0  0  0  0  0  0
  185.5470  178.8190  146.4490 C   0  0  0  0  0  2  0  0  0  0  0  0
  185.3920  179.6340  144.8330 S   0  0  0  0  0  0  0  0  0  0  0  0
  183.7160  178.9790  144.5970 C   0  0  0  0  0  2  0  0  0  0  0  0
  181.5110  179.7560  143.1310 O   0  0  0  0  0  1  0  0  0  0  0  0
  183.5580  178.4340  143.1840 C   0  0  1  0  0  3  0  0  0  0  0  0
  182.1360  178.6280  142.5920 C   0  0  2  0  0  3  0  0  0  0  0  0
  183.1420  177.8590  140.5390 C   0  0  0  0  0  2  0  0  0  0  0  0
  184.5510  178.3600  140.8780 C   0  0  0  0  0  2  0  0  0  0  0  0
  184.6180  179.0200  142.2590 C   0  0  0  0  0  2  0  0  0  0  0  0
  182.1340  178.7410  141.1260 N   0  0  0  0  0  2  0  0  0  0  0  0
  1 24  1  6  0  0  0
  1 10  1  0  0  0  0
  1  7  1  0  0  0  0
  2  5  1  6  0  0  0
  2  7  1  0  0  0  0
  3 14  2  0  0  0  0
  3  9  1  0  0  0  0
  4 12  1  0  0  0  0
  6 14  1  0  0  0  0
  7  3  1  6  0  0  0
  8  4  2  0  0  0  0
  9 15  1  6  0  0  0
  9 13  1  0  0  0  0
 10 15  1  0  0  0  0
 11  2  1  0  0  0  0
 11  6  1  0  0  0  0
 13 18  1  0  0  0  0
 13 12  2  0  0  0  0
 14  8  1  0  0  0  0
 16 22  1  0  0  0  0
 17 16  2  0  0  0  0
 18 20  2  0  0  0  0
 19 17  1  0  0  0  0
 20 16  1  0  0  0  0
 21 19  2  0  0  0  0
 21 18  1  0  0  0  0
 23 24  1  0  0  0  0
 25  8  1  0  0  0  0
 26 25  1  0  0  0  0
 27 26  1  0  0  0  0
 29 27  1  1  0  0  0
 30 28  1  1  0  0  0
 30 29  1  0  0  0  0
 31 32  1  0  0  0  0
 31 34  1  0  0  0  0
 32 33  1  0  0  0  0
 33 29  1  0  0  0  0
 34 30  1  0  0  0  0
M  END
>  <MODEL>
9

>  <REMARK>
 VINA RESULT:      -6.5      4.718      7.640
  Name = 
  6 active torsions:
  status: ('A' for Active; 'I' for Inactive)
    1  A    between atoms: C_1  and  O_19
    2  A    between atoms: C_3  and  C_13
    3  A    between atoms: C_3  and  S_17
    4  A    between atoms: C_12  and  C_28
    5  A    between atoms: S_17  and  C_29
    6  A    between atoms: C_18  and  C_29
                            x       y       z     vdW  Elec       q    Type
                         _______ _______ _______ _____ _____    ______ ____

>  <TORSDO>
F 6

$$$$
