=
 OpenBabel11052412473D

 25 28  0  0  1  0  0  0  0  0999 V2000
  187.8230  177.8440  145.7380 N   0  0  0  0  0  0  0  0  0  0  0  0
  186.8540  177.6170  144.6620 C   0  0  2  0  0  3  0  0  0  0  0  0
  186.1740  178.6000  147.3080 C   0  0  0  0  0  3  0  0  0  0  0  0
  189.1410  177.3150  145.7850 C   0  0  0  0  0  0  0  0  0  0  0  0
  191.7020  176.2970  146.1690 C   0  0  0  0  0  3  0  0  0  0  0  0
  185.2000  178.6690  146.2050 C   0  0  0  0  0  3  0  0  0  0  0  0
  189.7240  177.3600  147.0420 C   0  0  0  0  0  0  0  0  0  0  0  0
  191.0070  176.8510  147.2520 C   0  0  0  0  0  3  0  0  0  0  0  0
  184.5910  178.4060  143.8250 C   0  0  0  0  0  0  0  0  0  0  0  0
  183.0210  178.8340  144.0150 S   0  0  0  0  0  0  0  0  0  0  0  0
  187.3630  178.1090  143.3950 N   0  0  0  0  0  0  0  0  0  0  0  0
  191.1110  176.2490  144.8950 C   0  0  0  0  0  3  0  0  0  0  0  0
  187.4240  178.2220  147.0540 C   0  0  0  0  0  0  0  0  0  0  0  0
  188.6890  178.0730  148.3230 S   0  0  0  0  0  0  0  0  0  0  0  0
  185.1040  178.0770  142.4530 C   0  0  0  0  0  2  0  0  0  0  0  0
  189.8200  176.7560  144.6970 C   0  0  0  0  0  3  0  0  0  0  0  0
  186.5980  178.2950  142.3690 C   0  0  0  0  0  0  0  0  0  0  0  0
  185.5120  178.2530  144.9680 C   0  0  0  0  0  0  0  0  0  0  0  0
  187.1880  178.7660  141.0810 C   0  0  0  0  0  2  0  0  0  0  0  0
  188.7290  177.8700  140.7170 S   0  0  0  0  0  0  0  0  0  0  0  0
  188.4350  177.9090  138.9240 C   0  0  0  0  0  2  0  0  0  0  0  0
  188.9690  179.1400  138.3650 N   0  0  0  0  0  2  0  0  0  0  0  0
  188.2730  179.3840  137.1730 N   0  0  0  0  0  2  0  0  0  0  0  0
  187.2700  178.3390  137.0450 C   0  0  0  0  0  2  0  0  0  0  0  0
  187.0130  178.0520  135.5780 C   0  0  0  0  0  1  0  0  0  0  0  0
  1  4  1  0  0  0  0
  1 13  1  0  0  0  0
  2 11  1  6  0  0  0
  2 18  1  0  0  0  0
  2  1  1  0  0  0  0
  4  7  1  0  0  0  0
  5  8  1  0  0  0  0
  6  3  1  0  0  0  0
  7  8  2  0  0  0  0
  7 14  1  0  0  0  0
  9 10  2  0  0  0  0
  9 18  1  0  0  0  0
 12  5  2  0  0  0  0
 13  3  2  0  0  0  0
 13 14  1  0  0  0  0
 15  9  1  0  0  0  0
 16 12  1  0  0  0  0
 16  4  2  0  0  0  0
 17 15  1  0  0  0  0
 17 11  2  0  0  0  0
 18  6  2  0  0  0  0
 19 17  1  0  0  0  0
 20 19  1  0  0  0  0
 21 20  1  0  0  0  0
 22 21  1  0  0  0  0
 23 22  1  0  0  0  0
 24 23  1  0  0  0  0
 25 24  1  0  0  0  0
M  END
>  <MODEL>
1

>  <REMARK>
 VINA RESULT:      -8.7      0.000      0.000
  Name = 
  6 active torsions:
  status: ('A' for Active; 'I' for Inactive)
    1  A    between atoms: C_2  and  N_12
    2  A    between atoms: C_6  and  S_15
    3  A    between atoms: C_6  and  C_23
    4  A    between atoms: N_12  and  N_25
    5  A    between atoms: S_15  and  C_21
    6  A    between atoms: C_21  and  N_25
                            x       y       z     vdW  Elec       q    Type
                         _______ _______ _______ _____ _____    ______ ____

>  <TORSDO>
F 6

$$$$
=
 OpenBabel11052412473D

 25 28  0  0  1  0  0  0  0  0999 V2000
  187.8830  177.8190  145.7140 N   0  0  0  0  0  0  0  0  0  0  0  0
  186.9380  177.5820  144.6190 C   0  0  2  0  0  3  0  0  0  0  0  0
  186.1970  178.5780  147.2440 C   0  0  0  0  0  3  0  0  0  0  0  0
  189.2010  177.2950  145.7930 C   0  0  0  0  0  0  0  0  0  0  0  0
  191.7570  176.2890  146.2390 C   0  0  0  0  0  3  0  0  0  0  0  0
  185.2470  178.6360  146.1190 C   0  0  0  0  0  3  0  0  0  0  0  0
  189.7570  177.3500  147.0630 C   0  0  0  0  0  0  0  0  0  0  0  0
  191.0360  176.8480  147.3040 C   0  0  0  0  0  3  0  0  0  0  0  0
  184.6910  178.3560  143.7280 C   0  0  0  0  0  0  0  0  0  0  0  0
  183.1150  178.7790  143.8810 S   0  0  0  0  0  0  0  0  0  0  0  0
  187.4730  178.0670  143.3610 N   0  0  0  0  0  0  0  0  0  0  0  0
  191.1940  176.2310  144.9530 C   0  0  0  0  0  3  0  0  0  0  0  0
  187.4530  178.2030  147.0190 C   0  0  0  0  0  0  0  0  0  0  0  0
  188.6910  178.0670  148.3160 S   0  0  0  0  0  0  0  0  0  0  0  0
  185.2350  178.0210  142.3700 C   0  0  0  0  0  2  0  0  0  0  0  0
  189.9060  176.7330  144.7240 C   0  0  0  0  0  3  0  0  0  0  0  0
  186.7290  178.2450  142.3170 C   0  0  0  0  0  0  0  0  0  0  0  0
  185.5880  178.2140  144.8920 C   0  0  0  0  0  0  0  0  0  0  0  0
  187.3460  178.7100  141.0390 C   0  0  0  0  0  2  0  0  0  0  0  0
  188.9080  177.8320  140.7240 S   0  0  0  0  0  0  0  0  0  0  0  0
  189.0640  178.5230  139.0510 C   0  0  0  0  0  2  0  0  0  0  0  0
  189.7510  177.5750  138.1890 N   0  0  0  0  0  2  0  0  0  0  0  0
  190.7670  176.9880  138.9550 N   0  0  0  0  0  2  0  0  0  0  0  0
  191.4780  176.0670  138.0840 C   0  0  0  0  0  2  0  0  0  0  0  0
  192.9410  176.4580  138.0080 C   0  0  0  0  0  1  0  0  0  0  0  0
  1  4  1  0  0  0  0
  1 13  1  0  0  0  0
  2 11  1  6  0  0  0
  2 18  1  0  0  0  0
  2  1  1  0  0  0  0
  4  7  1  0  0  0  0
  5  8  1  0  0  0  0
  6  3  1  0  0  0  0
  7  8  2  0  0  0  0
  7 14  1  0  0  0  0
  9 10  2  0  0  0  0
  9 18  1  0  0  0  0
 12  5  2  0  0  0  0
 13  3  2  0  0  0  0
 13 14  1  0  0  0  0
 15  9  1  0  0  0  0
 16 12  1  0  0  0  0
 16  4  2  0  0  0  0
 17 15  1  0  0  0  0
 17 11  2  0  0  0  0
 18  6  2  0  0  0  0
 19 17  1  0  0  0  0
 20 19  1  0  0  0  0
 21 20  1  0  0  0  0
 22 23  1  0  0  0  0
 22 21  1  0  0  0  0
 24 23  1  0  0  0  0
 25 24  1  0  0  0  0
M  END
>  <MODEL>
2

>  <REMARK>
 VINA RESULT:      -8.3      1.400      1.863
  Name = 
  6 active torsions:
  status: ('A' for Active; 'I' for Inactive)
    1  A    between atoms: C_2  and  N_12
    2  A    between atoms: C_6  and  S_15
    3  A    between atoms: C_6  and  C_23
    4  A    between atoms: N_12  and  N_25
    5  A    between atoms: S_15  and  C_21
    6  A    between atoms: C_21  and  N_25
                            x       y       z     vdW  Elec       q    Type
                         _______ _______ _______ _____ _____    ______ ____

>  <TORSDO>
F 6

$$$$
=
 OpenBabel11052412473D

 25 28  0  0  1  0  0  0  0  0999 V2000
  184.5030  178.4880  143.0090 N   0  0  0  0  0  0  0  0  0  0  0  0
  185.8240  178.5310  143.6440 C   0  0  2  0  0  3  0  0  0  0  0  0
  183.3060  178.8390  145.0590 C   0  0  0  0  0  3  0  0  0  0  0  0
  184.2520  178.6350  141.6180 C   0  0  0  0  0  0  0  0  0  0  0  0
  183.4950  179.0230  138.9690 C   0  0  0  0  0  3  0  0  0  0  0  0
  184.5630  178.6100  145.7950 C   0  0  0  0  0  3  0  0  0  0  0  0
  182.9310  178.9220  141.3090 C   0  0  0  0  0  0  0  0  0  0  0  0
  182.5350  179.1220  139.9860 C   0  0  0  0  0  3  0  0  0  0  0  0
  186.9780  178.0980  145.8620 C   0  0  0  0  0  0  0  0  0  0  0  0
  187.1160  178.1960  147.4920 S   0  0  0  0  0  0  0  0  0  0  0  0
  186.6810  177.4820  143.1250 N   0  0  0  0  0  0  0  0  0  0  0  0
  184.8340  178.7350  139.2820 C   0  0  0  0  0  3  0  0  0  0  0  0
  183.3020  178.7550  143.7320 C   0  0  0  0  0  0  0  0  0  0  0  0
  181.8390  179.0420  142.7280 S   0  0  0  0  0  0  0  0  0  0  0  0
  188.1830  177.7370  145.0420 C   0  0  0  0  0  2  0  0  0  0  0  0
  185.2220  178.5430  140.6140 C   0  0  0  0  0  3  0  0  0  0  0  0
  187.7730  177.1250  143.7220 C   0  0  0  0  0  0  0  0  0  0  0  0
  185.7270  178.4300  145.1530 C   0  0  0  0  0  0  0  0  0  0  0  0
  188.6330  176.0650  143.1170 C   0  0  0  0  0  2  0  0  0  0  0  0
  189.9340  176.8080  142.0840 S   0  0  0  0  0  0  0  0  0  0  0  0
  191.2230  176.5000  143.3280 C   0  0  0  0  0  2  0  0  0  0  0  0
  191.8090  177.7600  143.7510 N   0  0  0  0  0  2  0  0  0  0  0  0
  191.7510  177.7890  145.1510 N   0  0  0  0  0  2  0  0  0  0  0  0
  191.6780  176.4090  145.6020 C   0  0  0  0  0  2  0  0  0  0  0  0
  191.4990  176.3700  147.1070 C   0  0  0  0  0  1  0  0  0  0  0  0
  1  2  1  0  0  0  0
  1 13  1  0  0  0  0
  2 11  1  6  0  0  0
  2 18  1  0  0  0  0
  3  6  1  0  0  0  0
  4  1  1  0  0  0  0
  5 12  2  0  0  0  0
  5  8  1  0  0  0  0
  7  4  1  0  0  0  0
  7 14  1  0  0  0  0
  8  7  2  0  0  0  0
  9 10  2  0  0  0  0
 11 17  2  0  0  0  0
 12 16  1  0  0  0  0
 13  3  2  0  0  0  0
 14 13  1  0  0  0  0
 15  9  1  0  0  0  0
 16  4  2  0  0  0  0
 17 15  1  0  0  0  0
 18  6  2  0  0  0  0
 18  9  1  0  0  0  0
 19 17  1  0  0  0  0
 20 19  1  0  0  0  0
 20 21  1  0  0  0  0
 21 22  1  0  0  0  0
 22 23  1  0  0  0  0
 23 24  1  0  0  0  0
 24 25  1  0  0  0  0
M  END
>  <MODEL>
3

>  <REMARK>
 VINA RESULT:      -7.9      2.559      6.693
  Name = 
  6 active torsions:
  status: ('A' for Active; 'I' for Inactive)
    1  A    between atoms: C_2  and  N_12
    2  A    between atoms: C_6  and  S_15
    3  A    between atoms: C_6  and  C_23
    4  A    between atoms: N_12  and  N_25
    5  A    between atoms: S_15  and  C_21
    6  A    between atoms: C_21  and  N_25
                            x       y       z     vdW  Elec       q    Type
                         _______ _______ _______ _____ _____    ______ ____

>  <TORSDO>
F 6

$$$$
=
 OpenBabel11052412473D

 25 28  0  0  1  0  0  0  0  0999 V2000
  185.4910  178.2690  143.8830 N   0  0  0  0  0  0  0  0  0  0  0  0
  184.5510  178.0260  142.7840 C   0  0  2  0  0  3  0  0  0  0  0  0
  183.7920  178.9800  145.4200 C   0  0  0  0  0  3  0  0  0  0  0  0
  186.8190  177.7690  143.9570 C   0  0  0  0  0  0  0  0  0  0  0  0
  189.3940  176.8060  144.3920 C   0  0  0  0  0  3  0  0  0  0  0  0
  182.8400  179.0330  144.2950 C   0  0  0  0  0  3  0  0  0  0  0  0
  187.3730  177.8210  145.2270 C   0  0  0  0  0  0  0  0  0  0  0  0
  188.6620  177.3400  145.4630 C   0  0  0  0  0  3  0  0  0  0  0  0
  182.2910  178.7680  141.9020 C   0  0  0  0  0  0  0  0  0  0  0  0
  180.7070  179.1600  142.0590 S   0  0  0  0  0  0  0  0  0  0  0  0
  185.0770  178.5350  141.5320 N   0  0  0  0  0  0  0  0  0  0  0  0
  188.8320  176.7510  143.1060 C   0  0  0  0  0  3  0  0  0  0  0  0
  185.0550  178.6310  145.1920 C   0  0  0  0  0  0  0  0  0  0  0  0
  186.2940  178.5040  146.4870 S   0  0  0  0  0  0  0  0  0  0  0  0
  182.8400  178.4580  140.5400 C   0  0  0  0  0  2  0  0  0  0  0  0
  187.5340  177.2310  142.8810 C   0  0  0  0  0  3  0  0  0  0  0  0
  184.3300  178.7100  140.4890 C   0  0  0  0  0  0  0  0  0  0  0  0
  183.1900  178.6300  143.0640 C   0  0  0  0  0  0  0  0  0  0  0  0
  184.9390  179.2000  139.2170 C   0  0  0  0  0  2  0  0  0  0  0  0
  185.1240  177.8350  138.0280 S   0  0  0  0  0  0  0  0  0  0  0  0
  186.8830  178.1990  137.7490 C   0  0  0  0  0  2  0  0  0  0  0  0
  187.5460  178.4310  139.0210 N   0  0  0  0  0  2  0  0  0  0  0  0
  188.8310  178.9080  138.7320 N   0  0  0  0  0  2  0  0  0  0  0  0
  189.6290  177.7620  138.3290 C   0  0  0  0  0  2  0  0  0  0  0  0
  190.1020  177.0070  139.5570 C   0  0  0  0  0  1  0  0  0  0  0  0
  1  4  1  0  0  0  0
  1 13  1  0  0  0  0
  2 11  1  6  0  0  0
  2 18  1  0  0  0  0
  2  1  1  0  0  0  0
  4  7  1  0  0  0  0
  5  8  1  0  0  0  0
  6  3  1  0  0  0  0
  7  8  2  0  0  0  0
  7 14  1  0  0  0  0
  9 10  2  0  0  0  0
  9 18  1  0  0  0  0
 12  5  2  0  0  0  0
 13  3  2  0  0  0  0
 13 14  1  0  0  0  0
 15  9  1  0  0  0  0
 16 12  1  0  0  0  0
 16  4  2  0  0  0  0
 17 15  1  0  0  0  0
 17 11  2  0  0  0  0
 18  6  2  0  0  0  0
 19 17  1  0  0  0  0
 20 19  1  0  0  0  0
 21 20  1  0  0  0  0
 21 22  1  0  0  0  0
 23 22  1  0  0  0  0
 24 23  1  0  0  0  0
 24 25  1  0  0  0  0
M  END
>  <MODEL>
4

>  <REMARK>
 VINA RESULT:      -7.8      2.094      3.068
  Name = 
  6 active torsions:
  status: ('A' for Active; 'I' for Inactive)
    1  A    between atoms: C_2  and  N_12
    2  A    between atoms: C_6  and  S_15
    3  A    between atoms: C_6  and  C_23
    4  A    between atoms: N_12  and  N_25
    5  A    between atoms: S_15  and  C_21
    6  A    between atoms: C_21  and  N_25
                            x       y       z     vdW  Elec       q    Type
                         _______ _______ _______ _____ _____    ______ ____

>  <TORSDO>
F 6

$$$$
=
 OpenBabel11052412473D

 25 28  0  0  1  0  0  0  0  0999 V2000
  187.1180  177.8840  145.4330 N   0  0  0  0  0  0  0  0  0  0  0  0
  188.5520  177.8780  145.1300 C   0  0  2  0  0  3  0  0  0  0  0  0
  187.4330  177.5810  147.7930 C   0  0  0  0  0  3  0  0  0  0  0  0
  186.0960  178.3660  144.5730 C   0  0  0  0  0  0  0  0  0  0  0  0
  183.9360  179.3610  143.1280 C   0  0  0  0  0  3  0  0  0  0  0  0
  188.8530  177.2810  147.5330 C   0  0  0  0  0  3  0  0  0  0  0  0
  184.8870  178.6040  145.2080 C   0  0  0  0  0  0  0  0  0  0  0  0
  183.7950  179.1060  144.4990 C   0  0  0  0  0  3  0  0  0  0  0  0
  190.7650  176.9860  145.9970 C   0  0  0  0  0  0  0  0  0  0  0  0
  191.8630  176.6680  147.1710 S   0  0  0  0  0  0  0  0  0  0  0  0
  188.8270  177.0810  143.9490 N   0  0  0  0  0  0  0  0  0  0  0  0
  185.1610  179.1220  142.4840 C   0  0  0  0  0  3  0  0  0  0  0  0
  186.6240  177.8460  146.7710 C   0  0  0  0  0  0  0  0  0  0  0  0
  184.8840  178.2530  146.9680 S   0  0  0  0  0  0  0  0  0  0  0  0
  191.1950  176.9600  144.5600 C   0  0  0  0  0  2  0  0  0  0  0  0
  186.2540  178.6240  143.2070 C   0  0  0  0  0  3  0  0  0  0  0  0
  190.0210  176.6790  143.6500 C   0  0  0  0  0  0  0  0  0  0  0  0
  189.3750  177.3780  146.3010 C   0  0  0  0  0  0  0  0  0  0  0  0
  190.2460  175.8940  142.4000 C   0  0  0  0  0  2  0  0  0  0  0  0
  190.7540  176.9890  141.0380 S   0  0  0  0  0  0  0  0  0  0  0  0
  189.0550  177.1490  140.4130 C   0  0  0  0  0  2  0  0  0  0  0  0
  188.8550  178.4820  139.8700 N   0  0  0  0  0  2  0  0  0  0  0  0
  187.5950  178.4880  139.2570 N   0  0  0  0  0  2  0  0  0  0  0  0
  187.7350  177.7890  137.9900 C   0  0  0  0  0  2  0  0  0  0  0  0
  188.5530  178.6270  137.0280 C   0  0  0  0  0  1  0  0  0  0  0  0
  1 13  1  0  0  0  0
  2 11  1  6  0  0  0
  2  1  1  0  0  0  0
  2 18  1  0  0  0  0
  4  7  1  0  0  0  0
  4  1  1  0  0  0  0
  5  8  1  0  0  0  0
  6  3  1  0  0  0  0
  7 14  1  0  0  0  0
  8  7  2  0  0  0  0
  9 18  1  0  0  0  0
  9 10  2  0  0  0  0
 12  5  2  0  0  0  0
 12 16  1  0  0  0  0
 13 14  1  0  0  0  0
 13  3  2  0  0  0  0
 15  9  1  0  0  0  0
 16  4  2  0  0  0  0
 17 11  2  0  0  0  0
 17 15  1  0  0  0  0
 18  6  2  0  0  0  0
 19 17  1  0  0  0  0
 20 19  1  0  0  0  0
 21 20  1  0  0  0  0
 22 21  1  0  0  0  0
 23 22  1  0  0  0  0
 24 23  1  0  0  0  0
 25 24  1  0  0  0  0
M  END
>  <MODEL>
5

>  <REMARK>
 VINA RESULT:      -7.7      1.678      4.699
  Name = 
  6 active torsions:
  status: ('A' for Active; 'I' for Inactive)
    1  A    between atoms: C_2  and  N_12
    2  A    between atoms: C_6  and  S_15
    3  A    between atoms: C_6  and  C_23
    4  A    between atoms: N_12  and  N_25
    5  A    between atoms: S_15  and  C_21
    6  A    between atoms: C_21  and  N_25
                            x       y       z     vdW  Elec       q    Type
                         _______ _______ _______ _____ _____    ______ ____

>  <TORSDO>
F 6

$$$$
=
 OpenBabel11052412473D

 25 28  0  0  1  0  0  0  0  0999 V2000
  185.0150  178.4150  143.6350 N   0  0  0  0  0  0  0  0  0  0  0  0
  186.3860  178.4270  144.1540 C   0  0  2  0  0  3  0  0  0  0  0  0
  184.0020  178.6280  145.7990 C   0  0  0  0  0  3  0  0  0  0  0  0
  184.6440  178.6490  142.2830 C   0  0  0  0  0  0  0  0  0  0  0  0
  183.6590  179.1990  139.7390 C   0  0  0  0  0  3  0  0  0  0  0  0
  185.3180  178.3610  146.4070 C   0  0  0  0  0  3  0  0  0  0  0  0
  183.3010  178.9450  142.1090 C   0  0  0  0  0  0  0  0  0  0  0  0
  182.7910  179.2260  140.8410 C   0  0  0  0  0  3  0  0  0  0  0  0
  187.7300  177.8620  146.2310 C   0  0  0  0  0  0  0  0  0  0  0  0
  188.0090  177.8570  147.8460 S   0  0  0  0  0  0  0  0  0  0  0  0
  187.1960  177.4180  143.4970 N   0  0  0  0  0  0  0  0  0  0  0  0
  185.0200  178.9000  139.9160 C   0  0  0  0  0  3  0  0  0  0  0  0
  183.8820  178.6280  144.4750 C   0  0  0  0  0  0  0  0  0  0  0  0
  182.3360  178.9680  143.6220 S   0  0  0  0  0  0  0  0  0  0  0  0
  188.8590  177.5610  145.2880 C   0  0  0  0  0  2  0  0  0  0  0  0
  185.5230  178.6260  141.1950 C   0  0  0  0  0  3  0  0  0  0  0  0
  188.3360  177.0310  143.9720 C   0  0  0  0  0  0  0  0  0  0  0  0
  186.4220  178.2290  145.6560 C   0  0  0  0  0  0  0  0  0  0  0  0
  189.1420  176.0170  143.2290 C   0  0  0  0  0  2  0  0  0  0  0  0
  190.9210  176.3290  143.4460 S   0  0  0  0  0  0  0  0  0  0  0  0
  191.0360  177.2730  141.8970 C   0  0  0  0  0  2  0  0  0  0  0  0
  190.4060  176.5280  140.8200 N   0  0  0  0  0  2  0  0  0  0  0  0
  190.3110  177.3970  139.7240 N   0  0  0  0  0  2  0  0  0  0  0  0
  188.9970  178.0150  139.7850 C   0  0  0  0  0  2  0  0  0  0  0  0
  188.4740  178.2490  138.3810 C   0  0  0  0  0  1  0  0  0  0  0  0
  1  2  1  0  0  0  0
  1 13  1  0  0  0  0
  2 11  1  6  0  0  0
  2 18  1  0  0  0  0
  3  6  1  0  0  0  0
  4  1  1  0  0  0  0
  5 12  2  0  0  0  0
  5  8  1  0  0  0  0
  7  4  1  0  0  0  0
  7 14  1  0  0  0  0
  8  7  2  0  0  0  0
  9 10  2  0  0  0  0
 11 17  2  0  0  0  0
 12 16  1  0  0  0  0
 13  3  2  0  0  0  0
 14 13  1  0  0  0  0
 15  9  1  0  0  0  0
 16  4  2  0  0  0  0
 17 15  1  0  0  0  0
 18  9  1  0  0  0  0
 18  6  2  0  0  0  0
 19 20  1  0  0  0  0
 19 17  1  0  0  0  0
 21 20  1  0  0  0  0
 22 21  1  0  0  0  0
 23 24  1  0  0  0  0
 23 22  1  0  0  0  0
 25 24  1  0  0  0  0
M  END
>  <MODEL>
6

>  <REMARK>
 VINA RESULT:      -7.7      2.015      5.375
  Name = 
  6 active torsions:
  status: ('A' for Active; 'I' for Inactive)
    1  A    between atoms: C_2  and  N_12
    2  A    between atoms: C_6  and  S_15
    3  A    between atoms: C_6  and  C_23
    4  A    between atoms: N_12  and  N_25
    5  A    between atoms: S_15  and  C_21
    6  A    between atoms: C_21  and  N_25
                            x       y       z     vdW  Elec       q    Type
                         _______ _______ _______ _____ _____    ______ ____

>  <TORSDO>
F 6

$$$$
=
 OpenBabel11052412473D

 25 28  0  0  1  0  0  0  0  0999 V2000
  187.4700  177.8740  145.1210 N   0  0  0  0  0  0  0  0  0  0  0  0
  186.3180  177.7070  144.2300 C   0  0  2  0  0  3  0  0  0  0  0  0
  186.1460  178.5840  146.9930 C   0  0  0  0  0  3  0  0  0  0  0  0
  188.7630  177.3250  144.9090 C   0  0  0  0  0  0  0  0  0  0  0  0
  191.3300  176.2570  144.7840 C   0  0  0  0  0  3  0  0  0  0  0  0
  184.9910  178.7130  146.0860 C   0  0  0  0  0  3  0  0  0  0  0  0
  189.5630  177.3090  146.0420 C   0  0  0  0  0  0  0  0  0  0  0  0
  190.8520  176.7740  145.9970 C   0  0  0  0  0  3  0  0  0  0  0  0
  183.9600  178.5610  143.8470 C   0  0  0  0  0  0  0  0  0  0  0  0
  182.4580  179.0010  144.3340 S   0  0  0  0  0  0  0  0  0  0  0  0
  186.6020  178.2450  142.9130 N   0  0  0  0  0  0  0  0  0  0  0  0
  190.5190  176.2720  143.6370 C   0  0  0  0  0  3  0  0  0  0  0  0
  187.3210  178.2000  146.5030 C   0  0  0  0  0  0  0  0  0  0  0  0
  188.7900  177.9800  147.5150 S   0  0  0  0  0  0  0  0  0  0  0  0
  184.2100  178.2850  142.3930 C   0  0  0  0  0  2  0  0  0  0  0  0
  189.2240  176.8050  143.6950 C   0  0  0  0  0  3  0  0  0  0  0  0
  185.6690  178.4860  142.0490 C   0  0  0  0  0  0  0  0  0  0  0  0
  185.0670  178.3470  144.7980 C   0  0  0  0  0  0  0  0  0  0  0  0
  186.0280  179.0040  140.6960 C   0  0  0  0  0  2  0  0  0  0  0  0
  184.5520  179.1100  139.6380 S   0  0  0  0  0  0  0  0  0  0  0  0
  185.3210  178.1320  138.3130 C   0  0  0  0  0  2  0  0  0  0  0  0
  184.2910  177.5670  137.4570 N   0  0  0  0  0  2  0  0  0  0  0  0
  184.1380  176.2250  137.8320 N   0  0  0  0  0  2  0  0  0  0  0  0
  182.7130  175.9880  137.9950 C   0  0  0  0  0  2  0  0  0  0  0  0
  182.3530  176.0140  139.4680 C   0  0  0  0  0  1  0  0  0  0  0  0
  1 13  1  0  0  0  0
  2 11  1  6  0  0  0
  2 18  1  0  0  0  0
  2  1  1  0  0  0  0
  4  1  1  0  0  0  0
  4  7  1  0  0  0  0
  5  8  1  0  0  0  0
  6  3  1  0  0  0  0
  7 14  1  0  0  0  0
  8  7  2  0  0  0  0
  9 10  2  0  0  0  0
  9 18  1  0  0  0  0
 12 16  1  0  0  0  0
 12  5  2  0  0  0  0
 13  3  2  0  0  0  0
 13 14  1  0  0  0  0
 15  9  1  0  0  0  0
 16  4  2  0  0  0  0
 17 15  1  0  0  0  0
 17 11  2  0  0  0  0
 18  6  2  0  0  0  0
 19 17  1  0  0  0  0
 20 19  1  0  0  0  0
 21 20  1  0  0  0  0
 22 23  1  0  0  0  0
 22 21  1  0  0  0  0
 23 24  1  0  0  0  0
 24 25  1  0  0  0  0
M  END
>  <MODEL>
7

>  <REMARK>
 VINA RESULT:      -7.4      2.305      2.589
  Name = 
  6 active torsions:
  status: ('A' for Active; 'I' for Inactive)
    1  A    between atoms: C_2  and  N_12
    2  A    between atoms: C_6  and  S_15
    3  A    between atoms: C_6  and  C_23
    4  A    between atoms: N_12  and  N_25
    5  A    between atoms: S_15  and  C_21
    6  A    between atoms: C_21  and  N_25
                            x       y       z     vdW  Elec       q    Type
                         _______ _______ _______ _____ _____    ______ ____

>  <TORSDO>
F 6

$$$$
=
 OpenBabel11052412473D

 25 28  0  0  1  0  0  0  0  0999 V2000
  187.1020  178.1740  141.7460 N   0  0  0  0  0  0  0  0  0  0  0  0
  188.3580  177.4430  141.5480 C   0  0  2  0  0  3  0  0  0  0  0  0
  186.6320  178.3610  139.4000 C   0  0  0  0  0  3  0  0  0  0  0  0
  186.3720  178.2430  142.9630 C   0  0  0  0  0  0  0  0  0  0  0  0
  184.7040  178.4240  145.1830 C   0  0  0  0  0  3  0  0  0  0  0  0
  188.0020  177.8930  139.1210 C   0  0  0  0  0  3  0  0  0  0  0  0
  185.0620  178.6720  142.8130 C   0  0  0  0  0  0  0  0  0  0  0  0
  184.2120  178.7650  143.9160 C   0  0  0  0  0  3  0  0  0  0  0  0
  190.2290  177.1260  139.8640 C   0  0  0  0  0  0  0  0  0  0  0  0
  190.8260  176.8880  138.3560 S   0  0  0  0  0  0  0  0  0  0  0  0
  189.3940  177.9500  142.4290 N   0  0  0  0  0  0  0  0  0  0  0  0
  186.0310  177.9880  145.3350 C   0  0  0  0  0  3  0  0  0  0  0  0
  186.2360  178.5040  140.6620 C   0  0  0  0  0  0  0  0  0  0  0  0
  184.5830  179.0390  141.1230 S   0  0  0  0  0  0  0  0  0  0  0  0
  191.1130  176.8800  141.0520 C   0  0  0  0  0  2  0  0  0  0  0  0
  186.8750  177.8920  144.2200 C   0  0  0  0  0  3  0  0  0  0  0  0
  190.6470  177.6830  142.2460 C   0  0  0  0  0  0  0  0  0  0  0  0
  188.8230  177.5010  140.1070 C   0  0  0  0  0  0  0  0  0  0  0  0
  191.6630  178.2010  143.2100 C   0  0  0  0  0  2  0  0  0  0  0  0
  190.8920  178.5690  144.8160 S   0  0  0  0  0  0  0  0  0  0  0  0
  191.3540  176.9540  145.5090 C   0  0  0  0  0  2  0  0  0  0  0  0
  190.6790  176.7530  146.7800 N   0  0  0  0  0  2  0  0  0  0  0  0
  189.3710  177.2320  146.6290 N   0  0  0  0  0  2  0  0  0  0  0  0
  188.6710  176.9570  147.8730 C   0  0  0  0  0  2  0  0  0  0  0  0
  188.1560  178.2530  148.4700 C   0  0  0  0  0  1  0  0  0  0  0  0
  1  4  1  0  0  0  0
  2 18  1  6  0  0  0
  2  1  1  0  0  0  0
  2 11  1  0  0  0  0
  3 13  2  0  0  0  0
  4 16  1  0  0  0  0
  5 12  1  0  0  0  0
  6  3  1  0  0  0  0
  6 18  2  0  0  0  0
  7  4  2  0  0  0  0
  7  8  1  0  0  0  0
  8  5  2  0  0  0  0
  9 18  1  0  0  0  0
  9 15  1  0  0  0  0
 10  9  2  0  0  0  0
 13 14  1  0  0  0  0
 13  1  1  0  0  0  0
 14  7  1  0  0  0  0
 15 17  1  0  0  0  0
 16 12  2  0  0  0  0
 17 11  2  0  0  0  0
 17 19  1  0  0  0  0
 19 20  1  0  0  0  0
 20 21  1  0  0  0  0
 21 22  1  0  0  0  0
 23 22  1  0  0  0  0
 23 24  1  0  0  0  0
 24 25  1  0  0  0  0
M  END
>  <MODEL>
8

>  <REMARK>
 VINA RESULT:      -7.4      2.280      7.155
  Name = 
  6 active torsions:
  status: ('A' for Active; 'I' for Inactive)
    1  A    between atoms: C_2  and  N_12
    2  A    between atoms: C_6  and  S_15
    3  A    between atoms: C_6  and  C_23
    4  A    between atoms: N_12  and  N_25
    5  A    between atoms: S_15  and  C_21
    6  A    between atoms: C_21  and  N_25
                            x       y       z     vdW  Elec       q    Type
                         _______ _______ _______ _____ _____    ______ ____

>  <TORSDO>
F 6

$$$$
=
 OpenBabel11052412473D

 25 28  0  0  1  0  0  0  0  0999 V2000
  189.0280  177.7250  142.7140 N   0  0  0  0  0  0  0  0  0  0  0  0
  187.6410  177.5200  143.1410 C   0  0  2  0  0  3  0  0  0  0  0  0
  189.8870  177.8490  144.9520 C   0  0  0  0  0  3  0  0  0  0  0  0
  189.5390  177.4570  141.4160 C   0  0  0  0  0  0  0  0  0  0  0  0
  190.8010  176.8920  139.0010 C   0  0  0  0  0  3  0  0  0  0  0  0
  188.5010  177.9340  145.4460 C   0  0  0  0  0  3  0  0  0  0  0  0
  190.9230  177.3790  141.3580 C   0  0  0  0  0  0  0  0  0  0  0  0
  191.5710  177.0940  140.1550 C   0  0  0  0  0  3  0  0  0  0  0  0
  186.0610  178.0040  145.0670 C   0  0  0  0  0  0  0  0  0  0  0  0
  185.6570  178.0830  146.6540 S   0  0  0  0  0  0  0  0  0  0  0  0
  186.7320  178.3260  142.3460 N   0  0  0  0  0  0  0  0  0  0  0  0
  189.4000  176.9690  139.0600 C   0  0  0  0  0  3  0  0  0  0  0  0
  190.1110  177.7690  143.6430 C   0  0  0  0  0  0  0  0  0  0  0  0
  191.7540  177.6320  142.9280 S   0  0  0  0  0  0  0  0  0  0  0  0
  184.9770  178.0390  144.0290 C   0  0  0  0  0  2  0  0  0  0  0  0
  188.7590  177.2490  140.2740 C   0  0  0  0  0  3  0  0  0  0  0  0
  185.5100  178.5490  142.7100 C   0  0  0  0  0  0  0  0  0  0  0  0
  187.4540  177.8210  144.6150 C   0  0  0  0  0  0  0  0  0  0  0  0
  184.6120  179.3540  141.8290 C   0  0  0  0  0  2  0  0  0  0  0  0
  183.3200  178.3010  141.0980 S   0  0  0  0  0  0  0  0  0  0  0  0
  183.8400  178.6880  139.4000 C   0  0  0  0  0  2  0  0  0  0  0  0
  185.0920  179.4260  139.4250 N   0  0  0  0  0  2  0  0  0  0  0  0
  185.9370  178.8280  138.4810 N   0  0  0  0  0  2  0  0  0  0  0  0
  185.1860  177.7490  137.8600 C   0  0  0  0  0  2  0  0  0  0  0  0
  186.1350  176.8120  137.1370 C   0  0  0  0  0  1  0  0  0  0  0  0
  1  2  1  0  0  0  0
  1 13  1  0  0  0  0
  2 11  1  6  0  0  0
  2 18  1  0  0  0  0
  3  6  1  0  0  0  0
  4  1  1  0  0  0  0
  5 12  2  0  0  0  0
  5  8  1  0  0  0  0
  7  4  1  0  0  0  0
  7 14  1  0  0  0  0
  8  7  2  0  0  0  0
  9 10  2  0  0  0  0
 11 17  2  0  0  0  0
 12 16  1  0  0  0  0
 13  3  2  0  0  0  0
 14 13  1  0  0  0  0
 15  9  1  0  0  0  0
 16  4  2  0  0  0  0
 17 15  1  0  0  0  0
 18  9  1  0  0  0  0
 18  6  2  0  0  0  0
 19 17  1  0  0  0  0
 20 19  1  0  0  0  0
 21 22  1  0  0  0  0
 21 20  1  0  0  0  0
 23 22  1  0  0  0  0
 24 23  1  0  0  0  0
 25 24  1  0  0  0  0
M  END
>  <MODEL>
9

>  <REMARK>
 VINA RESULT:      -7.2      2.332      4.189
  Name = 
  6 active torsions:
  status: ('A' for Active; 'I' for Inactive)
    1  A    between atoms: C_2  and  N_12
    2  A    between atoms: C_6  and  S_15
    3  A    between atoms: C_6  and  C_23
    4  A    between atoms: N_12  and  N_25
    5  A    between atoms: S_15  and  C_21
    6  A    between atoms: C_21  and  N_25
                            x       y       z     vdW  Elec       q    Type
                         _______ _______ _______ _____ _____    ______ ____

>  <TORSDO>
F 6

$$$$
