=
 OpenBabel11052413493D

 27 30  0  0  1  0  0  0  0  0999 V2000
  189.3810  176.6430  140.5610 N   0  0  0  0  0  0  0  0  0  0  0  0
  187.6900  177.9250  141.8330 C   0  0  0  0  0  0  0  0  0  0  0  0
  187.5130  178.7160  139.4830 O   0  0  0  0  0  0  0  0  0  0  0  0
  187.0840  177.7910  143.0450 N   0  0  0  0  0  0  0  0  0  0  0  0
  188.5260  178.7160  136.6780 C   0  0  0  0  0  2  0  0  0  0  0  0
  189.1240  177.4250  136.1580 C   0  0  0  0  0  2  0  0  0  0  0  0
  185.5990  178.8670  140.9700 C   0  0  0  0  0  0  0  0  0  0  0  0
  189.0430  177.4240  141.6840 N   0  0  0  0  0  0  0  0  0  0  0  0
  185.0450  178.7180  142.2480 C   0  0  0  0  0  0  0  0  0  0  0  0
  189.2820  177.1030  139.3570 C   0  0  0  0  0  0  0  0  0  0  0  0
  186.9490  178.4900  140.7490 C   0  0  0  0  0  0  0  0  0  0  0  0
  189.3060  179.2100  137.8820 C   0  0  0  0  0  2  0  0  0  0  0  0
  185.8050  178.1720  143.2740 C   0  0  0  0  0  3  0  0  0  0  0  0
  188.6900  176.2590  137.0230 C   0  0  0  0  0  2  0  0  0  0  0  0
  189.4570  176.2000  138.2600 N   0  0  0  0  0  2  0  0  0  0  0  0
  188.8850  178.5370  139.1840 C   0  0  1  0  0  3  0  0  0  0  0  0
  191.8130  177.4800  144.8760 C   0  0  0  0  0  3  0  0  0  0  0  0
  189.9700  177.4610  142.7890 C   0  0  0  0  0  0  0  0  0  0  0  0
  190.5190  178.6730  143.2360 C   0  0  0  0  0  3  0  0  0  0  0  0
  191.4390  178.6860  144.2850 C   0  0  0  0  0  3  0  0  0  0  0  0
  191.2870  176.3080  144.4290 N   0  0  0  0  0  0  0  0  0  0  0  0
  190.3890  176.2750  143.4080 C   0  0  0  0  0  3  0  0  0  0  0  0
  184.7720  179.4020  139.9640 O   0  0  0  0  0  0  0  0  0  0  0  0
  184.1540  178.6570  138.9250 C   0  0  0  0  0  1  0  0  0  0  0  0
  183.6280  179.0950  142.5240 C   0  0  0  0  0  2  0  0  0  0  0  0
  181.9180  178.8380  143.8930 C   0  0  0  0  0  1  0  0  0  0  0  0
  183.3100  178.7990  143.8500 O   0  0  0  0  0  0  0  0  0  0  0  0
  1  8  1  0  0  0  0
  2  4  1  0  0  0  0
  3 11  1  0  0  0  0
  4 13  2  0  0  0  0
  5 12  1  0  0  0  0
  6  5  1  0  0  0  0
  6 14  1  0  0  0  0
  7  9  2  0  0  0  0
  8  2  1  0  0  0  0
  8 18  1  0  0  0  0
  9 25  1  0  0  0  0
  9 13  1  0  0  0  0
 10  1  2  0  0  0  0
 11  7  1  0  0  0  0
 11  2  2  0  0  0  0
 14 15  1  0  0  0  0
 15 10  1  0  0  0  0
 16 12  1  6  0  0  0
 16 10  1  0  0  0  0
 16  3  1  0  0  0  0
 18 19  2  0  0  0  0
 18 22  1  0  0  0  0
 19 20  1  0  0  0  0
 20 17  2  0  0  0  0
 21 17  1  0  0  0  0
 22 21  2  0  0  0  0
 23  7  1  0  0  0  0
 24 23  1  0  0  0  0
 25 27  1  0  0  0  0
 27 26  1  0  0  0  0
M  END
>  <MODEL>
1

>  <REMARK>
 VINA RESULT:      -7.5      0.000      0.000
  Name = 
  4 active torsions:
  status: ('A' for Active; 'I' for Inactive)
    1  A    between atoms: C_4  and  O_16
    2  A    between atoms: C_4  and  C_17
    3  A    between atoms: O_8  and  C_14
    4  A    between atoms: C_9  and  N_15
                            x       y       z     vdW  Elec       q    Type
                         _______ _______ _______ _____ _____    ______ ____

>  <TORSDO>
F 4

$$$$
=
 OpenBabel11052413493D

 27 30  0  0  1  0  0  0  0  0999 V2000
  189.7240  178.5020  141.0480 N   0  0  0  0  0  0  0  0  0  0  0  0
  187.2620  178.2780  141.1250 C   0  0  0  0  0  0  0  0  0  0  0  0
  188.1050  177.2130  143.2070 O   0  0  0  0  0  0  0  0  0  0  0  0
  186.2160  178.8660  140.4810 N   0  0  0  0  0  0  0  0  0  0  0  0
  190.3850  176.2860  144.8900 C   0  0  0  0  0  2  0  0  0  0  0  0
  191.6610  177.1020  144.8360 C   0  0  0  0  0  2  0  0  0  0  0  0
  185.8580  178.1300  143.1270 C   0  0  0  0  0  0  0  0  0  0  0  0
  188.5180  178.1470  140.4120 N   0  0  0  0  0  0  0  0  0  0  0  0
  184.8170  178.7230  142.3990 C   0  0  0  0  0  0  0  0  0  0  0  0
  190.1260  177.9110  142.1250 C   0  0  0  0  0  0  0  0  0  0  0  0
  187.0980  177.8760  142.4860 C   0  0  0  0  0  0  0  0  0  0  0  0
  190.0480  175.7460  143.5120 C   0  0  0  0  0  2  0  0  0  0  0  0
  185.0190  179.0890  141.0750 C   0  0  0  0  0  3  0  0  0  0  0  0
  191.3800  178.4810  144.2720 C   0  0  0  0  0  2  0  0  0  0  0  0
  191.2560  178.4460  142.8220 N   0  0  0  0  0  2  0  0  0  0  0  0
  189.3170  176.7590  142.6360 C   0  0  1  0  0  3  0  0  0  0  0  0
  188.4940  177.5160  136.2320 C   0  0  0  0  0  3  0  0  0  0  0  0
  188.5400  177.9370  138.9850 C   0  0  0  0  0  0  0  0  0  0  0  0
  188.9930  178.9360  138.1100 C   0  0  0  0  0  3  0  0  0  0  0  0
  188.9760  178.7270  136.7300 C   0  0  0  0  0  3  0  0  0  0  0  0
  188.0450  176.5570  137.0850 N   0  0  0  0  0  0  0  0  0  0  0  0
  188.0540  176.7430  138.4330 C   0  0  0  0  0  3  0  0  0  0  0  0
  185.6020  177.8040  144.4720 O   0  0  0  0  0  0  0  0  0  0  0  0
  185.9500  178.6060  145.5930 C   0  0  0  0  0  1  0  0  0  0  0  0
  183.4980  179.0140  143.0340 C   0  0  0  0  0  2  0  0  0  0  0  0
  181.3060  179.1020  142.8060 C   0  0  0  0  0  1  0  0  0  0  0  0
  182.4690  178.7220  142.1380 O   0  0  0  0  0  0  0  0  0  0  0  0
  1 10  2  0  0  0  0
  2 11  1  0  0  0  0
  4 13  1  0  0  0  0
  4  2  2  0  0  0  0
  6  5  1  0  0  0  0
  7 23  1  0  0  0  0
  8  1  1  0  0  0  0
  8  2  1  0  0  0  0
  9 25  1  0  0  0  0
  9  7  1  0  0  0  0
 10 16  1  0  0  0  0
 10 15  1  0  0  0  0
 11  7  2  0  0  0  0
 11  3  1  0  0  0  0
 12  5  1  0  0  0  0
 13  9  2  0  0  0  0
 14  6  1  0  0  0  0
 15 14  1  0  0  0  0
 16  3  1  0  0  0  0
 16 12  1  1  0  0  0
 17 20  2  0  0  0  0
 17 21  1  0  0  0  0
 18  8  1  0  0  0  0
 19 18  2  0  0  0  0
 20 19  1  0  0  0  0
 21 22  2  0  0  0  0
 22 18  1  0  0  0  0
 23 24  1  0  0  0  0
 27 26  1  0  0  0  0
 27 25  1  0  0  0  0
M  END
>  <MODEL>
2

>  <REMARK>
 VINA RESULT:      -6.7      1.633      5.214
  Name = 
  4 active torsions:
  status: ('A' for Active; 'I' for Inactive)
    1  A    between atoms: C_4  and  O_16
    2  A    between atoms: C_4  and  C_17
    3  A    between atoms: O_8  and  C_14
    4  A    between atoms: C_9  and  N_15
                            x       y       z     vdW  Elec       q    Type
                         _______ _______ _______ _____ _____    ______ ____

>  <TORSDO>
F 4

$$$$
=
 OpenBabel11052413493D

 27 30  0  0  1  0  0  0  0  0999 V2000
  191.7600  177.6030  140.6150 N   0  0  0  0  0  0  0  0  0  0  0  0
  189.8710  177.3500  139.0400 C   0  0  0  0  0  0  0  0  0  0  0  0
  188.8870  177.1560  141.3140 O   0  0  0  0  0  0  0  0  0  0  0  0
  189.6650  177.6280  137.7220 N   0  0  0  0  0  0  0  0  0  0  0  0
  189.2360  176.9850  144.2700 C   0  0  0  0  0  2  0  0  0  0  0  0
  190.3880  177.7610  144.8770 C   0  0  0  0  0  2  0  0  0  0  0  0
  187.5220  177.9120  139.4530 C   0  0  0  0  0  0  0  0  0  0  0  0
  191.2130  177.0020  139.4650 N   0  0  0  0  0  0  0  0  0  0  0  0
  187.3760  178.1620  138.0820 C   0  0  0  0  0  0  0  0  0  0  0  0
  191.2170  177.4640  141.7800 C   0  0  0  0  0  0  0  0  0  0  0  0
  188.7770  177.4750  139.9510 C   0  0  0  0  0  0  0  0  0  0  0  0
  189.7560  175.9640  143.2760 C   0  0  0  0  0  2  0  0  0  0  0  0
  188.4650  178.0180  137.2320 C   0  0  0  0  0  3  0  0  0  0  0  0
  190.8720  178.8250  143.9110 C   0  0  0  0  0  2  0  0  0  0  0  0
  191.7120  178.2530  142.8680 N   0  0  0  0  0  2  0  0  0  0  0  0
  190.0300  176.5590  141.8970 C   0  0  1  0  0  3  0  0  0  0  0  0
  193.8750  174.8760  136.9620 C   0  0  0  0  0  3  0  0  0  0  0  0
  192.1020  176.2800  138.5880 C   0  0  0  0  0  0  0  0  0  0  0  0
  191.6790  175.1240  137.9150 C   0  0  0  0  0  3  0  0  0  0  0  0
  192.5630  174.4210  137.0960 C   0  0  0  0  0  3  0  0  0  0  0  0
  194.2810  175.9910  137.6270 N   0  0  0  0  0  0  0  0  0  0  0  0
  193.4340  176.6900  138.4300 C   0  0  0  0  0  3  0  0  0  0  0  0
  186.3900  178.0990  140.2680 O   0  0  0  0  0  0  0  0  0  0  0  0
  186.2980  179.0170  141.3490 C   0  0  0  0  0  1  0  0  0  0  0  0
  186.0770  178.6280  137.5150 C   0  0  0  0  0  2  0  0  0  0  0  0
  184.0150  177.8470  137.5800 C   0  0  0  0  0  1  0  0  0  0  0  0
  185.3010  177.5280  137.1470 O   0  0  0  0  0  0  0  0  0  0  0  0
  1 10  2  0  0  0  0
  2  8  1  0  0  0  0
  2 11  1  0  0  0  0
  3 16  1  0  0  0  0
  4  2  2  0  0  0  0
  5  6  1  0  0  0  0
  7 11  2  0  0  0  0
  7 23  1  0  0  0  0
  8  1  1  0  0  0  0
  9  7  1  0  0  0  0
 10 16  1  0  0  0  0
 10 15  1  0  0  0  0
 11  3  1  0  0  0  0
 12  5  1  0  0  0  0
 13  4  1  0  0  0  0
 13  9  2  0  0  0  0
 14  6  1  0  0  0  0
 15 14  1  0  0  0  0
 16 12  1  1  0  0  0
 17 20  2  0  0  0  0
 17 21  1  0  0  0  0
 18  8  1  0  0  0  0
 19 18  2  0  0  0  0
 20 19  1  0  0  0  0
 21 22  2  0  0  0  0
 22 18  1  0  0  0  0
 23 24  1  0  0  0  0
 25  9  1  0  0  0  0
 27 25  1  0  0  0  0
 27 26  1  0  0  0  0
M  END
>  <MODEL>
3

>  <REMARK>
 VINA RESULT:      -6.4      2.566      5.719
  Name = 
  4 active torsions:
  status: ('A' for Active; 'I' for Inactive)
    1  A    between atoms: C_4  and  O_16
    2  A    between atoms: C_4  and  C_17
    3  A    between atoms: O_8  and  C_14
    4  A    between atoms: C_9  and  N_15
                            x       y       z     vdW  Elec       q    Type
                         _______ _______ _______ _____ _____    ______ ____

>  <TORSDO>
F 4

$$$$
=
 OpenBabel11052413493D

 27 30  0  0  1  0  0  0  0  0999 V2000
  189.2220  175.4410  137.6890 N   0  0  0  0  0  0  0  0  0  0  0  0
  190.0660  176.6280  139.6880 C   0  0  0  0  0  0  0  0  0  0  0  0
  188.0720  177.9060  138.9330 O   0  0  0  0  0  0  0  0  0  0  0  0
  190.9100  176.3210  140.7120 N   0  0  0  0  0  0  0  0  0  0  0  0
  185.9060  178.3650  136.9350 C   0  0  0  0  0  2  0  0  0  0  0  0
  185.3450  177.1460  136.2310 C   0  0  0  0  0  2  0  0  0  0  0  0
  188.7600  177.9790  141.2610 C   0  0  0  0  0  0  0  0  0  0  0  0
  190.3000  176.0070  138.3980 N   0  0  0  0  0  0  0  0  0  0  0  0
  189.6780  177.6370  142.2630 C   0  0  0  0  0  0  0  0  0  0  0  0
  188.2100  176.1490  137.3080 C   0  0  0  0  0  0  0  0  0  0  0  0
  188.9570  177.4930  139.9420 C   0  0  0  0  0  0  0  0  0  0  0  0
  187.3910  178.4980  136.6510 C   0  0  0  0  0  2  0  0  0  0  0  0
  190.7470  176.8010  141.9680 C   0  0  0  0  0  3  0  0  0  0  0  0
  185.6910  175.8880  137.0020 C   0  0  0  0  0  2  0  0  0  0  0  0
  187.0680  175.4800  136.7630 N   0  0  0  0  0  2  0  0  0  0  0  0
  188.2540  177.6250  137.5580 C   0  0  1  0  0  3  0  0  0  0  0  0
  194.2540  175.1360  137.1840 C   0  0  0  0  0  3  0  0  0  0  0  0
  191.6390  175.7000  137.9570 C   0  0  0  0  0  0  0  0  0  0  0  0
  191.9970  174.3990  137.5710 C   0  0  0  0  0  3  0  0  0  0  0  0
  193.3050  174.1140  137.1790 C   0  0  0  0  0  3  0  0  0  0  0  0
  193.9030  176.3920  137.5700 N   0  0  0  0  0  0  0  0  0  0  0  0
  192.6320  176.6890  137.9570 C   0  0  0  0  0  3  0  0  0  0  0  0
  187.6840  178.8090  141.6250 O   0  0  0  0  0  0  0  0  0  0  0  0
  186.3700  178.3640  141.9340 C   0  0  0  0  0  1  0  0  0  0  0  0
  189.5080  178.1200  143.6640 C   0  0  0  0  0  2  0  0  0  0  0  0
  188.0320  177.5170  145.1880 C   0  0  0  0  0  1  0  0  0  0  0  0
  189.1460  177.0560  144.4900 O   0  0  0  0  0  0  0  0  0  0  0  0
  1  8  1  0  0  0  0
  2 11  2  0  0  0  0
  2  4  1  0  0  0  0
  3 11  1  0  0  0  0
  4 13  2  0  0  0  0
  6  5  1  0  0  0  0
  6 14  1  0  0  0  0
  7 23  1  0  0  0  0
  7  9  2  0  0  0  0
  8  2  1  0  0  0  0
  9 25  1  0  0  0  0
 10 16  1  0  0  0  0
 10  1  2  0  0  0  0
 11  7  1  0  0  0  0
 12  5  1  0  0  0  0
 13  9  1  0  0  0  0
 15 14  1  0  0  0  0
 15 10  1  0  0  0  0
 16 12  1  6  0  0  0
 16  3  1  0  0  0  0
 17 21  1  0  0  0  0
 18  8  1  0  0  0  0
 19 18  2  0  0  0  0
 20 17  2  0  0  0  0
 20 19  1  0  0  0  0
 21 22  2  0  0  0  0
 22 18  1  0  0  0  0
 23 24  1  0  0  0  0
 25 27  1  0  0  0  0
 27 26  1  0  0  0  0
M  END
>  <MODEL>
4

>  <REMARK>
 VINA RESULT:      -6.4      2.810      4.863
  Name = 
  4 active torsions:
  status: ('A' for Active; 'I' for Inactive)
    1  A    between atoms: C_4  and  O_16
    2  A    between atoms: C_4  and  C_17
    3  A    between atoms: O_8  and  C_14
    4  A    between atoms: C_9  and  N_15
                            x       y       z     vdW  Elec       q    Type
                         _______ _______ _______ _____ _____    ______ ____

>  <TORSDO>
F 4

$$$$
=
 OpenBabel11052413493D

 27 30  0  0  1  0  0  0  0  0999 V2000
  187.2640  176.9240  143.1380 N   0  0  0  0  0  0  0  0  0  0  0  0
  186.7280  178.1310  141.0460 C   0  0  0  0  0  0  0  0  0  0  0  0
  189.1990  178.2570  141.2870 O   0  0  0  0  0  0  0  0  0  0  0  0
  185.6540  178.1910  140.2120 N   0  0  0  0  0  0  0  0  0  0  0  0
  191.6640  177.7500  142.8860 C   0  0  0  0  0  2  0  0  0  0  0  0
  191.6800  176.5110  143.7580 C   0  0  0  0  0  2  0  0  0  0  0  0
  188.1770  178.4030  139.0890 C   0  0  0  0  0  0  0  0  0  0  0  0
  186.4870  177.8810  142.4550 N   0  0  0  0  0  0  0  0  0  0  0  0
  187.0270  178.4750  138.2910 C   0  0  0  0  0  0  0  0  0  0  0  0
  188.5460  177.0390  143.2460 C   0  0  0  0  0  0  0  0  0  0  0  0
  188.0400  178.2520  140.4940 C   0  0  0  0  0  0  0  0  0  0  0  0
  190.5340  178.6720  143.3040 C   0  0  0  0  0  2  0  0  0  0  0  0
  185.7710  178.3620  138.8730 C   0  0  0  0  0  3  0  0  0  0  0  0
  190.6090  175.5380  143.3090 C   0  0  0  0  0  2  0  0  0  0  0  0
  189.2920  175.9420  143.7830 N   0  0  0  0  0  2  0  0  0  0  0  0
  189.1880  178.2780  142.7020 C   0  0  1  0  0  3  0  0  0  0  0  0
  182.9490  179.2540  144.3150 C   0  0  0  0  0  3  0  0  0  0  0  0
  185.2950  178.3740  143.1000 C   0  0  0  0  0  0  0  0  0  0  0  0
  185.2640  178.6190  144.4810 C   0  0  0  0  0  3  0  0  0  0  0  0
  184.0910  179.0640  145.0920 C   0  0  0  0  0  3  0  0  0  0  0  0
  182.9830  179.0030  142.9790 N   0  0  0  0  0  0  0  0  0  0  0  0
  184.1170  178.5670  142.3650 C   0  0  0  0  0  3  0  0  0  0  0  0
  189.4220  178.4980  138.4400 O   0  0  0  0  0  0  0  0  0  0  0  0
  190.2470  177.3990  138.0790 C   0  0  0  0  0  1  0  0  0  0  0  0
  187.1230  178.6280  136.8100 C   0  0  0  0  0  2  0  0  0  0  0  0
  187.2940  176.6320  135.8870 C   0  0  0  0  0  1  0  0  0  0  0  0
  186.3720  177.6340  136.1830 O   0  0  0  0  0  0  0  0  0  0  0  0
  1 10  2  0  0  0  0
  2  8  1  0  0  0  0
  3 16  1  0  0  0  0
  4  2  2  0  0  0  0
  5 12  1  0  0  0  0
  5  6  1  0  0  0  0
  7 11  2  0  0  0  0
  8 18  1  0  0  0  0
  8  1  1  0  0  0  0
  9 13  2  0  0  0  0
  9  7  1  0  0  0  0
 10 15  1  0  0  0  0
 11  2  1  0  0  0  0
 11  3  1  0  0  0  0
 13  4  1  0  0  0  0
 14  6  1  0  0  0  0
 14 15  1  0  0  0  0
 16 10  1  0  0  0  0
 16 12  1  1  0  0  0
 17 20  1  0  0  0  0
 18 19  1  0  0  0  0
 19 20  2  0  0  0  0
 21 17  2  0  0  0  0
 22 21  1  0  0  0  0
 22 18  2  0  0  0  0
 23  7  1  0  0  0  0
 24 23  1  0  0  0  0
 25  9  1  0  0  0  0
 26 27  1  0  0  0  0
 27 25  1  0  0  0  0
M  END
>  <MODEL>
5

>  <REMARK>
 VINA RESULT:      -6.0      2.290      5.853
  Name = 
  4 active torsions:
  status: ('A' for Active; 'I' for Inactive)
    1  A    between atoms: C_4  and  O_16
    2  A    between atoms: C_4  and  C_17
    3  A    between atoms: O_8  and  C_14
    4  A    between atoms: C_9  and  N_15
                            x       y       z     vdW  Elec       q    Type
                         _______ _______ _______ _____ _____    ______ ____

>  <TORSDO>
F 4

$$$$
=
 OpenBabel11052413493D

 27 30  0  0  1  0  0  0  0  0999 V2000
  190.9170  177.6850  140.6200 N   0  0  0  0  0  0  0  0  0  0  0  0
  188.5280  177.6960  139.9820 C   0  0  0  0  0  0  0  0  0  0  0  0
  188.5690  177.4100  142.4510 O   0  0  0  0  0  0  0  0  0  0  0  0
  187.8200  178.0860  138.8850 N   0  0  0  0  0  0  0  0  0  0  0  0
  190.1010  176.9950  144.9750 C   0  0  0  0  0  2  0  0  0  0  0  0
  191.4730  177.6320  145.0640 C   0  0  0  0  0  2  0  0  0  0  0  0
  186.6360  178.4050  141.3680 C   0  0  0  0  0  0  0  0  0  0  0  0
  189.8820  177.2150  139.7880 N   0  0  0  0  0  0  0  0  0  0  0  0
  185.9570  178.7670  140.1970 C   0  0  0  0  0  0  0  0  0  0  0  0
  190.8990  177.5020  141.8990 C   0  0  0  0  0  0  0  0  0  0  0  0
  187.9330  177.8370  141.2740 C   0  0  0  0  0  0  0  0  0  0  0  0
  190.0520  176.0130  143.8190 C   0  0  0  0  0  2  0  0  0  0  0  0
  186.5710  178.6030  138.9620 C   0  0  0  0  0  3  0  0  0  0  0  0
  191.6150  178.7230  144.0220 C   0  0  0  0  0  2  0  0  0  0  0  0
  191.8790  178.1670  142.7020 N   0  0  0  0  0  2  0  0  0  0  0  0
  189.7840  176.6860  142.4750 C   0  0  1  0  0  3  0  0  0  0  0  0
  190.8790  175.1360  136.2450 C   0  0  0  0  0  3  0  0  0  0  0  0
  190.2460  176.4930  138.5930 C   0  0  0  0  0  0  0  0  0  0  0  0
  191.5060  176.6590  137.9990 C   0  0  0  0  0  3  0  0  0  0  0  0
  191.8280  175.9780  136.8250 C   0  0  0  0  0  3  0  0  0  0  0  0
  189.6550  174.9900  136.8190 N   0  0  0  0  0  0  0  0  0  0  0  0
  189.3220  175.6460  137.9640 C   0  0  0  0  0  3  0  0  0  0  0  0
  185.9730  178.6190  142.5920 O   0  0  0  0  0  0  0  0  0  0  0  0
  186.1400  177.8340  143.7650 C   0  0  0  0  0  1  0  0  0  0  0  0
  184.5950  179.3720  140.2490 C   0  0  0  0  0  2  0  0  0  0  0  0
  182.9960  180.0210  138.8740 C   0  0  0  0  0  1  0  0  0  0  0  0
  184.3680  180.1260  139.0970 O   0  0  0  0  0  0  0  0  0  0  0  0
  1 10  2  0  0  0  0
  2 11  1  0  0  0  0
  3 16  1  0  0  0  0
  4 13  1  0  0  0  0
  4  2  2  0  0  0  0
  5  6  1  0  0  0  0
  7 23  1  0  0  0  0
  8  2  1  0  0  0  0
  8  1  1  0  0  0  0
  9 25  1  0  0  0  0
  9  7  1  0  0  0  0
 10 16  1  0  0  0  0
 10 15  1  0  0  0  0
 11  7  2  0  0  0  0
 11  3  1  0  0  0  0
 12  5  1  0  0  0  0
 13  9  2  0  0  0  0
 14  6  1  0  0  0  0
 15 14  1  0  0  0  0
 16 12  1  1  0  0  0
 17 21  2  0  0  0  0
 17 20  1  0  0  0  0
 18  8  1  0  0  0  0
 19 18  1  0  0  0  0
 20 19  2  0  0  0  0
 21 22  1  0  0  0  0
 22 18  2  0  0  0  0
 23 24  1  0  0  0  0
 26 27  1  0  0  0  0
 27 25  1  0  0  0  0
M  END
>  <MODEL>
6

>  <REMARK>
 VINA RESULT:      -5.9      2.099      5.363
  Name = 
  4 active torsions:
  status: ('A' for Active; 'I' for Inactive)
    1  A    between atoms: C_4  and  O_16
    2  A    between atoms: C_4  and  C_17
    3  A    between atoms: O_8  and  C_14
    4  A    between atoms: C_9  and  N_15
                            x       y       z     vdW  Elec       q    Type
                         _______ _______ _______ _____ _____    ______ ____

>  <TORSDO>
F 4

$$$$
=
 OpenBabel11052413493D

 27 30  0  0  1  0  0  0  0  0999 V2000
  188.6060  178.1670  139.3230 N   0  0  0  0  0  0  0  0  0  0  0  0
  190.7410  176.9370  139.1170 C   0  0  0  0  0  0  0  0  0  0  0  0
  189.3490  176.2050  137.1920 O   0  0  0  0  0  0  0  0  0  0  0  0
  191.9910  177.0720  139.6410 N   0  0  0  0  0  0  0  0  0  0  0  0
  186.7450  176.2170  135.7400 C   0  0  0  0  0  2  0  0  0  0  0  0
  185.9260  177.4910  135.7980 C   0  0  0  0  0  2  0  0  0  0  0  0
  191.7710  176.1080  137.0540 C   0  0  0  0  0  0  0  0  0  0  0  0
  189.6130  177.3790  139.9140 N   0  0  0  0  0  0  0  0  0  0  0  0
  193.0250  176.2550  137.6620 C   0  0  0  0  0  0  0  0  0  0  0  0
  187.9000  177.7380  138.3300 C   0  0  0  0  0  0  0  0  0  0  0  0
  190.6000  176.4280  137.7890 C   0  0  0  0  0  0  0  0  0  0  0  0
  186.9560  175.6630  137.1360 C   0  0  0  0  0  2  0  0  0  0  0  0
  193.1140  176.7440  138.9590 C   0  0  0  0  0  3  0  0  0  0  0  0
  186.7970  178.6570  136.2200 C   0  0  0  0  0  2  0  0  0  0  0  0
  187.0300  178.6550  137.6580 N   0  0  0  0  0  2  0  0  0  0  0  0
  188.1150  176.3280  137.8740 C   0  0  1  0  0  3  0  0  0  0  0  0
  189.6010  177.0710  144.1300 C   0  0  0  0  0  3  0  0  0  0  0  0
  189.6390  177.2770  141.3530 C   0  0  0  0  0  0  0  0  0  0  0  0
  190.3630  176.2610  141.9960 C   0  0  0  0  0  3  0  0  0  0  0  0
  190.3490  176.1580  143.3870 C   0  0  0  0  0  3  0  0  0  0  0  0
  188.8920  178.0450  143.4990 N   0  0  0  0  0  0  0  0  0  0  0  0
  188.8920  178.1610  142.1430 C   0  0  0  0  0  3  0  0  0  0  0  0
  191.7460  175.6320  135.7300 O   0  0  0  0  0  0  0  0  0  0  0  0
  191.5080  174.2850  135.3450 C   0  0  0  0  0  1  0  0  0  0  0  0
  194.2830  175.9360  136.9250 C   0  0  0  0  0  2  0  0  0  0  0  0
  194.8070  173.8600  137.4560 C   0  0  0  0  0  1  0  0  0  0  0  0
  195.1310  175.1860  137.7410 O   0  0  0  0  0  0  0  0  0  0  0  0
  1  8  1  0  0  0  0
  2  4  1  0  0  0  0
  2  8  1  0  0  0  0
  3 11  1  0  0  0  0
  3 16  1  0  0  0  0
  5  6  1  0  0  0  0
  5 12  1  0  0  0  0
  6 14  1  0  0  0  0
  7  9  2  0  0  0  0
  7 11  1  0  0  0  0
  8 18  1  0  0  0  0
  9 13  1  0  0  0  0
 10  1  2  0  0  0  0
 11  2  2  0  0  0  0
 13  4  2  0  0  0  0
 14 15  1  0  0  0  0
 15 10  1  0  0  0  0
 16 12  1  6  0  0  0
 16 10  1  0  0  0  0
 18 19  2  0  0  0  0
 18 22  1  0  0  0  0
 19 20  1  0  0  0  0
 20 17  2  0  0  0  0
 21 17  1  0  0  0  0
 22 21  2  0  0  0  0
 23  7  1  0  0  0  0
 24 23  1  0  0  0  0
 25  9  1  0  0  0  0
 25 27  1  0  0  0  0
 26 27  1  0  0  0  0
M  END
>  <MODEL>
7

>  <REMARK>
 VINA RESULT:      -5.8      3.551      6.627
  Name = 
  4 active torsions:
  status: ('A' for Active; 'I' for Inactive)
    1  A    between atoms: C_4  and  O_16
    2  A    between atoms: C_4  and  C_17
    3  A    between atoms: O_8  and  C_14
    4  A    between atoms: C_9  and  N_15
                            x       y       z     vdW  Elec       q    Type
                         _______ _______ _______ _____ _____    ______ ____

>  <TORSDO>
F 4

$$$$
=
 OpenBabel11052413493D

 27 30  0  0  1  0  0  0  0  0999 V2000
  184.2750  179.4060  140.6900 N   0  0  0  0  0  0  0  0  0  0  0  0
  186.4420  178.4020  140.0480 C   0  0  0  0  0  0  0  0  0  0  0  0
  184.8120  177.6500  138.3290 O   0  0  0  0  0  0  0  0  0  0  0  0
  187.7460  178.6280  140.3680 N   0  0  0  0  0  0  0  0  0  0  0  0
  182.0080  177.4920  137.3270 C   0  0  0  0  0  2  0  0  0  0  0  0
  181.1040  178.6750  137.6110 C   0  0  0  0  0  2  0  0  0  0  0  0
  187.1750  177.7970  137.7890 C   0  0  0  0  0  0  0  0  0  0  0  0
  185.4320  178.6870  141.0490 N   0  0  0  0  0  0  0  0  0  0  0  0
  188.4960  178.0300  138.1930 C   0  0  0  0  0  0  0  0  0  0  0  0
  183.4500  178.9670  139.7970 C   0  0  0  0  0  0  0  0  0  0  0  0
  186.1230  177.9590  138.7270 C   0  0  0  0  0  0  0  0  0  0  0  0
  182.5000  176.8820  138.6260 C   0  0  0  0  0  2  0  0  0  0  0  0
  188.7610  178.4510  139.4890 C   0  0  0  0  0  3  0  0  0  0  0  0
  181.9300  179.8940  137.9680 C   0  0  0  0  0  2  0  0  0  0  0  0
  182.4030  179.8320  139.3450 N   0  0  0  0  0  2  0  0  0  0  0  0
  183.7050  177.6130  139.2100 C   0  0  1  0  0  3  0  0  0  0  0  0
  186.1650  178.1270  145.1740 C   0  0  0  0  0  3  0  0  0  0  0  0
  185.7100  178.5050  142.4520 C   0  0  0  0  0  0  0  0  0  0  0  0
  186.7270  177.6400  142.8860 C   0  0  0  0  0  3  0  0  0  0  0  0
  186.9600  177.4520  144.2480 C   0  0  0  0  0  3  0  0  0  0  0  0
  185.1740  178.9540  144.7470 N   0  0  0  0  0  0  0  0  0  0  0  0
  184.9310  179.1500  143.4220 C   0  0  0  0  0  3  0  0  0  0  0  0
  186.9670  177.3980  136.4560 O   0  0  0  0  0  0  0  0  0  0  0  0
  186.7750  176.0590  136.0190 C   0  0  0  0  0  1  0  0  0  0  0  0
  189.6340  177.8780  137.2390 C   0  0  0  0  0  2  0  0  0  0  0  0
  190.3070  175.7820  137.3810 C   0  0  0  0  0  1  0  0  0  0  0  0
  190.6210  177.0720  137.8060 O   0  0  0  0  0  0  0  0  0  0  0  0
  1  8  1  0  0  0  0
  2  4  1  0  0  0  0
  2  8  1  0  0  0  0
  3 11  1  0  0  0  0
  3 16  1  0  0  0  0
  5  6  1  0  0  0  0
  5 12  1  0  0  0  0
  6 14  1  0  0  0  0
  7  9  2  0  0  0  0
  7 11  1  0  0  0  0
  8 18  1  0  0  0  0
  9 13  1  0  0  0  0
 10  1  2  0  0  0  0
 11  2  2  0  0  0  0
 13  4  2  0  0  0  0
 14 15  1  0  0  0  0
 15 10  1  0  0  0  0
 16 12  1  6  0  0  0
 16 10  1  0  0  0  0
 18 19  2  0  0  0  0
 18 22  1  0  0  0  0
 19 20  1  0  0  0  0
 20 17  2  0  0  0  0
 21 17  1  0  0  0  0
 22 21  2  0  0  0  0
 23  7  1  0  0  0  0
 24 23  1  0  0  0  0
 25 27  1  0  0  0  0
 25  9  1  0  0  0  0
 26 27  1  0  0  0  0
M  END
>  <MODEL>
8

>  <REMARK>
 VINA RESULT:      -5.7      2.930      6.061
  Name = 
  4 active torsions:
  status: ('A' for Active; 'I' for Inactive)
    1  A    between atoms: C_4  and  O_16
    2  A    between atoms: C_4  and  C_17
    3  A    between atoms: O_8  and  C_14
    4  A    between atoms: C_9  and  N_15
                            x       y       z     vdW  Elec       q    Type
                         _______ _______ _______ _____ _____    ______ ____

>  <TORSDO>
F 4

$$$$
=
 OpenBabel11052413493D

 27 30  0  0  1  0  0  0  0  0999 V2000
  186.4090  178.6350  137.5520 N   0  0  0  0  0  0  0  0  0  0  0  0
  186.9690  178.2540  139.9310 C   0  0  0  0  0  0  0  0  0  0  0  0
  188.4500  176.7350  138.6350 O   0  0  0  0  0  0  0  0  0  0  0  0
  186.7550  178.9270  141.0950 N   0  0  0  0  0  0  0  0  0  0  0  0
  189.2740  175.5380  136.0310 C   0  0  0  0  0  2  0  0  0  0  0  0
  189.1580  176.4130  134.8000 C   0  0  0  0  0  2  0  0  0  0  0  0
  189.1200  177.5070  140.8380 C   0  0  0  0  0  0  0  0  0  0  0  0
  185.9860  178.3870  138.8730 N   0  0  0  0  0  0  0  0  0  0  0  0
  188.8260  178.2070  142.0160 C   0  0  0  0  0  0  0  0  0  0  0  0
  187.1720  177.8080  136.9150 C   0  0  0  0  0  0  0  0  0  0  0  0
  188.1750  177.5020  139.7790 C   0  0  0  0  0  0  0  0  0  0  0  0
  187.9130  175.3560  136.6770 C   0  0  0  0  0  2  0  0  0  0  0  0
  187.6370  178.9160  142.1230 C   0  0  0  0  0  3  0  0  0  0  0  0
  189.0600  177.8720  135.1990 C   0  0  0  0  0  2  0  0  0  0  0  0
  187.7180  178.2090  135.6540 N   0  0  0  0  0  2  0  0  0  0  0  0
  187.5240  176.5170  137.5870 C   0  0  1  0  0  3  0  0  0  0  0  0
  181.8720  178.9090  139.6910 C   0  0  0  0  0  3  0  0  0  0  0  0
  184.5870  178.5570  139.1800 C   0  0  0  0  0  0  0  0  0  0  0  0
  183.8240  177.5010  139.7010 C   0  0  0  0  0  3  0  0  0  0  0  0
  182.4640  177.6760  139.9620 C   0  0  0  0  0  3  0  0  0  0  0  0
  182.6160  179.9240  139.1750 N   0  0  0  0  0  0  0  0  0  0  0  0
  183.9420  179.7730  138.9130 C   0  0  0  0  0  3  0  0  0  0  0  0
  190.3510  176.8280  140.7780 O   0  0  0  0  0  0  0  0  0  0  0  0
  191.5020  177.2730  140.0730 C   0  0  0  0  0  1  0  0  0  0  0  0
  189.7920  178.2450  143.1530 C   0  0  0  0  0  2  0  0  0  0  0  0
  189.4070  177.8840  145.2940 C   0  0  0  0  0  1  0  0  0  0  0  0
  189.4880  177.2340  144.0650 O   0  0  0  0  0  0  0  0  0  0  0  0
  1  8  1  0  0  0  0
  2  4  1  0  0  0  0
  3 11  1  0  0  0  0
  4 13  2  0  0  0  0
  5 12  1  0  0  0  0
  6 14  1  0  0  0  0
  6  5  1  0  0  0  0
  7  9  2  0  0  0  0
  8 18  1  0  0  0  0
  8  2  1  0  0  0  0
  9 13  1  0  0  0  0
  9 25  1  0  0  0  0
 10  1  2  0  0  0  0
 10 16  1  0  0  0  0
 11  2  2  0  0  0  0
 11  7  1  0  0  0  0
 14 15  1  0  0  0  0
 15 10  1  0  0  0  0
 16 12  1  6  0  0  0
 16  3  1  0  0  0  0
 17 20  1  0  0  0  0
 18 19  1  0  0  0  0
 19 20  2  0  0  0  0
 21 17  2  0  0  0  0
 22 21  1  0  0  0  0
 22 18  2  0  0  0  0
 23  7  1  0  0  0  0
 24 23  1  0  0  0  0
 25 27  1  0  0  0  0
 27 26  1  0  0  0  0
M  END
>  <MODEL>
9

>  <REMARK>
 VINA RESULT:      -5.5      2.876      5.832
  Name = 
  4 active torsions:
  status: ('A' for Active; 'I' for Inactive)
    1  A    between atoms: C_4  and  O_16
    2  A    between atoms: C_4  and  C_17
    3  A    between atoms: O_8  and  C_14
    4  A    between atoms: C_9  and  N_15
                            x       y       z     vdW  Elec       q    Type
                         _______ _______ _______ _____ _____    ______ ____

>  <TORSDO>
F 4

$$$$
