=
 OpenBabel11052415163D

 37 41  0  0  1  0  0  0  0  0999 V2000
  185.4590  176.8180  137.1960 C   0  0  0  0  0  2  0  0  0  0  0  0
  186.7530  178.5630  140.9570 C   0  0  0  0  0  0  0  0  0  0  0  0
  184.9300  178.3000  139.2680 C   0  0  2  0  0  3  0  0  0  0  0  0
  188.2390  178.5370  141.1060 C   0  0  2  0  0  3  0  0  0  0  0  0
  186.3610  178.1590  139.7510 C   0  0  0  0  0  0  0  0  0  0  0  0
  183.9500  178.4120  140.4380 C   0  0  0  0  0  2  0  0  0  0  0  0
  187.5280  177.8700  138.8630 C   0  0  1  0  0  3  0  0  0  0  0  0
  188.0560  179.3900  137.1100 O   0  0  0  0  0  0  0  0  0  0  0  0
  184.4560  179.4330  141.4530 C   0  0  0  0  0  2  0  0  0  0  0  0
  187.3320  178.4850  137.4960 C   0  0  0  0  0  0  0  0  0  0  0  0
  185.7930  178.9790  142.0410 C   0  0  0  0  0  2  0  0  0  0  0  0
  188.7240  178.4270  139.6460 C   0  0  0  0  0  2  0  0  0  0  0  0
  184.4810  177.1770  138.3240 C   0  0  0  0  0  2  0  0  0  0  0  0
  186.2050  178.0200  136.6080 C   0  0  0  0  0  2  0  0  0  0  0  0
  190.3820  177.7730  138.2970 O   0  0  0  0  0  0  0  0  0  0  0  0
  190.8260  177.2850  138.2910 N   0  0  0  0  0  2  0  0  0  0  0  0
  189.9700  177.6180  139.4650 C   0  0  0  0  0  1  0  0  0  0  0  0
  191.8990  176.1120  138.3600 C   0  0  1  0  0  3  0  0  0  0  0  0
  192.5180  174.0960  137.2420 O   0  0  0  0  0  0  0  0  0  0  0  0
  190.6670  173.6420  135.9830 O   0  0  0  0  0  1  0  0  0  0  0  0
  191.8840  175.3380  137.0560 C   0  0  1  0  0  3  0  0  0  0  0  0
  191.1110  174.0890  137.2260 C   0  0  2  0  0  3  0  0  0  0  0  0
  193.2920  176.6770  138.5960 C   0  0  0  0  0  2  0  0  0  0  0  0
  193.4330  177.1660  140.0260 C   0  0  0  0  0  1  0  0  0  0  0  0
  188.7460  177.4300  142.0690 C   0  0  2  0  0  3  0  0  0  0  0  0
  189.7320  179.3180  143.5160 C   0  0  0  0  0  2  0  0  0  0  0  0
  189.3050  177.9120  143.4380 C   0  0  2  0  0  0  0  0  0  0  0  0
  191.1390  178.1210  143.4970 S   0  0  0  0  0  0  0  0  0  0  0  0
  187.1960  177.2060  144.7860 C   0  0  0  0  0  2  0  0  0  0  0  0
  188.7340  177.2610  144.7120 C   0  0  0  0  0  3  0  0  0  0  0  0
  188.8520  177.2140  147.2550 C   0  0  0  0  0  2  0  0  0  0  0  0
  189.4480  177.7720  145.9710 C   0  0  0  0  0  2  0  0  0  0  0  0
  186.4600  178.0080  147.0250 C   0  0  0  0  0  2  0  0  0  0  0  0
  187.7810  178.1650  147.7720 C   0  0  0  0  0  2  0  0  0  0  0  0
  186.5820  178.3700  145.5510 C   0  0  0  0  0  2  0  0  0  0  0  0
  189.6660  176.4660  141.3220 C   0  0  0  0  0  2  0  0  0  0  0  0
  190.4100  175.5780  142.3020 C   0  0  0  0  0  1  0  0  0  0  0  0
  1 13  1  0  0  0  0
  2  4  1  0  0  0  0
  2 11  1  0  0  0  0
  3 13  1  1  0  0  0
  3  5  1  0  0  0  0
  3  6  1  0  0  0  0
  4 25  1  1  0  0  0
  5  2  2  0  0  0  0
  6  9  1  0  0  0  0
  7 12  1  1  0  0  0
  7  5  1  0  0  0  0
  8 10  2  0  0  0  0
  9 11  1  0  0  0  0
 10  7  1  0  0  0  0
 12  4  1  0  0  0  0
 14  1  1  0  0  0  0
 14 10  1  0  0  0  0
 15 17  1  0  0  0  0
 16 15  1  0  0  0  0
 16 18  1  0  0  0  0
 18 23  1  6  0  0  0
 21 22  1  0  0  0  0
 21 19  1  0  0  0  0
 21 18  1  1  0  0  0
 22 20  1  6  0  0  0
 22 19  1  0  0  0  0
 23 24  1  0  0  0  0
 25 36  1  6  0  0  0
 27 25  1  6  0  0  0
 27 28  1  0  0  0  0
 27 26  1  0  0  0  0
 27 30  1  0  0  0  0
 28 26  1  0  0  0  0
 29 35  1  0  0  0  0
 30 29  1  0  0  0  0
 30 32  1  0  0  0  0
 31 34  1  0  0  0  0
 32 31  1  0  0  0  0
 33 34  1  0  0  0  0
 35 33  1  0  0  0  0
 36 37  1  0  0  0  0
M  END
>  <MODEL>
1

>  <REMARK>
 VINA RESULT:      -7.2      0.000      0.000
  Name = 
  8 active torsions:
  status: ('A' for Active; 'I' for Inactive)
    1  A    between atoms: C_6  and  C_31
    2  A    between atoms: C_7  and  C_14
    3  A    between atoms: C_10  and  C_14
    4  A    between atoms: C_11  and  C_26
    5  A    between atoms: C_14  and  C_31
    6  A    between atoms: C_17  and  C_26
    7  A    between atoms: C_26  and  N_33
    8  A    between atoms: C_29  and  C_36
                            x       y       z     vdW  Elec       q    Type
                         _______ _______ _______ _____ _____    ______ ____

>  <TORSDO>
F 8

$$$$
=
 OpenBabel11052415163D

 37 41  0  0  1  0  0  0  0  0999 V2000
  182.4050  177.2580  139.0110 C   0  0  0  0  0  2  0  0  0  0  0  0
  183.7160  178.7770  142.8640 C   0  0  0  0  0  0  0  0  0  0  0  0
  181.8350  178.4560  141.2490 C   0  0  2  0  0  3  0  0  0  0  0  0
  185.2000  178.9190  142.9350 C   0  0  2  0  0  3  0  0  0  0  0  0
  183.2990  178.4460  141.6430 C   0  0  0  0  0  0  0  0  0  0  0  0
  180.9220  178.3340  142.4710 C   0  0  0  0  0  2  0  0  0  0  0  0
  184.4350  178.3900  140.6730 C   0  0  1  0  0  3  0  0  0  0  0  0
  184.6720  180.1250  139.0630 O   0  0  0  0  0  0  0  0  0  0  0  0
  181.3670  179.3070  143.5600 C   0  0  0  0  0  2  0  0  0  0  0  0
  184.0840  179.1050  139.3890 C   0  0  0  0  0  0  0  0  0  0  0  0
  182.7820  178.9650  144.0310 C   0  0  0  0  0  2  0  0  0  0  0  0
  185.6040  179.0110  141.4490 C   0  0  0  0  0  2  0  0  0  0  0  0
  181.4630  177.3840  140.2180 C   0  0  0  0  0  2  0  0  0  0  0  0
  182.9670  178.5930  138.5140 C   0  0  0  0  0  2  0  0  0  0  0  0
  187.3790  178.9200  140.0950 O   0  0  0  0  0  0  0  0  0  0  0  0
  187.8640  178.4880  139.9730 N   0  0  0  0  0  2  0  0  0  0  0  0
  186.9220  178.3820  141.1240 C   0  0  0  0  0  1  0  0  0  0  0  0
  189.0280  177.4250  139.7600 C   0  0  1  0  0  3  0  0  0  0  0  0
  190.1910  176.2510  138.0370 O   0  0  0  0  0  0  0  0  0  0  0  0
  188.7750  176.4620  136.2560 O   0  0  0  0  0  1  0  0  0  0  0  0
  189.4350  177.4090  138.2990 C   0  0  1  0  0  3  0  0  0  0  0  0
  188.8430  176.2310  137.6290 C   0  0  2  0  0  3  0  0  0  0  0  0
  190.2350  177.7780  140.6170 C   0  0  0  0  0  2  0  0  0  0  0  0
  190.5610  176.6430  141.5710 C   0  0  0  0  0  1  0  0  0  0  0  0
  185.8920  177.7950  143.7530 C   0  0  2  0  0  3  0  0  0  0  0  0
  184.8070  178.2250  146.0480 C   0  0  0  0  0  2  0  0  0  0  0  0
  186.0490  178.0510  145.2780 C   0  0  2  0  0  0  0  0  0  0  0  0
  185.7520  179.7950  145.8070 S   0  0  0  0  0  0  0  0  0  0  0  0
  187.0720  177.1770  147.5030 C   0  0  0  0  0  2  0  0  0  0  0  0
  187.2530  177.4050  145.9910 C   0  0  0  0  0  3  0  0  0  0  0  0
  189.7770  177.5040  146.3130 C   0  0  0  0  0  2  0  0  0  0  0  0
  188.5740  178.0590  145.5650 C   0  0  0  0  0  2  0  0  0  0  0  0
  189.0940  178.0040  148.6980 C   0  0  0  0  0  2  0  0  0  0  0  0
  190.0390  178.3510  147.5510 C   0  0  0  0  0  2  0  0  0  0  0  0
  187.6390  178.3010  148.3600 C   0  0  0  0  0  2  0  0  0  0  0  0
  187.1790  177.3570  143.0560 C   0  0  0  0  0  2  0  0  0  0  0  0
  187.5320  175.9330  143.4450 C   0  0  0  0  0  1  0  0  0  0  0  0
  1 13  1  0  0  0  0
  2  4  1  0  0  0  0
  2 11  1  0  0  0  0
  3 13  1  6  0  0  0
  3  5  1  0  0  0  0
  3  6  1  0  0  0  0
  4 25  1  6  0  0  0
  5  2  2  0  0  0  0
  6  9  1  0  0  0  0
  7 12  1  1  0  0  0
  7  5  1  0  0  0  0
  8 10  2  0  0  0  0
  9 11  1  0  0  0  0
 10  7  1  0  0  0  0
 12  4  1  0  0  0  0
 14  1  1  0  0  0  0
 14 10  1  0  0  0  0
 15 17  1  0  0  0  0
 16 15  1  0  0  0  0
 18 16  1  0  0  0  0
 18 23  1  1  0  0  0
 19 21  1  0  0  0  0
 21 18  1  1  0  0  0
 22 20  1  6  0  0  0
 22 19  1  0  0  0  0
 22 21  1  0  0  0  0
 23 24  1  0  0  0  0
 25 36  1  6  0  0  0
 27 25  1  6  0  0  0
 27 28  1  0  0  0  0
 27 30  1  0  0  0  0
 27 26  1  0  0  0  0
 28 26  1  0  0  0  0
 29 35  1  0  0  0  0
 30 29  1  0  0  0  0
 31 34  1  0  0  0  0
 32 30  1  0  0  0  0
 32 31  1  0  0  0  0
 34 33  1  0  0  0  0
 35 33  1  0  0  0  0
 36 37  1  0  0  0  0
M  END
>  <MODEL>
2

>  <REMARK>
 VINA RESULT:      -7.2      2.376      3.533
  Name = 
  8 active torsions:
  status: ('A' for Active; 'I' for Inactive)
    1  A    between atoms: C_6  and  C_31
    2  A    between atoms: C_7  and  C_14
    3  A    between atoms: C_10  and  C_14
    4  A    between atoms: C_11  and  C_26
    5  A    between atoms: C_14  and  C_31
    6  A    between atoms: C_17  and  C_26
    7  A    between atoms: C_26  and  N_33
    8  A    between atoms: C_29  and  C_36
                            x       y       z     vdW  Elec       q    Type
                         _______ _______ _______ _____ _____    ______ ____

>  <TORSDO>
F 8

$$$$
=
 OpenBabel11052415163D

 37 41  0  0  1  0  0  0  0  0999 V2000
  182.7890  177.3710  140.1690 C   0  0  0  0  0  2  0  0  0  0  0  0
  185.6370  178.7560  143.1430 C   0  0  0  0  0  0  0  0  0  0  0  0
  183.2580  178.6560  142.3820 C   0  0  2  0  0  3  0  0  0  0  0  0
  187.0410  178.7120  142.6380 C   0  0  2  0  0  3  0  0  0  0  0  0
  184.7500  178.4670  142.1930 C   0  0  0  0  0  0  0  0  0  0  0  0
  182.8760  178.6620  143.8650 C   0  0  0  0  0  2  0  0  0  0  0  0
  185.4140  178.2580  140.8700 C   0  0  1  0  0  3  0  0  0  0  0  0
  185.2080  179.9320  139.1920 O   0  0  0  0  0  0  0  0  0  0  0  0
  183.8090  179.5840  144.6460 C   0  0  0  0  0  2  0  0  0  0  0  0
  184.6800  178.9970  139.7750 C   0  0  0  0  0  0  0  0  0  0  0  0
  185.2490  179.0730  144.5640 C   0  0  0  0  0  2  0  0  0  0  0  0
  186.8520  178.7360  141.1070 C   0  0  0  0  0  2  0  0  0  0  0  0
  182.4020  177.6270  141.6340 C   0  0  0  0  0  2  0  0  0  0  0  0
  183.2630  178.6200  139.4200 C   0  0  0  0  0  2  0  0  0  0  0  0
  188.1890  178.5850  139.3230 O   0  0  0  0  0  0  0  0  0  0  0  0
  188.5130  178.1010  139.0100 N   0  0  0  0  0  2  0  0  0  0  0  0
  187.8660  177.9440  140.3440 C   0  0  0  0  0  1  0  0  0  0  0  0
  189.3020  176.9000  138.3290 C   0  0  1  0  0  3  0  0  0  0  0  0
  189.1990  175.4450  136.4400 O   0  0  0  0  0  0  0  0  0  0  0  0
  187.0430  175.7100  135.7310 O   0  0  0  0  0  1  0  0  0  0  0  0
  188.8090  176.7130  136.9080 C   0  0  1  0  0  3  0  0  0  0  0  0
  187.8600  175.5800  136.8530 C   0  0  2  0  0  3  0  0  0  0  0  0
  190.7970  177.1860  138.3120 C   0  0  0  0  0  2  0  0  0  0  0  0
  191.3800  177.0540  139.7070 C   0  0  0  0  0  1  0  0  0  0  0  0
  187.8640  177.5190  143.1960 C   0  0  2  0  0  3  0  0  0  0  0  0
  189.6070  179.2270  144.0190 C   0  0  0  0  0  2  0  0  0  0  0  0
  189.0320  177.8790  144.1570 C   0  0  2  0  0  0  0  0  0  0  0  0
  190.7050  177.8870  143.3740 S   0  0  0  0  0  0  0  0  0  0  0  0
  187.6590  177.2120  146.2620 C   0  0  0  0  0  2  0  0  0  0  0  0
  189.0290  177.2380  145.5580 C   0  0  0  0  0  3  0  0  0  0  0  0
  190.1880  177.1870  147.8240 C   0  0  0  0  0  2  0  0  0  0  0  0
  190.2080  177.7340  146.4050 C   0  0  0  0  0  2  0  0  0  0  0  0
  187.9290  178.0260  148.5990 C   0  0  0  0  0  2  0  0  0  0  0  0
  189.4440  178.1570  148.7320 C   0  0  0  0  0  2  0  0  0  0  0  0
  187.4370  178.3870  147.2040 C   0  0  0  0  0  2  0  0  0  0  0  0
  188.2550  176.5750  142.0600 C   0  0  0  0  0  2  0  0  0  0  0  0
  189.2010  175.5030  142.5670 C   0  0  0  0  0  1  0  0  0  0  0  0
  1 13  1  0  0  0  0
  2 11  1  0  0  0  0
  3 13  1  6  0  0  0
  3  6  1  0  0  0  0
  4  2  1  0  0  0  0
  4 25  1  6  0  0  0
  5  3  1  0  0  0  0
  5  2  2  0  0  0  0
  6  9  1  0  0  0  0
  7 12  1  1  0  0  0
  7  5  1  0  0  0  0
  8 10  2  0  0  0  0
 10  7  1  0  0  0  0
 11  9  1  0  0  0  0
 12  4  1  0  0  0  0
 14 10  1  0  0  0  0
 14  1  1  0  0  0  0
 15 17  1  0  0  0  0
 16 15  1  0  0  0  0
 18 23  1  6  0  0  0
 18 16  1  0  0  0  0
 19 22  1  0  0  0  0
 19 21  1  0  0  0  0
 21 18  1  1  0  0  0
 22 20  1  6  0  0  0
 22 21  1  0  0  0  0
 23 24  1  0  0  0  0
 25 36  1  6  0  0  0
 26 27  1  0  0  0  0
 27 25  1  6  0  0  0
 27 30  1  0  0  0  0
 28 26  1  0  0  0  0
 28 27  1  0  0  0  0
 29 35  1  0  0  0  0
 30 29  1  0  0  0  0
 30 32  1  0  0  0  0
 31 34  1  0  0  0  0
 32 31  1  0  0  0  0
 33 34  1  0  0  0  0
 35 33  1  0  0  0  0
 36 37  1  0  0  0  0
M  END
>  <MODEL>
3

>  <REMARK>
 VINA RESULT:      -7.1      1.838      2.685
  Name = 
  8 active torsions:
  status: ('A' for Active; 'I' for Inactive)
    1  A    between atoms: C_6  and  C_31
    2  A    between atoms: C_7  and  C_14
    3  A    between atoms: C_10  and  C_14
    4  A    between atoms: C_11  and  C_26
    5  A    between atoms: C_14  and  C_31
    6  A    between atoms: C_17  and  C_26
    7  A    between atoms: C_26  and  N_33
    8  A    between atoms: C_29  and  C_36
                            x       y       z     vdW  Elec       q    Type
                         _______ _______ _______ _____ _____    ______ ____

>  <TORSDO>
F 8

$$$$
=
 OpenBabel11052415163D

 37 41  0  0  1  0  0  0  0  0999 V2000
  182.8680  177.4220  140.1020 C   0  0  0  0  0  2  0  0  0  0  0  0
  185.6530  178.7450  143.1610 C   0  0  0  0  0  0  0  0  0  0  0  0
  183.2810  178.5930  142.3880 C   0  0  2  0  0  3  0  0  0  0  0  0
  187.0580  178.7890  142.6600 C   0  0  2  0  0  3  0  0  0  0  0  0
  184.7800  178.4770  142.1930 C   0  0  0  0  0  0  0  0  0  0  0  0
  182.8980  178.4960  143.8670 C   0  0  0  0  0  2  0  0  0  0  0  0
  185.4530  178.3730  140.8620 C   0  0  1  0  0  3  0  0  0  0  0  0
  185.1800  180.1330  139.2850 O   0  0  0  0  0  0  0  0  0  0  0  0
  183.7920  179.4070  144.7040 C   0  0  0  0  0  2  0  0  0  0  0  0
  184.6910  179.1450  139.8100 C   0  0  0  0  0  0  0  0  0  0  0  0
  185.2510  178.9620  144.5970 C   0  0  0  0  0  2  0  0  0  0  0  0
  186.8700  178.8950  141.1320 C   0  0  0  0  0  2  0  0  0  0  0  0
  182.4690  177.5760  141.5770 C   0  0  0  0  0  2  0  0  0  0  0  0
  183.2910  178.7310  139.4290 C   0  0  0  0  0  2  0  0  0  0  0  0
  188.3450  178.9740  139.4540 O   0  0  0  0  0  0  0  0  0  0  0  0
  188.6760  178.5330  139.0910 N   0  0  0  0  0  2  0  0  0  0  0  0
  187.9170  178.1910  140.3270 C   0  0  0  0  0  1  0  0  0  0  0  0
  189.4780  177.4230  138.2820 C   0  0  1  0  0  3  0  0  0  0  0  0
  191.0020  175.6410  138.7290 O   0  0  0  0  0  0  0  0  0  0  0  0
  192.9920  176.7400  138.9590 O   0  0  0  0  0  1  0  0  0  0  0  0
  190.6600  176.9520  139.1080 C   0  0  1  0  0  3  0  0  0  0  0  0
  191.8110  176.6760  138.2220 C   0  0  2  0  0  3  0  0  0  0  0  0
  188.5770  176.2380  137.9670 C   0  0  0  0  0  2  0  0  0  0  0  0
  187.4960  176.6390  136.9800 C   0  0  0  0  0  1  0  0  0  0  0  0
  187.9290  177.5990  143.1490 C   0  0  2  0  0  3  0  0  0  0  0  0
  189.6750  179.3110  143.9560 C   0  0  0  0  0  2  0  0  0  0  0  0
  189.1160  177.9560  144.0880 C   0  0  2  0  0  0  0  0  0  0  0  0
  190.7700  177.9910  143.2680 S   0  0  0  0  0  0  0  0  0  0  0  0
  187.7770  177.1290  146.1580 C   0  0  0  0  0  2  0  0  0  0  0  0
  189.1500  177.2960  145.4790 C   0  0  0  0  0  3  0  0  0  0  0  0
  190.2720  177.3190  147.7650 C   0  0  0  0  0  2  0  0  0  0  0  0
  190.2630  177.8880  146.3540 C   0  0  0  0  0  2  0  0  0  0  0  0
  187.9310  177.9290  148.5110 C   0  0  0  0  0  2  0  0  0  0  0  0
  189.4240  178.2010  148.6730 C   0  0  0  0  0  2  0  0  0  0  0  0
  187.4300  178.2630  147.1130 C   0  0  0  0  0  2  0  0  0  0  0  0
  188.3100  176.7080  141.9690 C   0  0  0  0  0  2  0  0  0  0  0  0
  189.2750  175.6250  142.4150 C   0  0  0  0  0  1  0  0  0  0  0  0
  1 13  1  0  0  0  0
  2 11  1  0  0  0  0
  3 13  1  6  0  0  0
  3  6  1  0  0  0  0
  4 25  1  6  0  0  0
  4  2  1  0  0  0  0
  5  3  1  0  0  0  0
  5  2  2  0  0  0  0
  6  9  1  0  0  0  0
  7 12  1  1  0  0  0
  7  5  1  0  0  0  0
  8 10  2  0  0  0  0
 10  7  1  0  0  0  0
 11  9  1  0  0  0  0
 12  4  1  0  0  0  0
 14 10  1  0  0  0  0
 14  1  1  0  0  0  0
 15 17  1  0  0  0  0
 16 15  1  0  0  0  0
 18 23  1  1  0  0  0
 18 16  1  0  0  0  0
 19 21  1  0  0  0  0
 21 18  1  6  0  0  0
 22 19  1  0  0  0  0
 22 20  1  1  0  0  0
 22 21  1  0  0  0  0
 24 23  1  0  0  0  0
 25 36  1  6  0  0  0
 26 27  1  0  0  0  0
 27 25  1  6  0  0  0
 27 30  1  0  0  0  0
 28 26  1  0  0  0  0
 28 27  1  0  0  0  0
 29 35  1  0  0  0  0
 30 29  1  0  0  0  0
 30 32  1  0  0  0  0
 31 34  1  0  0  0  0
 32 31  1  0  0  0  0
 33 34  1  0  0  0  0
 35 33  1  0  0  0  0
 36 37  1  0  0  0  0
M  END
>  <MODEL>
4

>  <REMARK>
 VINA RESULT:      -7.0      1.702      2.917
  Name = 
  8 active torsions:
  status: ('A' for Active; 'I' for Inactive)
    1  A    between atoms: C_6  and  C_31
    2  A    between atoms: C_7  and  C_14
    3  A    between atoms: C_10  and  C_14
    4  A    between atoms: C_11  and  C_26
    5  A    between atoms: C_14  and  C_31
    6  A    between atoms: C_17  and  C_26
    7  A    between atoms: C_26  and  N_33
    8  A    between atoms: C_29  and  C_36
                            x       y       z     vdW  Elec       q    Type
                         _______ _______ _______ _____ _____    ______ ____

>  <TORSDO>
F 8

$$$$
=
 OpenBabel11052415163D

 37 41  0  0  1  0  0  0  0  0999 V2000
  187.1810  176.6970  143.2910 C   0  0  0  0  0  2  0  0  0  0  0  0
  189.8600  177.4610  139.9580 C   0  0  0  0  0  0  0  0  0  0  0  0
  189.5700  177.2700  142.4330 C   0  0  2  0  0  3  0  0  0  0  0  0
  189.1170  177.7780  138.7020 C   0  0  2  0  0  3  0  0  0  0  0  0
  189.0510  177.3640  141.0110 C   0  0  0  0  0  0  0  0  0  0  0  0
  191.0100  176.7530  142.4730 C   0  0  0  0  0  2  0  0  0  0  0  0
  187.6370  177.6810  140.6460 C   0  0  1  0  0  3  0  0  0  0  0  0
  186.6960  179.7520  141.3420 O   0  0  0  0  0  0  0  0  0  0  0  0
  191.8680  177.5030  141.4570 C   0  0  0  0  0  2  0  0  0  0  0  0
  187.0150  178.6160  141.6580 C   0  0  0  0  0  0  0  0  0  0  0  0
  191.3500  177.2540  140.0390 C   0  0  0  0  0  2  0  0  0  0  0  0
  187.7490  178.2580  139.2290 C   0  0  0  0  0  2  0  0  0  0  0  0
  188.6910  176.4200  143.3590 C   0  0  0  0  0  2  0  0  0  0  0  0
  186.8250  178.1730  143.0880 C   0  0  0  0  0  2  0  0  0  0  0  0
  185.6190  178.6280  138.6620 O   0  0  0  0  0  0  0  0  0  0  0  0
  185.1510  178.2990  138.3310 N   0  0  0  0  0  2  0  0  0  0  0  0
  186.5870  177.9000  138.3580 C   0  0  0  0  0  1  0  0  0  0  0  0
  184.0820  177.4770  137.4870 C   0  0  1  0  0  3  0  0  0  0  0  0
  182.7830  175.4740  137.4900 O   0  0  0  0  0  0  0  0  0  0  0  0
  184.3430  173.8750  137.9680 O   0  0  0  0  0  1  0  0  0  0  0  0
  183.8100  176.1520  138.1720 C   0  0  1  0  0  3  0  0  0  0  0  0
  184.0990  175.0390  137.2420 C   0  0  2  0  0  3  0  0  0  0  0  0
  182.7820  178.2590  137.3660 C   0  0  0  0  0  2  0  0  0  0  0  0
  182.3050  178.7120  138.7340 C   0  0  0  0  0  1  0  0  0  0  0  0
  189.0730  176.5990  137.6920 C   0  0  2  0  0  3  0  0  0  0  0  0
  189.3150  178.2140  135.7020 C   0  0  0  0  0  2  0  0  0  0  0  0
  189.6250  176.8920  136.2690 C   0  0  2  0  0  0  0  0  0  0  0  0
  188.3640  176.8360  134.9210 S   0  0  0  0  0  0  0  0  0  0  0  0
  190.8330  174.8320  135.2400 C   0  0  0  0  0  2  0  0  0  0  0  0
  190.9590  176.2320  135.8700 C   0  0  0  0  0  3  0  0  0  0  0  0
  193.3130  175.6620  136.6540 C   0  0  0  0  0  2  0  0  0  0  0  0
  192.0100  176.3770  136.9790 C   0  0  0  0  0  2  0  0  0  0  0  0
  192.4640  173.3000  136.3320 C   0  0  0  0  0  2  0  0  0  0  0  0
  193.2700  174.2470  137.2160 C   0  0  0  0  0  2  0  0  0  0  0  0
  190.9970  173.6980  136.2430 C   0  0  0  0  0  2  0  0  0  0  0  0
  187.6910  175.9480  137.7060 C   0  0  0  0  0  2  0  0  0  0  0  0
  187.7960  174.4790  137.3400 C   0  0  0  0  0  1  0  0  0  0  0  0
  1 13  1  0  0  0  0
  2 11  1  0  0  0  0
  2  5  2  0  0  0  0
  3  6  1  6  0  0  0
  3 13  1  0  0  0  0
  4 25  1  6  0  0  0
  4 12  1  0  0  0  0
  4  2  1  0  0  0  0
  5  3  1  0  0  0  0
  7 12  1  6  0  0  0
  7  5  1  0  0  0  0
  7 10  1  0  0  0  0
  8 10  2  0  0  0  0
  9  6  1  0  0  0  0
 10 14  1  0  0  0  0
 11  9  1  0  0  0  0
 14  1  1  0  0  0  0
 16 15  1  0  0  0  0
 17 15  1  0  0  0  0
 18 23  1  1  0  0  0
 18 16  1  0  0  0  0
 19 21  1  0  0  0  0
 21 18  1  6  0  0  0
 22 19  1  0  0  0  0
 22 20  1  1  0  0  0
 22 21  1  0  0  0  0
 23 24  1  0  0  0  0
 25 36  1  6  0  0  0
 26 27  1  0  0  0  0
 27 25  1  1  0  0  0
 28 26  1  0  0  0  0
 28 27  1  0  0  0  0
 29 30  1  0  0  0  0
 29 35  1  0  0  0  0
 30 27  1  0  0  0  0
 30 32  1  0  0  0  0
 31 32  1  0  0  0  0
 31 34  1  0  0  0  0
 33 34  1  0  0  0  0
 35 33  1  0  0  0  0
 37 36  1  0  0  0  0
M  END
>  <MODEL>
5

>  <REMARK>
 VINA RESULT:      -6.8      3.249      7.639
  Name = 
  8 active torsions:
  status: ('A' for Active; 'I' for Inactive)
    1  A    between atoms: C_6  and  C_31
    2  A    between atoms: C_7  and  C_14
    3  A    between atoms: C_10  and  C_14
    4  A    between atoms: C_11  and  C_26
    5  A    between atoms: C_14  and  C_31
    6  A    between atoms: C_17  and  C_26
    7  A    between atoms: C_26  and  N_33
    8  A    between atoms: C_29  and  C_36
                            x       y       z     vdW  Elec       q    Type
                         _______ _______ _______ _____ _____    ______ ____

>  <TORSDO>
F 8

$$$$
=
 OpenBabel11052415163D

 37 41  0  0  1  0  0  0  0  0999 V2000
  187.8930  176.4380  143.2180 C   0  0  0  0  0  2  0  0  0  0  0  0
  190.4030  177.2900  139.7770 C   0  0  0  0  0  0  0  0  0  0  0  0
  190.2080  177.1440  142.2650 C   0  0  2  0  0  3  0  0  0  0  0  0
  189.5990  177.5260  138.5410 C   0  0  2  0  0  3  0  0  0  0  0  0
  189.6380  177.1680  140.8600 C   0  0  0  0  0  0  0  0  0  0  0  0
  191.6800  176.7240  142.2670 C   0  0  0  0  0  2  0  0  0  0  0  0
  188.1940  177.3810  140.5370 C   0  0  1  0  0  3  0  0  0  0  0  0
  187.1400  179.4030  141.2160 O   0  0  0  0  0  0  0  0  0  0  0  0
  192.4520  177.5030  141.2050 C   0  0  0  0  0  2  0  0  0  0  0  0
  187.5450  178.2990  141.5470 C   0  0  0  0  0  0  0  0  0  0  0  0
  191.9050  177.1840  139.8120 C   0  0  0  0  0  2  0  0  0  0  0  0
  188.2210  177.9270  139.1040 C   0  0  0  0  0  2  0  0  0  0  0  0
  189.4190  176.2620  143.2400 C   0  0  0  0  0  2  0  0  0  0  0  0
  187.4320  177.8810  142.9930 C   0  0  0  0  0  2  0  0  0  0  0  0
  186.2690  178.4290  138.1370 O   0  0  0  0  0  0  0  0  0  0  0  0
  185.7560  178.0890  137.8960 N   0  0  0  0  0  2  0  0  0  0  0  0
  187.0570  177.4720  138.2820 C   0  0  0  0  0  1  0  0  0  0  0  0
  184.5740  177.2130  137.2920 C   0  0  1  0  0  3  0  0  0  0  0  0
  182.2040  176.9400  137.3650 O   0  0  0  0  0  0  0  0  0  0  0  0
  181.6660  177.8430  139.3930 O   0  0  0  0  0  1  0  0  0  0  0  0
  183.2430  177.8430  137.6560 C   0  0  1  0  0  3  0  0  0  0  0  0
  182.5870  177.0470  138.7150 C   0  0  2  0  0  3  0  0  0  0  0  0
  184.6950  177.1260  135.7770 C   0  0  0  0  0  2  0  0  0  0  0  0
  185.1890  175.7530  135.3610 C   0  0  0  0  0  1  0  0  0  0  0  0
  189.6010  176.3210  137.5610 C   0  0  2  0  0  3  0  0  0  0  0  0
  189.7360  177.8770  135.5140 C   0  0  0  0  0  2  0  0  0  0  0  0
  190.1350  176.6010  136.1280 C   0  0  2  0  0  0  0  0  0  0  0  0
  188.8840  176.4090  134.7830 S   0  0  0  0  0  0  0  0  0  0  0  0
  191.4980  174.5540  135.2800 C   0  0  0  0  0  2  0  0  0  0  0  0
  191.5120  176.0210  135.7530 C   0  0  0  0  0  3  0  0  0  0  0  0
  193.9290  175.7490  136.5060 C   0  0  0  0  0  2  0  0  0  0  0  0
  192.5760  176.3770  136.8010 C   0  0  0  0  0  2  0  0  0  0  0  0
  193.2910  173.3000  136.4680 C   0  0  0  0  0  2  0  0  0  0  0  0
  194.0300  174.4050  137.2160 C   0  0  0  0  0  2  0  0  0  0  0  0
  191.7910  173.5550  136.3910 C   0  0  0  0  0  2  0  0  0  0  0  0
  188.2480  175.6130  137.5980 C   0  0  0  0  0  2  0  0  0  0  0  0
  188.4050  174.1520  137.2190 C   0  0  0  0  0  1  0  0  0  0  0  0
  1 13  1  0  0  0  0
  2 11  1  0  0  0  0
  2  5  2  0  0  0  0
  3  6  1  6  0  0  0
  3 13  1  0  0  0  0
  4 25  1  6  0  0  0
  4 12  1  0  0  0  0
  4  2  1  0  0  0  0
  5  3  1  0  0  0  0
  7 12  1  6  0  0  0
  7  5  1  0  0  0  0
  7 10  1  0  0  0  0
  8 10  2  0  0  0  0
  9  6  1  0  0  0  0
 10 14  1  0  0  0  0
 11  9  1  0  0  0  0
 14  1  1  0  0  0  0
 15 17  1  0  0  0  0
 16 15  1  0  0  0  0
 18 23  1  6  0  0  0
 18 16  1  0  0  0  0
 19 21  1  0  0  0  0
 19 22  1  0  0  0  0
 21 18  1  6  0  0  0
 21 22  1  0  0  0  0
 22 20  1  1  0  0  0
 24 23  1  0  0  0  0
 25 36  1  6  0  0  0
 26 27  1  0  0  0  0
 27 25  1  1  0  0  0
 28 26  1  0  0  0  0
 28 27  1  0  0  0  0
 29 30  1  0  0  0  0
 29 35  1  0  0  0  0
 30 27  1  0  0  0  0
 30 32  1  0  0  0  0
 31 32  1  0  0  0  0
 31 34  1  0  0  0  0
 33 34  1  0  0  0  0
 35 33  1  0  0  0  0
 37 36  1  0  0  0  0
M  END
>  <MODEL>
6

>  <REMARK>
 VINA RESULT:      -6.7      3.238      7.888
  Name = 
  8 active torsions:
  status: ('A' for Active; 'I' for Inactive)
    1  A    between atoms: C_6  and  C_31
    2  A    between atoms: C_7  and  C_14
    3  A    between atoms: C_10  and  C_14
    4  A    between atoms: C_11  and  C_26
    5  A    between atoms: C_14  and  C_31
    6  A    between atoms: C_17  and  C_26
    7  A    between atoms: C_26  and  N_33
    8  A    between atoms: C_29  and  C_36
                            x       y       z     vdW  Elec       q    Type
                         _______ _______ _______ _____ _____    ______ ____

>  <TORSDO>
F 8

$$$$
=
 OpenBabel11052415163D

 37 41  0  0  1  0  0  0  0  0999 V2000
  186.7980  176.7520  143.9430 C   0  0  0  0  0  2  0  0  0  0  0  0
  188.6600  177.7830  140.1570 C   0  0  0  0  0  0  0  0  0  0  0  0
  188.9540  177.2850  142.5890 C   0  0  2  0  0  3  0  0  0  0  0  0
  187.6710  178.3080  139.1690 C   0  0  2  0  0  3  0  0  0  0  0  0
  188.1220  177.5980  141.3600 C   0  0  0  0  0  0  0  0  0  0  0  0
  190.3080  176.6800  142.2110 C   0  0  0  0  0  2  0  0  0  0  0  0
  186.6960  178.0460  141.3960 C   0  0  1  0  0  3  0  0  0  0  0  0
  186.1420  180.0610  142.5330 O   0  0  0  0  0  0  0  0  0  0  0  0
  190.9640  177.5040  141.1050 C   0  0  0  0  0  2  0  0  0  0  0  0
  186.4220  178.8760  142.6290 C   0  0  0  0  0  0  0  0  0  0  0  0
  190.1010  177.4760  139.8420 C   0  0  0  0  0  2  0  0  0  0  0  0
  186.5190  178.7960  140.0700 C   0  0  0  0  0  2  0  0  0  0  0  0
  188.2470  176.3770  143.6020 C   0  0  0  0  0  2  0  0  0  0  0  0
  186.5400  178.2610  144.0020 C   0  0  0  0  0  2  0  0  0  0  0  0
  184.5560  179.7220  139.5370 O   0  0  0  0  0  0  0  0  0  0  0  0
  183.9500  179.5020  139.3900 N   0  0  0  0  0  2  0  0  0  0  0  0
  185.1540  178.6280  139.4800 C   0  0  0  0  0  1  0  0  0  0  0  0
  182.5270  178.9080  139.0000 C   0  0  1  0  0  3  0  0  0  0  0  0
  180.3830  178.4880  139.9620 O   0  0  0  0  0  0  0  0  0  0  0  0
  180.7770  178.7870  142.1920 O   0  0  0  0  0  1  0  0  0  0  0  0
  181.5010  179.3400  140.0300 C   0  0  1  0  0  3  0  0  0  0  0  0
  181.2920  178.2540  141.0120 C   0  0  2  0  0  3  0  0  0  0  0  0
  182.1020  179.4030  137.6250 C   0  0  0  0  0  2  0  0  0  0  0  0
  181.8280  178.2320  136.6990 C   0  0  0  0  0  1  0  0  0  0  0  0
  187.2790  177.2770  138.0760 C   0  0  2  0  0  3  0  0  0  0  0  0
  189.3410  177.8790  136.6550 C   0  0  0  0  0  2  0  0  0  0  0  0
  188.4150  176.8310  137.1130 C   0  0  2  0  0  0  0  0  0  0  0  0
  188.1670  177.3090  135.3460 S   0  0  0  0  0  0  0  0  0  0  0  0
  190.4920  175.2660  137.0830 C   0  0  0  0  0  2  0  0  0  0  0  0
  188.9700  175.4030  137.2750 C   0  0  0  0  0  3  0  0  0  0  0  0
  188.6710  172.9660  136.5970 C   0  0  0  0  0  2  0  0  0  0  0  0
  188.1050  174.3760  136.5300 C   0  0  0  0  0  2  0  0  0  0  0  0
  190.9510  173.3460  135.5660 C   0  0  0  0  0  2  0  0  0  0  0  0
  189.5700  172.7220  135.3930 C   0  0  0  0  0  2  0  0  0  0  0  0
  190.8930  174.8640  135.6710 C   0  0  0  0  0  2  0  0  0  0  0  0
  185.9990  177.7220  137.3700 C   0  0  0  0  0  2  0  0  0  0  0  0
  185.1390  176.5200  137.0280 C   0  0  0  0  0  1  0  0  0  0  0  0
  1 14  1  0  0  0  0
  2  5  2  0  0  0  0
  3  6  1  6  0  0  0
  3 13  1  0  0  0  0
  4 25  1  6  0  0  0
  4 12  1  0  0  0  0
  4  2  1  0  0  0  0
  5  7  1  0  0  0  0
  5  3  1  0  0  0  0
  7 12  1  6  0  0  0
  7 10  1  0  0  0  0
  8 10  2  0  0  0  0
  9  6  1  0  0  0  0
 10 14  1  0  0  0  0
 11  2  1  0  0  0  0
 11  9  1  0  0  0  0
 13  1  1  0  0  0  0
 16 15  1  0  0  0  0
 17 15  1  0  0  0  0
 18 23  1  6  0  0  0
 18 16  1  0  0  0  0
 19 21  1  0  0  0  0
 19 22  1  0  0  0  0
 21 18  1  6  0  0  0
 21 22  1  0  0  0  0
 22 20  1  1  0  0  0
 24 23  1  0  0  0  0
 25 36  1  6  0  0  0
 26 27  1  0  0  0  0
 27 30  1  0  0  0  0
 27 25  1  1  0  0  0
 28 26  1  0  0  0  0
 28 27  1  0  0  0  0
 29 30  1  0  0  0  0
 32 31  1  0  0  0  0
 32 30  1  0  0  0  0
 33 35  1  0  0  0  0
 34 33  1  0  0  0  0
 34 31  1  0  0  0  0
 35 29  1  0  0  0  0
 37 36  1  0  0  0  0
M  END
>  <MODEL>
7

>  <REMARK>
 VINA RESULT:      -6.5      3.610      8.379
  Name = 
  8 active torsions:
  status: ('A' for Active; 'I' for Inactive)
    1  A    between atoms: C_6  and  C_31
    2  A    between atoms: C_7  and  C_14
    3  A    between atoms: C_10  and  C_14
    4  A    between atoms: C_11  and  C_26
    5  A    between atoms: C_14  and  C_31
    6  A    between atoms: C_17  and  C_26
    7  A    between atoms: C_26  and  N_33
    8  A    between atoms: C_29  and  C_36
                            x       y       z     vdW  Elec       q    Type
                         _______ _______ _______ _____ _____    ______ ____

>  <TORSDO>
F 8

$$$$
=
 OpenBabel11052415163D

 37 41  0  0  1  0  0  0  0  0999 V2000
  181.2200  179.7340  141.5770 C   0  0  0  0  0  2  0  0  0  0  0  0
  181.3400  176.2190  139.0280 C   0  0  0  0  0  0  0  0  0  0  0  0
  180.2730  177.3900  140.9610 C   0  0  2  0  0  3  0  0  0  0  0  0
  182.6200  176.1220  138.2660 C   0  0  2  0  0  3  0  0  0  0  0  0
  181.3540  177.2140  139.9130 C   0  0  0  0  0  0  0  0  0  0  0  0
  178.9720  176.6980  140.5490 C   0  0  0  0  0  2  0  0  0  0  0  0
  182.6820  177.9000  139.9440 C   0  0  1  0  0  3  0  0  0  0  0  0
  184.1330  177.5360  141.7930 O   0  0  0  0  0  0  0  0  0  0  0  0
  179.2610  175.2790  140.0640 C   0  0  0  0  0  2  0  0  0  0  0  0
  183.1460  178.1140  141.3660 C   0  0  0  0  0  0  0  0  0  0  0  0
  180.1530  175.3150  138.8220 C   0  0  0  0  0  2  0  0  0  0  0  0
  183.5840  176.9810  139.1110 C   0  0  0  0  0  2  0  0  0  0  0  0
  179.9880  178.8540  141.3180 C   0  0  0  0  0  2  0  0  0  0  0  0
  182.3650  179.0110  142.2940 C   0  0  0  0  0  2  0  0  0  0  0  0
  185.4130  176.9090  137.8290 O   0  0  0  0  0  0  0  0  0  0  0  0
  185.8740  177.3390  137.6330 N   0  0  0  0  0  2  0  0  0  0  0  0
  184.6090  177.7280  138.3170 C   0  0  0  0  0  1  0  0  0  0  0  0
  186.9270  178.4350  137.1600 C   0  0  1  0  0  3  0  0  0  0  0  0
  189.0550  179.2280  137.8940 O   0  0  0  0  0  0  0  0  0  0  0  0
  189.4980  177.8730  139.6790 O   0  0  0  0  0  1  0  0  0  0  0  0
  188.3070  178.0590  137.6660 C   0  0  1  0  0  3  0  0  0  0  0  0
  188.5040  178.6010  139.0270 C   0  0  2  0  0  3  0  0  0  0  0  0
  186.9530  178.5280  135.6410 C   0  0  0  0  0  2  0  0  0  0  0  0
  187.3800  177.2040  135.0350 C   0  0  0  0  0  1  0  0  0  0  0  0
  182.4870  176.5320  136.7740 C   0  0  2  0  0  3  0  0  0  0  0  0
  180.1360  176.5860  135.7240 C   0  0  0  0  0  2  0  0  0  0  0  0
  181.2120  177.3350  136.3930 C   0  0  2  0  0  0  0  0  0  0  0  0
  181.0510  177.7290  134.5960 S   0  0  0  0  0  0  0  0  0  0  0  0
  179.3090  178.8530  137.3080 C   0  0  0  0  0  2  0  0  0  0  0  0
  180.8110  178.5130  137.3020 C   0  0  0  0  0  3  0  0  0  0  0  0
  181.3520  180.9140  137.9550 C   0  0  0  0  0  2  0  0  0  0  0  0
  181.7670  179.7020  137.1350 C   0  0  0  0  0  2  0  0  0  0  0  0
  179.0300  181.3110  137.0280 C   0  0  0  0  0  2  0  0  0  0  0  0
  180.4660  181.8200  137.1090 C   0  0  0  0  0  2  0  0  0  0  0  0
  178.9320  179.9600  136.3330 C   0  0  0  0  0  2  0  0  0  0  0  0
  182.7600  175.3280  135.8740 C   0  0  0  0  0  2  0  0  0  0  0  0
  183.2370  174.1480  136.7010 C   0  0  0  0  0  1  0  0  0  0  0  0
  1 14  1  0  0  0  0
  2  5  2  0  0  0  0
  3  6  1  6  0  0  0
  3 13  1  0  0  0  0
  4 25  1  6  0  0  0
  4  2  1  0  0  0  0
  4 12  1  0  0  0  0
  5  7  1  0  0  0  0
  5  3  1  0  0  0  0
  7 12  1  6  0  0  0
  7 10  1  0  0  0  0
  9  6  1  0  0  0  0
 10  8  2  0  0  0  0
 10 14  1  0  0  0  0
 11  2  1  0  0  0  0
 11  9  1  0  0  0  0
 13  1  1  0  0  0  0
 15 17  1  0  0  0  0
 16 15  1  0  0  0  0
 18 23  1  6  0  0  0
 18 16  1  0  0  0  0
 19 22  1  0  0  0  0
 21 18  1  6  0  0  0
 21 19  1  0  0  0  0
 21 22  1  0  0  0  0
 22 20  1  1  0  0  0
 24 23  1  0  0  0  0
 25 36  1  6  0  0  0
 26 27  1  0  0  0  0
 27 25  1  1  0  0  0
 27 30  1  0  0  0  0
 28 26  1  0  0  0  0
 28 27  1  0  0  0  0
 30 29  1  0  0  0  0
 32 30  1  0  0  0  0
 32 31  1  0  0  0  0
 33 34  1  0  0  0  0
 34 31  1  0  0  0  0
 35 33  1  0  0  0  0
 35 29  1  0  0  0  0
 36 37  1  0  0  0  0
M  END
>  <MODEL>
8

>  <REMARK>
 VINA RESULT:      -6.1      4.729      8.358
  Name = 
  8 active torsions:
  status: ('A' for Active; 'I' for Inactive)
    1  A    between atoms: C_6  and  C_31
    2  A    between atoms: C_7  and  C_14
    3  A    between atoms: C_10  and  C_14
    4  A    between atoms: C_11  and  C_26
    5  A    between atoms: C_14  and  C_31
    6  A    between atoms: C_17  and  C_26
    7  A    between atoms: C_26  and  N_33
    8  A    between atoms: C_29  and  C_36
                            x       y       z     vdW  Elec       q    Type
                         _______ _______ _______ _____ _____    ______ ____

>  <TORSDO>
F 8

$$$$
=
 OpenBabel11052415163D

 37 41  0  0  1  0  0  0  0  0999 V2000
  189.8250  174.6330  137.5990 C   0  0  0  0  0  2  0  0  0  0  0  0
  187.2840  178.1450  137.8780 C   0  0  0  0  0  0  0  0  0  0  0  0
  188.6620  176.6450  136.4290 C   0  0  2  0  0  3  0  0  0  0  0  0
  187.1420  178.6240  139.2850 C   0  0  2  0  0  3  0  0  0  0  0  0
  188.1700  177.1570  137.7690 C   0  0  0  0  0  0  0  0  0  0  0  0
  187.6710  176.9650  135.3070 C   0  0  0  0  0  2  0  0  0  0  0  0
  188.8290  176.8660  139.0790 C   0  0  1  0  0  3  0  0  0  0  0  0
  191.0840  177.5430  139.4190 O   0  0  0  0  0  0  0  0  0  0  0  0
  187.2380  178.4260  135.3880 C   0  0  0  0  0  2  0  0  0  0  0  0
  190.3250  176.7310  138.9130 C   0  0  0  0  0  0  0  0  0  0  0  0
  186.5090  178.6910  136.7070 C   0  0  0  0  0  2  0  0  0  0  0  0
  188.3900  178.0330  139.9720 C   0  0  0  0  0  2  0  0  0  0  0  0
  188.9850  175.1450  136.4200 C   0  0  0  0  0  2  0  0  0  0  0  0
  190.9000  175.6150  138.0760 C   0  0  0  0  0  2  0  0  0  0  0  0
  188.9640  178.2900  142.1170 O   0  0  0  0  0  0  0  0  0  0  0  0
  188.8880  177.9440  142.6750 N   0  0  0  0  0  2  0  0  0  0  0  0
  188.1820  177.6330  141.3990 C   0  0  0  0  0  1  0  0  0  0  0  0
  188.6310  177.0860  143.9890 C   0  0  1  0  0  3  0  0  0  0  0  0
  189.4720  176.7280  146.1950 O   0  0  0  0  0  0  0  0  0  0  0  0
  191.6250  177.4730  146.0290 O   0  0  0  0  0  1  0  0  0  0  0  0
  189.4650  177.6440  145.1260 C   0  0  1  0  0  3  0  0  0  0  0  0
  190.6200  176.7560  145.3810 C   0  0  2  0  0  3  0  0  0  0  0  0
  187.1600  177.1270  144.3740 C   0  0  0  0  0  2  0  0  0  0  0  0
  186.8790  178.3170  145.2740 C   0  0  0  0  0  1  0  0  0  0  0  0
  185.7790  178.2560  139.9320 C   0  0  2  0  0  3  0  0  0  0  0  0
  184.1170  179.9070  138.8640 C   0  0  0  0  0  2  0  0  0  0  0  0
  184.5150  178.5050  139.0620 C   0  0  2  0  0  0  0  0  0  0  0  0
  183.0020  178.9790  140.0090 S   0  0  0  0  0  0  0  0  0  0  0  0
  183.0090  177.8580  137.0430 C   0  0  0  0  0  2  0  0  0  0  0  0
  184.2220  177.5070  137.9250 C   0  0  0  0  0  3  0  0  0  0  0  0
  183.9270  175.0460  137.3430 C   0  0  0  0  0  2  0  0  0  0  0  0
  184.2940  176.0560  138.4190 C   0  0  0  0  0  2  0  0  0  0  0  0
  181.5900  175.8310  136.7670 C   0  0  0  0  0  2  0  0  0  0  0  0
  182.4360  174.7420  137.4200 C   0  0  0  0  0  2  0  0  0  0  0  0
  181.7220  177.1710  137.4780 C   0  0  0  0  0  2  0  0  0  0  0  0
  185.6940  178.8380  141.3420 C   0  0  0  0  0  2  0  0  0  0  0  0
  184.7170  178.0390  142.1850 C   0  0  0  0  0  1  0  0  0  0  0  0
  1 14  1  0  0  0  0
  2  4  1  0  0  0  0
  3  6  1  6  0  0  0
  3  5  1  0  0  0  0
  4 25  1  1  0  0  0
  4 12  1  0  0  0  0
  5  2  2  0  0  0  0
  5  7  1  0  0  0  0
  6  9  1  0  0  0  0
  7 12  1  1  0  0  0
  9 11  1  0  0  0  0
 10  7  1  0  0  0  0
 10  8  2  0  0  0  0
 11  2  1  0  0  0  0
 13  3  1  0  0  0  0
 13  1  1  0  0  0  0
 14 10  1  0  0  0  0
 15 16  1  0  0  0  0
 16 18  1  0  0  0  0
 17 15  1  0  0  0  0
 18 23  1  1  0  0  0
 21 18  1  6  0  0  0
 21 22  1  0  0  0  0
 21 19  1  0  0  0  0
 22 20  1  1  0  0  0
 22 19  1  0  0  0  0
 23 24  1  0  0  0  0
 25 36  1  1  0  0  0
 26 27  1  0  0  0  0
 26 28  1  0  0  0  0
 27 25  1  1  0  0  0
 27 28  1  0  0  0  0
 29 35  1  0  0  0  0
 29 30  1  0  0  0  0
 30 32  1  0  0  0  0
 30 27  1  0  0  0  0
 31 34  1  0  0  0  0
 31 32  1  0  0  0  0
 33 34  1  0  0  0  0
 33 35  1  0  0  0  0
 36 37  1  0  0  0  0
M  END
>  <MODEL>
9

>  <REMARK>
 VINA RESULT:      -5.9      3.001      7.083
  Name = 
  8 active torsions:
  status: ('A' for Active; 'I' for Inactive)
    1  A    between atoms: C_6  and  C_31
    2  A    between atoms: C_7  and  C_14
    3  A    between atoms: C_10  and  C_14
    4  A    between atoms: C_11  and  C_26
    5  A    between atoms: C_14  and  C_31
    6  A    between atoms: C_17  and  C_26
    7  A    between atoms: C_26  and  N_33
    8  A    between atoms: C_29  and  C_36
                            x       y       z     vdW  Elec       q    Type
                         _______ _______ _______ _____ _____    ______ ____

>  <TORSDO>
F 8

$$$$
