=
 OpenBabel11052416033D

 34 35  0  0  1  0  0  0  0  0999 V2000
  183.3270  178.0300  140.8110 C   0  0  0  0  0  2  0  0  0  0  0  0
  182.1130  179.2000  138.8860 C   0  0  1  0  0  3  0  0  0  0  0  0
  180.6140  176.4210  140.4000 S   0  0  0  0  0  0  0  0  0  0  0  0
  182.2830  178.1140  136.0450 C   0  0  0  0  0  2  0  0  0  0  0  0
  180.9970  179.0560  141.2640 C   0  0  2  0  0  3  0  0  0  0  0  0
  182.2830  179.0720  140.4090 C   0  0  1  0  0  3  0  0  0  0  0  0
  181.7470  175.6280  136.5470 C   0  0  2  0  0  3  0  0  0  0  0  0
  180.9580  178.5000  136.7070 C   0  0  0  0  0  2  0  0  0  0  0  0
  182.2140  174.3480  136.2430 O   0  0  0  0  0  1  0  0  0  0  0  0
  181.0110  178.3330  138.2360 C   0  0  1  0  0  3  0  0  0  0  0  0
  181.3100  178.9010  142.6180 O   0  0  0  0  0  1  0  0  0  0  0  0
  178.9400  177.9120  141.8100 O   0  0  0  0  0  1  0  0  0  0  0  0
  182.3330  176.6550  135.5710 C   0  0  0  0  0  2  0  0  0  0  0  0
  181.9920  175.9650  137.9890 C   0  0  0  0  0  0  0  0  0  0  0  0
  180.9640  176.8400  138.6440 C   0  0  1  0  0  3  0  0  0  0  0  0
  183.2050  175.8070  138.5270 C   0  0  0  0  0  2  0  0  0  0  0  0
  179.9220  178.0500  140.8270 C   0  0  2  0  0  3  0  0  0  0  0  0
  181.9060  180.6670  138.5500 C   0  0  0  0  0  1  0  0  0  0  0  0
  184.7360  178.6130  140.7870 C   0  0  0  0  0  2  0  0  0  0  0  0
  185.1380  179.1650  142.1510 C   0  0  0  0  0  2  0  0  0  0  0  0
  184.9380  178.1520  143.2710 C   0  0  0  0  0  2  0  0  0  0  0  0
  185.8760  178.4240  144.4350 C   0  0  0  0  0  2  0  0  0  0  0  0
  186.7210  177.1970  144.7290 C   0  0  0  0  0  2  0  0  0  0  0  0
  187.5700  176.8330  143.5170 C   0  0  0  0  0  2  0  0  0  0  0  0
  188.9810  176.4420  143.9410 C   0  0  1  0  0  3  0  0  0  0  0  0
  189.9050  176.3850  142.7360 C   0  0  0  0  0  1  0  0  0  0  0  0
  189.5140  177.4020  144.9650 C   0  0  0  0  0  0  0  0  0  0  0  0
  189.7430  178.5620  144.6590 O   0  0  0  0  0  0  0  0  0  0  0  0
  189.7430  176.9620  146.3830 C   0  0  1  0  0  3  0  0  0  0  0  0
  191.1900  176.6800  146.6260 C   0  0  0  0  0  0  0  0  0  0  0  0
  191.9320  175.9430  145.7110 O   0  0  0  0  0  0  0  0  0  0  0  0
  191.7350  177.0880  147.6850 O   0  0  0  0  0  1  0  0  0  0  0  0
  189.2080  177.9670  147.3980 C   0  0  0  0  0  2  0  0  0  0  0  0
  188.1310  177.3320  148.2570 C   0  0  0  0  0  1  0  0  0  0  0  0
  2 18  1  1  0  0  0
  2  6  1  0  0  0  0
  3 17  1  0  0  0  0
  4  8  1  0  0  0  0
  5 11  1  1  0  0  0
  6  1  1  6  0  0  0
  6  5  1  0  0  0  0
  7  9  1  6  0  0  0
  7 14  1  0  0  0  0
 10  8  1  6  0  0  0
 10 15  1  0  0  0  0
 10  2  1  0  0  0  0
 13  4  1  0  0  0  0
 13  7  1  0  0  0  0
 14 16  2  0  0  0  0
 15 14  1  1  0  0  0
 15  3  1  0  0  0  0
 17  5  1  0  0  0  0
 17 12  1  1  0  0  0
 19  1  1  0  0  0  0
 19 20  1  0  0  0  0
 20 21  1  0  0  0  0
 21 22  1  0  0  0  0
 22 23  1  0  0  0  0
 24 25  1  0  0  0  0
 24 23  1  0  0  0  0
 25 26  1  6  0  0  0
 25 27  1  0  0  0  0
 27 29  1  0  0  0  0
 28 27  2  0  0  0  0
 29 30  1  0  0  0  0
 29 33  1  1  0  0  0
 30 32  1  0  0  0  0
 31 30  2  0  0  0  0
 33 34  1  0  0  0  0
M  END
>  <MODEL>
1

>  <REMARK>
 VINA RESULT:      -7.0      0.000      0.000
  Name = 
  12 active torsions:
  status: ('A' for Active; 'I' for Inactive)
    1  A    between atoms: C_1  and  C_9
    2  A    between atoms: C_1  and  C_20
    3  A    between atoms: C_2  and  C_25
    4  A    between atoms: C_2  and  C_32
    5  A    between atoms: C_3  and  C_25
    6  A    between atoms: C_5  and  C_19
    7  A    between atoms: C_5  and  C_32
    8  A    between atoms: C_10  and  C_12
    9  A    between atoms: C_10  and  C_20
   10  A    between atoms: C_12  and  C_22
   11  A    between atoms: C_19  and  C_22
   12  A    between atoms: C_25  and  C_27
                            x       y       z     vdW  Elec       q    Type
                         _______ _______ _______ _____ _____    ______ ____

>  <TORSDO>
F 12

$$$$
=
 OpenBabel11052416033D

 34 35  0  0  1  0  0  0  0  0999 V2000
  182.3470  178.4790  140.3990 C   0  0  0  0  0  2  0  0  0  0  0  0
  183.8870  178.0240  138.4080 C   0  0  1  0  0  3  0  0  0  0  0  0
  180.4320  178.2180  137.8730 S   0  0  0  0  0  0  0  0  0  0  0  0
  184.3300  175.1860  137.3940 C   0  0  0  0  0  2  0  0  0  0  0  0
  182.3610  180.1660  138.4400 C   0  0  2  0  0  3  0  0  0  0  0  0
  183.1240  179.0780  139.2270 C   0  0  1  0  0  3  0  0  0  0  0  0
  181.8540  174.4270  137.2720 C   0  0  2  0  0  3  0  0  0  0  0  0
  183.9850  176.3530  136.4650 C   0  0  0  0  0  2  0  0  0  0  0  0
  181.0440  173.3490  137.6340 O   0  0  0  0  0  1  0  0  0  0  0  0
  183.1520  177.4290  137.1840 C   0  0  1  0  0  3  0  0  0  0  0  0
  181.6920  181.0260  139.3160 O   0  0  0  0  0  1  0  0  0  0  0  0
  180.5770  180.6730  136.8920 O   0  0  0  0  0  1  0  0  0  0  0  0
  183.3320  174.0220  137.3170 C   0  0  0  0  0  2  0  0  0  0  0  0
  181.5400  175.6410  138.0970 C   0  0  0  0  0  0  0  0  0  0  0  0
  181.6920  176.9640  137.4040 C   0  0  1  0  0  3  0  0  0  0  0  0
  181.4940  175.5630  139.4290 C   0  0  0  0  0  2  0  0  0  0  0  0
  181.4180  179.6540  137.3410 C   0  0  2  0  0  3  0  0  0  0  0  0
  185.2220  178.6180  137.9910 C   0  0  0  0  0  1  0  0  0  0  0  0
  183.2830  177.8430  141.4220 C   0  0  0  0  0  2  0  0  0  0  0  0
  183.8180  178.8750  142.4110 C   0  0  0  0  0  2  0  0  0  0  0  0
  183.1520  178.7720  143.7770 C   0  0  0  0  0  2  0  0  0  0  0  0
  184.1820  178.7260  144.8920 C   0  0  0  0  0  2  0  0  0  0  0  0
  185.5600  178.4350  144.3250 C   0  0  0  0  0  2  0  0  0  0  0  0
  186.5950  178.3800  145.4420 C   0  0  0  0  0  2  0  0  0  0  0  0
  187.5730  177.2330  145.2210 C   0  0  1  0  0  3  0  0  0  0  0  0
  187.5640  176.7950  143.7660 C   0  0  0  0  0  1  0  0  0  0  0  0
  188.9590  177.6270  145.6420 C   0  0  0  0  0  0  0  0  0  0  0  0
  189.5950  178.4330  144.9790 O   0  0  0  0  0  0  0  0  0  0  0  0
  189.5710  177.0650  146.8940 C   0  0  1  0  0  3  0  0  0  0  0  0
  191.0210  176.7670  146.6910 C   0  0  0  0  0  0  0  0  0  0  0  0
  191.4810  176.2840  145.4720 O   0  0  0  0  0  0  0  0  0  0  0  0
  191.8280  176.9250  147.6440 O   0  0  0  0  0  1  0  0  0  0  0  0
  189.3660  177.9760  148.1000 C   0  0  0  0  0  2  0  0  0  0  0  0
  188.0120  177.7210  148.7340 C   0  0  0  0  0  1  0  0  0  0  0  0
  1 19  1  0  0  0  0
  2 18  1  6  0  0  0
  2  6  1  0  0  0  0
  5  6  1  0  0  0  0
  5 11  1  1  0  0  0
  6  1  1  6  0  0  0
  7 13  1  0  0  0  0
  7  9  1  1  0  0  0
  7 14  1  0  0  0  0
  8  4  1  0  0  0  0
 10  8  1  1  0  0  0
 10 15  1  0  0  0  0
 10  2  1  0  0  0  0
 13  4  1  0  0  0  0
 14 16  2  0  0  0  0
 15  3  1  1  0  0  0
 15 14  1  0  0  0  0
 17 12  1  1  0  0  0
 17  3  1  0  0  0  0
 17  5  1  0  0  0  0
 19 20  1  0  0  0  0
 20 21  1  0  0  0  0
 21 22  1  0  0  0  0
 23 22  1  0  0  0  0
 23 24  1  0  0  0  0
 25 26  1  6  0  0  0
 25 24  1  0  0  0  0
 25 27  1  0  0  0  0
 27 29  1  0  0  0  0
 28 27  2  0  0  0  0
 29 33  1  1  0  0  0
 30 29  1  0  0  0  0
 30 32  1  0  0  0  0
 31 30  2  0  0  0  0
 33 34  1  0  0  0  0
M  END
>  <MODEL>
2

>  <REMARK>
 VINA RESULT:      -6.9      1.842      2.458
  Name = 
  12 active torsions:
  status: ('A' for Active; 'I' for Inactive)
    1  A    between atoms: C_1  and  C_9
    2  A    between atoms: C_1  and  C_20
    3  A    between atoms: C_2  and  C_25
    4  A    between atoms: C_2  and  C_32
    5  A    between atoms: C_3  and  C_25
    6  A    between atoms: C_5  and  C_19
    7  A    between atoms: C_5  and  C_32
    8  A    between atoms: C_10  and  C_12
    9  A    between atoms: C_10  and  C_20
   10  A    between atoms: C_12  and  C_22
   11  A    between atoms: C_19  and  C_22
   12  A    between atoms: C_25  and  C_27
                            x       y       z     vdW  Elec       q    Type
                         _______ _______ _______ _____ _____    ______ ____

>  <TORSDO>
F 12

$$$$
=
 OpenBabel11052416033D

 34 35  0  0  1  0  0  0  0  0999 V2000
  183.6410  179.2240  139.7970 C   0  0  0  0  0  2  0  0  0  0  0  0
  181.2260  178.9320  140.5900 C   0  0  1  0  0  3  0  0  0  0  0  0
  181.9150  178.7970  137.1590 S   0  0  0  0  0  0  0  0  0  0  0  0
  179.2790  181.2740  140.5550 C   0  0  0  0  0  2  0  0  0  0  0  0
  182.4230  177.0090  139.2520 C   0  0  2  0  0  3  0  0  0  0  0  0
  182.5360  178.2390  140.1790 C   0  0  1  0  0  3  0  0  0  0  0  0
  179.7200  182.1100  138.1420 C   0  0  2  0  0  3  0  0  0  0  0  0
  178.9310  179.8990  139.9810 C   0  0  0  0  0  2  0  0  0  0  0  0
  179.9600  183.2960  137.4450 O   0  0  0  0  0  1  0  0  0  0  0  0
  180.1800  179.1570  139.4740 C   0  0  1  0  0  3  0  0  0  0  0  0
  183.6920  176.5110  138.9410 O   0  0  0  0  0  1  0  0  0  0  0  0
  181.7710  176.1530  137.0890 O   0  0  0  0  0  1  0  0  0  0  0  0
  179.1600  182.4150  139.5360 C   0  0  0  0  0  2  0  0  0  0  0  0
  180.9420  181.2380  138.1650 C   0  0  0  0  0  0  0  0  0  0  0  0
  180.6950  179.7580  138.1440 C   0  0  1  0  0  3  0  0  0  0  0  0
  182.1220  181.7340  138.5470 C   0  0  0  0  0  2  0  0  0  0  0  0
  181.5800  177.2080  137.9840 C   0  0  2  0  0  3  0  0  0  0  0  0
  180.6160  178.1540  141.7440 C   0  0  0  0  0  1  0  0  0  0  0  0
  184.8770  179.0440  140.6720 C   0  0  0  0  0  2  0  0  0  0  0  0
  184.5620  178.2360  141.9280 C   0  0  0  0  0  2  0  0  0  0  0  0
  185.3730  178.6940  143.1330 C   0  0  0  0  0  2  0  0  0  0  0  0
  184.4820  178.9330  144.3400 C   0  0  0  0  0  2  0  0  0  0  0  0
  185.2200  178.5840  145.6190 C   0  0  0  0  0  2  0  0  0  0  0  0
  186.3780  177.6380  145.3230 C   0  0  0  0  0  2  0  0  0  0  0  0
  187.6620  178.1290  145.9820 C   0  0  1  0  0  3  0  0  0  0  0  0
  187.6710  177.7810  147.4610 C   0  0  0  0  0  1  0  0  0  0  0  0
  188.8650  177.5470  145.2980 C   0  0  0  0  0  0  0  0  0  0  0  0
  189.5630  176.7280  145.8770 O   0  0  0  0  0  0  0  0  0  0  0  0
  189.2110  177.9370  143.8890 C   0  0  1  0  0  3  0  0  0  0  0  0
  190.6490  178.3290  143.7820 C   0  0  0  0  0  0  0  0  0  0  0  0
  191.6070  177.4060  143.3830 O   0  0  0  0  0  0  0  0  0  0  0  0
  190.9990  179.4980  144.0880 O   0  0  0  0  0  1  0  0  0  0  0  0
  188.8700  176.8420  142.8830 C   0  0  0  0  0  2  0  0  0  0  0  0
  188.4560  177.4510  141.5570 C   0  0  0  0  0  1  0  0  0  0  0  0
  1 19  1  0  0  0  0
  2 18  1  1  0  0  0
  3 17  1  0  0  0  0
  5 11  1  6  0  0  0
  5  6  1  0  0  0  0
  6  1  1  6  0  0  0
  6  2  1  0  0  0  0
  7  9  1  1  0  0  0
  7 14  1  0  0  0  0
  7 13  1  0  0  0  0
  8  4  1  0  0  0  0
 10  8  1  1  0  0  0
 10  2  1  0  0  0  0
 13  4  1  0  0  0  0
 14 16  2  0  0  0  0
 15  3  1  1  0  0  0
 15 14  1  0  0  0  0
 15 10  1  0  0  0  0
 17 12  1  6  0  0  0
 17  5  1  0  0  0  0
 19 20  1  0  0  0  0
 20 21  1  0  0  0  0
 21 22  1  0  0  0  0
 22 23  1  0  0  0  0
 24 23  1  0  0  0  0
 24 25  1  0  0  0  0
 25 26  1  1  0  0  0
 27 28  2  0  0  0  0
 27 25  1  0  0  0  0
 29 33  1  6  0  0  0
 29 27  1  0  0  0  0
 30 29  1  0  0  0  0
 30 32  1  0  0  0  0
 31 30  2  0  0  0  0
 34 33  1  0  0  0  0
M  END
>  <MODEL>
3

>  <REMARK>
 VINA RESULT:      -6.9      2.226      4.273
  Name = 
  12 active torsions:
  status: ('A' for Active; 'I' for Inactive)
    1  A    between atoms: C_1  and  C_9
    2  A    between atoms: C_1  and  C_20
    3  A    between atoms: C_2  and  C_25
    4  A    between atoms: C_2  and  C_32
    5  A    between atoms: C_3  and  C_25
    6  A    between atoms: C_5  and  C_19
    7  A    between atoms: C_5  and  C_32
    8  A    between atoms: C_10  and  C_12
    9  A    between atoms: C_10  and  C_20
   10  A    between atoms: C_12  and  C_22
   11  A    between atoms: C_19  and  C_22
   12  A    between atoms: C_25  and  C_27
                            x       y       z     vdW  Elec       q    Type
                         _______ _______ _______ _____ _____    ______ ____

>  <TORSDO>
F 12

$$$$
=
 OpenBabel11052416033D

 34 35  0  0  1  0  0  0  0  0999 V2000
  183.4930  178.8820  139.3480 C   0  0  0  0  0  2  0  0  0  0  0  0
  181.2590  178.8150  140.5920 C   0  0  1  0  0  3  0  0  0  0  0  0
  181.2910  178.2980  137.1290 S   0  0  0  0  0  0  0  0  0  0  0  0
  179.4350  181.2540  140.6550 C   0  0  0  0  0  2  0  0  0  0  0  0
  182.1070  176.7000  139.2780 C   0  0  2  0  0  3  0  0  0  0  0  0
  182.4400  178.0080  140.0290 C   0  0  1  0  0  3  0  0  0  0  0  0
  179.4530  181.8180  138.1250 C   0  0  2  0  0  3  0  0  0  0  0  0
  178.9310  179.8520  140.3070 C   0  0  0  0  0  2  0  0  0  0  0  0
  179.6060  182.9120  137.2720 O   0  0  0  0  0  1  0  0  0  0  0  0
  180.0330  178.9900  139.6660 C   0  0  1  0  0  3  0  0  0  0  0  0
  183.2740  176.0990  138.7980 O   0  0  0  0  0  1  0  0  0  0  0  0
  181.0300  175.6740  137.3740 O   0  0  0  0  0  1  0  0  0  0  0  0
  179.1740  182.2930  139.5560 C   0  0  0  0  0  2  0  0  0  0  0  0
  180.6210  180.8810  138.0220 C   0  0  0  0  0  0  0  0  0  0  0  0
  180.3150  179.4240  138.2070 C   0  0  1  0  0  3  0  0  0  0  0  0
  181.8710  181.3420  138.1280 C   0  0  0  0  0  2  0  0  0  0  0  0
  181.0520  176.8220  138.1680 C   0  0  2  0  0  3  0  0  0  0  0  0
  180.8430  178.1950  141.9150 C   0  0  0  0  0  1  0  0  0  0  0  0
  184.5770  179.3170  140.3300 C   0  0  0  0  0  2  0  0  0  0  0  0
  184.6840  178.3560  141.5090 C   0  0  0  0  0  2  0  0  0  0  0  0
  184.9410  179.0770  142.8270 C   0  0  0  0  0  2  0  0  0  0  0  0
  185.7820  178.2300  143.7650 C   0  0  0  0  0  2  0  0  0  0  0  0
  187.0610  177.7910  143.0760 C   0  0  0  0  0  2  0  0  0  0  0  0
  187.6460  176.5670  143.7700 C   0  0  0  0  0  2  0  0  0  0  0  0
  189.1690  176.6240  143.7800 C   0  0  1  0  0  3  0  0  0  0  0  0
  189.6930  177.1530  142.4560 C   0  0  0  0  0  1  0  0  0  0  0  0
  189.6620  177.4720  144.9170 C   0  0  0  0  0  0  0  0  0  0  0  0
  189.9460  178.6450  144.7280 O   0  0  0  0  0  0  0  0  0  0  0  0
  189.7830  176.9040  146.3020 C   0  0  1  0  0  3  0  0  0  0  0  0
  191.2140  176.6560  146.6530 C   0  0  0  0  0  0  0  0  0  0  0  0
  192.0190  175.8740  145.8340 O   0  0  0  0  0  0  0  0  0  0  0  0
  191.6860  177.1350  147.7170 O   0  0  0  0  0  1  0  0  0  0  0  0
  189.1100  177.7820  147.3510 C   0  0  0  0  0  2  0  0  0  0  0  0
  187.6120  177.5430  147.3630 C   0  0  0  0  0  1  0  0  0  0  0  0
  1 19  1  0  0  0  0
  2 18  1  1  0  0  0
  3 17  1  0  0  0  0
  5 11  1  6  0  0  0
  5  6  1  0  0  0  0
  6  1  1  6  0  0  0
  6  2  1  0  0  0  0
  7  9  1  6  0  0  0
  7 13  1  0  0  0  0
  8  4  1  0  0  0  0
 10  8  1  1  0  0  0
 10  2  1  0  0  0  0
 13  4  1  0  0  0  0
 14  7  1  0  0  0  0
 14 16  2  0  0  0  0
 14 15  1  0  0  0  0
 15  3  1  1  0  0  0
 15 10  1  0  0  0  0
 17 12  1  6  0  0  0
 17  5  1  0  0  0  0
 19 20  1  0  0  0  0
 20 21  1  0  0  0  0
 21 22  1  0  0  0  0
 23 22  1  0  0  0  0
 23 24  1  0  0  0  0
 24 25  1  0  0  0  0
 25 26  1  6  0  0  0
 25 27  1  0  0  0  0
 27 29  1  0  0  0  0
 28 27  2  0  0  0  0
 29 30  1  0  0  0  0
 29 33  1  1  0  0  0
 30 32  1  0  0  0  0
 31 30  2  0  0  0  0
 33 34  1  0  0  0  0
M  END
>  <MODEL>
4

>  <REMARK>
 VINA RESULT:      -6.8      1.928      3.591
  Name = 
  12 active torsions:
  status: ('A' for Active; 'I' for Inactive)
    1  A    between atoms: C_1  and  C_9
    2  A    between atoms: C_1  and  C_20
    3  A    between atoms: C_2  and  C_25
    4  A    between atoms: C_2  and  C_32
    5  A    between atoms: C_3  and  C_25
    6  A    between atoms: C_5  and  C_19
    7  A    between atoms: C_5  and  C_32
    8  A    between atoms: C_10  and  C_12
    9  A    between atoms: C_10  and  C_20
   10  A    between atoms: C_12  and  C_22
   11  A    between atoms: C_19  and  C_22
   12  A    between atoms: C_25  and  C_27
                            x       y       z     vdW  Elec       q    Type
                         _______ _______ _______ _____ _____    ______ ____

>  <TORSDO>
F 12

$$$$
=
 OpenBabel11052416033D

 34 35  0  0  1  0  0  0  0  0999 V2000
  183.2730  178.1390  140.8600 C   0  0  0  0  0  2  0  0  0  0  0  0
  182.0190  179.2460  138.9240 C   0  0  1  0  0  3  0  0  0  0  0  0
  180.4950  176.6050  140.6460 S   0  0  0  0  0  0  0  0  0  0  0  0
  182.0340  178.0050  136.1420 C   0  0  0  0  0  2  0  0  0  0  0  0
  180.9990  179.2680  141.3480 C   0  0  2  0  0  3  0  0  0  0  0  0
  182.2480  179.1940  140.4430 C   0  0  1  0  0  3  0  0  0  0  0  0
  181.4410  175.5690  136.8000 C   0  0  2  0  0  3  0  0  0  0  0  0
  180.7520  178.4710  136.8330 C   0  0  0  0  0  2  0  0  0  0  0  0
  181.8530  174.2590  136.5480 O   0  0  0  0  0  1  0  0  0  0  0  0
  180.8630  178.3840  138.3660 C   0  0  1  0  0  3  0  0  0  0  0  0
  181.3620  179.1750  142.6950 O   0  0  0  0  0  1  0  0  0  0  0  0
  178.9310  178.2270  142.0380 O   0  0  0  0  0  1  0  0  0  0  0  0
  182.0170  176.5220  135.7470 C   0  0  0  0  0  2  0  0  0  0  0  0
  181.7560  175.9740  138.2110 C   0  0  0  0  0  0  0  0  0  0  0  0
  180.7840  176.9180  138.8570 C   0  0  1  0  0  3  0  0  0  0  0  0
  182.9840  175.8030  138.7070 C   0  0  0  0  0  2  0  0  0  0  0  0
  179.8740  178.2780  141.0100 C   0  0  2  0  0  3  0  0  0  0  0  0
  181.8450  180.6990  138.5160 C   0  0  0  0  0  1  0  0  0  0  0  0
  184.6980  178.5980  140.5650 C   0  0  0  0  0  2  0  0  0  0  0  0
  185.4630  178.9110  141.8460 C   0  0  0  0  0  2  0  0  0  0  0  0
  184.8350  178.2620  143.0730 C   0  0  0  0  0  2  0  0  0  0  0  0
  184.5410  179.2900  144.1520 C   0  0  0  0  0  2  0  0  0  0  0  0
  184.9860  178.7720  145.5090 C   0  0  0  0  0  2  0  0  0  0  0  0
  186.1320  177.7820  145.3500 C   0  0  0  0  0  2  0  0  0  0  0  0
  187.3480  178.2250  146.1550 C   0  0  1  0  0  3  0  0  0  0  0  0
  187.1530  177.9190  147.6310 C   0  0  0  0  0  1  0  0  0  0  0  0
  188.5950  177.5640  145.6430 C   0  0  0  0  0  0  0  0  0  0  0  0
  189.2390  176.8220  146.3690 O   0  0  0  0  0  0  0  0  0  0  0  0
  189.0520  177.7790  144.2280 C   0  0  1  0  0  3  0  0  0  0  0  0
  190.4870  178.1900  144.1880 C   0  0  0  0  0  0  0  0  0  0  0  0
  191.4940  177.2730  144.4640 O   0  0  0  0  0  1  0  0  0  0  0  0
  190.7860  179.3850  143.9310 O   0  0  0  0  0  0  0  0  0  0  0  0
  188.8110  176.5570  143.3470 C   0  0  0  0  0  2  0  0  0  0  0  0
  189.2430  176.8370  141.9210 C   0  0  0  0  0  1  0  0  0  0  0  0
  2 18  1  1  0  0  0
  2  6  1  0  0  0  0
  3 17  1  0  0  0  0
  4  8  1  0  0  0  0
  5 11  1  1  0  0  0
  6  1  1  6  0  0  0
  6  5  1  0  0  0  0
  7  9  1  6  0  0  0
  7 14  1  0  0  0  0
 10  8  1  6  0  0  0
 10 15  1  0  0  0  0
 10  2  1  0  0  0  0
 13  4  1  0  0  0  0
 13  7  1  0  0  0  0
 14 16  2  0  0  0  0
 15 14  1  1  0  0  0
 15  3  1  0  0  0  0
 17  5  1  0  0  0  0
 17 12  1  1  0  0  0
 19  1  1  0  0  0  0
 19 20  1  0  0  0  0
 20 21  1  0  0  0  0
 21 22  1  0  0  0  0
 22 23  1  0  0  0  0
 24 23  1  0  0  0  0
 24 25  1  0  0  0  0
 25 26  1  1  0  0  0
 27 25  1  0  0  0  0
 27 28  2  0  0  0  0
 29 33  1  6  0  0  0
 29 27  1  0  0  0  0
 30 29  1  0  0  0  0
 30 31  1  0  0  0  0
 32 30  2  0  0  0  0
 34 33  1  0  0  0  0
M  END
>  <MODEL>
5

>  <REMARK>
 VINA RESULT:      -6.8      1.063      2.220
  Name = 
  12 active torsions:
  status: ('A' for Active; 'I' for Inactive)
    1  A    between atoms: C_1  and  C_9
    2  A    between atoms: C_1  and  C_20
    3  A    between atoms: C_2  and  C_25
    4  A    between atoms: C_2  and  C_32
    5  A    between atoms: C_3  and  C_25
    6  A    between atoms: C_5  and  C_19
    7  A    between atoms: C_5  and  C_32
    8  A    between atoms: C_10  and  C_12
    9  A    between atoms: C_10  and  C_20
   10  A    between atoms: C_12  and  C_22
   11  A    between atoms: C_19  and  C_22
   12  A    between atoms: C_25  and  C_27
                            x       y       z     vdW  Elec       q    Type
                         _______ _______ _______ _____ _____    ______ ____

>  <TORSDO>
F 12

$$$$
=
 OpenBabel11052416033D

 34 35  0  0  1  0  0  0  0  0999 V2000
  181.1470  178.5320  141.1060 C   0  0  0  0  0  2  0  0  0  0  0  0
  182.9650  178.5280  139.3050 C   0  0  1  0  0  3  0  0  0  0  0  0
  179.6050  178.3840  138.3280 S   0  0  0  0  0  0  0  0  0  0  0  0
  183.9020  175.9200  138.0400 C   0  0  0  0  0  2  0  0  0  0  0  0
  181.1730  180.4530  139.3750 C   0  0  2  0  0  3  0  0  0  0  0  0
  181.9730  179.3680  140.1270 C   0  0  1  0  0  3  0  0  0  0  0  0
  181.5830  174.8980  137.4940 C   0  0  2  0  0  3  0  0  0  0  0  0
  183.5190  177.1500  137.2140 C   0  0  0  0  0  2  0  0  0  0  0  0
  180.8870  173.6940  137.6150 O   0  0  0  0  0  1  0  0  0  0  0  0
  182.4700  178.0180  137.9320 C   0  0  1  0  0  3  0  0  0  0  0  0
  180.2940  181.1060  140.2440 O   0  0  0  0  0  1  0  0  0  0  0  0
  179.5390  180.9470  137.6650 O   0  0  0  0  0  1  0  0  0  0  0  0
  183.0850  174.6670  137.6940 C   0  0  0  0  0  2  0  0  0  0  0  0
  181.0120  175.9480  138.4020 C   0  0  0  0  0  0  0  0  0  0  0  0
  181.0690  177.3590  137.8940 C   0  0  1  0  0  3  0  0  0  0  0  0
  180.8150  175.6900  139.6980 C   0  0  0  0  0  2  0  0  0  0  0  0
  180.4480  179.9830  138.1050 C   0  0  2  0  0  3  0  0  0  0  0  0
  184.2490  179.3240  139.1460 C   0  0  0  0  0  1  0  0  0  0  0  0
  181.5180  178.8390  142.5530 C   0  0  0  0  0  2  0  0  0  0  0  0
  182.9560  178.4360  142.8620 C   0  0  0  0  0  2  0  0  0  0  0  0
  183.6570  179.4320  143.7770 C   0  0  0  0  0  2  0  0  0  0  0  0
  185.0960  179.0230  144.0400 C   0  0  0  0  0  2  0  0  0  0  0  0
  185.3020  178.7380  145.5170 C   0  0  0  0  0  2  0  0  0  0  0  0
  186.1690  177.4990  145.7030 C   0  0  0  0  0  2  0  0  0  0  0  0
  187.6450  177.8380  145.5350 C   0  0  1  0  0  3  0  0  0  0  0  0
  188.4170  177.5140  146.8030 C   0  0  0  0  0  1  0  0  0  0  0  0
  188.2290  177.1040  144.3630 C   0  0  0  0  0  0  0  0  0  0  0  0
  187.5090  176.4370  143.6360 O   0  0  0  0  0  0  0  0  0  0  0  0
  189.6950  177.2010  144.0490 C   0  0  1  0  0  3  0  0  0  0  0  0
  190.0210  176.4660  142.7900 C   0  0  0  0  0  0  0  0  0  0  0  0
  189.9500  177.1050  141.5580 O   0  0  0  0  0  0  0  0  0  0  0  0
  190.3330  175.2480  142.8430 O   0  0  0  0  0  1  0  0  0  0  0  0
  190.1790  178.6460  143.9770 C   0  0  0  0  0  2  0  0  0  0  0  0
  191.6950  178.6990  143.9670 C   0  0  0  0  0  1  0  0  0  0  0  0
  1 19  1  0  0  0  0
  2 18  1  6  0  0  0
  2  6  1  0  0  0  0
  5  6  1  0  0  0  0
  5 11  1  1  0  0  0
  6  1  1  6  0  0  0
  7  9  1  1  0  0  0
  7 13  1  0  0  0  0
  7 14  1  0  0  0  0
  8  4  1  0  0  0  0
 10  8  1  1  0  0  0
 10  2  1  0  0  0  0
 13  4  1  0  0  0  0
 14 16  2  0  0  0  0
 15 10  1  0  0  0  0
 15  3  1  1  0  0  0
 15 14  1  0  0  0  0
 17 12  1  1  0  0  0
 17  3  1  0  0  0  0
 17  5  1  0  0  0  0
 19 20  1  0  0  0  0
 20 21  1  0  0  0  0
 21 22  1  0  0  0  0
 22 23  1  0  0  0  0
 23 24  1  0  0  0  0
 25 24  1  0  0  0  0
 25 26  1  1  0  0  0
 27 25  1  0  0  0  0
 28 27  2  0  0  0  0
 29 33  1  6  0  0  0
 29 27  1  0  0  0  0
 30 32  1  0  0  0  0
 30 29  1  0  0  0  0
 31 30  2  0  0  0  0
 34 33  1  0  0  0  0
M  END
>  <MODEL>
6

>  <REMARK>
 VINA RESULT:      -6.6      2.041      3.063
  Name = 
  12 active torsions:
  status: ('A' for Active; 'I' for Inactive)
    1  A    between atoms: C_1  and  C_9
    2  A    between atoms: C_1  and  C_20
    3  A    between atoms: C_2  and  C_25
    4  A    between atoms: C_2  and  C_32
    5  A    between atoms: C_3  and  C_25
    6  A    between atoms: C_5  and  C_19
    7  A    between atoms: C_5  and  C_32
    8  A    between atoms: C_10  and  C_12
    9  A    between atoms: C_10  and  C_20
   10  A    between atoms: C_12  and  C_22
   11  A    between atoms: C_19  and  C_22
   12  A    between atoms: C_25  and  C_27
                            x       y       z     vdW  Elec       q    Type
                         _______ _______ _______ _____ _____    ______ ____

>  <TORSDO>
F 12

$$$$
=
 OpenBabel11052416033D

 34 35  0  0  1  0  0  0  0  0999 V2000
  180.4440  179.4100  140.1040 C   0  0  0  0  0  2  0  0  0  0  0  0
  182.6820  178.9740  138.9430 C   0  0  1  0  0  3  0  0  0  0  0  0
  179.7520  179.0060  137.0250 S   0  0  0  0  0  0  0  0  0  0  0  0
  183.5870  176.1340  138.3140 C   0  0  0  0  0  2  0  0  0  0  0  0
  181.2170  181.0480  138.2590 C   0  0  2  0  0  3  0  0  0  0  0  0
  181.6180  180.0130  139.3320 C   0  0  1  0  0  3  0  0  0  0  0  0
  181.4060  175.2660  137.2140 C   0  0  2  0  0  3  0  0  0  0  0  0
  183.6220  177.2620  137.2810 C   0  0  0  0  0  2  0  0  0  0  0  0
  180.5510  174.1630  137.2530 O   0  0  0  0  0  1  0  0  0  0  0  0
  182.5360  178.3190  137.5500 C   0  0  1  0  0  3  0  0  0  0  0  0
  180.2210  181.9000  138.7460 O   0  0  0  0  0  1  0  0  0  0  0  0
  180.2180  181.4410  136.0940 O   0  0  0  0  0  1  0  0  0  0  0  0
  182.7440  174.9260  137.8800 C   0  0  0  0  0  2  0  0  0  0  0  0
  180.7440  176.4860  137.7880 C   0  0  0  0  0  0  0  0  0  0  0  0
  181.1300  177.7970  137.1670 C   0  0  1  0  0  3  0  0  0  0  0  0
  180.1530  176.4370  138.9850 C   0  0  0  0  0  2  0  0  0  0  0  0
  180.8270  180.4700  136.8900 C   0  0  2  0  0  3  0  0  0  0  0  0
  184.0520  179.6140  139.0900 C   0  0  0  0  0  1  0  0  0  0  0  0
  180.5510  179.6970  141.5980 C   0  0  0  0  0  2  0  0  0  0  0  0
  181.1270  178.5070  142.3580 C   0  0  0  0  0  2  0  0  0  0  0  0
  181.7650  178.9150  143.6810 C   0  0  0  0  0  2  0  0  0  0  0  0
  183.2760  179.0100  143.5600 C   0  0  0  0  0  2  0  0  0  0  0  0
  183.9230  178.8960  144.9280 C   0  0  0  0  0  2  0  0  0  0  0  0
  185.3260  179.4910  144.9040 C   0  0  0  0  0  2  0  0  0  0  0  0
  186.2970  178.6260  145.6990 C   0  0  1  0  0  3  0  0  0  0  0  0
  185.5770  177.9180  146.8350 C   0  0  0  0  0  1  0  0  0  0  0  0
  186.9730  177.6270  144.8040 C   0  0  0  0  0  0  0  0  0  0  0  0
  186.4000  177.2060  143.8110 O   0  0  0  0  0  0  0  0  0  0  0  0
  188.3690  177.1560  145.0980 C   0  0  1  0  0  3  0  0  0  0  0  0
  189.2060  177.1640  143.8600 C   0  0  0  0  0  0  0  0  0  0  0  0
  189.8950  178.3080  143.4780 O   0  0  0  0  0  1  0  0  0  0  0  0
  189.2620  176.1330  143.1400 O   0  0  0  0  0  0  0  0  0  0  0  0
  189.0340  177.9650  146.2080 C   0  0  0  0  0  2  0  0  0  0  0  0
  189.4220  177.0610  147.3630 C   0  0  0  0  0  1  0  0  0  0  0  0
  1 19  1  0  0  0  0
  2 18  1  6  0  0  0
  2  6  1  0  0  0  0
  5 11  1  1  0  0  0
  5  6  1  0  0  0  0
  6  1  1  6  0  0  0
  7  9  1  1  0  0  0
  7 14  1  0  0  0  0
  7 13  1  0  0  0  0
  8  4  1  0  0  0  0
 10  8  1  1  0  0  0
 10  2  1  0  0  0  0
 13  4  1  0  0  0  0
 14 16  2  0  0  0  0
 15  3  1  1  0  0  0
 15 10  1  0  0  0  0
 15 14  1  0  0  0  0
 17 12  1  6  0  0  0
 17  3  1  0  0  0  0
 17  5  1  0  0  0  0
 19 20  1  0  0  0  0
 20 21  1  0  0  0  0
 22 21  1  0  0  0  0
 22 23  1  0  0  0  0
 24 23  1  0  0  0  0
 24 25  1  0  0  0  0
 25 26  1  1  0  0  0
 27 29  1  0  0  0  0
 27 25  1  0  0  0  0
 28 27  2  0  0  0  0
 29 33  1  1  0  0  0
 30 29  1  0  0  0  0
 31 30  1  0  0  0  0
 32 30  2  0  0  0  0
 33 34  1  0  0  0  0
M  END
>  <MODEL>
7

>  <REMARK>
 VINA RESULT:      -6.2      2.249      3.474
  Name = 
  12 active torsions:
  status: ('A' for Active; 'I' for Inactive)
    1  A    between atoms: C_1  and  C_9
    2  A    between atoms: C_1  and  C_20
    3  A    between atoms: C_2  and  C_25
    4  A    between atoms: C_2  and  C_32
    5  A    between atoms: C_3  and  C_25
    6  A    between atoms: C_5  and  C_19
    7  A    between atoms: C_5  and  C_32
    8  A    between atoms: C_10  and  C_12
    9  A    between atoms: C_10  and  C_20
   10  A    between atoms: C_12  and  C_22
   11  A    between atoms: C_19  and  C_22
   12  A    between atoms: C_25  and  C_27
                            x       y       z     vdW  Elec       q    Type
                         _______ _______ _______ _____ _____    ______ ____

>  <TORSDO>
F 12

$$$$
=
 OpenBabel11052416033D

 34 35  0  0  1  0  0  0  0  0999 V2000
  188.2800  176.8630  138.4160 C   0  0  0  0  0  2  0  0  0  0  0  0
  189.7060  176.0440  136.4560 C   0  0  1  0  0  3  0  0  0  0  0  0
  186.3040  176.6840  135.9290 S   0  0  0  0  0  0  0  0  0  0  0  0
  189.7270  173.1030  135.6640 C   0  0  0  0  0  2  0  0  0  0  0  0
  188.4980  178.3770  136.3310 C   0  0  2  0  0  3  0  0  0  0  0  0
  189.1130  177.2550  137.1950 C   0  0  1  0  0  3  0  0  0  0  0  0
  187.1680  172.6950  135.6160 C   0  0  2  0  0  3  0  0  0  0  0  0
  189.5340  174.2320  134.6500 C   0  0  0  0  0  2  0  0  0  0  0  0
  186.2210  171.7740  136.0660 O   0  0  0  0  0  1  0  0  0  0  0  0
  188.8740  175.4680  135.2870 C   0  0  1  0  0  3  0  0  0  0  0  0
  187.9720  179.3870  137.1420 O   0  0  0  0  0  1  0  0  0  0  0  0
  186.7770  179.0130  134.7590 O   0  0  0  0  0  1  0  0  0  0  0  0
  188.5750  172.0890  135.6840 C   0  0  0  0  0  2  0  0  0  0  0  0
  187.0430  174.0010  136.3460 C   0  0  0  0  0  0  0  0  0  0  0  0
  187.3670  175.2330  135.5520 C   0  0  1  0  0  3  0  0  0  0  0  0
  187.0080  174.0320  137.6810 C   0  0  0  0  0  2  0  0  0  0  0  0
  187.4740  177.9210  135.2810 C   0  0  2  0  0  3  0  0  0  0  0  0
  191.1050  176.4090  135.9870 C   0  0  0  0  0  1  0  0  0  0  0  0
  188.9360  177.3280  139.7120 C   0  0  0  0  0  2  0  0  0  0  0  0
  188.0060  178.2290  140.5200 C   0  0  0  0  0  2  0  0  0  0  0  0
  187.8190  177.7390  141.9500 C   0  0  0  0  0  2  0  0  0  0  0  0
  186.4820  178.1860  142.5160 C   0  0  0  0  0  2  0  0  0  0  0  0
  186.2760  177.6060  143.9040 C   0  0  0  0  0  2  0  0  0  0  0  0
  187.5880  177.0570  144.4510 C   0  0  0  0  0  2  0  0  0  0  0  0
  188.1040  177.9210  145.5960 C   0  0  1  0  0  3  0  0  0  0  0  0
  186.9810  178.2500  146.5660 C   0  0  0  0  0  1  0  0  0  0  0  0
  189.2320  177.2370  146.3120 C   0  0  0  0  0  0  0  0  0  0  0  0
  188.9970  176.4460  147.2120 O   0  0  0  0  0  0  0  0  0  0  0  0
  190.6590  177.4900  145.9140 C   0  0  1  0  0  3  0  0  0  0  0  0
  191.5970  176.6920  146.7600 C   0  0  0  0  0  0  0  0  0  0  0  0
  191.9710  177.1410  148.0200 O   0  0  0  0  0  1  0  0  0  0  0  0
  192.0770  175.6180  146.3130 O   0  0  0  0  0  0  0  0  0  0  0  0
  190.9040  177.2250  144.4320 C   0  0  0  0  0  2  0  0  0  0  0  0
  191.0040  178.5330  143.6690 C   0  0  0  0  0  1  0  0  0  0  0  0
  1 19  1  0  0  0  0
  2 18  1  6  0  0  0
  2  6  1  0  0  0  0
  4 13  1  0  0  0  0
  5 11  1  1  0  0  0
  5  6  1  0  0  0  0
  6  1  1  1  0  0  0
  7 13  1  0  0  0  0
  7  9  1  1  0  0  0
  7 14  1  0  0  0  0
  8  4  1  0  0  0  0
 10  8  1  1  0  0  0
 10 15  1  0  0  0  0
 10  2  1  0  0  0  0
 14 16  2  0  0  0  0
 15  3  1  1  0  0  0
 15 14  1  0  0  0  0
 17 12  1  1  0  0  0
 17  3  1  0  0  0  0
 17  5  1  0  0  0  0
 19 20  1  0  0  0  0
 20 21  1  0  0  0  0
 21 22  1  0  0  0  0
 22 23  1  0  0  0  0
 23 24  1  0  0  0  0
 24 25  1  0  0  0  0
 25 27  1  0  0  0  0
 25 26  1  1  0  0  0
 27 28  2  0  0  0  0
 29 33  1  6  0  0  0
 29 27  1  0  0  0  0
 29 30  1  0  0  0  0
 30 31  1  0  0  0  0
 32 30  2  0  0  0  0
 34 33  1  0  0  0  0
M  END
>  <MODEL>
8

>  <REMARK>
 VINA RESULT:      -6.0      4.728      6.215
  Name = 
  12 active torsions:
  status: ('A' for Active; 'I' for Inactive)
    1  A    between atoms: C_1  and  C_9
    2  A    between atoms: C_1  and  C_20
    3  A    between atoms: C_2  and  C_25
    4  A    between atoms: C_2  and  C_32
    5  A    between atoms: C_3  and  C_25
    6  A    between atoms: C_5  and  C_19
    7  A    between atoms: C_5  and  C_32
    8  A    between atoms: C_10  and  C_12
    9  A    between atoms: C_10  and  C_20
   10  A    between atoms: C_12  and  C_22
   11  A    between atoms: C_19  and  C_22
   12  A    between atoms: C_25  and  C_27
                            x       y       z     vdW  Elec       q    Type
                         _______ _______ _______ _____ _____    ______ ____

>  <TORSDO>
F 12

$$$$
=
 OpenBabel11052416033D

 34 35  0  0  1  0  0  0  0  0999 V2000
  184.6300  177.3490  137.8370 C   0  0  0  0  0  2  0  0  0  0  0  0
  182.7090  177.0540  136.1740 C   0  0  1  0  0  3  0  0  0  0  0  0
  182.2870  175.9470  139.4690 S   0  0  0  0  0  0  0  0  0  0  0  0
  182.2660  174.3950  134.7570 C   0  0  0  0  0  2  0  0  0  0  0  0
  182.3740  178.5080  138.3410 C   0  0  2  0  0  3  0  0  0  0  0  0
  183.3310  177.9270  137.2760 C   0  0  1  0  0  3  0  0  0  0  0  0
  182.3990  172.8290  136.8190 C   0  0  2  0  0  3  0  0  0  0  0  0
  181.1380  175.1610  135.4510 C   0  0  0  0  0  2  0  0  0  0  0  0
  183.0020  171.6370  137.2220 O   0  0  0  0  0  1  0  0  0  0  0  0
  181.6600  176.0110  136.6230 C   0  0  1  0  0  3  0  0  0  0  0  0
  183.0870  179.2460  139.2900 O   0  0  0  0  0  1  0  0  0  0  0  0
  180.8290  178.0530  140.1410 O   0  0  0  0  0  1  0  0  0  0  0  0
  182.4650  172.9700  135.2930 C   0  0  0  0  0  2  0  0  0  0  0  0
  182.9760  174.0040  137.5540 C   0  0  0  0  0  0  0  0  0  0  0  0
  182.0280  175.1310  137.8420 C   0  0  1  0  0  3  0  0  0  0  0  0
  184.2990  174.1850  137.6120 C   0  0  0  0  0  2  0  0  0  0  0  0
  181.4390  177.4940  139.0170 C   0  0  2  0  0  3  0  0  0  0  0  0
  182.1280  177.9710  135.1100 C   0  0  0  0  0  1  0  0  0  0  0  0
  185.8120  177.6350  136.9160 C   0  0  0  0  0  2  0  0  0  0  0  0
  187.0640  176.8830  137.3590 C   0  0  0  0  0  2  0  0  0  0  0  0
  188.3430  177.6490  137.0480 C   0  0  0  0  0  2  0  0  0  0  0  0
  189.2290  177.7660  138.2770 C   0  0  0  0  0  2  0  0  0  0  0  0
  188.4340  178.3110  139.4500 C   0  0  0  0  0  2  0  0  0  0  0  0
  188.7130  177.4960  140.7060 C   0  0  0  0  0  2  0  0  0  0  0  0
  188.1720  178.2020  141.9440 C   0  0  1  0  0  3  0  0  0  0  0  0
  186.6990  178.5350  141.7680 C   0  0  0  0  0  1  0  0  0  0  0  0
  188.3760  177.3580  143.1690 C   0  0  0  0  0  0  0  0  0  0  0  0
  187.9300  176.2220  143.2130 O   0  0  0  0  0  0  0  0  0  0  0  0
  189.1540  177.8840  144.3420 C   0  0  1  0  0  3  0  0  0  0  0  0
  188.4820  177.5300  145.6280 C   0  0  0  0  0  0  0  0  0  0  0  0
  187.2250  178.0360  145.9340 O   0  0  0  0  0  0  0  0  0  0  0  0
  189.0750  176.7910  146.4570 O   0  0  0  0  0  1  0  0  0  0  0  0
  190.6030  177.4100  144.3370 C   0  0  0  0  0  2  0  0  0  0  0  0
  191.5440  178.5810  144.1220 C   0  0  0  0  0  1  0  0  0  0  0  0
  2 18  1  6  0  0  0
  2 10  1  0  0  0  0
  2  6  1  0  0  0  0
  4 13  1  0  0  0  0
  4  8  1  0  0  0  0
  5 17  1  0  0  0  0
  5 11  1  1  0  0  0
  6  1  1  1  0  0  0
  6  5  1  0  0  0  0
  7  9  1  6  0  0  0
  7 14  1  0  0  0  0
 10  8  1  6  0  0  0
 10 15  1  0  0  0  0
 13  7  1  0  0  0  0
 14 16  2  0  0  0  0
 15 14  1  6  0  0  0
 15  3  1  0  0  0  0
 17  3  1  0  0  0  0
 17 12  1  1  0  0  0
 19 20  1  0  0  0  0
 19  1  1  0  0  0  0
 21 20  1  0  0  0  0
 21 22  1  0  0  0  0
 22 23  1  0  0  0  0
 23 24  1  0  0  0  0
 24 25  1  0  0  0  0
 25 26  1  6  0  0  0
 25 27  1  0  0  0  0
 27 28  2  0  0  0  0
 27 29  1  0  0  0  0
 29 33  1  1  0  0  0
 29 30  1  0  0  0  0
 30 31  2  0  0  0  0
 30 32  1  0  0  0  0
 34 33  1  0  0  0  0
M  END
>  <MODEL>
9

>  <REMARK>
 VINA RESULT:      -5.7      2.577      3.832
  Name = 
  12 active torsions:
  status: ('A' for Active; 'I' for Inactive)
    1  A    between atoms: C_1  and  C_9
    2  A    between atoms: C_1  and  C_20
    3  A    between atoms: C_2  and  C_25
    4  A    between atoms: C_2  and  C_32
    5  A    between atoms: C_3  and  C_25
    6  A    between atoms: C_5  and  C_19
    7  A    between atoms: C_5  and  C_32
    8  A    between atoms: C_10  and  C_12
    9  A    between atoms: C_10  and  C_20
   10  A    between atoms: C_12  and  C_22
   11  A    between atoms: C_19  and  C_22
   12  A    between atoms: C_25  and  C_27
                            x       y       z     vdW  Elec       q    Type
                         _______ _______ _______ _____ _____    ______ ____

>  <TORSDO>
F 12

$$$$
