=
 OpenBabel11052413273D

 28 31  0  0  1  0  0  0  0  0999 V2000
  188.7220  177.7480  140.6570 C   0  0  0  0  0  0  0  0  0  0  0  0
  187.7340  178.4030  139.7120 C   0  0  2  0  0  3  0  0  0  0  0  0
  186.1960  178.7450  141.5110 C   0  0  1  0  0  3  0  0  0  0  0  0
  191.4750  176.0130  143.3230 O   0  0  0  0  0  1  0  0  0  0  0  0
  186.3550  178.1940  140.1660 N   0  0  0  0  0  2  0  0  0  0  0  0
  183.1220  179.0770  143.7480 C   0  0  0  0  0  1  0  0  0  0  0  0
  186.7970  177.9300  143.8480 C   0  0  0  0  0  0  0  0  0  0  0  0
  185.4430  178.3700  144.3750 C   0  0  2  0  0  3  0  0  0  0  0  0
  184.7490  178.5860  141.9510 C   0  0  0  0  0  2  0  0  0  0  0  0
  189.3000  177.0170  142.9180 C   0  0  0  0  0  0  0  0  0  0  0  0
  187.1290  178.0540  142.4800 C   0  0  0  0  0  0  0  0  0  0  0  0
  184.5860  179.1430  143.3560 C   0  0  1  0  0  3  0  0  0  0  0  0
  190.9030  176.7770  141.1150 C   0  0  0  0  0  3  0  0  0  0  0  0
  188.9420  176.8590  144.2610 C   0  0  0  0  0  3  0  0  0  0  0  0
  190.5580  176.5980  142.4580 C   0  0  0  0  0  0  0  0  0  0  0  0
  187.7010  177.3040  144.7170 C   0  0  0  0  0  3  0  0  0  0  0  0
  189.9970  177.3530  140.2230 C   0  0  0  0  0  3  0  0  0  0  0  0
  188.3840  177.6090  142.0190 C   0  0  0  0  0  0  0  0  0  0  0  0
  187.2990  176.8720  137.9450 O   0  0  0  0  0  0  0  0  0  0  0  0
  187.8740  177.9390  138.2900 C   0  0  0  0  0  0  0  0  0  0  0  0
  188.6590  178.6940  137.2940 C   0  0  0  0  0  0  0  0  0  0  0  0
  188.9780  179.8910  137.5210 O   0  0  0  0  0  0  0  0  0  0  0  0
  189.0650  178.0840  136.0730 N   0  0  0  0  0  1  0  0  0  0  0  0
  185.5610  179.1490  145.6900 C   0  0  0  0  0  2  0  0  0  0  0  0
  185.6790  178.2250  146.8930 C   0  0  0  0  0  2  0  0  0  0  0  0
  186.7120  178.7760  147.8520 C   0  0  0  0  0  2  0  0  0  0  0  0
  187.6370  177.6600  148.2900 C   0  0  0  0  0  2  0  0  0  0  0  0
  189.0750  178.0910  148.0930 C   0  0  0  0  0  1  0  0  0  0  0  0
  1 18  1  0  0  0  0
  2 20  1  6  0  0  0
  2  5  1  0  0  0  0
  2  1  1  0  0  0  0
  3  9  1  1  0  0  0
  3 11  1  0  0  0  0
  5  3  1  0  0  0  0
  7  8  1  0  0  0  0
  7 16  1  0  0  0  0
  8 24  1  1  0  0  0
  9 12  1  0  0  0  0
 10 14  1  0  0  0  0
 11  7  2  0  0  0  0
 12  6  1  1  0  0  0
 12  8  1  0  0  0  0
 13 15  2  0  0  0  0
 14 16  2  0  0  0  0
 15 10  1  0  0  0  0
 15  4  1  0  0  0  0
 17  1  2  0  0  0  0
 17 13  1  0  0  0  0
 18 11  1  0  0  0  0
 18 10  2  0  0  0  0
 19 20  2  0  0  0  0
 21 22  2  0  0  0  0
 21 20  1  0  0  0  0
 23 21  1  0  0  0  0
 24 25  1  0  0  0  0
 25 26  1  0  0  0  0
 26 27  1  0  0  0  0
 28 27  1  0  0  0  0
M  END
>  <MODEL>
1

>  <REMARK>
 VINA RESULT:      -9.3      0.000      0.000
  Name = 
  6 active torsions:
  status: ('A' for Active; 'I' for Inactive)
    1  A    between atoms: C_2  and  C_11
    2  A    between atoms: C_4  and  C_13
    3  A    between atoms: C_4  and  C_24
    4  A    between atoms: C_6  and  C_11
    5  A    between atoms: C_12  and  C_15
    6  A    between atoms: C_12  and  C_24
                            x       y       z     vdW  Elec       q    Type
                         _______ _______ _______ _____ _____    ______ ____

>  <TORSDO>
F 6

$$$$
=
 OpenBabel11052413273D

 28 31  0  0  1  0  0  0  0  0999 V2000
  184.8660  178.4480  142.3840 C   0  0  0  0  0  0  0  0  0  0  0  0
  185.1150  178.2960  140.8960 C   0  0  2  0  0  3  0  0  0  0  0  0
  187.4160  177.7900  141.3030 C   0  0  1  0  0  3  0  0  0  0  0  0
  184.1910  178.7780  146.5220 O   0  0  0  0  0  1  0  0  0  0  0  0
  186.4970  178.6470  140.5550 N   0  0  0  0  0  2  0  0  0  0  0  0
  191.2190  177.4850  141.2050 C   0  0  0  0  0  1  0  0  0  0  0  0
  188.2960  177.7860  143.6930 C   0  0  0  0  0  0  0  0  0  0  0  0
  189.7030  177.5030  143.1990 C   0  0  2  0  0  3  0  0  0  0  0  0
  188.8460  178.1120  140.8980 C   0  0  0  0  0  2  0  0  0  0  0  0
  185.7200  178.3910  144.6740 C   0  0  0  0  0  0  0  0  0  0  0  0
  187.2260  177.9810  142.7920 C   0  0  0  0  0  0  0  0  0  0  0  0
  189.8030  177.2330  141.6870 C   0  0  1  0  0  3  0  0  0  0  0  0
  183.3640  178.7880  144.2640 C   0  0  0  0  0  3  0  0  0  0  0  0
  186.7960  178.2390  145.5550 C   0  0  0  0  0  3  0  0  0  0  0  0
  184.4290  178.6550  145.1590 C   0  0  0  0  0  0  0  0  0  0  0  0
  188.0710  177.9480  145.0670 C   0  0  0  0  0  3  0  0  0  0  0  0
  183.5770  178.6790  142.8890 C   0  0  0  0  0  3  0  0  0  0  0  0
  185.9370  178.2700  143.2820 C   0  0  0  0  0  0  0  0  0  0  0  0
  184.5910  180.1480  139.4990 O   0  0  0  0  0  0  0  0  0  0  0  0
  184.1660  179.0970  140.0490 C   0  0  0  0  0  0  0  0  0  0  0  0
  182.7640  178.6880  139.8450 C   0  0  0  0  0  0  0  0  0  0  0  0
  181.8580  179.5600  139.7680 O   0  0  0  0  0  0  0  0  0  0  0  0
  182.4170  177.3110  139.7300 N   0  0  0  0  0  1  0  0  0  0  0  0
  190.3810  176.3830  143.9980 C   0  0  0  0  0  2  0  0  0  0  0  0
  191.6000  176.8810  144.7590 C   0  0  0  0  0  2  0  0  0  0  0  0
  191.3630  176.7270  146.2460 C   0  0  0  0  0  2  0  0  0  0  0  0
  192.1060  175.5070  146.7490 C   0  0  0  0  0  2  0  0  0  0  0  0
  192.6330  175.7770  148.1420 C   0  0  0  0  0  1  0  0  0  0  0  0
  1 17  2  0  0  0  0
  1 18  1  0  0  0  0
  2 20  1  6  0  0  0
  2  1  1  0  0  0  0
  3  9  1  6  0  0  0
  3 11  1  0  0  0  0
  5  2  1  0  0  0  0
  5  3  1  0  0  0  0
  7 16  1  0  0  0  0
  8  7  1  0  0  0  0
  8 24  1  1  0  0  0
  9 12  1  0  0  0  0
 10 15  1  0  0  0  0
 10 14  1  0  0  0  0
 11 18  1  0  0  0  0
 11  7  2  0  0  0  0
 12  6  1  6  0  0  0
 12  8  1  0  0  0  0
 13 15  2  0  0  0  0
 15  4  1  0  0  0  0
 16 14  2  0  0  0  0
 17 13  1  0  0  0  0
 18 10  2  0  0  0  0
 19 20  2  0  0  0  0
 21 20  1  0  0  0  0
 22 21  2  0  0  0  0
 23 21  1  0  0  0  0
 24 25  1  0  0  0  0
 25 26  1  0  0  0  0
 26 27  1  0  0  0  0
 27 28  1  0  0  0  0
M  END
>  <MODEL>
2

>  <REMARK>
 VINA RESULT:      -9.2      2.870      5.333
  Name = 
  6 active torsions:
  status: ('A' for Active; 'I' for Inactive)
    1  A    between atoms: C_2  and  C_11
    2  A    between atoms: C_4  and  C_13
    3  A    between atoms: C_4  and  C_24
    4  A    between atoms: C_6  and  C_11
    5  A    between atoms: C_12  and  C_15
    6  A    between atoms: C_12  and  C_24
                            x       y       z     vdW  Elec       q    Type
                         _______ _______ _______ _____ _____    ______ ____

>  <TORSDO>
F 6

$$$$
=
 OpenBabel11052413273D

 28 31  0  0  1  0  0  0  0  0999 V2000
  183.7630  178.5190  141.5120 C   0  0  0  0  0  0  0  0  0  0  0  0
  184.8410  178.2500  140.4800 C   0  0  2  0  0  3  0  0  0  0  0  0
  186.4810  178.0390  142.2080 C   0  0  1  0  0  3  0  0  0  0  0  0
  180.7810  179.1770  144.4040 O   0  0  0  0  0  1  0  0  0  0  0  0
  186.1490  178.7140  140.9540 N   0  0  0  0  0  2  0  0  0  0  0  0
  189.6270  178.1410  144.3650 C   0  0  0  0  0  1  0  0  0  0  0  0
  185.7930  178.3650  144.6370 C   0  0  0  0  0  0  0  0  0  0  0  0
  187.2300  178.1890  145.0930 C   0  0  2  0  0  3  0  0  0  0  0  0
  187.8660  178.4740  142.6600 C   0  0  0  0  0  2  0  0  0  0  0  0
  183.1140  178.7790  143.8550 C   0  0  0  0  0  0  0  0  0  0  0  0
  185.4490  178.3530  143.2680 C   0  0  0  0  0  0  0  0  0  0  0  0
  188.2060  177.7860  143.9720 C   0  0  1  0  0  3  0  0  0  0  0  0
  181.4340  178.8760  142.1090 C   0  0  0  0  0  3  0  0  0  0  0  0
  183.4740  178.8330  145.2050 C   0  0  0  0  0  3  0  0  0  0  0  0
  181.7760  178.9480  143.4620 C   0  0  0  0  0  0  0  0  0  0  0  0
  184.8010  178.6350  145.5900 C   0  0  0  0  0  3  0  0  0  0  0  0
  182.4160  178.6570  141.1420 C   0  0  0  0  0  3  0  0  0  0  0  0
  184.1090  178.5470  142.8780 C   0  0  0  0  0  0  0  0  0  0  0  0
  184.5770  180.1110  139.0230 O   0  0  0  0  0  0  0  0  0  0  0  0
  184.5440  178.8570  139.1380 C   0  0  0  0  0  0  0  0  0  0  0  0
  184.2220  178.0300  137.9590 C   0  0  0  0  0  0  0  0  0  0  0  0
  183.0220  177.8690  137.6120 O   0  0  0  0  0  0  0  0  0  0  0  0
  185.2550  177.4080  137.2020 N   0  0  0  0  0  1  0  0  0  0  0  0
  187.3460  177.2330  146.2860 C   0  0  0  0  0  2  0  0  0  0  0  0
  187.5400  177.9780  147.5980 C   0  0  0  0  0  2  0  0  0  0  0  0
  188.9890  177.8760  148.0250 C   0  0  0  0  0  2  0  0  0  0  0  0
  189.5880  176.6010  147.4700 C   0  0  0  0  0  2  0  0  0  0  0  0
  191.0960  176.7260  147.4350 C   0  0  0  0  0  1  0  0  0  0  0  0
  1 18  1  0  0  0  0
  2 20  1  6  0  0  0
  2  5  1  0  0  0  0
  2  1  1  0  0  0  0
  3  9  1  1  0  0  0
  3 11  1  0  0  0  0
  5  3  1  0  0  0  0
  7  8  1  0  0  0  0
  7 16  1  0  0  0  0
  8 24  1  1  0  0  0
  9 12  1  0  0  0  0
 10 14  1  0  0  0  0
 11  7  2  0  0  0  0
 12  6  1  1  0  0  0
 12  8  1  0  0  0  0
 13 15  2  0  0  0  0
 14 16  2  0  0  0  0
 15 10  1  0  0  0  0
 15  4  1  0  0  0  0
 17  1  2  0  0  0  0
 17 13  1  0  0  0  0
 18 11  1  0  0  0  0
 18 10  2  0  0  0  0
 19 20  2  0  0  0  0
 21 20  1  0  0  0  0
 22 21  2  0  0  0  0
 23 21  1  0  0  0  0
 24 25  1  0  0  0  0
 25 26  1  0  0  0  0
 27 26  1  0  0  0  0
 28 27  1  0  0  0  0
M  END
>  <MODEL>
3

>  <REMARK>
 VINA RESULT:      -9.2      2.913      5.087
  Name = 
  6 active torsions:
  status: ('A' for Active; 'I' for Inactive)
    1  A    between atoms: C_2  and  C_11
    2  A    between atoms: C_4  and  C_13
    3  A    between atoms: C_4  and  C_24
    4  A    between atoms: C_6  and  C_11
    5  A    between atoms: C_12  and  C_15
    6  A    between atoms: C_12  and  C_24
                            x       y       z     vdW  Elec       q    Type
                         _______ _______ _______ _____ _____    ______ ____

>  <TORSDO>
F 6

$$$$
=
 OpenBabel11052413273D

 28 31  0  0  1  0  0  0  0  0999 V2000
  186.8480  178.3910  140.7490 C   0  0  0  0  0  0  0  0  0  0  0  0
  185.5430  179.1400  140.9340 C   0  0  2  0  0  3  0  0  0  0  0  0
  185.6600  178.8170  143.3000 C   0  0  1  0  0  3  0  0  0  0  0  0
  190.5140  176.3830  140.2790 O   0  0  0  0  0  1  0  0  0  0  0  0
  184.8210  178.6540  142.1140 N   0  0  0  0  0  2  0  0  0  0  0  0
  184.9470  178.1820  146.9950 C   0  0  0  0  0  1  0  0  0  0  0  0
  187.6060  177.5100  144.2930 C   0  0  0  0  0  0  0  0  0  0  0  0
  187.0090  177.6300  145.6830 C   0  0  2  0  0  3  0  0  0  0  0  0
  184.8830  178.3740  144.5290 C   0  0  0  0  0  2  0  0  0  0  0  0
  188.7340  177.1810  141.7270 C   0  0  0  0  0  0  0  0  0  0  0  0
  186.9380  178.0200  143.1590 C   0  0  0  0  0  0  0  0  0  0  0  0
  185.7600  178.5270  145.7620 C   0  0  1  0  0  3  0  0  0  0  0  0
  188.6710  177.6120  139.3430 C   0  0  0  0  0  3  0  0  0  0  0  0
  189.3650  176.6420  142.8530 C   0  0  0  0  0  3  0  0  0  0  0  0
  189.3090  177.0530  140.4530 C   0  0  0  0  0  0  0  0  0  0  0  0
  188.8020  176.7980  144.1200 C   0  0  0  0  0  3  0  0  0  0  0  0
  187.4550  178.2810  139.4880 C   0  0  0  0  0  3  0  0  0  0  0  0
  187.5070  177.8670  141.8790 C   0  0  0  0  0  0  0  0  0  0  0  0
  184.4450  180.1330  139.0720 O   0  0  0  0  0  0  0  0  0  0  0  0
  184.6460  179.0770  139.7300 C   0  0  0  0  0  0  0  0  0  0  0  0
  184.0010  177.8220  139.3000 C   0  0  0  0  0  0  0  0  0  0  0  0
  183.0880  177.3110  140.0010 O   0  0  0  0  0  0  0  0  0  0  0  0
  184.3980  177.1760  138.0930 N   0  0  0  0  0  1  0  0  0  0  0  0
  188.0500  178.0530  146.7260 C   0  0  0  0  0  2  0  0  0  0  0  0
  188.7250  176.8570  147.3780 C   0  0  0  0  0  2  0  0  0  0  0  0
  190.1560  177.2100  147.7220 C   0  0  0  0  0  2  0  0  0  0  0  0
  191.0780  176.6730  146.6470 C   0  0  0  0  0  2  0  0  0  0  0  0
  192.0610  175.7020  147.2660 C   0  0  0  0  0  1  0  0  0  0  0  0
  1  2  1  0  0  0  0
  1 18  1  0  0  0  0
  2 20  1  6  0  0  0
  2  5  1  0  0  0  0
  3  9  1  1  0  0  0
  4 15  1  0  0  0  0
  5  3  1  0  0  0  0
  7  8  1  0  0  0  0
  8 12  1  0  0  0  0
  8 24  1  1  0  0  0
  9 12  1  0  0  0  0
 10 18  2  0  0  0  0
 10 14  1  0  0  0  0
 11  3  1  0  0  0  0
 11  7  2  0  0  0  0
 12  6  1  1  0  0  0
 13 17  1  0  0  0  0
 13 15  2  0  0  0  0
 14 16  2  0  0  0  0
 15 10  1  0  0  0  0
 16  7  1  0  0  0  0
 17  1  2  0  0  0  0
 18 11  1  0  0  0  0
 19 20  2  0  0  0  0
 21 20  1  0  0  0  0
 21 22  2  0  0  0  0
 23 21  1  0  0  0  0
 24 25  1  0  0  0  0
 25 26  1  0  0  0  0
 27 28  1  0  0  0  0
 27 26  1  0  0  0  0
M  END
>  <MODEL>
4

>  <REMARK>
 VINA RESULT:      -9.2      2.089      3.244
  Name = 
  6 active torsions:
  status: ('A' for Active; 'I' for Inactive)
    1  A    between atoms: C_2  and  C_11
    2  A    between atoms: C_4  and  C_13
    3  A    between atoms: C_4  and  C_24
    4  A    between atoms: C_6  and  C_11
    5  A    between atoms: C_12  and  C_15
    6  A    between atoms: C_12  and  C_24
                            x       y       z     vdW  Elec       q    Type
                         _______ _______ _______ _____ _____    ______ ____

>  <TORSDO>
F 6

$$$$
=
 OpenBabel11052413273D

 28 31  0  0  1  0  0  0  0  0999 V2000
  189.1710  177.7870  144.9780 C   0  0  0  0  0  0  0  0  0  0  0  0
  189.6230  177.9490  143.5390 C   0  0  2  0  0  3  0  0  0  0  0  0
  187.3680  178.3310  142.8430 C   0  0  1  0  0  3  0  0  0  0  0  0
  187.8930  177.4300  148.9690 O   0  0  0  0  0  1  0  0  0  0  0  0
  188.5700  177.5330  142.6080 N   0  0  0  0  0  2  0  0  0  0  0  0
  184.0220  178.4430  141.0120 C   0  0  0  0  0  1  0  0  0  0  0  0
  185.4930  178.2540  144.5650 C   0  0  0  0  0  0  0  0  0  0  0  0
  184.4550  178.4730  143.4790 C   0  0  2  0  0  3  0  0  0  0  0  0
  186.3010  177.9420  141.8320 C   0  0  0  0  0  2  0  0  0  0  0  0
  187.3620  177.7670  146.6220 C   0  0  0  0  0  0  0  0  0  0  0  0
  186.8650  178.1280  144.2560 C   0  0  0  0  0  0  0  0  0  0  0  0
  185.0440  178.7590  142.0860 C   0  0  1  0  0  3  0  0  0  0  0  0
  189.6610  177.4960  147.3400 C   0  0  0  0  0  3  0  0  0  0  0  0
  185.9960  177.8500  146.9110 C   0  0  0  0  0  3  0  0  0  0  0  0
  188.3000  177.5610  147.6470 C   0  0  0  0  0  0  0  0  0  0  0  0
  185.0720  178.0830  145.8910 C   0  0  0  0  0  3  0  0  0  0  0  0
  190.0960  177.6150  146.0190 C   0  0  0  0  0  3  0  0  0  0  0  0
  187.8000  177.8970  145.2840 C   0  0  0  0  0  0  0  0  0  0  0  0
  191.8770  177.8610  142.7860 O   0  0  0  0  0  0  0  0  0  0  0  0
  190.8940  177.2100  143.2290 C   0  0  0  0  0  0  0  0  0  0  0  0
  191.0210  175.7540  143.4320 C   0  0  0  0  0  0  0  0  0  0  0  0
  190.2080  174.9680  142.8780 O   0  0  0  0  0  0  0  0  0  0  0  0
  192.0600  175.2200  144.2480 N   0  0  0  0  0  1  0  0  0  0  0  0
  183.4290  179.5450  143.8680 C   0  0  0  0  0  2  0  0  0  0  0  0
  182.0770  178.9420  144.2160 C   0  0  0  0  0  2  0  0  0  0  0  0
  181.1650  179.0190  143.0110 C   0  0  0  0  0  2  0  0  0  0  0  0
  179.8670  178.3010  143.3160 C   0  0  0  0  0  2  0  0  0  0  0  0
  179.1080  179.0620  144.3820 C   0  0  0  0  0  1  0  0  0  0  0  0
  1 18  2  0  0  0  0
  1 17  1  0  0  0  0
  2 20  1  1  0  0  0
  2  1  1  0  0  0  0
  3  9  1  6  0  0  0
  3 11  1  0  0  0  0
  5  3  1  0  0  0  0
  5  2  1  0  0  0  0
  7 16  1  0  0  0  0
  8 24  1  1  0  0  0
  8  7  1  0  0  0  0
  9 12  1  0  0  0  0
 10 14  1  0  0  0  0
 10 15  2  0  0  0  0
 11  7  2  0  0  0  0
 11 18  1  0  0  0  0
 12  6  1  6  0  0  0
 12  8  1  0  0  0  0
 13 15  1  0  0  0  0
 15  4  1  0  0  0  0
 16 14  2  0  0  0  0
 17 13  2  0  0  0  0
 18 10  1  0  0  0  0
 19 20  2  0  0  0  0
 20 21  1  0  0  0  0
 21 23  1  0  0  0  0
 22 21  2  0  0  0  0
 24 25  1  0  0  0  0
 26 27  1  0  0  0  0
 26 25  1  0  0  0  0
 27 28  1  0  0  0  0
M  END
>  <MODEL>
5

>  <REMARK>
 VINA RESULT:      -9.0      2.796      5.457
  Name = 
  6 active torsions:
  status: ('A' for Active; 'I' for Inactive)
    1  A    between atoms: C_2  and  C_11
    2  A    between atoms: C_4  and  C_13
    3  A    between atoms: C_4  and  C_24
    4  A    between atoms: C_6  and  C_11
    5  A    between atoms: C_12  and  C_15
    6  A    between atoms: C_12  and  C_24
                            x       y       z     vdW  Elec       q    Type
                         _______ _______ _______ _____ _____    ______ ____

>  <TORSDO>
F 6

$$$$
=
 OpenBabel11052413273D

 28 31  0  0  1  0  0  0  0  0999 V2000
  189.1740  177.0810  142.3870 C   0  0  0  0  0  0  0  0  0  0  0  0
  189.4760  176.5010  143.7550 C   0  0  2  0  0  3  0  0  0  0  0  0
  187.3370  177.2070  144.5580 C   0  0  1  0  0  3  0  0  0  0  0  0
  188.2690  178.6240  138.5800 O   0  0  0  0  0  1  0  0  0  0  0  0
  188.7780  177.2460  144.8070 N   0  0  0  0  0  2  0  0  0  0  0  0
  184.3940  178.5240  146.5990 C   0  0  0  0  0  1  0  0  0  0  0  0
  185.7680  178.4740  143.0030 C   0  0  0  0  0  0  0  0  0  0  0  0
  184.7600  178.6480  144.1230 C   0  0  2  0  0  3  0  0  0  0  0  0
  186.6130  177.9250  145.6870 C   0  0  0  0  0  2  0  0  0  0  0  0
  187.6320  178.2550  140.8960 C   0  0  0  0  0  0  0  0  0  0  0  0
  187.0130  177.8440  143.2250 C   0  0  0  0  0  0  0  0  0  0  0  0
  185.1170  177.9000  145.4210 C   0  0  1  0  0  3  0  0  0  0  0  0
  189.7520  177.4350  140.0530 C   0  0  0  0  0  3  0  0  0  0  0  0
  186.4150  178.9150  140.6990 C   0  0  0  0  0  3  0  0  0  0  0  0
  188.5470  178.1100  139.8410 C   0  0  0  0  0  0  0  0  0  0  0  0
  185.4980  179.0290  141.7450 C   0  0  0  0  0  3  0  0  0  0  0  0
  190.0610  176.9180  141.3120 C   0  0  0  0  0  3  0  0  0  0  0  0
  187.9380  177.7230  142.1700 C   0  0  0  0  0  0  0  0  0  0  0  0
  191.6080  175.4520  143.6600 O   0  0  0  0  0  0  0  0  0  0  0  0
  190.9450  176.4440  144.0650 C   0  0  0  0  0  0  0  0  0  0  0  0
  191.6270  177.5120  144.8210 C   0  0  0  0  0  0  0  0  0  0  0  0
  191.9370  177.3290  146.0280 O   0  0  0  0  0  0  0  0  0  0  0  0
  191.9450  178.7540  144.2000 N   0  0  0  0  0  1  0  0  0  0  0  0
  183.3330  178.3100  143.6750 C   0  0  0  0  0  2  0  0  0  0  0  0
  182.3730  179.4670  143.9060 C   0  0  0  0  0  2  0  0  0  0  0  0
  181.1160  179.2490  143.0910 C   0  0  0  0  0  2  0  0  0  0  0  0
  180.1610  178.3660  143.8670 C   0  0  0  0  0  2  0  0  0  0  0  0
  179.0330  179.2100  144.4230 C   0  0  0  0  0  1  0  0  0  0  0  0
  1  2  1  0  0  0  0
  2 20  1  1  0  0  0
  2  5  1  0  0  0  0
  3  5  1  0  0  0  0
  3  9  1  1  0  0  0
  4 15  1  0  0  0  0
  7 11  1  0  0  0  0
  7  8  1  0  0  0  0
  8 24  1  6  0  0  0
  8 12  1  0  0  0  0
 10 18  1  0  0  0  0
 11  3  1  0  0  0  0
 12  9  1  0  0  0  0
 12  6  1  1  0  0  0
 13 17  1  0  0  0  0
 14 10  2  0  0  0  0
 14 16  1  0  0  0  0
 15 13  2  0  0  0  0
 15 10  1  0  0  0  0
 16  7  2  0  0  0  0
 17  1  2  0  0  0  0
 18  1  1  0  0  0  0
 18 11  2  0  0  0  0
 19 20  2  0  0  0  0
 20 21  1  0  0  0  0
 21 22  2  0  0  0  0
 23 21  1  0  0  0  0
 24 25  1  0  0  0  0
 26 27  1  0  0  0  0
 26 25  1  0  0  0  0
 27 28  1  0  0  0  0
M  END
>  <MODEL>
6

>  <REMARK>
 VINA RESULT:      -8.8      2.389      5.396
  Name = 
  6 active torsions:
  status: ('A' for Active; 'I' for Inactive)
    1  A    between atoms: C_2  and  C_11
    2  A    between atoms: C_4  and  C_13
    3  A    between atoms: C_4  and  C_24
    4  A    between atoms: C_6  and  C_11
    5  A    between atoms: C_12  and  C_15
    6  A    between atoms: C_12  and  C_24
                            x       y       z     vdW  Elec       q    Type
                         _______ _______ _______ _____ _____    ______ ____

>  <TORSDO>
F 6

$$$$
=
 OpenBabel11052413273D

 28 31  0  0  1  0  0  0  0  0999 V2000
  190.1930  177.3480  139.5370 C   0  0  0  0  0  0  0  0  0  0  0  0
  191.4470  176.7600  140.1560 C   0  0  2  0  0  3  0  0  0  0  0  0
  190.4720  176.9020  142.3350 C   0  0  1  0  0  3  0  0  0  0  0  0
  186.6690  178.8990  137.8440 O   0  0  0  0  0  1  0  0  0  0  0  0
  191.6370  177.2530  141.5240 N   0  0  0  0  0  2  0  0  0  0  0  0
  189.7610  177.3670  146.0560 C   0  0  0  0  0  1  0  0  0  0  0  0
  188.1350  177.8790  142.6030 C   0  0  0  0  0  0  0  0  0  0  0  0
  188.2250  177.7410  144.1120 C   0  0  2  0  0  3  0  0  0  0  0  0
  190.7020  177.3560  143.7680 C   0  0  0  0  0  2  0  0  0  0  0  0
  187.9320  178.2370  139.8120 C   0  0  0  0  0  0  0  0  0  0  0  0
  189.2210  177.5370  141.7680 C   0  0  0  0  0  0  0  0  0  0  0  0
  189.4840  177.0070  144.6080 C   0  0  1  0  0  3  0  0  0  0  0  0
  188.8780  177.9830  137.5940 C   0  0  0  0  0  3  0  0  0  0  0  0
  186.8790  178.6120  140.6520 C   0  0  0  0  0  3  0  0  0  0  0  0
  187.8220  178.3780  138.4190 C   0  0  0  0  0  0  0  0  0  0  0  0
  186.9850  178.4420  142.0340 C   0  0  0  0  0  3  0  0  0  0  0  0
  190.0520  177.4660  138.1460 C   0  0  0  0  0  3  0  0  0  0  0  0
  189.1150  177.7040  140.3730 C   0  0  0  0  0  0  0  0  0  0  0  0
  193.4770  177.9230  139.7310 O   0  0  0  0  0  0  0  0  0  0  0  0
  192.6860  177.0200  139.3480 C   0  0  0  0  0  0  0  0  0  0  0  0
  193.0010  176.2510  138.1290 C   0  0  0  0  0  0  0  0  0  0  0  0
  193.7510  176.7470  137.2470 O   0  0  0  0  0  0  0  0  0  0  0  0
  192.4670  174.9450  137.9350 N   0  0  0  0  0  1  0  0  0  0  0  0
  186.9590  177.1170  144.7120 C   0  0  0  0  0  2  0  0  0  0  0  0
  186.4750  177.8750  145.9380 C   0  0  0  0  0  2  0  0  0  0  0  0
  185.6490  179.0660  145.5010 C   0  0  0  0  0  2  0  0  0  0  0  0
  184.2000  178.6490  145.3630 C   0  0  0  0  0  2  0  0  0  0  0  0
  183.7470  178.8670  143.9360 C   0  0  0  0  0  1  0  0  0  0  0  0
  1  2  1  0  0  0  0
  1 18  1  0  0  0  0
  2 20  1  6  0  0  0
  2  5  1  0  0  0  0
  3  9  1  1  0  0  0
  4 15  1  0  0  0  0
  5  3  1  0  0  0  0
  7  8  1  0  0  0  0
  8 12  1  0  0  0  0
  8 24  1  6  0  0  0
  9 12  1  0  0  0  0
 10 18  2  0  0  0  0
 10 14  1  0  0  0  0
 11  3  1  0  0  0  0
 11  7  2  0  0  0  0
 12  6  1  1  0  0  0
 13 17  1  0  0  0  0
 13 15  2  0  0  0  0
 14 16  2  0  0  0  0
 15 10  1  0  0  0  0
 16  7  1  0  0  0  0
 17  1  2  0  0  0  0
 18 11  1  0  0  0  0
 20 19  2  0  0  0  0
 21 20  1  0  0  0  0
 22 21  2  0  0  0  0
 23 21  1  0  0  0  0
 24 25  1  0  0  0  0
 26 25  1  0  0  0  0
 27 26  1  0  0  0  0
 28 27  1  0  0  0  0
M  END
>  <MODEL>
7

>  <REMARK>
 VINA RESULT:      -8.7      2.361      4.640
  Name = 
  6 active torsions:
  status: ('A' for Active; 'I' for Inactive)
    1  A    between atoms: C_2  and  C_11
    2  A    between atoms: C_4  and  C_13
    3  A    between atoms: C_4  and  C_24
    4  A    between atoms: C_6  and  C_11
    5  A    between atoms: C_12  and  C_15
    6  A    between atoms: C_12  and  C_24
                            x       y       z     vdW  Elec       q    Type
                         _______ _______ _______ _____ _____    ______ ____

>  <TORSDO>
F 6

$$$$
=
 OpenBabel11052413273D

 28 31  0  0  1  0  0  0  0  0999 V2000
  189.4860  177.2490  144.7390 C   0  0  0  0  0  0  0  0  0  0  0  0
  188.7900  177.0900  146.0760 C   0  0  2  0  0  3  0  0  0  0  0  0
  186.6940  177.6770  145.0870 C   0  0  1  0  0  3  0  0  0  0  0  0
  191.3700  177.6140  140.9960 O   0  0  0  0  0  1  0  0  0  0  0  0
  187.6270  177.9780  146.1720 N   0  0  0  0  0  2  0  0  0  0  0  0
  183.2240  179.0560  144.2970 C   0  0  0  0  0  1  0  0  0  0  0  0
  186.5950  178.2680  142.6120 C   0  0  0  0  0  0  0  0  0  0  0  0
  185.1150  178.5850  142.7220 C   0  0  2  0  0  3  0  0  0  0  0  0
  185.4600  178.5540  145.2290 C   0  0  0  0  0  2  0  0  0  0  0  0
  189.3610  177.7720  142.3540 C   0  0  0  0  0  0  0  0  0  0  0  0
  187.3540  177.8960  143.7440 C   0  0  0  0  0  0  0  0  0  0  0  0
  184.4960  178.2540  144.0920 C   0  0  1  0  0  3  0  0  0  0  0  0
  191.4610  177.0630  143.3350 C   0  0  0  0  0  3  0  0  0  0  0  0
  188.6090  178.1840  141.2490 C   0  0  0  0  0  3  0  0  0  0  0  0
  190.7300  177.4880  142.2230 C   0  0  0  0  0  0  0  0  0  0  0  0
  187.2430  178.4360  141.3800 C   0  0  0  0  0  3  0  0  0  0  0  0
  190.8450  176.9380  144.5810 C   0  0  0  0  0  3  0  0  0  0  0  0
  188.7320  177.6360  143.6130 C   0  0  0  0  0  0  0  0  0  0  0  0
  189.4550  178.2840  148.0230 O   0  0  0  0  0  0  0  0  0  0  0  0
  189.6990  177.3190  147.2510 C   0  0  0  0  0  0  0  0  0  0  0  0
  190.8590  176.4490  147.5230 C   0  0  0  0  0  0  0  0  0  0  0  0
  190.7540  175.2000  147.3910 O   0  0  0  0  0  0  0  0  0  0  0  0
  192.1050  177.0040  147.9340 N   0  0  0  0  0  1  0  0  0  0  0  0
  184.3020  177.9490  141.5890 C   0  0  0  0  0  2  0  0  0  0  0  0
  183.5240  178.9850  140.7930 C   0  0  0  0  0  2  0  0  0  0  0  0
  184.2870  179.3280  139.5310 C   0  0  0  0  0  2  0  0  0  0  0  0
  184.5130  178.0690  138.7220 C   0  0  0  0  0  2  0  0  0  0  0  0
  185.8250  178.1780  137.9750 C   0  0  0  0  0  1  0  0  0  0  0  0
  1  2  1  0  0  0  0
  2  5  1  0  0  0  0
  2 20  1  1  0  0  0
  3  9  1  1  0  0  0
  3  5  1  0  0  0  0
  4 15  1  0  0  0  0
  7  8  1  0  0  0  0
  7 11  2  0  0  0  0
  8 24  1  6  0  0  0
  8 12  1  0  0  0  0
 10 18  1  0  0  0  0
 11  3  1  0  0  0  0
 12  6  1  1  0  0  0
 12  9  1  0  0  0  0
 13 17  2  0  0  0  0
 14 16  2  0  0  0  0
 14 10  1  0  0  0  0
 15 10  2  0  0  0  0
 15 13  1  0  0  0  0
 16  7  1  0  0  0  0
 17  1  1  0  0  0  0
 18 11  1  0  0  0  0
 18  1  2  0  0  0  0
 20 21  1  0  0  0  0
 20 19  2  0  0  0  0
 21 23  1  0  0  0  0
 22 21  2  0  0  0  0
 25 24  1  0  0  0  0
 26 25  1  0  0  0  0
 27 26  1  0  0  0  0
 28 27  1  0  0  0  0
M  END
>  <MODEL>
8

>  <REMARK>
 VINA RESULT:      -8.7      2.987      6.340
  Name = 
  6 active torsions:
  status: ('A' for Active; 'I' for Inactive)
    1  A    between atoms: C_2  and  C_11
    2  A    between atoms: C_4  and  C_13
    3  A    between atoms: C_4  and  C_24
    4  A    between atoms: C_6  and  C_11
    5  A    between atoms: C_12  and  C_15
    6  A    between atoms: C_12  and  C_24
                            x       y       z     vdW  Elec       q    Type
                         _______ _______ _______ _____ _____    ______ ____

>  <TORSDO>
F 6

$$$$
=
 OpenBabel11052413273D

 28 31  0  0  1  0  0  0  0  0999 V2000
  188.2920  177.7820  145.8920 C   0  0  0  0  0  0  0  0  0  0  0  0
  189.7730  177.4590  145.9540 C   0  0  2  0  0  3  0  0  0  0  0  0
  189.8920  177.4120  143.5660 C   0  0  1  0  0  3  0  0  0  0  0  0
  184.2070  178.7620  145.6830 O   0  0  0  0  0  1  0  0  0  0  0  0
  190.1870  176.6690  144.7910 N   0  0  0  0  0  2  0  0  0  0  0  0
  190.6460  176.6360  139.9070 C   0  0  0  0  0  1  0  0  0  0  0  0
  187.7830  177.8130  142.1960 C   0  0  0  0  0  0  0  0  0  0  0  0
  188.5440  177.5620  140.9080 C   0  0  2  0  0  3  0  0  0  0  0  0
  190.3830  176.6180  142.3660 C   0  0  0  0  0  2  0  0  0  0  0  0
  186.2900  178.2130  144.5570 C   0  0  0  0  0  0  0  0  0  0  0  0
  188.4080  177.6830  143.4570 C   0  0  0  0  0  0  0  0  0  0  0  0
  190.0620  177.3810  141.0920 C   0  0  1  0  0  3  0  0  0  0  0  0
  186.1990  178.3750  146.9740 C   0  0  0  0  0  3  0  0  0  0  0  0
  185.6720  178.2960  143.3050 C   0  0  0  0  0  3  0  0  0  0  0  0
  185.5600  178.4480  145.7340 C   0  0  0  0  0  0  0  0  0  0  0  0
  186.4100  178.0900  142.1390 C   0  0  0  0  0  3  0  0  0  0  0  0
  187.5540  178.0520  147.0540 C   0  0  0  0  0  3  0  0  0  0  0  0
  187.6650  177.8960  144.6350 C   0  0  0  0  0  0  0  0  0  0  0  0
  189.2750  176.2170  147.9200 O   0  0  0  0  0  0  0  0  0  0  0  0
  190.1740  176.7500  147.2170 C   0  0  0  0  0  0  0  0  0  0  0  0
  191.5810  176.6590  147.6490 C   0  0  0  0  0  0  0  0  0  0  0  0
  192.0440  177.4970  148.4680 O   0  0  0  0  0  0  0  0  0  0  0  0
  192.4300  175.6290  147.1530 N   0  0  0  0  0  1  0  0  0  0  0  0
  188.2470  178.6270  139.8450 C   0  0  0  0  0  2  0  0  0  0  0  0
  187.6360  178.0250  138.5880 C   0  0  0  0  0  2  0  0  0  0  0  0
  188.4230  178.4790  137.3780 C   0  0  0  0  0  2  0  0  0  0  0  0
  188.9490  177.2670  136.6370 C   0  0  0  0  0  2  0  0  0  0  0  0
  188.2130  176.0310  137.1060 C   0  0  0  0  0  1  0  0  0  0  0  0
  1  2  1  0  0  0  0
  1 17  1  0  0  0  0
  2 20  1  1  0  0  0
  3  9  1  6  0  0  0
  3  5  1  0  0  0  0
  4 15  1  0  0  0  0
  5  2  1  0  0  0  0
  7 11  2  0  0  0  0
  8 24  1  6  0  0  0
  8 12  1  0  0  0  0
  8  7  1  0  0  0  0
 10 18  1  0  0  0  0
 10 15  2  0  0  0  0
 11  3  1  0  0  0  0
 11 18  1  0  0  0  0
 12  6  1  6  0  0  0
 12  9  1  0  0  0  0
 13 17  2  0  0  0  0
 14 10  1  0  0  0  0
 15 13  1  0  0  0  0
 16  7  1  0  0  0  0
 16 14  2  0  0  0  0
 18  1  2  0  0  0  0
 20 21  1  0  0  0  0
 20 19  2  0  0  0  0
 21 22  2  0  0  0  0
 23 21  1  0  0  0  0
 25 24  1  0  0  0  0
 26 25  1  0  0  0  0
 27 28  1  0  0  0  0
 27 26  1  0  0  0  0
M  END
>  <MODEL>
9

>  <REMARK>
 VINA RESULT:      -8.5      3.461      7.667
  Name = 
  6 active torsions:
  status: ('A' for Active; 'I' for Inactive)
    1  A    between atoms: C_2  and  C_11
    2  A    between atoms: C_4  and  C_13
    3  A    between atoms: C_4  and  C_24
    4  A    between atoms: C_6  and  C_11
    5  A    between atoms: C_12  and  C_15
    6  A    between atoms: C_12  and  C_24
                            x       y       z     vdW  Elec       q    Type
                         _______ _______ _______ _____ _____    ______ ____

>  <TORSDO>
F 6

$$$$
