=
 OpenBabel11052417003D

 32 38  0  0  0  0  0  0  0  0999 V2000
  180.1510  179.0360  141.9780 N   0  0  0  0  0  0  0  0  0  0  0  0
  185.2130  178.4250  142.5240 C   0  0  0  0  0  0  0  0  0  0  0  0
  185.8210  178.2520  147.3720 C   0  0  0  0  0  3  0  0  0  0  0  0
  187.1810  178.0040  147.1970 C   0  0  0  0  0  3  0  0  0  0  0  0
  187.1850  178.0740  141.0380 C   0  0  0  0  0  0  0  0  0  0  0  0
  188.5520  177.8180  140.9190 C   0  0  0  0  0  0  0  0  0  0  0  0
  182.9850  178.8640  141.6160 C   0  0  0  0  0  0  0  0  0  0  0  0
  183.3030  178.7560  144.0080 C   0  0  0  0  0  3  0  0  0  0  0  0
  190.7060  177.4050  141.7290 N   0  0  0  0  0  0  0  0  0  0  0  0
  181.0080  179.2520  143.1520 C   0  0  0  0  0  2  0  0  0  0  0  0
  184.9940  178.4170  146.2620 C   0  0  0  0  0  3  0  0  0  0  0  0
  184.6770  178.5050  143.8360 C   0  0  0  0  0  0  0  0  0  0  0  0
  185.5130  178.3370  144.9560 C   0  0  0  0  0  0  0  0  0  0  0  0
  187.4350  177.9990  143.4780 C   0  0  0  0  0  0  0  0  0  0  0  0
  191.0020  177.3610  140.3050 C   0  0  0  0  0  2  0  0  0  0  0  0
  180.7520  179.6190  140.7700 C   0  0  0  0  0  2  0  0  0  0  0  0
  182.4560  178.9190  142.9120 C   0  0  0  0  0  0  0  0  0  0  0  0
  189.4400  177.6690  139.3760 S   0  0  0  0  0  0  0  0  0  0  0  0
  182.0980  178.9780  140.4160 C   0  0  0  0  0  2  0  0  0  0  0  0
  187.7130  177.9210  145.9100 C   0  0  0  0  0  3  0  0  0  0  0  0
  186.8950  178.0840  144.7760 C   0  0  0  0  0  0  0  0  0  0  0  0
  188.8100  177.7430  143.3050 C   0  0  0  0  0  3  0  0  0  0  0  0
  184.3420  178.6030  141.4330 C   0  0  0  0  0  3  0  0  0  0  0  0
  186.4610  178.2220  139.8990 F   0  0  0  0  0  0  0  0  0  0  0  0
  191.7310  177.1990  142.7390 C   0  0  0  0  0  1  0  0  0  0  0  0
  186.5970  178.1680  142.3330 C   0  0  0  0  0  0  0  0  0  0  0  0
  189.3430  177.6570  142.0230 C   0  0  0  0  0  0  0  0  0  0  0  0
  179.9110  177.6060  141.8040 C   0  0  0  0  0  2  0  0  0  0  0  0
  178.9980  177.3780  140.6130 C   0  0  0  0  0  2  0  0  0  0  0  0
  179.1270  175.9450  140.1430 C   0  0  0  0  0  3  0  0  0  0  0  0
  180.5780  175.6600  139.8160 C   0  0  0  0  0  2  0  0  0  0  0  0
  179.5910  175.9330  138.7010 C   0  0  0  0  0  2  0  0  0  0  0  0
  1 10  1  0  0  0  0
  2 12  1  0  0  0  0
  4  3  1  0  0  0  0
  5 26  1  0  0  0  0
  6  5  2  0  0  0  0
  6 27  1  0  0  0  0
  7 17  1  0  0  0  0
  9 27  1  0  0  0  0
  9 25  1  0  0  0  0
 11  3  2  0  0  0  0
 12  8  1  0  0  0  0
 12 13  2  0  0  0  0
 13 11  1  0  0  0  0
 14 21  2  0  0  0  0
 15  9  1  0  0  0  0
 16  1  1  0  0  0  0
 17 10  1  0  0  0  0
 17  8  2  0  0  0  0
 18 15  1  0  0  0  0
 18  6  1  0  0  0  0
 19 16  1  0  0  0  0
 19  7  1  0  0  0  0
 20  4  2  0  0  0  0
 21 13  1  0  0  0  0
 21 20  1  0  0  0  0
 22 14  1  0  0  0  0
 23  7  2  0  0  0  0
 23  2  1  0  0  0  0
 24  5  1  0  0  0  0
 26  2  2  0  0  0  0
 26 14  1  0  0  0  0
 27 22  2  0  0  0  0
 28  1  1  0  0  0  0
 29 28  1  0  0  0  0
 30 29  1  0  0  0  0
 31 30  1  0  0  0  0
 32 31  1  0  0  0  0
 32 30  1  0  0  0  0
M  END
>  <MODEL>
1

>  <REMARK>
 VINA RESULT:     -10.4      0.000      0.000
  Name = 
  3 active torsions:
  status: ('A' for Active; 'I' for Inactive)
    1  A    between atoms: C_1  and  C_10
    2  A    between atoms: N_2  and  C_24
    3  A    between atoms: C_10  and  C_24
                            x       y       z     vdW  Elec       q    Type
                         _______ _______ _______ _____ _____    ______ ____

>  <TORSDO>
F 3

$$$$
=
 OpenBabel11052417003D

 32 38  0  0  0  0  0  0  0  0999 V2000
  187.5940  177.9410  136.7590 N   0  0  0  0  0  0  0  0  0  0  0  0
  187.7460  177.9500  141.8850 C   0  0  0  0  0  0  0  0  0  0  0  0
  183.1450  179.0040  143.1580 C   0  0  0  0  0  3  0  0  0  0  0  0
  183.4770  178.8480  144.5020 C   0  0  0  0  0  3  0  0  0  0  0  0
  189.4140  177.4360  143.6680 C   0  0  0  0  0  0  0  0  0  0  0  0
  189.6910  177.2860  145.0280 C   0  0  0  0  0  0  0  0  0  0  0  0
  188.3590  177.9490  139.5180 C   0  0  0  0  0  0  0  0  0  0  0  0
  186.0870  178.4500  140.1660 C   0  0  0  0  0  3  0  0  0  0  0  0
  189.1650  177.2810  147.3060 N   0  0  0  0  0  0  0  0  0  0  0  0
  186.6520  178.5100  137.7320 C   0  0  0  0  0  2  0  0  0  0  0  0
  184.1160  178.8200  142.1750 C   0  0  0  0  0  3  0  0  0  0  0  0
  186.4170  178.2920  141.5250 C   0  0  0  0  0  0  0  0  0  0  0  0
  185.4370  178.4770  142.5190 C   0  0  0  0  0  0  0  0  0  0  0  0
  187.0910  177.9730  144.2520 C   0  0  0  0  0  0  0  0  0  0  0  0
  190.5720  176.9240  147.4100 C   0  0  0  0  0  2  0  0  0  0  0  0
  188.9820  178.2700  137.1130 C   0  0  0  0  0  2  0  0  0  0  0  0
  187.0400  178.2650  139.1660 C   0  0  0  0  0  0  0  0  0  0  0  0
  191.2830  176.8540  145.7110 S   0  0  0  0  0  0  0  0  0  0  0  0
  189.3960  177.6900  138.4700 C   0  0  0  0  0  2  0  0  0  0  0  0
  184.7810  178.5080  144.8620 C   0  0  0  0  0  3  0  0  0  0  0  0
  185.7760  178.3170  143.8850 C   0  0  0  0  0  0  0  0  0  0  0  0
  187.4220  177.8120  145.6120 C   0  0  0  0  0  3  0  0  0  0  0  0
  188.6950  177.7790  140.8600 C   0  0  0  0  0  3  0  0  0  0  0  0
  190.4250  177.2390  142.7840 F   0  0  0  0  0  0  0  0  0  0  0  0
  188.3130  177.4210  148.4760 C   0  0  0  0  0  1  0  0  0  0  0  0
  188.0950  177.7840  143.2520 C   0  0  0  0  0  0  0  0  0  0  0  0
  188.7200  177.4700  145.9740 C   0  0  0  0  0  0  0  0  0  0  0  0
  187.4030  176.4950  136.6820 C   0  0  0  0  0  2  0  0  0  0  0  0
  185.9830  176.1840  136.2500 C   0  0  0  0  0  2  0  0  0  0  0  0
  185.4000  175.1140  137.1490 C   0  0  0  0  0  3  0  0  0  0  0  0
  184.1820  174.5150  136.4780 C   0  0  0  0  0  2  0  0  0  0  0  0
  184.0110  175.5320  137.5860 C   0  0  0  0  0  2  0  0  0  0  0  0
  1 16  1  0  0  0  0
  1 10  1  0  0  0  0
  2 26  1  0  0  0  0
  3  4  1  0  0  0  0
  4 20  2  0  0  0  0
  5  6  1  0  0  0  0
  6 18  1  0  0  0  0
  6 27  2  0  0  0  0
  7 23  1  0  0  0  0
  8 12  2  0  0  0  0
  9 15  1  0  0  0  0
  9 25  1  0  0  0  0
 10 17  1  0  0  0  0
 11 13  1  0  0  0  0
 11  3  2  0  0  0  0
 12  2  1  0  0  0  0
 12 13  1  0  0  0  0
 13 21  2  0  0  0  0
 14 22  2  0  0  0  0
 16 19  1  0  0  0  0
 17  7  2  0  0  0  0
 17  8  1  0  0  0  0
 18 15  1  0  0  0  0
 19  7  1  0  0  0  0
 21 14  1  0  0  0  0
 21 20  1  0  0  0  0
 22 27  1  0  0  0  0
 23  2  2  0  0  0  0
 24  5  1  0  0  0  0
 26  5  2  0  0  0  0
 26 14  1  0  0  0  0
 27  9  1  0  0  0  0
 28  1  1  0  0  0  0
 29 28  1  0  0  0  0
 29 30  1  0  0  0  0
 30 32  1  0  0  0  0
 31 30  1  0  0  0  0
 31 32  1  0  0  0  0
M  END
>  <MODEL>
2

>  <REMARK>
 VINA RESULT:     -10.3      3.313      5.596
  Name = 
  3 active torsions:
  status: ('A' for Active; 'I' for Inactive)
    1  A    between atoms: C_1  and  C_10
    2  A    between atoms: N_2  and  C_24
    3  A    between atoms: C_10  and  C_24
                            x       y       z     vdW  Elec       q    Type
                         _______ _______ _______ _____ _____    ______ ____

>  <TORSDO>
F 3

$$$$
=
 OpenBabel11052417003D

 32 38  0  0  0  0  0  0  0  0999 V2000
  187.6200  177.9110  136.9900 N   0  0  0  0  0  0  0  0  0  0  0  0
  187.7550  177.9680  142.1160 C   0  0  0  0  0  0  0  0  0  0  0  0
  183.1440  179.0070  143.3650 C   0  0  0  0  0  3  0  0  0  0  0  0
  183.4720  178.8650  144.7110 C   0  0  0  0  0  3  0  0  0  0  0  0
  189.4200  177.4800  143.9080 C   0  0  0  0  0  0  0  0  0  0  0  0
  189.6930  177.3450  145.2710 C   0  0  0  0  0  0  0  0  0  0  0  0
  188.3760  177.9490  139.7510 C   0  0  0  0  0  0  0  0  0  0  0  0
  186.0990  178.4420  140.3880 C   0  0  0  0  0  3  0  0  0  0  0  0
  189.1610  177.3580  147.5470 N   0  0  0  0  0  0  0  0  0  0  0  0
  186.6710  178.4840  137.9540 C   0  0  0  0  0  2  0  0  0  0  0  0
  184.1190  178.8200  142.3860 C   0  0  0  0  0  3  0  0  0  0  0  0
  186.4250  178.3000  141.7490 C   0  0  0  0  0  0  0  0  0  0  0  0
  185.4410  178.4870  142.7380 C   0  0  0  0  0  0  0  0  0  0  0  0
  187.0930  178.0090  144.4800 C   0  0  0  0  0  0  0  0  0  0  0  0
  190.5690  177.0100  147.6600 C   0  0  0  0  0  2  0  0  0  0  0  0
  189.0050  178.2510  137.3450 C   0  0  0  0  0  2  0  0  0  0  0  0
  187.0560  178.2540  139.3920 C   0  0  0  0  0  0  0  0  0  0  0  0
  191.2860  176.9280  145.9640 S   0  0  0  0  0  0  0  0  0  0  0  0
  189.4170  177.6860  138.7090 C   0  0  0  0  0  2  0  0  0  0  0  0
  184.7770  178.5360  145.0780 C   0  0  0  0  0  3  0  0  0  0  0  0
  185.7760  178.3420  144.1060 C   0  0  0  0  0  0  0  0  0  0  0  0
  187.4200  177.8630  145.8430 C   0  0  0  0  0  3  0  0  0  0  0  0
  188.7080  177.7940  141.0960 C   0  0  0  0  0  3  0  0  0  0  0  0
  190.4360  177.2810  143.0300 F   0  0  0  0  0  0  0  0  0  0  0  0
  188.3040  177.5030  148.7130 C   0  0  0  0  0  1  0  0  0  0  0  0
  188.1010  177.8170  143.4860 C   0  0  0  0  0  0  0  0  0  0  0  0
  188.7190  177.5320  146.2120 C   0  0  0  0  0  0  0  0  0  0  0  0
  187.4370  176.4630  136.9260 C   0  0  0  0  0  2  0  0  0  0  0  0
  188.1870  175.9020  135.7330 C   0  0  0  0  0  2  0  0  0  0  0  0
  188.6070  174.4760  136.0220 C   0  0  0  0  0  3  0  0  0  0  0  0
  189.7360  174.4880  137.0320 C   0  0  0  0  0  2  0  0  0  0  0  0
  190.0360  174.2740  135.5630 C   0  0  0  0  0  2  0  0  0  0  0  0
  1 16  1  0  0  0  0
  1 10  1  0  0  0  0
  2 26  1  0  0  0  0
  3  4  1  0  0  0  0
  4 20  2  0  0  0  0
  5  6  1  0  0  0  0
  6 18  1  0  0  0  0
  6 27  2  0  0  0  0
  7 23  1  0  0  0  0
  8 12  2  0  0  0  0
  9 15  1  0  0  0  0
  9 25  1  0  0  0  0
 10 17  1  0  0  0  0
 11 13  1  0  0  0  0
 11  3  2  0  0  0  0
 12  2  1  0  0  0  0
 12 13  1  0  0  0  0
 13 21  2  0  0  0  0
 14 22  2  0  0  0  0
 16 19  1  0  0  0  0
 17  7  2  0  0  0  0
 17  8  1  0  0  0  0
 18 15  1  0  0  0  0
 19  7  1  0  0  0  0
 21 14  1  0  0  0  0
 21 20  1  0  0  0  0
 22 27  1  0  0  0  0
 23  2  2  0  0  0  0
 24  5  1  0  0  0  0
 26  5  2  0  0  0  0
 26 14  1  0  0  0  0
 27  9  1  0  0  0  0
 28  1  1  0  0  0  0
 29 30  1  0  0  0  0
 29 28  1  0  0  0  0
 30 31  1  0  0  0  0
 32 30  1  0  0  0  0
 32 31  1  0  0  0  0
M  END
>  <MODEL>
3

>  <REMARK>
 VINA RESULT:     -10.3      3.508      6.310
  Name = 
  3 active torsions:
  status: ('A' for Active; 'I' for Inactive)
    1  A    between atoms: C_1  and  C_10
    2  A    between atoms: N_2  and  C_24
    3  A    between atoms: C_10  and  C_24
                            x       y       z     vdW  Elec       q    Type
                         _______ _______ _______ _____ _____    ______ ____

>  <TORSDO>
F 3

$$$$
=
 OpenBabel11052417003D

 32 38  0  0  0  0  0  0  0  0999 V2000
  180.8070  179.7690  138.8720 N   0  0  0  0  0  0  0  0  0  0  0  0
  184.8760  178.5160  141.7310 C   0  0  0  0  0  0  0  0  0  0  0  0
  188.4880  178.1240  138.4590 C   0  0  0  0  0  3  0  0  0  0  0  0
  189.3980  177.8890  139.4870 C   0  0  0  0  0  3  0  0  0  0  0  0
  185.3970  178.2530  144.1560 C   0  0  0  0  0  0  0  0  0  0  0  0
  186.3520  178.0180  145.1470 C   0  0  0  0  0  0  0  0  0  0  0  0
  182.6000  178.9560  140.9500 C   0  0  0  0  0  0  0  0  0  0  0  0
  184.4020  178.7770  139.3510 C   0  0  0  0  0  3  0  0  0  0  0  0
  188.5050  177.5870  145.9510 N   0  0  0  0  0  0  0  0  0  0  0  0
  182.0950  179.1840  138.4780 C   0  0  0  0  0  2  0  0  0  0  0  0
  187.1420  178.3390  138.7560 C   0  0  0  0  0  3  0  0  0  0  0  0
  185.3260  178.5390  140.3850 C   0  0  0  0  0  0  0  0  0  0  0  0
  186.6850  178.3230  140.0870 C   0  0  0  0  0  0  0  0  0  0  0  0
  187.1730  178.0640  142.4720 C   0  0  0  0  0  0  0  0  0  0  0  0
  187.8040  177.6230  147.2260 C   0  0  0  0  0  2  0  0  0  0  0  0
  180.2630  179.0970  140.0610 C   0  0  0  0  0  2  0  0  0  0  0  0
  183.0530  179.0000  139.6250 C   0  0  0  0  0  0  0  0  0  0  0  0
  186.0200  177.9510  146.9000 S   0  0  0  0  0  0  0  0  0  0  0  0
  181.1720  179.2460  141.2870 C   0  0  0  0  0  2  0  0  0  0  0  0
  188.9630  177.8690  140.8120 C   0  0  0  0  0  3  0  0  0  0  0  0
  187.6090  178.0840  141.1330 C   0  0  0  0  0  0  0  0  0  0  0  0
  188.0980  177.8290  143.5090 C   0  0  0  0  0  3  0  0  0  0  0  0
  183.5080  178.7330  141.9840 C   0  0  0  0  0  3  0  0  0  0  0  0
  184.1110  178.4490  144.5420 F   0  0  0  0  0  0  0  0  0  0  0  0
  189.9360  177.3460  145.8620 C   0  0  0  0  0  1  0  0  0  0  0  0
  185.7960  178.2810  142.7880 C   0  0  0  0  0  0  0  0  0  0  0  0
  187.6670  177.8110  144.8310 C   0  0  0  0  0  0  0  0  0  0  0  0
  180.9730  181.2010  139.1110 C   0  0  0  0  0  2  0  0  0  0  0  0
  181.4640  181.8800  137.8480 C   0  0  0  0  0  2  0  0  0  0  0  0
  180.6360  183.1190  137.5820 C   0  0  0  0  0  3  0  0  0  0  0  0
  180.8030  183.5250  136.1320 C   0  0  0  0  0  2  0  0  0  0  0  0
  181.5550  184.2660  137.2170 C   0  0  0  0  0  2  0  0  0  0  0  0
  1 28  1  0  0  0  0
  1 16  1  0  0  0  0
  2 23  1  0  0  0  0
  2 26  1  0  0  0  0
  3 11  2  0  0  0  0
  3  4  1  0  0  0  0
  4 20  2  0  0  0  0
  5 24  1  0  0  0  0
  5  6  1  0  0  0  0
  6 18  1  0  0  0  0
  7 19  1  0  0  0  0
  7 23  2  0  0  0  0
  8 17  2  0  0  0  0
  8 12  1  0  0  0  0
  9 15  1  0  0  0  0
 10  1  1  0  0  0  0
 10 17  1  0  0  0  0
 11 13  1  0  0  0  0
 12  2  2  0  0  0  0
 13 12  1  0  0  0  0
 13 21  2  0  0  0  0
 14 26  1  0  0  0  0
 14 22  2  0  0  0  0
 16 19  1  0  0  0  0
 17  7  1  0  0  0  0
 18 15  1  0  0  0  0
 20 21  1  0  0  0  0
 21 14  1  0  0  0  0
 22 27  1  0  0  0  0
 25  9  1  0  0  0  0
 26  5  2  0  0  0  0
 27  6  2  0  0  0  0
 27  9  1  0  0  0  0
 29 28  1  0  0  0  0
 30 29  1  0  0  0  0
 31 32  1  0  0  0  0
 31 30  1  0  0  0  0
 32 30  1  0  0  0  0
M  END
>  <MODEL>
4

>  <REMARK>
 VINA RESULT:      -9.0      2.967      5.209
  Name = 
  3 active torsions:
  status: ('A' for Active; 'I' for Inactive)
    1  A    between atoms: C_1  and  C_10
    2  A    between atoms: N_2  and  C_24
    3  A    between atoms: C_10  and  C_24
                            x       y       z     vdW  Elec       q    Type
                         _______ _______ _______ _____ _____    ______ ____

>  <TORSDO>
F 3

$$$$
=
 OpenBabel11052417003D

 32 38  0  0  0  0  0  0  0  0999 V2000
  189.0410  177.8110  147.2140 N   0  0  0  0  0  0  0  0  0  0  0  0
  185.2430  178.5060  143.8400 C   0  0  0  0  0  0  0  0  0  0  0  0
  187.5050  178.2530  139.5120 C   0  0  0  0  0  3  0  0  0  0  0  0
  186.2790  178.3750  138.8610 C   0  0  0  0  0  3  0  0  0  0  0  0
  182.7620  178.7530  143.9030 C   0  0  0  0  0  0  0  0  0  0  0  0
  181.5610  178.8660  143.1990 C   0  0  0  0  0  0  0  0  0  0  0  0
  186.5730  178.3970  145.8890 C   0  0  0  0  0  0  0  0  0  0  0  0
  187.6690  178.2560  143.7420 C   0  0  0  0  0  3  0  0  0  0  0  0
  180.2400  178.9850  141.2740 N   0  0  0  0  0  0  0  0  0  0  0  0
  189.0950  178.1820  145.7930 C   0  0  0  0  0  2  0  0  0  0  0  0
  187.5550  178.2540  140.9060 C   0  0  0  0  0  3  0  0  0  0  0  0
  186.4340  178.3780  143.0790 C   0  0  0  0  0  0  0  0  0  0  0  0
  186.3810  178.3760  141.6720 C   0  0  0  0  0  0  0  0  0  0  0  0
  183.9470  178.6220  141.7580 C   0  0  0  0  0  0  0  0  0  0  0  0
  179.1810  179.0910  142.2670 C   0  0  0  0  0  2  0  0  0  0  0  0
  188.0180  178.5900  147.9260 C   0  0  0  0  0  2  0  0  0  0  0  0
  187.7430  178.2480  145.1340 C   0  0  0  0  0  0  0  0  0  0  0  0
  179.9450  179.0300  143.9430 S   0  0  0  0  0  0  0  0  0  0  0  0
  186.6070  178.3380  147.3840 C   0  0  0  0  0  2  0  0  0  0  0  0
  185.1050  178.4970  139.6030 C   0  0  0  0  0  3  0  0  0  0  0  0
  185.1350  178.4990  141.0100 C   0  0  0  0  0  0  0  0  0  0  0  0
  182.7090  178.7410  141.0940 C   0  0  0  0  0  3  0  0  0  0  0  0
  185.3420  178.5070  145.2430 C   0  0  0  0  0  3  0  0  0  0  0  0
  182.7110  178.7660  145.2590 F   0  0  0  0  0  0  0  0  0  0  0  0
  179.9660  179.0020  139.8460 C   0  0  0  0  0  1  0  0  0  0  0  0
  183.9870  178.6260  143.1860 C   0  0  0  0  0  0  0  0  0  0  0  0
  181.5370  178.8610  141.8320 C   0  0  0  0  0  0  0  0  0  0  0  0
  188.7860  176.3780  147.3360 C   0  0  0  0  0  2  0  0  0  0  0  0
  190.0640  175.6570  147.7180 C   0  0  0  0  0  2  0  0  0  0  0  0
  191.2550  176.5450  147.4250 C   0  0  0  0  0  3  0  0  0  0  0  0
  192.0550  175.9400  146.2900 C   0  0  0  0  0  2  0  0  0  0  0  0
  192.5310  175.7820  147.7190 C   0  0  0  0  0  2  0  0  0  0  0  0
  1 28  1  0  0  0  0
  1 16  1  0  0  0  0
  2 23  1  0  0  0  0
  3 11  1  0  0  0  0
  4  3  2  0  0  0  0
  4 20  1  0  0  0  0
  5 24  1  0  0  0  0
  6  5  1  0  0  0  0
  6 18  1  0  0  0  0
  7 19  1  0  0  0  0
  8 17  2  0  0  0  0
  9 27  1  0  0  0  0
  9 15  1  0  0  0  0
 10  1  1  0  0  0  0
 11 13  2  0  0  0  0
 12  8  1  0  0  0  0
 12  2  2  0  0  0  0
 13 12  1  0  0  0  0
 14 26  1  0  0  0  0
 15 18  1  0  0  0  0
 17 10  1  0  0  0  0
 17  7  1  0  0  0  0
 19 16  1  0  0  0  0
 20 21  2  0  0  0  0
 21 13  1  0  0  0  0
 21 14  1  0  0  0  0
 22 14  2  0  0  0  0
 22 27  1  0  0  0  0
 23  7  2  0  0  0  0
 25  9  1  0  0  0  0
 26  2  1  0  0  0  0
 26  5  2  0  0  0  0
 27  6  2  0  0  0  0
 28 29  1  0  0  0  0
 30 29  1  0  0  0  0
 30 32  1  0  0  0  0
 31 30  1  0  0  0  0
 31 32  1  0  0  0  0
M  END
>  <MODEL>
5

>  <REMARK>
 VINA RESULT:      -8.8      3.048      8.649
  Name = 
  3 active torsions:
  status: ('A' for Active; 'I' for Inactive)
    1  A    between atoms: C_1  and  C_10
    2  A    between atoms: N_2  and  C_24
    3  A    between atoms: C_10  and  C_24
                            x       y       z     vdW  Elec       q    Type
                         _______ _______ _______ _____ _____    ______ ____

>  <TORSDO>
F 3

$$$$
=
 OpenBabel11052417003D

 32 38  0  0  0  0  0  0  0  0999 V2000
  183.4500  179.0420  140.5030 N   0  0  0  0  0  0  0  0  0  0  0  0
  188.2900  177.7130  139.4540 C   0  0  0  0  0  0  0  0  0  0  0  0
  190.5000  177.9340  143.8100 C   0  0  0  0  0  3  0  0  0  0  0  0
  191.6810  177.4620  143.2390 C   0  0  0  0  0  3  0  0  0  0  0  0
  189.5810  176.9150  137.4740 C   0  0  0  0  0  0  0  0  0  0  0  0
  190.7870  176.4400  136.9550 C   0  0  0  0  0  0  0  0  0  0  0  0
  185.9500  178.3980  139.2670 C   0  0  0  0  0  0  0  0  0  0  0  0
  187.0550  178.4820  141.4130 C   0  0  0  0  0  3  0  0  0  0  0  0
  193.0270  175.7830  137.0710 N   0  0  0  0  0  0  0  0  0  0  0  0
  184.6750  179.2390  141.2890 C   0  0  0  0  0  2  0  0  0  0  0  0
  189.3670  178.1130  143.0170 C   0  0  0  0  0  3  0  0  0  0  0  0
  188.2490  178.0060  140.8420 C   0  0  0  0  0  0  0  0  0  0  0  0
  189.3940  177.8230  141.6400 C   0  0  0  0  0  0  0  0  0  0  0  0
  190.6420  177.0460  139.6830 C   0  0  0  0  0  0  0  0  0  0  0  0
  192.8100  175.5520  135.6510 C   0  0  0  0  0  2  0  0  0  0  0  0
  183.6620  179.4020  139.0940 C   0  0  0  0  0  2  0  0  0  0  0  0
  185.9070  178.6640  140.6420 C   0  0  0  0  0  0  0  0  0  0  0  0
  191.0700  176.0030  135.2470 S   0  0  0  0  0  0  0  0  0  0  0  0
  184.7250  178.5280  138.4190 C   0  0  0  0  0  2  0  0  0  0  0  0
  191.7260  177.1700  141.8760 C   0  0  0  0  0  3  0  0  0  0  0  0
  190.5930  177.3440  141.0590 C   0  0  0  0  0  0  0  0  0  0  0  0
  191.8370  176.5660  139.1110 C   0  0  0  0  0  3  0  0  0  0  0  0
  187.1240  177.9140  138.6920 C   0  0  0  0  0  3  0  0  0  0  0  0
  188.5320  177.0590  136.6250 F   0  0  0  0  0  0  0  0  0  0  0  0
  194.3070  175.5230  137.7100 C   0  0  0  0  0  1  0  0  0  0  0  0
  189.4870  177.2280  138.8620 C   0  0  0  0  0  0  0  0  0  0  0  0
  191.8850  176.2710  137.7530 C   0  0  0  0  0  0  0  0  0  0  0  0
  183.0060  177.6560  140.6280 C   0  0  0  0  0  2  0  0  0  0  0  0
  181.6160  177.5050  140.0390 C   0  0  0  0  0  2  0  0  0  0  0  0
  181.4210  176.0830  139.5550 C   0  0  0  0  0  3  0  0  0  0  0  0
  182.6780  175.6280  138.8420 C   0  0  0  0  0  2  0  0  0  0  0  0
  181.4680  176.0600  138.0410 C   0  0  0  0  0  2  0  0  0  0  0  0
  1 28  1  0  0  0  0
  1 10  1  0  0  0  0
  2 12  1  0  0  0  0
  4  3  1  0  0  0  0
  5 26  1  0  0  0  0
  6  5  2  0  0  0  0
  6 27  1  0  0  0  0
  7 17  1  0  0  0  0
  9 25  1  0  0  0  0
  9 27  1  0  0  0  0
 11  3  2  0  0  0  0
 12  8  1  0  0  0  0
 12 13  2  0  0  0  0
 13 11  1  0  0  0  0
 14 21  2  0  0  0  0
 15  9  1  0  0  0  0
 16  1  1  0  0  0  0
 17 10  1  0  0  0  0
 17  8  2  0  0  0  0
 18 15  1  0  0  0  0
 18  6  1  0  0  0  0
 19 16  1  0  0  0  0
 19  7  1  0  0  0  0
 20  4  2  0  0  0  0
 21 13  1  0  0  0  0
 21 20  1  0  0  0  0
 22 14  1  0  0  0  0
 23  7  2  0  0  0  0
 23  2  1  0  0  0  0
 24  5  1  0  0  0  0
 26  2  2  0  0  0  0
 26 14  1  0  0  0  0
 27 22  2  0  0  0  0
 29 28  1  0  0  0  0
 30 29  1  0  0  0  0
 31 30  1  0  0  0  0
 32 31  1  0  0  0  0
 32 30  1  0  0  0  0
M  END
>  <MODEL>
6

>  <REMARK>
 VINA RESULT:      -7.7      2.945      4.537
  Name = 
  3 active torsions:
  status: ('A' for Active; 'I' for Inactive)
    1  A    between atoms: C_1  and  C_10
    2  A    between atoms: N_2  and  C_24
    3  A    between atoms: C_10  and  C_24
                            x       y       z     vdW  Elec       q    Type
                         _______ _______ _______ _____ _____    ______ ____

>  <TORSDO>
F 3

$$$$
=
 OpenBabel11052417003D

 32 38  0  0  0  0  0  0  0  0999 V2000
  191.5570  177.3710  143.8810 N   0  0  0  0  0  0  0  0  0  0  0  0
  187.3530  178.2440  141.0780 C   0  0  0  0  0  0  0  0  0  0  0  0
  188.9650  177.9060  136.4740 C   0  0  0  0  0  3  0  0  0  0  0  0
  187.6660  178.0840  136.0020 C   0  0  0  0  0  3  0  0  0  0  0  0
  184.9190  178.6010  141.4900 C   0  0  0  0  0  0  0  0  0  0  0  0
  183.6370  178.7700  140.9640 C   0  0  0  0  0  0  0  0  0  0  0  0
  188.9530  178.0700  142.9180 C   0  0  0  0  0  0  0  0  0  0  0  0
  189.7270  177.8880  140.6370 C   0  0  0  0  0  3  0  0  0  0  0  0
  182.0630  178.9530  139.2450 N   0  0  0  0  0  0  0  0  0  0  0  0
  191.4250  177.7440  142.4660 C   0  0  0  0  0  2  0  0  0  0  0  0
  189.2130  177.9000  137.8460 C   0  0  0  0  0  3  0  0  0  0  0  0
  188.4180  178.0660  140.1550 C   0  0  0  0  0  0  0  0  0  0  0  0
  188.1650  178.0720  138.7700 C   0  0  0  0  0  0  0  0  0  0  0  0
  185.7810  178.4250  139.1990 C   0  0  0  0  0  0  0  0  0  0  0  0
  181.1610  179.1030  140.3770 C   0  0  0  0  0  2  0  0  0  0  0  0
  190.6800  178.1930  144.7280 C   0  0  0  0  0  2  0  0  0  0  0  0
  189.9980  177.8720  142.0050 C   0  0  0  0  0  0  0  0  0  0  0  0
  182.1520  179.0030  141.9280 S   0  0  0  0  0  0  0  0  0  0  0  0
  189.1960  178.0050  144.3930 C   0  0  0  0  0  2  0  0  0  0  0  0
  186.6160  178.2560  136.9030 C   0  0  0  0  0  3  0  0  0  0  0  0
  186.8450  178.2520  138.2920 C   0  0  0  0  0  0  0  0  0  0  0  0
  184.4690  178.6010  138.7180 C   0  0  0  0  0  3  0  0  0  0  0  0
  187.6500  178.2370  142.4530 C   0  0  0  0  0  3  0  0  0  0  0  0
  185.0620  178.6120  142.8400 F   0  0  0  0  0  0  0  0  0  0  0  0
  181.5910  178.9870  137.8700 C   0  0  0  0  0  1  0  0  0  0  0  0
  186.0240  178.4230  140.6080 C   0  0  0  0  0  0  0  0  0  0  0  0
  183.4190  178.7700  139.6140 C   0  0  0  0  0  0  0  0  0  0  0  0
  191.2580  175.9510  144.0430 C   0  0  0  0  0  2  0  0  0  0  0  0
  192.0550  175.3850  145.2030 C   0  0  0  0  0  2  0  0  0  0  0  0
  192.0130  176.3520  146.3670 C   0  0  0  0  0  3  0  0  0  0  0  0
  192.4450  175.6280  147.6260 C   0  0  0  0  0  2  0  0  0  0  0  0
  190.9750  175.8840  147.3670 C   0  0  0  0  0  2  0  0  0  0  0  0
  1 28  1  0  0  0  0
  1 16  1  0  0  0  0
  2 23  1  0  0  0  0
  3 11  1  0  0  0  0
  4  3  2  0  0  0  0
  4 20  1  0  0  0  0
  5 24  1  0  0  0  0
  6  5  1  0  0  0  0
  6 18  1  0  0  0  0
  7 19  1  0  0  0  0
  8 17  2  0  0  0  0
  9 27  1  0  0  0  0
  9 15  1  0  0  0  0
 10  1  1  0  0  0  0
 11 13  2  0  0  0  0
 12  8  1  0  0  0  0
 12  2  2  0  0  0  0
 13 12  1  0  0  0  0
 14 26  1  0  0  0  0
 15 18  1  0  0  0  0
 17 10  1  0  0  0  0
 17  7  1  0  0  0  0
 19 16  1  0  0  0  0
 20 21  2  0  0  0  0
 21 13  1  0  0  0  0
 21 14  1  0  0  0  0
 22 14  2  0  0  0  0
 22 27  1  0  0  0  0
 23  7  2  0  0  0  0
 25  9  1  0  0  0  0
 26  2  1  0  0  0  0
 26  5  2  0  0  0  0
 27  6  2  0  0  0  0
 28 29  1  0  0  0  0
 29 30  1  0  0  0  0
 30 32  1  0  0  0  0
 30 31  1  0  0  0  0
 32 31  1  0  0  0  0
M  END
>  <MODEL>
7

>  <REMARK>
 VINA RESULT:      -7.6      2.958      9.027
  Name = 
  3 active torsions:
  status: ('A' for Active; 'I' for Inactive)
    1  A    between atoms: C_1  and  C_10
    2  A    between atoms: N_2  and  C_24
    3  A    between atoms: C_10  and  C_24
                            x       y       z     vdW  Elec       q    Type
                         _______ _______ _______ _____ _____    ______ ____

>  <TORSDO>
F 3

$$$$
=
 OpenBabel11052417003D

 32 38  0  0  0  0  0  0  0  0999 V2000
  188.7550  177.9180  136.0750 N   0  0  0  0  0  0  0  0  0  0  0  0
  187.0060  178.1940  140.8880 C   0  0  0  0  0  0  0  0  0  0  0  0
  182.2280  179.0610  140.3140 C   0  0  0  0  0  3  0  0  0  0  0  0
  182.0460  178.9910  141.6940 C   0  0  0  0  0  3  0  0  0  0  0  0
  187.9150  177.8620  143.1870 C   0  0  0  0  0  0  0  0  0  0  0  0
  187.6750  177.7960  144.5610 C   0  0  0  0  0  0  0  0  0  0  0  0
  188.4480  178.1080  138.9150 C   0  0  0  0  0  0  0  0  0  0  0  0
  186.0820  178.5160  138.6520 C   0  0  0  0  0  3  0  0  0  0  0  0
  186.3470  177.8780  146.4830 N   0  0  0  0  0  0  0  0  0  0  0  0
  187.5030  178.4850  136.5950 C   0  0  0  0  0  2  0  0  0  0  0  0
  183.4990  178.8810  139.7700 C   0  0  0  0  0  3  0  0  0  0  0  0
  185.8930  178.4460  140.0440 C   0  0  0  0  0  0  0  0  0  0  0  0
  184.6100  178.6270  140.5960 C   0  0  0  0  0  0  0  0  0  0  0  0
  185.5250  178.3010  142.8430 C   0  0  0  0  0  0  0  0  0  0  0  0
  187.6270  177.6030  147.1190 C   0  0  0  0  0  2  0  0  0  0  0  0
  189.9040  178.3400  136.8900 C   0  0  0  0  0  2  0  0  0  0  0  0
  187.3430  178.3340  138.0840 C   0  0  0  0  0  0  0  0  0  0  0  0
  188.9160  177.4860  145.8070 S   0  0  0  0  0  0  0  0  0  0  0  0
  189.8060  177.8520  138.3390 C   0  0  0  0  0  2  0  0  0  0  0  0
  183.1360  178.7400  142.5280 C   0  0  0  0  0  3  0  0  0  0  0  0
  184.4260  178.5550  141.9980 C   0  0  0  0  0  0  0  0  0  0  0  0
  185.3350  178.2270  144.2370 C   0  0  0  0  0  3  0  0  0  0  0  0
  188.2710  178.0240  140.2950 C   0  0  0  0  0  3  0  0  0  0  0  0
  189.1860  177.6750  142.7500 F   0  0  0  0  0  0  0  0  0  0  0  0
  185.1200  178.0290  147.2480 C   0  0  0  0  0  1  0  0  0  0  0  0
  186.8320  178.1160  142.2960 C   0  0  0  0  0  0  0  0  0  0  0  0
  186.4190  177.9740  145.0710 C   0  0  0  0  0  0  0  0  0  0  0  0
  188.6520  176.4620  136.0300 C   0  0  0  0  0  2  0  0  0  0  0  0
  187.5390  176.0530  135.0840 C   0  0  0  0  0  2  0  0  0  0  0  0
  186.8400  174.8230  135.6240 C   0  0  0  0  0  3  0  0  0  0  0  0
  185.3710  174.8900  135.2600 C   0  0  0  0  0  2  0  0  0  0  0  0
  185.8190  175.2450  136.6620 C   0  0  0  0  0  2  0  0  0  0  0  0
  1 10  1  0  0  0  0
  1 16  1  0  0  0  0
  2 26  1  0  0  0  0
  3  4  1  0  0  0  0
  4 20  2  0  0  0  0
  5  6  1  0  0  0  0
  6 27  2  0  0  0  0
  6 18  1  0  0  0  0
  7 23  2  0  0  0  0
  8 12  1  0  0  0  0
  9 15  1  0  0  0  0
  9 25  1  0  0  0  0
 10 17  1  0  0  0  0
 11  3  2  0  0  0  0
 11 13  1  0  0  0  0
 12 13  1  0  0  0  0
 12  2  2  0  0  0  0
 13 21  2  0  0  0  0
 14 22  2  0  0  0  0
 16 19  1  0  0  0  0
 17  8  2  0  0  0  0
 17  7  1  0  0  0  0
 18 15  1  0  0  0  0
 19  7  1  0  0  0  0
 21 20  1  0  0  0  0
 21 14  1  0  0  0  0
 22 27  1  0  0  0  0
 23  2  1  0  0  0  0
 24  5  1  0  0  0  0
 26 14  1  0  0  0  0
 26  5  2  0  0  0  0
 27  9  1  0  0  0  0
 28  1  1  0  0  0  0
 29 30  1  0  0  0  0
 29 28  1  0  0  0  0
 30 32  1  0  0  0  0
 31 30  1  0  0  0  0
 31 32  1  0  0  0  0
M  END
>  <MODEL>
8

>  <REMARK>
 VINA RESULT:      -7.5      3.457      6.653
  Name = 
  3 active torsions:
  status: ('A' for Active; 'I' for Inactive)
    1  A    between atoms: C_1  and  C_10
    2  A    between atoms: N_2  and  C_24
    3  A    between atoms: C_10  and  C_24
                            x       y       z     vdW  Elec       q    Type
                         _______ _______ _______ _____ _____    ______ ____

>  <TORSDO>
F 3

$$$$
=
 OpenBabel11052417003D

 32 38  0  0  0  0  0  0  0  0999 V2000
  191.8060  177.9060  144.0190 N   0  0  0  0  0  0  0  0  0  0  0  0
  188.5360  177.6210  140.0790 C   0  0  0  0  0  0  0  0  0  0  0  0
  191.0210  175.0830  136.7190 C   0  0  0  0  0  3  0  0  0  0  0  0
  189.9090  175.0970  135.8800 C   0  0  0  0  0  3  0  0  0  0  0  0
  186.1750  178.2730  139.6100 C   0  0  0  0  0  0  0  0  0  0  0  0
  185.0890  178.2530  138.7320 C   0  0  0  0  0  0  0  0  0  0  0  0
  189.6420  178.2300  142.1730 C   0  0  0  0  0  0  0  0  0  0  0  0
  190.8460  176.9600  140.5090 C   0  0  0  0  0  3  0  0  0  0  0  0
  183.9840  177.7080  136.7450 N   0  0  0  0  0  0  0  0  0  0  0  0
  192.0530  177.5850  142.6070 C   0  0  0  0  0  2  0  0  0  0  0  0
  190.9600  175.7020  137.9670 C   0  0  0  0  0  3  0  0  0  0  0  0
  189.7260  176.9710  139.6580 C   0  0  0  0  0  0  0  0  0  0  0  0
  189.7850  176.3460  138.3980 C   0  0  0  0  0  0  0  0  0  0  0  0
  187.4680  177.0000  137.9570 C   0  0  0  0  0  0  0  0  0  0  0  0
  182.9000  178.4210  137.4040 C   0  0  0  0  0  2  0  0  0  0  0  0
  190.9280  179.0780  144.1480 C   0  0  0  0  0  2  0  0  0  0  0  0
  190.8060  177.5680  141.7630 C   0  0  0  0  0  0  0  0  0  0  0  0
  183.4960  178.9960  139.0500 S   0  0  0  0  0  0  0  0  0  0  0  0
  189.5430  178.8450  143.5340 C   0  0  0  0  0  2  0  0  0  0  0  0
  188.7360  175.7310  136.2900 C   0  0  0  0  0  3  0  0  0  0  0  0
  188.6540  176.3610  137.5460 C   0  0  0  0  0  0  0  0  0  0  0  0
  186.3440  177.0080  137.1070 C   0  0  0  0  0  3  0  0  0  0  0  0
  188.5220  178.2370  141.3440 C   0  0  0  0  0  3  0  0  0  0  0  0
  186.0210  178.9030  140.8020 F   0  0  0  0  0  0  0  0  0  0  0  0
  183.8350  177.1260  135.4220 C   0  0  0  0  0  1  0  0  0  0  0  0
  187.3950  177.6390  139.2330 C   0  0  0  0  0  0  0  0  0  0  0  0
  185.1720  177.6370  137.5140 C   0  0  0  0  0  0  0  0  0  0  0  0
  191.2300  176.7450  144.6920 C   0  0  0  0  0  2  0  0  0  0  0  0
  191.4180  176.8730  146.1910 C   0  0  0  0  0  2  0  0  0  0  0  0
  190.1780  176.3750  146.9030 C   0  0  0  0  0  3  0  0  0  0  0  0
  188.9740  177.1340  146.3850 C   0  0  0  0  0  2  0  0  0  0  0  0
  189.5850  177.5050  147.7200 C   0  0  0  0  0  2  0  0  0  0  0  0
  1 16  1  0  0  0  0
  1 28  1  0  0  0  0
  2 23  1  0  0  0  0
  3 11  1  0  0  0  0
  4 20  1  0  0  0  0
  4  3  2  0  0  0  0
  5 24  1  0  0  0  0
  6 18  1  0  0  0  0
  6  5  2  0  0  0  0
  7 19  1  0  0  0  0
  8 17  2  0  0  0  0
  9 15  1  0  0  0  0
  9 27  1  0  0  0  0
 10  1  1  0  0  0  0
 11 13  2  0  0  0  0
 12  2  2  0  0  0  0
 12  8  1  0  0  0  0
 13 12  1  0  0  0  0
 14 26  2  0  0  0  0
 15 18  1  0  0  0  0
 17  7  1  0  0  0  0
 17 10  1  0  0  0  0
 19 16  1  0  0  0  0
 20 21  2  0  0  0  0
 21 14  1  0  0  0  0
 21 13  1  0  0  0  0
 22 27  2  0  0  0  0
 22 14  1  0  0  0  0
 23  7  2  0  0  0  0
 25  9  1  0  0  0  0
 26  5  1  0  0  0  0
 26  2  1  0  0  0  0
 27  6  1  0  0  0  0
 28 29  1  0  0  0  0
 29 30  1  0  0  0  0
 30 32  1  0  0  0  0
 31 30  1  0  0  0  0
 31 32  1  0  0  0  0
M  END
>  <MODEL>
9

>  <REMARK>
 VINA RESULT:      -7.4      3.758      8.981
  Name = 
  3 active torsions:
  status: ('A' for Active; 'I' for Inactive)
    1  A    between atoms: C_1  and  C_10
    2  A    between atoms: N_2  and  C_24
    3  A    between atoms: C_10  and  C_24
                            x       y       z     vdW  Elec       q    Type
                         _______ _______ _______ _____ _____    ______ ____

>  <TORSDO>
F 3

$$$$
