=
 OpenBabel11052412533D

 25 28  0  0  1  0  0  0  0  0999 V2000
  187.5310  177.7820  145.2160 C   0  0  0  0  0  0  0  0  0  0  0  0
  188.8560  177.4840  144.8740 C   0  0  0  0  0  0  0  0  0  0  0  0
  187.9500  177.7010  147.5870 C   0  0  0  0  0  3  0  0  0  0  0  0
  186.4030  178.0320  144.4630 C   0  0  0  0  0  0  0  0  0  0  0  0
  190.2880  177.3680  142.8170 C   0  0  0  0  0  0  0  0  0  0  0  0
  183.9680  179.0170  143.4350 C   0  0  0  0  0  2  0  0  0  0  0  0
  189.2850  177.3870  147.2970 C   0  0  0  0  0  3  0  0  0  0  0  0
  185.3800  178.2710  145.3040 N   0  0  0  0  0  0  0  0  0  0  0  0
  183.9990  178.4300  144.8590 C   0  0  0  0  0  2  0  0  0  0  0  0
  191.2420  176.9390  145.8450 C   0  0  1  0  0  3  0  0  0  0  0  0
  191.6570  176.0850  146.8700 O   0  0  0  0  0  1  0  0  0  0  0  0
  190.2770  177.3040  141.3880 N   0  0  0  0  0  2  0  0  0  0  0  0
  189.1600  177.4100  143.4660 N   0  0  0  0  0  0  0  0  0  0  0  0
  185.0340  178.4290  142.5310 C   0  0  0  0  0  3  0  0  0  0  0  0
  187.0950  177.8890  146.5140 C   0  0  0  0  0  0  0  0  0  0  0  0
  185.7770  178.1740  146.5650 N   0  0  0  0  0  0  0  0  0  0  0  0
  191.6670  176.3420  144.5280 C   0  0  0  0  0  2  0  0  0  0  0  0
  186.2100  178.0090  143.0130 C   0  0  0  0  0  3  0  0  0  0  0  0
  191.6040  177.4270  143.4920 C   0  0  0  0  0  2  0  0  0  0  0  0
  189.7640  177.2460  145.9670 C   0  0  0  0  0  0  0  0  0  0  0  0
  189.2510  176.3440  139.3910 C   0  0  0  0  0  1  0  0  0  0  0  0
  189.0510  177.2360  140.6030 C   0  0  2  0  0  3  0  0  0  0  0  0
  188.6450  178.6050  140.1700 C   0  0  0  0  0  0  0  0  0  0  0  0
  188.9760  179.0470  138.8970 O   0  0  0  0  0  0  0  0  0  0  0  0
  188.0170  179.3660  140.9530 O   0  0  0  0  0  1  0  0  0  0  0  0
  1 15  1  0  0  0  0
  2  1  1  0  0  0  0
  2 20  2  0  0  0  0
  4  1  2  0  0  0  0
  4  8  1  0  0  0  0
  5 13  2  0  0  0  0
  5 19  1  0  0  0  0
  6  9  1  0  0  0  0
  7  3  2  0  0  0  0
  8 16  1  0  0  0  0
  9  8  1  0  0  0  0
 10 20  1  0  0  0  0
 10 11  1  1  0  0  0
 12  5  1  0  0  0  0
 13  2  1  0  0  0  0
 14 18  2  0  0  0  0
 14  6  1  0  0  0  0
 15 16  2  0  0  0  0
 15  3  1  0  0  0  0
 17 10  1  0  0  0  0
 18  4  1  0  0  0  0
 19 17  1  0  0  0  0
 20  7  1  0  0  0  0
 22 21  1  6  0  0  0
 22 12  1  0  0  0  0
 23 22  1  0  0  0  0
 23 25  1  0  0  0  0
 24 23  2  0  0  0  0
M  END
>  <MODEL>
1

>  <REMARK>
 VINA RESULT:      -9.8      0.000      0.000
  Name = 
  2 active torsions:
  status: ('A' for Active; 'I' for Inactive)
    1  A    between atoms: C_2  and  CA_25
    2  A    between atoms: N_15  and  CA_25
                            x       y       z     vdW  Elec       q    Type
                         _______ _______ _______ _____ _____    ______ ____

>  <TORSDO>
F 2

$$$$
=
 OpenBabel11052412533D

 25 28  0  0  1  0  0  0  0  0999 V2000
  187.6180  177.7630  144.4510 C   0  0  0  0  0  0  0  0  0  0  0  0
  188.9090  177.4620  144.0000 C   0  0  0  0  0  0  0  0  0  0  0  0
  188.2440  177.7440  146.7760 C   0  0  0  0  0  3  0  0  0  0  0  0
  186.4260  177.9880  143.7950 C   0  0  0  0  0  0  0  0  0  0  0  0
  190.1550  177.3010  141.8280 C   0  0  0  0  0  0  0  0  0  0  0  0
  183.9030  178.9360  142.9610 C   0  0  0  0  0  2  0  0  0  0  0  0
  189.5510  177.4290  146.3770 C   0  0  0  0  0  3  0  0  0  0  0  0
  185.4800  178.2440  144.7160 N   0  0  0  0  0  0  0  0  0  0  0  0
  184.0630  178.3850  144.3910 C   0  0  0  0  0  2  0  0  0  0  0  0
  191.3750  176.9530  144.7700 C   0  0  1  0  0  3  0  0  0  0  0  0
  191.8850  176.1270  145.7750 O   0  0  0  0  0  1  0  0  0  0  0  0
  190.0190  177.2010  140.4090 N   0  0  0  0  0  2  0  0  0  0  0  0
  189.0890  177.3550  142.5740 N   0  0  0  0  0  0  0  0  0  0  0  0
  184.8890  178.3310  141.9820 C   0  0  0  0  0  3  0  0  0  0  0  0
  187.2970  177.9000  145.7790 C   0  0  0  0  0  0  0  0  0  0  0  0
  185.9870  178.1810  145.9400 N   0  0  0  0  0  0  0  0  0  0  0  0
  191.6870  176.3250  143.4360 C   0  0  0  0  0  2  0  0  0  0  0  0
  186.1060  177.9280  142.3680 C   0  0  0  0  0  3  0  0  0  0  0  0
  191.5250  177.3830  142.3830 C   0  0  0  0  0  2  0  0  0  0  0  0
  189.9110  177.2560  145.0150 C   0  0  0  0  0  0  0  0  0  0  0  0
  188.8060  176.1230  138.5830 C   0  0  0  0  0  1  0  0  0  0  0  0
  188.7280  177.1080  139.7370 C   0  0  2  0  0  3  0  0  0  0  0  0
  188.3150  178.4510  139.2350 C   0  0  0  0  0  0  0  0  0  0  0  0
  186.9660  178.7530  139.1170 O   0  0  0  0  0  1  0  0  0  0  0  0
  189.1790  179.3070  138.9070 O   0  0  0  0  0  0  0  0  0  0  0  0
  1 15  1  0  0  0  0
  2  1  1  0  0  0  0
  2 20  2  0  0  0  0
  4  1  2  0  0  0  0
  4  8  1  0  0  0  0
  5 19  1  0  0  0  0
  5 13  2  0  0  0  0
  6  9  1  0  0  0  0
  7  3  2  0  0  0  0
  8 16  1  0  0  0  0
  9  8  1  0  0  0  0
 10 20  1  0  0  0  0
 10 11  1  1  0  0  0
 12  5  1  0  0  0  0
 13  2  1  0  0  0  0
 14 18  2  0  0  0  0
 14  6  1  0  0  0  0
 15 16  2  0  0  0  0
 15  3  1  0  0  0  0
 17 10  1  0  0  0  0
 18  4  1  0  0  0  0
 19 17  1  0  0  0  0
 20  7  1  0  0  0  0
 22 21  1  6  0  0  0
 22 12  1  0  0  0  0
 23 22  1  0  0  0  0
 24 23  1  0  0  0  0
 25 23  2  0  0  0  0
M  END
>  <MODEL>
2

>  <REMARK>
 VINA RESULT:      -9.4      0.913      1.043
  Name = 
  2 active torsions:
  status: ('A' for Active; 'I' for Inactive)
    1  A    between atoms: C_2  and  CA_25
    2  A    between atoms: N_15  and  CA_25
                            x       y       z     vdW  Elec       q    Type
                         _______ _______ _______ _____ _____    ______ ____

>  <TORSDO>
F 2

$$$$
=
 OpenBabel11052412533D

 25 28  0  0  1  0  0  0  0  0999 V2000
  189.7720  177.3710  143.7220 C   0  0  0  0  0  0  0  0  0  0  0  0
  188.7460  177.5300  144.6610 C   0  0  0  0  0  0  0  0  0  0  0  0
  191.4820  177.0750  145.3920 C   0  0  0  0  0  3  0  0  0  0  0  0
  189.7890  177.3800  142.3430 C   0  0  0  0  0  0  0  0  0  0  0  0
  186.2450  177.7280  144.7010 C   0  0  0  0  0  0  0  0  0  0  0  0
  190.3000  176.8810  139.6140 C   0  0  0  0  0  2  0  0  0  0  0  0
  190.4930  177.2410  146.3720 C   0  0  0  0  0  3  0  0  0  0  0  0
  191.0540  177.1710  141.9360 N   0  0  0  0  0  0  0  0  0  0  0  0
  191.4710  177.2610  140.5400 C   0  0  0  0  0  2  0  0  0  0  0  0
  188.2010  177.6120  147.2360 C   0  0  1  0  0  3  0  0  0  0  0  0
  188.8340  178.2560  148.3020 O   0  0  0  0  0  1  0  0  0  0  0  0
  185.0800  177.9840  143.9120 N   0  0  0  0  0  2  0  0  0  0  0  0
  187.4190  177.7510  144.1400 N   0  0  0  0  0  0  0  0  0  0  0  0
  188.9700  177.4350  140.0870 C   0  0  0  0  0  3  0  0  0  0  0  0
  191.0820  177.1510  144.0690 C   0  0  0  0  0  0  0  0  0  0  0  0
  191.8660  177.0420  142.9760 N   0  0  0  0  0  0  0  0  0  0  0  0
  186.8980  178.3170  146.9620 C   0  0  0  0  0  2  0  0  0  0  0  0
  188.7090  177.6230  141.3850 C   0  0  0  0  0  3  0  0  0  0  0  0
  186.0460  177.4010  146.1320 C   0  0  0  0  0  2  0  0  0  0  0  0
  189.1330  177.4940  146.0480 C   0  0  0  0  0  0  0  0  0  0  0  0
  185.6980  179.7220  142.3110 C   0  0  0  0  0  1  0  0  0  0  0  0
  185.1380  178.3230  142.4950 C   0  0  2  0  0  3  0  0  0  0  0  0
  183.7750  178.2340  141.8930 C   0  0  0  0  0  0  0  0  0  0  0  0
  182.6980  178.8170  142.5460 O   0  0  0  0  0  1  0  0  0  0  0  0
  183.5920  177.6250  140.8060 O   0  0  0  0  0  0  0  0  0  0  0  0
  1 15  1  0  0  0  0
  1  2  1  0  0  0  0
  2 20  2  0  0  0  0
  3  7  2  0  0  0  0
  4  1  2  0  0  0  0
  5 19  1  0  0  0  0
  6 14  1  0  0  0  0
  6  9  1  0  0  0  0
  8  4  1  0  0  0  0
  8 16  1  0  0  0  0
  9  8  1  0  0  0  0
 10 11  1  1  0  0  0
 12  5  1  0  0  0  0
 13  2  1  0  0  0  0
 13  5  2  0  0  0  0
 14 18  2  0  0  0  0
 15  3  1  0  0  0  0
 16 15  2  0  0  0  0
 17 10  1  0  0  0  0
 18  4  1  0  0  0  0
 19 17  1  0  0  0  0
 20  7  1  0  0  0  0
 20 10  1  0  0  0  0
 22 21  1  1  0  0  0
 22 12  1  0  0  0  0
 23 22  1  0  0  0  0
 23 24  1  0  0  0  0
 25 23  2  0  0  0  0
M  END
>  <MODEL>
3

>  <REMARK>
 VINA RESULT:      -9.2      2.062      5.054
  Name = 
  2 active torsions:
  status: ('A' for Active; 'I' for Inactive)
    1  A    between atoms: C_2  and  CA_25
    2  A    between atoms: N_15  and  CA_25
                            x       y       z     vdW  Elec       q    Type
                         _______ _______ _______ _____ _____    ______ ____

>  <TORSDO>
F 2

$$$$
=
 OpenBabel11052412533D

 25 28  0  0  1  0  0  0  0  0999 V2000
  186.6690  178.3180  142.4700 C   0  0  0  0  0  0  0  0  0  0  0  0
  186.9930  178.1290  143.8190 C   0  0  0  0  0  0  0  0  0  0  0  0
  184.4540  179.1370  142.9440 C   0  0  0  0  0  3  0  0  0  0  0  0
  187.3690  178.1110  141.3010 C   0  0  0  0  0  0  0  0  0  0  0  0
  188.9930  177.5240  145.2080 C   0  0  0  0  0  0  0  0  0  0  0  0
  188.4760  178.2840  138.7120 C   0  0  0  0  0  2  0  0  0  0  0  0
  184.7240  178.9530  144.3080 C   0  0  0  0  0  3  0  0  0  0  0  0
  186.5830  178.4670  140.2700 N   0  0  0  0  0  0  0  0  0  0  0  0
  186.9440  178.2440  138.8730 C   0  0  0  0  0  2  0  0  0  0  0  0
  186.0860  178.3350  146.2830 C   0  0  1  0  0  3  0  0  0  0  0  0
  184.8670  177.9680  146.8610 O   0  0  0  0  0  1  0  0  0  0  0  0
  190.3080  176.9640  145.1790 N   0  0  0  0  0  2  0  0  0  0  0  0
  188.3100  177.6160  144.1030 N   0  0  0  0  0  0  0  0  0  0  0  0
  189.2060  177.5900  139.8450 C   0  0  0  0  0  3  0  0  0  0  0  0
  185.4540  178.8030  142.0490 C   0  0  0  0  0  0  0  0  0  0  0  0
  185.4000  178.8800  140.7030 N   0  0  0  0  0  0  0  0  0  0  0  0
  187.1490  177.3890  146.7780 C   0  0  0  0  0  2  0  0  0  0  0  0
  188.7050  177.5530  141.0850 C   0  0  0  0  0  3  0  0  0  0  0  0
  188.4850  178.0190  146.5080 C   0  0  0  0  0  2  0  0  0  0  0  0
  185.9590  178.4310  144.7770 C   0  0  0  0  0  0  0  0  0  0  0  0
  191.8600  175.2910  144.3080 C   0  0  0  0  0  1  0  0  0  0  0  0
  190.9230  176.4360  143.9670 C   0  0  2  0  0  3  0  0  0  0  0  0
  191.6730  177.5170  143.2630 C   0  0  0  0  0  0  0  0  0  0  0  0
  191.9140  178.7200  143.9120 O   0  0  0  0  0  1  0  0  0  0  0  0
  192.0770  177.3530  142.0810 O   0  0  0  0  0  0  0  0  0  0  0  0
  1  2  1  0  0  0  0
  2 13  1  0  0  0  0
  2 20  2  0  0  0  0
  3  7  2  0  0  0  0
  4  1  2  0  0  0  0
  5 19  1  0  0  0  0
  6  9  1  0  0  0  0
  6 14  1  0  0  0  0
  7 20  1  0  0  0  0
  8 16  1  0  0  0  0
  8  4  1  0  0  0  0
  9  8  1  0  0  0  0
 10 17  1  0  0  0  0
 10 11  1  1  0  0  0
 12  5  1  0  0  0  0
 13  5  2  0  0  0  0
 14 18  2  0  0  0  0
 15  1  1  0  0  0  0
 15  3  1  0  0  0  0
 16 15  2  0  0  0  0
 18  4  1  0  0  0  0
 19 17  1  0  0  0  0
 20 10  1  0  0  0  0
 22 21  1  1  0  0  0
 22 12  1  0  0  0  0
 23 24  1  0  0  0  0
 23 22  1  0  0  0  0
 25 23  2  0  0  0  0
M  END
>  <MODEL>
4

>  <REMARK>
 VINA RESULT:      -9.0      2.437      4.853
  Name = 
  2 active torsions:
  status: ('A' for Active; 'I' for Inactive)
    1  A    between atoms: C_2  and  CA_25
    2  A    between atoms: N_15  and  CA_25
                            x       y       z     vdW  Elec       q    Type
                         _______ _______ _______ _____ _____    ______ ____

>  <TORSDO>
F 2

$$$$
=
 OpenBabel11052412533D

 25 28  0  0  1  0  0  0  0  0999 V2000
  185.9620  178.4790  142.3180 C   0  0  0  0  0  0  0  0  0  0  0  0
  187.0160  178.2480  141.4270 C   0  0  0  0  0  0  0  0  0  0  0  0
  184.3430  178.8380  140.5720 C   0  0  0  0  0  3  0  0  0  0  0  0
  185.8860  178.4920  143.6950 C   0  0  0  0  0  0  0  0  0  0  0  0
  189.4120  177.5060  141.4960 C   0  0  0  0  0  0  0  0  0  0  0  0
  185.1010  178.2160  146.3910 C   0  0  0  0  0  2  0  0  0  0  0  0
  185.3670  178.6280  139.6370 C   0  0  0  0  0  3  0  0  0  0  0  0
  184.6150  178.7660  144.0440 N   0  0  0  0  0  0  0  0  0  0  0  0
  184.1970  179.0030  145.4230 C   0  0  0  0  0  2  0  0  0  0  0  0
  187.6710  178.1240  138.8790 C   0  0  1  0  0  3  0  0  0  0  0  0
  187.3710  178.9590  137.7990 O   0  0  0  0  0  1  0  0  0  0  0  0
  190.5510  177.3120  142.3390 N   0  0  0  0  0  2  0  0  0  0  0  0
  188.3050  177.9620  142.0070 N   0  0  0  0  0  0  0  0  0  0  0  0
  186.5610  178.2390  145.9850 C   0  0  0  0  0  3  0  0  0  0  0  0
  184.6800  178.7600  141.9110 C   0  0  0  0  0  0  0  0  0  0  0  0
  183.8620  178.9480  142.9680 N   0  0  0  0  0  0  0  0  0  0  0  0
  189.1290  178.2970  139.2210 C   0  0  0  0  0  2  0  0  0  0  0  0
  186.9330  178.3180  144.7020 C   0  0  0  0  0  3  0  0  0  0  0  0
  189.5410  177.1300  140.0700 C   0  0  0  0  0  2  0  0  0  0  0  0
  186.7070  178.3600  140.0240 C   0  0  0  0  0  0  0  0  0  0  0  0
  191.1670  179.0210  143.9720 C   0  0  0  0  0  1  0  0  0  0  0  0
  190.5570  177.6470  143.7580 C   0  0  2  0  0  3  0  0  0  0  0  0
  191.3270  176.6210  144.5210 C   0  0  0  0  0  0  0  0  0  0  0  0
  191.6520  176.8560  145.8500 O   0  0  0  0  0  1  0  0  0  0  0  0
  191.6950  175.5510  143.9670 O   0  0  0  0  0  0  0  0  0  0  0  0
  1  4  2  0  0  0  0
  2 13  1  0  0  0  0
  2  1  1  0  0  0  0
  3 15  1  0  0  0  0
  4  8  1  0  0  0  0
  4 18  1  0  0  0  0
  5 13  2  0  0  0  0
  5 12  1  0  0  0  0
  7 20  1  0  0  0  0
  7  3  2  0  0  0  0
  8  9  1  0  0  0  0
  9  6  1  0  0  0  0
 10 11  1  6  0  0  0
 10 17  1  0  0  0  0
 10 20  1  0  0  0  0
 12 22  1  0  0  0  0
 14  6  1  0  0  0  0
 15  1  1  0  0  0  0
 15 16  2  0  0  0  0
 16  8  1  0  0  0  0
 17 19  1  0  0  0  0
 18 14  2  0  0  0  0
 19  5  1  0  0  0  0
 20  2  2  0  0  0  0
 22 21  1  6  0  0  0
 22 23  1  0  0  0  0
 23 24  1  0  0  0  0
 25 23  2  0  0  0  0
M  END
>  <MODEL>
5

>  <REMARK>
 VINA RESULT:      -9.0      1.656      5.270
  Name = 
  2 active torsions:
  status: ('A' for Active; 'I' for Inactive)
    1  A    between atoms: C_2  and  CA_25
    2  A    between atoms: N_15  and  CA_25
                            x       y       z     vdW  Elec       q    Type
                         _______ _______ _______ _____ _____    ______ ____

>  <TORSDO>
F 2

$$$$
=
 OpenBabel11052412533D

 25 28  0  0  1  0  0  0  0  0999 V2000
  188.2390  177.6750  146.0950 C   0  0  0  0  0  0  0  0  0  0  0  0
  187.3260  177.9500  145.0700 C   0  0  0  0  0  0  0  0  0  0  0  0
  186.6890  178.2320  147.8530 C   0  0  0  0  0  3  0  0  0  0  0  0
  189.5480  177.2410  146.0910 C   0  0  0  0  0  0  0  0  0  0  0  0
  187.1680  177.7180  142.5760 C   0  0  0  0  0  0  0  0  0  0  0  0
  192.0110  175.9820  146.6490 C   0  0  0  0  0  2  0  0  0  0  0  0
  185.7420  178.5330  146.8630 C   0  0  0  0  0  3  0  0  0  0  0  0
  189.9590  177.1310  147.3670 N   0  0  0  0  0  0  0  0  0  0  0  0
  191.3390  176.8360  147.7410 C   0  0  0  0  0  2  0  0  0  0  0  0
  184.8750  178.7640  144.5540 C   0  0  1  0  0  3  0  0  0  0  0  0
  184.1150  179.8170  145.0720 O   0  0  0  0  0  1  0  0  0  0  0  0
  187.9120  177.5020  141.3740 N   0  0  0  0  0  2  0  0  0  0  0  0
  187.7920  177.7600  143.7190 N   0  0  0  0  0  0  0  0  0  0  0  0
  191.6410  176.4230  145.2460 C   0  0  0  0  0  3  0  0  0  0  0  0
  187.9360  177.8070  147.4280 C   0  0  0  0  0  0  0  0  0  0  0  0
  188.9940  177.4870  148.2040 N   0  0  0  0  0  0  0  0  0  0  0  0
  185.2620  179.1090  143.1390 C   0  0  0  0  0  2  0  0  0  0  0  0
  190.4530  176.9730  144.9720 C   0  0  0  0  0  3  0  0  0  0  0  0
  185.6970  177.8420  142.4620 C   0  0  0  0  0  2  0  0  0  0  0  0
  186.0300  178.4310  145.4760 C   0  0  0  0  0  0  0  0  0  0  0  0
  190.0130  178.5710  142.0110 C   0  0  0  0  0  1  0  0  0  0  0  0
  189.3630  177.3690  141.3480 C   0  0  2  0  0  3  0  0  0  0  0  0
  189.8390  177.2420  139.9400 C   0  0  0  0  0  0  0  0  0  0  0  0
  190.5300  176.1040  139.5500 O   0  0  0  0  0  1  0  0  0  0  0  0
  189.6310  178.1640  139.1070 O   0  0  0  0  0  0  0  0  0  0  0  0
  1 15  1  0  0  0  0
  2 20  2  0  0  0  0
  2  1  1  0  0  0  0
  4  1  2  0  0  0  0
  4  8  1  0  0  0  0
  5 13  2  0  0  0  0
  6  9  1  0  0  0  0
  7  3  2  0  0  0  0
  8  9  1  0  0  0  0
  8 16  1  0  0  0  0
 10 11  1  1  0  0  0
 10 20  1  0  0  0  0
 12  5  1  0  0  0  0
 13  2  1  0  0  0  0
 14  6  1  0  0  0  0
 15  3  1  0  0  0  0
 15 16  2  0  0  0  0
 17 10  1  0  0  0  0
 18 14  2  0  0  0  0
 18  4  1  0  0  0  0
 19  5  1  0  0  0  0
 19 17  1  0  0  0  0
 20  7  1  0  0  0  0
 22 12  1  0  0  0  0
 22 21  1  6  0  0  0
 23 22  1  0  0  0  0
 24 23  1  0  0  0  0
 25 23  2  0  0  0  0
M  END
>  <MODEL>
6

>  <REMARK>
 VINA RESULT:      -8.9      2.148      4.802
  Name = 
  2 active torsions:
  status: ('A' for Active; 'I' for Inactive)
    1  A    between atoms: C_2  and  CA_25
    2  A    between atoms: N_15  and  CA_25
                            x       y       z     vdW  Elec       q    Type
                         _______ _______ _______ _____ _____    ______ ____

>  <TORSDO>
F 2

$$$$
=
 OpenBabel11052412533D

 25 28  0  0  1  0  0  0  0  0999 V2000
  187.8980  177.7810  142.9850 C   0  0  0  0  0  0  0  0  0  0  0  0
  186.6090  178.1460  143.3940 C   0  0  0  0  0  0  0  0  0  0  0  0
  188.7140  177.5040  145.2350 C   0  0  0  0  0  3  0  0  0  0  0  0
  188.4790  177.6330  141.7440 C   0  0  0  0  0  0  0  0  0  0  0  0
  184.3650  178.5950  142.3670 C   0  0  0  0  0  0  0  0  0  0  0  0
  189.9900  176.7820  139.5180 C   0  0  0  0  0  2  0  0  0  0  0  0
  187.4440  177.8780  145.6960 C   0  0  0  0  0  3  0  0  0  0  0  0
  189.7580  177.2540  141.9200 N   0  0  0  0  0  0  0  0  0  0  0  0
  190.7190  177.1450  140.8260 C   0  0  0  0  0  2  0  0  0  0  0  0
  185.0740  178.5690  145.4920 C   0  0  1  0  0  3  0  0  0  0  0  0
  185.2970  179.2630  146.6840 O   0  0  0  0  0  1  0  0  0  0  0  0
  183.6740  178.8750  141.1470 N   0  0  0  0  0  2  0  0  0  0  0  0
  185.6570  178.4380  142.3520 N   0  0  0  0  0  0  0  0  0  0  0  0
  188.6740  177.5160  139.3540 C   0  0  0  0  0  3  0  0  0  0  0  0
  188.9070  177.4710  143.8650 C   0  0  0  0  0  0  0  0  0  0  0  0
  190.0470  177.1630  143.2110 N   0  0  0  0  0  0  0  0  0  0  0  0
  184.1080  179.3660  144.6530 C   0  0  0  0  0  2  0  0  0  0  0  0
  187.9310  177.8740  140.4080 C   0  0  0  0  0  3  0  0  0  0  0  0
  183.5550  178.4520  143.5990 C   0  0  0  0  0  2  0  0  0  0  0  0
  186.3850  178.2270  144.8160 C   0  0  0  0  0  0  0  0  0  0  0  0
  183.7340  180.1950  139.0930 C   0  0  0  0  0  1  0  0  0  0  0  0
  184.3520  179.0450  139.8680 C   0  0  2  0  0  3  0  0  0  0  0  0
  184.2640  177.7870  139.0730 C   0  0  0  0  0  0  0  0  0  0  0  0
  185.1580  177.5690  138.0330 O   0  0  0  0  0  0  0  0  0  0  0  0
  183.3800  176.9260  139.3270 O   0  0  0  0  0  1  0  0  0  0  0  0
  1  2  1  0  0  0  0
  1 15  1  0  0  0  0
  2 20  2  0  0  0  0
  3  7  2  0  0  0  0
  4  8  1  0  0  0  0
  4  1  2  0  0  0  0
  5 19  1  0  0  0  0
  6  9  1  0  0  0  0
  8 16  1  0  0  0  0
  9  8  1  0  0  0  0
 10 11  1  1  0  0  0
 12  5  1  0  0  0  0
 13  5  2  0  0  0  0
 13  2  1  0  0  0  0
 14  6  1  0  0  0  0
 14 18  2  0  0  0  0
 15  3  1  0  0  0  0
 16 15  2  0  0  0  0
 17 10  1  0  0  0  0
 18  4  1  0  0  0  0
 19 17  1  0  0  0  0
 20 10  1  0  0  0  0
 20  7  1  0  0  0  0
 22 21  1  6  0  0  0
 22 12  1  0  0  0  0
 23 25  1  0  0  0  0
 23 22  1  0  0  0  0
 24 23  2  0  0  0  0
M  END
>  <MODEL>
7

>  <REMARK>
 VINA RESULT:      -8.7      2.629      5.433
  Name = 
  2 active torsions:
  status: ('A' for Active; 'I' for Inactive)
    1  A    between atoms: C_2  and  CA_25
    2  A    between atoms: N_15  and  CA_25
                            x       y       z     vdW  Elec       q    Type
                         _______ _______ _______ _____ _____    ______ ____

>  <TORSDO>
F 2

$$$$
=
 OpenBabel11052412533D

 25 28  0  0  1  0  0  0  0  0999 V2000
  186.4130  178.3170  144.7420 C   0  0  0  0  0  0  0  0  0  0  0  0
  186.6170  178.2790  143.3570 C   0  0  0  0  0  0  0  0  0  0  0  0
  184.0910  178.9310  144.5510 C   0  0  0  0  0  3  0  0  0  0  0  0
  187.2440  178.0840  145.8170 C   0  0  0  0  0  0  0  0  0  0  0  0
  188.4110  177.6080  141.7360 C   0  0  0  0  0  0  0  0  0  0  0  0
  188.3600  177.3110  148.2900 C   0  0  0  0  0  2  0  0  0  0  0  0
  184.2470  178.9200  143.1580 C   0  0  0  0  0  3  0  0  0  0  0  0
  186.5300  178.2530  146.9450 N   0  0  0  0  0  0  0  0  0  0  0  0
  187.1240  178.2290  148.2790 C   0  0  0  0  0  2  0  0  0  0  0  0
  185.4600  178.6280  141.0170 C   0  0  1  0  0  3  0  0  0  0  0  0
  184.6130  179.6310  140.5370 O   0  0  0  0  0  1  0  0  0  0  0  0
  189.8000  177.3030  141.5920 N   0  0  0  0  0  2  0  0  0  0  0  0
  187.9420  177.9330  142.9070 N   0  0  0  0  0  0  0  0  0  0  0  0
  189.2090  177.4490  147.0420 C   0  0  0  0  0  3  0  0  0  0  0  0
  185.2040  178.6270  145.3160 C   0  0  0  0  0  0  0  0  0  0  0  0
  185.2820  178.6000  146.6630 N   0  0  0  0  0  0  0  0  0  0  0  0
  186.8020  178.7810  140.3500 C   0  0  0  0  0  2  0  0  0  0  0  0
  188.6720  177.7650  145.8580 C   0  0  0  0  0  3  0  0  0  0  0  0
  187.5540  177.4950  140.5330 C   0  0  0  0  0  2  0  0  0  0  0  0
  185.4880  178.6280  142.5320 C   0  0  0  0  0  0  0  0  0  0  0  0
  192.0960  177.8770  142.1950 C   0  0  0  0  0  1  0  0  0  0  0  0
  190.7510  177.3810  142.6950 C   0  0  2  0  0  3  0  0  0  0  0  0
  190.9050  176.0400  143.3310 C   0  0  0  0  0  0  0  0  0  0  0  0
  190.1810  174.9620  142.8440 O   0  0  0  0  0  0  0  0  0  0  0  0
  191.6770  175.8820  144.3150 O   0  0  0  0  0  1  0  0  0  0  0  0
  1 15  1  0  0  0  0
  1  4  2  0  0  0  0
  2  1  1  0  0  0  0
  3 15  1  0  0  0  0
  4 18  1  0  0  0  0
  4  8  1  0  0  0  0
  5 13  2  0  0  0  0
  7  3  2  0  0  0  0
  8  9  1  0  0  0  0
  9  6  1  0  0  0  0
 10 11  1  1  0  0  0
 10 20  1  0  0  0  0
 12  5  1  0  0  0  0
 12 22  1  0  0  0  0
 13  2  1  0  0  0  0
 14  6  1  0  0  0  0
 15 16  2  0  0  0  0
 16  8  1  0  0  0  0
 17 19  1  0  0  0  0
 17 10  1  0  0  0  0
 18 14  2  0  0  0  0
 19  5  1  0  0  0  0
 20  7  1  0  0  0  0
 20  2  2  0  0  0  0
 22 21  1  6  0  0  0
 22 23  1  0  0  0  0
 23 25  1  0  0  0  0
 24 23  2  0  0  0  0
M  END
>  <MODEL>
8

>  <REMARK>
 VINA RESULT:      -8.6      1.679      4.915
  Name = 
  2 active torsions:
  status: ('A' for Active; 'I' for Inactive)
    1  A    between atoms: C_2  and  CA_25
    2  A    between atoms: N_15  and  CA_25
                            x       y       z     vdW  Elec       q    Type
                         _______ _______ _______ _____ _____    ______ ____

>  <TORSDO>
F 2

$$$$
=
 OpenBabel11052412533D

 25 28  0  0  1  0  0  0  0  0999 V2000
  189.3170  177.4290  144.2100 C   0  0  0  0  0  0  0  0  0  0  0  0
  189.1430  177.5840  142.8290 C   0  0  0  0  0  0  0  0  0  0  0  0
  191.6800  176.9980  144.0330 C   0  0  0  0  0  3  0  0  0  0  0  0
  188.4470  177.5000  145.2770 C   0  0  0  0  0  0  0  0  0  0  0  0
  187.3440  178.2800  141.2250 C   0  0  0  0  0  0  0  0  0  0  0  0
  187.2200  177.9550  147.7760 C   0  0  0  0  0  2  0  0  0  0  0  0
  191.5570  177.1310  142.6420 C   0  0  0  0  0  3  0  0  0  0  0  0
  189.1440  177.2740  146.4050 N   0  0  0  0  0  0  0  0  0  0  0  0
  188.5200  177.1290  147.7170 C   0  0  0  0  0  2  0  0  0  0  0  0
  190.3770  177.5400  140.5030 C   0  0  1  0  0  3  0  0  0  0  0  0
  191.3050  176.6490  139.9570 O   0  0  0  0  0  1  0  0  0  0  0  0
  185.9400  178.5010  141.0690 N   0  0  0  0  0  2  0  0  0  0  0  0
  187.8080  177.8790  142.3740 N   0  0  0  0  0  0  0  0  0  0  0  0
  186.4130  177.8780  146.4960 C   0  0  0  0  0  3  0  0  0  0  0  0
  190.5310  177.1500  144.7890 C   0  0  0  0  0  0  0  0  0  0  0  0
  190.4200  177.0430  146.1300 N   0  0  0  0  0  0  0  0  0  0  0  0
  189.0650  177.3590  139.7840 C   0  0  0  0  0  2  0  0  0  0  0  0
  186.9990  177.7140  145.3040 C   0  0  0  0  0  3  0  0  0  0  0  0
  188.2180  178.5660  140.0640 C   0  0  0  0  0  2  0  0  0  0  0  0
  190.3130  177.3940  142.0090 C   0  0  0  0  0  0  0  0  0  0  0  0
  183.6080  177.9490  141.5370 C   0  0  0  0  0  1  0  0  0  0  0  0
  184.9720  178.2530  142.1300 C   0  0  2  0  0  3  0  0  0  0  0  0
  184.8860  179.4400  143.0300 C   0  0  0  0  0  0  0  0  0  0  0  0
  183.9720  179.4430  144.0750 O   0  0  0  0  0  1  0  0  0  0  0  0
  185.6250  180.4430  142.8430 O   0  0  0  0  0  0  0  0  0  0  0  0
  1 15  1  0  0  0  0
  1  4  2  0  0  0  0
  2  1  1  0  0  0  0
  3 15  1  0  0  0  0
  4 18  1  0  0  0  0
  4  8  1  0  0  0  0
  5 13  2  0  0  0  0
  7  3  2  0  0  0  0
  8  9  1  0  0  0  0
  9  6  1  0  0  0  0
 10 11  1  6  0  0  0
 10 20  1  0  0  0  0
 12  5  1  0  0  0  0
 12 22  1  0  0  0  0
 13  2  1  0  0  0  0
 14  6  1  0  0  0  0
 15 16  2  0  0  0  0
 16  8  1  0  0  0  0
 17 19  1  0  0  0  0
 17 10  1  0  0  0  0
 18 14  2  0  0  0  0
 19  5  1  0  0  0  0
 20  7  1  0  0  0  0
 20  2  2  0  0  0  0
 22 21  1  6  0  0  0
 22 23  1  0  0  0  0
 23 24  1  0  0  0  0
 25 23  2  0  0  0  0
M  END
>  <MODEL>
9

>  <REMARK>
 VINA RESULT:      -8.6      2.268      4.630
  Name = 
  2 active torsions:
  status: ('A' for Active; 'I' for Inactive)
    1  A    between atoms: C_2  and  CA_25
    2  A    between atoms: N_15  and  CA_25
                            x       y       z     vdW  Elec       q    Type
                         _______ _______ _______ _____ _____    ______ ____

>  <TORSDO>
F 2

$$$$
