=
 OpenBabel11052416353D

 43 48  0  0  1  0  0  0  0  0999 V2000
  185.6220  178.2950  145.6550 C   0  0  0  0  0  0  0  0  0  0  0  0
  182.8180  178.8480  141.4180 C   0  0  0  0  0  0  0  0  0  0  0  0
  184.5160  178.4240  139.2150 C   0  0  0  0  0  0  0  0  0  0  0  0
  183.8770  178.8940  144.0820 C   0  0  0  0  0  0  0  0  0  0  0  0
  186.4520  177.8400  144.5160 C   0  0  0  0  0  3  0  0  0  0  0  0
  186.1110  178.1830  146.9490 O   0  0  0  0  0  1  0  0  0  0  0  0
  184.8850  178.9380  142.9530 C   0  0  1  0  0  3  0  0  0  0  0  0
  184.3870  178.7660  145.4540 C   0  0  0  0  0  3  0  0  0  0  0  0
  186.0910  178.0870  143.2520 C   0  0  0  0  0  3  0  0  0  0  0  0
  185.0350  178.5130  140.5560 N   0  0  0  0  0  0  0  0  0  0  0  0
  184.2770  178.6900  141.5990 C   0  0  0  0  0  0  0  0  0  0  0  0
  182.0200  179.0040  142.4850 C   0  0  0  0  0  3  0  0  0  0  0  0
  182.2960  178.7880  140.0790 N   0  0  0  0  0  0  0  0  0  0  0  0
  183.2030  178.5610  138.9880 C   0  0  0  0  0  3  0  0  0  0  0  0
  182.5630  178.9890  143.8560 C   0  0  0  0  0  3  0  0  0  0  0  0
  185.4380  178.1590  138.0650 C   0  0  2  0  0  3  0  0  0  0  0  0
  185.1000  176.8190  137.4380 C   0  0  0  0  0  1  0  0  0  0  0  0
  186.8270  178.1350  138.5170 N   0  0  0  0  0  2  0  0  0  0  0  0
  187.8670  178.9160  137.9190 C   0  0  0  0  0  0  0  0  0  0  0  0
  187.6600  179.5360  136.8410 O   0  0  0  0  0  0  0  0  0  0  0  0
  189.1220  178.9890  138.5230 O   0  0  0  0  0  0  0  0  0  0  0  0
  190.1400  178.0430  138.2280 C   0  0  2  0  0  3  0  0  0  0  0  0
  190.4350  175.6380  138.5100 C   0  0  0  0  0  2  0  0  0  0  0  0
  189.8620  177.3660  136.9050 C   0  0  0  0  0  2  0  0  0  0  0  0
  190.1500  176.9310  139.2610 C   0  0  1  0  0  3  0  0  0  0  0  0
  190.4690  175.9850  137.0300 C   0  0  0  0  0  2  0  0  0  0  0  0
  190.8900  176.9990  141.6950 N   0  0  0  0  0  0  0  0  0  0  0  0
  191.1990  177.1720  140.3070 C   0  0  0  0  0  0  0  0  0  0  0  0
  191.0130  176.8880  143.8540 C   0  0  0  0  0  0  0  0  0  0  0  0
  189.7440  176.5550  143.5590 N   0  0  0  0  0  0  0  0  0  0  0  0
  191.5270  176.9260  145.1800 N   0  0  0  0  0  1  0  0  0  0  0  0
  189.6970  176.6350  142.2130 C   0  0  0  0  0  3  0  0  0  0  0  0
  191.7410  177.1650  142.7210 C   0  0  0  0  0  3  0  0  0  0  0  0
  192.3710  177.4900  139.9600 O   0  0  0  0  0  0  0  0  0  0  0  0
  180.8660  178.8800  139.7990 C   0  0  0  0  0  2  0  0  0  0  0  0
  179.7440  180.5670  136.5880 C   0  0  0  0  0  3  0  0  0  0  0  0
  180.1110  181.8960  136.8230 C   0  0  0  0  0  0  0  0  0  0  0  0
  180.9760  181.2530  139.0050 C   0  0  0  0  0  3  0  0  0  0  0  0
  179.9890  179.5850  137.5540 C   0  0  0  0  0  3  0  0  0  0  0  0
  180.6000  179.9280  138.7660 C   0  0  0  0  0  0  0  0  0  0  0  0
  180.7320  182.2350  138.0390 C   0  0  0  0  0  3  0  0  0  0  0  0
  180.7800  183.8600  135.4750 C   0  0  0  0  0  1  0  0  0  0  0  0
  179.8450  182.8540  135.8390 O   0  0  0  0  0  0  0  0  0  0  0  0
  1  6  1  0  0  0  0
  2 11  1  0  0  0  0
  2 12  2  0  0  0  0
  3 10  1  0  0  0  0
  4  8  1  0  0  0  0
  5  1  1  0  0  0  0
  7  9  1  1  0  0  0
  7  4  1  0  0  0  0
  8  1  2  0  0  0  0
  9  5  2  0  0  0  0
 10 11  2  0  0  0  0
 11  7  1  0  0  0  0
 12 15  1  0  0  0  0
 13  2  1  0  0  0  0
 14  3  2  0  0  0  0
 14 13  1  0  0  0  0
 15  4  2  0  0  0  0
 16 17  1  1  0  0  0
 16 18  1  0  0  0  0
 16  3  1  0  0  0  0
 19 18  1  0  0  0  0
 19 21  1  0  0  0  0
 20 19  2  0  0  0  0
 22 21  1  1  0  0  0
 22 25  1  0  0  0  0
 23 25  1  0  0  0  0
 24 26  1  0  0  0  0
 24 22  1  0  0  0  0
 25 28  1  1  0  0  0
 26 23  1  0  0  0  0
 27 32  1  0  0  0  0
 27 33  1  0  0  0  0
 28 27  1  0  0  0  0
 29 31  1  0  0  0  0
 30 29  1  0  0  0  0
 32 30  2  0  0  0  0
 33 29  2  0  0  0  0
 34 28  2  0  0  0  0
 35 13  1  0  0  0  0
 36 37  2  0  0  0  0
 36 39  1  0  0  0  0
 37 41  1  0  0  0  0
 39 40  2  0  0  0  0
 40 38  1  0  0  0  0
 40 35  1  0  0  0  0
 41 38  2  0  0  0  0
 42 43  1  0  0  0  0
 43 37  1  0  0  0  0
M  END
>  <MODEL>
1

>  <REMARK>
 VINA RESULT:      -9.5      0.000      0.000
  Name = 
  8 active torsions:
  status: ('A' for Active; 'I' for Inactive)
    1  A    between atoms: C_1  and  N_34
    2  A    between atoms: C_1  and  C_35
    3  A    between atoms: C_2  and  N_6
    4  A    between atoms: C_2  and  C_13
    5  A    between atoms: O_3  and  C_4
    6  A    between atoms: O_3  and  C_12
    7  A    between atoms: C_14  and  C_22
    8  A    between atoms: C_19  and  O_37
                            x       y       z     vdW  Elec       q    Type
                         _______ _______ _______ _____ _____    ______ ____

>  <TORSDO>
F 8

$$$$
=
 OpenBabel11052416353D

 43 48  0  0  1  0  0  0  0  0999 V2000
  191.1390  176.7710  146.5340 C   0  0  0  0  0  0  0  0  0  0  0  0
  189.6370  177.5580  141.7130 C   0  0  0  0  0  0  0  0  0  0  0  0
  186.9960  178.5260  141.7940 C   0  0  0  0  0  0  0  0  0  0  0  0
  190.9490  176.7130  144.1180 C   0  0  0  0  0  0  0  0  0  0  0  0
  189.8500  177.5000  146.5890 C   0  0  0  0  0  3  0  0  0  0  0  0
  191.8190  176.4900  147.7110 O   0  0  0  0  0  1  0  0  0  0  0  0
  189.4570  176.9540  144.2110 C   0  0  1  0  0  3  0  0  0  0  0  0
  191.6780  176.4250  145.3600 C   0  0  0  0  0  3  0  0  0  0  0  0
  189.0850  177.6370  145.5000 C   0  0  0  0  0  3  0  0  0  0  0  0
  187.6530  178.0390  142.9800 N   0  0  0  0  0  0  0  0  0  0  0  0
  188.8790  177.6010  142.9820 C   0  0  0  0  0  0  0  0  0  0  0  0
  190.9100  177.1340  141.7030 C   0  0  0  0  0  3  0  0  0  0  0  0
  188.9770  178.0170  140.5200 N   0  0  0  0  0  0  0  0  0  0  0  0
  187.6310  178.5100  140.6150 C   0  0  0  0  0  3  0  0  0  0  0  0
  191.5940  176.7370  142.9470 C   0  0  0  0  0  3  0  0  0  0  0  0
  185.6040  179.0730  141.8730 C   0  0  2  0  0  3  0  0  0  0  0  0
  185.0960  178.9700  143.2990 C   0  0  0  0  0  1  0  0  0  0  0  0
  184.7090  178.3250  140.9950 N   0  0  0  0  0  2  0  0  0  0  0  0
  184.2530  178.8130  139.7300 C   0  0  0  0  0  0  0  0  0  0  0  0
  184.4650  180.0090  139.3920 O   0  0  0  0  0  0  0  0  0  0  0  0
  183.5600  177.9680  138.8620 O   0  0  0  0  0  0  0  0  0  0  0  0
  182.3700  177.3060  139.2700 C   0  0  2  0  0  3  0  0  0  0  0  0
  180.3760  176.4430  138.1620 C   0  0  0  0  0  2  0  0  0  0  0  0
  182.5180  175.8100  139.1110 C   0  0  0  0  0  2  0  0  0  0  0  0
  181.2090  177.6990  138.3740 C   0  0  1  0  0  3  0  0  0  0  0  0
  181.1210  175.3000  138.8330 C   0  0  0  0  0  2  0  0  0  0  0  0
  180.3840  180.1040  138.4620 N   0  0  0  0  0  0  0  0  0  0  0  0
  180.3790  178.7790  139.0040 C   0  0  0  0  0  0  0  0  0  0  0  0
  179.9880  182.2020  138.0940 C   0  0  0  0  0  0  0  0  0  0  0  0
  180.8640  181.8390  137.1410 N   0  0  0  0  0  0  0  0  0  0  0  0
  179.4480  183.5130  138.2070 N   0  0  0  0  0  1  0  0  0  0  0  0
  181.0930  180.5350  137.3970 C   0  0  0  0  0  3  0  0  0  0  0  0
  179.6740  181.1490  138.9210 C   0  0  0  0  0  3  0  0  0  0  0  0
  179.6420  178.5080  139.9940 O   0  0  0  0  0  0  0  0  0  0  0  0
  189.6550  178.0630  139.2280 C   0  0  0  0  0  2  0  0  0  0  0  0
  187.3550  176.0900  136.9400 C   0  0  0  0  0  3  0  0  0  0  0  0
  186.9330  177.0780  136.0450 C   0  0  0  0  0  0  0  0  0  0  0  0
  188.2950  178.7110  137.2280 C   0  0  0  0  0  3  0  0  0  0  0  0
  188.2410  176.4090  137.9760 C   0  0  0  0  0  3  0  0  0  0  0  0
  188.7070  177.7200  138.1240 C   0  0  0  0  0  0  0  0  0  0  0  0
  187.4090  178.3920  136.1920 C   0  0  0  0  0  3  0  0  0  0  0  0
  184.6550  177.0360  135.0780 C   0  0  0  0  0  1  0  0  0  0  0  0
  186.0410  176.7260  135.0250 O   0  0  0  0  0  0  0  0  0  0  0  0
  1  5  1  0  0  0  0
  1  6  1  0  0  0  0
  2 11  1  0  0  0  0
  3 16  1  0  0  0  0
  3 10  1  0  0  0  0
  4  7  1  0  0  0  0
  4  8  1  0  0  0  0
  7  9  1  1  0  0  0
  8  1  2  0  0  0  0
  9  5  2  0  0  0  0
 10 11  2  0  0  0  0
 11  7  1  0  0  0  0
 12  2  2  0  0  0  0
 12 15  1  0  0  0  0
 13 14  1  0  0  0  0
 13  2  1  0  0  0  0
 14  3  2  0  0  0  0
 15  4  2  0  0  0  0
 16 17  1  1  0  0  0
 18 16  1  0  0  0  0
 19 18  1  0  0  0  0
 20 19  2  0  0  0  0
 21 19  1  0  0  0  0
 22 21  1  6  0  0  0
 23 25  1  0  0  0  0
 23 26  1  0  0  0  0
 24 22  1  0  0  0  0
 25 28  1  1  0  0  0
 25 22  1  0  0  0  0
 26 24  1  0  0  0  0
 27 33  1  0  0  0  0
 27 28  1  0  0  0  0
 28 34  2  0  0  0  0
 29 31  1  0  0  0  0
 29 33  2  0  0  0  0
 30 32  2  0  0  0  0
 30 29  1  0  0  0  0
 32 27  1  0  0  0  0
 35 13  1  0  0  0  0
 36 39  1  0  0  0  0
 37 41  1  0  0  0  0
 37 36  2  0  0  0  0
 38 40  1  0  0  0  0
 39 40  2  0  0  0  0
 40 35  1  0  0  0  0
 41 38  2  0  0  0  0
 43 42  1  0  0  0  0
 43 37  1  0  0  0  0
M  END
>  <MODEL>
2

>  <REMARK>
 VINA RESULT:      -9.5      2.728      8.376
  Name = 
  8 active torsions:
  status: ('A' for Active; 'I' for Inactive)
    1  A    between atoms: C_1  and  N_34
    2  A    between atoms: C_1  and  C_35
    3  A    between atoms: C_2  and  N_6
    4  A    between atoms: C_2  and  C_13
    5  A    between atoms: O_3  and  C_4
    6  A    between atoms: O_3  and  C_12
    7  A    between atoms: C_14  and  C_22
    8  A    between atoms: C_19  and  O_37
                            x       y       z     vdW  Elec       q    Type
                         _______ _______ _______ _____ _____    ______ ____

>  <TORSDO>
F 8

$$$$
=
 OpenBabel11052416353D

 43 48  0  0  1  0  0  0  0  0999 V2000
  184.9710  178.6770  145.5970 C   0  0  0  0  0  0  0  0  0  0  0  0
  182.4110  178.6280  141.1740 C   0  0  0  0  0  0  0  0  0  0  0  0
  184.2940  178.3150  139.1070 C   0  0  0  0  0  0  0  0  0  0  0  0
  183.2740  178.9560  143.8890 C   0  0  0  0  0  0  0  0  0  0  0  0
  185.9280  178.2750  144.5400 C   0  0  0  0  0  3  0  0  0  0  0  0
  185.3820  178.6990  146.9230 O   0  0  0  0  0  1  0  0  0  0  0  0
  184.3420  179.0720  142.8220 C   0  0  1  0  0  3  0  0  0  0  0  0
  183.7020  178.9700  145.2940 C   0  0  0  0  0  3  0  0  0  0  0  0
  185.6240  178.4050  143.2440 C   0  0  0  0  0  3  0  0  0  0  0  0
  184.7060  178.5430  140.4690 N   0  0  0  0  0  0  0  0  0  0  0  0
  183.8630  178.6740  141.4520 C   0  0  0  0  0  0  0  0  0  0  0  0
  181.5290  178.7350  142.1810 C   0  0  0  0  0  3  0  0  0  0  0  0
  181.9920  178.4290  139.8130 N   0  0  0  0  0  0  0  0  0  0  0  0
  182.9930  178.2660  138.7940 C   0  0  0  0  0  3  0  0  0  0  0  0
  181.9760  178.8650  143.5800 C   0  0  0  0  0  3  0  0  0  0  0  0
  185.3180  178.1130  138.0330 C   0  0  2  0  0  3  0  0  0  0  0  0
  185.0550  176.8010  137.3180 C   0  0  0  0  0  1  0  0  0  0  0  0
  186.6610  178.0810  138.6050 N   0  0  0  0  0  2  0  0  0  0  0  0
  187.7610  178.8330  138.0830 C   0  0  0  0  0  0  0  0  0  0  0  0
  187.6590  179.4290  136.9770 O   0  0  0  0  0  0  0  0  0  0  0  0
  188.9600  178.9030  138.7930 O   0  0  0  0  0  0  0  0  0  0  0  0
  190.0710  178.0850  138.4500 C   0  0  2  0  0  3  0  0  0  0  0  0
  190.6130  175.7120  138.5970 C   0  0  0  0  0  2  0  0  0  0  0  0
  189.8640  177.4600  137.0890 C   0  0  0  0  0  2  0  0  0  0  0  0
  190.1950  176.9230  139.4180 C   0  0  1  0  0  3  0  0  0  0  0  0
  190.6100  176.1450  137.1390 C   0  0  0  0  0  2  0  0  0  0  0  0
  190.8820  177.0400  141.8660 N   0  0  0  0  0  0  0  0  0  0  0  0
  191.2140  177.2100  140.4830 C   0  0  0  0  0  0  0  0  0  0  0  0
  190.9640  176.9540  144.0280 C   0  0  0  0  0  0  0  0  0  0  0  0
  189.7150  176.5740  143.7110 N   0  0  0  0  0  0  0  0  0  0  0  0
  191.4500  177.0230  145.3630 N   0  0  0  0  0  1  0  0  0  0  0  0
  189.6920  176.6400  142.3640 C   0  0  0  0  0  3  0  0  0  0  0  0
  191.7050  177.2460  142.9070 C   0  0  0  0  0  3  0  0  0  0  0  0
  192.3810  177.5660  140.1570 O   0  0  0  0  0  0  0  0  0  0  0  0
  180.5840  178.3170  139.4420 C   0  0  0  0  0  2  0  0  0  0  0  0
  179.6560  175.2030  137.4790 C   0  0  0  0  0  3  0  0  0  0  0  0
  179.5840  174.2410  138.4920 C   0  0  0  0  0  0  0  0  0  0  0  0
  180.1630  175.9460  140.1290 C   0  0  0  0  0  3  0  0  0  0  0  0
  179.9810  176.5290  137.7860 C   0  0  0  0  0  3  0  0  0  0  0  0
  180.2400  176.9010  139.1110 C   0  0  0  0  0  0  0  0  0  0  0  0
  179.8380  174.6200  139.8220 C   0  0  0  0  0  3  0  0  0  0  0  0
  180.1670  172.0700  137.4590 C   0  0  0  0  0  1  0  0  0  0  0  0
  179.2640  172.9230  138.1480 O   0  0  0  0  0  0  0  0  0  0  0  0
  1  6  1  0  0  0  0
  2 11  1  0  0  0  0
  2 12  2  0  0  0  0
  3 10  1  0  0  0  0
  4  8  1  0  0  0  0
  5  1  1  0  0  0  0
  7  9  1  1  0  0  0
  7  4  1  0  0  0  0
  8  1  2  0  0  0  0
  9  5  2  0  0  0  0
 10 11  2  0  0  0  0
 11  7  1  0  0  0  0
 12 15  1  0  0  0  0
 13  2  1  0  0  0  0
 14  3  2  0  0  0  0
 14 13  1  0  0  0  0
 15  4  2  0  0  0  0
 16 17  1  1  0  0  0
 16 18  1  0  0  0  0
 16  3  1  0  0  0  0
 19 18  1  0  0  0  0
 19 21  1  0  0  0  0
 20 19  2  0  0  0  0
 22 21  1  1  0  0  0
 22 25  1  0  0  0  0
 23 25  1  0  0  0  0
 24 26  1  0  0  0  0
 24 22  1  0  0  0  0
 25 28  1  1  0  0  0
 26 23  1  0  0  0  0
 27 32  1  0  0  0  0
 27 33  1  0  0  0  0
 28 27  1  0  0  0  0
 29 31  1  0  0  0  0
 30 29  1  0  0  0  0
 32 30  2  0  0  0  0
 33 29  2  0  0  0  0
 34 28  2  0  0  0  0
 35 13  1  0  0  0  0
 36 39  2  0  0  0  0
 36 37  1  0  0  0  0
 37 41  2  0  0  0  0
 39 40  1  0  0  0  0
 40 35  1  0  0  0  0
 40 38  2  0  0  0  0
 41 38  1  0  0  0  0
 42 43  1  0  0  0  0
 43 37  1  0  0  0  0
M  END
>  <MODEL>
3

>  <REMARK>
 VINA RESULT:      -9.4      2.384      3.258
  Name = 
  8 active torsions:
  status: ('A' for Active; 'I' for Inactive)
    1  A    between atoms: C_1  and  N_34
    2  A    between atoms: C_1  and  C_35
    3  A    between atoms: C_2  and  N_6
    4  A    between atoms: C_2  and  C_13
    5  A    between atoms: O_3  and  C_4
    6  A    between atoms: O_3  and  C_12
    7  A    between atoms: C_14  and  C_22
    8  A    between atoms: C_19  and  O_37
                            x       y       z     vdW  Elec       q    Type
                         _______ _______ _______ _____ _____    ______ ____

>  <TORSDO>
F 8

$$$$
=
 OpenBabel11052416353D

 43 48  0  0  1  0  0  0  0  0999 V2000
  191.1620  176.7760  146.3210 C   0  0  0  0  0  0  0  0  0  0  0  0
  189.4780  177.6220  141.5700 C   0  0  0  0  0  0  0  0  0  0  0  0
  186.8010  178.4700  141.7570 C   0  0  0  0  0  0  0  0  0  0  0  0
  190.9000  176.7730  143.9110 C   0  0  0  0  0  0  0  0  0  0  0  0
  189.8450  177.4450  146.4340 C   0  0  0  0  0  3  0  0  0  0  0  0
  191.8900  176.4950  147.4690 O   0  0  0  0  0  1  0  0  0  0  0  0
  189.4020  176.9450  144.0550 C   0  0  1  0  0  3  0  0  0  0  0  0
  191.6790  176.4850  145.1230 C   0  0  0  0  0  3  0  0  0  0  0  0
  189.0410  177.5780  145.3730 C   0  0  0  0  0  3  0  0  0  0  0  0
  187.5150  177.9810  142.9090 N   0  0  0  0  0  0  0  0  0  0  0  0
  188.7590  177.5980  142.8630 C   0  0  0  0  0  0  0  0  0  0  0  0
  190.7670  177.2550  141.5110 C   0  0  0  0  0  3  0  0  0  0  0  0
  188.7620  178.0820  140.4100 N   0  0  0  0  0  0  0  0  0  0  0  0
  187.4000  178.5130  140.5600 C   0  0  0  0  0  3  0  0  0  0  0  0
  191.5070  176.8560  142.7220 C   0  0  0  0  0  3  0  0  0  0  0  0
  185.3900  178.9520  141.8930 C   0  0  2  0  0  3  0  0  0  0  0  0
  184.8790  178.6490  143.2890 C   0  0  0  0  0  1  0  0  0  0  0  0
  184.5270  178.2920  140.9180 N   0  0  0  0  0  2  0  0  0  0  0  0
  184.1600  178.8750  139.6640 C   0  0  0  0  0  0  0  0  0  0  0  0
  184.4270  180.0820  139.4180 O   0  0  0  0  0  0  0  0  0  0  0  0
  183.4950  178.1100  138.7050 O   0  0  0  0  0  0  0  0  0  0  0  0
  182.0920  177.8950  138.7740 C   0  0  2  0  0  3  0  0  0  0  0  0
  180.5840  176.5960  140.1850 C   0  0  0  0  0  2  0  0  0  0  0  0
  181.4670  178.8220  139.7920 C   0  0  0  0  0  2  0  0  0  0  0  0
  181.7920  176.4900  139.2640 C   0  0  1  0  0  3  0  0  0  0  0  0
  180.2630  178.0750  140.3230 C   0  0  0  0  0  2  0  0  0  0  0  0
  182.5380  174.7610  137.5530 N   0  0  0  0  0  0  0  0  0  0  0  0
  181.4980  175.5670  138.1180 C   0  0  0  0  0  0  0  0  0  0  0  0
  183.6500  173.3460  136.3470 C   0  0  0  0  0  0  0  0  0  0  0  0
  184.5500  173.8570  137.2050 N   0  0  0  0  0  0  0  0  0  0  0  0
  183.9640  172.3560  135.3760 N   0  0  0  0  0  1  0  0  0  0  0  0
  183.8320  174.7330  137.9380 C   0  0  0  0  0  3  0  0  0  0  0  0
  182.4000  173.8870  136.5420 C   0  0  0  0  0  3  0  0  0  0  0  0
  180.3190  175.4710  137.6740 O   0  0  0  0  0  0  0  0  0  0  0  0
  189.3970  178.1920  139.1000 C   0  0  0  0  0  2  0  0  0  0  0  0
  187.7460  175.5080  136.9840 C   0  0  0  0  0  3  0  0  0  0  0  0
  188.7880  174.5890  136.8280 C   0  0  0  0  0  0  0  0  0  0  0  0
  190.2300  176.0250  138.1630 C   0  0  0  0  0  3  0  0  0  0  0  0
  187.9420  176.6800  137.7230 C   0  0  0  0  0  3  0  0  0  0  0  0
  189.1860  176.9430  138.3080 C   0  0  0  0  0  0  0  0  0  0  0  0
  190.0350  174.8530  137.4240 C   0  0  0  0  0  3  0  0  0  0  0  0
  187.8460  172.3140  136.5880 C   0  0  0  0  0  1  0  0  0  0  0  0
  188.5600  173.4310  136.0770 O   0  0  0  0  0  0  0  0  0  0  0  0
  1  5  1  0  0  0  0
  1  6  1  0  0  0  0
  2 11  1  0  0  0  0
  3 16  1  0  0  0  0
  3 10  1  0  0  0  0
  4  7  1  0  0  0  0
  4  8  1  0  0  0  0
  7  9  1  1  0  0  0
  8  1  2  0  0  0  0
  9  5  2  0  0  0  0
 11 10  2  0  0  0  0
 11  7  1  0  0  0  0
 12  2  2  0  0  0  0
 12 15  1  0  0  0  0
 13 14  1  0  0  0  0
 13  2  1  0  0  0  0
 14  3  2  0  0  0  0
 15  4  2  0  0  0  0
 16 17  1  1  0  0  0
 18 16  1  0  0  0  0
 19 18  1  0  0  0  0
 20 19  2  0  0  0  0
 21 19  1  0  0  0  0
 22 21  1  1  0  0  0
 22 25  1  0  0  0  0
 22 24  1  0  0  0  0
 23 26  1  0  0  0  0
 24 26  1  0  0  0  0
 25 28  1  6  0  0  0
 25 23  1  0  0  0  0
 27 32  1  0  0  0  0
 27 28  1  0  0  0  0
 29 33  2  0  0  0  0
 29 30  1  0  0  0  0
 30 32  2  0  0  0  0
 31 29  1  0  0  0  0
 33 27  1  0  0  0  0
 34 28  2  0  0  0  0
 35 13  1  0  0  0  0
 36 39  1  0  0  0  0
 37 36  2  0  0  0  0
 37 41  1  0  0  0  0
 38 40  1  0  0  0  0
 39 40  2  0  0  0  0
 40 35  1  0  0  0  0
 41 38  2  0  0  0  0
 43 42  1  0  0  0  0
 43 37  1  0  0  0  0
M  END
>  <MODEL>
4

>  <REMARK>
 VINA RESULT:      -9.3      3.197      8.475
  Name = 
  8 active torsions:
  status: ('A' for Active; 'I' for Inactive)
    1  A    between atoms: C_1  and  N_34
    2  A    between atoms: C_1  and  C_35
    3  A    between atoms: C_2  and  N_6
    4  A    between atoms: C_2  and  C_13
    5  A    between atoms: O_3  and  C_4
    6  A    between atoms: O_3  and  C_12
    7  A    between atoms: C_14  and  C_22
    8  A    between atoms: C_19  and  O_37
                            x       y       z     vdW  Elec       q    Type
                         _______ _______ _______ _____ _____    ______ ____

>  <TORSDO>
F 8

$$$$
=
 OpenBabel11052416353D

 43 48  0  0  1  0  0  0  0  0999 V2000
  184.4310  178.6230  145.1430 C   0  0  0  0  0  0  0  0  0  0  0  0
  182.7550  178.7250  140.3160 C   0  0  0  0  0  0  0  0  0  0  0  0
  184.9700  178.2800  138.6390 C   0  0  0  0  0  0  0  0  0  0  0  0
  183.1090  179.0060  143.1480 C   0  0  0  0  0  0  0  0  0  0  0  0
  185.5420  178.1550  144.2830 C   0  0  0  0  0  3  0  0  0  0  0  0
  184.5840  178.6240  146.5230 O   0  0  0  0  0  1  0  0  0  0  0  0
  184.3640  179.0480  142.3020 C   0  0  1  0  0  3  0  0  0  0  0  0
  183.2630  178.9970  144.6080 C   0  0  0  0  0  3  0  0  0  0  0  0
  185.4970  178.2990  142.9540 C   0  0  0  0  0  3  0  0  0  0  0  0
  185.1320  178.4860  140.0560 N   0  0  0  0  0  0  0  0  0  0  0  0
  184.1280  178.6760  140.8640 C   0  0  0  0  0  0  0  0  0  0  0  0
  181.7080  178.8930  141.1390 C   0  0  0  0  0  3  0  0  0  0  0  0
  182.5890  178.5480  138.8980 N   0  0  0  0  0  0  0  0  0  0  0  0
  183.7510  178.3150  138.0860 C   0  0  0  0  0  3  0  0  0  0  0  0
  181.8900  178.9980  142.5980 C   0  0  0  0  0  3  0  0  0  0  0  0
  186.1630  178.0070  137.7760 C   0  0  2  0  0  3  0  0  0  0  0  0
  185.7390  177.2100  136.5570 C   0  0  0  0  0  1  0  0  0  0  0  0
  187.1670  177.2470  138.5160 N   0  0  0  0  0  2  0  0  0  0  0  0
  188.3570  177.8270  139.0590 C   0  0  0  0  0  0  0  0  0  0  0  0
  188.6840  179.0080  138.7650 O   0  0  0  0  0  0  0  0  0  0  0  0
  189.1690  177.0830  139.9160 O   0  0  0  0  0  0  0  0  0  0  0  0
  190.1630  177.7070  140.7180 C   0  0  2  0  0  3  0  0  0  0  0  0
  191.6880  177.0000  142.4850 C   0  0  0  0  0  2  0  0  0  0  0  0
  191.5330  177.5000  140.1150 C   0  0  0  0  0  2  0  0  0  0  0  0
  190.2200  177.0630  142.0910 C   0  0  1  0  0  3  0  0  0  0  0  0
  192.4870  177.4950  141.2900 C   0  0  0  0  0  2  0  0  0  0  0  0
  189.5920  177.6010  144.4980 N   0  0  0  0  0  0  0  0  0  0  0  0
  189.4410  177.8590  143.0970 C   0  0  0  0  0  0  0  0  0  0  0  0
  189.4230  177.6750  146.6560 C   0  0  0  0  0  0  0  0  0  0  0  0
  190.3050  176.6910  146.4080 N   0  0  0  0  0  0  0  0  0  0  0  0
  189.0310  178.0680  147.9650 N   0  0  0  0  0  1  0  0  0  0  0  0
  190.3880  176.6670  145.0620 C   0  0  0  0  0  3  0  0  0  0  0  0
  188.9690  178.2530  145.4940 C   0  0  0  0  0  3  0  0  0  0  0  0
  188.6780  178.7880  142.7090 O   0  0  0  0  0  0  0  0  0  0  0  0
  181.2720  178.5270  138.2680 C   0  0  0  0  0  2  0  0  0  0  0  0
  180.1300  181.0590  135.6800 C   0  0  0  0  0  3  0  0  0  0  0  0
  180.4970  182.2660  136.2840 C   0  0  0  0  0  0  0  0  0  0  0  0
  181.3750  181.0270  138.1860 C   0  0  0  0  0  3  0  0  0  0  0  0
  180.3810  179.8420  136.3230 C   0  0  0  0  0  3  0  0  0  0  0  0
  180.9990  179.8250  137.5790 C   0  0  0  0  0  0  0  0  0  0  0  0
  181.1240  182.2440  137.5430 C   0  0  0  0  0  3  0  0  0  0  0  0
  180.8040  184.7040  135.9980 C   0  0  0  0  0  1  0  0  0  0  0  0
  180.2230  183.4640  135.6160 O   0  0  0  0  0  0  0  0  0  0  0  0
  1  6  1  0  0  0  0
  2 11  1  0  0  0  0
  2 12  2  0  0  0  0
  3 10  1  0  0  0  0
  4  8  1  0  0  0  0
  5  1  1  0  0  0  0
  7  9  1  1  0  0  0
  7  4  1  0  0  0  0
  8  1  2  0  0  0  0
  9  5  2  0  0  0  0
 10 11  2  0  0  0  0
 11  7  1  0  0  0  0
 12 15  1  0  0  0  0
 13  2  1  0  0  0  0
 14  3  2  0  0  0  0
 14 13  1  0  0  0  0
 15  4  2  0  0  0  0
 16 17  1  6  0  0  0
 16 18  1  0  0  0  0
 16  3  1  0  0  0  0
 18 19  1  0  0  0  0
 19 21  1  0  0  0  0
 20 19  2  0  0  0  0
 22 21  1  6  0  0  0
 22 25  1  0  0  0  0
 24 22  1  0  0  0  0
 24 26  1  0  0  0  0
 25 23  1  0  0  0  0
 25 28  1  1  0  0  0
 26 23  1  0  0  0  0
 27 32  1  0  0  0  0
 27 33  1  0  0  0  0
 28 27  1  0  0  0  0
 29 31  1  0  0  0  0
 30 29  1  0  0  0  0
 32 30  2  0  0  0  0
 33 29  2  0  0  0  0
 34 28  2  0  0  0  0
 35 13  1  0  0  0  0
 36 37  2  0  0  0  0
 36 39  1  0  0  0  0
 37 41  1  0  0  0  0
 39 40  2  0  0  0  0
 40 38  1  0  0  0  0
 40 35  1  0  0  0  0
 41 38  2  0  0  0  0
 43 42  1  0  0  0  0
 43 37  1  0  0  0  0
M  END
>  <MODEL>
5

>  <REMARK>
 VINA RESULT:      -9.0      1.523      2.269
  Name = 
  8 active torsions:
  status: ('A' for Active; 'I' for Inactive)
    1  A    between atoms: C_1  and  N_34
    2  A    between atoms: C_1  and  C_35
    3  A    between atoms: C_2  and  N_6
    4  A    between atoms: C_2  and  C_13
    5  A    between atoms: O_3  and  C_4
    6  A    between atoms: O_3  and  C_12
    7  A    between atoms: C_14  and  C_22
    8  A    between atoms: C_19  and  O_37
                            x       y       z     vdW  Elec       q    Type
                         _______ _______ _______ _____ _____    ______ ____

>  <TORSDO>
F 8

$$$$
=
 OpenBabel11052416353D

 43 48  0  0  1  0  0  0  0  0999 V2000
  184.9200  178.5500  145.7010 C   0  0  0  0  0  0  0  0  0  0  0  0
  182.5610  178.8920  141.1800 C   0  0  0  0  0  0  0  0  0  0  0  0
  184.5070  178.5360  139.1790 C   0  0  0  0  0  0  0  0  0  0  0  0
  183.3250  179.0310  143.9400 C   0  0  0  0  0  0  0  0  0  0  0  0
  185.8920  178.1280  144.6660 C   0  0  0  0  0  3  0  0  0  0  0  0
  185.2730  178.4820  147.0420 O   0  0  0  0  0  1  0  0  0  0  0  0
  184.4440  179.1170  142.9240 C   0  0  1  0  0  3  0  0  0  0  0  0
  183.6900  178.9490  145.3610 C   0  0  0  0  0  3  0  0  0  0  0  0
  185.6550  178.3380  143.3660 C   0  0  0  0  0  3  0  0  0  0  0  0
  184.8740  178.6700  140.5650 N   0  0  0  0  0  0  0  0  0  0  0  0
  183.9990  178.8180  141.5190 C   0  0  0  0  0  0  0  0  0  0  0  0
  181.6460  179.0180  142.1530 C   0  0  0  0  0  3  0  0  0  0  0  0
  182.1900  178.7870  139.7940 N   0  0  0  0  0  0  0  0  0  0  0  0
  183.2200  178.5970  138.8110 C   0  0  0  0  0  3  0  0  0  0  0  0
  182.0390  179.0500  143.5740 C   0  0  0  0  0  3  0  0  0  0  0  0
  185.5600  178.3070  138.1390 C   0  0  2  0  0  3  0  0  0  0  0  0
  185.2470  177.0400  137.3650 C   0  0  0  0  0  1  0  0  0  0  0  0
  186.8740  178.1710  138.7610 N   0  0  0  0  0  2  0  0  0  0  0  0
  188.0870  178.6310  138.1570 C   0  0  0  0  0  0  0  0  0  0  0  0
  188.0950  179.0220  136.9590 O   0  0  0  0  0  0  0  0  0  0  0  0
  189.2730  178.6430  138.8920 O   0  0  0  0  0  0  0  0  0  0  0  0
  189.6550  177.5340  139.6950 C   0  0  2  0  0  3  0  0  0  0  0  0
  191.7000  176.7860  140.7930 C   0  0  0  0  0  2  0  0  0  0  0  0
  189.5720  177.8930  141.1610 C   0  0  0  0  0  2  0  0  0  0  0  0
  191.1070  177.1710  139.4450 C   0  0  1  0  0  3  0  0  0  0  0  0
  190.6260  177.0440  141.8380 C   0  0  0  0  0  2  0  0  0  0  0  0
  192.3990  175.8800  137.6740 N   0  0  0  0  0  0  0  0  0  0  0  0
  191.2230  176.0300  138.4770 C   0  0  0  0  0  0  0  0  0  0  0  0
  193.8770  175.1550  136.2650 C   0  0  0  0  0  0  0  0  0  0  0  0
  194.4190  176.2620  136.8020 N   0  0  0  0  0  0  0  0  0  0  0  0
  194.5320  174.3520  135.2920 N   0  0  0  0  0  1  0  0  0  0  0  0
  193.4790  176.6910  137.6690 C   0  0  0  0  0  3  0  0  0  0  0  0
  192.6310  174.8970  136.7870 C   0  0  0  0  0  3  0  0  0  0  0  0
  190.2960  175.1770  138.3970 O   0  0  0  0  0  0  0  0  0  0  0  0
  180.7960  178.7950  139.3620 C   0  0  0  0  0  2  0  0  0  0  0  0
  180.0670  182.3530  138.2530 C   0  0  0  0  0  3  0  0  0  0  0  0
  180.0000  182.2080  136.8640 C   0  0  0  0  0  0  0  0  0  0  0  0
  180.4490  179.8280  137.1070 C   0  0  0  0  0  3  0  0  0  0  0  0
  180.3260  181.2440  139.0670 C   0  0  0  0  0  3  0  0  0  0  0  0
  180.5230  179.9820  138.4950 C   0  0  0  0  0  0  0  0  0  0  0  0
  180.1910  180.9370  136.2930 C   0  0  0  0  0  3  0  0  0  0  0  0
  180.7830  184.1800  135.5910 C   0  0  0  0  0  1  0  0  0  0  0  0
  179.7470  183.3380  136.0790 O   0  0  0  0  0  0  0  0  0  0  0  0
  1  6  1  0  0  0  0
  2 11  1  0  0  0  0
  2 12  2  0  0  0  0
  3 10  1  0  0  0  0
  4  8  1  0  0  0  0
  5  1  1  0  0  0  0
  7  9  1  1  0  0  0
  7  4  1  0  0  0  0
  8  1  2  0  0  0  0
  9  5  2  0  0  0  0
 10 11  2  0  0  0  0
 11  7  1  0  0  0  0
 12 15  1  0  0  0  0
 13  2  1  0  0  0  0
 14  3  2  0  0  0  0
 14 13  1  0  0  0  0
 15  4  2  0  0  0  0
 16 17  1  1  0  0  0
 16 18  1  0  0  0  0
 16  3  1  0  0  0  0
 19 18  1  0  0  0  0
 19 21  1  0  0  0  0
 20 19  2  0  0  0  0
 22 21  1  6  0  0  0
 22 24  1  0  0  0  0
 23 26  1  0  0  0  0
 24 26  1  0  0  0  0
 25 28  1  6  0  0  0
 25 22  1  0  0  0  0
 25 23  1  0  0  0  0
 27 28  1  0  0  0  0
 29 33  2  0  0  0  0
 29 30  1  0  0  0  0
 30 32  2  0  0  0  0
 31 29  1  0  0  0  0
 32 27  1  0  0  0  0
 33 27  1  0  0  0  0
 34 28  2  0  0  0  0
 35 13  1  0  0  0  0
 36 39  1  0  0  0  0
 37 36  2  0  0  0  0
 38 40  1  0  0  0  0
 40 39  2  0  0  0  0
 40 35  1  0  0  0  0
 41 37  1  0  0  0  0
 41 38  2  0  0  0  0
 42 43  1  0  0  0  0
 43 37  1  0  0  0  0
M  END
>  <MODEL>
6

>  <REMARK>
 VINA RESULT:      -9.0      2.008      3.217
  Name = 
  8 active torsions:
  status: ('A' for Active; 'I' for Inactive)
    1  A    between atoms: C_1  and  N_34
    2  A    between atoms: C_1  and  C_35
    3  A    between atoms: C_2  and  N_6
    4  A    between atoms: C_2  and  C_13
    5  A    between atoms: O_3  and  C_4
    6  A    between atoms: O_3  and  C_12
    7  A    between atoms: C_14  and  C_22
    8  A    between atoms: C_19  and  O_37
                            x       y       z     vdW  Elec       q    Type
                         _______ _______ _______ _____ _____    ______ ____

>  <TORSDO>
F 8

$$$$
=
 OpenBabel11052416353D

 43 48  0  0  1  0  0  0  0  0999 V2000
  191.2190  176.6190  146.7740 C   0  0  0  0  0  0  0  0  0  0  0  0
  187.3970  177.9520  143.6550 C   0  0  0  0  0  0  0  0  0  0  0  0
  188.4020  177.9390  141.0270 C   0  0  0  0  0  0  0  0  0  0  0  0
  189.1450  177.5030  145.8830 C   0  0  0  0  0  0  0  0  0  0  0  0
  191.6810  176.3800  145.3870 C   0  0  0  0  0  3  0  0  0  0  0  0
  192.0370  176.2680  147.8400 O   0  0  0  0  0  1  0  0  0  0  0  0
  189.8070  177.7530  144.5430 C   0  0  1  0  0  3  0  0  0  0  0  0
  190.0030  177.1220  147.0130 C   0  0  0  0  0  3  0  0  0  0  0  0
  191.0010  176.8580  144.3390 C   0  0  0  0  0  3  0  0  0  0  0  0
  189.2720  177.7770  142.1640 N   0  0  0  0  0  0  0  0  0  0  0  0
  188.8390  177.7600  143.3920 C   0  0  0  0  0  0  0  0  0  0  0  0
  186.9310  177.9110  144.9130 C   0  0  0  0  0  3  0  0  0  0  0  0
  186.5260  178.1430  142.5260 N   0  0  0  0  0  0  0  0  0  0  0  0
  187.0860  178.1190  141.2040 C   0  0  0  0  0  3  0  0  0  0  0  0
  187.8260  177.6410  146.0530 C   0  0  0  0  0  3  0  0  0  0  0  0
  188.9580  177.8890  139.6380 C   0  0  2  0  0  3  0  0  0  0  0  0
  187.9080  178.3620  138.6500 C   0  0  0  0  0  1  0  0  0  0  0  0
  189.3550  176.5260  139.2940 N   0  0  0  0  0  2  0  0  0  0  0  0
  190.4820  176.2150  138.4690 C   0  0  0  0  0  0  0  0  0  0  0  0
  191.0900  177.1270  137.8470 O   0  0  0  0  0  0  0  0  0  0  0  0
  190.9130  174.8940  138.3440 O   0  0  0  0  0  0  0  0  0  0  0  0
  190.6350  174.1350  137.1750 C   0  0  2  0  0  3  0  0  0  0  0  0
  189.6600  174.5820  134.9840 C   0  0  0  0  0  2  0  0  0  0  0  0
  191.7560  174.2850  136.1710 C   0  0  0  0  0  2  0  0  0  0  0  0
  189.3930  174.6620  136.4800 C   0  0  1  0  0  3  0  0  0  0  0  0
  191.1000  174.1240  134.8170 C   0  0  0  0  0  2  0  0  0  0  0  0
  186.8980  174.4720  136.9430 N   0  0  0  0  0  0  0  0  0  0  0  0
  188.1840  173.8490  136.8410 C   0  0  0  0  0  0  0  0  0  0  0  0
  184.7810  174.8390  137.2180 C   0  0  0  0  0  0  0  0  0  0  0  0
  185.3070  176.0390  136.9170 N   0  0  0  0  0  0  0  0  0  0  0  0
  183.3960  174.6270  137.4640 N   0  0  0  0  0  1  0  0  0  0  0  0
  186.6210  175.7800  136.7550 C   0  0  0  0  0  3  0  0  0  0  0  0
  185.7420  173.8550  137.2390 C   0  0  0  0  0  3  0  0  0  0  0  0
  188.2930  172.6030  137.0170 O   0  0  0  0  0  0  0  0  0  0  0  0
  185.0810  178.2890  142.6770 C   0  0  0  0  0  2  0  0  0  0  0  0
  182.8210  177.5290  139.7220 C   0  0  0  0  0  3  0  0  0  0  0  0
  183.1870  178.5340  138.8210 C   0  0  0  0  0  0  0  0  0  0  0  0
  184.7960  179.3770  140.4410 C   0  0  0  0  0  3  0  0  0  0  0  0
  183.4360  177.4470  140.9770 C   0  0  0  0  0  3  0  0  0  0  0  0
  184.4200  178.3750  141.3390 C   0  0  0  0  0  0  0  0  0  0  0  0
  184.1810  179.4590  139.1860 C   0  0  0  0  0  3  0  0  0  0  0  0
  181.3020  179.2500  137.3860 C   0  0  0  0  0  1  0  0  0  0  0  0
  182.5470  178.5900  137.5780 O   0  0  0  0  0  0  0  0  0  0  0  0
  1  8  2  0  0  0  0
  1  6  1  0  0  0  0
  2 12  2  0  0  0  0
  3 14  2  0  0  0  0
  3 10  1  0  0  0  0
  4 15  2  0  0  0  0
  4  8  1  0  0  0  0
  5  1  1  0  0  0  0
  7  9  1  6  0  0  0
  7  4  1  0  0  0  0
  9  5  2  0  0  0  0
 10 11  2  0  0  0  0
 11  2  1  0  0  0  0
 11  7  1  0  0  0  0
 12 15  1  0  0  0  0
 13 35  1  0  0  0  0
 13  2  1  0  0  0  0
 14 13  1  0  0  0  0
 16 17  1  6  0  0  0
 16  3  1  0  0  0  0
 18 16  1  0  0  0  0
 19 18  1  0  0  0  0
 20 19  2  0  0  0  0
 21 19  1  0  0  0  0
 22 21  1  1  0  0  0
 23 25  1  0  0  0  0
 24 22  1  0  0  0  0
 25 28  1  6  0  0  0
 25 22  1  0  0  0  0
 26 23  1  0  0  0  0
 26 24  1  0  0  0  0
 27 33  1  0  0  0  0
 28 27  1  0  0  0  0
 28 34  2  0  0  0  0
 29 33  2  0  0  0  0
 29 31  1  0  0  0  0
 30 29  1  0  0  0  0
 32 30  2  0  0  0  0
 32 27  1  0  0  0  0
 36 39  1  0  0  0  0
 37 41  1  0  0  0  0
 37 36  2  0  0  0  0
 38 40  1  0  0  0  0
 39 40  2  0  0  0  0
 40 35  1  0  0  0  0
 41 38  2  0  0  0  0
 42 43  1  0  0  0  0
 43 37  1  0  0  0  0
M  END
>  <MODEL>
7

>  <REMARK>
 VINA RESULT:      -9.0      2.722      5.579
  Name = 
  8 active torsions:
  status: ('A' for Active; 'I' for Inactive)
    1  A    between atoms: C_1  and  N_34
    2  A    between atoms: C_1  and  C_35
    3  A    between atoms: C_2  and  N_6
    4  A    between atoms: C_2  and  C_13
    5  A    between atoms: O_3  and  C_4
    6  A    between atoms: O_3  and  C_12
    7  A    between atoms: C_14  and  C_22
    8  A    between atoms: C_19  and  O_37
                            x       y       z     vdW  Elec       q    Type
                         _______ _______ _______ _____ _____    ______ ____

>  <TORSDO>
F 8

$$$$
=
 OpenBabel11052416353D

 43 48  0  0  1  0  0  0  0  0999 V2000
  181.4220  178.9990  142.0990 C   0  0  0  0  0  0  0  0  0  0  0  0
  184.7000  178.1450  138.2720 C   0  0  0  0  0  0  0  0  0  0  0  0
  187.3000  178.2510  139.3420 C   0  0  0  0  0  0  0  0  0  0  0  0
  182.4290  178.7760  139.9050 C   0  0  0  0  0  0  0  0  0  0  0  0
  182.7630  178.8180  142.7010 C   0  0  0  0  0  3  0  0  0  0  0  0
  180.3180  179.1720  142.9220 O   0  0  0  0  0  1  0  0  0  0  0  0
  183.7890  179.1240  140.4740 C   0  0  1  0  0  3  0  0  0  0  0  0
  181.2570  178.9480  140.7730 C   0  0  0  0  0  3  0  0  0  0  0  0
  183.8680  178.8200  141.9470 C   0  0  0  0  0  3  0  0  0  0  0  0
  186.1510  178.6230  140.1260 N   0  0  0  0  0  0  0  0  0  0  0  0
  184.9330  178.5690  139.6700 C   0  0  0  0  0  0  0  0  0  0  0  0
  183.4490  178.0590  137.7940 C   0  0  0  0  0  3  0  0  0  0  0  0
  185.8460  177.7990  137.4740 N   0  0  0  0  0  0  0  0  0  0  0  0
  187.1520  177.8600  138.0690 C   0  0  0  0  0  3  0  0  0  0  0  0
  182.2820  178.3470  138.6480 C   0  0  0  0  0  3  0  0  0  0  0  0
  188.6690  178.2790  139.9490 C   0  0  2  0  0  3  0  0  0  0  0  0
  189.7040  177.9470  138.8900 C   0  0  0  0  0  1  0  0  0  0  0  0
  188.7690  177.3050  141.0320 N   0  0  0  0  0  2  0  0  0  0  0  0
  189.0360  177.6600  142.3930 C   0  0  0  0  0  0  0  0  0  0  0  0
  189.3780  178.8360  142.6910 O   0  0  0  0  0  0  0  0  0  0  0  0
  188.9250  176.7010  143.4000 O   0  0  0  0  0  0  0  0  0  0  0  0
  187.8720  176.7500  144.3540 C   0  0  2  0  0  3  0  0  0  0  0  0
  186.8190  178.4790  145.7150 C   0  0  0  0  0  2  0  0  0  0  0  0
  186.5780  177.1630  143.6900 C   0  0  0  0  0  2  0  0  0  0  0  0
  188.1510  177.8140  145.4000 C   0  0  1  0  0  3  0  0  0  0  0  0
  185.7930  177.8830  144.7640 C   0  0  0  0  0  2  0  0  0  0  0  0
  190.1290  176.8510  146.6790 N   0  0  0  0  0  0  0  0  0  0  0  0
  188.7440  177.2140  146.6410 C   0  0  0  0  0  0  0  0  0  0  0  0
  192.0780  176.1490  147.3120 C   0  0  0  0  0  0  0  0  0  0  0  0
  192.2470  176.5530  146.0410 N   0  0  0  0  0  0  0  0  0  0  0  0
  193.1270  175.6260  148.1170 N   0  0  0  0  0  1  0  0  0  0  0  0
  191.0220  176.9800  145.6740 C   0  0  0  0  0  3  0  0  0  0  0  0
  190.7790  176.3250  147.7300 C   0  0  0  0  0  3  0  0  0  0  0  0
  188.0270  177.0620  147.6700 O   0  0  0  0  0  0  0  0  0  0  0  0
  185.7180  177.3180  136.1010 C   0  0  0  0  0  2  0  0  0  0  0  0
  185.7050  173.5700  136.7050 C   0  0  0  0  0  3  0  0  0  0  0  0
  186.7420  173.1450  135.8680 C   0  0  0  0  0  0  0  0  0  0  0  0
  187.1130  175.4510  135.1850 C   0  0  0  0  0  3  0  0  0  0  0  0
  185.3700  174.9270  136.7820 C   0  0  0  0  0  3  0  0  0  0  0  0
  186.0710  175.8680  136.0180 C   0  0  0  0  0  0  0  0  0  0  0  0
  187.4480  174.0950  135.1080 C   0  0  0  0  0  3  0  0  0  0  0  0
  186.6100  170.9430  134.7460 C   0  0  0  0  0  1  0  0  0  0  0  0
  187.0450  171.7800  135.8090 O   0  0  0  0  0  0  0  0  0  0  0  0
  1  5  1  0  0  0  0
  1  6  1  0  0  0  0
  2 11  1  0  0  0  0
  3 16  1  0  0  0  0
  3 10  1  0  0  0  0
  4  7  1  0  0  0  0
  4  8  1  0  0  0  0
  7  9  1  1  0  0  0
  8  1  2  0  0  0  0
  9  5  2  0  0  0  0
 11 10  2  0  0  0  0
 11  7  1  0  0  0  0
 12  2  2  0  0  0  0
 12 15  1  0  0  0  0
 13 14  1  0  0  0  0
 13  2  1  0  0  0  0
 14  3  2  0  0  0  0
 15  4  2  0  0  0  0
 16 17  1  6  0  0  0
 16 18  1  0  0  0  0
 18 19  1  0  0  0  0
 19 20  2  0  0  0  0
 19 21  1  0  0  0  0
 22 21  1  6  0  0  0
 22 25  1  0  0  0  0
 24 22  1  0  0  0  0
 24 26  1  0  0  0  0
 25 23  1  0  0  0  0
 25 28  1  1  0  0  0
 26 23  1  0  0  0  0
 27 33  1  0  0  0  0
 28 27  1  0  0  0  0
 28 34  2  0  0  0  0
 29 33  2  0  0  0  0
 29 31  1  0  0  0  0
 30 29  1  0  0  0  0
 32 30  2  0  0  0  0
 32 27  1  0  0  0  0
 35 13  1  0  0  0  0
 36 39  1  0  0  0  0
 37 36  2  0  0  0  0
 38 40  1  0  0  0  0
 40 35  1  0  0  0  0
 40 39  2  0  0  0  0
 41 38  2  0  0  0  0
 41 37  1  0  0  0  0
 42 43  1  0  0  0  0
 43 37  1  0  0  0  0
M  END
>  <MODEL>
8

>  <REMARK>
 VINA RESULT:      -8.8      2.934      6.622
  Name = 
  8 active torsions:
  status: ('A' for Active; 'I' for Inactive)
    1  A    between atoms: C_1  and  N_34
    2  A    between atoms: C_1  and  C_35
    3  A    between atoms: C_2  and  N_6
    4  A    between atoms: C_2  and  C_13
    5  A    between atoms: O_3  and  C_4
    6  A    between atoms: O_3  and  C_12
    7  A    between atoms: C_14  and  C_22
    8  A    between atoms: C_19  and  O_37
                            x       y       z     vdW  Elec       q    Type
                         _______ _______ _______ _____ _____    ______ ____

>  <TORSDO>
F 8

$$$$
=
 OpenBabel11052416353D

 43 48  0  0  1  0  0  0  0  0999 V2000
  191.2300  176.6440  146.7350 C   0  0  0  0  0  0  0  0  0  0  0  0
  187.3360  177.9580  143.6970 C   0  0  0  0  0  0  0  0  0  0  0  0
  188.3090  178.0420  141.0580 C   0  0  0  0  0  0  0  0  0  0  0  0
  189.1230  177.4950  145.8910 C   0  0  0  0  0  0  0  0  0  0  0  0
  191.6810  176.4550  145.3370 C   0  0  0  0  0  3  0  0  0  0  0  0
  192.0700  176.2870  147.7810 O   0  0  0  0  0  1  0  0  0  0  0  0
  189.7610  177.7990  144.5520 C   0  0  1  0  0  3  0  0  0  0  0  0
  190.0040  177.1080  147.0010 C   0  0  0  0  0  3  0  0  0  0  0  0
  190.9760  176.9420  144.3100 C   0  0  0  0  0  3  0  0  0  0  0  0
  189.1970  177.8730  142.1800 N   0  0  0  0  0  0  0  0  0  0  0  0
  188.7800  177.8110  143.4120 C   0  0  0  0  0  0  0  0  0  0  0  0
  186.8870  177.8700  144.9590 C   0  0  0  0  0  3  0  0  0  0  0  0
  186.4460  178.1550  142.5840 N   0  0  0  0  0  0  0  0  0  0  0  0
  186.9920  178.1820  141.2550 C   0  0  0  0  0  3  0  0  0  0  0  0
  187.8030  177.5940  146.0800 C   0  0  0  0  0  3  0  0  0  0  0  0
  188.8500  178.0440  139.6620 C   0  0  2  0  0  3  0  0  0  0  0  0
  187.7160  178.2530  138.6760 C   0  0  0  0  0  1  0  0  0  0  0  0
  189.5080  176.7740  139.3660 N   0  0  0  0  0  2  0  0  0  0  0  0
  190.4140  176.5890  138.2740 C   0  0  0  0  0  0  0  0  0  0  0  0
  190.5490  177.4850  137.3970 O   0  0  0  0  0  0  0  0  0  0  0  0
  191.1510  175.4090  138.1690 O   0  0  0  0  0  0  0  0  0  0  0  0
  191.4380  174.8280  136.9040 C   0  0  2  0  0  3  0  0  0  0  0  0
  192.2680  172.6770  136.1100 C   0  0  0  0  0  2  0  0  0  0  0  0
  190.2630  174.0080  136.4220 C   0  0  0  0  0  2  0  0  0  0  0  0
  192.5970  173.8540  137.0160 C   0  0  1  0  0  3  0  0  0  0  0  0
  190.8670  172.9130  135.5700 C   0  0  0  0  0  2  0  0  0  0  0  0
  195.0580  174.3660  137.4090 N   0  0  0  0  0  0  0  0  0  0  0  0
  193.8870  174.4950  136.5950 C   0  0  0  0  0  0  0  0  0  0  0  0
  197.0760  174.4960  138.1850 C   0  0  0  0  0  0  0  0  0  0  0  0
  196.4000  173.7710  139.0920 N   0  0  0  0  0  0  0  0  0  0  0  0
  198.4590  174.8090  138.3010 N   0  0  0  0  0  1  0  0  0  0  0  0
  195.1510  173.7090  138.5860 C   0  0  0  0  0  3  0  0  0  0  0  0
  196.2710  174.8740  137.1360 C   0  0  0  0  0  3  0  0  0  0  0  0
  193.9510  175.1190  135.4980 O   0  0  0  0  0  0  0  0  0  0  0  0
  185.0000  178.2580  142.7550 C   0  0  0  0  0  2  0  0  0  0  0  0
  182.7240  177.4890  139.8150 C   0  0  0  0  0  3  0  0  0  0  0  0
  183.0510  178.5180  138.9270 C   0  0  0  0  0  0  0  0  0  0  0  0
  184.6570  179.3770  140.5410 C   0  0  0  0  0  3  0  0  0  0  0  0
  183.3570  177.4020  141.0610 C   0  0  0  0  0  3  0  0  0  0  0  0
  184.3200  178.3500  141.4270 C   0  0  0  0  0  0  0  0  0  0  0  0
  184.0250  179.4640  139.2960 C   0  0  0  0  0  3  0  0  0  0  0  0
  181.4670  179.6070  137.3680 C   0  0  0  0  0  1  0  0  0  0  0  0
  182.3940  178.5790  137.6940 O   0  0  0  0  0  0  0  0  0  0  0  0
  1  8  2  0  0  0  0
  1  6  1  0  0  0  0
  2 12  2  0  0  0  0
  3 14  2  0  0  0  0
  3 10  1  0  0  0  0
  4 15  2  0  0  0  0
  4  8  1  0  0  0  0
  5  1  1  0  0  0  0
  7  9  1  6  0  0  0
  7  4  1  0  0  0  0
  9  5  2  0  0  0  0
 10 11  2  0  0  0  0
 11  2  1  0  0  0  0
 11  7  1  0  0  0  0
 12 15  1  0  0  0  0
 13 35  1  0  0  0  0
 13  2  1  0  0  0  0
 14 13  1  0  0  0  0
 16 17  1  6  0  0  0
 16  3  1  0  0  0  0
 18 16  1  0  0  0  0
 19 18  1  0  0  0  0
 20 19  2  0  0  0  0
 21 19  1  0  0  0  0
 22 25  1  0  0  0  0
 22 21  1  1  0  0  0
 23 25  1  0  0  0  0
 24 22  1  0  0  0  0
 25 28  1  6  0  0  0
 26 23  1  0  0  0  0
 26 24  1  0  0  0  0
 27 32  1  0  0  0  0
 28 27  1  0  0  0  0
 29 31  1  0  0  0  0
 29 30  1  0  0  0  0
 32 30  2  0  0  0  0
 33 27  1  0  0  0  0
 33 29  2  0  0  0  0
 34 28  2  0  0  0  0
 36 39  1  0  0  0  0
 37 41  1  0  0  0  0
 37 36  2  0  0  0  0
 38 40  1  0  0  0  0
 39 40  2  0  0  0  0
 40 35  1  0  0  0  0
 41 38  2  0  0  0  0
 42 43  1  0  0  0  0
 43 37  1  0  0  0  0
M  END
>  <MODEL>
9

>  <REMARK>
 VINA RESULT:      -8.8      3.490      5.399
  Name = 
  8 active torsions:
  status: ('A' for Active; 'I' for Inactive)
    1  A    between atoms: C_1  and  N_34
    2  A    between atoms: C_1  and  C_35
    3  A    between atoms: C_2  and  N_6
    4  A    between atoms: C_2  and  C_13
    5  A    between atoms: O_3  and  C_4
    6  A    between atoms: O_3  and  C_12
    7  A    between atoms: C_14  and  C_22
    8  A    between atoms: C_19  and  O_37
                            x       y       z     vdW  Elec       q    Type
                         _______ _______ _______ _____ _____    ______ ____

>  <TORSDO>
F 8

$$$$
