=
 OpenBabel11052416573D

 32 36  0  0  1  0  0  0  0  0999 V2000
  184.5800  178.3760  145.2860 C   0  0  2  0  0  3  0  0  0  0  0  0
  187.0160  178.3270  141.6700 C   0  0  0  0  0  0  0  0  0  0  0  0
  191.0170  176.9050  144.2900 C   0  0  0  0  0  3  0  0  0  0  0  0
  191.7040  176.9680  143.1490 C   0  0  0  0  0  3  0  0  0  0  0  0
  184.7550  178.4180  142.7760 C   0  0  1  0  0  3  0  0  0  0  0  0
  186.7420  177.8380  144.1950 C   0  0  0  0  0  2  0  0  0  0  0  0
  185.1170  178.8870  146.4540 F   0  0  0  0  0  0  0  0  0  0  0  0
  189.5270  177.1150  144.3540 C   0  0  0  0  0  3  0  0  0  0  0  0
  187.6250  177.9430  142.9770 C   0  0  0  0  0  0  0  0  0  0  0  0
  188.9210  177.5790  143.0480 C   0  0  0  0  0  0  0  0  0  0  0  0
  189.1140  177.9070  140.5590 N   0  0  0  0  0  0  0  0  0  0  0  0
  182.6910  178.5520  143.6890 C   0  0  1  0  0  3  0  0  0  0  0  0
  185.4900  178.7060  144.1000 C   0  0  2  0  0  3  0  0  0  0  0  0
  183.5390  179.1230  142.7250 O   0  0  0  0  0  0  0  0  0  0  0  0
  183.1760  178.9330  145.0860 C   0  0  0  0  0  2  0  0  0  0  0  0
  191.0460  177.2860  141.8730 C   0  0  0  0  0  3  0  0  0  0  0  0
  189.7420  177.5740  141.8100 C   0  0  1  0  0  3  0  0  0  0  0  0
  185.6180  178.8580  141.5970 C   0  0  0  0  0  2  0  0  0  0  0  0
  187.7400  178.3130  140.5490 C   0  0  0  0  0  3  0  0  0  0  0  0
  181.2910  179.0270  143.4840 C   0  0  0  0  0  0  0  0  0  0  0  0
  180.2120  178.2880  144.0500 N   0  0  0  0  0  2  0  0  0  0  0  0
  181.0650  180.0790  142.8280 O   0  0  0  0  0  0  0  0  0  0  0  0
  178.9310  178.6960  143.8870 O   0  0  0  0  0  1  0  0  0  0  0  0
  189.8240  177.8260  139.2860 C   0  0  0  0  0  2  0  0  0  0  0  0
  186.5670  174.5250  136.8040 S   0  0  0  0  0  1  0  0  0  0  0  0
  188.2410  176.3510  138.0270 C   0  0  0  0  0  3  0  0  0  0  0  0
  188.5870  178.6170  137.2390 C   0  0  0  0  0  0  0  0  0  0  0  0
  187.6980  178.3820  136.1870 C   0  0  0  0  0  3  0  0  0  0  0  0
  187.0800  177.1340  136.0530 C   0  0  0  0  0  3  0  0  0  0  0  0
  187.3530  176.1200  136.9740 C   0  0  0  0  0  0  0  0  0  0  0  0
  189.1700  179.8360  137.3570 F   0  0  0  0  0  0  0  0  0  0  0  0
  188.8620  177.5970  138.1640 C   0  0  0  0  0  0  0  0  0  0  0  0
  1  7  1  1  0  0  0
  2  9  1  0  0  0  0
  3  8  2  0  0  0  0
  4  3  1  0  0  0  0
  5 18  1  6  0  0  0
  5 13  1  0  0  0  0
  9 10  2  0  0  0  0
  9  6  1  0  0  0  0
 10  8  1  0  0  0  0
 11 17  1  0  0  0  0
 12 20  1  6  0  0  0
 12 15  1  0  0  0  0
 13  6  1  1  0  0  0
 13  1  1  0  0  0  0
 14  5  1  0  0  0  0
 14 12  1  0  0  0  0
 15  1  1  0  0  0  0
 16  4  2  0  0  0  0
 17 16  1  1  0  0  0
 17 10  1  0  0  0  0
 18  2  1  0  0  0  0
 19 11  1  0  0  0  0
 19  2  2  0  0  0  0
 20 21  1  0  0  0  0
 22 20  2  0  0  0  0
 23 21  1  0  0  0  0
 24 11  1  0  0  0  0
 25 30  1  0  0  0  0
 26 32  1  0  0  0  0
 27 31  1  0  0  0  0
 27 32  2  0  0  0  0
 28 27  1  0  0  0  0
 29 28  2  0  0  0  0
 29 30  1  0  0  0  0
 30 26  2  0  0  0  0
 32 24  1  0  0  0  0
M  END
>  <MODEL>
1

>  <REMARK>
 VINA RESULT:     -10.4      0.000      0.000
  Name = 
  3 active torsions:
  status: ('A' for Active; 'I' for Inactive)
    1  A    between atoms: C_1  and  C_19
    2  A    between atoms: N_16  and  C_27
    3  A    between atoms: C_27  and  C_32
                            x       y       z     vdW  Elec       q    Type
                         _______ _______ _______ _____ _____    ______ ____

>  <TORSDO>
F 3

$$$$
=
 OpenBabel11052416573D

 32 36  0  0  1  0  0  0  0  0999 V2000
  184.5570  178.2790  145.1840 C   0  0  2  0  0  3  0  0  0  0  0  0
  186.9870  178.3840  141.5650 C   0  0  0  0  0  0  0  0  0  0  0  0
  190.9750  176.7860  144.1010 C   0  0  0  0  0  3  0  0  0  0  0  0
  191.6610  176.9000  142.9630 C   0  0  0  0  0  3  0  0  0  0  0  0
  184.7290  178.4460  142.6790 C   0  0  1  0  0  3  0  0  0  0  0  0
  186.7110  177.7730  144.0630 C   0  0  0  0  0  2  0  0  0  0  0  0
  185.1020  178.7250  146.3750 F   0  0  0  0  0  0  0  0  0  0  0  0
  189.4880  177.0100  144.1800 C   0  0  0  0  0  3  0  0  0  0  0  0
  187.5930  177.9290  142.8500 C   0  0  0  0  0  0  0  0  0  0  0  0
  188.8850  177.5460  142.8990 C   0  0  0  0  0  0  0  0  0  0  0  0
  189.0780  177.9970  140.4290 N   0  0  0  0  0  0  0  0  0  0  0  0
  182.6670  178.5580  143.6020 C   0  0  1  0  0  3  0  0  0  0  0  0
  185.4690  178.6590  144.0140 C   0  0  2  0  0  3  0  0  0  0  0  0
  183.5210  179.1670  142.6660 O   0  0  0  0  0  0  0  0  0  0  0  0
  183.1590  178.8620  145.0150 C   0  0  0  0  0  2  0  0  0  0  0  0
  191.0050  177.2880  141.7070 C   0  0  0  0  0  3  0  0  0  0  0  0
  189.7040  177.5940  141.6610 C   0  0  1  0  0  3  0  0  0  0  0  0
  185.5950  178.9350  141.5220 C   0  0  0  0  0  2  0  0  0  0  0  0
  187.7090  178.4190  140.4430 C   0  0  0  0  0  3  0  0  0  0  0  0
  181.2730  179.0580  143.4240 C   0  0  0  0  0  0  0  0  0  0  0  0
  180.2070  178.4230  144.1250 N   0  0  0  0  0  2  0  0  0  0  0  0
  181.0410  180.0430  142.6720 O   0  0  0  0  0  0  0  0  0  0  0  0
  178.9320  178.8570  143.9890 O   0  0  0  0  0  1  0  0  0  0  0  0
  189.7850  177.9720  139.1530 C   0  0  0  0  0  2  0  0  0  0  0  0
  186.0380  175.3190  136.5880 S   0  0  0  0  0  1  0  0  0  0  0  0
  188.0890  176.6230  137.9000 C   0  0  0  0  0  3  0  0  0  0  0  0
  190.3420  175.7500  138.1040 C   0  0  0  0  0  0  0  0  0  0  0  0
  189.9630  174.6160  137.3810 C   0  0  0  0  0  3  0  0  0  0  0  0
  188.6510  174.4830  136.9170 C   0  0  0  0  0  3  0  0  0  0  0  0
  187.7150  175.4870  137.1770 C   0  0  0  0  0  0  0  0  0  0  0  0
  191.6210  175.8650  138.5380 F   0  0  0  0  0  0  0  0  0  0  0  0
  189.4020  176.7590  138.3660 C   0  0  0  0  0  0  0  0  0  0  0  0
  1  7  1  1  0  0  0
  2  9  1  0  0  0  0
  3  8  2  0  0  0  0
  4  3  1  0  0  0  0
  5 18  1  6  0  0  0
  5 13  1  0  0  0  0
  9 10  2  0  0  0  0
  9  6  1  0  0  0  0
 10  8  1  0  0  0  0
 11 19  1  0  0  0  0
 11 17  1  0  0  0  0
 12 20  1  1  0  0  0
 12 15  1  0  0  0  0
 13  6  1  6  0  0  0
 13  1  1  0  0  0  0
 14  5  1  0  0  0  0
 14 12  1  0  0  0  0
 15  1  1  0  0  0  0
 16  4  2  0  0  0  0
 17 16  1  1  0  0  0
 17 10  1  0  0  0  0
 18  2  1  0  0  0  0
 19  2  2  0  0  0  0
 20 21  1  0  0  0  0
 22 20  2  0  0  0  0
 23 21  1  0  0  0  0
 24 11  1  0  0  0  0
 25 30  1  0  0  0  0
 26 32  1  0  0  0  0
 27 32  2  0  0  0  0
 27 31  1  0  0  0  0
 28 27  1  0  0  0  0
 29 30  1  0  0  0  0
 29 28  2  0  0  0  0
 30 26  2  0  0  0  0
 32 24  1  0  0  0  0
M  END
>  <MODEL>
2

>  <REMARK>
 VINA RESULT:     -10.0      1.145      1.473
  Name = 
  3 active torsions:
  status: ('A' for Active; 'I' for Inactive)
    1  A    between atoms: C_1  and  C_19
    2  A    between atoms: N_16  and  C_27
    3  A    between atoms: C_27  and  C_32
                            x       y       z     vdW  Elec       q    Type
                         _______ _______ _______ _____ _____    ______ ____

>  <TORSDO>
F 3

$$$$
=
 OpenBabel11052416573D

 32 36  0  0  1  0  0  0  0  0999 V2000
  187.2710  177.5610  146.4960 C   0  0  2  0  0  3  0  0  0  0  0  0
  186.2610  178.2550  142.3110 C   0  0  0  0  0  0  0  0  0  0  0  0
  181.4780  179.0120  143.5100 C   0  0  0  0  0  3  0  0  0  0  0  0
  181.2420  179.1550  142.2050 C   0  0  0  0  0  3  0  0  0  0  0  0
  187.9900  178.0120  144.1260 C   0  0  1  0  0  3  0  0  0  0  0  0
  185.5850  178.2410  144.8080 C   0  0  0  0  0  2  0  0  0  0  0  0
  186.4130  176.8140  147.2820 F   0  0  0  0  0  0  0  0  0  0  0  0
  182.8640  178.8370  144.0720 C   0  0  0  0  0  3  0  0  0  0  0  0
  185.1990  178.3540  143.3550 C   0  0  0  0  0  0  0  0  0  0  0  0
  183.9310  178.6590  143.0140 C   0  0  0  0  0  0  0  0  0  0  0  0
  184.6540  178.8250  140.6070 N   0  0  0  0  0  0  0  0  0  0  0  0
  189.6080  177.7600  145.6860 C   0  0  1  0  0  3  0  0  0  0  0  0
  186.8710  177.4460  145.0230 C   0  0  2  0  0  3  0  0  0  0  0  0
  189.2110  177.3670  144.3970 O   0  0  0  0  0  0  0  0  0  0  0  0
  188.7050  177.0960  146.7230 C   0  0  0  0  0  2  0  0  0  0  0  0
  182.3330  179.1170  141.2200 C   0  0  0  0  0  3  0  0  0  0  0  0
  183.5980  178.8850  141.5840 C   0  0  1  0  0  3  0  0  0  0  0  0
  187.6420  177.7900  142.6580 C   0  0  0  0  0  2  0  0  0  0  0  0
  185.9770  178.4690  141.0250 C   0  0  0  0  0  3  0  0  0  0  0  0
  191.0300  177.3770  145.9230 C   0  0  0  0  0  0  0  0  0  0  0  0
  191.3560  176.5500  147.0370 N   0  0  0  0  0  2  0  0  0  0  0  0
  191.9340  177.7680  145.1370 O   0  0  0  0  0  0  0  0  0  0  0  0
  192.6370  176.1800  147.2750 O   0  0  0  0  0  1  0  0  0  0  0  0
  184.4290  179.1360  139.1990 C   0  0  0  0  0  2  0  0  0  0  0  0
  182.2300  174.6540  137.5450 S   0  0  0  0  0  1  0  0  0  0  0  0
  183.4840  176.9840  138.3370 C   0  0  0  0  0  3  0  0  0  0  0  0
  185.7060  177.6410  137.6250 C   0  0  0  0  0  0  0  0  0  0  0  0
  185.8020  176.4720  136.8630 C   0  0  0  0  0  3  0  0  0  0  0  0
  184.7420  175.5610  136.8370 C   0  0  0  0  0  3  0  0  0  0  0  0
  183.5840  175.8180  137.5740 C   0  0  0  0  0  0  0  0  0  0  0  0
  186.7410  178.5170  137.6310 F   0  0  0  0  0  0  0  0  0  0  0  0
  184.5420  177.8990  138.3660 C   0  0  0  0  0  0  0  0  0  0  0  0
  1 15  1  0  0  0  0
  1  7  1  1  0  0  0
  2 18  1  0  0  0  0
  2  9  1  0  0  0  0
  3  8  2  0  0  0  0
  4  3  1  0  0  0  0
  5 18  1  6  0  0  0
  5 14  1  0  0  0  0
  5 13  1  0  0  0  0
  9  6  1  0  0  0  0
 10  9  2  0  0  0  0
 10  8  1  0  0  0  0
 11 19  1  0  0  0  0
 11 17  1  0  0  0  0
 12 20  1  1  0  0  0
 12 15  1  0  0  0  0
 13  6  1  1  0  0  0
 13  1  1  0  0  0  0
 14 12  1  0  0  0  0
 16  4  2  0  0  0  0
 17 16  1  6  0  0  0
 17 10  1  0  0  0  0
 19  2  2  0  0  0  0
 20 21  1  0  0  0  0
 21 23  1  0  0  0  0
 22 20  2  0  0  0  0
 24 11  1  0  0  0  0
 25 30  1  0  0  0  0
 26 32  1  0  0  0  0
 27 31  1  0  0  0  0
 27 32  2  0  0  0  0
 28 27  1  0  0  0  0
 29 28  2  0  0  0  0
 29 30  1  0  0  0  0
 30 26  2  0  0  0  0
 32 24  1  0  0  0  0
M  END
>  <MODEL>
3

>  <REMARK>
 VINA RESULT:      -9.9      3.675      6.417
  Name = 
  3 active torsions:
  status: ('A' for Active; 'I' for Inactive)
    1  A    between atoms: C_1  and  C_19
    2  A    between atoms: N_16  and  C_27
    3  A    between atoms: C_27  and  C_32
                            x       y       z     vdW  Elec       q    Type
                         _______ _______ _______ _____ _____    ______ ____

>  <TORSDO>
F 3

$$$$
=
 OpenBabel11052416573D

 32 36  0  0  1  0  0  0  0  0999 V2000
  187.1170  177.6290  146.4800 C   0  0  2  0  0  3  0  0  0  0  0  0
  186.0510  178.2320  142.2950 C   0  0  0  0  0  0  0  0  0  0  0  0
  181.2960  179.0730  143.5450 C   0  0  0  0  0  3  0  0  0  0  0  0
  181.0420  179.1880  142.2410 C   0  0  0  0  0  3  0  0  0  0  0  0
  187.8050  178.0140  144.0900 C   0  0  1  0  0  3  0  0  0  0  0  0
  185.4130  178.2860  144.8010 C   0  0  0  0  0  2  0  0  0  0  0  0
  186.2620  176.9100  147.2960 F   0  0  0  0  0  0  0  0  0  0  0  0
  182.6880  178.8950  144.0910 C   0  0  0  0  0  3  0  0  0  0  0  0
  185.0070  178.3680  143.3510 C   0  0  0  0  0  0  0  0  0  0  0  0
  183.7370  178.6800  143.0220 C   0  0  0  0  0  0  0  0  0  0  0  0
  184.4250  178.7790  140.6020 N   0  0  0  0  0  0  0  0  0  0  0  0
  189.4430  177.7810  145.6310 C   0  0  1  0  0  3  0  0  0  0  0  0
  186.6930  177.4820  145.0160 C   0  0  2  0  0  3  0  0  0  0  0  0
  189.0220  177.3610  144.3570 O   0  0  0  0  0  0  0  0  0  0  0  0
  188.5480  177.1530  146.6970 C   0  0  0  0  0  2  0  0  0  0  0  0
  182.1170  179.1120  141.2410 C   0  0  0  0  0  3  0  0  0  0  0  0
  183.3850  178.8750  141.5920 C   0  0  1  0  0  3  0  0  0  0  0  0
  187.4320  177.7600  142.6320 C   0  0  0  0  0  2  0  0  0  0  0  0
  185.7510  178.4190  141.0080 C   0  0  0  0  0  3  0  0  0  0  0  0
  190.8640  177.3870  145.8560 C   0  0  0  0  0  0  0  0  0  0  0  0
  191.2160  176.6820  147.0430 N   0  0  0  0  0  2  0  0  0  0  0  0
  191.7450  177.6630  144.9970 O   0  0  0  0  0  0  0  0  0  0  0  0
  192.4960  176.3050  147.2730 O   0  0  0  0  0  1  0  0  0  0  0  0
  184.1820  179.0590  139.1900 C   0  0  0  0  0  2  0  0  0  0  0  0
  187.4990  176.7020  135.8570 S   0  0  0  0  0  1  0  0  0  0  0  0
  185.6860  177.8340  137.6070 C   0  0  0  0  0  3  0  0  0  0  0  0
  183.6250  176.7660  138.3070 C   0  0  0  0  0  0  0  0  0  0  0  0
  183.9340  175.6590  137.5110 C   0  0  0  0  0  3  0  0  0  0  0  0
  185.1150  175.6380  136.7640 C   0  0  0  0  0  3  0  0  0  0  0  0
  185.9910  176.7250  136.8120 C   0  0  0  0  0  0  0  0  0  0  0  0
  182.4790  176.7650  139.0320 F   0  0  0  0  0  0  0  0  0  0  0  0
  184.5040  177.8590  138.3560 C   0  0  0  0  0  0  0  0  0  0  0  0
  1 15  1  0  0  0  0
  1  7  1  1  0  0  0
  2 18  1  0  0  0  0
  2  9  1  0  0  0  0
  3  8  2  0  0  0  0
  4  3  1  0  0  0  0
  5 18  1  6  0  0  0
  5 14  1  0  0  0  0
  5 13  1  0  0  0  0
  9  6  1  0  0  0  0
 10  9  2  0  0  0  0
 10  8  1  0  0  0  0
 11 19  1  0  0  0  0
 11 17  1  0  0  0  0
 12 20  1  1  0  0  0
 12 15  1  0  0  0  0
 13  6  1  1  0  0  0
 13  1  1  0  0  0  0
 14 12  1  0  0  0  0
 16  4  2  0  0  0  0
 17 16  1  6  0  0  0
 17 10  1  0  0  0  0
 19  2  2  0  0  0  0
 20 21  1  0  0  0  0
 21 23  1  0  0  0  0
 22 20  2  0  0  0  0
 24 11  1  0  0  0  0
 25 30  1  0  0  0  0
 26 32  1  0  0  0  0
 27 32  2  0  0  0  0
 27 31  1  0  0  0  0
 28 27  1  0  0  0  0
 29 30  1  0  0  0  0
 29 28  2  0  0  0  0
 30 26  2  0  0  0  0
 32 24  1  0  0  0  0
M  END
>  <MODEL>
4

>  <REMARK>
 VINA RESULT:      -9.8      3.767      6.521
  Name = 
  3 active torsions:
  status: ('A' for Active; 'I' for Inactive)
    1  A    between atoms: C_1  and  C_19
    2  A    between atoms: N_16  and  C_27
    3  A    between atoms: C_27  and  C_32
                            x       y       z     vdW  Elec       q    Type
                         _______ _______ _______ _____ _____    ______ ____

>  <TORSDO>
F 3

$$$$
=
 OpenBabel11052416573D

 32 36  0  0  1  0  0  0  0  0999 V2000
  187.9040  177.5860  146.0710 C   0  0  2  0  0  3  0  0  0  0  0  0
  188.9130  177.4990  141.8290 C   0  0  0  0  0  0  0  0  0  0  0  0
  184.3140  179.0110  140.6230 C   0  0  0  0  0  3  0  0  0  0  0  0
  184.6860  178.9040  139.3470 C   0  0  0  0  0  3  0  0  0  0  0  0
  189.6290  177.4510  144.2440 C   0  0  1  0  0  3  0  0  0  0  0  0
  187.2550  178.0800  143.7280 C   0  0  0  0  0  2  0  0  0  0  0  0
  186.6680  177.1180  146.4800 F   0  0  0  0  0  0  0  0  0  0  0  0
  185.2700  178.8050  141.7680 C   0  0  0  0  0  3  0  0  0  0  0  0
  187.5500  177.9300  142.2570 C   0  0  0  0  0  0  0  0  0  0  0  0
  186.6290  178.2940  141.3420 C   0  0  0  0  0  0  0  0  0  0  0  0
  188.3200  177.8750  139.5240 N   0  0  0  0  0  0  0  0  0  0  0  0
  190.3530  177.3540  146.3840 C   0  0  1  0  0  3  0  0  0  0  0  0
  188.1500  177.2110  144.6070 C   0  0  2  0  0  3  0  0  0  0  0  0
  190.4730  176.7470  145.1220 O   0  0  0  0  0  0  0  0  0  0  0  0
  188.9880  177.0240  146.9820 C   0  0  0  0  0  2  0  0  0  0  0  0
  186.0610  178.5410  138.9760 C   0  0  0  0  0  3  0  0  0  0  0  0
  186.9830  178.2530  139.9000 C   0  0  1  0  0  3  0  0  0  0  0  0
  189.9000  176.9680  142.8230 C   0  0  0  0  0  2  0  0  0  0  0  0
  189.2470  177.4710  140.5380 C   0  0  0  0  0  3  0  0  0  0  0  0
  191.4400  176.8740  147.2870 C   0  0  0  0  0  0  0  0  0  0  0  0
  192.1850  175.7130  146.9290 N   0  0  0  0  0  2  0  0  0  0  0  0
  191.7050  177.4960  148.3500 O   0  0  0  0  0  0  0  0  0  0  0  0
  193.1820  175.2560  147.7240 O   0  0  0  0  0  1  0  0  0  0  0  0
  188.7760  177.9080  138.1380 C   0  0  0  0  0  2  0  0  0  0  0  0
  192.6850  174.5050  137.2460 S   0  0  0  0  0  1  0  0  0  0  0  0
  190.5490  176.2000  137.6840 C   0  0  0  0  0  3  0  0  0  0  0  0
  188.2360  175.6080  137.2640 C   0  0  0  0  0  0  0  0  0  0  0  0
  188.6430  174.3410  136.8350 C   0  0  0  0  0  3  0  0  0  0  0  0
  190.0000  174.0030  136.8290 C   0  0  0  0  0  3  0  0  0  0  0  0
  190.9520  174.9330  137.2540 C   0  0  0  0  0  0  0  0  0  0  0  0
  186.9150  175.9150  137.2710 F   0  0  0  0  0  0  0  0  0  0  0  0
  189.1920  176.5430  137.6910 C   0  0  0  0  0  0  0  0  0  0  0  0
  1  7  1  1  0  0  0
  1 15  1  0  0  0  0
  2  9  1  0  0  0  0
  2 18  1  0  0  0  0
  3  8  2  0  0  0  0
  4  3  1  0  0  0  0
  5 18  1  6  0  0  0
  5 13  1  0  0  0  0
  5 14  1  0  0  0  0
  9  6  1  0  0  0  0
 10  8  1  0  0  0  0
 10  9  2  0  0  0  0
 11 17  1  0  0  0  0
 11 19  1  0  0  0  0
 12 15  1  0  0  0  0
 12 20  1  1  0  0  0
 13  6  1  6  0  0  0
 13  1  1  0  0  0  0
 14 12  1  0  0  0  0
 16  4  2  0  0  0  0
 17 16  1  6  0  0  0
 17 10  1  0  0  0  0
 19  2  2  0  0  0  0
 20 22  2  0  0  0  0
 21 20  1  0  0  0  0
 21 23  1  0  0  0  0
 24 11  1  0  0  0  0
 25 30  1  0  0  0  0
 26 32  1  0  0  0  0
 27 31  1  0  0  0  0
 27 32  2  0  0  0  0
 28 27  1  0  0  0  0
 29 28  2  0  0  0  0
 29 30  1  0  0  0  0
 30 26  2  0  0  0  0
 32 24  1  0  0  0  0
M  END
>  <MODEL>
5

>  <REMARK>
 VINA RESULT:      -9.8      4.112      6.267
  Name = 
  3 active torsions:
  status: ('A' for Active; 'I' for Inactive)
    1  A    between atoms: C_1  and  C_19
    2  A    between atoms: N_16  and  C_27
    3  A    between atoms: C_27  and  C_32
                            x       y       z     vdW  Elec       q    Type
                         _______ _______ _______ _____ _____    ______ ____

>  <TORSDO>
F 3

$$$$
=
 OpenBabel11052416573D

 32 36  0  0  1  0  0  0  0  0999 V2000
  187.8910  177.5610  146.1890 C   0  0  2  0  0  3  0  0  0  0  0  0
  188.9010  177.5180  141.9470 C   0  0  0  0  0  0  0  0  0  0  0  0
  184.2910  179.0030  140.7530 C   0  0  0  0  0  3  0  0  0  0  0  0
  184.6630  178.9100  139.4760 C   0  0  0  0  0  3  0  0  0  0  0  0
  189.6180  177.4550  144.3610 C   0  0  1  0  0  3  0  0  0  0  0  0
  187.2380  178.0690  143.8500 C   0  0  0  0  0  2  0  0  0  0  0  0
  186.6590  177.0790  146.5930 F   0  0  0  0  0  0  0  0  0  0  0  0
  185.2480  178.7950  141.8960 C   0  0  0  0  0  3  0  0  0  0  0  0
  187.5350  177.9330  142.3780 C   0  0  0  0  0  0  0  0  0  0  0  0
  186.6110  178.2990  141.4660 C   0  0  0  0  0  0  0  0  0  0  0  0
  188.3060  177.9080  139.6440 N   0  0  0  0  0  0  0  0  0  0  0  0
  190.3420  177.3450  146.5000 C   0  0  1  0  0  3  0  0  0  0  0  0
  188.1410  177.2000  144.7220 C   0  0  2  0  0  3  0  0  0  0  0  0
  190.4670  176.7500  145.2330 O   0  0  0  0  0  0  0  0  0  0  0  0
  188.9790  176.9990  147.0960 C   0  0  0  0  0  2  0  0  0  0  0  0
  186.0410  178.5610  139.1020 C   0  0  0  0  0  3  0  0  0  0  0  0
  186.9650  178.2720  140.0230 C   0  0  1  0  0  3  0  0  0  0  0  0
  189.8930  176.9860  142.9360 C   0  0  0  0  0  2  0  0  0  0  0  0
  189.2360  177.5030  140.6550 C   0  0  0  0  0  3  0  0  0  0  0  0
  191.4320  176.8660  147.3990 C   0  0  0  0  0  0  0  0  0  0  0  0
  192.1810  175.7090  147.0360 N   0  0  0  0  0  2  0  0  0  0  0  0
  191.6990  177.4870  148.4640 O   0  0  0  0  0  0  0  0  0  0  0  0
  193.1800  175.2530  147.8280 O   0  0  0  0  0  1  0  0  0  0  0  0
  188.7620  177.9570  138.2590 C   0  0  0  0  0  2  0  0  0  0  0  0
  186.7680  173.4990  136.3070 S   0  0  0  0  0  1  0  0  0  0  0  0
  187.9320  175.7920  137.3160 C   0  0  0  0  0  3  0  0  0  0  0  0
  190.3120  176.0540  137.6910 C   0  0  0  0  0  0  0  0  0  0  0  0
  190.5260  174.7560  137.2180 C   0  0  0  0  0  3  0  0  0  0  0  0
  189.4450  173.9760  136.7960 C   0  0  0  0  0  3  0  0  0  0  0  0
  188.1490  174.4940  136.8450 C   0  0  0  0  0  0  0  0  0  0  0  0
  191.3740  176.7990  138.0880 F   0  0  0  0  0  0  0  0  0  0  0  0
  189.0100  176.5760  137.7410 C   0  0  0  0  0  0  0  0  0  0  0  0
  1  7  1  1  0  0  0
  1 15  1  0  0  0  0
  2  9  1  0  0  0  0
  2 18  1  0  0  0  0
  3  8  2  0  0  0  0
  4  3  1  0  0  0  0
  5 18  1  6  0  0  0
  5 13  1  0  0  0  0
  5 14  1  0  0  0  0
  9  6  1  0  0  0  0
 10  8  1  0  0  0  0
 10  9  2  0  0  0  0
 11 17  1  0  0  0  0
 11 19  1  0  0  0  0
 12 15  1  0  0  0  0
 12 20  1  1  0  0  0
 13  6  1  6  0  0  0
 13  1  1  0  0  0  0
 14 12  1  0  0  0  0
 16  4  2  0  0  0  0
 17 16  1  6  0  0  0
 17 10  1  0  0  0  0
 19  2  2  0  0  0  0
 20 22  2  0  0  0  0
 21 20  1  0  0  0  0
 21 23  1  0  0  0  0
 24 11  1  0  0  0  0
 25 30  1  0  0  0  0
 26 32  1  0  0  0  0
 27 32  2  0  0  0  0
 27 31  1  0  0  0  0
 28 27  1  0  0  0  0
 29 30  1  0  0  0  0
 29 28  2  0  0  0  0
 30 26  2  0  0  0  0
 32 24  1  0  0  0  0
M  END
>  <MODEL>
6

>  <REMARK>
 VINA RESULT:      -9.8      3.929      6.131
  Name = 
  3 active torsions:
  status: ('A' for Active; 'I' for Inactive)
    1  A    between atoms: C_1  and  C_19
    2  A    between atoms: N_16  and  C_27
    3  A    between atoms: C_27  and  C_32
                            x       y       z     vdW  Elec       q    Type
                         _______ _______ _______ _____ _____    ______ ____

>  <TORSDO>
F 3

$$$$
=
 OpenBabel11052416573D

 32 36  0  0  1  0  0  0  0  0999 V2000
  184.2910  178.4530  144.9690 C   0  0  2  0  0  3  0  0  0  0  0  0
  187.4690  178.1650  141.9970 C   0  0  0  0  0  0  0  0  0  0  0  0
  190.7560  176.8790  145.5220 C   0  0  0  0  0  3  0  0  0  0  0  0
  191.6810  176.8670  144.5620 C   0  0  0  0  0  3  0  0  0  0  0  0
  185.0210  178.3400  142.5630 C   0  0  1  0  0  3  0  0  0  0  0  0
  186.6300  177.8350  144.4220 C   0  0  0  0  0  2  0  0  0  0  0  0
  184.5650  179.0310  146.1960 F   0  0  0  0  0  0  0  0  0  0  0  0
  189.2940  177.1030  145.2410 C   0  0  0  0  0  3  0  0  0  0  0  0
  187.7630  177.8580  143.4270 C   0  0  0  0  0  0  0  0  0  0  0  0
  189.0030  177.4900  143.8070 C   0  0  0  0  0  0  0  0  0  0  0  0
  189.7520  177.6630  141.4090 N   0  0  0  0  0  0  0  0  0  0  0  0
  182.8080  178.5440  142.9830 C   0  0  1  0  0  3  0  0  0  0  0  0
  185.4490  178.7040  143.9990 C   0  0  2  0  0  3  0  0  0  0  0  0
  183.8610  179.0490  142.2010 O   0  0  0  0  0  0  0  0  0  0  0  0
  182.9780  179.0070  144.4280 C   0  0  0  0  0  2  0  0  0  0  0  0
  191.3300  177.1100  143.1560 C   0  0  0  0  0  3  0  0  0  0  0  0
  190.0790  177.4030  142.7860 C   0  0  1  0  0  3  0  0  0  0  0  0
  186.1330  178.7000  141.5830 C   0  0  0  0  0  2  0  0  0  0  0  0
  188.4230  178.0770  141.0690 C   0  0  0  0  0  3  0  0  0  0  0  0
  181.4990  179.0150  142.4430 C   0  0  0  0  0  0  0  0  0  0  0  0
  181.2540  178.9440  141.0410 N   0  0  0  0  0  2  0  0  0  0  0  0
  180.6130  179.4600  143.2210 O   0  0  0  0  0  0  0  0  0  0  0  0
  180.0740  179.3570  140.5210 O   0  0  0  0  0  1  0  0  0  0  0  0
  190.7260  177.4990  140.3340 C   0  0  0  0  0  2  0  0  0  0  0  0
  189.3510  173.8150  136.8410 S   0  0  0  0  0  1  0  0  0  0  0  0
  190.0070  175.8350  138.6070 C   0  0  0  0  0  3  0  0  0  0  0  0
  189.4300  178.1670  138.2790 C   0  0  0  0  0  0  0  0  0  0  0  0
  188.8030  177.8370  137.0740 C   0  0  0  0  0  3  0  0  0  0  0  0
  188.7770  176.5100  136.6340 C   0  0  0  0  0  3  0  0  0  0  0  0
  189.3800  175.5100  137.4010 C   0  0  0  0  0  0  0  0  0  0  0  0
  189.4370  179.4580  138.6930 F   0  0  0  0  0  0  0  0  0  0  0  0
  190.0360  177.1620  139.0500 C   0  0  0  0  0  0  0  0  0  0  0  0
  1  7  1  1  0  0  0
  2  9  1  0  0  0  0
  4  3  1  0  0  0  0
  5 18  1  6  0  0  0
  5 13  1  0  0  0  0
  8  3  2  0  0  0  0
  9 10  2  0  0  0  0
  9  6  1  0  0  0  0
 10  8  1  0  0  0  0
 11 17  1  0  0  0  0
 12 20  1  6  0  0  0
 12 15  1  0  0  0  0
 13  6  1  1  0  0  0
 13  1  1  0  0  0  0
 14  5  1  0  0  0  0
 14 12  1  0  0  0  0
 15  1  1  0  0  0  0
 16  4  2  0  0  0  0
 17 16  1  1  0  0  0
 17 10  1  0  0  0  0
 18  2  1  0  0  0  0
 19 11  1  0  0  0  0
 19  2  2  0  0  0  0
 20 22  2  0  0  0  0
 21 20  1  0  0  0  0
 23 21  1  0  0  0  0
 24 11  1  0  0  0  0
 25 30  1  0  0  0  0
 26 32  1  0  0  0  0
 27 31  1  0  0  0  0
 27 32  2  0  0  0  0
 28 27  1  0  0  0  0
 29 28  2  0  0  0  0
 29 30  1  0  0  0  0
 30 26  2  0  0  0  0
 32 24  1  0  0  0  0
M  END
>  <MODEL>
7

>  <REMARK>
 VINA RESULT:      -9.7      1.270      1.472
  Name = 
  3 active torsions:
  status: ('A' for Active; 'I' for Inactive)
    1  A    between atoms: C_1  and  C_19
    2  A    between atoms: N_16  and  C_27
    3  A    between atoms: C_27  and  C_32
                            x       y       z     vdW  Elec       q    Type
                         _______ _______ _______ _____ _____    ______ ____

>  <TORSDO>
F 3

$$$$
=
 OpenBabel11052416573D

 32 36  0  0  1  0  0  0  0  0999 V2000
  189.1000  178.0510  138.7120 C   0  0  2  0  0  3  0  0  0  0  0  0
  188.4370  177.5400  142.9910 C   0  0  0  0  0  0  0  0  0  0  0  0
  183.6920  179.0030  142.5110 C   0  0  0  0  0  3  0  0  0  0  0  0
  183.5880  178.8750  143.8340 C   0  0  0  0  0  3  0  0  0  0  0  0
  189.8490  177.1550  140.9410 C   0  0  1  0  0  3  0  0  0  0  0  0
  187.5200  178.0340  140.6240 C   0  0  0  0  0  2  0  0  0  0  0  0
  188.5600  179.1520  138.0720 F   0  0  0  0  0  0  0  0  0  0  0  0
  184.9310  178.6090  141.7510 C   0  0  0  0  0  2  0  0  0  0  0  0
  187.3140  177.9870  142.1170 C   0  0  0  0  0  0  0  0  0  0  0  0
  186.0950  178.2300  142.6390 C   0  0  0  0  0  0  0  0  0  0  0  0
  186.9770  177.5860  144.9090 N   0  0  0  0  0  0  0  0  0  0  0  0
  191.1990  176.8070  139.1600 C   0  0  1  0  0  3  0  0  0  0  0  0
  188.9830  178.2140  140.2300 C   0  0  2  0  0  3  0  0  0  0  0  0
  191.1830  177.2320  140.5000 O   0  0  0  0  0  0  0  0  0  0  0  0
  190.5500  177.8720  138.2790 C   0  0  0  0  0  2  0  0  0  0  0  0
  184.7030  178.3670  144.6460 C   0  0  0  0  0  3  0  0  0  0  0  0
  185.8840  178.0600  144.1000 C   0  0  0  0  0  0  0  0  0  0  0  0
  189.8250  177.3920  142.4480 C   0  0  0  0  0  2  0  0  0  0  0  0
  188.2570  177.3700  144.3020 C   0  0  0  0  0  3  0  0  0  0  0  0
  192.6020  176.5600  138.7190 C   0  0  0  0  0  0  0  0  0  0  0  0
  192.8460  175.6960  137.6120 N   0  0  0  0  0  2  0  0  0  0  0  0
  193.5640  177.1190  139.3110 O   0  0  0  0  0  0  0  0  0  0  0  0
  194.1080  175.4570  137.1830 O   0  0  0  0  0  1  0  0  0  0  0  0
  186.8230  177.2950  146.3300 C   0  0  0  0  0  2  0  0  0  0  0  0
  191.8830  175.9830  146.9110 S   0  0  0  0  0  1  0  0  0  0  0  0
  189.2420  176.7630  146.6940 C   0  0  0  0  0  3  0  0  0  0  0  0
  188.2040  178.4480  148.0940 C   0  0  0  0  0  0  0  0  0  0  0  0
  189.4150  178.6280  148.7680 C   0  0  0  0  0  3  0  0  0  0  0  0
  190.5380  177.8770  148.4080 C   0  0  0  0  0  3  0  0  0  0  0  0
  190.4500  176.9450  147.3710 C   0  0  0  0  0  0  0  0  0  0  0  0
  187.1270  179.1920  148.4510 F   0  0  0  0  0  0  0  0  0  0  0  0
  188.1150  177.5120  147.0520 C   0  0  0  0  0  0  0  0  0  0  0  0
  1  7  1  6  0  0  0
  1 13  1  0  0  0  0
  2 19  2  0  0  0  0
  3  4  2  0  0  0  0
  4 16  1  0  0  0  0
  5 18  1  1  0  0  0
  6  9  1  0  0  0  0
  8  3  1  0  0  0  0
  8 10  1  0  0  0  0
  9 10  2  0  0  0  0
  9  2  1  0  0  0  0
 10 17  1  0  0  0  0
 11 24  1  0  0  0  0
 12 20  1  6  0  0  0
 12 14  1  0  0  0  0
 13  6  1  1  0  0  0
 13  5  1  0  0  0  0
 14  5  1  0  0  0  0
 15  1  1  0  0  0  0
 15 12  1  0  0  0  0
 17 16  2  0  0  0  0
 17 11  1  0  0  0  0
 18  2  1  0  0  0  0
 19 11  1  0  0  0  0
 20 22  2  0  0  0  0
 21 20  1  0  0  0  0
 23 21  1  0  0  0  0
 24 32  1  0  0  0  0
 25 30  1  0  0  0  0
 26 32  2  0  0  0  0
 26 30  1  0  0  0  0
 27 31  1  0  0  0  0
 27 28  2  0  0  0  0
 29 28  1  0  0  0  0
 30 29  2  0  0  0  0
 32 27  1  0  0  0  0
M  END
>  <MODEL>
8

>  <REMARK>
 VINA RESULT:      -9.3      4.490      9.103
  Name = 
  3 active torsions:
  status: ('A' for Active; 'I' for Inactive)
    1  A    between atoms: C_1  and  C_19
    2  A    between atoms: N_16  and  C_27
    3  A    between atoms: C_27  and  C_32
                            x       y       z     vdW  Elec       q    Type
                         _______ _______ _______ _____ _____    ______ ____

>  <TORSDO>
F 3

$$$$
=
 OpenBabel11052416573D

 32 36  0  0  1  0  0  0  0  0999 V2000
  184.0470  178.3100  144.3360 C   0  0  2  0  0  3  0  0  0  0  0  0
  188.0940  178.0340  142.7350 C   0  0  0  0  0  0  0  0  0  0  0  0
  189.8700  176.7810  147.2250 C   0  0  0  0  0  3  0  0  0  0  0  0
  191.0830  176.7730  146.6700 C   0  0  0  0  0  3  0  0  0  0  0  0
  185.6080  178.1940  142.3650 C   0  0  1  0  0  3  0  0  0  0  0  0
  186.4280  177.7060  144.6860 C   0  0  0  0  0  2  0  0  0  0  0  0
  183.8510  178.8940  145.5740 F   0  0  0  0  0  0  0  0  0  0  0  0
  188.6110  176.9950  146.4260 C   0  0  0  0  0  3  0  0  0  0  0  0
  187.8460  177.7340  144.1750 C   0  0  0  0  0  0  0  0  0  0  0  0
  188.8630  177.3750  144.9840 C   0  0  0  0  0  0  0  0  0  0  0  0
  190.4360  177.5460  143.0250 N   0  0  0  0  0  0  0  0  0  0  0  0
  183.3940  178.3850  141.9440 C   0  0  1  0  0  3  0  0  0  0  0  0
  185.4780  178.5650  143.8550 C   0  0  2  0  0  3  0  0  0  0  0  0
  184.6570  178.8940  141.5990 O   0  0  0  0  0  0  0  0  0  0  0  0
  183.0210  178.8530  143.3490 C   0  0  0  0  0  2  0  0  0  0  0  0
  191.2690  177.0100  145.2310 C   0  0  0  0  0  3  0  0  0  0  0  0
  190.2380  177.2930  144.4280 C   0  0  1  0  0  3  0  0  0  0  0  0
  186.9990  178.5590  141.8570 C   0  0  0  0  0  2  0  0  0  0  0  0
  189.3220  177.9500  142.2200 C   0  0  0  0  0  3  0  0  0  0  0  0
  182.3710  178.8450  140.9610 C   0  0  0  0  0  0  0  0  0  0  0  0
  182.6850  178.8400  139.5700 N   0  0  0  0  0  2  0  0  0  0  0  0
  181.2340  179.2220  141.3530 O   0  0  0  0  0  0  0  0  0  0  0  0
  181.7750  179.2460  138.6520 O   0  0  0  0  0  1  0  0  0  0  0  0
  191.7370  177.3850  142.3820 C   0  0  0  0  0  2  0  0  0  0  0  0
  188.4760  176.7260  138.3080 S   0  0  0  0  0  1  0  0  0  0  0  0
  190.2860  177.0740  140.3650 C   0  0  0  0  0  3  0  0  0  0  0  0
  192.6920  177.1080  140.0670 C   0  0  0  0  0  0  0  0  0  0  0  0
  192.5200  176.9100  138.6940 C   0  0  0  0  0  3  0  0  0  0  0  0
  191.2340  176.7940  138.1560 C   0  0  0  0  0  3  0  0  0  0  0  0
  190.1190  176.8760  138.9920 C   0  0  0  0  0  0  0  0  0  0  0  0
  193.9460  177.2260  140.5690 F   0  0  0  0  0  0  0  0  0  0  0  0
  191.5710  177.1900  140.9080 C   0  0  0  0  0  0  0  0  0  0  0  0
  1  7  1  1  0  0  0
  2  9  1  0  0  0  0
  4  3  1  0  0  0  0
  5 18  1  6  0  0  0
  5 13  1  0  0  0  0
  8  3  2  0  0  0  0
  9  6  1  0  0  0  0
  9 10  2  0  0  0  0
 10  8  1  0  0  0  0
 11 17  1  0  0  0  0
 12 20  1  6  0  0  0
 12 15  1  0  0  0  0
 13  1  1  0  0  0  0
 13  6  1  1  0  0  0
 14 12  1  0  0  0  0
 14  5  1  0  0  0  0
 15  1  1  0  0  0  0
 16  4  2  0  0  0  0
 17 10  1  0  0  0  0
 17 16  1  1  0  0  0
 18  2  1  0  0  0  0
 19  2  2  0  0  0  0
 19 11  1  0  0  0  0
 20 22  2  0  0  0  0
 21 20  1  0  0  0  0
 23 21  1  0  0  0  0
 24 11  1  0  0  0  0
 25 30  1  0  0  0  0
 26 32  1  0  0  0  0
 27 31  1  0  0  0  0
 27 32  2  0  0  0  0
 28 27  1  0  0  0  0
 29 28  2  0  0  0  0
 29 30  1  0  0  0  0
 30 26  2  0  0  0  0
 32 24  1  0  0  0  0
M  END
>  <MODEL>
9

>  <REMARK>
 VINA RESULT:      -9.2      2.398      3.254
  Name = 
  3 active torsions:
  status: ('A' for Active; 'I' for Inactive)
    1  A    between atoms: C_1  and  C_19
    2  A    between atoms: N_16  and  C_27
    3  A    between atoms: C_27  and  C_32
                            x       y       z     vdW  Elec       q    Type
                         _______ _______ _______ _____ _____    ______ ____

>  <TORSDO>
F 3

$$$$
