=
 OpenBabel11052415253D

 37 42  0  0  1  0  0  0  0  0999 V2000
  189.8460  176.3480  139.1410 C   0  0  1  0  0  3  0  0  0  0  0  0
  187.8710  179.0210  138.0460 O   0  0  0  0  0  1  0  0  0  0  0  0
  189.2380  177.3290  141.0780 C   0  0  1  0  0  3  0  0  0  0  0  0
  188.5300  178.4620  140.2880 C   0  0  1  0  0  3  0  0  0  0  0  0
  188.3060  177.9680  138.8530 C   0  0  2  0  0  3  0  0  0  0  0  0
  190.3450  176.8390  140.3600 O   0  0  0  0  0  0  0  0  0  0  0  0
  189.4920  177.4340  138.3170 O   0  0  0  0  0  0  0  0  0  0  0  0
  189.0220  176.7530  146.6920 C   0  0  0  0  0  2  0  0  0  0  0  0
  189.6680  177.6790  142.4510 N   0  0  1  0  0  0  0  0  0  0  0  0
  190.3550  176.5730  144.5260 C   0  0  1  0  0  3  0  0  0  0  0  0
  189.2720  176.6730  143.4390 C   0  0  1  0  0  3  0  0  0  0  0  0
  191.6210  177.1010  143.8450 C   0  0  2  0  0  3  0  0  0  0  0  0
  187.7870  176.7080  143.8110 C   0  0  0  0  0  2  0  0  0  0  0  0
  186.8840  177.5020  145.8480 O   0  0  0  0  0  0  0  0  0  0  0  0
  192.0550  177.7500  141.3600 C   0  0  0  0  0  1  0  0  0  0  0  0
  191.6110  178.6300  143.7040 C   0  0  0  0  0  2  0  0  0  0  0  0
  187.3900  177.9340  144.6160 C   0  0  0  0  0  2  0  0  0  0  0  0
  191.1300  177.7620  142.5730 C   0  0  1  0  0  0  0  0  0  0  0  0
  190.1030  177.3610  145.8180 C   0  0  0  0  0  2  0  0  0  0  0  0
  187.8800  177.7580  146.8020 C   0  0  0  0  0  2  0  0  0  0  0  0
  190.9090  175.5020  138.4520 C   0  0  1  0  0  3  0  0  0  0  0  0
  190.3270  174.3440  137.9300 O   0  0  0  0  0  0  0  0  0  0  0  0
  188.4960  174.1990  136.4210 C   0  0  0  0  0  1  0  0  0  0  0  0
  189.9080  174.7010  136.6470 C   0  0  0  0  0  2  0  0  0  0  0  0
  191.4950  176.2330  137.4140 O   0  0  0  0  0  0  0  0  0  0  0  0
  193.6240  175.1900  137.5070 C   0  0  0  0  0  2  0  0  0  0  0  0
  192.8170  176.4330  137.8160 C   0  0  0  0  0  3  0  0  0  0  0  0
  193.7180  176.3960  136.5990 C   0  0  0  0  0  2  0  0  0  0  0  0
  187.1990  178.8220  140.9270 C   0  0  0  0  0  2  0  0  0  0  0  0
  186.0610  178.2270  140.1200 C   0  0  0  0  0  2  0  0  0  0  0  0
  183.5700  178.4330  140.1460 C   0  0  0  0  0  3  0  0  0  0  0  0
  184.7790  178.4040  140.8520 C   0  0  0  0  0  0  0  0  0  0  0  0
  184.7800  178.5780  142.2400 C   0  0  0  0  0  3  0  0  0  0  0  0
  183.5780  178.9880  144.6940 S   0  0  0  0  0  1  0  0  0  0  0  0
  182.3680  178.7920  142.2170 C   0  0  0  0  0  3  0  0  0  0  0  0
  183.5750  178.7690  142.9220 C   0  0  0  0  0  0  0  0  0  0  0  0
  182.3660  178.6240  140.8290 C   0  0  0  0  0  3  0  0  0  0  0  0
  1 21  1  6  0  0  0
  1  6  1  0  0  0  0
  3  6  1  6  0  0  0
  4 29  1  1  0  0  0
  4  3  1  0  0  0  0
  5  2  1  6  0  0  0
  5  4  1  0  0  0  0
  7  5  1  0  0  0  0
  7  1  1  0  0  0  0
  8 20  1  0  0  0  0
  9  3  1  6  0  0  0
  9 18  1  0  0  0  0
  9 11  1  0  0  0  0
 10 19  1  1  0  0  0
 11 13  1  1  0  0  0
 11 10  1  0  0  0  0
 12 16  1  1  0  0  0
 12 10  1  0  0  0  0
 13 17  1  0  0  0  0
 14 20  1  0  0  0  0
 17 14  1  0  0  0  0
 18 15  1  6  0  0  0
 18 16  1  0  0  0  0
 18 12  1  0  0  0  0
 19  8  1  0  0  0  0
 21 25  1  6  0  0  0
 22 21  1  0  0  0  0
 23 24  1  0  0  0  0
 24 22  1  0  0  0  0
 25 27  1  0  0  0  0
 26 27  1  0  0  0  0
 28 26  1  0  0  0  0
 28 27  1  0  0  0  0
 30 32  1  0  0  0  0
 30 29  1  0  0  0  0
 31 37  2  0  0  0  0
 31 32  1  0  0  0  0
 32 33  2  0  0  0  0
 33 36  1  0  0  0  0
 35 36  2  0  0  0  0
 36 34  1  0  0  0  0
 37 35  1  0  0  0  0
M  END
>  <MODEL>
1

>  <REMARK>
 VINA RESULT:      -8.3      0.000      0.000
  Name = 
  9 active torsions:
  status: ('A' for Active; 'I' for Inactive)
    1  A    between atoms: C_1  and  C_33
    2  A    between atoms: N_4  and  C_10
    3  A    between atoms: O_5  and  C_23
    4  A    between atoms: O_5  and  C_33
    5  A    between atoms: C_6  and  C_31
    6  A    between atoms: C_14  and  C_37
    7  A    between atoms: O_17  and  C_26
    8  A    between atoms: O_17  and  C_33
    9  A    between atoms: C_31  and  C_37
                            x       y       z     vdW  Elec       q    Type
                         _______ _______ _______ _____ _____    ______ ____

>  <TORSDO>
F 9

$$$$
=
 OpenBabel11052415253D

 37 42  0  0  1  0  0  0  0  0999 V2000
  189.1290  177.0200  139.3600 C   0  0  1  0  0  3  0  0  0  0  0  0
  186.1890  178.9130  139.2470 O   0  0  0  0  0  1  0  0  0  0  0  0
  188.7550  177.4690  141.5380 C   0  0  1  0  0  3  0  0  0  0  0  0
  187.5430  178.3580  141.1520 C   0  0  1  0  0  3  0  0  0  0  0  0
  187.1300  177.9960  139.7200 C   0  0  2  0  0  3  0  0  0  0  0  0
  189.7380  177.5030  140.5310 O   0  0  0  0  0  0  0  0  0  0  0  0
  188.2460  177.9970  138.8620 O   0  0  0  0  0  0  0  0  0  0  0  0
  189.3330  176.7720  147.1130 C   0  0  0  0  0  2  0  0  0  0  0  0
  189.3870  177.7780  142.8410 N   0  0  1  0  0  0  0  0  0  0  0  0
  190.3370  176.6120  144.7740 C   0  0  1  0  0  3  0  0  0  0  0  0
  189.1120  176.7590  143.8560 C   0  0  1  0  0  3  0  0  0  0  0  0
  191.5040  177.1260  143.9290 C   0  0  2  0  0  3  0  0  0  0  0  0
  187.6970  176.8180  144.4400 C   0  0  0  0  0  2  0  0  0  0  0  0
  187.1160  177.5850  146.6000 O   0  0  0  0  0  0  0  0  0  0  0  0
  191.5930  177.8210  141.4190 C   0  0  0  0  0  1  0  0  0  0  0  0
  191.5120  178.6590  143.8190 C   0  0  0  0  0  2  0  0  0  0  0  0
  187.4490  178.0340  145.3160 C   0  0  0  0  0  2  0  0  0  0  0  0
  190.8530  177.8270  142.7530 C   0  0  1  0  0  0  0  0  0  0  0  0
  190.2920  177.3760  146.1030 C   0  0  0  0  0  2  0  0  0  0  0  0
  188.2440  177.7990  147.4050 C   0  0  0  0  0  2  0  0  0  0  0  0
  190.1930  176.7060  138.3170 C   0  0  1  0  0  3  0  0  0  0  0  0
  190.9160  175.5740  138.7030 O   0  0  0  0  0  0  0  0  0  0  0  0
  192.7170  174.6240  137.4790 C   0  0  0  0  0  1  0  0  0  0  0  0
  192.2200  175.8160  138.2690 C   0  0  0  0  0  2  0  0  0  0  0  0
  189.5860  176.4670  137.0800 O   0  0  0  0  0  0  0  0  0  0  0  0
  187.6450  175.1880  136.6020 C   0  0  0  0  0  2  0  0  0  0  0  0
  189.0420  175.1850  137.1870 C   0  0  0  0  0  3  0  0  0  0  0  0
  188.7990  174.6300  135.7990 C   0  0  0  0  0  2  0  0  0  0  0  0
  186.3780  178.1310  142.1010 C   0  0  0  0  0  2  0  0  0  0  0  0
  185.7030  179.4520  142.4150 C   0  0  0  0  0  2  0  0  0  0  0  0
  184.0520  179.1950  144.2750 C   0  0  0  0  0  3  0  0  0  0  0  0
  184.3190  179.2080  142.9000 C   0  0  0  0  0  0  0  0  0  0  0  0
  183.2890  178.9540  141.9870 C   0  0  0  0  0  3  0  0  0  0  0  0
  180.6800  178.3770  141.2820 S   0  0  0  0  0  1  0  0  0  0  0  0
  181.7270  178.6920  143.8200 C   0  0  0  0  0  3  0  0  0  0  0  0
  181.9940  178.6990  142.4480 C   0  0  0  0  0  0  0  0  0  0  0  0
  182.7570  178.9400  144.7340 C   0  0  0  0  0  3  0  0  0  0  0  0
  1 21  1  6  0  0  0
  1  6  1  0  0  0  0
  3  6  1  6  0  0  0
  4  3  1  0  0  0  0
  4 29  1  1  0  0  0
  5  2  1  6  0  0  0
  5  4  1  0  0  0  0
  7  1  1  0  0  0  0
  7  5  1  0  0  0  0
  8 20  1  0  0  0  0
  9  3  1  6  0  0  0
  9 11  1  0  0  0  0
 10 19  1  1  0  0  0
 11 13  1  1  0  0  0
 11 10  1  0  0  0  0
 12 16  1  1  0  0  0
 12 10  1  0  0  0  0
 13 17  1  0  0  0  0
 14 20  1  0  0  0  0
 17 14  1  0  0  0  0
 18 15  1  6  0  0  0
 18  9  1  0  0  0  0
 18 16  1  0  0  0  0
 18 12  1  0  0  0  0
 19  8  1  0  0  0  0
 21 25  1  6  0  0  0
 21 22  1  0  0  0  0
 23 24  1  0  0  0  0
 24 22  1  0  0  0  0
 25 27  1  0  0  0  0
 26 27  1  0  0  0  0
 28 26  1  0  0  0  0
 28 27  1  0  0  0  0
 29 30  1  0  0  0  0
 30 32  1  0  0  0  0
 31 37  1  0  0  0  0
 32 31  2  0  0  0  0
 33 36  2  0  0  0  0
 33 32  1  0  0  0  0
 34 36  1  0  0  0  0
 35 37  2  0  0  0  0
 36 35  1  0  0  0  0
M  END
>  <MODEL>
2

>  <REMARK>
 VINA RESULT:      -8.3      1.303      2.380
  Name = 
  9 active torsions:
  status: ('A' for Active; 'I' for Inactive)
    1  A    between atoms: C_1  and  C_33
    2  A    between atoms: N_4  and  C_10
    3  A    between atoms: O_5  and  C_23
    4  A    between atoms: O_5  and  C_33
    5  A    between atoms: C_6  and  C_31
    6  A    between atoms: C_14  and  C_37
    7  A    between atoms: O_17  and  C_26
    8  A    between atoms: O_17  and  C_33
    9  A    between atoms: C_31  and  C_37
                            x       y       z     vdW  Elec       q    Type
                         _______ _______ _______ _____ _____    ______ ____

>  <TORSDO>
F 9

$$$$
=
 OpenBabel11052415253D

 37 42  0  0  1  0  0  0  0  0999 V2000
  189.6410  176.4520  139.3650 C   0  0  1  0  0  3  0  0  0  0  0  0
  187.6470  179.1410  138.3520 O   0  0  0  0  0  1  0  0  0  0  0  0
  189.0990  177.4220  141.3270 C   0  0  1  0  0  3  0  0  0  0  0  0
  188.3720  178.5640  140.5680 C   0  0  1  0  0  3  0  0  0  0  0  0
  188.1010  178.0810  139.1380 C   0  0  2  0  0  3  0  0  0  0  0  0
  190.1810  176.9310  140.5720 O   0  0  0  0  0  0  0  0  0  0  0  0
  189.2670  177.5450  138.5610 O   0  0  0  0  0  0  0  0  0  0  0  0
  189.0600  176.8020  146.9410 C   0  0  0  0  0  2  0  0  0  0  0  0
  189.5740  177.7590  142.6880 N   0  0  1  0  0  0  0  0  0  0  0  0
  190.3230  176.6360  144.7320 C   0  0  1  0  0  3  0  0  0  0  0  0
  189.2060  176.7470  143.6810 C   0  0  1  0  0  3  0  0  0  0  0  0
  191.5680  177.1640  144.0160 C   0  0  2  0  0  3  0  0  0  0  0  0
  187.7340  176.7830  144.1010 C   0  0  0  0  0  2  0  0  0  0  0  0
  186.8990  177.5630  146.1710 O   0  0  0  0  0  0  0  0  0  0  0  0
  191.9240  177.8320  141.5230 C   0  0  0  0  0  1  0  0  0  0  0  0
  191.5580  178.6950  143.8860 C   0  0  0  0  0  2  0  0  0  0  0  0
  187.3660  178.0040  144.9270 C   0  0  0  0  0  2  0  0  0  0  0  0
  191.0390  177.8380  142.7650 C   0  0  1  0  0  0  0  0  0  0  0  0
  190.1140  177.4140  146.0370 C   0  0  0  0  0  2  0  0  0  0  0  0
  187.9240  177.8090  147.0950 C   0  0  0  0  0  2  0  0  0  0  0  0
  190.6770  175.6060  138.6370 C   0  0  1  0  0  3  0  0  0  0  0  0
  190.0450  174.5540  137.9680 O   0  0  0  0  0  0  0  0  0  0  0  0
  188.3130  174.5910  136.3420 C   0  0  0  0  0  1  0  0  0  0  0  0
  189.6930  175.0820  136.7250 C   0  0  0  0  0  2  0  0  0  0  0  0
  191.3660  176.3950  137.7110 O   0  0  0  0  0  0  0  0  0  0  0  0
  193.3560  175.1050  137.6500 C   0  0  0  0  0  2  0  0  0  0  0  0
  192.6950  176.3760  138.1400 C   0  0  0  0  0  3  0  0  0  0  0  0
  193.6080  176.4110  136.9310 C   0  0  0  0  0  2  0  0  0  0  0  0
  187.0640  178.9250  141.2510 C   0  0  0  0  0  2  0  0  0  0  0  0
  185.9510  178.0300  140.7410 C   0  0  0  0  0  2  0  0  0  0  0  0
  184.7100  178.6460  142.8220 C   0  0  0  0  0  3  0  0  0  0  0  0
  184.6850  178.3450  141.4550 C   0  0  0  0  0  0  0  0  0  0  0  0
  183.4640  178.3040  140.7720 C   0  0  0  0  0  3  0  0  0  0  0  0
  180.7160  178.5250  140.5800 S   0  0  0  0  0  1  0  0  0  0  0  0
  182.3000  178.8810  142.8160 C   0  0  0  0  0  3  0  0  0  0  0  0
  182.2730  178.5750  141.4520 C   0  0  0  0  0  0  0  0  0  0  0  0
  183.5190  178.9170  143.5010 C   0  0  0  0  0  3  0  0  0  0  0  0
  1 21  1  6  0  0  0
  1  6  1  0  0  0  0
  3  6  1  6  0  0  0
  4 29  1  1  0  0  0
  4  3  1  0  0  0  0
  5  2  1  6  0  0  0
  5  4  1  0  0  0  0
  7  5  1  0  0  0  0
  7  1  1  0  0  0  0
  8 20  1  0  0  0  0
  9  3  1  6  0  0  0
  9 18  1  0  0  0  0
  9 11  1  0  0  0  0
 10 19  1  1  0  0  0
 11 13  1  1  0  0  0
 11 10  1  0  0  0  0
 12 16  1  1  0  0  0
 12 10  1  0  0  0  0
 13 17  1  0  0  0  0
 14 20  1  0  0  0  0
 17 14  1  0  0  0  0
 18 15  1  6  0  0  0
 18 16  1  0  0  0  0
 18 12  1  0  0  0  0
 19  8  1  0  0  0  0
 21 25  1  6  0  0  0
 22 21  1  0  0  0  0
 23 24  1  0  0  0  0
 24 22  1  0  0  0  0
 25 27  1  0  0  0  0
 26 27  1  0  0  0  0
 28 26  1  0  0  0  0
 28 27  1  0  0  0  0
 30 29  1  0  0  0  0
 30 32  1  0  0  0  0
 31 37  1  0  0  0  0
 32 31  2  0  0  0  0
 33 36  2  0  0  0  0
 33 32  1  0  0  0  0
 34 36  1  0  0  0  0
 35 37  2  0  0  0  0
 36 35  1  0  0  0  0
M  END
>  <MODEL>
3

>  <REMARK>
 VINA RESULT:      -8.0      0.915      1.212
  Name = 
  9 active torsions:
  status: ('A' for Active; 'I' for Inactive)
    1  A    between atoms: C_1  and  C_33
    2  A    between atoms: N_4  and  C_10
    3  A    between atoms: O_5  and  C_23
    4  A    between atoms: O_5  and  C_33
    5  A    between atoms: C_6  and  C_31
    6  A    between atoms: C_14  and  C_37
    7  A    between atoms: O_17  and  C_26
    8  A    between atoms: O_17  and  C_33
    9  A    between atoms: C_31  and  C_37
                            x       y       z     vdW  Elec       q    Type
                         _______ _______ _______ _____ _____    ______ ____

>  <TORSDO>
F 9

$$$$
=
 OpenBabel11052415253D

 37 42  0  0  1  0  0  0  0  0999 V2000
  185.1630  178.4690  140.9220 C   0  0  1  0  0  3  0  0  0  0  0  0
  186.5110  178.7300  137.7040 O   0  0  0  0  0  1  0  0  0  0  0  0
  183.3550  178.1590  139.6100 C   0  0  1  0  0  3  0  0  0  0  0  0
  184.2150  178.4400  138.3490 C   0  0  1  0  0  3  0  0  0  0  0  0
  185.6900  178.2790  138.7390 C   0  0  2  0  0  3  0  0  0  0  0  0
  183.8370  178.8880  140.7140 O   0  0  0  0  0  0  0  0  0  0  0  0
  185.9800  179.0060  139.9090 O   0  0  0  0  0  0  0  0  0  0  0  0
  178.9310  180.7000  137.1860 C   0  0  0  0  0  2  0  0  0  0  0  0
  181.9030  178.4090  139.4630 N   0  0  1  0  0  0  0  0  0  0  0  0
  180.2070  178.5530  137.7020 C   0  0  1  0  0  3  0  0  0  0  0  0
  181.5700  179.0650  138.1970 C   0  0  1  0  0  3  0  0  0  0  0  0
  180.0450  177.1930  138.3850 C   0  0  2  0  0  3  0  0  0  0  0  0
  181.9100  180.5580  138.1540 C   0  0  0  0  0  2  0  0  0  0  0  0
  180.3580  182.3390  138.2450 O   0  0  0  0  0  0  0  0  0  0  0  0
  181.7280  175.8140  139.8180 C   0  0  0  0  0  1  0  0  0  0  0  0
  179.6860  177.3280  139.8720 C   0  0  0  0  0  2  0  0  0  0  0  0
  181.0270  181.4100  139.0500 C   0  0  0  0  0  2  0  0  0  0  0  0
  181.1210  177.1640  139.4520 C   0  0  1  0  0  0  0  0  0  0  0  0
  178.9900  179.4320  138.0170 C   0  0  0  0  0  2  0  0  0  0  0  0
  179.0340  181.8920  138.1320 C   0  0  0  0  0  2  0  0  0  0  0  0
  185.6470  178.9470  142.2840 C   0  0  1  0  0  3  0  0  0  0  0  0
  184.6080  179.5990  142.9540 O   0  0  0  0  0  0  0  0  0  0  0  0
  183.0240  178.9350  144.5970 C   0  0  0  0  0  1  0  0  0  0  0  0
  184.4740  178.9110  144.1610 C   0  0  0  0  0  2  0  0  0  0  0  0
  186.0740  177.8540  143.0450 O   0  0  0  0  0  0  0  0  0  0  0  0
  188.1060  177.5700  144.2350 C   0  0  0  0  0  2  0  0  0  0  0  0
  187.4610  177.8270  142.8900 C   0  0  0  0  0  3  0  0  0  0  0  0
  187.9740  176.4440  143.2350 C   0  0  0  0  0  2  0  0  0  0  0  0
  183.8670  177.4770  137.2270 C   0  0  0  0  0  2  0  0  0  0  0  0
  184.4030  176.0950  137.5480 C   0  0  0  0  0  2  0  0  0  0  0  0
  182.4110  175.4430  136.1850 C   0  0  0  0  0  3  0  0  0  0  0  0
  183.5660  175.0630  136.8790 C   0  0  0  0  0  0  0  0  0  0  0  0
  183.9100  173.7100  136.9740 C   0  0  0  0  0  3  0  0  0  0  0  0
  183.5480  171.0140  136.4850 S   0  0  0  0  0  1  0  0  0  0  0  0
  181.9570  173.1210  135.6690 C   0  0  0  0  0  3  0  0  0  0  0  0
  183.1070  172.7400  136.3670 C   0  0  0  0  0  0  0  0  0  0  0  0
  181.6080  174.4720  135.5780 C   0  0  0  0  0  3  0  0  0  0  0  0
  1 21  1  1  0  0  0
  3  6  1  1  0  0  0
  4 29  1  6  0  0  0
  4  5  1  0  0  0  0
  4  3  1  0  0  0  0
  5  2  1  6  0  0  0
  5  7  1  0  0  0  0
  6  1  1  0  0  0  0
  7  1  1  0  0  0  0
  8 19  1  0  0  0  0
  8 20  1  0  0  0  0
  9  3  1  6  0  0  0
 10 19  1  1  0  0  0
 10 11  1  0  0  0  0
 10 12  1  0  0  0  0
 11 13  1  1  0  0  0
 11  9  1  0  0  0  0
 12 18  1  0  0  0  0
 12 16  1  1  0  0  0
 13 17  1  0  0  0  0
 14 17  1  0  0  0  0
 18  9  1  0  0  0  0
 18 15  1  1  0  0  0
 18 16  1  0  0  0  0
 20 14  1  0  0  0  0
 21 22  1  1  0  0  0
 21 25  1  0  0  0  0
 22 24  1  0  0  0  0
 24 23  1  0  0  0  0
 27 25  1  0  0  0  0
 27 28  1  0  0  0  0
 27 26  1  0  0  0  0
 28 26  1  0  0  0  0
 29 30  1  0  0  0  0
 31 32  1  0  0  0  0
 32 33  2  0  0  0  0
 32 30  1  0  0  0  0
 35 36  2  0  0  0  0
 36 34  1  0  0  0  0
 36 33  1  0  0  0  0
 37 35  1  0  0  0  0
 37 31  2  0  0  0  0
M  END
>  <MODEL>
4

>  <REMARK>
 VINA RESULT:      -7.2      4.475      9.003
  Name = 
  9 active torsions:
  status: ('A' for Active; 'I' for Inactive)
    1  A    between atoms: C_1  and  C_33
    2  A    between atoms: N_4  and  C_10
    3  A    between atoms: O_5  and  C_23
    4  A    between atoms: O_5  and  C_33
    5  A    between atoms: C_6  and  C_31
    6  A    between atoms: C_14  and  C_37
    7  A    between atoms: O_17  and  C_26
    8  A    between atoms: O_17  and  C_33
    9  A    between atoms: C_31  and  C_37
                            x       y       z     vdW  Elec       q    Type
                         _______ _______ _______ _____ _____    ______ ____

>  <TORSDO>
F 9

$$$$
=
 OpenBabel11052415253D

 37 42  0  0  1  0  0  0  0  0999 V2000
  184.1130  178.8630  142.4800 C   0  0  1  0  0  3  0  0  0  0  0  0
  186.9730  179.0650  140.4750 O   0  0  0  0  0  1  0  0  0  0  0  0
  183.3150  178.3370  140.4380 C   0  0  1  0  0  3  0  0  0  0  0  0
  184.7070  178.6220  139.8140 C   0  0  1  0  0  3  0  0  0  0  0  0
  185.7430  178.6030  140.9450 C   0  0  2  0  0  3  0  0  0  0  0  0
  183.0930  179.1600  141.5580 O   0  0  0  0  0  0  0  0  0  0  0  0
  185.3250  179.4120  142.0190 O   0  0  0  0  0  0  0  0  0  0  0  0
  180.5530  180.8050  136.1740 C   0  0  0  0  0  2  0  0  0  0  0  0
  182.1630  178.4580  139.5150 N   0  0  1  0  0  0  0  0  0  0  0  0
  181.7140  178.7440  137.1240 C   0  0  1  0  0  3  0  0  0  0  0  0
  182.4600  179.2950  138.3500 C   0  0  1  0  0  3  0  0  0  0  0  0
  181.4640  177.2730  137.4660 C   0  0  2  0  0  3  0  0  0  0  0  0
  182.4810  180.7980  138.6450 C   0  0  0  0  0  2  0  0  0  0  0  0
  180.8310  182.3640  138.0000 O   0  0  0  0  0  0  0  0  0  0  0  0
  182.3120  175.8380  139.4680 C   0  0  0  0  0  1  0  0  0  0  0  0
  180.3320  177.0980  138.4900 C   0  0  0  0  0  2  0  0  0  0  0  0
  181.1120  181.3780  138.9540 C   0  0  0  0  0  2  0  0  0  0  0  0
  181.7640  177.1620  138.9470 C   0  0  1  0  0  0  0  0  0  0  0  0
  180.3840  179.4200  136.7700 C   0  0  0  0  0  2  0  0  0  0  0  0
  179.8950  181.8100  137.1150 C   0  0  0  0  0  2  0  0  0  0  0  0
  183.7650  179.4510  143.8410 C   0  0  1  0  0  3  0  0  0  0  0  0
  182.4040  179.7670  143.8860 O   0  0  0  0  0  0  0  0  0  0  0  0
  180.3190  178.6290  143.9530 C   0  0  0  0  0  1  0  0  0  0  0  0
  181.7820  178.6050  144.3440 C   0  0  0  0  0  2  0  0  0  0  0  0
  184.0570  178.5230  144.8450 O   0  0  0  0  0  0  0  0  0  0  0  0
  185.3330  178.4040  146.8420 C   0  0  0  0  0  2  0  0  0  0  0  0
  185.2130  179.0100  145.4600 C   0  0  0  0  0  3  0  0  0  0  0  0
  186.1680  177.8600  145.7050 C   0  0  0  0  0  2  0  0  0  0  0  0
  185.0600  177.5750  138.7700 C   0  0  0  0  0  2  0  0  0  0  0  0
  185.6610  178.2440  137.5500 C   0  0  0  0  0  2  0  0  0  0  0  0
  188.1030  178.6280  137.1740 C   0  0  0  0  0  3  0  0  0  0  0  0
  187.0380  177.7300  137.3200 C   0  0  0  0  0  0  0  0  0  0  0  0
  187.2650  176.3540  137.2130 C   0  0  0  0  0  3  0  0  0  0  0  0
  188.8470  174.1190  136.8380 S   0  0  0  0  0  1  0  0  0  0  0  0
  189.6200  176.7720  136.8310 C   0  0  0  0  0  3  0  0  0  0  0  0
  188.5560  175.8760  136.9720 C   0  0  0  0  0  0  0  0  0  0  0  0
  189.3930  178.1480  136.9320 C   0  0  0  0  0  3  0  0  0  0  0  0
  1 21  1  1  0  0  0
  3  6  1  1  0  0  0
  4 29  1  6  0  0  0
  4  3  1  0  0  0  0
  4  5  1  0  0  0  0
  5  2  1  6  0  0  0
  5  7  1  0  0  0  0
  6  1  1  0  0  0  0
  7  1  1  0  0  0  0
  8 19  1  0  0  0  0
  8 20  1  0  0  0  0
  9  3  1  1  0  0  0
 10 19  1  1  0  0  0
 10 12  1  0  0  0  0
 10 11  1  0  0  0  0
 11 13  1  1  0  0  0
 11  9  1  0  0  0  0
 12 16  1  1  0  0  0
 12 18  1  0  0  0  0
 13 17  1  0  0  0  0
 14 17  1  0  0  0  0
 16 18  1  0  0  0  0
 18 15  1  1  0  0  0
 18  9  1  0  0  0  0
 20 14  1  0  0  0  0
 21 22  1  6  0  0  0
 21 25  1  0  0  0  0
 22 24  1  0  0  0  0
 23 24  1  0  0  0  0
 25 27  1  0  0  0  0
 27 28  1  0  0  0  0
 27 26  1  0  0  0  0
 28 26  1  0  0  0  0
 30 29  1  0  0  0  0
 31 32  1  0  0  0  0
 32 30  1  0  0  0  0
 33 32  2  0  0  0  0
 34 36  1  0  0  0  0
 35 37  1  0  0  0  0
 35 36  2  0  0  0  0
 36 33  1  0  0  0  0
 37 31  2  0  0  0  0
M  END
>  <MODEL>
5

>  <REMARK>
 VINA RESULT:      -7.2      4.053      9.465
  Name = 
  9 active torsions:
  status: ('A' for Active; 'I' for Inactive)
    1  A    between atoms: C_1  and  C_33
    2  A    between atoms: N_4  and  C_10
    3  A    between atoms: O_5  and  C_23
    4  A    between atoms: O_5  and  C_33
    5  A    between atoms: C_6  and  C_31
    6  A    between atoms: C_14  and  C_37
    7  A    between atoms: O_17  and  C_26
    8  A    between atoms: O_17  and  C_33
    9  A    between atoms: C_31  and  C_37
                            x       y       z     vdW  Elec       q    Type
                         _______ _______ _______ _____ _____    ______ ____

>  <TORSDO>
F 9

$$$$
=
 OpenBabel11052415253D

 37 42  0  0  1  0  0  0  0  0999 V2000
  184.4340  177.1020  138.0090 C   0  0  1  0  0  3  0  0  0  0  0  0
  182.8490  179.6070  139.8670 O   0  0  0  0  0  1  0  0  0  0  0  0
  186.1220  177.9230  139.2580 C   0  0  1  0  0  3  0  0  0  0  0  0
  185.1770  179.0140  139.8280 C   0  0  1  0  0  3  0  0  0  0  0  0
  183.7330  178.5670  139.5710 C   0  0  2  0  0  3  0  0  0  0  0  0
  185.7540  177.5830  137.9430 O   0  0  0  0  0  0  0  0  0  0  0  0
  183.5600  178.1830  138.2280 O   0  0  0  0  0  0  0  0  0  0  0  0
  191.3990  177.1400  141.1150 C   0  0  0  0  0  2  0  0  0  0  0  0
  187.5670  178.2500  139.2860 N   0  0  1  0  0  0  0  0  0  0  0  0
  189.7350  177.1160  139.1820 C   0  0  1  0  0  3  0  0  0  0  0  0
  188.3730  177.1890  139.8910 C   0  0  1  0  0  3  0  0  0  0  0  0
  189.4780  177.7420  137.8090 C   0  0  2  0  0  3  0  0  0  0  0  0
  188.2790  177.1210  141.4190 C   0  0  0  0  0  2  0  0  0  0  0  0
  189.9580  177.7870  142.9440 O   0  0  0  0  0  0  0  0  0  0  0  0
  187.2510  178.5030  136.6920 C   0  0  0  0  0  1  0  0  0  0  0  0
  189.3630  179.2730  137.8800 C   0  0  0  0  0  2  0  0  0  0  0  0
  188.9440  178.2920  142.1220 C   0  0  0  0  0  2  0  0  0  0  0  0
  188.1270  178.4170  137.9370 C   0  0  1  0  0  0  0  0  0  0  0  0
  190.9020  177.8420  139.8650 C   0  0  0  0  0  2  0  0  0  0  0  0
  191.1730  178.0690  142.3020 C   0  0  0  0  0  2  0  0  0  0  0  0
  184.0750  176.4030  136.7050 C   0  0  1  0  0  3  0  0  0  0  0  0
  184.3860  177.2300  135.6220 O   0  0  0  0  0  0  0  0  0  0  0  0
  182.0810  177.3230  135.0490 C   0  0  0  0  0  1  0  0  0  0  0  0
  183.4680  176.8810  134.6300 C   0  0  0  0  0  2  0  0  0  0  0  0
  184.7940  175.2080  136.5950 O   0  0  0  0  0  0  0  0  0  0  0  0
  183.8890  173.0150  136.5850 C   0  0  0  0  0  2  0  0  0  0  0  0
  184.0880  174.2910  137.3760 C   0  0  0  0  0  3  0  0  0  0  0  0
  184.9670  173.0850  137.6430 C   0  0  0  0  0  2  0  0  0  0  0  0
  185.4030  179.2050  141.3190 C   0  0  0  0  0  2  0  0  0  0  0  0
  184.6890  178.1150  142.0930 C   0  0  0  0  0  2  0  0  0  0  0  0
  184.0120  178.8310  144.3910 C   0  0  0  0  0  3  0  0  0  0  0  0
  184.9720  178.2610  143.5460 C   0  0  0  0  0  0  0  0  0  0  0  0
  186.2100  177.8640  144.0640 C   0  0  0  0  0  3  0  0  0  0  0  0
  188.0610  177.5180  146.0860 S   0  0  0  0  0  1  0  0  0  0  0  0
  185.5210  178.5910  146.2690 C   0  0  0  0  0  3  0  0  0  0  0  0
  186.4820  178.0270  145.4250 C   0  0  0  0  0  0  0  0  0  0  0  0
  184.2860  178.9940  145.7520 C   0  0  0  0  0  3  0  0  0  0  0  0
  1 21  1  6  0  0  0
  1  7  1  0  0  0  0
  3  6  1  6  0  0  0
  3  4  1  0  0  0  0
  4 29  1  1  0  0  0
  5  4  1  0  0  0  0
  5  2  1  6  0  0  0
  6  1  1  0  0  0  0
  7  5  1  0  0  0  0
  8 20  1  0  0  0  0
  9  3  1  6  0  0  0
  9 11  1  0  0  0  0
 10 19  1  1  0  0  0
 10 11  1  0  0  0  0
 11 13  1  1  0  0  0
 12 16  1  1  0  0  0
 12 18  1  0  0  0  0
 12 10  1  0  0  0  0
 13 17  1  0  0  0  0
 16 18  1  0  0  0  0
 17 14  1  0  0  0  0
 18 15  1  6  0  0  0
 18  9  1  0  0  0  0
 19  8  1  0  0  0  0
 20 14  1  0  0  0  0
 21 22  1  6  0  0  0
 24 23  1  0  0  0  0
 24 22  1  0  0  0  0
 25 21  1  0  0  0  0
 25 27  1  0  0  0  0
 26 27  1  0  0  0  0
 26 28  1  0  0  0  0
 27 28  1  0  0  0  0
 29 30  1  0  0  0  0
 30 32  1  0  0  0  0
 31 37  1  0  0  0  0
 32 33  1  0  0  0  0
 32 31  2  0  0  0  0
 33 36  2  0  0  0  0
 36 34  1  0  0  0  0
 36 35  1  0  0  0  0
 37 35  2  0  0  0  0
M  END
>  <MODEL>
6

>  <REMARK>
 VINA RESULT:      -7.1      3.044      5.638
  Name = 
  9 active torsions:
  status: ('A' for Active; 'I' for Inactive)
    1  A    between atoms: C_1  and  C_33
    2  A    between atoms: N_4  and  C_10
    3  A    between atoms: O_5  and  C_23
    4  A    between atoms: O_5  and  C_33
    5  A    between atoms: C_6  and  C_31
    6  A    between atoms: C_14  and  C_37
    7  A    between atoms: O_17  and  C_26
    8  A    between atoms: O_17  and  C_33
    9  A    between atoms: C_31  and  C_37
                            x       y       z     vdW  Elec       q    Type
                         _______ _______ _______ _____ _____    ______ ____

>  <TORSDO>
F 9

$$$$
=
 OpenBabel11052415253D

 37 42  0  0  1  0  0  0  0  0999 V2000
  184.6230  178.4980  139.8390 C   0  0  1  0  0  3  0  0  0  0  0  0
  185.3890  179.8530  142.9720 O   0  0  0  0  0  1  0  0  0  0  0  0
  186.8570  178.2210  139.9550 C   0  0  1  0  0  3  0  0  0  0  0  0
  186.8870  178.9830  141.3070 C   0  0  1  0  0  3  0  0  0  0  0  0
  185.4600  178.9980  141.8700 C   0  0  2  0  0  3  0  0  0  0  0  0
  185.8210  178.7050  139.1340 O   0  0  0  0  0  0  0  0  0  0  0  0
  184.5420  179.4270  140.8930 O   0  0  0  0  0  0  0  0  0  0  0  0
  192.0280  176.2580  138.8110 C   0  0  0  0  0  2  0  0  0  0  0  0
  188.1240  178.2280  139.1890 N   0  0  1  0  0  0  0  0  0  0  0  0
  189.6260  176.6580  138.0570 C   0  0  1  0  0  3  0  0  0  0  0  0
  188.8980  176.9980  139.3680 C   0  0  1  0  0  3  0  0  0  0  0  0
  188.8070  177.3710  136.9780 C   0  0  2  0  0  3  0  0  0  0  0  0
  189.6220  176.9010  140.7150 C   0  0  0  0  0  2  0  0  0  0  0  0
  191.9490  177.1380  141.0610 O   0  0  0  0  0  0  0  0  0  0  0  0
  186.5330  178.6310  137.1410 C   0  0  0  0  0  1  0  0  0  0  0  0
  189.0560  178.8870  136.9650 C   0  0  0  0  0  2  0  0  0  0  0  0
  190.7770  177.8770  140.8570 C   0  0  0  0  0  2  0  0  0  0  0  0
  187.9000  178.3170  137.7390 C   0  0  1  0  0  0  0  0  0  0  0  0
  191.0930  177.0930  137.9560 C   0  0  0  0  0  2  0  0  0  0  0  0
  192.6610  177.1740  139.8540 C   0  0  0  0  0  2  0  0  0  0  0  0
  183.4360  178.6770  138.9010 C   0  0  1  0  0  3  0  0  0  0  0  0
  182.9270  177.4270  138.5370 O   0  0  0  0  0  0  0  0  0  0  0  0
  181.8270  175.5350  139.4630 C   0  0  0  0  0  1  0  0  0  0  0  0
  182.5870  176.8150  139.7440 C   0  0  0  0  0  2  0  0  0  0  0  0
  182.4350  179.4150  139.5410 O   0  0  0  0  0  0  0  0  0  0  0  0
  180.9140  180.2050  137.9000 C   0  0  0  0  0  2  0  0  0  0  0  0
  182.1770  180.4880  138.6860 C   0  0  0  0  0  3  0  0  0  0  0  0
  180.8700  181.1410  139.0880 C   0  0  0  0  0  2  0  0  0  0  0  0
  187.8250  178.3060  142.2920 C   0  0  0  0  0  2  0  0  0  0  0  0
  187.0370  177.3990  143.2170 C   0  0  0  0  0  2  0  0  0  0  0  0
  186.8530  177.8100  145.6760 C   0  0  0  0  0  3  0  0  0  0  0  0
  187.6350  177.4280  144.5790 C   0  0  0  0  0  0  0  0  0  0  0  0
  188.9850  177.1090  144.7610 C   0  0  0  0  0  3  0  0  0  0  0  0
  191.2720  176.7520  146.2710 S   0  0  0  0  0  1  0  0  0  0  0  0
  188.7670  177.5380  147.1350 C   0  0  0  0  0  3  0  0  0  0  0  0
  189.5490  177.1620  146.0390 C   0  0  0  0  0  0  0  0  0  0  0  0
  187.4190  177.8630  146.9540 C   0  0  0  0  0  3  0  0  0  0  0  0
  1 21  1  6  0  0  0
  1  7  1  0  0  0  0
  3  6  1  6  0  0  0
  3  4  1  0  0  0  0
  4  5  1  0  0  0  0
  4 29  1  1  0  0  0
  5  2  1  1  0  0  0
  6  1  1  0  0  0  0
  7  5  1  0  0  0  0
  8 20  1  0  0  0  0
  9 11  1  0  0  0  0
  9  3  1  1  0  0  0
 10 19  1  1  0  0  0
 10 11  1  0  0  0  0
 11 13  1  1  0  0  0
 12 16  1  6  0  0  0
 12 18  1  0  0  0  0
 12 10  1  0  0  0  0
 13 17  1  0  0  0  0
 16 18  1  0  0  0  0
 17 14  1  0  0  0  0
 18 15  1  6  0  0  0
 18  9  1  0  0  0  0
 19  8  1  0  0  0  0
 20 14  1  0  0  0  0
 21 22  1  1  0  0  0
 21 25  1  0  0  0  0
 22 24  1  0  0  0  0
 23 24  1  0  0  0  0
 26 27  1  0  0  0  0
 26 28  1  0  0  0  0
 27 28  1  0  0  0  0
 27 25  1  0  0  0  0
 29 30  1  0  0  0  0
 30 32  1  0  0  0  0
 31 37  1  0  0  0  0
 32 33  1  0  0  0  0
 32 31  2  0  0  0  0
 33 36  2  0  0  0  0
 36 34  1  0  0  0  0
 36 35  1  0  0  0  0
 37 35  2  0  0  0  0
M  END
>  <MODEL>
7

>  <REMARK>
 VINA RESULT:      -7.0      2.725      7.206
  Name = 
  9 active torsions:
  status: ('A' for Active; 'I' for Inactive)
    1  A    between atoms: C_1  and  C_33
    2  A    between atoms: N_4  and  C_10
    3  A    between atoms: O_5  and  C_23
    4  A    between atoms: O_5  and  C_33
    5  A    between atoms: C_6  and  C_31
    6  A    between atoms: C_14  and  C_37
    7  A    between atoms: O_17  and  C_26
    8  A    between atoms: O_17  and  C_33
    9  A    between atoms: C_31  and  C_37
                            x       y       z     vdW  Elec       q    Type
                         _______ _______ _______ _____ _____    ______ ____

>  <TORSDO>
F 9

$$$$
=
 OpenBabel11052415253D

 37 42  0  0  1  0  0  0  0  0999 V2000
  183.5740  178.6110  142.3270 C   0  0  1  0  0  3  0  0  0  0  0  0
  180.4300  180.1250  142.5680 O   0  0  0  0  0  1  0  0  0  0  0  0
  182.6090  178.0420  140.3710 C   0  0  1  0  0  3  0  0  0  0  0  0
  181.2850  178.7150  140.8220 C   0  0  1  0  0  3  0  0  0  0  0  0
  181.6100  179.6610  141.9850 C   0  0  2  0  0  3  0  0  0  0  0  0
  183.3060  177.5230  141.4780 O   0  0  0  0  0  0  0  0  0  0  0  0
  182.3810  179.0050  142.9620 O   0  0  0  0  0  0  0  0  0  0  0  0
  179.5520  174.4700  137.2400 C   0  0  0  0  0  2  0  0  0  0  0  0
  182.4710  176.9810  139.3460 N   0  0  1  0  0  0  0  0  0  0  0  0
  181.1280  176.4710  137.3630 C   0  0  1  0  0  3  0  0  0  0  0  0
  181.0990  176.8500  138.8530 C   0  0  1  0  0  3  0  0  0  0  0  0
  182.4970  176.9540  136.8780 C   0  0  2  0  0  3  0  0  0  0  0  0
  180.1470  176.1440  139.8230 C   0  0  0  0  0  2  0  0  0  0  0  0
  179.2970  173.9500  139.5870 O   0  0  0  0  0  0  0  0  0  0  0  0
  184.3140  178.3710  138.0950 C   0  0  0  0  0  1  0  0  0  0  0  0
  183.6370  176.0370  137.3460 C   0  0  0  0  0  2  0  0  0  0  0  0
  180.4340  174.6620  139.9890 C   0  0  0  0  0  2  0  0  0  0  0  0
  183.2720  177.2580  138.1450 C   0  0  1  0  0  0  0  0  0  0  0  0
  180.9650  174.9820  137.0320 C   0  0  0  0  0  2  0  0  0  0  0  0
  179.5900  173.4030  138.3300 C   0  0  0  0  0  2  0  0  0  0  0  0
  184.6060  178.2070  143.3720 C   0  0  1  0  0  3  0  0  0  0  0  0
  185.8100  177.8750  142.7450 O   0  0  0  0  0  0  0  0  0  0  0  0
  187.2430  178.6280  141.0050 C   0  0  0  0  0  1  0  0  0  0  0  0
  186.1230  178.9850  141.9600 C   0  0  0  0  0  2  0  0  0  0  0  0
  184.8230  179.2680  144.2570 O   0  0  0  0  0  0  0  0  0  0  0  0
  185.9960  178.0160  145.8960 C   0  0  0  0  0  2  0  0  0  0  0  0
  184.6990  178.7070  145.5290 C   0  0  0  0  0  3  0  0  0  0  0  0
  185.6800  179.3800  146.4670 C   0  0  0  0  0  2  0  0  0  0  0  0
  180.6550  179.4940  139.6800 C   0  0  0  0  0  2  0  0  0  0  0  0
  181.5810  180.6120  139.2430 C   0  0  0  0  0  2  0  0  0  0  0  0
  180.7990  180.2210  136.9010 C   0  0  0  0  0  3  0  0  0  0  0  0
  181.1630  181.1210  137.9100 C   0  0  0  0  0  0  0  0  0  0  0  0
  181.1690  182.4960  137.6490 C   0  0  0  0  0  3  0  0  0  0  0  0
  180.8050  184.7240  136.0560 S   0  0  0  0  0  1  0  0  0  0  0  0
  180.4300  182.0700  135.3820 C   0  0  0  0  0  3  0  0  0  0  0  0
  180.8000  182.9690  136.3870 C   0  0  0  0  0  0  0  0  0  0  0  0
  180.4300  180.6950  135.6390 C   0  0  0  0  0  3  0  0  0  0  0  0
  1  7  1  0  0  0  0
  1 21  1  1  0  0  0
  3  4  1  0  0  0  0
  3  6  1  1  0  0  0
  4 29  1  6  0  0  0
  4  5  1  0  0  0  0
  5  2  1  1  0  0  0
  5  7  1  0  0  0  0
  6  1  1  0  0  0  0
  8 20  1  0  0  0  0
  9  3  1  1  0  0  0
 10 19  1  1  0  0  0
 10 11  1  0  0  0  0
 11  9  1  0  0  0  0
 11 13  1  1  0  0  0
 12 16  1  1  0  0  0
 12 10  1  0  0  0  0
 12 18  1  0  0  0  0
 13 17  1  0  0  0  0
 14 17  1  0  0  0  0
 16 18  1  0  0  0  0
 18 15  1  1  0  0  0
 18  9  1  0  0  0  0
 19  8  1  0  0  0  0
 20 14  1  0  0  0  0
 21 22  1  6  0  0  0
 21 25  1  0  0  0  0
 23 24  1  0  0  0  0
 24 22  1  0  0  0  0
 25 27  1  0  0  0  0
 26 28  1  0  0  0  0
 27 26  1  0  0  0  0
 27 28  1  0  0  0  0
 30 29  1  0  0  0  0
 31 32  1  0  0  0  0
 32 30  1  0  0  0  0
 33 32  2  0  0  0  0
 34 36  1  0  0  0  0
 35 37  1  0  0  0  0
 35 36  2  0  0  0  0
 36 33  1  0  0  0  0
 37 31  2  0  0  0  0
M  END
>  <MODEL>
8

>  <REMARK>
 VINA RESULT:      -6.8      4.911      9.136
  Name = 
  9 active torsions:
  status: ('A' for Active; 'I' for Inactive)
    1  A    between atoms: C_1  and  C_33
    2  A    between atoms: N_4  and  C_10
    3  A    between atoms: O_5  and  C_23
    4  A    between atoms: O_5  and  C_33
    5  A    between atoms: C_6  and  C_31
    6  A    between atoms: C_14  and  C_37
    7  A    between atoms: O_17  and  C_26
    8  A    between atoms: O_17  and  C_33
    9  A    between atoms: C_31  and  C_37
                            x       y       z     vdW  Elec       q    Type
                         _______ _______ _______ _____ _____    ______ ____

>  <TORSDO>
F 9

$$$$
=
 OpenBabel11052415253D

 37 42  0  0  1  0  0  0  0  0999 V2000
  184.4840  178.4040  140.0560 C   0  0  1  0  0  3  0  0  0  0  0  0
  185.3040  179.8730  143.1230 O   0  0  0  0  0  1  0  0  0  0  0  0
  186.7290  178.2000  140.1080 C   0  0  1  0  0  3  0  0  0  0  0  0
  186.7760  179.0010  141.4370 C   0  0  1  0  0  3  0  0  0  0  0  0
  185.3680  178.9890  142.0450 C   0  0  2  0  0  3  0  0  0  0  0  0
  185.6540  178.6270  139.3070 O   0  0  0  0  0  0  0  0  0  0  0  0
  184.4070  179.3600  141.0860 O   0  0  0  0  0  0  0  0  0  0  0  0
  191.8750  176.2870  138.7790 C   0  0  0  0  0  2  0  0  0  0  0  0
  187.9710  178.2240  139.3020 N   0  0  1  0  0  0  0  0  0  0  0  0
  189.4460  176.6770  138.1060 C   0  0  1  0  0  3  0  0  0  0  0  0
  188.7590  176.9980  139.4440 C   0  0  1  0  0  3  0  0  0  0  0  0
  188.5890  177.3950  137.0610 C   0  0  2  0  0  3  0  0  0  0  0  0
  189.5260  176.8930  140.7650 C   0  0  0  0  0  2  0  0  0  0  0  0
  191.8620  177.1440  141.0400 O   0  0  0  0  0  0  0  0  0  0  0  0
  186.3120  178.6360  137.3110 C   0  0  0  0  0  1  0  0  0  0  0  0
  188.8260  178.9120  137.0560 C   0  0  0  0  0  2  0  0  0  0  0  0
  190.6790  177.8760  140.8810 C   0  0  0  0  0  2  0  0  0  0  0  0
  187.6990  178.3260  137.8610 C   0  0  1  0  0  0  0  0  0  0  0  0
  190.9070  177.1230  137.9630 C   0  0  0  0  0  2  0  0  0  0  0  0
  192.5340  177.1970  139.8110 C   0  0  0  0  0  2  0  0  0  0  0  0
  183.2640  178.5180  139.1520 C   0  0  1  0  0  3  0  0  0  0  0  0
  183.2380  179.7780  138.5480 O   0  0  0  0  0  0  0  0  0  0  0  0
  181.7760  181.6410  138.3440 C   0  0  0  0  0  1  0  0  0  0  0  0
  181.8910  180.1430  138.5400 C   0  0  0  0  0  2  0  0  0  0  0  0
  183.3160  177.5320  138.1620 O   0  0  0  0  0  0  0  0  0  0  0  0
  181.9700  175.5790  138.1070 C   0  0  0  0  0  2  0  0  0  0  0  0
  183.0630  176.3340  138.8330 C   0  0  0  0  0  3  0  0  0  0  0  0
  183.4150  175.1720  137.9270 C   0  0  0  0  0  2  0  0  0  0  0  0
  187.7660  178.3830  142.4100 C   0  0  0  0  0  2  0  0  0  0  0  0
  187.0540  177.3990  143.3170 C   0  0  0  0  0  2  0  0  0  0  0  0
  186.8920  177.8230  145.7750 C   0  0  0  0  0  3  0  0  0  0  0  0
  187.6630  177.4320  144.6740 C   0  0  0  0  0  0  0  0  0  0  0  0
  189.0130  177.1090  144.8460 C   0  0  0  0  0  3  0  0  0  0  0  0
  191.3120  176.7510  146.3370 S   0  0  0  0  0  1  0  0  0  0  0  0
  188.8180  177.5510  147.2190 C   0  0  0  0  0  3  0  0  0  0  0  0
  189.5890  177.1660  146.1180 C   0  0  0  0  0  0  0  0  0  0  0  0
  187.4690  177.8800  147.0470 C   0  0  0  0  0  3  0  0  0  0  0  0
  1 21  1  6  0  0  0
  1  7  1  0  0  0  0
  3  6  1  6  0  0  0
  3  4  1  0  0  0  0
  4  5  1  0  0  0  0
  4 29  1  1  0  0  0
  5  2  1  1  0  0  0
  6  1  1  0  0  0  0
  7  5  1  0  0  0  0
  8 20  1  0  0  0  0
  9 11  1  0  0  0  0
  9  3  1  1  0  0  0
 10 19  1  1  0  0  0
 10 11  1  0  0  0  0
 11 13  1  1  0  0  0
 12 16  1  6  0  0  0
 12 18  1  0  0  0  0
 12 10  1  0  0  0  0
 13 17  1  0  0  0  0
 16 18  1  0  0  0  0
 17 14  1  0  0  0  0
 18 15  1  6  0  0  0
 18  9  1  0  0  0  0
 19  8  1  0  0  0  0
 20 14  1  0  0  0  0
 21 25  1  6  0  0  0
 22 21  1  0  0  0  0
 23 24  1  0  0  0  0
 24 22  1  0  0  0  0
 25 27  1  0  0  0  0
 26 27  1  0  0  0  0
 28 26  1  0  0  0  0
 28 27  1  0  0  0  0
 29 30  1  0  0  0  0
 30 32  1  0  0  0  0
 31 37  1  0  0  0  0
 32 33  1  0  0  0  0
 32 31  2  0  0  0  0
 33 36  2  0  0  0  0
 36 34  1  0  0  0  0
 36 35  1  0  0  0  0
 37 35  2  0  0  0  0
M  END
>  <MODEL>
9

>  <REMARK>
 VINA RESULT:      -6.8      2.724      7.042
  Name = 
  9 active torsions:
  status: ('A' for Active; 'I' for Inactive)
    1  A    between atoms: C_1  and  C_33
    2  A    between atoms: N_4  and  C_10
    3  A    between atoms: O_5  and  C_23
    4  A    between atoms: O_5  and  C_33
    5  A    between atoms: C_6  and  C_31
    6  A    between atoms: C_14  and  C_37
    7  A    between atoms: O_17  and  C_26
    8  A    between atoms: O_17  and  C_33
    9  A    between atoms: C_31  and  C_37
                            x       y       z     vdW  Elec       q    Type
                         _______ _______ _______ _____ _____    ______ ____

>  <TORSDO>
F 9

$$$$
