=
 OpenBabel11052413513D

 27 29  0  0  0  0  0  0  0  0999 V2000
  189.1460  178.2490  140.3910 N   0  0  0  0  0  2  0  0  0  0  0  0
  187.9240  177.3060  142.1670 N   0  0  0  0  0  0  0  0  0  0  0  0
  189.0980  177.6460  141.6930 C   0  0  0  0  0  0  0  0  0  0  0  0
  191.5850  177.6150  141.4800 C   0  0  0  0  0  1  0  0  0  0  0  0
  191.6860  176.7760  145.0530 C   0  0  0  0  0  2  0  0  0  0  0  0
  190.4110  177.4370  142.4400 C   0  0  0  0  0  0  0  0  0  0  0  0
  190.4780  176.0010  143.0020 C   0  0  0  0  0  2  0  0  0  0  0  0
  191.6940  175.7780  143.9030 C   0  0  0  0  0  2  0  0  0  0  0  0
  191.7080  178.1950  144.5020 C   0  0  0  0  0  2  0  0  0  0  0  0
  190.4860  178.4300  143.6130 C   0  0  0  0  0  2  0  0  0  0  0  0
  187.6300  175.3950  143.5060 O   0  0  0  0  0  0  0  0  0  0  0  0
  187.5390  176.6470  143.3860 C   0  0  0  0  0  0  0  0  0  0  0  0
  185.8100  178.9670  146.5600 C   0  0  0  0  0  3  0  0  0  0  0  0
  187.6140  178.3260  148.1500 C   0  0  0  0  0  1  0  0  0  0  0  0
  187.5700  177.4880  145.7790 C   0  0  0  0  0  0  0  0  0  0  0  0
  188.7050  176.7920  146.0460 F   0  0  0  0  0  0  0  0  0  0  0  0
  186.9660  177.4340  144.5030 C   0  0  0  0  0  0  0  0  0  0  0  0
  186.9890  178.2580  146.8000 C   0  0  0  0  0  0  0  0  0  0  0  0
  185.7780  178.1530  144.2850 C   0  0  0  0  0  3  0  0  0  0  0  0
  185.2050  178.9140  145.3040 C   0  0  0  0  0  3  0  0  0  0  0  0
  187.9750  178.4260  139.5380 C   0  0  0  0  0  2  0  0  0  0  0  0
  189.8340  177.1170  136.5080 C   0  0  0  0  0  3  0  0  0  0  0  0
  188.9170  177.3780  135.4860 C   0  0  0  0  0  3  0  0  0  0  0  0
  189.5250  177.4540  137.8280 C   0  0  0  0  0  3  0  0  0  0  0  0
  187.6880  177.9770  135.7850 C   0  0  0  0  0  3  0  0  0  0  0  0
  187.3780  178.3140  137.1060 C   0  0  0  0  0  3  0  0  0  0  0  0
  188.2960  178.0530  138.1300 C   0  0  0  0  0  0  0  0  0  0  0  0
  1  3  1  0  0  0  0
  2 12  1  0  0  0  0
  3  2  2  0  0  0  0
  3  6  1  0  0  0  0
  4  6  1  0  0  0  0
  6  7  1  0  0  0  0
  6 10  1  0  0  0  0
  7  8  1  0  0  0  0
  8  5  1  0  0  0  0
  9  5  1  0  0  0  0
 10  9  1  0  0  0  0
 12 11  2  0  0  0  0
 12 17  1  0  0  0  0
 13 18  1  0  0  0  0
 15 16  1  0  0  0  0
 15 18  2  0  0  0  0
 17 15  1  0  0  0  0
 18 14  1  0  0  0  0
 19 17  2  0  0  0  0
 19 20  1  0  0  0  0
 20 13  2  0  0  0  0
 21  1  1  0  0  0  0
 22 24  1  0  0  0  0
 23 25  1  0  0  0  0
 23 22  2  0  0  0  0
 24 27  2  0  0  0  0
 25 26  2  0  0  0  0
 26 27  1  0  0  0  0
 27 21  1  0  0  0  0
M  END
>  <MODEL>
1

>  <REMARK>
 VINA RESULT:      -8.9      0.000      0.000
  Name = 
  5 active torsions:
  status: ('A' for Active; 'I' for Inactive)
    1  A    between atoms: N_1  and  C_18
    2  A    between atoms: N_2  and  C_19
    3  A    between atoms: C_9  and  C_15
    4  A    between atoms: C_14  and  C_19
    5  A    between atoms: C_18  and  C_26
                            x       y       z     vdW  Elec       q    Type
                         _______ _______ _______ _____ _____    ______ ____

>  <TORSDO>
F 5

$$$$
=
 OpenBabel11052413513D

 27 29  0  0  0  0  0  0  0  0999 V2000
  189.4080  178.1540  140.2310 N   0  0  0  0  0  2  0  0  0  0  0  0
  188.0530  177.3130  141.9600 N   0  0  0  0  0  0  0  0  0  0  0  0
  189.2610  177.6150  141.5540 C   0  0  0  0  0  0  0  0  0  0  0  0
  191.7570  177.6110  141.5290 C   0  0  0  0  0  1  0  0  0  0  0  0
  191.5980  176.7990  145.1060 C   0  0  0  0  0  2  0  0  0  0  0  0
  190.5170  177.4270  142.3990 C   0  0  0  0  0  0  0  0  0  0  0  0
  190.5570  175.9960  142.9760 C   0  0  0  0  0  2  0  0  0  0  0  0
  191.7040  175.7920  143.9680 C   0  0  0  0  0  2  0  0  0  0  0  0
  191.6460  178.2140  144.5470 C   0  0  0  0  0  2  0  0  0  0  0  0
  190.4920  178.4290  143.5670 C   0  0  0  0  0  2  0  0  0  0  0  0
  187.7940  175.5040  143.4410 O   0  0  0  0  0  0  0  0  0  0  0  0
  187.5740  176.7170  143.1800 C   0  0  0  0  0  0  0  0  0  0  0  0
  185.2670  179.0140  145.9800 C   0  0  0  0  0  3  0  0  0  0  0  0
  183.4230  179.3510  144.3430 C   0  0  0  0  0  1  0  0  0  0  0  0
  185.4930  178.0450  143.7670 C   0  0  0  0  0  0  0  0  0  0  0  0
  184.9810  177.8580  142.5230 F   0  0  0  0  0  0  0  0  0  0  0  0
  186.7550  177.5170  144.1210 C   0  0  0  0  0  0  0  0  0  0  0  0
  184.7550  178.7890  144.7010 C   0  0  0  0  0  0  0  0  0  0  0  0
  187.2520  177.7590  145.4120 C   0  0  0  0  0  3  0  0  0  0  0  0
  186.5150  178.5010  146.3350 C   0  0  0  0  0  3  0  0  0  0  0  0
  188.3020  178.3040  139.2920 C   0  0  0  0  0  2  0  0  0  0  0  0
  188.2980  177.7460  135.5450 C   0  0  0  0  0  3  0  0  0  0  0  0
  189.4570  176.9840  135.3760 C   0  0  0  0  0  3  0  0  0  0  0  0
  187.9240  178.1790  136.8200 C   0  0  0  0  0  3  0  0  0  0  0  0
  190.2450  176.6560  136.4850 C   0  0  0  0  0  3  0  0  0  0  0  0
  189.8730  177.0890  137.7610 C   0  0  0  0  0  3  0  0  0  0  0  0
  188.7110  177.8530  137.9300 C   0  0  0  0  0  0  0  0  0  0  0  0
  1  3  1  0  0  0  0
  2 12  1  0  0  0  0
  3  2  2  0  0  0  0
  3  6  1  0  0  0  0
  4  6  1  0  0  0  0
  6  7  1  0  0  0  0
  6 10  1  0  0  0  0
  7  8  1  0  0  0  0
  8  5  1  0  0  0  0
  9  5  1  0  0  0  0
 10  9  1  0  0  0  0
 12 11  2  0  0  0  0
 12 17  1  0  0  0  0
 13 20  1  0  0  0  0
 14 18  1  0  0  0  0
 15 17  2  0  0  0  0
 15 18  1  0  0  0  0
 16 15  1  0  0  0  0
 17 19  1  0  0  0  0
 18 13  2  0  0  0  0
 19 20  2  0  0  0  0
 21  1  1  0  0  0  0
 22 24  1  0  0  0  0
 23 22  2  0  0  0  0
 23 25  1  0  0  0  0
 24 27  2  0  0  0  0
 25 26  2  0  0  0  0
 26 27  1  0  0  0  0
 27 21  1  0  0  0  0
M  END
>  <MODEL>
2

>  <REMARK>
 VINA RESULT:      -8.7      1.174      2.039
  Name = 
  5 active torsions:
  status: ('A' for Active; 'I' for Inactive)
    1  A    between atoms: N_1  and  C_18
    2  A    between atoms: N_2  and  C_19
    3  A    between atoms: C_9  and  C_15
    4  A    between atoms: C_14  and  C_19
    5  A    between atoms: C_18  and  C_26
                            x       y       z     vdW  Elec       q    Type
                         _______ _______ _______ _____ _____    ______ ____

>  <TORSDO>
F 5

$$$$
=
 OpenBabel11052413513D

 27 29  0  0  0  0  0  0  0  0999 V2000
  187.4720  177.7860  143.6650 N   0  0  0  0  0  2  0  0  0  0  0  0
  189.1530  177.5310  142.0390 N   0  0  0  0  0  0  0  0  0  0  0  0
  188.8580  177.6640  143.3090 C   0  0  0  0  0  0  0  0  0  0  0  0
  190.7580  178.9520  144.2890 C   0  0  0  0  0  1  0  0  0  0  0  0
  191.0030  176.2960  146.8120 C   0  0  0  0  0  2  0  0  0  0  0  0
  189.8950  177.7000  144.4260 C   0  0  0  0  0  0  0  0  0  0  0  0
  190.8280  176.4740  144.3210 C   0  0  0  0  0  2  0  0  0  0  0  0
  191.7870  176.3610  145.5080 C   0  0  0  0  0  2  0  0  0  0  0  0
  190.1460  177.5460  146.9590 C   0  0  0  0  0  2  0  0  0  0  0  0
  189.1740  177.6570  145.7840 C   0  0  0  0  0  2  0  0  0  0  0  0
  191.5040  177.5640  141.9780 O   0  0  0  0  0  0  0  0  0  0  0  0
  190.4150  177.4420  141.3540 C   0  0  0  0  0  0  0  0  0  0  0  0
  190.5870  176.8720  137.1020 C   0  0  0  0  0  3  0  0  0  0  0  0
  188.8110  178.5680  136.6980 C   0  0  0  0  0  1  0  0  0  0  0  0
  189.6090  178.0010  139.0150 C   0  0  0  0  0  0  0  0  0  0  0  0
  188.7100  178.8960  139.5010 F   0  0  0  0  0  0  0  0  0  0  0  0
  190.4470  177.2660  139.8830 C   0  0  0  0  0  0  0  0  0  0  0  0
  189.6870  177.8010  137.6270 C   0  0  0  0  0  0  0  0  0  0  0  0
  191.3430  176.3350  139.3330 C   0  0  0  0  0  3  0  0  0  0  0  0
  191.4130  176.1390  137.9530 C   0  0  0  0  0  3  0  0  0  0  0  0
  186.3890  177.8520  142.6910 C   0  0  0  0  0  2  0  0  0  0  0  0
  183.8990  178.8860  145.3520 C   0  0  0  0  0  3  0  0  0  0  0  0
  182.7490  179.1010  144.5870 C   0  0  0  0  0  3  0  0  0  0  0  0
  185.0850  178.4840  144.7330 C   0  0  0  0  0  3  0  0  0  0  0  0
  182.7860  178.9140  143.2010 C   0  0  0  0  0  3  0  0  0  0  0  0
  183.9720  178.5110  142.5810 C   0  0  0  0  0  3  0  0  0  0  0  0
  185.1250  178.2960  143.3460 C   0  0  0  0  0  0  0  0  0  0  0  0
  2  3  2  0  0  0  0
  3  1  1  0  0  0  0
  3  6  1  0  0  0  0
  4  6  1  0  0  0  0
  5  9  1  0  0  0  0
  6 10  1  0  0  0  0
  7  6  1  0  0  0  0
  7  8  1  0  0  0  0
  8  5  1  0  0  0  0
 10  9  1  0  0  0  0
 12 11  2  0  0  0  0
 12  2  1  0  0  0  0
 13 18  2  0  0  0  0
 13 20  1  0  0  0  0
 14 18  1  0  0  0  0
 15 16  1  0  0  0  0
 15 17  2  0  0  0  0
 17 12  1  0  0  0  0
 18 15  1  0  0  0  0
 19 17  1  0  0  0  0
 20 19  2  0  0  0  0
 21 27  1  0  0  0  0
 21  1  1  0  0  0  0
 23 22  2  0  0  0  0
 24 22  1  0  0  0  0
 25 23  1  0  0  0  0
 26 25  2  0  0  0  0
 26 27  1  0  0  0  0
 27 24  2  0  0  0  0
M  END
>  <MODEL>
3

>  <REMARK>
 VINA RESULT:      -7.7      2.317      6.677
  Name = 
  5 active torsions:
  status: ('A' for Active; 'I' for Inactive)
    1  A    between atoms: N_1  and  C_18
    2  A    between atoms: N_2  and  C_19
    3  A    between atoms: C_9  and  C_15
    4  A    between atoms: C_14  and  C_19
    5  A    between atoms: C_18  and  C_26
                            x       y       z     vdW  Elec       q    Type
                         _______ _______ _______ _____ _____    ______ ____

>  <TORSDO>
F 5

$$$$
=
 OpenBabel11052413513D

 27 29  0  0  0  0  0  0  0  0999 V2000
  188.1960  178.0640  141.0240 N   0  0  0  0  0  2  0  0  0  0  0  0
  190.0180  178.3040  142.4930 N   0  0  0  0  0  0  0  0  0  0  0  0
  188.7520  177.9960  142.3460 C   0  0  0  0  0  0  0  0  0  0  0  0
  187.8000  176.0510  143.5870 C   0  0  0  0  0  1  0  0  0  0  0  0
  186.0180  178.4970  145.6640 C   0  0  0  0  0  2  0  0  0  0  0  0
  187.8390  177.5740  143.4920 C   0  0  0  0  0  0  0  0  0  0  0  0
  186.3990  178.0640  143.2290 C   0  0  0  0  0  2  0  0  0  0  0  0
  185.4670  177.8190  144.4180 C   0  0  0  0  0  2  0  0  0  0  0  0
  187.4050  177.9520  145.9770 C   0  0  0  0  0  2  0  0  0  0  0  0
  188.3460  178.2090  144.7980 C   0  0  0  0  0  2  0  0  0  0  0  0
  191.2360  179.5050  144.1070 O   0  0  0  0  0  0  0  0  0  0  0  0
  190.8520  178.3890  143.6620 C   0  0  0  0  0  0  0  0  0  0  0  0
  192.2140  174.7540  145.4970 C   0  0  0  0  0  3  0  0  0  0  0  0
  192.1350  175.7520  147.7750 C   0  0  0  0  0  1  0  0  0  0  0  0
  191.5020  177.0630  145.7250 C   0  0  0  0  0  0  0  0  0  0  0  0
  191.2670  178.1320  146.5290 F   0  0  0  0  0  0  0  0  0  0  0  0
  191.3240  177.1510  144.3260 C   0  0  0  0  0  0  0  0  0  0  0  0
  191.9440  175.8620  146.3030 C   0  0  0  0  0  0  0  0  0  0  0  0
  191.6050  176.0240  143.5350 C   0  0  0  0  0  3  0  0  0  0  0  0
  192.0450  174.8350  144.1150 C   0  0  0  0  0  3  0  0  0  0  0  0
  188.9360  178.5340  139.8580 C   0  0  0  0  0  2  0  0  0  0  0  0
  188.9650  175.6680  137.3810 C   0  0  0  0  0  3  0  0  0  0  0  0
  190.2720  175.1930  137.5220 C   0  0  0  0  0  3  0  0  0  0  0  0
  188.5320  176.7590  138.1390 C   0  0  0  0  0  3  0  0  0  0  0  0
  191.1470  175.8100  138.4220 C   0  0  0  0  0  3  0  0  0  0  0  0
  190.7150  176.9020  139.1810 C   0  0  0  0  0  3  0  0  0  0  0  0
  189.4060  177.3790  139.0400 C   0  0  0  0  0  0  0  0  0  0  0  0
  1  3  1  0  0  0  0
  2 12  1  0  0  0  0
  3  2  2  0  0  0  0
  3  6  1  0  0  0  0
  5  9  1  0  0  0  0
  6  4  1  0  0  0  0
  6 10  1  0  0  0  0
  7  6  1  0  0  0  0
  7  8  1  0  0  0  0
  8  5  1  0  0  0  0
 10  9  1  0  0  0  0
 12 11  2  0  0  0  0
 12 17  1  0  0  0  0
 13 18  1  0  0  0  0
 15 18  2  0  0  0  0
 15 16  1  0  0  0  0
 17 15  1  0  0  0  0
 18 14  1  0  0  0  0
 19 20  1  0  0  0  0
 19 17  2  0  0  0  0
 20 13  2  0  0  0  0
 21  1  1  0  0  0  0
 22 23  2  0  0  0  0
 22 24  1  0  0  0  0
 23 25  1  0  0  0  0
 24 27  2  0  0  0  0
 25 26  2  0  0  0  0
 27 26  1  0  0  0  0
 27 21  1  0  0  0  0
M  END
>  <MODEL>
4

>  <REMARK>
 VINA RESULT:      -7.4      1.852      4.441
  Name = 
  5 active torsions:
  status: ('A' for Active; 'I' for Inactive)
    1  A    between atoms: N_1  and  C_18
    2  A    between atoms: N_2  and  C_19
    3  A    between atoms: C_9  and  C_15
    4  A    between atoms: C_14  and  C_19
    5  A    between atoms: C_18  and  C_26
                            x       y       z     vdW  Elec       q    Type
                         _______ _______ _______ _____ _____    ______ ____

>  <TORSDO>
F 5

$$$$
=
 OpenBabel11052413513D

 27 29  0  0  0  0  0  0  0  0999 V2000
  187.1360  178.0860  142.6700 N   0  0  0  0  0  2  0  0  0  0  0  0
  188.6130  177.7260  140.8740 N   0  0  0  0  0  0  0  0  0  0  0  0
  188.4170  177.6750  142.1690 C   0  0  0  0  0  0  0  0  0  0  0  0
  190.0020  175.8390  142.7600 C   0  0  0  0  0  1  0  0  0  0  0  0
  190.9340  177.8480  145.6870 C   0  0  0  0  0  2  0  0  0  0  0  0
  189.4680  177.2080  143.1710 C   0  0  0  0  0  0  0  0  0  0  0  0
  188.8360  177.0630  144.5720 C   0  0  0  0  0  2  0  0  0  0  0  0
  189.8710  176.7590  145.6570 C   0  0  0  0  0  2  0  0  0  0  0  0
  191.6210  177.9350  144.3300 C   0  0  0  0  0  2  0  0  0  0  0  0
  190.5930  178.2550  143.2440 C   0  0  0  0  0  2  0  0  0  0  0  0
  190.8900  177.9600  140.3350 O   0  0  0  0  0  0  0  0  0  0  0  0
  189.7710  177.4430  140.0690 C   0  0  0  0  0  0  0  0  0  0  0  0
  189.5040  174.9240  136.6020 C   0  0  0  0  0  3  0  0  0  0  0  0
  187.2110  175.7290  136.0660 C   0  0  0  0  0  1  0  0  0  0  0  0
  188.4870  176.5760  138.0600 C   0  0  0  0  0  0  0  0  0  0  0  0
  187.4150  177.3520  138.3670 F   0  0  0  0  0  0  0  0  0  0  0  0
  189.6460  176.5830  138.8690 C   0  0  0  0  0  0  0  0  0  0  0  0
  188.4250  175.7470  136.9290 C   0  0  0  0  0  0  0  0  0  0  0  0
  190.7190  175.7440  138.5230 C   0  0  0  0  0  3  0  0  0  0  0  0
  190.6490  174.9210  137.3990 C   0  0  0  0  0  3  0  0  0  0  0  0
  186.0760  178.6320  141.8300 C   0  0  0  0  0  2  0  0  0  0  0  0
  183.6390  178.9370  144.7130 C   0  0  0  0  0  3  0  0  0  0  0  0
  182.4120  178.8810  144.0470 C   0  0  0  0  0  3  0  0  0  0  0  0
  184.8320  178.8610  143.9900 C   0  0  0  0  0  3  0  0  0  0  0  0
  182.3780  178.7490  142.6540 C   0  0  0  0  0  3  0  0  0  0  0  0
  183.5720  178.6720  141.9300 C   0  0  0  0  0  3  0  0  0  0  0  0
  184.8010  178.7290  142.5970 C   0  0  0  0  0  0  0  0  0  0  0  0
  2  3  2  0  0  0  0
  3  1  1  0  0  0  0
  3  6  1  0  0  0  0
  4  6  1  0  0  0  0
  6 10  1  0  0  0  0
  6  7  1  0  0  0  0
  7  8  1  0  0  0  0
  8  5  1  0  0  0  0
  9  5  1  0  0  0  0
 10  9  1  0  0  0  0
 12 11  2  0  0  0  0
 12  2  1  0  0  0  0
 13 18  2  0  0  0  0
 13 20  1  0  0  0  0
 14 18  1  0  0  0  0
 15 16  1  0  0  0  0
 15 17  2  0  0  0  0
 17 12  1  0  0  0  0
 18 15  1  0  0  0  0
 19 17  1  0  0  0  0
 20 19  2  0  0  0  0
 21 27  1  0  0  0  0
 21  1  1  0  0  0  0
 23 22  1  0  0  0  0
 24 22  2  0  0  0  0
 25 23  2  0  0  0  0
 26 27  2  0  0  0  0
 26 25  1  0  0  0  0
 27 24  1  0  0  0  0
M  END
>  <MODEL>
5

>  <REMARK>
 VINA RESULT:      -7.4      2.610      6.794
  Name = 
  5 active torsions:
  status: ('A' for Active; 'I' for Inactive)
    1  A    between atoms: N_1  and  C_18
    2  A    between atoms: N_2  and  C_19
    3  A    between atoms: C_9  and  C_15
    4  A    between atoms: C_14  and  C_19
    5  A    between atoms: C_18  and  C_26
                            x       y       z     vdW  Elec       q    Type
                         _______ _______ _______ _____ _____    ______ ____

>  <TORSDO>
F 5

$$$$
=
 OpenBabel11052413513D

 27 29  0  0  0  0  0  0  0  0999 V2000
  187.7570  177.6300  143.3900 N   0  0  0  0  0  2  0  0  0  0  0  0
  189.0230  177.4420  141.4160 N   0  0  0  0  0  0  0  0  0  0  0  0
  189.0180  177.4530  142.7260 C   0  0  0  0  0  0  0  0  0  0  0  0
  191.3060  178.3400  143.1860 C   0  0  0  0  0  1  0  0  0  0  0  0
  191.5910  175.7310  145.7530 C   0  0  0  0  0  2  0  0  0  0  0  0
  190.2690  177.2940  143.5850 C   0  0  0  0  0  0  0  0  0  0  0  0
  190.8950  175.9020  143.3550 C   0  0  0  0  0  2  0  0  0  0  0  0
  192.0560  175.6130  144.3080 C   0  0  0  0  0  2  0  0  0  0  0  0
  191.0520  177.1330  146.0070 C   0  0  0  0  0  2  0  0  0  0  0  0
  189.8800  177.4210  145.0680 C   0  0  0  0  0  2  0  0  0  0  0  0
  191.2860  177.1580  140.8410 O   0  0  0  0  0  0  0  0  0  0  0  0
  190.0980  177.3430  140.4640 C   0  0  0  0  0  0  0  0  0  0  0  0
  189.2410  177.9350  136.2980 C   0  0  0  0  0  3  0  0  0  0  0  0
  190.4940  175.8870  135.6430 C   0  0  0  0  0  1  0  0  0  0  0  0
  190.2980  176.6180  138.0410 C   0  0  0  0  0  0  0  0  0  0  0  0
  191.0570  175.5460  138.3890 F   0  0  0  0  0  0  0  0  0  0  0  0
  189.8230  177.5210  139.0190 C   0  0  0  0  0  0  0  0  0  0  0  0
  190.0020  176.8290  136.6850 C   0  0  0  0  0  0  0  0  0  0  0  0
  189.0630  178.6270  138.6060 C   0  0  0  0  0  3  0  0  0  0  0  0
  188.7730  178.8330  137.2570 C   0  0  0  0  0  3  0  0  0  0  0  0
  186.5020  177.8780  142.6890 C   0  0  0  0  0  2  0  0  0  0  0  0
  183.1680  179.0040  144.0910 C   0  0  0  0  0  3  0  0  0  0  0  0
  183.4290  179.0010  145.4630 C   0  0  0  0  0  3  0  0  0  0  0  0
  184.1680  178.6330  143.1870 C   0  0  0  0  0  3  0  0  0  0  0  0
  184.6920  178.6280  145.9340 C   0  0  0  0  0  3  0  0  0  0  0  0
  185.6930  178.2570  145.0310 C   0  0  0  0  0  3  0  0  0  0  0  0
  185.4320  178.2580  143.6560 C   0  0  0  0  0  0  0  0  0  0  0  0
  2  3  2  0  0  0  0
  3  1  1  0  0  0  0
  3  6  1  0  0  0  0
  4  6  1  0  0  0  0
  5  9  1  0  0  0  0
  6 10  1  0  0  0  0
  7  6  1  0  0  0  0
  7  8  1  0  0  0  0
  8  5  1  0  0  0  0
 10  9  1  0  0  0  0
 12 11  2  0  0  0  0
 12  2  1  0  0  0  0
 13 18  2  0  0  0  0
 13 20  1  0  0  0  0
 14 18  1  0  0  0  0
 15 16  1  0  0  0  0
 15 17  2  0  0  0  0
 17 12  1  0  0  0  0
 18 15  1  0  0  0  0
 19 17  1  0  0  0  0
 20 19  2  0  0  0  0
 21  1  1  0  0  0  0
 21 27  1  0  0  0  0
 22 23  1  0  0  0  0
 23 25  2  0  0  0  0
 24 27  1  0  0  0  0
 24 22  2  0  0  0  0
 26 25  1  0  0  0  0
 27 26  2  0  0  0  0
M  END
>  <MODEL>
6

>  <REMARK>
 VINA RESULT:      -7.3      2.322      6.908
  Name = 
  5 active torsions:
  status: ('A' for Active; 'I' for Inactive)
    1  A    between atoms: N_1  and  C_18
    2  A    between atoms: N_2  and  C_19
    3  A    between atoms: C_9  and  C_15
    4  A    between atoms: C_14  and  C_19
    5  A    between atoms: C_18  and  C_26
                            x       y       z     vdW  Elec       q    Type
                         _______ _______ _______ _____ _____    ______ ____

>  <TORSDO>
F 5

$$$$
=
 OpenBabel11052413513D

 27 29  0  0  0  0  0  0  0  0999 V2000
  189.6700  177.9460  141.4930 N   0  0  0  0  0  2  0  0  0  0  0  0
  187.7740  177.5600  142.8310 N   0  0  0  0  0  0  0  0  0  0  0  0
  189.0660  177.7720  142.7840 C   0  0  0  0  0  0  0  0  0  0  0  0
  190.9190  179.0260  143.8910 C   0  0  0  0  0  1  0  0  0  0  0  0
  190.6790  176.5850  146.6220 C   0  0  0  0  0  2  0  0  0  0  0  0
  189.9630  177.8420  144.0160 C   0  0  0  0  0  0  0  0  0  0  0  0
  190.8160  176.5610  144.1240 C   0  0  0  0  0  2  0  0  0  0  0  0
  191.6160  176.4930  145.4260 C   0  0  0  0  0  2  0  0  0  0  0  0
  189.8980  177.8910  146.5650 C   0  0  0  0  0  2  0  0  0  0  0  0
  189.0840  177.9570  145.2730 C   0  0  0  0  0  2  0  0  0  0  0  0
  187.1840  176.4530  144.8210 O   0  0  0  0  0  0  0  0  0  0  0  0
  186.8860  177.2970  143.9320 C   0  0  0  0  0  0  0  0  0  0  0  0
  183.0860  179.2730  144.2310 C   0  0  0  0  0  3  0  0  0  0  0  0
  182.6000  178.9290  141.8150 C   0  0  0  0  0  1  0  0  0  0  0  0
  184.7350  178.1220  142.8720 C   0  0  0  0  0  0  0  0  0  0  0  0
  185.1170  177.6590  141.6540 F   0  0  0  0  0  0  0  0  0  0  0  0
  185.5720  177.9770  144.0010 C   0  0  0  0  0  0  0  0  0  0  0  0
  183.4940  178.7680  142.9950 C   0  0  0  0  0  0  0  0  0  0  0  0
  185.1420  178.4950  145.2340 C   0  0  0  0  0  3  0  0  0  0  0  0
  183.9090  179.1380  145.3490 C   0  0  0  0  0  3  0  0  0  0  0  0
  188.9420  177.8180  140.2360 C   0  0  0  0  0  2  0  0  0  0  0  0
  190.2170  176.7310  136.8380 C   0  0  0  0  0  3  0  0  0  0  0  0
  191.5300  176.3590  137.1400 C   0  0  0  0  0  3  0  0  0  0  0  0
  189.3760  177.2100  137.8460 C   0  0  0  0  0  3  0  0  0  0  0  0
  192.0030  176.4670  138.4530 C   0  0  0  0  0  3  0  0  0  0  0  0
  191.1620  176.9470  139.4610 C   0  0  0  0  0  3  0  0  0  0  0  0
  189.8470  177.3200  139.1590 C   0  0  0  0  0  0  0  0  0  0  0  0
  1  3  1  0  0  0  0
  2 12  1  0  0  0  0
  3  2  2  0  0  0  0
  3  6  1  0  0  0  0
  4  6  1  0  0  0  0
  6  7  1  0  0  0  0
  6 10  1  0  0  0  0
  7  8  1  0  0  0  0
  8  5  1  0  0  0  0
  9  5  1  0  0  0  0
 10  9  1  0  0  0  0
 12 17  1  0  0  0  0
 12 11  2  0  0  0  0
 13 20  1  0  0  0  0
 14 18  1  0  0  0  0
 15 18  1  0  0  0  0
 15 17  2  0  0  0  0
 16 15  1  0  0  0  0
 17 19  1  0  0  0  0
 18 13  2  0  0  0  0
 19 20  2  0  0  0  0
 21  1  1  0  0  0  0
 22 23  2  0  0  0  0
 22 24  1  0  0  0  0
 23 25  1  0  0  0  0
 24 27  2  0  0  0  0
 25 26  2  0  0  0  0
 27 26  1  0  0  0  0
 27 21  1  0  0  0  0
M  END
>  <MODEL>
7

>  <REMARK>
 VINA RESULT:      -7.2      2.022      3.144
  Name = 
  5 active torsions:
  status: ('A' for Active; 'I' for Inactive)
    1  A    between atoms: N_1  and  C_18
    2  A    between atoms: N_2  and  C_19
    3  A    between atoms: C_9  and  C_15
    4  A    between atoms: C_14  and  C_19
    5  A    between atoms: C_18  and  C_26
                            x       y       z     vdW  Elec       q    Type
                         _______ _______ _______ _____ _____    ______ ____

>  <TORSDO>
F 5

$$$$
=
 OpenBabel11052413513D

 27 29  0  0  0  0  0  0  0  0999 V2000
  184.3860  178.2190  142.7950 N   0  0  0  0  0  2  0  0  0  0  0  0
  184.6190  178.9520  140.5720 N   0  0  0  0  0  0  0  0  0  0  0  0
  183.8060  178.6220  141.5450 C   0  0  0  0  0  0  0  0  0  0  0  0
  181.8070  177.3530  140.7530 C   0  0  0  0  0  1  0  0  0  0  0  0
  179.7850  180.1770  141.9410 C   0  0  0  0  0  2  0  0  0  0  0  0
  182.2850  178.6370  141.4270 C   0  0  0  0  0  0  0  0  0  0  0  0
  181.8340  179.8230  140.5480 C   0  0  0  0  0  2  0  0  0  0  0  0
  180.3140  179.9940  140.5250 C   0  0  0  0  0  2  0  0  0  0  0  0
  180.1540  178.9670  142.7880 C   0  0  0  0  0  2  0  0  0  0  0  0
  181.6730  178.8000  142.8290 C   0  0  0  0  0  2  0  0  0  0  0  0
  184.1740  180.5470  138.9010 O   0  0  0  0  0  0  0  0  0  0  0  0
  184.3730  179.3400  139.2090 C   0  0  0  0  0  0  0  0  0  0  0  0
  184.0270  176.3530  136.1430 C   0  0  0  0  0  3  0  0  0  0  0  0
  186.4690  175.8730  136.1910 C   0  0  0  0  0  1  0  0  0  0  0  0
  185.4220  177.6020  137.6880 C   0  0  0  0  0  0  0  0  0  0  0  0
  186.6580  177.8620  138.1860 F   0  0  0  0  0  0  0  0  0  0  0  0
  184.2880  178.3070  138.1500 C   0  0  0  0  0  0  0  0  0  0  0  0
  185.2830  176.6260  136.6880 C   0  0  0  0  0  0  0  0  0  0  0  0
  183.0340  178.0180  137.5860 C   0  0  0  0  0  3  0  0  0  0  0  0
  182.9040  177.0490  136.5910 C   0  0  0  0  0  3  0  0  0  0  0  0
  185.8210  178.0800  143.0140 C   0  0  0  0  0  2  0  0  0  0  0  0
  185.5060  178.7140  146.7350 C   0  0  0  0  0  3  0  0  0  0  0  0
  186.7200  178.2080  147.2060 C   0  0  0  0  0  3  0  0  0  0  0  0
  185.2110  178.6680  145.3700 C   0  0  0  0  0  3  0  0  0  0  0  0
  187.6420  177.6550  146.3110 C   0  0  0  0  0  3  0  0  0  0  0  0
  187.3480  177.6080  144.9450 C   0  0  0  0  0  3  0  0  0  0  0  0
  186.1310  178.1140  144.4720 C   0  0  0  0  0  0  0  0  0  0  0  0
  1 21  1  0  0  0  0
  2  3  2  0  0  0  0
  3  1  1  0  0  0  0
  4  6  1  0  0  0  0
  5  9  1  0  0  0  0
  6  3  1  0  0  0  0
  6 10  1  0  0  0  0
  7  6  1  0  0  0  0
  8  7  1  0  0  0  0
  8  5  1  0  0  0  0
  9 10  1  0  0  0  0
 11 12  2  0  0  0  0
 12  2  1  0  0  0  0
 13 20  2  0  0  0  0
 13 18  1  0  0  0  0
 14 18  1  0  0  0  0
 15 17  1  0  0  0  0
 15 16  1  0  0  0  0
 17 12  1  0  0  0  0
 18 15  2  0  0  0  0
 19 17  2  0  0  0  0
 20 19  1  0  0  0  0
 21 27  1  0  0  0  0
 22 23  1  0  0  0  0
 24 22  2  0  0  0  0
 25 23  2  0  0  0  0
 26 25  1  0  0  0  0
 27 26  2  0  0  0  0
 27 24  1  0  0  0  0
M  END
>  <MODEL>
8

>  <REMARK>
 VINA RESULT:      -7.1      4.273      9.118
  Name = 
  5 active torsions:
  status: ('A' for Active; 'I' for Inactive)
    1  A    between atoms: N_1  and  C_18
    2  A    between atoms: N_2  and  C_19
    3  A    between atoms: C_9  and  C_15
    4  A    between atoms: C_14  and  C_19
    5  A    between atoms: C_18  and  C_26
                            x       y       z     vdW  Elec       q    Type
                         _______ _______ _______ _____ _____    ______ ____

>  <TORSDO>
F 5

$$$$
=
 OpenBabel11052413513D

 27 29  0  0  0  0  0  0  0  0999 V2000
  187.1400  178.7310  140.6440 N   0  0  0  0  0  2  0  0  0  0  0  0
  188.4490  177.4500  142.1210 N   0  0  0  0  0  0  0  0  0  0  0  0
  188.3090  177.9430  140.9150 C   0  0  0  0  0  0  0  0  0  0  0  0
  189.1840  178.8510  138.7610 C   0  0  0  0  0  1  0  0  0  0  0  0
  191.4500  175.9630  138.6880 C   0  0  0  0  0  2  0  0  0  0  0  0
  189.3110  177.7260  139.7860 C   0  0  0  0  0  0  0  0  0  0  0  0
  189.0130  176.3960  139.0610 C   0  0  0  0  0  2  0  0  0  0  0  0
  190.0810  176.0370  138.0260 C   0  0  0  0  0  2  0  0  0  0  0  0
  191.7840  177.3030  139.3300 C   0  0  0  0  0  2  0  0  0  0  0  0
  190.7290  177.6590  140.3770 C   0  0  0  0  0  2  0  0  0  0  0  0
  189.9760  175.6650  142.0230 O   0  0  0  0  0  0  0  0  0  0  0  0
  189.4510  176.5930  142.6950 C   0  0  0  0  0  0  0  0  0  0  0  0
  190.6610  177.0350  146.7920 C   0  0  0  0  0  3  0  0  0  0  0  0
  188.3180  177.3840  147.5540 C   0  0  0  0  0  1  0  0  0  0  0  0
  188.8870  176.9940  145.1360 C   0  0  0  0  0  0  0  0  0  0  0  0
  187.5650  177.1130  144.8460 F   0  0  0  0  0  0  0  0  0  0  0  0
  189.8360  176.7540  144.1170 C   0  0  0  0  0  0  0  0  0  0  0  0
  189.3060  177.1310  146.4690 C   0  0  0  0  0  0  0  0  0  0  0  0
  191.1950  176.6640  144.4650 C   0  0  0  0  0  3  0  0  0  0  0  0
  191.6040  176.8030  145.7910 C   0  0  0  0  0  3  0  0  0  0  0  0
  186.0660  178.9430  141.6080 C   0  0  0  0  0  2  0  0  0  0  0  0
  182.3530  178.4330  141.0550 C   0  0  0  0  0  3  0  0  0  0  0  0
  182.2470  178.6400  139.6780 C   0  0  0  0  0  3  0  0  0  0  0  0
  183.5970  178.5360  141.6850 C   0  0  0  0  0  3  0  0  0  0  0  0
  183.3860  178.9520  138.9280 C   0  0  0  0  0  3  0  0  0  0  0  0
  184.6300  179.0550  139.5560 C   0  0  0  0  0  3  0  0  0  0  0  0
  184.7380  178.8480  140.9370 C   0  0  0  0  0  0  0  0  0  0  0  0
  1  3  1  0  0  0  0
  1 21  1  0  0  0  0
  2 12  1  0  0  0  0
  3  2  2  0  0  0  0
  4  6  1  0  0  0  0
  5  9  1  0  0  0  0
  6 10  1  0  0  0  0
  6  3  1  0  0  0  0
  7  6  1  0  0  0  0
  8  5  1  0  0  0  0
  8  7  1  0  0  0  0
  9 10  1  0  0  0  0
 11 12  2  0  0  0  0
 12 17  1  0  0  0  0
 15 18  2  0  0  0  0
 16 15  1  0  0  0  0
 17 19  2  0  0  0  0
 17 15  1  0  0  0  0
 18 13  1  0  0  0  0
 18 14  1  0  0  0  0
 19 20  1  0  0  0  0
 20 13  2  0  0  0  0
 22 24  1  0  0  0  0
 23 22  2  0  0  0  0
 25 26  2  0  0  0  0
 25 23  1  0  0  0  0
 26 27  1  0  0  0  0
 27 21  1  0  0  0  0
 27 24  2  0  0  0  0
M  END
>  <MODEL>
9

>  <REMARK>
 VINA RESULT:      -7.0      2.543      4.590
  Name = 
  5 active torsions:
  status: ('A' for Active; 'I' for Inactive)
    1  A    between atoms: N_1  and  C_18
    2  A    between atoms: N_2  and  C_19
    3  A    between atoms: C_9  and  C_15
    4  A    between atoms: C_14  and  C_19
    5  A    between atoms: C_18  and  C_26
                            x       y       z     vdW  Elec       q    Type
                         _______ _______ _______ _____ _____    ______ ____

>  <TORSDO>
F 5

$$$$
