=
 OpenBabel11052413013D

 31 35  0  0  1  0  0  0  0  0999 V2000
  183.3790  178.3490  142.3430 C   0  0  0  0  0  0  0  0  0  0  0  0
  187.0330  178.0290  142.9860 C   0  0  0  0  0  0  0  0  0  0  0  0
  187.0450  177.6190  144.4510 C   0  0  2  0  0  3  0  0  0  0  0  0
  186.5420  178.5490  146.6910 C   0  0  0  0  0  3  0  0  0  0  0  0
  185.8830  178.3110  142.3340 C   0  0  0  0  0  0  0  0  0  0  0  0
  183.2900  177.9380  140.6010 S   0  0  0  0  0  0  0  0  0  0  0  0
  186.2960  178.5500  145.3750 C   0  0  0  0  0  3  0  0  0  0  0  0
  188.2640  178.2360  140.7920 N   0  0  0  0  0  0  0  0  0  0  0  0
  182.3410  178.7090  142.9570 O   0  0  0  0  0  0  0  0  0  0  0  0
  189.5030  177.2530  144.2300 C   0  0  0  0  0  3  0  0  0  0  0  0
  187.8000  177.5920  148.9970 Cl  0  0  0  0  0  0  0  0  0  0  0  0
  187.0290  178.6170  140.1790 C   0  0  0  0  0  3  0  0  0  0  0  0
  188.2940  177.9330  142.2000 C   0  0  0  0  0  0  0  0  0  0  0  0
  184.6280  178.2850  143.0300 N   0  0  0  0  0  2  0  0  0  0  0  0
  187.6350  177.7280  147.2610 C   0  0  0  0  0  0  0  0  0  0  0  0
  185.8960  178.6500  140.8820 C   0  0  0  0  0  0  0  0  0  0  0  0
  184.6390  179.0880  140.2000 C   0  0  0  0  0  2  0  0  0  0  0  0
  189.4310  177.5420  142.7910 C   0  0  0  0  0  3  0  0  0  0  0  0
  188.4240  177.3230  145.0060 C   0  0  0  0  0  0  0  0  0  0  0  0
  188.5590  177.1800  146.4630 C   0  0  0  0  0  3  0  0  0  0  0  0
  189.4730  178.2440  139.9760 C   0  0  0  0  0  2  0  0  0  0  0  0
  189.8580  173.4480  136.5980 C   0  0  1  0  0  3  0  0  0  0  0  0
  188.7500  176.7080  138.1090 N   0  0  0  0  0  2  0  0  0  0  0  0
  187.7880  174.1150  135.4480 C   0  0  0  0  0  2  0  0  0  0  0  0
  190.4720  176.1220  139.5910 O   0  0  0  0  0  0  0  0  0  0  0  0
  191.2580  173.1040  136.4370 N   0  0  0  0  0  1  0  0  0  0  0  0
  189.6010  176.9580  139.2340 C   0  0  0  0  0  0  0  0  0  0  0  0
  189.7380  174.6660  137.4030 N   0  0  0  0  0  0  0  0  0  0  0  0
  187.8250  175.4890  136.1090 C   0  0  0  0  0  2  0  0  0  0  0  0
  188.7970  175.5560  137.2590 C   0  0  0  0  0  0  0  0  0  0  0  0
  189.2040  173.6120  135.2330 C   0  0  0  0  0  2  0  0  0  0  0  0
  1  9  2  0  0  0  0
  1 14  1  0  0  0  0
  2  3  1  0  0  0  0
  3 19  1  0  0  0  0
  3  7  1  1  0  0  0
  4 15  1  0  0  0  0
  5  2  2  0  0  0  0
  5 14  1  0  0  0  0
  6  1  1  0  0  0  0
  7  4  2  0  0  0  0
  8 13  1  0  0  0  0
 10 19  2  0  0  0  0
 12  8  1  0  0  0  0
 12 16  2  0  0  0  0
 13 18  2  0  0  0  0
 13  2  1  0  0  0  0
 15 11  1  0  0  0  0
 16  5  1  0  0  0  0
 17  6  1  0  0  0  0
 17 16  1  0  0  0  0
 18 10  1  0  0  0  0
 19 20  1  0  0  0  0
 20 15  2  0  0  0  0
 21  8  1  0  0  0  0
 22 26  1  6  0  0  0
 22 28  1  0  0  0  0
 23 27  1  0  0  0  0
 24 29  1  0  0  0  0
 27 25  2  0  0  0  0
 27 21  1  0  0  0  0
 29 30  1  0  0  0  0
 30 28  2  0  0  0  0
 30 23  1  0  0  0  0
 31 24  1  0  0  0  0
 31 22  1  0  0  0  0
M  END
>  <MODEL>
1

>  <REMARK>
 VINA RESULT:      -9.8      0.000      0.000
  Name = 
  2 active torsions:
  status: ('A' for Active; 'I' for Inactive)
    1  A    between atoms: C_9  and  C_23
    2  A    between atoms: N_15  and  C_23
                            x       y       z     vdW  Elec       q    Type
                         _______ _______ _______ _____ _____    ______ ____

>  <TORSDO>
F 2

$$$$
=
 OpenBabel11052413013D

 31 35  0  0  1  0  0  0  0  0999 V2000
  185.2650  178.2730  144.4080 C   0  0  0  0  0  0  0  0  0  0  0  0
  188.6690  177.5980  143.0550 C   0  0  0  0  0  0  0  0  0  0  0  0
  189.3400  176.9370  144.2490 C   0  0  2  0  0  3  0  0  0  0  0  0
  190.1490  177.4920  146.5240 C   0  0  0  0  0  3  0  0  0  0  0  0
  187.4030  178.0670  143.1190 C   0  0  0  0  0  0  0  0  0  0  0  0
  184.2700  178.1800  142.9200 S   0  0  0  0  0  0  0  0  0  0  0  0
  189.2900  177.7400  145.5280 C   0  0  0  0  0  3  0  0  0  0  0  0
  188.6730  178.1010  140.5820 N   0  0  0  0  0  0  0  0  0  0  0  0
  184.7300  178.5890  145.5020 O   0  0  0  0  0  0  0  0  0  0  0  0
  191.2850  176.4490  142.7650 C   0  0  0  0  0  3  0  0  0  0  0  0
  192.2230  176.0620  147.7370 Cl  0  0  0  0  0  0  0  0  0  0  0  0
  187.3690  178.6670  140.7340 C   0  0  0  0  0  3  0  0  0  0  0  0
  189.3480  177.5550  141.7320 C   0  0  0  0  0  0  0  0  0  0  0  0
  186.6650  178.0040  144.3480 N   0  0  0  0  0  2  0  0  0  0  0  0
  191.2460  176.5110  146.3570 C   0  0  0  0  0  0  0  0  0  0  0  0
  186.7480  178.6540  141.9140 C   0  0  0  0  0  0  0  0  0  0  0  0
  185.3980  179.2880  142.0250 C   0  0  0  0  0  2  0  0  0  0  0  0
  190.5570  176.9900  141.6100 C   0  0  0  0  0  3  0  0  0  0  0  0
  190.7530  176.4550  143.9860 C   0  0  0  0  0  0  0  0  0  0  0  0
  191.5650  176.0500  145.1420 C   0  0  0  0  0  3  0  0  0  0  0  0
  189.3100  178.1700  139.2710 C   0  0  0  0  0  2  0  0  0  0  0  0
  185.3240  176.2630  135.3930 C   0  0  1  0  0  3  0  0  0  0  0  0
  188.0540  176.4070  137.9750 N   0  0  0  0  0  2  0  0  0  0  0  0
  186.1010  173.9580  135.7570 C   0  0  0  0  0  2  0  0  0  0  0  0
  187.7600  178.6950  137.5470 O   0  0  0  0  0  0  0  0  0  0  0  0
  184.1830  177.1600  135.4210 N   0  0  0  0  0  1  0  0  0  0  0  0
  188.3380  177.7910  138.2080 C   0  0  0  0  0  0  0  0  0  0  0  0
  186.3150  176.6950  136.3830 N   0  0  0  0  0  0  0  0  0  0  0  0
  186.9340  174.3930  136.9580 C   0  0  0  0  0  2  0  0  0  0  0  0
  187.1010  175.8890  137.0390 C   0  0  0  0  0  0  0  0  0  0  0  0
  184.8660  174.8340  135.6460 C   0  0  0  0  0  2  0  0  0  0  0  0
  1  9  2  0  0  0  0
  2  5  2  0  0  0  0
  2  3  1  0  0  0  0
  3  7  1  1  0  0  0
  5 14  1  0  0  0  0
  6  1  1  0  0  0  0
  7  4  2  0  0  0  0
  8 12  1  0  0  0  0
  8 13  1  0  0  0  0
 10 19  2  0  0  0  0
 12 16  2  0  0  0  0
 13  2  1  0  0  0  0
 14  1  1  0  0  0  0
 15  4  1  0  0  0  0
 15 11  1  0  0  0  0
 16 17  1  0  0  0  0
 16  5  1  0  0  0  0
 17  6  1  0  0  0  0
 18 13  2  0  0  0  0
 18 10  1  0  0  0  0
 19  3  1  0  0  0  0
 19 20  1  0  0  0  0
 20 15  2  0  0  0  0
 21  8  1  0  0  0  0
 22 26  1  1  0  0  0
 22 31  1  0  0  0  0
 22 28  1  0  0  0  0
 23 27  1  0  0  0  0
 24 29  1  0  0  0  0
 25 27  2  0  0  0  0
 27 21  1  0  0  0  0
 28 30  2  0  0  0  0
 29 30  1  0  0  0  0
 30 23  1  0  0  0  0
 31 24  1  0  0  0  0
M  END
>  <MODEL>
2

>  <REMARK>
 VINA RESULT:      -9.7      2.318      3.157
  Name = 
  2 active torsions:
  status: ('A' for Active; 'I' for Inactive)
    1  A    between atoms: C_9  and  C_23
    2  A    between atoms: N_15  and  C_23
                            x       y       z     vdW  Elec       q    Type
                         _______ _______ _______ _____ _____    ______ ____

>  <TORSDO>
F 2

$$$$
=
 OpenBabel11052413013D

 31 35  0  0  1  0  0  0  0  0999 V2000
  182.6050  178.6440  142.8920 C   0  0  0  0  0  0  0  0  0  0  0  0
  186.3000  178.2160  143.0910 C   0  0  0  0  0  0  0  0  0  0  0  0
  186.4760  177.8070  144.5450 C   0  0  2  0  0  3  0  0  0  0  0  0
  186.2740  178.7540  146.8260 C   0  0  0  0  0  3  0  0  0  0  0  0
  185.0880  178.5310  142.5810 C   0  0  0  0  0  0  0  0  0  0  0  0
  182.2950  178.2340  141.1750 S   0  0  0  0  0  0  0  0  0  0  0  0
  185.8710  178.7600  145.5490 C   0  0  0  0  0  3  0  0  0  0  0  0
  187.2620  178.3840  140.7640 N   0  0  0  0  0  0  0  0  0  0  0  0
  181.6600  179.0340  143.6240 O   0  0  0  0  0  0  0  0  0  0  0  0
  188.8770  177.3680  144.0310 C   0  0  0  0  0  3  0  0  0  0  0  0
  187.7720  177.7610  148.9670 Cl  0  0  0  0  0  0  0  0  0  0  0  0
  185.9740  178.8010  140.3030 C   0  0  0  0  0  3  0  0  0  0  0  0
  187.4530  178.0820  142.1590 C   0  0  0  0  0  0  0  0  0  0  0  0
  183.9260  178.5420  143.4230 N   0  0  0  0  0  2  0  0  0  0  0  0
  187.4030  177.9010  147.2630 C   0  0  0  0  0  0  0  0  0  0  0  0
  184.9360  178.8690  141.1360 C   0  0  0  0  0  0  0  0  0  0  0  0
  183.6190  179.3430  140.6090 C   0  0  0  0  0  2  0  0  0  0  0  0
  188.6410  177.6570  142.6100 C   0  0  0  0  0  3  0  0  0  0  0  0
  187.9020  177.4710  144.9320 C   0  0  0  0  0  0  0  0  0  0  0  0
  188.2080  177.3250  146.3620 C   0  0  0  0  0  3  0  0  0  0  0  0
  188.3640  178.3550  139.8080 C   0  0  0  0  0  2  0  0  0  0  0  0
  186.4150  175.7920  134.8890 C   0  0  1  0  0  3  0  0  0  0  0  0
  188.1370  176.4530  138.1670 N   0  0  0  0  0  2  0  0  0  0  0  0
  187.7470  173.7950  135.4250 C   0  0  0  0  0  2  0  0  0  0  0  0
  187.2660  178.5840  137.7120 O   0  0  0  0  0  0  0  0  0  0  0  0
  185.0890  176.3030  134.5940 N   0  0  0  0  0  1  0  0  0  0  0  0
  187.8940  177.8250  138.4980 C   0  0  0  0  0  0  0  0  0  0  0  0
  186.9050  176.3870  136.1360 N   0  0  0  0  0  0  0  0  0  0  0  0
  188.0350  174.3230  136.8270 C   0  0  0  0  0  2  0  0  0  0  0  0
  187.6920  175.7830  136.9810 C   0  0  0  0  0  0  0  0  0  0  0  0
  186.3800  174.2730  134.9690 C   0  0  0  0  0  2  0  0  0  0  0  0
  1 14  1  0  0  0  0
  1  9  2  0  0  0  0
  2  3  1  0  0  0  0
  3 19  1  0  0  0  0
  3  7  1  1  0  0  0
  4 15  1  0  0  0  0
  5  2  2  0  0  0  0
  5 14  1  0  0  0  0
  6  1  1  0  0  0  0
  7  4  2  0  0  0  0
  8 13  1  0  0  0  0
 10 19  2  0  0  0  0
 12  8  1  0  0  0  0
 12 16  2  0  0  0  0
 13 18  2  0  0  0  0
 13  2  1  0  0  0  0
 15 11  1  0  0  0  0
 16  5  1  0  0  0  0
 17 16  1  0  0  0  0
 17  6  1  0  0  0  0
 18 10  1  0  0  0  0
 19 20  1  0  0  0  0
 20 15  2  0  0  0  0
 21  8  1  0  0  0  0
 22 26  1  1  0  0  0
 22 31  1  0  0  0  0
 22 28  1  0  0  0  0
 23 27  1  0  0  0  0
 24 29  1  0  0  0  0
 25 27  2  0  0  0  0
 27 21  1  0  0  0  0
 28 30  2  0  0  0  0
 29 30  1  0  0  0  0
 30 23  1  0  0  0  0
 31 24  1  0  0  0  0
M  END
>  <MODEL>
3

>  <REMARK>
 VINA RESULT:      -9.5      1.604      2.089
  Name = 
  2 active torsions:
  status: ('A' for Active; 'I' for Inactive)
    1  A    between atoms: C_9  and  C_23
    2  A    between atoms: N_15  and  C_23
                            x       y       z     vdW  Elec       q    Type
                         _______ _______ _______ _____ _____    ______ ____

>  <TORSDO>
F 2

$$$$
=
 OpenBabel11052413013D

 31 35  0  0  1  0  0  0  0  0999 V2000
  185.0900  178.3780  145.4290 C   0  0  0  0  0  0  0  0  0  0  0  0
  188.2950  177.7900  143.6250 C   0  0  0  0  0  0  0  0  0  0  0  0
  189.1060  177.0610  144.6840 C   0  0  2  0  0  3  0  0  0  0  0  0
  190.1960  177.4820  146.8690 C   0  0  0  0  0  3  0  0  0  0  0  0
  187.0490  178.2530  143.8730 C   0  0  0  0  0  0  0  0  0  0  0  0
  183.9170  178.3720  144.0740 S   0  0  0  0  0  0  0  0  0  0  0  0
  189.2200  177.7870  146.0040 C   0  0  0  0  0  3  0  0  0  0  0  0
  187.9940  178.4400  141.2050 N   0  0  0  0  0  0  0  0  0  0  0  0
  184.6980  178.6280  146.5980 O   0  0  0  0  0  0  0  0  0  0  0  0
  190.8480  176.6660  142.9430 C   0  0  0  0  0  3  0  0  0  0  0  0
  192.3970  175.9860  147.7260 Cl  0  0  0  0  0  0  0  0  0  0  0  0
  186.7220  178.9940  141.5510 C   0  0  0  0  0  3  0  0  0  0  0  0
  188.8040  177.8280  142.2260 C   0  0  0  0  0  0  0  0  0  0  0  0
  186.4710  178.1160  145.1790 N   0  0  0  0  0  2  0  0  0  0  0  0
  191.2580  176.5150  146.5090 C   0  0  0  0  0  0  0  0  0  0  0  0
  186.2530  178.9090  142.7960 C   0  0  0  0  0  0  0  0  0  0  0  0
  184.9310  179.5330  143.1120 C   0  0  0  0  0  2  0  0  0  0  0  0
  189.9850  177.2730  141.9210 C   0  0  0  0  0  3  0  0  0  0  0  0
  190.4720  176.5990  144.2190 C   0  0  0  0  0  0  0  0  0  0  0  0
  191.4200  176.1270  145.2380 C   0  0  0  0  0  3  0  0  0  0  0  0
  188.4620  178.5880  139.8310 C   0  0  0  0  0  2  0  0  0  0  0  0
  184.6300  176.1980  136.0670 C   0  0  1  0  0  3  0  0  0  0  0  0
  186.1800  178.2540  138.8080 N   0  0  0  0  0  2  0  0  0  0  0  0
  182.8080  177.4290  137.1700 C   0  0  0  0  0  2  0  0  0  0  0  0
  188.0160  176.9340  138.1830 O   0  0  0  0  0  0  0  0  0  0  0  0
  185.3120  175.9400  134.8120 N   0  0  0  0  0  1  0  0  0  0  0  0
  187.5550  177.8630  138.8980 C   0  0  0  0  0  0  0  0  0  0  0  0
  185.5560  176.8330  137.0090 N   0  0  0  0  0  0  0  0  0  0  0  0
  183.8090  178.2660  137.9600 C   0  0  0  0  0  2  0  0  0  0  0  0
  185.2050  177.7010  137.9160 C   0  0  0  0  0  0  0  0  0  0  0  0
  183.4010  177.0620  135.8210 C   0  0  0  0  0  2  0  0  0  0  0  0
  1  9  2  0  0  0  0
  2  5  2  0  0  0  0
  2  3  1  0  0  0  0
  3  7  1  1  0  0  0
  5 14  1  0  0  0  0
  6  1  1  0  0  0  0
  7  4  2  0  0  0  0
  8 12  1  0  0  0  0
  8 13  1  0  0  0  0
 10 19  2  0  0  0  0
 12 16  2  0  0  0  0
 13  2  1  0  0  0  0
 14  1  1  0  0  0  0
 15  4  1  0  0  0  0
 15 11  1  0  0  0  0
 16 17  1  0  0  0  0
 16  5  1  0  0  0  0
 17  6  1  0  0  0  0
 18 13  2  0  0  0  0
 18 10  1  0  0  0  0
 19  3  1  0  0  0  0
 19 20  1  0  0  0  0
 20 15  2  0  0  0  0
 21  8  1  0  0  0  0
 22 26  1  6  0  0  0
 22 28  1  0  0  0  0
 23 27  1  0  0  0  0
 24 29  1  0  0  0  0
 25 27  2  0  0  0  0
 27 21  1  0  0  0  0
 28 30  2  0  0  0  0
 30 29  1  0  0  0  0
 30 23  1  0  0  0  0
 31 22  1  0  0  0  0
 31 24  1  0  0  0  0
M  END
>  <MODEL>
4

>  <REMARK>
 VINA RESULT:      -9.0      3.001      3.686
  Name = 
  2 active torsions:
  status: ('A' for Active; 'I' for Inactive)
    1  A    between atoms: C_9  and  C_23
    2  A    between atoms: N_15  and  C_23
                            x       y       z     vdW  Elec       q    Type
                         _______ _______ _______ _____ _____    ______ ____

>  <TORSDO>
F 2

$$$$
=
 OpenBabel11052413013D

 31 35  0  0  1  0  0  0  0  0999 V2000
  186.0420  178.3700  138.7060 C   0  0  0  0  0  0  0  0  0  0  0  0
  188.1620  177.8770  141.7290 C   0  0  0  0  0  0  0  0  0  0  0  0
  187.1060  177.7140  142.8120 C   0  0  2  0  0  3  0  0  0  0  0  0
  185.3840  179.0370  144.0050 C   0  0  0  0  0  3  0  0  0  0  0  0
  187.8310  178.1360  140.4440 C   0  0  0  0  0  0  0  0  0  0  0  0
  187.0920  177.6860  137.4250 S   0  0  0  0  0  0  0  0  0  0  0  0
  186.1020  178.8400  142.8910 C   0  0  0  0  0  3  0  0  0  0  0  0
  190.5650  177.6240  141.0020 N   0  0  0  0  0  0  0  0  0  0  0  0
  184.9460  178.9050  138.4010 O   0  0  0  0  0  0  0  0  0  0  0  0
  188.9500  177.1270  144.3870 C   0  0  0  0  0  3  0  0  0  0  0  0
  184.5550  178.3770  146.5920 Cl  0  0  0  0  0  0  0  0  0  0  0  0
  190.1640  177.9940  139.6800 C   0  0  0  0  0  3  0  0  0  0  0  0
  189.5800  177.5560  142.0500 C   0  0  0  0  0  0  0  0  0  0  0  0
  186.4580  178.3220  140.0710 N   0  0  0  0  0  2  0  0  0  0  0  0
  185.6380  178.2380  145.2260 C   0  0  0  0  0  0  0  0  0  0  0  0
  188.8840  178.2300  139.3920 C   0  0  0  0  0  0  0  0  0  0  0  0
  188.5230  178.6460  138.0020 C   0  0  0  0  0  2  0  0  0  0  0  0
  189.9240  177.1800  143.2890 C   0  0  0  0  0  3  0  0  0  0  0  0
  187.6640  177.4080  144.1870 C   0  0  0  0  0  0  0  0  0  0  0  0
  186.7470  177.4960  145.3330 C   0  0  0  0  0  3  0  0  0  0  0  0
  191.9840  177.4040  141.2580 C   0  0  0  0  0  2  0  0  0  0  0  0
  194.3340  176.3670  135.9700 C   0  0  1  0  0  3  0  0  0  0  0  0
  192.0360  176.3950  138.9460 N   0  0  0  0  0  2  0  0  0  0  0  0
  192.4550  174.8660  135.4500 C   0  0  0  0  0  2  0  0  0  0  0  0
  193.8710  177.5650  139.8210 O   0  0  0  0  0  0  0  0  0  0  0  0
  195.0780  177.5420  135.5540 N   0  0  0  0  0  1  0  0  0  0  0  0
  192.7010  177.1280  139.9820 C   0  0  0  0  0  0  0  0  0  0  0  0
  193.7040  176.6170  137.2690 N   0  0  0  0  0  0  0  0  0  0  0  0
  191.6950  175.3370  136.6860 C   0  0  0  0  0  2  0  0  0  0  0  0
  192.5650  176.1090  137.6460 C   0  0  0  0  0  0  0  0  0  0  0  0
  193.3050  176.0020  134.9090 C   0  0  0  0  0  2  0  0  0  0  0  0
  1 14  1  0  0  0  0
  2 13  1  0  0  0  0
  2  3  1  0  0  0  0
  3  7  1  1  0  0  0
  3 19  1  0  0  0  0
  4 15  1  0  0  0  0
  5  2  2  0  0  0  0
  6 17  1  0  0  0  0
  6  1  1  0  0  0  0
  7  4  2  0  0  0  0
  8 21  1  0  0  0  0
  8 13  1  0  0  0  0
  9  1  2  0  0  0  0
 12  8  1  0  0  0  0
 13 18  2  0  0  0  0
 14  5  1  0  0  0  0
 15 20  2  0  0  0  0
 15 11  1  0  0  0  0
 16 12  2  0  0  0  0
 16  5  1  0  0  0  0
 17 16  1  0  0  0  0
 18 10  1  0  0  0  0
 19 10  2  0  0  0  0
 19 20  1  0  0  0  0
 22 26  1  6  0  0  0
 22 28  1  0  0  0  0
 23 27  1  0  0  0  0
 24 29  1  0  0  0  0
 25 27  2  0  0  0  0
 27 21  1  0  0  0  0
 28 30  2  0  0  0  0
 29 30  1  0  0  0  0
 30 23  1  0  0  0  0
 31 24  1  0  0  0  0
 31 22  1  0  0  0  0
M  END
>  <MODEL>
5

>  <REMARK>
 VINA RESULT:      -9.0      2.968      3.578
  Name = 
  2 active torsions:
  status: ('A' for Active; 'I' for Inactive)
    1  A    between atoms: C_9  and  C_23
    2  A    between atoms: N_15  and  C_23
                            x       y       z     vdW  Elec       q    Type
                         _______ _______ _______ _____ _____    ______ ____

>  <TORSDO>
F 2

$$$$
=
 OpenBabel11052413013D

 31 35  0  0  1  0  0  0  0  0999 V2000
  189.2040  178.2030  139.3390 C   0  0  0  0  0  0  0  0  0  0  0  0
  186.0660  178.3570  141.3400 C   0  0  0  0  0  0  0  0  0  0  0  0
  186.6170  178.4160  142.7570 C   0  0  2  0  0  3  0  0  0  0  0  0
  187.8130  176.9920  144.3940 C   0  0  0  0  0  3  0  0  0  0  0  0
  186.8760  178.2370  140.2650 C   0  0  0  0  0  0  0  0  0  0  0  0
  188.6930  179.0070  137.8210 S   0  0  0  0  0  0  0  0  0  0  0  0
  187.5680  177.2980  143.1130 C   0  0  0  0  0  3  0  0  0  0  0  0
  184.1160  178.6630  139.7680 N   0  0  0  0  0  0  0  0  0  0  0  0
  190.3580  177.7130  139.4320 O   0  0  0  0  0  0  0  0  0  0  0  0
  184.2840  178.8190  143.5450 C   0  0  0  0  0  3  0  0  0  0  0  0
  187.5540  177.3860  147.1500 Cl  0  0  0  0  0  0  0  0  0  0  0  0
  185.0110  178.4370  138.6750 C   0  0  0  0  0  3  0  0  0  0  0  0
  184.6200  178.6300  141.1170 C   0  0  0  0  0  0  0  0  0  0  0  0
  188.2950  178.1040  140.4360 N   0  0  0  0  0  2  0  0  0  0  0  0
  187.0720  177.6570  145.4900 C   0  0  0  0  0  0  0  0  0  0  0  0
  186.3130  178.2440  138.8840 C   0  0  0  0  0  0  0  0  0  0  0  0
  187.1990  177.9790  137.7090 C   0  0  0  0  0  2  0  0  0  0  0  0
  183.8090  178.8720  142.1560 C   0  0  0  0  0  3  0  0  0  0  0  0
  185.5610  178.5720  143.8320 C   0  0  0  0  0  0  0  0  0  0  0  0
  185.9720  178.3730  145.2300 C   0  0  0  0  0  3  0  0  0  0  0  0
  182.6980  178.8420  139.4760 C   0  0  0  0  0  2  0  0  0  0  0  0
  181.3150  183.9110  136.8380 C   0  0  1  0  0  3  0  0  0  0  0  0
  181.2250  180.3760  138.1170 N   0  0  0  0  0  2  0  0  0  0  0  0
  179.2710  182.8690  135.9490 C   0  0  0  0  0  2  0  0  0  0  0  0
  183.3880  181.0060  138.7740 O   0  0  0  0  0  0  0  0  0  0  0  0
  181.8560  185.0050  137.6220 N   0  0  0  0  0  1  0  0  0  0  0  0
  182.4780  180.1340  138.7680 C   0  0  0  0  0  0  0  0  0  0  0  0
  181.6110  182.6370  137.4990 N   0  0  0  0  0  0  0  0  0  0  0  0
  179.4630  181.6500  136.8460 C   0  0  0  0  0  2  0  0  0  0  0  0
  180.8410  181.5860  137.4540 C   0  0  0  0  0  0  0  0  0  0  0  0
  179.8170  184.1050  136.6420 C   0  0  0  0  0  2  0  0  0  0  0  0
  1  9  2  0  0  0  0
  1 14  1  0  0  0  0
  2  3  1  0  0  0  0
  3  7  1  1  0  0  0
  3 19  1  0  0  0  0
  4 15  1  0  0  0  0
  5 14  1  0  0  0  0
  5  2  2  0  0  0  0
  6  1  1  0  0  0  0
  7  4  2  0  0  0  0
  8 13  1  0  0  0  0
 10 19  2  0  0  0  0
 12 16  2  0  0  0  0
 12  8  1  0  0  0  0
 13  2  1  0  0  0  0
 13 18  2  0  0  0  0
 15 11  1  0  0  0  0
 16  5  1  0  0  0  0
 17  6  1  0  0  0  0
 17 16  1  0  0  0  0
 18 10  1  0  0  0  0
 19 20  1  0  0  0  0
 20 15  2  0  0  0  0
 21  8  1  0  0  0  0
 22 28  1  0  0  0  0
 22 26  1  1  0  0  0
 23 27  1  0  0  0  0
 24 31  1  0  0  0  0
 24 29  1  0  0  0  0
 27 25  2  0  0  0  0
 27 21  1  0  0  0  0
 29 30  1  0  0  0  0
 30 28  2  0  0  0  0
 30 23  1  0  0  0  0
 31 22  1  0  0  0  0
M  END
>  <MODEL>
6

>  <REMARK>
 VINA RESULT:      -8.9      4.156      7.433
  Name = 
  2 active torsions:
  status: ('A' for Active; 'I' for Inactive)
    1  A    between atoms: C_9  and  C_23
    2  A    between atoms: N_15  and  C_23
                            x       y       z     vdW  Elec       q    Type
                         _______ _______ _______ _____ _____    ______ ____

>  <TORSDO>
F 2

$$$$
=
 OpenBabel11052413013D

 31 35  0  0  1  0  0  0  0  0999 V2000
  191.1880  177.0370  142.1570 C   0  0  0  0  0  0  0  0  0  0  0  0
  187.6990  177.9890  141.2660 C   0  0  0  0  0  0  0  0  0  0  0  0
  187.1300  178.3510  142.6300 C   0  0  2  0  0  3  0  0  0  0  0  0
  186.4910  177.2790  144.7700 C   0  0  0  0  0  3  0  0  0  0  0  0
  188.9600  177.5250  141.1210 C   0  0  0  0  0  0  0  0  0  0  0  0
  192.0660  177.4780  140.6580 S   0  0  0  0  0  0  0  0  0  0  0  0
  187.2680  177.2730  143.6790 C   0  0  0  0  0  3  0  0  0  0  0  0
  187.4970  178.0730  138.7520 N   0  0  0  0  0  0  0  0  0  0  0  0
  191.8010  176.4790  143.1030 O   0  0  0  0  0  0  0  0  0  0  0  0
  185.0830  179.1590  141.4550 C   0  0  0  0  0  3  0  0  0  0  0  0
  184.5350  178.3770  146.4380 Cl  0  0  0  0  0  0  0  0  0  0  0  0
  188.8030  177.4940  138.6670 C   0  0  0  0  0  3  0  0  0  0  0  0
  186.9200  178.3340  140.0450 C   0  0  0  0  0  0  0  0  0  0  0  0
  189.7900  177.3050  142.2700 N   0  0  0  0  0  2  0  0  0  0  0  0
  185.3970  178.2660  144.9200 C   0  0  0  0  0  0  0  0  0  0  0  0
  189.5120  177.2370  139.7660 C   0  0  0  0  0  0  0  0  0  0  0  0
  190.8580  176.6020  139.6210 C   0  0  0  0  0  2  0  0  0  0  0  0
  185.7130  178.9050  140.1520 C   0  0  0  0  0  3  0  0  0  0  0  0
  185.7080  178.8730  142.5960 C   0  0  0  0  0  0  0  0  0  0  0  0
  184.9920  178.9940  143.8740 C   0  0  0  0  0  3  0  0  0  0  0  0
  186.7610  178.3070  137.5140 C   0  0  0  0  0  2  0  0  0  0  0  0
  183.4630  173.5000  136.7490 C   0  0  1  0  0  3  0  0  0  0  0  0
  186.3800  175.8350  137.1800 N   0  0  0  0  0  2  0  0  0  0  0  0
  185.5100  172.1580  136.5060 C   0  0  0  0  0  2  0  0  0  0  0  0
  184.6160  177.3790  137.0820 O   0  0  0  0  0  0  0  0  0  0  0  0
  182.2220  173.6670  137.4830 N   0  0  0  0  0  1  0  0  0  0  0  0
  185.8470  177.1630  137.2360 C   0  0  0  0  0  0  0  0  0  0  0  0
  184.3210  174.6700  136.9590 N   0  0  0  0  0  0  0  0  0  0  0  0
  186.3710  173.3250  136.9790 C   0  0  0  0  0  2  0  0  0  0  0  0
  185.6230  174.6330  136.9880 C   0  0  0  0  0  0  0  0  0  0  0  0
  184.1530  172.2150  137.1840 C   0  0  0  0  0  2  0  0  0  0  0  0
  1 14  1  0  0  0  0
  1  9  2  0  0  0  0
  2  3  1  0  0  0  0
  3  7  1  1  0  0  0
  4 15  1  0  0  0  0
  5  2  2  0  0  0  0
  5 14  1  0  0  0  0
  6  1  1  0  0  0  0
  7  4  2  0  0  0  0
  8 13  1  0  0  0  0
 10 19  2  0  0  0  0
 12  8  1  0  0  0  0
 12 16  2  0  0  0  0
 13 18  2  0  0  0  0
 13  2  1  0  0  0  0
 15 11  1  0  0  0  0
 16  5  1  0  0  0  0
 17 16  1  0  0  0  0
 17  6  1  0  0  0  0
 18 10  1  0  0  0  0
 19  3  1  0  0  0  0
 19 20  1  0  0  0  0
 20 15  2  0  0  0  0
 21  8  1  0  0  0  0
 22 28  1  0  0  0  0
 22 31  1  0  0  0  0
 22 26  1  1  0  0  0
 23 27  1  0  0  0  0
 24 29  1  0  0  0  0
 24 31  1  0  0  0  0
 25 27  2  0  0  0  0
 27 21  1  0  0  0  0
 28 30  2  0  0  0  0
 29 30  1  0  0  0  0
 30 23  1  0  0  0  0
M  END
>  <MODEL>
7

>  <REMARK>
 VINA RESULT:      -8.9      3.316      5.038
  Name = 
  2 active torsions:
  status: ('A' for Active; 'I' for Inactive)
    1  A    between atoms: C_9  and  C_23
    2  A    between atoms: N_15  and  C_23
                            x       y       z     vdW  Elec       q    Type
                         _______ _______ _______ _____ _____    ______ ____

>  <TORSDO>
F 2

$$$$
=
 OpenBabel11052413013D

 31 35  0  0  1  0  0  0  0  0999 V2000
  190.0160  178.2520  144.5620 C   0  0  0  0  0  0  0  0  0  0  0  0
  188.1170  178.1020  141.3610 C   0  0  0  0  0  0  0  0  0  0  0  0
  186.7560  178.6230  141.7960 C   0  0  0  0  0  0  0  0  0  0  0  0
  184.8210  177.9560  143.1930 C   0  0  0  0  0  3  0  0  0  0  0  0
  189.1300  177.9350  142.2400 C   0  0  0  0  0  0  0  0  0  0  0  0
  191.6840  178.5310  143.9690 S   0  0  0  0  0  0  0  0  0  0  0  0
  186.1380  177.8840  142.9600 C   0  0  0  0  0  3  0  0  0  0  0  0
  189.7200  177.5480  139.4930 N   0  0  0  0  0  0  0  0  0  0  0  0
  189.8050  178.0940  145.7920 O   0  0  0  0  0  0  0  0  0  0  0  0
  186.0920  178.6180  139.3910 C   0  0  0  0  0  3  0  0  0  0  0  0
  182.2420  178.9080  142.6830 Cl  0  0  0  0  0  0  0  0  0  0  0  0
  190.7240  177.2970  140.4800 C   0  0  0  0  0  3  0  0  0  0  0  0
  188.4020  177.9550  139.9080 C   0  0  0  0  0  0  0  0  0  0  0  0
  188.9290  178.1940  143.6380 N   0  0  0  0  0  2  0  0  0  0  0  0
  183.9190  178.6570  142.2510 C   0  0  0  0  0  0  0  0  0  0  0  0
  190.4730  177.4810  141.7760 C   0  0  0  0  0  0  0  0  0  0  0  0
  191.5480  177.1730  142.7690 C   0  0  0  0  0  2  0  0  0  0  0  0
  187.4540  178.2280  139.0010 C   0  0  0  0  0  3  0  0  0  0  0  0
  185.7510  178.7640  140.6700 C   0  0  0  0  0  0  0  0  0  0  0  0
  184.3470  179.0030  141.0310 C   0  0  0  0  0  2  0  0  0  0  0  0
  190.0490  177.3030  138.0930 C   0  0  0  0  0  2  0  0  0  0  0  0
  194.7510  173.8030  137.6410 C   0  0  1  0  0  3  0  0  0  0  0  0
  192.2740  176.5880  137.1410 N   0  0  0  0  0  2  0  0  0  0  0  0
  195.5710  175.1780  135.7730 C   0  0  0  0  0  2  0  0  0  0  0  0
  191.1020  175.2530  138.6740 O   0  0  0  0  0  0  0  0  0  0  0  0
  195.0560  173.2620  138.9530 N   0  0  0  0  0  1  0  0  0  0  0  0
  191.1550  176.3100  137.9910 C   0  0  0  0  0  0  0  0  0  0  0  0
  193.6060  174.7120  137.7360 N   0  0  0  0  0  0  0  0  0  0  0  0
  194.5210  176.2470  136.0560 C   0  0  0  0  0  2  0  0  0  0  0  0
  193.4380  175.7670  136.9880 C   0  0  0  0  0  0  0  0  0  0  0  0
  195.9770  174.5030  137.0710 C   0  0  0  0  0  2  0  0  0  0  0  0
  1  9  2  0  0  0  0
  2  3  1  0  0  0  0
  2  5  2  0  0  0  0
  3  7  2  0  0  0  0
  5 14  1  0  0  0  0
  6  1  1  0  0  0  0
  7  4  1  0  0  0  0
  8 13  1  0  0  0  0
  8 12  1  0  0  0  0
 10 19  2  0  0  0  0
 12 16  2  0  0  0  0
 13  2  1  0  0  0  0
 14  1  1  0  0  0  0
 15 11  1  0  0  0  0
 15  4  2  0  0  0  0
 16  5  1  0  0  0  0
 16 17  1  0  0  0  0
 17  6  1  0  0  0  0
 18 10  1  0  0  0  0
 18 13  2  0  0  0  0
 19 20  1  0  0  0  0
 19  3  1  0  0  0  0
 20 15  1  0  0  0  0
 21  8  1  0  0  0  0
 22 28  1  0  0  0  0
 22 26  1  1  0  0  0
 23 27  1  0  0  0  0
 24 29  1  0  0  0  0
 24 31  1  0  0  0  0
 27 21  1  0  0  0  0
 27 25  2  0  0  0  0
 29 30  1  0  0  0  0
 30 23  1  0  0  0  0
 30 28  2  0  0  0  0
 31 22  1  0  0  0  0
M  END
>  <MODEL>
8

>  <REMARK>
 VINA RESULT:      -8.8      3.717      5.315
  Name = 
  2 active torsions:
  status: ('A' for Active; 'I' for Inactive)
    1  A    between atoms: C_9  and  C_23
    2  A    between atoms: N_15  and  C_23
                            x       y       z     vdW  Elec       q    Type
                         _______ _______ _______ _____ _____    ______ ____

>  <TORSDO>
F 2

$$$$
=
 OpenBabel11052413013D

 31 35  0  0  1  0  0  0  0  0999 V2000
  191.1620  177.0540  142.0950 C   0  0  0  0  0  0  0  0  0  0  0  0
  187.6150  177.9570  141.4000 C   0  0  0  0  0  0  0  0  0  0  0  0
  187.1210  178.3240  142.7910 C   0  0  2  0  0  3  0  0  0  0  0  0
  186.6200  177.2620  144.9730 C   0  0  0  0  0  3  0  0  0  0  0  0
  188.8720  177.5060  141.1850 C   0  0  0  0  0  0  0  0  0  0  0  0
  191.9470  177.4910  140.5450 S   0  0  0  0  0  0  0  0  0  0  0  0
  187.3330  177.2570  143.8390 C   0  0  0  0  0  3  0  0  0  0  0  0
  187.2690  178.0160  138.9010 N   0  0  0  0  0  0  0  0  0  0  0  0
  191.8350  176.5110  143.0090 O   0  0  0  0  0  0  0  0  0  0  0  0
  185.0000  179.0970  141.7300 C   0  0  0  0  0  3  0  0  0  0  0  0
  184.7500  178.3520  146.7420 Cl  0  0  0  0  0  0  0  0  0  0  0  0
  188.5740  177.4520  138.7450 C   0  0  0  0  0  3  0  0  0  0  0  0
  186.7630  178.2810  140.2230 C   0  0  0  0  0  0  0  0  0  0  0  0
  189.7690  177.3060  142.2870 N   0  0  0  0  0  2  0  0  0  0  0  0
  185.5250  178.2380  145.1780 C   0  0  0  0  0  0  0  0  0  0  0  0
  189.3490  177.2130  139.8030 C   0  0  0  0  0  0  0  0  0  0  0  0
  190.6920  176.5920  139.5860 C   0  0  0  0  0  2  0  0  0  0  0  0
  185.5570  178.8390  140.3950 C   0  0  0  0  0  3  0  0  0  0  0  0
  185.6930  178.8280  142.8350 C   0  0  0  0  0  0  0  0  0  0  0  0
  185.0510  178.9520  144.1510 C   0  0  0  0  0  3  0  0  0  0  0  0
  186.4600  178.2300  137.7060 C   0  0  0  0  0  2  0  0  0  0  0  0
  183.1040  173.6260  136.2560 C   0  0  1  0  0  3  0  0  0  0  0  0
  184.3450  176.8540  137.7320 N   0  0  0  0  0  2  0  0  0  0  0  0
  181.3250  174.4860  137.7220 C   0  0  0  0  0  2  0  0  0  0  0  0
  186.3080  176.0770  136.7110 O   0  0  0  0  0  0  0  0  0  0  0  0
  183.4470  173.2070  134.9100 N   0  0  0  0  0  1  0  0  0  0  0  0
  185.7210  176.9850  137.3560 C   0  0  0  0  0  0  0  0  0  0  0  0
  183.8990  174.8000  136.6250 N   0  0  0  0  0  0  0  0  0  0  0  0
  182.0570  175.8140  137.8860 C   0  0  0  0  0  2  0  0  0  0  0  0
  183.4860  175.7530  137.4130 C   0  0  0  0  0  0  0  0  0  0  0  0
  181.6110  173.9100  136.3460 C   0  0  0  0  0  2  0  0  0  0  0  0
  1 14  1  0  0  0  0
  1  9  2  0  0  0  0
  2  3  1  0  0  0  0
  3 19  1  0  0  0  0
  3  7  1  1  0  0  0
  4 15  1  0  0  0  0
  5  2  2  0  0  0  0
  5 14  1  0  0  0  0
  6  1  1  0  0  0  0
  7  4  2  0  0  0  0
  8 13  1  0  0  0  0
 10 19  2  0  0  0  0
 12  8  1  0  0  0  0
 12 16  2  0  0  0  0
 13 18  2  0  0  0  0
 13  2  1  0  0  0  0
 15 11  1  0  0  0  0
 16  5  1  0  0  0  0
 17 16  1  0  0  0  0
 17  6  1  0  0  0  0
 18 10  1  0  0  0  0
 19 20  1  0  0  0  0
 20 15  2  0  0  0  0
 21  8  1  0  0  0  0
 22 26  1  6  0  0  0
 22 31  1  0  0  0  0
 22 28  1  0  0  0  0
 24 29  1  0  0  0  0
 25 27  2  0  0  0  0
 27 21  1  0  0  0  0
 27 23  1  0  0  0  0
 28 30  2  0  0  0  0
 30 23  1  0  0  0  0
 30 29  1  0  0  0  0
 31 24  1  0  0  0  0
M  END
>  <MODEL>
9

>  <REMARK>
 VINA RESULT:      -8.6      3.646      5.287
  Name = 
  2 active torsions:
  status: ('A' for Active; 'I' for Inactive)
    1  A    between atoms: C_9  and  C_23
    2  A    between atoms: N_15  and  C_23
                            x       y       z     vdW  Elec       q    Type
                         _______ _______ _______ _____ _____    ______ ____

>  <TORSDO>
F 2

$$$$
