=
 OpenBabel11052416483D

 32 37  0  0  1  0  0  0  0  0999 V2000
  186.9660  177.7000  142.0260 C   0  0  1  0  0  3  0  0  0  0  0  0
  183.5020  178.8950  145.3450 C   0  0  0  0  0  3  0  0  0  0  0  0
  184.4680  178.9040  146.3520 C   0  0  0  0  0  3  0  0  0  0  0  0
  186.4960  178.6760  139.8280 N   0  0  0  0  0  0  0  0  0  0  0  0
  184.5140  178.0140  141.3190 C   0  0  0  0  0  2  0  0  0  0  0  0
  184.3010  178.5950  139.0210 O   0  0  0  0  0  0  0  0  0  0  0  0
  183.8660  178.5950  144.0300 C   0  0  0  0  0  3  0  0  0  0  0  0
  185.5420  178.0180  142.4210 C   0  0  0  0  0  0  0  0  0  0  0  0
  185.2000  178.2990  143.6990 C   0  0  0  0  0  0  0  0  0  0  0  0
  187.4490  178.0310  144.4840 C   0  0  0  0  0  3  0  0  0  0  0  0
  185.0810  178.4620  140.0000 C   0  0  0  0  0  0  0  0  0  0  0  0
  185.7970  178.6120  146.0440 C   0  0  0  0  0  3  0  0  0  0  0  0
  186.1710  178.3110  144.7310 C   0  0  0  0  0  0  0  0  0  0  0  0
  187.3950  178.7180  140.9770 C   0  0  0  0  0  2  0  0  0  0  0  0
  187.8960  177.7110  143.1600 N   0  0  0  0  0  0  0  0  0  0  0  0
  189.2790  177.2920  142.9310 C   0  0  2  0  0  3  0  0  0  0  0  0
  189.4500  175.7540  143.1080 C   0  0  0  0  0  2  0  0  0  0  0  0
  190.2680  177.3530  145.0650 N   0  0  1  0  0  0  0  0  0  0  0  0
  191.6050  176.8120  145.2360 C   0  0  0  0  0  2  0  0  0  0  0  0
  191.7830  175.6590  144.2520 C   0  0  0  0  0  3  0  0  0  0  0  0
  190.1260  178.7240  144.9800 O   0  0  0  0  0  0  0  0  0  0  0  0
  190.8790  175.2420  143.3210 C   0  0  0  0  0  3  0  0  0  0  0  0
  191.5240  178.3250  143.1990 O   0  0  0  0  0  1  0  0  0  0  0  0
  190.2700  178.0760  143.7860 C   0  0  2  0  0  0  0  0  0  0  0  0
  187.0480  178.7560  138.5400 N   0  0  0  0  0  2  0  0  0  0  0  0
  187.6150  177.4390  136.6890 O   0  0  0  0  0  0  0  0  0  0  0  0
  187.0010  177.4190  137.9550 C   0  0  1  0  0  3  0  0  0  0  0  0
  188.3530  176.8280  137.7190 C   0  0  2  0  0  3  0  0  0  0  0  0
  189.5310  177.7230  138.0890 C   0  0  0  0  0  2  0  0  0  0  0  0
  190.4930  176.9710  138.9420 C   0  0  0  0  0  0  0  0  0  0  0  0
  191.0110  177.5250  139.9470 O   0  0  0  0  0  0  0  0  0  0  0  0
  190.7980  175.6140  138.6430 N   0  0  0  0  0  1  0  0  0  0  0  0
  1 14  1  6  0  0  0
  1  8  1  0  0  0  0
  1 15  1  0  0  0  0
  2  3  1  0  0  0  0
  4 11  1  0  0  0  0
  4 14  1  0  0  0  0
  5  8  1  0  0  0  0
  6 11  2  0  0  0  0
  7  2  2  0  0  0  0
  8  9  2  0  0  0  0
  9  7  1  0  0  0  0
  9 13  1  0  0  0  0
 10 13  2  0  0  0  0
 11  5  1  0  0  0  0
 12  3  2  0  0  0  0
 13 12  1  0  0  0  0
 15 10  1  0  0  0  0
 16 17  1  1  0  0  0
 16 15  1  0  0  0  0
 16 24  1  0  0  0  0
 17 22  1  0  0  0  0
 18 19  1  1  0  0  0
 20 19  1  0  0  0  0
 21 18  1  0  0  0  0
 22 20  2  0  0  0  0
 24 23  1  6  0  0  0
 24 21  1  0  0  0  0
 24 18  1  0  0  0  0
 25  4  1  0  0  0  0
 26 28  1  0  0  0  0
 26 27  1  0  0  0  0
 27 25  1  1  0  0  0
 28 27  1  0  0  0  0
 28 29  1  1  0  0  0
 29 30  1  0  0  0  0
 30 31  2  0  0  0  0
 32 30  1  0  0  0  0
M  END
>  <MODEL>
1

>  <REMARK>
 VINA RESULT:      -8.9      0.000      0.000
  Name = 
  5 active torsions:
  status: ('A' for Active; 'I' for Inactive)
    1  A    between atoms: C_1  and  C_10
    2  A    between atoms: C_6  and  N_31
    3  A    between atoms: N_8  and  N_23
    4  A    between atoms: C_10  and  C_24
    5  A    between atoms: C_19  and  N_23
                            x       y       z     vdW  Elec       q    Type
                         _______ _______ _______ _____ _____    ______ ____

>  <TORSDO>
F 5

$$$$
=
 OpenBabel11052416483D

 32 37  0  0  1  0  0  0  0  0999 V2000
  187.1840  178.5520  141.5110 C   0  0  1  0  0  3  0  0  0  0  0  0
  187.8480  177.7040  136.6850 C   0  0  0  0  0  3  0  0  0  0  0  0
  189.1550  177.2880  136.9370 C   0  0  0  0  0  3  0  0  0  0  0  0
  184.8760  178.1090  142.2040 N   0  0  0  0  0  0  0  0  0  0  0  0
  185.2900  178.9760  139.8240 C   0  0  0  0  0  2  0  0  0  0  0  0
  183.1370  178.8620  140.8320 O   0  0  0  0  0  0  0  0  0  0  0  0
  187.0330  178.1220  137.7400 C   0  0  0  0  0  3  0  0  0  0  0  0
  186.7080  178.5330  140.0760 C   0  0  0  0  0  0  0  0  0  0  0  0
  187.5100  178.1330  139.0630 C   0  0  0  0  0  0  0  0  0  0  0  0
  189.3530  177.7020  140.5330 C   0  0  0  0  0  3  0  0  0  0  0  0
  184.3680  178.6320  140.9610 C   0  0  0  0  0  0  0  0  0  0  0  0
  189.6480  177.2910  138.2430 C   0  0  0  0  0  3  0  0  0  0  0  0
  188.8400  177.7080  139.3050 C   0  0  0  0  0  0  0  0  0  0  0  0
  186.2580  177.6530  142.3200 C   0  0  0  0  0  2  0  0  0  0  0  0
  188.5780  178.1210  141.6630 N   0  0  0  0  0  0  0  0  0  0  0  0
  189.1970  178.2200  142.9850 C   0  0  2  0  0  3  0  0  0  0  0  0
  190.5870  178.9170  142.9180 C   0  0  0  0  0  2  0  0  0  0  0  0
  190.5060  176.2730  143.1620 N   0  0  1  0  0  0  0  0  0  0  0  0
  191.4130  176.1360  144.2880 C   0  0  0  0  0  2  0  0  0  0  0  0
  191.9070  177.5280  144.6760 C   0  0  0  0  0  3  0  0  0  0  0  0
  189.3060  175.5920  143.2070 O   0  0  0  0  0  0  0  0  0  0  0  0
  191.5180  178.7090  144.1170 C   0  0  0  0  0  3  0  0  0  0  0  0
  189.1290  176.8980  145.0900 O   0  0  0  0  0  1  0  0  0  0  0  0
  189.2720  176.8690  143.6910 C   0  0  2  0  0  0  0  0  0  0  0  0
  184.0730  178.1130  143.3560 N   0  0  0  0  0  2  0  0  0  0  0  0
  183.4290  179.4930  145.1340 O   0  0  0  0  0  0  0  0  0  0  0  0
  184.0440  179.4800  143.8680 C   0  0  1  0  0  3  0  0  0  0  0  0
  184.8270  179.6560  145.1280 C   0  0  2  0  0  3  0  0  0  0  0  0
  185.4790  178.3910  145.6740 C   0  0  0  0  0  2  0  0  0  0  0  0
  186.1430  178.6810  146.9760 C   0  0  0  0  0  0  0  0  0  0  0  0
  185.8390  179.7180  147.6210 O   0  0  0  0  0  0  0  0  0  0  0  0
  187.0920  177.7650  147.5090 N   0  0  0  0  0  1  0  0  0  0  0  0
  1 15  1  0  0  0  0
  1 14  1  1  0  0  0
  2  3  1  0  0  0  0
  2  7  2  0  0  0  0
  3 12  2  0  0  0  0
  4 14  1  0  0  0  0
  4 25  1  0  0  0  0
  5  8  1  0  0  0  0
  5 11  1  0  0  0  0
  6 11  2  0  0  0  0
  7  9  1  0  0  0  0
  8  1  1  0  0  0  0
  9 13  1  0  0  0  0
  9  8  2  0  0  0  0
 10 15  1  0  0  0  0
 11  4  1  0  0  0  0
 12 13  1  0  0  0  0
 13 10  2  0  0  0  0
 16 15  1  6  0  0  0
 16 24  1  0  0  0  0
 17 16  1  0  0  0  0
 17 22  1  0  0  0  0
 18 21  1  0  0  0  0
 18 24  1  0  0  0  0
 18 19  1  1  0  0  0
 19 20  1  0  0  0  0
 21 24  1  0  0  0  0
 22 20  2  0  0  0  0
 24 23  1  1  0  0  0
 27 25  1  1  0  0  0
 27 28  1  0  0  0  0
 27 26  1  0  0  0  0
 28 26  1  0  0  0  0
 28 29  1  1  0  0  0
 29 30  1  0  0  0  0
 30 32  1  0  0  0  0
 30 31  2  0  0  0  0
M  END
>  <MODEL>
2

>  <REMARK>
 VINA RESULT:      -8.5      2.241      5.896
  Name = 
  5 active torsions:
  status: ('A' for Active; 'I' for Inactive)
    1  A    between atoms: C_1  and  C_10
    2  A    between atoms: C_6  and  N_31
    3  A    between atoms: N_8  and  N_23
    4  A    between atoms: C_10  and  C_24
    5  A    between atoms: C_19  and  N_23
                            x       y       z     vdW  Elec       q    Type
                         _______ _______ _______ _____ _____    ______ ____

>  <TORSDO>
F 5

$$$$
=
 OpenBabel11052416483D

 32 37  0  0  1  0  0  0  0  0999 V2000
  188.0820  177.6610  141.3700 C   0  0  1  0  0  3  0  0  0  0  0  0
  190.2810  176.9800  145.7450 C   0  0  0  0  0  3  0  0  0  0  0  0
  191.5310  177.0830  145.1350 C   0  0  0  0  0  3  0  0  0  0  0  0
  185.9650  178.8740  141.5930 N   0  0  0  0  0  0  0  0  0  0  0  0
  186.6920  177.3240  143.5060 C   0  0  0  0  0  2  0  0  0  0  0  0
  184.5170  178.2750  143.3310 O   0  0  0  0  0  0  0  0  0  0  0  0
  189.1180  177.0920  144.9800 C   0  0  0  0  0  3  0  0  0  0  0  0
  188.0510  177.4230  142.8620 C   0  0  0  0  0  0  0  0  0  0  0  0
  189.1840  177.3080  143.5920 C   0  0  0  0  0  0  0  0  0  0  0  0
  190.5900  177.6070  141.6740 C   0  0  0  0  0  3  0  0  0  0  0  0
  185.6680  178.1940  142.8290 C   0  0  0  0  0  0  0  0  0  0  0  0
  191.6180  177.2970  143.7580 C   0  0  0  0  0  3  0  0  0  0  0  0
  190.4600  177.4110  142.9840 C   0  0  0  0  0  0  0  0  0  0  0  0
  187.3330  178.9570  141.0900 C   0  0  0  0  0  2  0  0  0  0  0  0
  189.4420  177.7280  140.8240 N   0  0  0  0  0  0  0  0  0  0  0  0
  189.6070  177.8250  139.3730 C   0  0  2  0  0  3  0  0  0  0  0  0
  188.2360  177.7870  138.6360 C   0  0  0  0  0  2  0  0  0  0  0  0
  189.7280  175.5890  138.6500 N   0  0  1  0  0  0  0  0  0  0  0  0
  189.7070  175.3090  137.2250 C   0  0  0  0  0  2  0  0  0  0  0  0
  188.8560  176.3770  136.5410 C   0  0  0  0  0  3  0  0  0  0  0  0
  190.9440  175.5500  139.3030 O   0  0  0  0  0  0  0  0  0  0  0  0
  188.2700  177.4510  137.1410 C   0  0  0  0  0  3  0  0  0  0  0  0
  191.3530  177.1740  137.7280 O   0  0  0  0  0  1  0  0  0  0  0  0
  190.5730  176.7770  138.8300 C   0  0  2  0  0  0  0  0  0  0  0  0
  184.9270  179.3920  140.8030 N   0  0  0  0  0  2  0  0  0  0  0  0
  183.9160  177.7130  139.5230 O   0  0  0  0  0  0  0  0  0  0  0  0
  184.9420  178.6770  139.5300 C   0  0  1  0  0  3  0  0  0  0  0  0
  183.6900  178.8570  138.7350 C   0  0  2  0  0  3  0  0  0  0  0  0
  182.6150  179.7130  139.3940 C   0  0  0  0  0  2  0  0  0  0  0  0
  181.9250  180.5440  138.3680 C   0  0  0  0  0  0  0  0  0  0  0  0
  181.9320  181.7990  138.4660 O   0  0  0  0  0  0  0  0  0  0  0  0
  181.2930  179.9210  137.2570 N   0  0  0  0  0  1  0  0  0  0  0  0
  1 14  1  1  0  0  0
  1  8  1  0  0  0  0
  3  2  1  0  0  0  0
  4 11  1  0  0  0  0
  7  2  2  0  0  0  0
  8  5  1  0  0  0  0
  8  9  2  0  0  0  0
  9  7  1  0  0  0  0
 10 13  2  0  0  0  0
 11  6  2  0  0  0  0
 11  5  1  0  0  0  0
 12  3  2  0  0  0  0
 13  9  1  0  0  0  0
 13 12  1  0  0  0  0
 14  4  1  0  0  0  0
 15  1  1  0  0  0  0
 15 10  1  0  0  0  0
 16 17  1  6  0  0  0
 16 15  1  0  0  0  0
 18 19  1  6  0  0  0
 18 24  1  0  0  0  0
 18 21  1  0  0  0  0
 20 22  2  0  0  0  0
 20 19  1  0  0  0  0
 22 17  1  0  0  0  0
 24 23  1  6  0  0  0
 24 21  1  0  0  0  0
 24 16  1  0  0  0  0
 25  4  1  0  0  0  0
 26 27  1  0  0  0  0
 27 25  1  1  0  0  0
 28 29  1  1  0  0  0
 28 26  1  0  0  0  0
 28 27  1  0  0  0  0
 30 31  2  0  0  0  0
 30 29  1  0  0  0  0
 32 30  1  0  0  0  0
M  END
>  <MODEL>
3

>  <REMARK>
 VINA RESULT:      -8.4      2.419      5.818
  Name = 
  5 active torsions:
  status: ('A' for Active; 'I' for Inactive)
    1  A    between atoms: C_1  and  C_10
    2  A    between atoms: C_6  and  N_31
    3  A    between atoms: N_8  and  N_23
    4  A    between atoms: C_10  and  C_24
    5  A    between atoms: C_19  and  N_23
                            x       y       z     vdW  Elec       q    Type
                         _______ _______ _______ _____ _____    ______ ____

>  <TORSDO>
F 5

$$$$
=
 OpenBabel11052416483D

 32 37  0  0  1  0  0  0  0  0999 V2000
  188.2860  177.6150  141.5110 C   0  0  1  0  0  3  0  0  0  0  0  0
  191.3600  176.3390  137.8550 C   0  0  0  0  0  3  0  0  0  0  0  0
  190.5720  177.0440  136.9450 C   0  0  0  0  0  3  0  0  0  0  0  0
  189.4710  177.9100  143.6360 N   0  0  0  0  0  0  0  0  0  0  0  0
  190.3580  176.1650  141.9750 C   0  0  0  0  0  2  0  0  0  0  0  0
  191.0970  176.3360  144.2320 O   0  0  0  0  0  0  0  0  0  0  0  0
  191.0000  176.2960  139.2040 C   0  0  0  0  0  3  0  0  0  0  0  0
  189.5140  176.9130  140.9760 C   0  0  0  0  0  0  0  0  0  0  0  0
  189.8480  176.9560  139.6660 C   0  0  0  0  0  0  0  0  0  0  0  0
  187.9490  178.3070  139.1040 C   0  0  0  0  0  3  0  0  0  0  0  0
  190.3530  176.8110  143.3340 C   0  0  0  0  0  0  0  0  0  0  0  0
  189.4240  177.7050  137.3830 C   0  0  0  0  0  3  0  0  0  0  0  0
  189.0560  177.6680  138.7310 C   0  0  0  0  0  0  0  0  0  0  0  0
  188.7420  178.6030  142.5770 C   0  0  0  0  0  2  0  0  0  0  0  0
  187.5150  178.3040  140.4710 N   0  0  0  0  0  0  0  0  0  0  0  0
  186.2360  178.9110  140.8380 C   0  0  2  0  0  3  0  0  0  0  0  0
  185.6110  178.2220  142.0870 C   0  0  0  0  0  2  0  0  0  0  0  0
  184.6310  177.6290  139.6900 N   0  0  1  0  0  0  0  0  0  0  0  0
  183.2240  177.8430  139.9770 C   0  0  0  0  0  2  0  0  0  0  0  0
  183.0920  178.2520  141.4420 C   0  0  0  0  0  3  0  0  0  0  0  0
  185.1540  178.1890  138.5410 O   0  0  0  0  0  0  0  0  0  0  0  0
  184.1140  178.4530  142.3210 C   0  0  0  0  0  3  0  0  0  0  0  0
  184.3970  180.0670  139.6300 O   0  0  0  0  0  1  0  0  0  0  0  0
  185.2600  178.9570  139.6670 C   0  0  2  0  0  0  0  0  0  0  0  0
  189.2260  178.2760  144.9690 N   0  0  0  0  0  2  0  0  0  0  0  0
  188.1320  177.5240  146.8970 O   0  0  0  0  0  0  0  0  0  0  0  0
  188.6160  177.1290  145.6360 C   0  0  1  0  0  3  0  0  0  0  0  0
  187.1580  177.3090  145.9050 C   0  0  2  0  0  3  0  0  0  0  0  0
  186.5740  178.6510  145.4780 C   0  0  0  0  0  2  0  0  0  0  0  0
  185.4550  179.0320  146.3840 C   0  0  0  0  0  0  0  0  0  0  0  0
  185.6980  179.5930  147.4840 O   0  0  0  0  0  0  0  0  0  0  0  0
  184.1090  178.7960  145.9890 N   0  0  0  0  0  1  0  0  0  0  0  0
  1 14  1  1  0  0  0
  2  7  2  0  0  0  0
  3 12  2  0  0  0  0
  3  2  1  0  0  0  0
  4 25  1  0  0  0  0
  5 11  1  0  0  0  0
  7  9  1  0  0  0  0
  8  1  1  0  0  0  0
  8  5  1  0  0  0  0
  9  8  2  0  0  0  0
 10 15  1  0  0  0  0
 11  4  1  0  0  0  0
 11  6  2  0  0  0  0
 12 13  1  0  0  0  0
 13 10  2  0  0  0  0
 13  9  1  0  0  0  0
 14  4  1  0  0  0  0
 15  1  1  0  0  0  0
 16 15  1  6  0  0  0
 16 17  1  0  0  0  0
 17 22  1  0  0  0  0
 18 19  1  6  0  0  0
 19 20  1  0  0  0  0
 20 22  2  0  0  0  0
 21 24  1  0  0  0  0
 21 18  1  0  0  0  0
 24 23  1  1  0  0  0
 24 18  1  0  0  0  0
 24 16  1  0  0  0  0
 27 25  1  6  0  0  0
 27 28  1  0  0  0  0
 27 26  1  0  0  0  0
 28 29  1  6  0  0  0
 28 26  1  0  0  0  0
 29 30  1  0  0  0  0
 30 31  2  0  0  0  0
 32 30  1  0  0  0  0
M  END
>  <MODEL>
4

>  <REMARK>
 VINA RESULT:      -8.3      1.931      7.706
  Name = 
  5 active torsions:
  status: ('A' for Active; 'I' for Inactive)
    1  A    between atoms: C_1  and  C_10
    2  A    between atoms: C_6  and  N_31
    3  A    between atoms: N_8  and  N_23
    4  A    between atoms: C_10  and  C_24
    5  A    between atoms: C_19  and  N_23
                            x       y       z     vdW  Elec       q    Type
                         _______ _______ _______ _____ _____    ______ ____

>  <TORSDO>
F 5

$$$$
=
 OpenBabel11052416483D

 32 37  0  0  1  0  0  0  0  0999 V2000
  187.5530  178.0090  142.0110 C   0  0  1  0  0  3  0  0  0  0  0  0
  187.7290  177.4080  146.9160 C   0  0  0  0  0  3  0  0  0  0  0  0
  189.1070  177.6260  146.8940 C   0  0  0  0  0  3  0  0  0  0  0  0
  185.4490  179.0420  141.2950 N   0  0  0  0  0  0  0  0  0  0  0  0
  185.4190  177.5130  143.3580 C   0  0  0  0  0  2  0  0  0  0  0  0
  183.4550  178.2890  142.2600 O   0  0  0  0  0  0  0  0  0  0  0  0
  186.9980  177.4440  145.7260 C   0  0  0  0  0  3  0  0  0  0  0  0
  186.9100  177.7350  143.3520 C   0  0  0  0  0  0  0  0  0  0  0  0
  187.6300  177.6960  144.4960 C   0  0  0  0  0  0  0  0  0  0  0  0
  189.6880  178.1510  143.3550 C   0  0  0  0  0  3  0  0  0  0  0  0
  184.7130  178.3120  142.2970 C   0  0  0  0  0  0  0  0  0  0  0  0
  189.7540  177.8770  145.6830 C   0  0  0  0  0  3  0  0  0  0  0  0
  189.0300  177.9140  144.4880 C   0  0  0  0  0  0  0  0  0  0  0  0
  186.8900  179.2470  141.4210 C   0  0  0  0  0  2  0  0  0  0  0  0
  189.0050  178.1980  142.0960 N   0  0  0  0  0  0  0  0  0  0  0  0
  189.7620  178.3400  140.8520 C   0  0  2  0  0  3  0  0  0  0  0  0
  188.8230  178.4100  139.6120 C   0  0  0  0  0  2  0  0  0  0  0  0
  190.0920  176.1310  140.1140 N   0  0  1  0  0  0  0  0  0  0  0  0
  190.6560  175.9070  138.7940 C   0  0  0  0  0  2  0  0  0  0  0  0
  190.2080  177.0480  137.8830 C   0  0  0  0  0  3  0  0  0  0  0  0
  190.9230  175.9970  141.2080 O   0  0  0  0  0  0  0  0  0  0  0  0
  189.4640  178.1300  138.2480 C   0  0  0  0  0  3  0  0  0  0  0  0
  192.0100  177.6540  140.0430 O   0  0  0  0  0  1  0  0  0  0  0  0
  190.8290  177.2600  140.6970 C   0  0  2  0  0  0  0  0  0  0  0  0
  184.8070  179.4930  140.1320 N   0  0  0  0  0  2  0  0  0  0  0  0
  183.4180  178.7410  138.4030 O   0  0  0  0  0  0  0  0  0  0  0  0
  183.9080  178.4320  139.6860 C   0  0  1  0  0  3  0  0  0  0  0  0
  184.3890  177.7250  138.4600 C   0  0  2  0  0  3  0  0  0  0  0  0
  185.6960  178.2480  137.8740 C   0  0  0  0  0  2  0  0  0  0  0  0
  186.1880  177.3210  136.8180 C   0  0  0  0  0  0  0  0  0  0  0  0
  186.1690  177.6750  135.6100 O   0  0  0  0  0  0  0  0  0  0  0  0
  186.7160  176.0500  137.1780 N   0  0  0  0  0  1  0  0  0  0  0  0
  1 14  1  1  0  0  0
  1 15  1  0  0  0  0
  1  8  1  0  0  0  0
  3  2  1  0  0  0  0
  4 14  1  0  0  0  0
  4 11  1  0  0  0  0
  6 11  2  0  0  0  0
  7  2  2  0  0  0  0
  8  5  1  0  0  0  0
  8  9  2  0  0  0  0
  9  7  1  0  0  0  0
 10 13  2  0  0  0  0
 11  5  1  0  0  0  0
 12  3  2  0  0  0  0
 13  9  1  0  0  0  0
 13 12  1  0  0  0  0
 15 10  1  0  0  0  0
 16 17  1  6  0  0  0
 16 15  1  0  0  0  0
 18 19  1  6  0  0  0
 18 24  1  0  0  0  0
 18 21  1  0  0  0  0
 20 22  2  0  0  0  0
 20 19  1  0  0  0  0
 22 17  1  0  0  0  0
 24 23  1  6  0  0  0
 24 16  1  0  0  0  0
 24 21  1  0  0  0  0
 25  4  1  0  0  0  0
 26 28  1  0  0  0  0
 26 27  1  0  0  0  0
 27 25  1  6  0  0  0
 28 29  1  6  0  0  0
 28 27  1  0  0  0  0
 30 32  1  0  0  0  0
 30 29  1  0  0  0  0
 31 30  2  0  0  0  0
M  END
>  <MODEL>
5

>  <REMARK>
 VINA RESULT:      -8.1      2.080      3.990
  Name = 
  5 active torsions:
  status: ('A' for Active; 'I' for Inactive)
    1  A    between atoms: C_1  and  C_10
    2  A    between atoms: C_6  and  N_31
    3  A    between atoms: N_8  and  N_23
    4  A    between atoms: C_10  and  C_24
    5  A    between atoms: C_19  and  N_23
                            x       y       z     vdW  Elec       q    Type
                         _______ _______ _______ _____ _____    ______ ____

>  <TORSDO>
F 5

$$$$
=
 OpenBabel11052416483D

 32 37  0  0  1  0  0  0  0  0999 V2000
  186.6780  177.6410  141.7670 C   0  0  1  0  0  3  0  0  0  0  0  0
  183.4510  178.9670  145.2700 C   0  0  0  0  0  3  0  0  0  0  0  0
  184.4490  178.8490  146.2370 C   0  0  0  0  0  3  0  0  0  0  0  0
  186.2130  178.7510  139.6330 N   0  0  0  0  0  0  0  0  0  0  0  0
  184.2370  178.1890  141.1730 C   0  0  0  0  0  2  0  0  0  0  0  0
  183.9910  178.8900  138.9120 O   0  0  0  0  0  0  0  0  0  0  0  0
  183.7400  178.6980  143.9300 C   0  0  0  0  0  3  0  0  0  0  0  0
  185.3010  178.0570  142.2320 C   0  0  0  0  0  0  0  0  0  0  0  0
  185.0310  178.3070  143.5340 C   0  0  0  0  0  0  0  0  0  0  0  0
  187.2760  177.8180  144.2160 C   0  0  0  0  0  3  0  0  0  0  0  0
  184.7920  178.6480  139.8520 C   0  0  0  0  0  0  0  0  0  0  0  0
  185.7380  178.4620  145.8640 C   0  0  0  0  0  3  0  0  0  0  0  0
  186.0370  178.1910  144.5260 C   0  0  0  0  0  0  0  0  0  0  0  0
  187.1540  178.6650  140.7460 C   0  0  0  0  0  2  0  0  0  0  0  0
  187.6460  177.5220  142.8630 N   0  0  0  0  0  0  0  0  0  0  0  0
  188.9790  177.0000  142.5610 C   0  0  2  0  0  3  0  0  0  0  0  0
  189.2380  175.6390  143.2730 C   0  0  0  0  0  2  0  0  0  0  0  0
  190.3370  177.8310  144.2940 N   0  0  1  0  0  0  0  0  0  0  0  0
  191.7020  177.3500  144.4090 C   0  0  0  0  0  2  0  0  0  0  0  0
  191.7420  175.9040  143.9210 C   0  0  0  0  0  3  0  0  0  0  0  0
  190.1300  179.0720  143.7230 O   0  0  0  0  0  0  0  0  0  0  0  0
  190.7000  175.1980  143.3990 C   0  0  0  0  0  3  0  0  0  0  0  0
  191.1950  177.9790  142.0030 O   0  0  0  0  0  1  0  0  0  0  0  0
  190.0790  178.0150  142.8590 C   0  0  2  0  0  0  0  0  0  0  0  0
  186.7240  178.8440  138.3290 N   0  0  0  0  0  2  0  0  0  0  0  0
  187.2080  176.6210  137.7770 O   0  0  0  0  0  0  0  0  0  0  0  0
  187.7750  177.8400  138.1940 C   0  0  1  0  0  3  0  0  0  0  0  0
  187.9300  177.3290  136.7990 C   0  0  2  0  0  3  0  0  0  0  0  0
  186.9550  177.9080  135.7790 C   0  0  0  0  0  2  0  0  0  0  0  0
  186.0680  176.8320  135.2550 C   0  0  0  0  0  0  0  0  0  0  0  0
  186.5560  175.8790  134.5940 O   0  0  0  0  0  0  0  0  0  0  0  0
  184.6740  176.8610  135.5360 N   0  0  0  0  0  1  0  0  0  0  0  0
  1 14  1  6  0  0  0
  1  8  1  0  0  0  0
  1 15  1  0  0  0  0
  2  3  1  0  0  0  0
  4 11  1  0  0  0  0
  4 14  1  0  0  0  0
  5  8  1  0  0  0  0
  6 11  2  0  0  0  0
  7  2  2  0  0  0  0
  8  9  2  0  0  0  0
  9  7  1  0  0  0  0
  9 13  1  0  0  0  0
 10 13  2  0  0  0  0
 11  5  1  0  0  0  0
 12  3  2  0  0  0  0
 13 12  1  0  0  0  0
 15 10  1  0  0  0  0
 16 24  1  0  0  0  0
 16 15  1  1  0  0  0
 16 17  1  0  0  0  0
 17 22  1  0  0  0  0
 18 19  1  6  0  0  0
 20 19  1  0  0  0  0
 21 18  1  0  0  0  0
 22 20  2  0  0  0  0
 24 23  1  6  0  0  0
 24 21  1  0  0  0  0
 24 18  1  0  0  0  0
 25  4  1  0  0  0  0
 26 27  1  0  0  0  0
 27 25  1  6  0  0  0
 28 29  1  6  0  0  0
 28 26  1  0  0  0  0
 28 27  1  0  0  0  0
 30 32  1  0  0  0  0
 30 29  1  0  0  0  0
 31 30  2  0  0  0  0
M  END
>  <MODEL>
6

>  <REMARK>
 VINA RESULT:      -8.1      1.322      2.219
  Name = 
  5 active torsions:
  status: ('A' for Active; 'I' for Inactive)
    1  A    between atoms: C_1  and  C_10
    2  A    between atoms: C_6  and  N_31
    3  A    between atoms: N_8  and  N_23
    4  A    between atoms: C_10  and  C_24
    5  A    between atoms: C_19  and  N_23
                            x       y       z     vdW  Elec       q    Type
                         _______ _______ _______ _____ _____    ______ ____

>  <TORSDO>
F 5

$$$$
=
 OpenBabel11052416483D

 32 37  0  0  1  0  0  0  0  0999 V2000
  187.5480  177.8810  142.0940 C   0  0  1  0  0  3  0  0  0  0  0  0
  190.2100  176.9950  146.1650 C   0  0  0  0  0  3  0  0  0  0  0  0
  191.3860  177.1710  145.4350 C   0  0  0  0  0  3  0  0  0  0  0  0
  185.4400  179.0170  142.6130 N   0  0  0  0  0  0  0  0  0  0  0  0
  186.3990  177.3740  144.3370 C   0  0  0  0  0  2  0  0  0  0  0  0
  184.1970  178.2720  144.4500 O   0  0  0  0  0  0  0  0  0  0  0  0
  188.9710  177.1210  145.5330 C   0  0  0  0  0  3  0  0  0  0  0  0
  187.6800  177.5510  143.5630 C   0  0  0  0  0  0  0  0  0  0  0  0
  188.8860  177.4240  144.1620 C   0  0  0  0  0  0  0  0  0  0  0  0
  190.0750  177.8790  142.1310 C   0  0  0  0  0  3  0  0  0  0  0  0
  185.2910  178.2540  143.8270 C   0  0  0  0  0  0  0  0  0  0  0  0
  191.3240  177.4710  144.0740 C   0  0  0  0  0  3  0  0  0  0  0  0
  190.0880  177.5990  143.4320 C   0  0  0  0  0  0  0  0  0  0  0  0
  186.7460  179.1700  141.9770 C   0  0  0  0  0  2  0  0  0  0  0  0
  188.8410  178.0200  141.4150 N   0  0  0  0  0  0  0  0  0  0  0  0
  188.8490  178.2090  139.9640 C   0  0  2  0  0  3  0  0  0  0  0  0
  187.4300  178.0220  139.3520 C   0  0  0  0  0  2  0  0  0  0  0  0
  189.1910  176.0500  139.0950 N   0  0  1  0  0  0  0  0  0  0  0  0
  189.0690  175.8410  137.6640 C   0  0  0  0  0  2  0  0  0  0  0  0
  188.0230  176.8150  137.1260 C   0  0  0  0  0  3  0  0  0  0  0  0
  190.4600  176.1450  139.6330 O   0  0  0  0  0  0  0  0  0  0  0  0
  187.3620  177.7680  137.8420 C   0  0  0  0  0  3  0  0  0  0  0  0
  190.4980  177.8850  138.1320 O   0  0  0  0  0  1  0  0  0  0  0  0
  189.8870  177.3320  139.2720 C   0  0  2  0  0  0  0  0  0  0  0  0
  184.3130  179.5530  141.9700 N   0  0  0  0  0  2  0  0  0  0  0  0
  183.7850  177.5110  140.9550 O   0  0  0  0  0  0  0  0  0  0  0  0
  184.1520  178.8460  140.7020 C   0  0  1  0  0  3  0  0  0  0  0  0
  182.7610  178.3480  140.4760 C   0  0  2  0  0  3  0  0  0  0  0  0
  181.7750  178.6270  141.6050 C   0  0  0  0  0  2  0  0  0  0  0  0
  180.4890  177.9230  141.3440 C   0  0  0  0  0  0  0  0  0  0  0  0
  180.4320  177.0180  140.4720 O   0  0  0  0  0  0  0  0  0  0  0  0
  179.3330  178.2480  142.1080 N   0  0  0  0  0  1  0  0  0  0  0  0
  1 14  1  1  0  0  0
  1  8  1  0  0  0  0
  3  2  1  0  0  0  0
  4 11  1  0  0  0  0
  7  2  2  0  0  0  0
  8  9  2  0  0  0  0
  8  5  1  0  0  0  0
  9  7  1  0  0  0  0
 10 13  2  0  0  0  0
 11  5  1  0  0  0  0
 11  6  2  0  0  0  0
 12  3  2  0  0  0  0
 13 12  1  0  0  0  0
 13  9  1  0  0  0  0
 14  4  1  0  0  0  0
 15  1  1  0  0  0  0
 15 10  1  0  0  0  0
 16 17  1  6  0  0  0
 16 15  1  0  0  0  0
 18 19  1  6  0  0  0
 18 24  1  0  0  0  0
 18 21  1  0  0  0  0
 20 19  1  0  0  0  0
 20 22  2  0  0  0  0
 22 17  1  0  0  0  0
 24 23  1  6  0  0  0
 24 21  1  0  0  0  0
 24 16  1  0  0  0  0
 25  4  1  0  0  0  0
 27 26  1  0  0  0  0
 27 25  1  1  0  0  0
 28 27  1  0  0  0  0
 28 26  1  0  0  0  0
 28 29  1  1  0  0  0
 30 29  1  0  0  0  0
 30 32  1  0  0  0  0
 31 30  2  0  0  0  0
M  END
>  <MODEL>
7

>  <REMARK>
 VINA RESULT:      -8.1      2.481      6.071
  Name = 
  5 active torsions:
  status: ('A' for Active; 'I' for Inactive)
    1  A    between atoms: C_1  and  C_10
    2  A    between atoms: C_6  and  N_31
    3  A    between atoms: N_8  and  N_23
    4  A    between atoms: C_10  and  C_24
    5  A    between atoms: C_19  and  N_23
                            x       y       z     vdW  Elec       q    Type
                         _______ _______ _______ _____ _____    ______ ____

>  <TORSDO>
F 5

$$$$
=
 OpenBabel11052416483D

 32 37  0  0  1  0  0  0  0  0999 V2000
  184.3650  178.2520  141.8410 C   0  0  1  0  0  3  0  0  0  0  0  0
  179.4280  178.4550  141.6870 C   0  0  0  0  0  3  0  0  0  0  0  0
  179.4110  179.0370  142.9550 C   0  0  0  0  0  3  0  0  0  0  0  0
  185.3590  178.5490  139.6200 N   0  0  0  0  0  0  0  0  0  0  0  0
  183.0720  177.3920  139.7910 C   0  0  0  0  0  2  0  0  0  0  0  0
  184.3910  177.4260  137.8090 O   0  0  0  0  0  0  0  0  0  0  0  0
  180.6440  178.1110  141.0920 C   0  0  0  0  0  3  0  0  0  0  0  0
  183.0350  178.0130  141.1640 C   0  0  0  0  0  0  0  0  0  0  0  0
  181.8630  178.3430  141.7540 C   0  0  0  0  0  0  0  0  0  0  0  0
  182.9510  179.1720  143.7220 C   0  0  0  0  0  3  0  0  0  0  0  0
  184.2900  177.8000  139.0070 C   0  0  0  0  0  0  0  0  0  0  0  0
  180.6100  179.2750  143.6280 C   0  0  0  0  0  3  0  0  0  0  0  0
  181.8320  178.9340  143.0410 C   0  0  0  0  0  0  0  0  0  0  0  0
  185.1910  179.1580  140.9370 C   0  0  0  0  0  2  0  0  0  0  0  0
  184.2350  178.8430  143.1770 N   0  0  0  0  0  0  0  0  0  0  0  0
  185.4420  179.0030  143.9880 C   0  0  2  0  0  3  0  0  0  0  0  0
  186.4810  177.8800  143.7000 C   0  0  0  0  0  2  0  0  0  0  0  0
  185.0240  177.7190  145.9150 N   0  0  1  0  0  0  0  0  0  0  0  0
  186.1020  177.5030  146.8630 C   0  0  0  0  0  2  0  0  0  0  0  0
  187.4180  177.4670  146.0910 C   0  0  0  0  0  3  0  0  0  0  0  0
  184.0710  178.6710  146.2190 O   0  0  0  0  0  0  0  0  0  0  0  0
  187.5760  177.6710  144.7520 C   0  0  0  0  0  3  0  0  0  0  0  0
  185.9780  179.9550  146.2210 O   0  0  0  0  0  1  0  0  0  0  0  0
  185.1280  179.1180  145.4770 C   0  0  2  0  0  0  0  0  0  0  0  0
  186.6150  178.6280  139.0000 N   0  0  0  0  0  2  0  0  0  0  0  0
  188.2890  177.1070  139.6060 O   0  0  0  0  0  0  0  0  0  0  0  0
  187.6230  178.2830  139.9990 C   0  0  1  0  0  3  0  0  0  0  0  0
  189.0170  178.3020  139.4630 C   0  0  2  0  0  3  0  0  0  0  0  0
  189.1440  178.6360  137.9800 C   0  0  0  0  0  2  0  0  0  0  0  0
  189.7900  177.5050  137.2570 C   0  0  0  0  0  0  0  0  0  0  0  0
  190.9250  177.0960  137.6140 O   0  0  0  0  0  0  0  0  0  0  0  0
  189.1070  176.8630  136.1870 N   0  0  0  0  0  1  0  0  0  0  0  0
  1 14  1  6  0  0  0
  1 15  1  0  0  0  0
  2  3  1  0  0  0  0
  3 12  2  0  0  0  0
  4 14  1  0  0  0  0
  5  8  1  0  0  0  0
  6 11  2  0  0  0  0
  7  2  2  0  0  0  0
  7  9  1  0  0  0  0
  8  9  2  0  0  0  0
  8  1  1  0  0  0  0
  9 13  1  0  0  0  0
 11  4  1  0  0  0  0
 11  5  1  0  0  0  0
 13 12  1  0  0  0  0
 13 10  2  0  0  0  0
 15 10  1  0  0  0  0
 16 15  1  6  0  0  0
 16 24  1  0  0  0  0
 17 16  1  0  0  0  0
 17 22  1  0  0  0  0
 18 21  1  0  0  0  0
 18 19  1  1  0  0  0
 20 19  1  0  0  0  0
 22 20  2  0  0  0  0
 24 18  1  0  0  0  0
 24 21  1  0  0  0  0
 24 23  1  1  0  0  0
 25  4  1  0  0  0  0
 26 27  1  0  0  0  0
 27 25  1  6  0  0  0
 28 29  1  6  0  0  0
 28 26  1  0  0  0  0
 28 27  1  0  0  0  0
 30 31  2  0  0  0  0
 30 29  1  0  0  0  0
 32 30  1  0  0  0  0
M  END
>  <MODEL>
8

>  <REMARK>
 VINA RESULT:      -8.0      2.673      4.014
  Name = 
  5 active torsions:
  status: ('A' for Active; 'I' for Inactive)
    1  A    between atoms: C_1  and  C_10
    2  A    between atoms: C_6  and  N_31
    3  A    between atoms: N_8  and  N_23
    4  A    between atoms: C_10  and  C_24
    5  A    between atoms: C_19  and  N_23
                            x       y       z     vdW  Elec       q    Type
                         _______ _______ _______ _____ _____    ______ ____

>  <TORSDO>
F 5

$$$$
=
 OpenBabel11052416483D

 32 37  0  0  1  0  0  0  0  0999 V2000
  186.2590  178.6470  143.9930 C   0  0  1  0  0  3  0  0  0  0  0  0
  181.7300  178.6900  142.0120 C   0  0  0  0  0  3  0  0  0  0  0  0
  182.2820  178.5060  140.7440 C   0  0  0  0  0  3  0  0  0  0  0  0
  186.2630  177.6570  146.2350 N   0  0  0  0  0  0  0  0  0  0  0  0
  184.1760  178.9410  145.4710 C   0  0  0  0  0  2  0  0  0  0  0  0
  184.5540  178.2530  147.7180 O   0  0  0  0  0  0  0  0  0  0  0  0
  182.5620  178.7750  143.1300 C   0  0  0  0  0  3  0  0  0  0  0  0
  184.7550  178.7530  144.0920 C   0  0  0  0  0  0  0  0  0  0  0  0
  183.9590  178.6770  143.0010 C   0  0  0  0  0  0  0  0  0  0  0  0
  185.8210  178.3990  141.5170 C   0  0  0  0  0  3  0  0  0  0  0  0
  184.9850  178.2530  146.5350 C   0  0  0  0  0  0  0  0  0  0  0  0
  183.6660  178.4080  140.5940 C   0  0  0  0  0  3  0  0  0  0  0  0
  184.5070  178.4910  141.7070 C   0  0  0  0  0  0  0  0  0  0  0  0
  186.7000  177.4700  144.8540 C   0  0  0  0  0  2  0  0  0  0  0  0
  186.7380  178.4810  142.6170 N   0  0  0  0  0  0  0  0  0  0  0  0
  188.1800  178.4970  142.3730 C   0  0  2  0  0  3  0  0  0  0  0  0
  188.5130  178.2380  140.8740 C   0  0  0  0  0  2  0  0  0  0  0  0
  188.8350  176.2490  142.6050 N   0  0  1  0  0  0  0  0  0  0  0  0
  190.1900  175.8710  142.2430 C   0  0  0  0  0  2  0  0  0  0  0  0
  190.6500  176.7750  141.1020 C   0  0  0  0  0  3  0  0  0  0  0  0
  188.5390  176.4060  143.9440 O   0  0  0  0  0  0  0  0  0  0  0  0
  189.9480  177.8060  140.5540 C   0  0  0  0  0  3  0  0  0  0  0  0
  190.2180  177.9560  143.6900 O   0  0  0  0  0  1  0  0  0  0  0  0
  188.9330  177.5420  143.2950 C   0  0  2  0  0  0  0  0  0  0  0  0
  187.1520  177.3280  147.2710 N   0  0  0  0  0  2  0  0  0  0  0  0
  188.6890  178.3170  148.7340 O   0  0  0  0  0  0  0  0  0  0  0  0
  187.9740  178.5050  147.5360 C   0  0  1  0  0  3  0  0  0  0  0  0
  189.4390  178.2130  147.5490 C   0  0  2  0  0  3  0  0  0  0  0  0
  189.8170  176.7530  147.3230 C   0  0  0  0  0  2  0  0  0  0  0  0
  191.2920  176.6270  147.1650 C   0  0  0  0  0  0  0  0  0  0  0  0
  192.0590  176.9980  148.0920 O   0  0  0  0  0  0  0  0  0  0  0  0
  191.8340  176.0500  145.9830 N   0  0  0  0  0  1  0  0  0  0  0  0
  1  8  1  0  0  0  0
  1 14  1  1  0  0  0
  2  7  2  0  0  0  0
  3  2  1  0  0  0  0
  4 11  1  0  0  0  0
  4 25  1  0  0  0  0
  5 11  1  0  0  0  0
  8  5  1  0  0  0  0
  9  7  1  0  0  0  0
  9  8  2  0  0  0  0
 10 13  2  0  0  0  0
 10 15  1  0  0  0  0
 11  6  2  0  0  0  0
 12  3  2  0  0  0  0
 12 13  1  0  0  0  0
 13  9  1  0  0  0  0
 14  4  1  0  0  0  0
 15  1  1  0  0  0  0
 16 17  1  6  0  0  0
 16 15  1  0  0  0  0
 16 24  1  0  0  0  0
 18 19  1  1  0  0  0
 18 24  1  0  0  0  0
 18 21  1  0  0  0  0
 20 19  1  0  0  0  0
 22 17  1  0  0  0  0
 22 20  2  0  0  0  0
 24 23  1  1  0  0  0
 24 21  1  0  0  0  0
 27 25  1  6  0  0  0
 27 28  1  0  0  0  0
 27 26  1  0  0  0  0
 28 29  1  6  0  0  0
 28 26  1  0  0  0  0
 30 29  1  0  0  0  0
 30 31  2  0  0  0  0
 32 30  1  0  0  0  0
M  END
>  <MODEL>
9

>  <REMARK>
 VINA RESULT:      -7.9      2.707      5.848
  Name = 
  5 active torsions:
  status: ('A' for Active; 'I' for Inactive)
    1  A    between atoms: C_1  and  C_10
    2  A    between atoms: C_6  and  N_31
    3  A    between atoms: N_8  and  N_23
    4  A    between atoms: C_10  and  C_24
    5  A    between atoms: C_19  and  N_23
                            x       y       z     vdW  Elec       q    Type
                         _______ _______ _______ _____ _____    ______ ____

>  <TORSDO>
F 5

$$$$
