=
 OpenBabel11052412483D

 25 28  0  0  0  0  0  0  0  0999 V2000
  187.2690  177.7980  145.4010 C   0  0  0  0  0  0  0  0  0  0  0  0
  188.5540  177.3610  145.0460 C   0  0  0  0  0  0  0  0  0  0  0  0
  187.8920  177.7510  147.7440 C   0  0  0  0  0  3  0  0  0  0  0  0
  186.1840  178.0910  144.5590 C   0  0  0  0  0  0  0  0  0  0  0  0
  183.8260  178.7630  143.2230 C   0  0  0  0  0  3  0  0  0  0  0  0
  189.1370  177.3270  147.3900 N   0  0  0  0  0  0  0  0  0  0  0  0
  185.0540  178.5020  145.2640 C   0  0  0  0  0  0  0  0  0  0  0  0
  183.8660  178.8420  144.6230 C   0  0  0  0  0  3  0  0  0  0  0  0
  190.7800  176.6900  145.7440 C   0  0  0  0  0  0  0  0  0  0  0  0
  191.8120  176.4260  146.7880 C   0  0  0  0  0  1  0  0  0  0  0  0
  188.9110  177.1600  143.7480 N   0  0  0  0  0  0  0  0  0  0  0  0
  184.9580  178.3500  142.4970 C   0  0  0  0  0  3  0  0  0  0  0  0
  186.9570  177.9870  146.7430 C   0  0  0  0  0  0  0  0  0  0  0  0
  185.3640  178.5110  146.9220 S   0  0  0  0  0  0  0  0  0  0  0  0
  191.1110  176.4950  144.4020 C   0  0  0  0  0  3  0  0  0  0  0  0
  186.1470  178.0120  143.1640 C   0  0  0  0  0  3  0  0  0  0  0  0
  190.1570  176.7360  143.4020 C   0  0  0  0  0  0  0  0  0  0  0  0
  189.4920  177.1260  146.0830 C   0  0  0  0  0  0  0  0  0  0  0  0
  190.4570  176.5510  142.0490 O   0  0  0  0  0  0  0  0  0  0  0  0
  191.3510  177.3960  141.3390 C   0  0  0  0  0  2  0  0  0  0  0  0
  191.2910  177.0660  139.8630 C   0  0  0  0  0  2  0  0  0  0  0  0
  189.8430  177.0050  139.4180 C   0  0  0  0  0  2  0  0  0  0  0  0
  189.2880  178.3460  139.3610 N   0  0  0  0  0  0  0  0  0  0  0  0
  189.0590  178.6420  137.9590 C   0  0  0  0  0  1  0  0  0  0  0  0
  187.9790  178.2910  139.9900 C   0  0  0  0  0  1  0  0  0  0  0  0
  1 13  1  0  0  0  0
  2  1  2  0  0  0  0
  2 18  1  0  0  0  0
  4  7  1  0  0  0  0
  4  1  1  0  0  0  0
  5  8  1  0  0  0  0
  6  3  1  0  0  0  0
  7 14  1  0  0  0  0
  8  7  2  0  0  0  0
  9 18  1  0  0  0  0
  9 10  1  0  0  0  0
 11  2  1  0  0  0  0
 12 16  1  0  0  0  0
 12  5  2  0  0  0  0
 13 14  1  0  0  0  0
 13  3  2  0  0  0  0
 15  9  2  0  0  0  0
 16  4  2  0  0  0  0
 17 11  2  0  0  0  0
 17 15  1  0  0  0  0
 18  6  2  0  0  0  0
 19 17  1  0  0  0  0
 20 19  1  0  0  0  0
 21 20  1  0  0  0  0
 22 21  1  0  0  0  0
 23 22  1  0  0  0  0
 23 25  1  0  0  0  0
 24 23  1  0  0  0  0
M  END
>  <MODEL>
1

>  <REMARK>
 VINA RESULT:      -9.3      0.000      0.000
  Name = 
  5 active torsions:
  status: ('A' for Active; 'I' for Inactive)
    1  A    between atoms: N_2  and  C_25
    2  A    between atoms: O_6  and  C_15
    3  A    between atoms: O_6  and  C_23
    4  A    between atoms: C_15  and  C_21
    5  A    between atoms: C_21  and  C_25
                            x       y       z     vdW  Elec       q    Type
                         _______ _______ _______ _____ _____    ______ ____

>  <TORSDO>
F 5

$$$$
=
 OpenBabel11052412483D

 25 28  0  0  0  0  0  0  0  0999 V2000
  187.5820  177.8550  145.8610 C   0  0  0  0  0  0  0  0  0  0  0  0
  186.7400  178.1180  144.7690 C   0  0  0  0  0  0  0  0  0  0  0  0
  185.7850  178.4170  147.3900 C   0  0  0  0  0  3  0  0  0  0  0  0
  188.9220  177.4370  145.8480 C   0  0  0  0  0  0  0  0  0  0  0  0
  191.5630  176.6120  146.2260 C   0  0  0  0  0  3  0  0  0  0  0  0
  184.9760  178.6700  146.3240 N   0  0  0  0  0  0  0  0  0  0  0  0
  189.4450  177.2740  147.1310 C   0  0  0  0  0  0  0  0  0  0  0  0
  190.7580  176.8630  147.3460 C   0  0  0  0  0  3  0  0  0  0  0  0
  184.5590  178.7990  143.9520 C   0  0  0  0  0  0  0  0  0  0  0  0
  183.1500  179.2400  144.1640 C   0  0  0  0  0  1  0  0  0  0  0  0
  187.1690  177.9840  143.4850 N   0  0  0  0  0  0  0  0  0  0  0  0
  191.0500  176.7720  144.9250 C   0  0  0  0  0  3  0  0  0  0  0  0
  187.0930  178.0080  147.1540 C   0  0  0  0  0  0  0  0  0  0  0  0
  188.2800  177.6370  148.2940 S   0  0  0  0  0  0  0  0  0  0  0  0
  185.0330  178.6510  142.6480 C   0  0  0  0  0  3  0  0  0  0  0  0
  189.7230  177.1870  144.7300 C   0  0  0  0  0  3  0  0  0  0  0  0
  186.3550  178.2380  142.4250 C   0  0  0  0  0  0  0  0  0  0  0  0
  185.4110  178.5340  145.0330 C   0  0  0  0  0  0  0  0  0  0  0  0
  186.8600  178.0800  141.1310 O   0  0  0  0  0  0  0  0  0  0  0  0
  188.1450  178.5490  140.7460 C   0  0  0  0  0  2  0  0  0  0  0  0
  188.9330  177.4120  140.1310 C   0  0  0  0  0  2  0  0  0  0  0  0
  188.5450  177.2610  138.6730 C   0  0  0  0  0  2  0  0  0  0  0  0
  188.0700  178.5320  138.1540 N   0  0  0  0  0  0  0  0  0  0  0  0
  189.0590  178.9840  137.1920 C   0  0  0  0  0  1  0  0  0  0  0  0
  186.8580  178.2580  137.4010 C   0  0  0  0  0  1  0  0  0  0  0  0
  1 13  2  0  0  0  0
  2 18  2  0  0  0  0
  2  1  1  0  0  0  0
  4  1  1  0  0  0  0
  4  7  1  0  0  0  0
  5  8  1  0  0  0  0
  6  3  2  0  0  0  0
  7  8  2  0  0  0  0
  7 14  1  0  0  0  0
  9 10  1  0  0  0  0
  9 18  1  0  0  0  0
 11  2  1  0  0  0  0
 12  5  2  0  0  0  0
 13  3  1  0  0  0  0
 13 14  1  0  0  0  0
 15  9  2  0  0  0  0
 16 12  1  0  0  0  0
 16  4  2  0  0  0  0
 17 15  1  0  0  0  0
 17 11  2  0  0  0  0
 18  6  1  0  0  0  0
 19 17  1  0  0  0  0
 20 19  1  0  0  0  0
 21 20  1  0  0  0  0
 22 21  1  0  0  0  0
 23 22  1  0  0  0  0
 24 23  1  0  0  0  0
 25 23  1  0  0  0  0
M  END
>  <MODEL>
2

>  <REMARK>
 VINA RESULT:      -9.0      1.781      4.640
  Name = 
  5 active torsions:
  status: ('A' for Active; 'I' for Inactive)
    1  A    between atoms: N_2  and  C_25
    2  A    between atoms: O_6  and  C_15
    3  A    between atoms: O_6  and  C_23
    4  A    between atoms: C_15  and  C_21
    5  A    between atoms: C_21  and  C_25
                            x       y       z     vdW  Elec       q    Type
                         _______ _______ _______ _____ _____    ______ ____

>  <TORSDO>
F 5

$$$$
=
 OpenBabel11052412483D

 25 28  0  0  0  0  0  0  0  0999 V2000
  186.2750  178.3780  142.5840 C   0  0  0  0  0  0  0  0  0  0  0  0
  187.4460  178.0850  141.8680 C   0  0  0  0  0  0  0  0  0  0  0  0
  185.1580  178.9900  140.5190 C   0  0  0  0  0  3  0  0  0  0  0  0
  186.0510  178.2820  143.9660 C   0  0  0  0  0  0  0  0  0  0  0  0
  185.2330  178.2230  146.6360 C   0  0  0  0  0  3  0  0  0  0  0  0
  186.3000  178.7040  139.8340 N   0  0  0  0  0  0  0  0  0  0  0  0
  184.7570  178.6570  144.3270 C   0  0  0  0  0  0  0  0  0  0  0  0
  184.3240  178.6370  145.6500 C   0  0  0  0  0  3  0  0  0  0  0  0
  188.5960  177.9730  139.7330 C   0  0  0  0  0  0  0  0  0  0  0  0
  188.6460  178.1370  138.2520 C   0  0  0  0  0  1  0  0  0  0  0  0
  188.5750  177.6450  142.4880 N   0  0  0  0  0  0  0  0  0  0  0  0
  186.5420  177.8420  146.2870 C   0  0  0  0  0  3  0  0  0  0  0  0
  185.1490  178.8250  141.9000 C   0  0  0  0  0  0  0  0  0  0  0  0
  183.8730  179.1090  142.9650 S   0  0  0  0  0  0  0  0  0  0  0  0
  189.7340  177.5230  140.4030 C   0  0  0  0  0  3  0  0  0  0  0  0
  186.9580  177.8700  144.9470 C   0  0  0  0  0  3  0  0  0  0  0  0
  189.7110  177.3610  141.7960 C   0  0  0  0  0  0  0  0  0  0  0  0
  187.4330  178.2610  140.4610 C   0  0  0  0  0  0  0  0  0  0  0  0
  190.8350  176.9120  142.4970 O   0  0  0  0  0  0  0  0  0  0  0  0
  191.6980  177.7900  143.2060 C   0  0  0  0  0  2  0  0  0  0  0  0
  191.2500  177.8790  144.6490 C   0  0  0  0  0  2  0  0  0  0  0  0
  191.6360  176.6060  145.3770 C   0  0  0  0  0  2  0  0  0  0  0  0
  191.6880  176.8510  146.8080 N   0  0  0  0  0  0  0  0  0  0  0  0
  190.3140  176.9300  147.2660 C   0  0  0  0  0  1  0  0  0  0  0  0
  192.2600  175.6660  147.4220 C   0  0  0  0  0  1  0  0  0  0  0  0
  1  4  1  0  0  0  0
  2 11  1  0  0  0  0
  2  1  1  0  0  0  0
  3 13  1  0  0  0  0
  4  7  2  0  0  0  0
  4 16  1  0  0  0  0
  6 18  1  0  0  0  0
  6  3  2  0  0  0  0
  7  8  1  0  0  0  0
  8  5  2  0  0  0  0
  9 15  2  0  0  0  0
  9 18  1  0  0  0  0
 10  9  1  0  0  0  0
 12  5  1  0  0  0  0
 13  1  2  0  0  0  0
 13 14  1  0  0  0  0
 14  7  1  0  0  0  0
 15 17  1  0  0  0  0
 16 12  2  0  0  0  0
 17 11  2  0  0  0  0
 17 19  1  0  0  0  0
 18  2  2  0  0  0  0
 19 20  1  0  0  0  0
 20 21  1  0  0  0  0
 21 22  1  0  0  0  0
 22 23  1  0  0  0  0
 23 24  1  0  0  0  0
 23 25  1  0  0  0  0
M  END
>  <MODEL>
3

>  <REMARK>
 VINA RESULT:      -9.0      1.630      5.381
  Name = 
  5 active torsions:
  status: ('A' for Active; 'I' for Inactive)
    1  A    between atoms: N_2  and  C_25
    2  A    between atoms: O_6  and  C_15
    3  A    between atoms: O_6  and  C_23
    4  A    between atoms: C_15  and  C_21
    5  A    between atoms: C_21  and  C_25
                            x       y       z     vdW  Elec       q    Type
                         _______ _______ _______ _____ _____    ______ ____

>  <TORSDO>
F 5

$$$$
=
 OpenBabel11052412483D

 25 28  0  0  0  0  0  0  0  0999 V2000
  187.5410  177.8660  145.8410 C   0  0  0  0  0  0  0  0  0  0  0  0
  186.6980  178.1400  144.7530 C   0  0  0  0  0  0  0  0  0  0  0  0
  185.7390  178.3930  147.3770 C   0  0  0  0  0  3  0  0  0  0  0  0
  188.8840  177.4570  145.8230 C   0  0  0  0  0  0  0  0  0  0  0  0
  191.5300  176.6430  146.1900 C   0  0  0  0  0  3  0  0  0  0  0  0
  184.9290  178.6570  146.3140 N   0  0  0  0  0  0  0  0  0  0  0  0
  189.4070  177.2770  147.1040 C   0  0  0  0  0  0  0  0  0  0  0  0
  190.7220  176.8720  147.3140 C   0  0  0  0  0  3  0  0  0  0  0  0
  184.5130  178.8200  143.9450 C   0  0  0  0  0  0  0  0  0  0  0  0
  183.1020  179.2480  144.1620 C   0  0  0  0  0  1  0  0  0  0  0  0
  187.1290  178.0290  143.4670 N   0  0  0  0  0  0  0  0  0  0  0  0
  191.0170  176.8200  144.8920 C   0  0  0  0  0  3  0  0  0  0  0  0
  187.0500  177.9960  147.1360 C   0  0  0  0  0  0  0  0  0  0  0  0
  188.2390  177.6150  148.2710 S   0  0  0  0  0  0  0  0  0  0  0  0
  184.9890  178.6950  142.6390 C   0  0  0  0  0  3  0  0  0  0  0  0
  189.6870  177.2290  144.7020 C   0  0  0  0  0  3  0  0  0  0  0  0
  186.3140  178.2950  142.4100 C   0  0  0  0  0  0  0  0  0  0  0  0
  185.3660  178.5440  145.0220 C   0  0  0  0  0  0  0  0  0  0  0  0
  186.8210  178.1600  141.1140 O   0  0  0  0  0  0  0  0  0  0  0  0
  188.0980  178.6550  140.7350 C   0  0  0  0  0  2  0  0  0  0  0  0
  188.8570  177.5750  139.9950 C   0  0  0  0  0  2  0  0  0  0  0  0
  189.7100  176.7950  140.9780 C   0  0  0  0  0  2  0  0  0  0  0  0
  190.9530  176.3930  140.3430 N   0  0  0  0  0  0  0  0  0  0  0  0
  190.7010  176.3720  138.9140 C   0  0  0  0  0  1  0  0  0  0  0  0
  191.9140  177.4580  140.5770 C   0  0  0  0  0  1  0  0  0  0  0  0
  1 13  2  0  0  0  0
  2 18  2  0  0  0  0
  2  1  1  0  0  0  0
  4  1  1  0  0  0  0
  4  7  1  0  0  0  0
  5  8  1  0  0  0  0
  6  3  2  0  0  0  0
  7  8  2  0  0  0  0
  7 14  1  0  0  0  0
  9 10  1  0  0  0  0
  9 18  1  0  0  0  0
 11  2  1  0  0  0  0
 12  5  2  0  0  0  0
 13  3  1  0  0  0  0
 13 14  1  0  0  0  0
 15  9  2  0  0  0  0
 16 12  1  0  0  0  0
 16  4  2  0  0  0  0
 17 15  1  0  0  0  0
 17 11  2  0  0  0  0
 18  6  1  0  0  0  0
 19 17  1  0  0  0  0
 20 19  1  0  0  0  0
 21 20  1  0  0  0  0
 21 22  1  0  0  0  0
 23 25  1  0  0  0  0
 23 22  1  0  0  0  0
 24 23  1  0  0  0  0
M  END
>  <MODEL>
4

>  <REMARK>
 VINA RESULT:      -9.0      1.768      4.740
  Name = 
  5 active torsions:
  status: ('A' for Active; 'I' for Inactive)
    1  A    between atoms: N_2  and  C_25
    2  A    between atoms: O_6  and  C_15
    3  A    between atoms: O_6  and  C_23
    4  A    between atoms: C_15  and  C_21
    5  A    between atoms: C_21  and  C_25
                            x       y       z     vdW  Elec       q    Type
                         _______ _______ _______ _____ _____    ______ ____

>  <TORSDO>
F 5

$$$$
=
 OpenBabel11052412483D

 25 28  0  0  0  0  0  0  0  0999 V2000
  187.0510  177.9590  145.3430 C   0  0  0  0  0  0  0  0  0  0  0  0
  186.0920  178.2420  144.3590 C   0  0  0  0  0  0  0  0  0  0  0  0
  185.3890  178.3120  147.0740 C   0  0  0  0  0  3  0  0  0  0  0  0
  188.4040  177.6220  145.1730 C   0  0  0  0  0  0  0  0  0  0  0  0
  191.1090  176.9330  145.2350 C   0  0  0  0  0  3  0  0  0  0  0  0
  184.4650  178.5860  146.1110 N   0  0  0  0  0  0  0  0  0  0  0  0
  189.0600  177.4070  146.3840 C   0  0  0  0  0  0  0  0  0  0  0  0
  190.4080  177.0620  146.4430 C   0  0  0  0  0  3  0  0  0  0  0  0
  183.8070  178.8450  143.8060 C   0  0  0  0  0  0  0  0  0  0  0  0
  182.4050  179.1860  144.1820 C   0  0  0  0  0  1  0  0  0  0  0  0
  186.3970  178.2180  143.0330 N   0  0  0  0  0  0  0  0  0  0  0  0
  190.4610  177.1470  144.0050 C   0  0  0  0  0  3  0  0  0  0  0  0
  186.6860  177.9980  146.6850 C   0  0  0  0  0  0  0  0  0  0  0  0
  187.9990  177.6250  147.6760 S   0  0  0  0  0  0  0  0  0  0  0  0
  184.1560  178.8100  142.4550 C   0  0  0  0  0  3  0  0  0  0  0  0
  189.1010  177.4940  143.9680 C   0  0  0  0  0  3  0  0  0  0  0  0
  185.4680  178.4930  142.0770 C   0  0  0  0  0  0  0  0  0  0  0  0
  184.7760  178.5600  144.7780 C   0  0  0  0  0  0  0  0  0  0  0  0
  185.8490  178.4490  140.7330 O   0  0  0  0  0  0  0  0  0  0  0  0
  184.9480  178.7300  139.6700 C   0  0  0  0  0  2  0  0  0  0  0  0
  185.6330  178.4690  138.3460 C   0  0  0  0  0  2  0  0  0  0  0  0
  187.0090  177.8830  138.5970 C   0  0  0  0  0  2  0  0  0  0  0  0
  188.0180  178.6940  137.9380 N   0  0  0  0  0  0  0  0  0  0  0  0
  189.2070  178.6340  138.7680 C   0  0  0  0  0  1  0  0  0  0  0  0
  188.3520  178.0260  136.6910 C   0  0  0  0  0  1  0  0  0  0  0  0
  1 13  2  0  0  0  0
  2 18  2  0  0  0  0
  2  1  1  0  0  0  0
  4  1  1  0  0  0  0
  4  7  1  0  0  0  0
  5  8  1  0  0  0  0
  6  3  2  0  0  0  0
  7  8  2  0  0  0  0
  7 14  1  0  0  0  0
  9 10  1  0  0  0  0
  9 18  1  0  0  0  0
 11  2  1  0  0  0  0
 12  5  2  0  0  0  0
 13  3  1  0  0  0  0
 13 14  1  0  0  0  0
 15  9  2  0  0  0  0
 16 12  1  0  0  0  0
 16  4  2  0  0  0  0
 17 15  1  0  0  0  0
 17 11  2  0  0  0  0
 18  6  1  0  0  0  0
 19 17  1  0  0  0  0
 20 19  1  0  0  0  0
 21 22  1  0  0  0  0
 21 20  1  0  0  0  0
 23 22  1  0  0  0  0
 23 24  1  0  0  0  0
 25 23  1  0  0  0  0
M  END
>  <MODEL>
5

>  <REMARK>
 VINA RESULT:      -8.5      2.057      5.047
  Name = 
  5 active torsions:
  status: ('A' for Active; 'I' for Inactive)
    1  A    between atoms: N_2  and  C_25
    2  A    between atoms: O_6  and  C_15
    3  A    between atoms: O_6  and  C_23
    4  A    between atoms: C_15  and  C_21
    5  A    between atoms: C_21  and  C_25
                            x       y       z     vdW  Elec       q    Type
                         _______ _______ _______ _____ _____    ______ ____

>  <TORSDO>
F 5

$$$$
=
 OpenBabel11052412483D

 25 28  0  0  0  0  0  0  0  0999 V2000
  188.0690  177.6130  145.4330 C   0  0  0  0  0  0  0  0  0  0  0  0
  187.4390  177.8440  144.2020 C   0  0  0  0  0  0  0  0  0  0  0  0
  186.0290  178.2180  146.5980 C   0  0  0  0  0  3  0  0  0  0  0  0
  189.3870  177.1940  145.6740 C   0  0  0  0  0  0  0  0  0  0  0  0
  191.9140  176.3810  146.5430 C   0  0  0  0  0  3  0  0  0  0  0  0
  185.4260  178.4400  145.3970 N   0  0  0  0  0  0  0  0  0  0  0  0
  189.6710  177.0680  147.0340 C   0  0  0  0  0  0  0  0  0  0  0  0
  190.9210  176.6650  147.4940 C   0  0  0  0  0  3  0  0  0  0  0  0
  185.4430  178.5010  142.9860 C   0  0  0  0  0  0  0  0  0  0  0  0
  184.0210  178.9470  142.9280 C   0  0  0  0  0  1  0  0  0  0  0  0
  188.0900  177.6730  143.0190 N   0  0  0  0  0  0  0  0  0  0  0  0
  191.6430  176.5040  145.1680 C   0  0  0  0  0  3  0  0  0  0  0  0
  187.3560  177.8030  146.6130 C   0  0  0  0  0  0  0  0  0  0  0  0
  188.3170  177.4650  147.9570 S   0  0  0  0  0  0  0  0  0  0  0  0
  186.1430  178.3150  141.7940 C   0  0  0  0  0  3  0  0  0  0  0  0
  190.3750  176.9130  144.7260 C   0  0  0  0  0  3  0  0  0  0  0  0
  187.4820  177.8970  141.8230 C   0  0  0  0  0  0  0  0  0  0  0  0
  186.0860  178.2670  144.2100 C   0  0  0  0  0  0  0  0  0  0  0  0
  188.2100  177.7020  140.6460 O   0  0  0  0  0  0  0  0  0  0  0  0
  189.5930  178.0120  140.5400 C   0  0  0  0  0  2  0  0  0  0  0  0
  190.3790  176.7370  140.3240 C   0  0  0  0  0  2  0  0  0  0  0  0
  190.9120  176.7060  138.9040 C   0  0  0  0  0  2  0  0  0  0  0  0
  190.7630  175.3720  138.3500 N   0  0  0  0  0  0  0  0  0  0  0  0
  189.6790  175.4400  137.3880 C   0  0  0  0  0  1  0  0  0  0  0  0
  191.9700  175.0900  137.5920 C   0  0  0  0  0  1  0  0  0  0  0  0
  1  4  1  0  0  0  0
  1 13  2  0  0  0  0
  2 18  2  0  0  0  0
  2  1  1  0  0  0  0
  3 13  1  0  0  0  0
  4  7  1  0  0  0  0
  5  8  1  0  0  0  0
  6  3  2  0  0  0  0
  7  8  2  0  0  0  0
  7 14  1  0  0  0  0
  9 18  1  0  0  0  0
 10  9  1  0  0  0  0
 11  2  1  0  0  0  0
 12  5  2  0  0  0  0
 13 14  1  0  0  0  0
 15 17  1  0  0  0  0
 15  9  2  0  0  0  0
 16 12  1  0  0  0  0
 16  4  2  0  0  0  0
 17 11  2  0  0  0  0
 18  6  1  0  0  0  0
 19 17  1  0  0  0  0
 20 19  1  0  0  0  0
 21 20  1  0  0  0  0
 22 21  1  0  0  0  0
 23 22  1  0  0  0  0
 24 23  1  0  0  0  0
 25 23  1  0  0  0  0
M  END
>  <MODEL>
6

>  <REMARK>
 VINA RESULT:      -8.3      1.829      4.705
  Name = 
  5 active torsions:
  status: ('A' for Active; 'I' for Inactive)
    1  A    between atoms: N_2  and  C_25
    2  A    between atoms: O_6  and  C_15
    3  A    between atoms: O_6  and  C_23
    4  A    between atoms: C_15  and  C_21
    5  A    between atoms: C_21  and  C_25
                            x       y       z     vdW  Elec       q    Type
                         _______ _______ _______ _____ _____    ______ ____

>  <TORSDO>
F 5

$$$$
=
 OpenBabel11052412483D

 25 28  0  0  0  0  0  0  0  0999 V2000
  189.5390  177.4340  144.0880 C   0  0  0  0  0  0  0  0  0  0  0  0
  188.9840  177.7140  142.8300 C   0  0  0  0  0  0  0  0  0  0  0  0
  191.6590  176.8940  143.0400 C   0  0  0  0  0  3  0  0  0  0  0  0
  188.9240  177.5040  145.3490 C   0  0  0  0  0  0  0  0  0  0  0  0
  188.0570  177.5240  148.0030 C   0  0  0  0  0  3  0  0  0  0  0  0
  191.1100  177.1670  141.8230 N   0  0  0  0  0  0  0  0  0  0  0  0
  189.7870  177.1520  146.3860 C   0  0  0  0  0  0  0  0  0  0  0  0
  189.3800  177.1540  147.7180 C   0  0  0  0  0  3  0  0  0  0  0  0
  189.2670  177.8460  140.4230 C   0  0  0  0  0  0  0  0  0  0  0  0
  190.0830  177.7130  139.1830 C   0  0  0  0  0  1  0  0  0  0  0  0
  187.6900  178.1130  142.6900 N   0  0  0  0  0  0  0  0  0  0  0  0
  187.1750  177.8820  146.9670 C   0  0  0  0  0  3  0  0  0  0  0  0
  190.8670  177.0290  144.1750 C   0  0  0  0  0  0  0  0  0  0  0  0
  191.3080  176.7520  145.7790 S   0  0  0  0  0  0  0  0  0  0  0  0
  187.9370  178.2530  140.3180 C   0  0  0  0  0  3  0  0  0  0  0  0
  187.6060  177.8730  145.6300 C   0  0  0  0  0  3  0  0  0  0  0  0
  187.1500  178.3850  141.4720 C   0  0  0  0  0  0  0  0  0  0  0  0
  189.8090  177.5690  141.6870 C   0  0  0  0  0  0  0  0  0  0  0  0
  185.8140  178.7910  141.4000 O   0  0  0  0  0  0  0  0  0  0  0  0
  185.0620  179.1620  142.5470 C   0  0  0  0  0  2  0  0  0  0  0  0
  183.6530  178.6220  142.4220 C   0  0  0  0  0  2  0  0  0  0  0  0
  183.5040  177.9050  141.0940 C   0  0  0  0  0  2  0  0  0  0  0  0
  182.2590  178.2990  140.4580 N   0  0  0  0  0  0  0  0  0  0  0  0
  181.4590  178.9510  141.4780 C   0  0  0  0  0  1  0  0  0  0  0  0
  182.5870  179.3190  139.4770 C   0  0  0  0  0  1  0  0  0  0  0  0
  1 13  2  0  0  0  0
  1  4  1  0  0  0  0
  2  1  1  0  0  0  0
  3 13  1  0  0  0  0
  4 16  2  0  0  0  0
  4  7  1  0  0  0  0
  6  3  2  0  0  0  0
  7  8  2  0  0  0  0
  8  5  1  0  0  0  0
  9 18  1  0  0  0  0
 10  9  1  0  0  0  0
 11  2  1  0  0  0  0
 12  5  2  0  0  0  0
 13 14  1  0  0  0  0
 14  7  1  0  0  0  0
 15  9  2  0  0  0  0
 15 17  1  0  0  0  0
 16 12  1  0  0  0  0
 17 11  2  0  0  0  0
 18  6  1  0  0  0  0
 18  2  2  0  0  0  0
 19 17  1  0  0  0  0
 19 20  1  0  0  0  0
 21 20  1  0  0  0  0
 22 21  1  0  0  0  0
 23 22  1  0  0  0  0
 23 24  1  0  0  0  0
 25 23  1  0  0  0  0
M  END
>  <MODEL>
7

>  <REMARK>
 VINA RESULT:      -8.3      2.666      5.641
  Name = 
  5 active torsions:
  status: ('A' for Active; 'I' for Inactive)
    1  A    between atoms: N_2  and  C_25
    2  A    between atoms: O_6  and  C_15
    3  A    between atoms: O_6  and  C_23
    4  A    between atoms: C_15  and  C_21
    5  A    between atoms: C_21  and  C_25
                            x       y       z     vdW  Elec       q    Type
                         _______ _______ _______ _____ _____    ______ ____

>  <TORSDO>
F 5

$$$$
=
 OpenBabel11052412483D

 25 28  0  0  0  0  0  0  0  0999 V2000
  189.6110  177.4090  143.5910 C   0  0  0  0  0  0  0  0  0  0  0  0
  188.5360  177.5730  144.4780 C   0  0  0  0  0  0  0  0  0  0  0  0
  191.1120  177.0610  145.4650 C   0  0  0  0  0  3  0  0  0  0  0  0
  189.6020  177.4650  142.1880 C   0  0  0  0  0  0  0  0  0  0  0  0
  189.9790  177.5010  139.4210 C   0  0  0  0  0  3  0  0  0  0  0  0
  190.0620  177.2220  146.3170 N   0  0  0  0  0  0  0  0  0  0  0  0
  190.8640  177.2530  141.6340 C   0  0  0  0  0  0  0  0  0  0  0  0
  191.0790  177.2660  140.2590 C   0  0  0  0  0  3  0  0  0  0  0  0
  187.7280  177.6350  146.7660 C   0  0  0  0  0  0  0  0  0  0  0  0
  187.9330  177.5410  148.2390 C   0  0  0  0  0  1  0  0  0  0  0  0
  187.2740  177.8230  144.0350 N   0  0  0  0  0  0  0  0  0  0  0  0
  188.6990  177.7170  139.9650 C   0  0  0  0  0  3  0  0  0  0  0  0
  190.8820  177.1550  144.0970 C   0  0  0  0  0  0  0  0  0  0  0  0
  192.0050  176.9960  142.8490 S   0  0  0  0  0  0  0  0  0  0  0  0
  186.4470  177.8900  146.2750 C   0  0  0  0  0  3  0  0  0  0  0  0
  188.5040  177.6990  141.3560 C   0  0  0  0  0  3  0  0  0  0  0  0
  186.2300  177.9830  144.8930 C   0  0  0  0  0  0  0  0  0  0  0  0
  188.7930  177.4740  145.8680 C   0  0  0  0  0  0  0  0  0  0  0  0
  184.9580  178.2380  144.3700 O   0  0  0  0  0  0  0  0  0  0  0  0
  184.6710  179.3780  143.5730 C   0  0  0  0  0  2  0  0  0  0  0  0
  184.1060  178.9310  142.2410 C   0  0  0  0  0  2  0  0  0  0  0  0
  185.1890  179.0060  141.1830 C   0  0  0  0  0  2  0  0  0  0  0  0
  184.6120  179.4120  139.9130 N   0  0  0  0  0  0  0  0  0  0  0  0
  185.2710  178.6260  138.8870 C   0  0  0  0  0  1  0  0  0  0  0  0
  183.2210  178.9930  139.9250 C   0  0  0  0  0  1  0  0  0  0  0  0
  1 13  1  0  0  0  0
  1  2  2  0  0  0  0
  2 18  1  0  0  0  0
  3  6  1  0  0  0  0
  4  1  1  0  0  0  0
  5 12  2  0  0  0  0
  5  8  1  0  0  0  0
  7  4  1  0  0  0  0
  7 14  1  0  0  0  0
  8  7  2  0  0  0  0
  9 10  1  0  0  0  0
 11  2  1  0  0  0  0
 11 17  2  0  0  0  0
 12 16  1  0  0  0  0
 13  3  2  0  0  0  0
 14 13  1  0  0  0  0
 15  9  2  0  0  0  0
 16  4  2  0  0  0  0
 17 15  1  0  0  0  0
 18  6  2  0  0  0  0
 18  9  1  0  0  0  0
 19 17  1  0  0  0  0
 20 19  1  0  0  0  0
 21 20  1  0  0  0  0
 22 21  1  0  0  0  0
 23 25  1  0  0  0  0
 23 22  1  0  0  0  0
 24 23  1  0  0  0  0
M  END
>  <MODEL>
8

>  <REMARK>
 VINA RESULT:      -8.2      2.561      5.138
  Name = 
  5 active torsions:
  status: ('A' for Active; 'I' for Inactive)
    1  A    between atoms: N_2  and  C_25
    2  A    between atoms: O_6  and  C_15
    3  A    between atoms: O_6  and  C_23
    4  A    between atoms: C_15  and  C_21
    5  A    between atoms: C_21  and  C_25
                            x       y       z     vdW  Elec       q    Type
                         _______ _______ _______ _____ _____    ______ ____

>  <TORSDO>
F 5

$$$$
=
 OpenBabel11052412483D

 25 28  0  0  0  0  0  0  0  0999 V2000
  187.6790  178.1000  142.6690 C   0  0  0  0  0  0  0  0  0  0  0  0
  186.8920  178.1720  143.8280 C   0  0  0  0  0  0  0  0  0  0  0  0
  185.7690  178.7520  141.3240 C   0  0  0  0  0  3  0  0  0  0  0  0
  189.0370  177.7600  142.5560 C   0  0  0  0  0  0  0  0  0  0  0  0
  191.6880  177.1400  141.9350 C   0  0  0  0  0  3  0  0  0  0  0  0
  185.0140  178.8190  142.4550 N   0  0  0  0  0  0  0  0  0  0  0  0
  189.4900  177.7930  141.2370 C   0  0  0  0  0  0  0  0  0  0  0  0
  190.8060  177.4890  140.9010 C   0  0  0  0  0  3  0  0  0  0  0  0
  184.7320  178.6180  144.8420 C   0  0  0  0  0  0  0  0  0  0  0  0
  183.2940  179.0010  144.7650 C   0  0  0  0  0  1  0  0  0  0  0  0
  187.4030  177.8970  145.0600 N   0  0  0  0  0  0  0  0  0  0  0  0
  191.2460  177.1020  143.2700 C   0  0  0  0  0  3  0  0  0  0  0  0
  187.1070  178.3910  141.4350 C   0  0  0  0  0  0  0  0  0  0  0  0
  188.2420  178.2380  140.1960 S   0  0  0  0  0  0  0  0  0  0  0  0
  185.2900  178.3290  146.0880 C   0  0  0  0  0  3  0  0  0  0  0  0
  189.9140  177.4120  143.5870 C   0  0  0  0  0  3  0  0  0  0  0  0
  186.6410  177.9660  146.1850 C   0  0  0  0  0  0  0  0  0  0  0  0
  185.5310  178.5410  143.6920 C   0  0  0  0  0  0  0  0  0  0  0  0
  187.2300  177.6710  147.4190 O   0  0  0  0  0  0  0  0  0  0  0  0
  188.6020  177.9210  147.6940 C   0  0  0  0  0  2  0  0  0  0  0  0
  189.3970  176.6520  147.4770 C   0  0  0  0  0  2  0  0  0  0  0  0
  190.8780  176.9580  147.5930 C   0  0  0  0  0  2  0  0  0  0  0  0
  191.6320  175.7200  147.6870 N   0  0  0  0  0  0  0  0  0  0  0  0
  192.0900  175.4100  146.3460 C   0  0  0  0  0  1  0  0  0  0  0  0
  192.8200  176.0060  148.4730 C   0  0  0  0  0  1  0  0  0  0  0  0
  1  2  2  0  0  0  0
  2 11  1  0  0  0  0
  3 13  2  0  0  0  0
  3  6  1  0  0  0  0
  4  1  1  0  0  0  0
  4 16  1  0  0  0  0
  5 12  1  0  0  0  0
  6 18  2  0  0  0  0
  7  4  2  0  0  0  0
  8  7  1  0  0  0  0
  8  5  2  0  0  0  0
  9 15  2  0  0  0  0
 10  9  1  0  0  0  0
 11 17  2  0  0  0  0
 12 16  2  0  0  0  0
 13  1  1  0  0  0  0
 14  7  1  0  0  0  0
 14 13  1  0  0  0  0
 15 17  1  0  0  0  0
 17 19  1  0  0  0  0
 18  2  1  0  0  0  0
 18  9  1  0  0  0  0
 19 20  1  0  0  0  0
 21 22  1  0  0  0  0
 21 20  1  0  0  0  0
 22 23  1  0  0  0  0
 23 25  1  0  0  0  0
 24 23  1  0  0  0  0
M  END
>  <MODEL>
9

>  <REMARK>
 VINA RESULT:      -8.0      2.666      6.707
  Name = 
  5 active torsions:
  status: ('A' for Active; 'I' for Inactive)
    1  A    between atoms: N_2  and  C_25
    2  A    between atoms: O_6  and  C_15
    3  A    between atoms: O_6  and  C_23
    4  A    between atoms: C_15  and  C_21
    5  A    between atoms: C_21  and  C_25
                            x       y       z     vdW  Elec       q    Type
                         _______ _______ _______ _____ _____    ______ ____

>  <TORSDO>
F 5

$$$$
