=
 OpenBabel11052415363D

 37 38  0  0  1  0  0  0  0  0999 V2000
  185.9510  173.1080  136.1490 C   0  0  0  0  0  2  0  0  0  0  0  0
  180.7140  179.3110  137.3280 O   0  0  0  0  0  0  0  0  0  0  0  0
  184.7910  172.7080  135.2450 C   0  0  2  0  0  3  0  0  0  0  0  0
  183.9220  178.1550  138.6730 C   0  0  0  0  0  2  0  0  0  0  0  0
  181.4070  176.2930  136.3450 C   0  0  0  0  0  2  0  0  0  0  0  0
  183.0580  179.6590  139.2030 S   0  0  0  0  0  0  0  0  0  0  0  0
  187.3210  177.3080  137.2940 C   0  0  2  0  0  3  0  0  0  0  0  0
  181.8570  174.0520  137.3460 C   0  0  0  0  0  0  0  0  0  0  0  0
  182.5400  173.1970  134.5940 O   0  0  0  0  0  1  0  0  0  0  0  0
  187.5210  176.9820  134.8290 C   0  0  0  0  0  1  0  0  0  0  0  0
  185.7920  177.3000  137.3250 C   0  0  0  0  0  2  0  0  0  0  0  0
  181.8570  178.5020  141.2840 N   0  0  0  0  0  2  0  0  0  0  0  0
  183.5040  173.4690  135.5670 C   0  0  1  0  0  3  0  0  0  0  0  0
  180.7870  177.9870  139.2580 N   0  0  0  0  0  2  0  0  0  0  0  0
  181.7710  178.7040  140.0120 C   0  0  0  0  0  0  0  0  0  0  0  0
  187.9570  176.4240  136.1850 C   0  0  2  0  0  0  0  0  0  0  0  0
  184.5840  171.3300  135.3260 O   0  0  0  0  0  1  0  0  0  0  0  0
  182.9610  173.1220  136.9520 C   0  0  0  0  0  2  0  0  0  0  0  0
  179.7770  176.8690  136.9190 S   0  0  0  0  0  0  0  0  0  0  0  0
  187.5150  174.9870  136.3410 C   0  0  0  0  0  3  0  0  0  0  0  0
  185.2690  178.5040  138.0830 C   0  0  0  0  0  2  0  0  0  0  0  0
  182.1330  175.5210  137.4390 C   0  0  0  0  0  2  0  0  0  0  0  0
  180.6790  173.5080  137.9590 S   0  0  0  0  0  0  0  0  0  0  0  0
  180.4890  178.2000  137.8760 C   0  0  0  0  0  0  0  0  0  0  0  0
  186.3250  174.5360  135.9350 C   0  0  0  0  0  3  0  0  0  0  0  0
  188.6710  177.9890  139.3850 C   0  0  0  0  0  0  0  0  0  0  0  0
  187.8920  177.0610  138.6230 N   0  0  0  0  0  2  0  0  0  0  0  0
  189.0100  179.1030  138.9050 O   0  0  0  0  0  0  0  0  0  0  0  0
  189.1890  177.5510  141.0360 S   0  0  0  0  0  1  0  0  0  0  0  0
  190.0520  177.1470  135.1820 O   0  0  0  0  0  1  0  0  0  0  0  0
  189.5060  176.5130  136.3020 C   0  0  2  0  0  3  0  0  0  0  0  0
  192.6640  173.7730  137.6530 O   0  0  0  0  0  1  0  0  0  0  0  0
  190.8710  175.2100  137.9050 O   0  0  0  0  0  0  0  0  0  0  0  0
  192.1610  175.0450  137.3740 C   0  0  1  0  0  0  0  0  0  0  0  0
  193.1170  176.1420  137.8050 C   0  0  0  0  0  1  0  0  0  0  0  0
  190.3330  175.2420  136.6050 C   0  0  2  0  0  3  0  0  0  0  0  0
  191.6900  175.1630  135.9480 C   0  0  0  0  0  2  0  0  0  0  0  0
  2 24  2  0  0  0  0
  3 17  1  1  0  0  0
  3 13  1  0  0  0  0
  3  1  1  0  0  0  0
  4  6  1  0  0  0  0
  5 19  1  0  0  0  0
  5 22  1  0  0  0  0
  6 15  1  0  0  0  0
  7 11  1  0  0  0  0
  7 27  1  1  0  0  0
  8 22  1  0  0  0  0
  8 23  2  0  0  0  0
 11 21  1  0  0  0  0
 13  9  1  6  0  0  0
 13 18  1  0  0  0  0
 14 15  1  0  0  0  0
 15 12  2  0  0  0  0
 16 10  1  6  0  0  0
 16 31  1  0  0  0  0
 16 20  1  0  0  0  0
 16  7  1  0  0  0  0
 18  8  1  0  0  0  0
 19 24  1  0  0  0  0
 21  4  1  0  0  0  0
 24 14  1  0  0  0  0
 25  1  1  0  0  0  0
 25 20  2  0  0  0  0
 26 29  1  0  0  0  0
 27 26  1  0  0  0  0
 28 26  2  0  0  0  0
 31 30  1  6  0  0  0
 34 32  1  0  0  0  0
 34 35  1  1  0  0  0
 34 33  1  0  0  0  0
 36 31  1  1  0  0  0
 36 33  1  0  0  0  0
 37 36  1  0  0  0  0
 37 34  1  0  0  0  0
M  END
>  <MODEL>
1

>  <REMARK>
 VINA RESULT:      -6.1      0.000      0.000
  Name = 
  3 active torsions:
  status: ('A' for Active; 'I' for Inactive)
    1  A    between atoms: C_10  and  N_22
    2  A    between atoms: C_20  and  C_24
    3  A    between atoms: C_24  and  C_30
                            x       y       z     vdW  Elec       q    Type
                         _______ _______ _______ _____ _____    ______ ____

>  <TORSDO>
F 3

$$$$
=
 OpenBabel11052415363D

 37 38  0  0  1  0  0  0  0  0999 V2000
  186.5740  173.5930  137.1330 C   0  0  0  0  0  2  0  0  0  0  0  0
  179.0930  176.4900  135.4200 O   0  0  0  0  0  0  0  0  0  0  0  0
  186.1390  172.6720  136.0000 C   0  0  2  0  0  3  0  0  0  0  0  0
  181.7340  177.0500  137.9000 C   0  0  0  0  0  2  0  0  0  0  0  0
  181.3700  174.1760  135.2880 C   0  0  0  0  0  2  0  0  0  0  0  0
  180.1610  177.9510  137.8390 S   0  0  0  0  0  0  0  0  0  0  0  0
  185.3900  177.9430  137.8470 C   0  0  2  0  0  3  0  0  0  0  0  0
  182.3740  172.4460  136.7800 C   0  0  0  0  0  0  0  0  0  0  0  0
  184.3230  171.9990  134.5940 O   0  0  0  0  0  1  0  0  0  0  0  0
  186.6030  177.7280  135.6770 C   0  0  0  0  0  1  0  0  0  0  0  0
  184.1360  177.1950  137.3950 C   0  0  0  0  0  2  0  0  0  0  0  0
  178.9380  176.3790  139.6130 N   0  0  0  0  0  2  0  0  0  0  0  0
  184.6300  172.7160  135.7520 C   0  0  1  0  0  3  0  0  0  0  0  0
  179.0370  175.3880  137.4870 N   0  0  0  0  0  2  0  0  0  0  0  0
  179.2430  176.5010  138.3650 C   0  0  0  0  0  0  0  0  0  0  0  0
  186.7110  177.4670  137.1810 C   0  0  2  0  0  0  0  0  0  0  0  0
  186.5570  171.3670  136.2680 O   0  0  0  0  0  1  0  0  0  0  0  0
  183.8350  172.1640  136.9340 C   0  0  0  0  0  2  0  0  0  0  0  0
  179.5720  173.8950  135.2000 S   0  0  0  0  0  0  0  0  0  0  0  0
  186.9370  175.9970  137.4550 C   0  0  0  0  0  3  0  0  0  0  0  0
  182.8920  178.0020  137.7100 C   0  0  0  0  0  2  0  0  0  0  0  0
  181.9070  173.8660  136.6790 C   0  0  0  0  0  2  0  0  0  0  0  0
  181.4320  171.4050  137.0800 S   0  0  0  0  0  0  0  0  0  0  0  0
  179.2060  175.4150  136.0670 C   0  0  0  0  0  0  0  0  0  0  0  0
  186.3180  175.0210  136.7850 C   0  0  0  0  0  3  0  0  0  0  0  0
  184.9800  179.0830  140.1250 C   0  0  0  0  0  0  0  0  0  0  0  0
  185.4800  178.0180  139.3100 N   0  0  0  0  0  2  0  0  0  0  0  0
  184.4840  180.1200  139.6100 O   0  0  0  0  0  0  0  0  0  0  0  0
  185.0810  178.9480  141.9020 S   0  0  0  0  0  1  0  0  0  0  0  0
  188.3880  179.1900  136.8060 O   0  0  0  0  0  1  0  0  0  0  0  0
  187.8920  178.2980  137.7620 C   0  0  2  0  0  3  0  0  0  0  0  0
  190.5440  176.4190  140.7190 O   0  0  0  0  0  1  0  0  0  0  0  0
  188.7030  176.5600  139.3270 O   0  0  0  0  0  0  0  0  0  0  0  0
  189.4310  177.1800  140.3570 C   0  0  1  0  0  0  0  0  0  0  0  0
  188.5670  177.5310  141.5550 C   0  0  0  0  0  1  0  0  0  0  0  0
  189.0850  177.5790  138.4350 C   0  0  2  0  0  3  0  0  0  0  0  0
  189.8100  178.3620  139.5040 C   0  0  0  0  0  2  0  0  0  0  0  0
  2 24  2  0  0  0  0
  3 17  1  1  0  0  0
  3  1  1  0  0  0  0
  5 22  1  0  0  0  0
  6  4  1  0  0  0  0
  6 15  1  0  0  0  0
  7 27  1  1  0  0  0
  8 18  1  0  0  0  0
  8 23  2  0  0  0  0
 11 21  1  0  0  0  0
 11  7  1  0  0  0  0
 13  9  1  6  0  0  0
 13  3  1  0  0  0  0
 13 18  1  0  0  0  0
 14 15  1  0  0  0  0
 15 12  2  0  0  0  0
 16 10  1  6  0  0  0
 16 20  1  0  0  0  0
 16 31  1  0  0  0  0
 16  7  1  0  0  0  0
 19  5  1  0  0  0  0
 19 24  1  0  0  0  0
 21  4  1  0  0  0  0
 22  8  1  0  0  0  0
 24 14  1  0  0  0  0
 25  1  1  0  0  0  0
 25 20  2  0  0  0  0
 26 29  1  0  0  0  0
 27 26  1  0  0  0  0
 28 26  2  0  0  0  0
 31 30  1  6  0  0  0
 33 34  1  0  0  0  0
 34 32  1  0  0  0  0
 34 35  1  1  0  0  0
 36 31  1  1  0  0  0
 36 33  1  0  0  0  0
 36 37  1  0  0  0  0
 37 34  1  0  0  0  0
M  END
>  <MODEL>
2

>  <REMARK>
 VINA RESULT:      -5.4      2.520      3.137
  Name = 
  3 active torsions:
  status: ('A' for Active; 'I' for Inactive)
    1  A    between atoms: C_10  and  N_22
    2  A    between atoms: C_20  and  C_24
    3  A    between atoms: C_24  and  C_30
                            x       y       z     vdW  Elec       q    Type
                         _______ _______ _______ _____ _____    ______ ____

>  <TORSDO>
F 3

$$$$
=
 OpenBabel11052415363D

 37 38  0  0  1  0  0  0  0  0999 V2000
  185.0660  177.8660  142.8170 C   0  0  0  0  0  2  0  0  0  0  0  0
  191.0950  177.2990  137.2830 O   0  0  0  0  0  0  0  0  0  0  0  0
  186.2110  178.5710  143.5350 C   0  0  2  0  0  3  0  0  0  0  0  0
  187.6630  176.0850  137.7130 C   0  0  0  0  0  2  0  0  0  0  0  0
  190.0190  177.7970  140.3080 C   0  0  0  0  0  2  0  0  0  0  0  0
  188.7080  175.7480  136.2700 S   0  0  0  0  0  0  0  0  0  0  0  0
  184.2780  177.6140  138.3290 C   0  0  2  0  0  3  0  0  0  0  0  0
  189.1630  176.4660  142.2360 C   0  0  0  0  0  0  0  0  0  0  0  0
  188.5500  179.0780  143.4920 O   0  0  0  0  0  1  0  0  0  0  0  0
  184.2020  179.9910  139.0820 C   0  0  0  0  0  1  0  0  0  0  0  0
  185.7820  177.4350  138.5410 C   0  0  0  0  0  2  0  0  0  0  0  0
  189.5710  173.3900  137.1690 N   0  0  0  0  0  2  0  0  0  0  0  0
  187.5740  178.2650  142.9110 C   0  0  1  0  0  3  0  0  0  0  0  0
  190.6870  175.1810  138.1980 N   0  0  0  0  0  2  0  0  0  0  0  0
  189.7740  174.6630  137.2230 C   0  0  0  0  0  0  0  0  0  0  0  0
  183.5930  178.6060  139.3090 C   0  0  2  0  0  0  0  0  0  0  0  0
  186.1990  178.2290  144.8880 O   0  0  0  0  0  1  0  0  0  0  0  0
  187.9600  176.7950  143.0630 C   0  0  0  0  0  2  0  0  0  0  0  0
  191.6740  177.1800  139.8640 S   0  0  0  0  0  0  0  0  0  0  0  0
  183.7990  178.1580  140.7380 C   0  0  0  0  0  3  0  0  0  0  0  0
  186.4290  176.8550  137.3000 C   0  0  0  0  0  2  0  0  0  0  0  0
  189.1090  176.6590  140.7530 C   0  0  0  0  0  2  0  0  0  0  0  0
  190.1990  175.6560  142.8130 S   0  0  0  0  0  0  0  0  0  0  0  0
  191.1090  176.5440  138.2920 C   0  0  0  0  0  0  0  0  0  0  0  0
  184.9300  178.3630  141.4170 C   0  0  0  0  0  3  0  0  0  0  0  0
  183.0540  175.7390  137.0470 C   0  0  0  0  0  0  0  0  0  0  0  0
  183.5850  176.3240  138.2410 N   0  0  0  0  0  2  0  0  0  0  0  0
  183.0680  176.3640  135.9530 O   0  0  0  0  0  0  0  0  0  0  0  0
  182.3410  174.1040  137.1140 S   0  0  0  0  0  1  0  0  0  0  0  0
  181.6990  179.9310  138.5490 O   0  0  0  0  0  1  0  0  0  0  0  0
  182.0710  178.6570  138.9870 C   0  0  2  0  0  3  0  0  0  0  0  0
  178.9310  176.3920  141.0640 O   0  0  0  0  0  1  0  0  0  0  0  0
  181.0570  176.7810  140.2460 O   0  0  0  0  0  0  0  0  0  0  0  0
  179.6880  176.7140  139.9360 C   0  0  1  0  0  0  0  0  0  0  0  0
  179.3960  175.7890  138.7700 C   0  0  0  0  0  1  0  0  0  0  0  0
  181.0430  178.1730  140.0360 C   0  0  2  0  0  3  0  0  0  0  0  0
  179.5980  178.1790  139.5980 C   0  0  0  0  0  2  0  0  0  0  0  0
  1  3  1  0  0  0  0
  2 24  2  0  0  0  0
  3 17  1  1  0  0  0
  5 22  1  0  0  0  0
  6 15  1  0  0  0  0
  6  4  1  0  0  0  0
  7 27  1  1  0  0  0
  7 11  1  0  0  0  0
  7 16  1  0  0  0  0
  8 23  2  0  0  0  0
  8 18  1  0  0  0  0
 12 15  2  0  0  0  0
 13 18  1  0  0  0  0
 13  9  1  1  0  0  0
 13  3  1  0  0  0  0
 14 24  1  0  0  0  0
 15 14  1  0  0  0  0
 16 10  1  6  0  0  0
 16 20  1  0  0  0  0
 19  5  1  0  0  0  0
 20 25  2  0  0  0  0
 21  4  1  0  0  0  0
 21 11  1  0  0  0  0
 22  8  1  0  0  0  0
 24 19  1  0  0  0  0
 25  1  1  0  0  0  0
 26 29  1  0  0  0  0
 26 27  1  0  0  0  0
 28 26  2  0  0  0  0
 31 30  1  1  0  0  0
 31 16  1  0  0  0  0
 34 35  1  6  0  0  0
 34 33  1  0  0  0  0
 34 32  1  0  0  0  0
 36 31  1  6  0  0  0
 36 33  1  0  0  0  0
 37 34  1  0  0  0  0
 37 36  1  0  0  0  0
M  END
>  <MODEL>
3

>  <REMARK>
 VINA RESULT:      -5.3      3.077      9.302
  Name = 
  3 active torsions:
  status: ('A' for Active; 'I' for Inactive)
    1  A    between atoms: C_10  and  N_22
    2  A    between atoms: C_20  and  C_24
    3  A    between atoms: C_24  and  C_30
                            x       y       z     vdW  Elec       q    Type
                         _______ _______ _______ _____ _____    ______ ____

>  <TORSDO>
F 3

$$$$
=
 OpenBabel11052415363D

 37 38  0  0  1  0  0  0  0  0999 V2000
  184.9690  177.8480  142.7620 C   0  0  0  0  0  2  0  0  0  0  0  0
  191.1210  177.3090  137.3620 O   0  0  0  0  0  0  0  0  0  0  0  0
  186.0950  178.5540  143.5070 C   0  0  2  0  0  3  0  0  0  0  0  0
  187.6830  176.0860  137.7130 C   0  0  0  0  0  2  0  0  0  0  0  0
  189.9760  177.7980  140.3640 C   0  0  0  0  0  2  0  0  0  0  0  0
  188.7610  175.7550  136.2920 S   0  0  0  0  0  0  0  0  0  0  0  0
  184.2810  177.6050  138.2560 C   0  0  2  0  0  3  0  0  0  0  0  0
  189.0810  176.4600  142.2690 C   0  0  0  0  0  0  0  0  0  0  0  0
  188.4330  179.0670  143.5170 O   0  0  0  0  0  1  0  0  0  0  0  0
  184.1820  179.9800  139.0130 C   0  0  0  0  0  1  0  0  0  0  0  0
  185.7800  177.4290  138.5010 C   0  0  0  0  0  2  0  0  0  0  0  0
  189.6100  173.3970  137.2050 N   0  0  0  0  0  2  0  0  0  0  0  0
  187.4730  178.2530  142.9130 C   0  0  1  0  0  3  0  0  0  0  0  0
  190.6980  175.1880  138.2620 N   0  0  0  0  0  2  0  0  0  0  0  0
  189.8080  174.6710  137.2670 C   0  0  0  0  0  0  0  0  0  0  0  0
  183.5720  178.5930  139.2230 C   0  0  2  0  0  0  0  0  0  0  0  0
  186.0540  178.2080  144.8590 O   0  0  0  0  0  1  0  0  0  0  0  0
  187.8590  176.7840  143.0700 C   0  0  0  0  0  2  0  0  0  0  0  0
  191.6420  177.1860  139.9550 S   0  0  0  0  0  0  0  0  0  0  0  0
  183.7470  178.1420  140.6560 C   0  0  0  0  0  3  0  0  0  0  0  0
  186.4570  176.8530  137.2740 C   0  0  0  0  0  2  0  0  0  0  0  0
  189.0600  176.6560  140.7850 C   0  0  0  0  0  2  0  0  0  0  0  0
  190.1060  175.6510  142.8670 S   0  0  0  0  0  0  0  0  0  0  0  0
  191.1140  176.5520  138.3690 C   0  0  0  0  0  0  0  0  0  0  0  0
  184.8630  178.3480  141.3600 C   0  0  0  0  0  3  0  0  0  0  0  0
  183.1170  175.7160  136.9390 C   0  0  0  0  0  0  0  0  0  0  0  0
  183.5940  176.3130  138.1500 N   0  0  0  0  0  2  0  0  0  0  0  0
  183.1790  176.3300  135.8420 O   0  0  0  0  0  0  0  0  0  0  0  0
  182.4030  174.0800  136.9910 S   0  0  0  0  0  1  0  0  0  0  0  0
  181.8740  178.9590  137.5190 O   0  0  0  0  0  1  0  0  0  0  0  0
  182.0570  178.6400  138.8680 C   0  0  2  0  0  3  0  0  0  0  0  0
  179.1530  179.9580  141.8900 O   0  0  0  0  0  1  0  0  0  0  0  0
  181.2260  179.3030  141.1030 O   0  0  0  0  0  0  0  0  0  0  0  0
  179.8620  178.9750  141.1970 C   0  0  1  0  0  0  0  0  0  0  0  0
  179.6310  177.5910  141.7730 C   0  0  0  0  0  1  0  0  0  0  0  0
  181.0910  179.4990  139.7160 C   0  0  2  0  0  3  0  0  0  0  0  0
  179.6430  179.0680  139.7090 C   0  0  0  0  0  2  0  0  0  0  0  0
  1  3  1  0  0  0  0
  2 24  2  0  0  0  0
  3 17  1  1  0  0  0
  5 22  1  0  0  0  0
  6 15  1  0  0  0  0
  6  4  1  0  0  0  0
  7 27  1  1  0  0  0
  7 11  1  0  0  0  0
  7 16  1  0  0  0  0
  8 23  2  0  0  0  0
  8 18  1  0  0  0  0
 12 15  2  0  0  0  0
 13 18  1  0  0  0  0
 13  3  1  0  0  0  0
 13  9  1  1  0  0  0
 14 24  1  0  0  0  0
 15 14  1  0  0  0  0
 16 10  1  6  0  0  0
 16 20  1  0  0  0  0
 19  5  1  0  0  0  0
 20 25  2  0  0  0  0
 21  4  1  0  0  0  0
 21 11  1  0  0  0  0
 22  8  1  0  0  0  0
 24 19  1  0  0  0  0
 25  1  1  0  0  0  0
 26 29  1  0  0  0  0
 26 27  1  0  0  0  0
 28 26  2  0  0  0  0
 31 30  1  6  0  0  0
 31 16  1  0  0  0  0
 33 34  1  0  0  0  0
 34 35  1  1  0  0  0
 34 32  1  0  0  0  0
 36 31  1  6  0  0  0
 36 33  1  0  0  0  0
 37 36  1  0  0  0  0
 37 34  1  0  0  0  0
M  END
>  <MODEL>
4

>  <REMARK>
 VINA RESULT:      -5.1      3.065      9.393
  Name = 
  3 active torsions:
  status: ('A' for Active; 'I' for Inactive)
    1  A    between atoms: C_10  and  N_22
    2  A    between atoms: C_20  and  C_24
    3  A    between atoms: C_24  and  C_30
                            x       y       z     vdW  Elec       q    Type
                         _______ _______ _______ _____ _____    ______ ____

>  <TORSDO>
F 3

$$$$
=
 OpenBabel11052415363D

 37 38  0  0  1  0  0  0  0  0999 V2000
  185.9050  174.4740  137.1760 C   0  0  0  0  0  2  0  0  0  0  0  0
  179.1190  179.0620  137.6160 O   0  0  0  0  0  0  0  0  0  0  0  0
  185.2030  174.1110  135.8730 C   0  0  2  0  0  3  0  0  0  0  0  0
  181.9880  178.2210  139.7380 C   0  0  0  0  0  2  0  0  0  0  0  0
  180.8310  176.5860  136.3910 C   0  0  0  0  0  2  0  0  0  0  0  0
  180.6460  179.3470  140.2080 S   0  0  0  0  0  0  0  0  0  0  0  0
  185.7380  178.4150  139.4700 C   0  0  2  0  0  3  0  0  0  0  0  0
  181.5420  174.2890  137.0560 C   0  0  0  0  0  0  0  0  0  0  0  0
  183.1900  174.3180  134.5940 O   0  0  0  0  0  1  0  0  0  0  0  0
  186.7190  178.7810  137.2060 C   0  0  0  0  0  1  0  0  0  0  0  0
  184.3230  178.1120  138.9760 C   0  0  0  0  0  2  0  0  0  0  0  0
  179.2410  177.4870  141.5040 N   0  0  0  0  0  2  0  0  0  0  0  0
  183.7250  174.5070  135.8700 C   0  0  1  0  0  3  0  0  0  0  0  0
  178.9750  177.3220  139.1770 N   0  0  0  0  0  2  0  0  0  0  0  0
  179.4770  177.9910  140.3400 C   0  0  0  0  0  0  0  0  0  0  0  0
  186.8740  177.9840  138.5030 C   0  0  2  0  0  0  0  0  0  0  0  0
  185.3490  172.7450  135.6240 O   0  0  0  0  0  1  0  0  0  0  0  0
  182.9170  173.7180  136.8980 C   0  0  0  0  0  2  0  0  0  0  0  0
  179.0130  176.6760  136.4700 S   0  0  0  0  0  0  0  0  0  0  0  0
  186.7980  176.4980  138.2320 C   0  0  0  0  0  3  0  0  0  0  0  0
  183.3070  178.9580  139.7170 C   0  0  0  0  0  2  0  0  0  0  0  0
  181.3850  175.7090  137.5060 C   0  0  0  0  0  2  0  0  0  0  0  0
  180.4230  173.3930  137.1190 S   0  0  0  0  0  0  0  0  0  0  0  0
  179.0440  177.8240  137.8400 C   0  0  0  0  0  0  0  0  0  0  0  0
  185.9380  175.9530  137.3680 C   0  0  0  0  0  3  0  0  0  0  0  0
  185.8600  178.7490  142.0260 C   0  0  0  0  0  0  0  0  0  0  0  0
  185.9450  177.9450  140.8450 N   0  0  0  0  0  2  0  0  0  0  0  0
  185.6810  179.9930  141.9550 O   0  0  0  0  0  0  0  0  0  0  0  0
  186.0330  177.9760  143.6260 S   0  0  0  0  0  1  0  0  0  0  0  0
  189.0550  179.0360  138.2620 O   0  0  0  0  0  1  0  0  0  0  0  0
  188.2450  178.3300  139.1560 C   0  0  2  0  0  3  0  0  0  0  0  0
  190.6070  175.9850  142.0240 O   0  0  0  0  0  1  0  0  0  0  0  0
  188.6810  176.8940  141.1250 O   0  0  0  0  0  0  0  0  0  0  0  0
  189.9770  177.1570  141.6000 C   0  0  1  0  0  0  0  0  0  0  0  0
  190.0030  178.2350  142.6670 C   0  0  0  0  0  1  0  0  0  0  0  0
  189.0890  177.2150  139.8170 C   0  0  2  0  0  3  0  0  0  0  0  0
  190.4790  177.6100  140.2540 C   0  0  0  0  0  2  0  0  0  0  0  0
  1 25  1  0  0  0  0
  2 24  2  0  0  0  0
  3 17  1  1  0  0  0
  3  1  1  0  0  0  0
  4  6  1  0  0  0  0
  5 19  1  0  0  0  0
  5 22  1  0  0  0  0
  6 15  1  0  0  0  0
  7 27  1  1  0  0  0
  8 23  2  0  0  0  0
  8 22  1  0  0  0  0
 11  7  1  0  0  0  0
 11 21  1  0  0  0  0
 13  9  1  6  0  0  0
 13  3  1  0  0  0  0
 13 18  1  0  0  0  0
 14 15  1  0  0  0  0
 15 12  2  0  0  0  0
 16 10  1  6  0  0  0
 16 31  1  0  0  0  0
 16  7  1  0  0  0  0
 18  8  1  0  0  0  0
 19 24  1  0  0  0  0
 20 16  1  0  0  0  0
 21  4  1  0  0  0  0
 24 14  1  0  0  0  0
 25 20  2  0  0  0  0
 26 29  1  0  0  0  0
 27 26  1  0  0  0  0
 28 26  2  0  0  0  0
 31 30  1  6  0  0  0
 33 34  1  0  0  0  0
 34 32  1  0  0  0  0
 34 35  1  1  0  0  0
 36 31  1  1  0  0  0
 36 37  1  0  0  0  0
 36 33  1  0  0  0  0
 37 34  1  0  0  0  0
M  END
>  <MODEL>
5

>  <REMARK>
 VINA RESULT:      -4.9      2.521      3.037
  Name = 
  3 active torsions:
  status: ('A' for Active; 'I' for Inactive)
    1  A    between atoms: C_10  and  N_22
    2  A    between atoms: C_20  and  C_24
    3  A    between atoms: C_24  and  C_30
                            x       y       z     vdW  Elec       q    Type
                         _______ _______ _______ _____ _____    ______ ____

>  <TORSDO>
F 3

$$$$
=
 OpenBabel11052415363D

 37 38  0  0  1  0  0  0  0  0999 V2000
  184.9600  177.8790  142.6240 C   0  0  0  0  0  2  0  0  0  0  0  0
  191.2290  177.2710  137.3670 O   0  0  0  0  0  0  0  0  0  0  0  0
  186.0770  178.5730  143.3940 C   0  0  2  0  0  3  0  0  0  0  0  0
  187.7700  176.0860  137.6390 C   0  0  0  0  0  2  0  0  0  0  0  0
  190.0210  177.7740  140.3410 C   0  0  0  0  0  2  0  0  0  0  0  0
  188.8770  175.7430  136.2440 S   0  0  0  0  0  0  0  0  0  0  0  0
  184.3740  177.6420  138.1040 C   0  0  2  0  0  3  0  0  0  0  0  0
  189.0680  176.4460  142.2260 C   0  0  0  0  0  0  0  0  0  0  0  0
  188.4190  179.0610  143.4580 O   0  0  0  0  0  1  0  0  0  0  0  0
  184.2840  180.0180  138.8580 C   0  0  0  0  0  1  0  0  0  0  0  0
  185.8650  177.4500  138.3830 C   0  0  0  0  0  2  0  0  0  0  0  0
  189.6790  173.3760  137.1760 N   0  0  0  0  0  2  0  0  0  0  0  0
  187.4640  178.2570  142.8320 C   0  0  1  0  0  3  0  0  0  0  0  0
  190.7620  175.1560  138.2580 N   0  0  0  0  0  2  0  0  0  0  0  0
  189.8900  174.6470  137.2420 C   0  0  0  0  0  0  0  0  0  0  0  0
  183.6540  178.6380  139.0540 C   0  0  2  0  0  0  0  0  0  0  0  0
  186.0010  178.2290  144.7450 O   0  0  0  0  0  1  0  0  0  0  0  0
  187.8310  176.7840  142.9980 C   0  0  0  0  0  2  0  0  0  0  0  0
  191.6890  177.1430  139.9720 S   0  0  0  0  0  0  0  0  0  0  0  0
  183.7900  178.1860  140.4910 C   0  0  0  0  0  3  0  0  0  0  0  0
  186.5630  176.8670  137.1710 C   0  0  0  0  0  2  0  0  0  0  0  0
  189.0820  176.6420  140.7420 C   0  0  0  0  0  2  0  0  0  0  0  0
  190.0700  175.6270  142.8470 S   0  0  0  0  0  0  0  0  0  0  0  0
  191.1910  176.5150  138.3730 C   0  0  0  0  0  0  0  0  0  0  0  0
  184.8920  178.3800  141.2200 C   0  0  0  0  0  3  0  0  0  0  0  0
  183.2600  175.7440  136.7570 C   0  0  0  0  0  0  0  0  0  0  0  0
  183.6750  176.3580  137.9820 N   0  0  0  0  0  2  0  0  0  0  0  0
  183.3950  176.3360  135.6530 O   0  0  0  0  0  0  0  0  0  0  0  0
  182.5200  174.1200  136.7970 S   0  0  0  0  0  1  0  0  0  0  0  0
  182.0010  178.9690  137.3000 O   0  0  0  0  0  1  0  0  0  0  0  0
  182.1480  178.7010  138.6640 C   0  0  2  0  0  3  0  0  0  0  0  0
  178.9310  181.4960  139.7340 O   0  0  0  0  0  1  0  0  0  0  0  0
  179.8330  179.4680  139.0860 O   0  0  0  0  0  0  0  0  0  0  0  0
  179.7520  180.8440  138.8120 C   0  0  1  0  0  0  0  0  0  0  0  0
  179.3440  181.1340  137.3800 C   0  0  0  0  0  1  0  0  0  0  0  0
  181.1820  179.6140  139.4560 C   0  0  2  0  0  3  0  0  0  0  0  0
  181.2130  181.0800  139.0960 C   0  0  0  0  0  2  0  0  0  0  0  0
  1  3  1  0  0  0  0
  2 24  2  0  0  0  0
  3 17  1  1  0  0  0
  5 22  1  0  0  0  0
  6 15  1  0  0  0  0
  6  4  1  0  0  0  0
  7 27  1  1  0  0  0
  7 11  1  0  0  0  0
  7 16  1  0  0  0  0
  8 23  2  0  0  0  0
  8 18  1  0  0  0  0
 12 15  2  0  0  0  0
 13 18  1  0  0  0  0
 13  3  1  0  0  0  0
 13  9  1  1  0  0  0
 14 24  1  0  0  0  0
 15 14  1  0  0  0  0
 16 10  1  6  0  0  0
 16 20  1  0  0  0  0
 19  5  1  0  0  0  0
 20 25  2  0  0  0  0
 21  4  1  0  0  0  0
 21 11  1  0  0  0  0
 22  8  1  0  0  0  0
 24 19  1  0  0  0  0
 25  1  1  0  0  0  0
 26 29  1  0  0  0  0
 26 27  1  0  0  0  0
 28 26  2  0  0  0  0
 31 30  1  6  0  0  0
 31 16  1  0  0  0  0
 33 36  1  0  0  0  0
 34 35  1  6  0  0  0
 34 33  1  0  0  0  0
 34 37  1  0  0  0  0
 34 32  1  0  0  0  0
 36 31  1  6  0  0  0
 37 36  1  0  0  0  0
M  END
>  <MODEL>
6

>  <REMARK>
 VINA RESULT:      -4.8      2.995      9.429
  Name = 
  3 active torsions:
  status: ('A' for Active; 'I' for Inactive)
    1  A    between atoms: C_10  and  N_22
    2  A    between atoms: C_20  and  C_24
    3  A    between atoms: C_24  and  C_30
                            x       y       z     vdW  Elec       q    Type
                         _______ _______ _______ _____ _____    ______ ____

>  <TORSDO>
F 3

$$$$
=
 OpenBabel11052415363D

 37 38  0  0  1  0  0  0  0  0999 V2000
  185.1010  177.9450  142.4560 C   0  0  0  0  0  2  0  0  0  0  0  0
  188.1550  177.8710  134.8430 O   0  0  0  0  0  0  0  0  0  0  0  0
  186.3400  178.8190  142.6130 C   0  0  2  0  0  3  0  0  0  0  0  0
  185.4400  176.2640  136.7100 C   0  0  0  0  0  2  0  0  0  0  0  0
  188.4400  178.3720  138.0410 C   0  0  0  0  0  2  0  0  0  0  0  0
  185.7910  175.9920  134.9520 S   0  0  0  0  0  0  0  0  0  0  0  0
  182.4880  177.3900  138.7560 C   0  0  2  0  0  3  0  0  0  0  0  0
  188.6870  177.0370  140.1330 C   0  0  0  0  0  0  0  0  0  0  0  0
  188.3410  179.6080  141.5620 O   0  0  0  0  0  1  0  0  0  0  0  0
  182.4340  179.7720  139.4960 C   0  0  0  0  0  1  0  0  0  0  0  0
  183.9440  177.4080  138.2900 C   0  0  0  0  0  2  0  0  0  0  0  0
  187.2600  173.8030  135.3570 N   0  0  0  0  0  2  0  0  0  0  0  0
  187.3260  178.6550  141.4540 C   0  0  1  0  0  3  0  0  0  0  0  0
  188.4660  175.7640  135.8180 N   0  0  0  0  0  2  0  0  0  0  0  0
  187.2980  175.0920  135.3320 C   0  0  0  0  0  0  0  0  0  0  0  0
  182.1710  178.3340  139.9480 C   0  0  2  0  0  0  0  0  0  0  0  0
  186.9600  178.5410  143.8320 O   0  0  0  0  0  1  0  0  0  0  0  0
  187.9290  177.2530  141.4050 C   0  0  0  0  0  2  0  0  0  0  0  0
  189.8050  177.9440  136.9130 S   0  0  0  0  0  0  0  0  0  0  0  0
  183.0320  177.9820  141.1410 C   0  0  0  0  0  3  0  0  0  0  0  0
  184.0600  176.8550  136.8840 C   0  0  0  0  0  2  0  0  0  0  0  0
  187.9710  177.1530  138.8230 C   0  0  0  0  0  2  0  0  0  0  0  0
  189.9670  176.3890  140.1910 S   0  0  0  0  0  0  0  0  0  0  0  0
  188.7040  177.1710  135.7360 C   0  0  0  0  0  0  0  0  0  0  0  0
  184.3080  178.3570  141.2610 C   0  0  0  0  0  3  0  0  0  0  0  0
  180.9860  175.3680  138.1930 C   0  0  0  0  0  0  0  0  0  0  0  0
  182.0010  176.0210  138.9630 N   0  0  0  0  0  2  0  0  0  0  0  0
  180.3480  175.9860  137.3000 O   0  0  0  0  0  0  0  0  0  0  0  0
  180.6030  173.6560  138.5200 S   0  0  0  0  0  1  0  0  0  0  0  0
  179.9300  179.2790  139.8710 O   0  0  0  0  0  1  0  0  0  0  0  0
  180.6680  178.1810  140.3220 C   0  0  2  0  0  3  0  0  0  0  0  0
  179.0140  178.5030  144.3800 O   0  0  0  0  0  1  0  0  0  0  0  0
  178.9320  178.2230  142.0870 O   0  0  0  0  0  0  0  0  0  0  0  0
  179.3770  179.0370  143.1420 C   0  0  1  0  0  0  0  0  0  0  0  0
  178.9370  180.4810  142.9940 C   0  0  0  0  0  1  0  0  0  0  0  0
  180.2620  177.8780  141.7840 C   0  0  2  0  0  3  0  0  0  0  0  0
  180.8320  178.8010  142.8330 C   0  0  0  0  0  2  0  0  0  0  0  0
  1  3  1  0  0  0  0
  2 24  2  0  0  0  0
  3 17  1  1  0  0  0
  4 21  1  0  0  0  0
  5 22  1  0  0  0  0
  6 15  1  0  0  0  0
  6  4  1  0  0  0  0
  7 27  1  1  0  0  0
  7 16  1  0  0  0  0
  8 23  2  0  0  0  0
  8 18  1  0  0  0  0
 11  7  1  0  0  0  0
 13  9  1  1  0  0  0
 13  3  1  0  0  0  0
 15 12  2  0  0  0  0
 15 14  1  0  0  0  0
 16 10  1  6  0  0  0
 16 31  1  0  0  0  0
 16 20  1  0  0  0  0
 18 13  1  0  0  0  0
 19  5  1  0  0  0  0
 20 25  2  0  0  0  0
 21 11  1  0  0  0  0
 22  8  1  0  0  0  0
 24 14  1  0  0  0  0
 24 19  1  0  0  0  0
 25  1  1  0  0  0  0
 26 29  1  0  0  0  0
 26 27  1  0  0  0  0
 28 26  2  0  0  0  0
 31 30  1  1  0  0  0
 33 34  1  0  0  0  0
 34 35  1  6  0  0  0
 34 32  1  0  0  0  0
 36 31  1  6  0  0  0
 36 33  1  0  0  0  0
 36 37  1  0  0  0  0
 37 34  1  0  0  0  0
M  END
>  <MODEL>
7

>  <REMARK>
 VINA RESULT:      -4.1      3.172      9.403
  Name = 
  3 active torsions:
  status: ('A' for Active; 'I' for Inactive)
    1  A    between atoms: C_10  and  N_22
    2  A    between atoms: C_20  and  C_24
    3  A    between atoms: C_24  and  C_30
                            x       y       z     vdW  Elec       q    Type
                         _______ _______ _______ _____ _____    ______ ____

>  <TORSDO>
F 3

$$$$
=
 OpenBabel11052415363D

 37 38  0  0  1  0  0  0  0  0999 V2000
  182.4050  178.5680  142.7670 C   0  0  0  0  0  2  0  0  0  0  0  0
  189.4210  179.0270  138.5420 O   0  0  0  0  0  0  0  0  0  0  0  0
  183.3220  179.2630  143.7670 C   0  0  2  0  0  3  0  0  0  0  0  0
  186.0910  177.5460  138.1490 C   0  0  0  0  0  2  0  0  0  0  0  0
  187.7380  179.1110  141.3200 C   0  0  0  0  0  2  0  0  0  0  0  0
  187.4220  177.4430  136.9220 S   0  0  0  0  0  0  0  0  0  0  0  0
  182.5310  178.7670  138.2090 C   0  0  2  0  0  3  0  0  0  0  0  0
  186.6430  177.5190  142.8980 C   0  0  0  0  0  0  0  0  0  0  0  0
  185.5700  179.9270  144.2480 O   0  0  0  0  0  1  0  0  0  0  0  0
  182.1010  181.0350  139.1560 C   0  0  0  0  0  1  0  0  0  0  0  0
  183.9740  178.6670  138.7040 C   0  0  0  0  0  2  0  0  0  0  0  0
  188.2970  175.0620  137.7470 N   0  0  0  0  0  2  0  0  0  0  0  0
  184.8020  179.1210  143.4060 C   0  0  1  0  0  3  0  0  0  0  0  0
  189.0310  176.7980  139.1470 N   0  0  0  0  0  2  0  0  0  0  0  0
  188.3740  176.3320  137.9630 C   0  0  0  0  0  0  0  0  0  0  0  0
  181.5840  179.5950  139.1210 C   0  0  2  0  0  0  0  0  0  0  0  0
  183.0760  178.7720  145.0500 O   0  0  0  0  0  1  0  0  0  0  0  0
  185.2780  177.6720  143.4910 C   0  0  0  0  0  2  0  0  0  0  0  0
  189.4950  178.6590  141.1640 S   0  0  0  0  0  0  0  0  0  0  0  0
  181.5450  179.0050  140.5130 C   0  0  0  0  0  3  0  0  0  0  0  0
  184.8990  178.2730  137.5700 C   0  0  0  0  0  2  0  0  0  0  0  0
  186.8620  177.8720  141.4590 C   0  0  0  0  0  2  0  0  0  0  0  0
  187.6140  176.7210  143.5920 S   0  0  0  0  0  0  0  0  0  0  0  0
  189.3050  178.1670  139.4550 C   0  0  0  0  0  0  0  0  0  0  0  0
  182.5010  179.2090  141.4230 C   0  0  0  0  0  3  0  0  0  0  0  0
  182.0190  176.8490  136.5610 C   0  0  0  0  0  0  0  0  0  0  0  0
  181.9840  177.4510  137.8590 N   0  0  0  0  0  2  0  0  0  0  0  0
  182.4640  177.4760  135.5640 O   0  0  0  0  0  0  0  0  0  0  0  0
  181.4010  175.1870  136.3490 S   0  0  0  0  0  1  0  0  0  0  0  0
  179.4920  178.3900  138.8200 O   0  0  0  0  0  1  0  0  0  0  0  0
  180.1550  179.5790  138.5040 C   0  0  2  0  0  3  0  0  0  0  0  0
  179.9860  181.5770  134.5940 O   0  0  0  0  0  1  0  0  0  0  0  0
  181.0150  180.5990  136.4190 O   0  0  0  0  0  0  0  0  0  0  0  0
  180.1080  181.5810  135.9850 C   0  0  1  0  0  0  0  0  0  0  0  0
  180.4340  182.9610  136.5240 C   0  0  0  0  0  1  0  0  0  0  0  0
  179.9600  179.8700  136.9970 C   0  0  2  0  0  3  0  0  0  0  0  0
  178.9310  180.9200  136.6540 C   0  0  0  0  0  2  0  0  0  0  0  0
  1  3  1  0  0  0  0
  2 24  2  0  0  0  0
  3 17  1  1  0  0  0
  5 22  1  0  0  0  0
  6 15  1  0  0  0  0
  6  4  1  0  0  0  0
  7 27  1  1  0  0  0
  7 11  1  0  0  0  0
  7 16  1  0  0  0  0
  8 18  1  0  0  0  0
  8 23  2  0  0  0  0
 12 15  2  0  0  0  0
 13 18  1  0  0  0  0
 13  3  1  0  0  0  0
 13  9  1  1  0  0  0
 14 24  1  0  0  0  0
 15 14  1  0  0  0  0
 16 10  1  1  0  0  0
 16 20  1  0  0  0  0
 19  5  1  0  0  0  0
 20 25  2  0  0  0  0
 21  4  1  0  0  0  0
 21 11  1  0  0  0  0
 22  8  1  0  0  0  0
 24 19  1  0  0  0  0
 25  1  1  0  0  0  0
 26 27  1  0  0  0  0
 28 26  2  0  0  0  0
 29 26  1  0  0  0  0
 31 30  1  6  0  0  0
 31 16  1  0  0  0  0
 32 34  1  0  0  0  0
 33 36  1  0  0  0  0
 34 33  1  0  0  0  0
 34 35  1  1  0  0  0
 34 37  1  0  0  0  0
 36 31  1  1  0  0  0
 37 36  1  0  0  0  0
M  END
>  <MODEL>
8

>  <REMARK>
 VINA RESULT:      -3.3      3.233      9.409
  Name = 
  3 active torsions:
  status: ('A' for Active; 'I' for Inactive)
    1  A    between atoms: C_10  and  N_22
    2  A    between atoms: C_20  and  C_24
    3  A    between atoms: C_24  and  C_30
                            x       y       z     vdW  Elec       q    Type
                         _______ _______ _______ _____ _____    ______ ____

>  <TORSDO>
F 3

$$$$
