=
 OpenBabel11052415453D

 34 38  0  0  1  0  0  0  0  0999 V2000
  185.6610  178.8030  143.1200 C   0  0  1  0  0  3  0  0  0  0  0  0
  185.3630  179.5420  146.7770 C   0  0  0  0  0  3  0  0  0  0  0  0
  188.4140  177.5120  147.7490 C   0  0  0  0  0  0  0  0  0  0  0  0
  183.6960  179.4010  145.1160 O   0  0  0  0  0  0  0  0  0  0  0  0
  183.7180  178.2800  141.5780 C   0  0  0  0  0  3  0  0  0  0  0  0
  181.4330  178.6020  142.3060 C   0  0  0  0  0  3  0  0  0  0  0  0
  188.9270  176.1110  147.6450 C   0  0  0  0  0  1  0  0  0  0  0  0
  182.3470  178.2470  141.3110 C   0  0  0  0  0  3  0  0  0  0  0  0
  183.2590  179.0170  143.8440 C   0  0  0  0  0  0  0  0  0  0  0  0
  184.1850  178.6470  142.8500 C   0  0  0  0  0  0  0  0  0  0  0  0
  181.8890  178.9910  143.5680 C   0  0  0  0  0  3  0  0  0  0  0  0
  186.7490  179.3110  147.3190 C   0  0  0  0  0  2  0  0  0  0  0  0
  189.2520  178.4910  148.5110 C   0  0  0  0  0  1  0  0  0  0  0  0
  187.2330  177.8740  147.1990 C   0  0  0  0  0  0  0  0  0  0  0  0
  186.3940  176.8460  146.4670 C   0  0  0  0  0  2  0  0  0  0  0  0
  185.0220  179.2300  145.5250 C   0  0  0  0  0  0  0  0  0  0  0  0
  186.2720  177.1150  144.9590 C   0  0  0  0  0  2  0  0  0  0  0  0
  186.0280  178.5920  144.6000 C   0  0  1  0  0  3  0  0  0  0  0  0
  186.4630  177.9480  142.2520 N   0  0  0  0  0  2  0  0  0  0  0  0
  189.5760  178.1780  138.5350 C   0  0  0  0  0  2  0  0  0  0  0  0
  189.3550  177.8870  141.7670 C   0  0  0  0  0  2  0  0  0  0  0  0
  186.8930  178.7540  141.1210 C   0  0  1  0  0  3  0  0  0  0  0  0
  190.2690  177.1500  139.4620 C   0  0  0  0  0  2  0  0  0  0  0  0
  188.4110  178.8420  141.0720 C   0  0  2  0  0  3  0  0  0  0  0  0
  190.5940  177.7100  140.8680 C   0  0  2  0  0  3  0  0  0  0  0  0
  187.6660  177.8870  140.1590 C   0  0  2  0  0  3  0  0  0  0  0  0
  188.0570  178.3670  138.7740 C   0  0  0  0  0  2  0  0  0  0  0  0
  191.4950  176.8580  141.5090 O   0  0  0  0  0  0  0  0  0  0  0  0
  191.6750  177.4040  142.7860 C   0  0  0  0  0  2  0  0  0  0  0  0
  191.7060  176.3100  143.8470 C   0  0  2  0  0  3  0  0  0  0  0  0
  190.7080  175.2130  143.5260 C   0  0  0  0  0  1  0  0  0  0  0  0
  191.4230  176.8720  145.1550 N   0  0  0  0  0  2  0  0  0  0  0  0
  192.0720  176.0620  146.0940 N   0  0  0  0  0  2  0  0  0  0  0  0
  192.1140  176.7650  147.2500 O   0  0  0  0  0  1  0  0  0  0  0  0
  1 19  1  6  0  0  0
  1 18  1  0  0  0  0
  2 12  1  0  0  0  0
  3 13  1  0  0  0  0
  4 16  1  0  0  0  0
  5 10  1  0  0  0  0
  6 11  2  0  0  0  0
  7  3  1  0  0  0  0
  8  5  2  0  0  0  0
  8  6  1  0  0  0  0
  9  4  1  0  0  0  0
 10  1  1  0  0  0  0
 10  9  2  0  0  0  0
 11  9  1  0  0  0  0
 14 12  1  0  0  0  0
 14  3  2  0  0  0  0
 15 14  1  0  0  0  0
 16  2  2  0  0  0  0
 17 15  1  0  0  0  0
 18 17  1  1  0  0  0
 18 16  1  0  0  0  0
 20 27  1  0  0  0  0
 20 23  1  0  0  0  0
 22 19  1  1  0  0  0
 23 25  1  0  0  0  0
 24 22  1  0  0  0  0
 24 21  1  1  0  0  0
 25 28  1  1  0  0  0
 25 21  1  0  0  0  0
 26 27  1  6  0  0  0
 26 24  1  0  0  0  0
 26 22  1  0  0  0  0
 28 29  1  0  0  0  0
 29 30  1  0  0  0  0
 30 31  1  6  0  0  0
 30 32  1  0  0  0  0
 32 33  1  0  0  0  0
 33 34  1  0  0  0  0
M  END
>  <MODEL>
1

>  <REMARK>
 VINA RESULT:      -7.9      0.000      0.000
  Name = 
  7 active torsions:
  status: ('A' for Active; 'I' for Inactive)
    1  A    between atoms: C_1  and  N_9
    2  A    between atoms: C_7  and  N_21
    3  A    between atoms: C_7  and  C_29
    4  A    between atoms: C_8  and  N_9
    5  A    between atoms: N_11  and  N_21
    6  A    between atoms: O_26  and  C_28
    7  A    between atoms: O_26  and  C_29
                            x       y       z     vdW  Elec       q    Type
                         _______ _______ _______ _____ _____    ______ ____

>  <TORSDO>
F 7

$$$$
=
 OpenBabel11052415453D

 34 38  0  0  1  0  0  0  0  0999 V2000
  189.1370  176.6300  138.6290 C   0  0  1  0  0  3  0  0  0  0  0  0
  190.2660  173.6580  136.6550 C   0  0  0  0  0  3  0  0  0  0  0  0
  193.8730  174.7980  136.4200 C   0  0  0  0  0  0  0  0  0  0  0  0
  188.1590  174.7140  136.7390 O   0  0  0  0  0  0  0  0  0  0  0  0
  186.9570  177.8720  138.2710 C   0  0  0  0  0  3  0  0  0  0  0  0
  185.2310  176.9660  136.8350 C   0  0  0  0  0  3  0  0  0  0  0  0
  194.6670  175.9620  135.9160 C   0  0  0  0  0  1  0  0  0  0  0  0
  185.6790  177.9590  137.7100 C   0  0  0  0  0  3  0  0  0  0  0  0
  187.3420  175.7980  137.0720 C   0  0  0  0  0  0  0  0  0  0  0  0
  187.8040  176.8030  137.9430 C   0  0  0  0  0  0  0  0  0  0  0  0
  186.0600  175.8850  136.5210 C   0  0  0  0  0  3  0  0  0  0  0  0
  191.7500  173.5910  136.8970 C   0  0  0  0  0  2  0  0  0  0  0  0
  194.6410  173.6330  136.9610 C   0  0  0  0  0  1  0  0  0  0  0  0
  192.5230  174.7890  136.3660 C   0  0  0  0  0  0  0  0  0  0  0  0
  191.7820  175.9720  135.7750 C   0  0  0  0  0  2  0  0  0  0  0  0
  189.5180  174.6830  137.0670 C   0  0  0  0  0  0  0  0  0  0  0  0
  190.9430  176.7460  136.8050 C   0  0  0  0  0  2  0  0  0  0  0  0
  190.1560  175.8510  137.7780 C   0  0  1  0  0  3  0  0  0  0  0  0
  189.6880  177.9070  139.0700 N   0  0  0  0  0  2  0  0  0  0  0  0
  189.3290  176.2070  143.6030 C   0  0  0  0  0  2  0  0  0  0  0  0
  188.1350  178.3920  141.5100 C   0  0  0  0  0  2  0  0  0  0  0  0
  190.4230  177.6630  140.3010 C   0  0  1  0  0  3  0  0  0  0  0  0
  187.8490  176.5110  143.2630 C   0  0  0  0  0  2  0  0  0  0  0  0
  189.6260  178.1430  141.5050 C   0  0  2  0  0  3  0  0  0  0  0  0
  187.5940  177.9930  142.8970 C   0  0  2  0  0  3  0  0  0  0  0  0
  189.6640  176.6690  141.1440 C   0  0  2  0  0  3  0  0  0  0  0  0
  190.2670  176.0320  142.3820 C   0  0  0  0  0  2  0  0  0  0  0  0
  186.2230  178.2490  142.9340 O   0  0  0  0  0  0  0  0  0  0  0  0
  185.9020  178.3460  144.2950 C   0  0  0  0  0  2  0  0  0  0  0  0
  184.3920  178.3300  144.5020 C   0  0  2  0  0  3  0  0  0  0  0  0
  183.6720  178.9100  143.2990 C   0  0  0  0  0  1  0  0  0  0  0  0
  184.0420  179.0760  145.6970 N   0  0  0  0  0  2  0  0  0  0  0  0
  184.7670  178.5130  146.7540 N   0  0  0  0  0  2  0  0  0  0  0  0
  185.5260  179.5050  147.2750 O   0  0  0  0  0  1  0  0  0  0  0  0
  1 19  1  6  0  0  0
  2 12  1  0  0  0  0
  2 16  2  0  0  0  0
  3 13  1  0  0  0  0
  4 16  1  0  0  0  0
  4  9  1  0  0  0  0
  6  8  1  0  0  0  0
  7  3  1  0  0  0  0
  8  5  2  0  0  0  0
  9 10  2  0  0  0  0
 10  5  1  0  0  0  0
 10  1  1  0  0  0  0
 11  6  2  0  0  0  0
 11  9  1  0  0  0  0
 14  3  2  0  0  0  0
 14 12  1  0  0  0  0
 15 14  1  0  0  0  0
 15 17  1  0  0  0  0
 16 18  1  0  0  0  0
 18 17  1  6  0  0  0
 18  1  1  0  0  0  0
 21 25  1  0  0  0  0
 22 19  1  6  0  0  0
 22 26  1  0  0  0  0
 22 24  1  0  0  0  0
 23 20  1  0  0  0  0
 24 21  1  6  0  0  0
 25 28  1  6  0  0  0
 25 23  1  0  0  0  0
 26 24  1  0  0  0  0
 26 27  1  1  0  0  0
 27 20  1  0  0  0  0
 28 29  1  0  0  0  0
 29 30  1  0  0  0  0
 30 31  1  6  0  0  0
 30 32  1  0  0  0  0
 32 33  1  0  0  0  0
 33 34  1  0  0  0  0
M  END
>  <MODEL>
2

>  <REMARK>
 VINA RESULT:      -7.7      3.420      8.304
  Name = 
  7 active torsions:
  status: ('A' for Active; 'I' for Inactive)
    1  A    between atoms: C_1  and  N_9
    2  A    between atoms: C_7  and  N_21
    3  A    between atoms: C_7  and  C_29
    4  A    between atoms: C_8  and  N_9
    5  A    between atoms: N_11  and  N_21
    6  A    between atoms: O_26  and  C_28
    7  A    between atoms: O_26  and  C_29
                            x       y       z     vdW  Elec       q    Type
                         _______ _______ _______ _____ _____    ______ ____

>  <TORSDO>
F 7

$$$$
=
 OpenBabel11052415453D

 34 38  0  0  1  0  0  0  0  0999 V2000
  184.0100  177.8820  141.9400 C   0  0  1  0  0  3  0  0  0  0  0  0
  183.0170  176.8430  138.4850 C   0  0  0  0  0  3  0  0  0  0  0  0
  186.3950  177.6180  136.9490 C   0  0  0  0  0  0  0  0  0  0  0  0
  181.7120  177.7270  140.2380 O   0  0  0  0  0  0  0  0  0  0  0  0
  182.5500  179.2000  143.5390 C   0  0  0  0  0  3  0  0  0  0  0  0
  180.2040  179.5640  143.0680 C   0  0  0  0  0  3  0  0  0  0  0  0
  187.3310  178.7730  136.7860 C   0  0  0  0  0  1  0  0  0  0  0  0
  181.3060  179.7160  143.9130 C   0  0  0  0  0  3  0  0  0  0  0  0
  181.5890  178.3860  141.4650 C   0  0  0  0  0  0  0  0  0  0  0  0
  182.7070  178.5480  142.3060 C   0  0  0  0  0  0  0  0  0  0  0  0
  180.3450  178.8950  141.8490 C   0  0  0  0  0  3  0  0  0  0  0  0
  184.3210  176.5360  137.7980 C   0  0  0  0  0  2  0  0  0  0  0  0
  186.7750  176.3330  136.2820 C   0  0  0  0  0  1  0  0  0  0  0  0
  185.2430  177.7360  137.6470 C   0  0  0  0  0  0  0  0  0  0  0  0
  184.8730  179.0640  138.2760 C   0  0  0  0  0  2  0  0  0  0  0  0
  182.9580  177.4000  139.6950 C   0  0  0  0  0  0  0  0  0  0  0  0
  184.8730  179.0360  139.8120 C   0  0  0  0  0  2  0  0  0  0  0  0
  184.2270  177.7780  140.4190 C   0  0  1  0  0  3  0  0  0  0  0  0
  185.1470  178.5240  142.5910 N   0  0  0  0  0  2  0  0  0  0  0  0
  188.7010  177.4730  145.7250 C   0  0  0  0  0  2  0  0  0  0  0  0
  187.9100  177.5410  142.5710 C   0  0  0  0  0  2  0  0  0  0  0  0
  185.4990  177.7180  143.7490 C   0  0  1  0  0  3  0  0  0  0  0  0
  189.4940  178.0810  144.5430 C   0  0  0  0  0  2  0  0  0  0  0  0
  186.8630  177.0730  143.5570 C   0  0  2  0  0  3  0  0  0  0  0  0
  189.2940  177.3190  143.2110 C   0  0  2  0  0  3  0  0  0  0  0  0
  186.7130  178.3130  144.4170 C   0  0  2  0  0  3  0  0  0  0  0  0
  187.1970  177.8460  145.7760 C   0  0  0  0  0  2  0  0  0  0  0  0
  190.2770  177.7130  142.3010 O   0  0  0  0  0  0  0  0  0  0  0  0
  190.4300  176.6270  141.4300 C   0  0  0  0  0  2  0  0  0  0  0  0
  190.7500  177.1020  140.0170 C   0  0  2  0  0  3  0  0  0  0  0  0
  189.5390  177.7510  139.3740 C   0  0  0  0  0  1  0  0  0  0  0  0
  191.2070  175.9890  139.2060 N   0  0  0  0  0  2  0  0  0  0  0  0
  190.1530  175.6510  138.3480 N   0  0  0  0  0  2  0  0  0  0  0  0
  190.4620  174.4490  137.8090 O   0  0  0  0  0  1  0  0  0  0  0  0
  1 10  1  0  0  0  0
  1 19  1  1  0  0  0
  2 16  2  0  0  0  0
  3 14  2  0  0  0  0
  4  9  1  0  0  0  0
  5  8  1  0  0  0  0
  6  8  2  0  0  0  0
  7  3  1  0  0  0  0
  9 11  2  0  0  0  0
  9 10  1  0  0  0  0
 10  5  2  0  0  0  0
 11  6  1  0  0  0  0
 12  2  1  0  0  0  0
 13  3  1  0  0  0  0
 14 12  1  0  0  0  0
 14 15  1  0  0  0  0
 15 17  1  0  0  0  0
 16  4  1  0  0  0  0
 16 18  1  0  0  0  0
 18 17  1  6  0  0  0
 18  1  1  0  0  0  0
 20 27  1  0  0  0  0
 21 25  1  0  0  0  0
 22 19  1  6  0  0  0
 22 26  1  0  0  0  0
 23 20  1  0  0  0  0
 24 21  1  6  0  0  0
 24 22  1  0  0  0  0
 24 26  1  0  0  0  0
 25 28  1  6  0  0  0
 25 23  1  0  0  0  0
 26 27  1  1  0  0  0
 29 28  1  0  0  0  0
 30 31  1  6  0  0  0
 30 29  1  0  0  0  0
 32 30  1  0  0  0  0
 33 32  1  0  0  0  0
 34 33  1  0  0  0  0
M  END
>  <MODEL>
3

>  <REMARK>
 VINA RESULT:      -7.6      2.674      6.323
  Name = 
  7 active torsions:
  status: ('A' for Active; 'I' for Inactive)
    1  A    between atoms: C_1  and  N_9
    2  A    between atoms: C_7  and  N_21
    3  A    between atoms: C_7  and  C_29
    4  A    between atoms: C_8  and  N_9
    5  A    between atoms: N_11  and  N_21
    6  A    between atoms: O_26  and  C_28
    7  A    between atoms: O_26  and  C_29
                            x       y       z     vdW  Elec       q    Type
                         _______ _______ _______ _____ _____    ______ ____

>  <TORSDO>
F 7

$$$$
=
 OpenBabel11052415453D

 34 38  0  0  1  0  0  0  0  0999 V2000
  183.5120  178.0010  141.9160 C   0  0  1  0  0  3  0  0  0  0  0  0
  183.0550  176.7130  138.4320 C   0  0  0  0  0  3  0  0  0  0  0  0
  186.6000  177.5030  137.3460 C   0  0  0  0  0  0  0  0  0  0  0  0
  181.4890  177.6620  139.9170 O   0  0  0  0  0  0  0  0  0  0  0  0
  181.8050  179.3680  143.1970 C   0  0  0  0  0  3  0  0  0  0  0  0
  179.5430  179.6210  142.3720 C   0  0  0  0  0  3  0  0  0  0  0  0
  187.5220  178.6760  137.2410 C   0  0  0  0  0  1  0  0  0  0  0  0
  180.5070  179.8640  143.3540 C   0  0  0  0  0  3  0  0  0  0  0  0
  181.1740  178.3920  141.0670 C   0  0  0  0  0  0  0  0  0  0  0  0
  182.1530  178.6440  142.0460 C   0  0  0  0  0  0  0  0  0  0  0  0
  179.8760  178.8830  141.2330 C   0  0  0  0  0  3  0  0  0  0  0  0
  184.4520  176.4070  137.9600 C   0  0  0  0  0  2  0  0  0  0  0  0
  187.1040  176.1920  136.8280 C   0  0  0  0  0  1  0  0  0  0  0  0
  185.3570  177.6260  137.8620 C   0  0  0  0  0  0  0  0  0  0  0  0
  184.8680  178.9780  138.3410 C   0  0  0  0  0  2  0  0  0  0  0  0
  182.8080  177.3430  139.5810 C   0  0  0  0  0  0  0  0  0  0  0  0
  184.6460  179.0470  139.8600 C   0  0  0  0  0  2  0  0  0  0  0  0
  183.9490  177.8090  140.4520 C   0  0  1  0  0  3  0  0  0  0  0  0
  184.5270  178.7200  142.6770 N   0  0  0  0  0  2  0  0  0  0  0  0
  187.0520  178.1450  146.7820 C   0  0  0  0  0  2  0  0  0  0  0  0
  186.9620  177.3860  143.6210 C   0  0  0  0  0  2  0  0  0  0  0  0
  184.4530  178.2530  144.0520 C   0  0  1  0  0  3  0  0  0  0  0  0
  188.1830  178.2530  145.7300 C   0  0  0  0  0  2  0  0  0  0  0  0
  185.6590  177.3890  144.3890 C   0  0  2  0  0  3  0  0  0  0  0  0
  188.1050  177.1670  144.6300 C   0  0  2  0  0  3  0  0  0  0  0  0
  185.6010  178.8380  144.8370 C   0  0  2  0  0  3  0  0  0  0  0  0
  185.6840  178.7300  146.3480 C   0  0  0  0  0  2  0  0  0  0  0  0
  189.3150  177.1250  143.9360 O   0  0  0  0  0  0  0  0  0  0  0  0
  190.1670  177.9970  144.6250 C   0  0  0  0  0  2  0  0  0  0  0  0
  191.5120  177.3370  144.9060 C   0  0  2  0  0  3  0  0  0  0  0  0
  191.6340  176.0160  144.1700 C   0  0  0  0  0  1  0  0  0  0  0  0
  191.6800  177.1280  146.3320 N   0  0  0  0  0  2  0  0  0  0  0  0
  192.0560  175.7910  146.5060 N   0  0  0  0  0  2  0  0  0  0  0  0
  192.6780  175.7150  147.7060 O   0  0  0  0  0  1  0  0  0  0  0  0
  1 10  1  0  0  0  0
  1 19  1  1  0  0  0
  2 16  2  0  0  0  0
  3 14  2  0  0  0  0
  4  9  1  0  0  0  0
  5  8  1  0  0  0  0
  6  8  2  0  0  0  0
  7  3  1  0  0  0  0
  9 11  2  0  0  0  0
  9 10  1  0  0  0  0
 10  5  2  0  0  0  0
 11  6  1  0  0  0  0
 12  2  1  0  0  0  0
 13  3  1  0  0  0  0
 14 12  1  0  0  0  0
 14 15  1  0  0  0  0
 15 17  1  0  0  0  0
 16  4  1  0  0  0  0
 16 18  1  0  0  0  0
 18 17  1  6  0  0  0
 18  1  1  0  0  0  0
 21 25  1  0  0  0  0
 22 19  1  6  0  0  0
 22 24  1  0  0  0  0
 22 26  1  0  0  0  0
 23 20  1  0  0  0  0
 24 21  1  6  0  0  0
 24 26  1  0  0  0  0
 25 28  1  6  0  0  0
 25 23  1  0  0  0  0
 26 27  1  1  0  0  0
 27 20  1  0  0  0  0
 28 29  1  0  0  0  0
 29 30  1  0  0  0  0
 30 31  1  6  0  0  0
 30 32  1  0  0  0  0
 32 33  1  0  0  0  0
 33 34  1  0  0  0  0
M  END
>  <MODEL>
4

>  <REMARK>
 VINA RESULT:      -7.5      2.223      5.979
  Name = 
  7 active torsions:
  status: ('A' for Active; 'I' for Inactive)
    1  A    between atoms: C_1  and  N_9
    2  A    between atoms: C_7  and  N_21
    3  A    between atoms: C_7  and  C_29
    4  A    between atoms: C_8  and  N_9
    5  A    between atoms: N_11  and  N_21
    6  A    between atoms: O_26  and  C_28
    7  A    between atoms: O_26  and  C_29
                            x       y       z     vdW  Elec       q    Type
                         _______ _______ _______ _____ _____    ______ ____

>  <TORSDO>
F 7

$$$$
=
 OpenBabel11052415453D

 34 38  0  0  1  0  0  0  0  0999 V2000
  185.9230  178.9970  143.0510 C   0  0  1  0  0  3  0  0  0  0  0  0
  185.3620  179.3060  146.7380 C   0  0  0  0  0  3  0  0  0  0  0  0
  188.5500  177.4870  147.6860 C   0  0  0  0  0  0  0  0  0  0  0  0
  183.8060  179.1840  144.9710 O   0  0  0  0  0  0  0  0  0  0  0  0
  184.1260  178.4580  141.3460 C   0  0  0  0  0  3  0  0  0  0  0  0
  181.7850  178.4780  141.9590 C   0  0  0  0  0  3  0  0  0  0  0  0
  189.2100  176.1610  147.4720 C   0  0  0  0  0  1  0  0  0  0  0  0
  182.7810  178.3220  140.9920 C   0  0  0  0  0  3  0  0  0  0  0  0
  183.4770  178.8990  143.6420 C   0  0  0  0  0  0  0  0  0  0  0  0
  184.4860  178.7290  142.6750 C   0  0  0  0  0  0  0  0  0  0  0  0
  182.1330  178.7710  143.2800 C   0  0  0  0  0  3  0  0  0  0  0  0
  186.7350  179.1530  147.3380 C   0  0  0  0  0  2  0  0  0  0  0  0
  189.2430  178.4540  148.5940 C   0  0  0  0  0  1  0  0  0  0  0  0
  187.3690  177.7900  147.1030 C   0  0  0  0  0  0  0  0  0  0  0  0
  186.6780  176.7710  146.2200 C   0  0  0  0  0  2  0  0  0  0  0  0
  185.1190  179.0980  145.4420 C   0  0  0  0  0  0  0  0  0  0  0  0
  186.6080  177.1880  144.7430 C   0  0  0  0  0  2  0  0  0  0  0  0
  186.2330  178.6640  144.5220 C   0  0  1  0  0  3  0  0  0  0  0  0
  186.8520  178.3220  142.1520 N   0  0  0  0  0  2  0  0  0  0  0  0
  191.6470  177.5690  142.2060 C   0  0  0  0  0  2  0  0  0  0  0  0
  188.8920  176.8680  140.6260 C   0  0  0  0  0  2  0  0  0  0  0  0
  187.9610  177.8350  142.9560 C   0  0  1  0  0  3  0  0  0  0  0  0
  191.3580  177.6460  140.6870 C   0  0  0  0  0  2  0  0  0  0  0  0
  188.8540  176.9150  142.1370 C   0  0  2  0  0  3  0  0  0  0  0  0
  190.3440  176.5830  140.1990 C   0  0  2  0  0  3  0  0  0  0  0  0
  189.2560  178.3560  142.3840 C   0  0  2  0  0  3  0  0  0  0  0  0
  190.5760  178.2200  143.1180 C   0  0  0  0  0  2  0  0  0  0  0  0
  190.3950  176.5010  138.8060 O   0  0  0  0  0  0  0  0  0  0  0  0
  189.0670  176.6290  138.3800 C   0  0  0  0  0  2  0  0  0  0  0  0
  188.9900  176.7510  136.8630 C   0  0  2  0  0  3  0  0  0  0  0  0
  190.3740  176.7160  136.2430 C   0  0  0  0  0  1  0  0  0  0  0  0
  188.3100  177.9780  136.4920 N   0  0  0  0  0  2  0  0  0  0  0  0
  188.1930  178.7460  137.6560 N   0  0  0  0  0  2  0  0  0  0  0  0
  188.9400  179.8580  137.4640 O   0  0  0  0  0  1  0  0  0  0  0  0
  1 19  1  6  0  0  0
  1 18  1  0  0  0  0
  2 12  1  0  0  0  0
  3 13  1  0  0  0  0
  4 16  1  0  0  0  0
  5 10  1  0  0  0  0
  6 11  2  0  0  0  0
  7  3  1  0  0  0  0
  8  5  2  0  0  0  0
  8  6  1  0  0  0  0
  9  4  1  0  0  0  0
 10  1  1  0  0  0  0
 10  9  2  0  0  0  0
 11  9  1  0  0  0  0
 14 12  1  0  0  0  0
 14  3  2  0  0  0  0
 15 14  1  0  0  0  0
 16  2  2  0  0  0  0
 17 15  1  0  0  0  0
 18 17  1  6  0  0  0
 18 16  1  0  0  0  0
 20 27  1  0  0  0  0
 22 19  1  6  0  0  0
 23 20  1  0  0  0  0
 24 21  1  6  0  0  0
 24 26  1  0  0  0  0
 24 22  1  0  0  0  0
 25 28  1  6  0  0  0
 25 21  1  0  0  0  0
 25 23  1  0  0  0  0
 26 22  1  0  0  0  0
 26 27  1  1  0  0  0
 29 28  1  0  0  0  0
 30 31  1  6  0  0  0
 30 29  1  0  0  0  0
 32 30  1  0  0  0  0
 32 33  1  0  0  0  0
 34 33  1  0  0  0  0
M  END
>  <MODEL>
5

>  <REMARK>
 VINA RESULT:      -7.4      2.408      3.885
  Name = 
  7 active torsions:
  status: ('A' for Active; 'I' for Inactive)
    1  A    between atoms: C_1  and  N_9
    2  A    between atoms: C_7  and  N_21
    3  A    between atoms: C_7  and  C_29
    4  A    between atoms: C_8  and  N_9
    5  A    between atoms: N_11  and  N_21
    6  A    between atoms: O_26  and  C_28
    7  A    between atoms: O_26  and  C_29
                            x       y       z     vdW  Elec       q    Type
                         _______ _______ _______ _____ _____    ______ ____

>  <TORSDO>
F 7

$$$$
=
 OpenBabel11052415453D

 34 38  0  0  1  0  0  0  0  0999 V2000
  183.6620  178.2130  139.4970 C   0  0  1  0  0  3  0  0  0  0  0  0
  184.8570  176.3940  136.4520 C   0  0  0  0  0  3  0  0  0  0  0  0
  188.5190  176.5490  137.4200 C   0  0  0  0  0  0  0  0  0  0  0  0
  182.9670  177.7720  136.7540 O   0  0  0  0  0  0  0  0  0  0  0  0
  181.8450  179.9790  139.5170 C   0  0  0  0  0  3  0  0  0  0  0  0
  180.4530  180.3530  137.5720 C   0  0  0  0  0  3  0  0  0  0  0  0
  189.5690  177.5660  137.7400 C   0  0  0  0  0  1  0  0  0  0  0  0
  180.7850  180.6470  138.8970 C   0  0  0  0  0  3  0  0  0  0  0  0
  182.2470  178.7260  137.4790 C   0  0  0  0  0  0  0  0  0  0  0  0
  182.5950  179.0270  138.8090 C   0  0  0  0  0  0  0  0  0  0  0  0
  181.1800  179.3900  136.8670 C   0  0  0  0  0  3  0  0  0  0  0  0
  186.2020  175.8450  136.8490 C   0  0  0  0  0  2  0  0  0  0  0  0
  188.9500  175.1160  137.3740 C   0  0  0  0  0  1  0  0  0  0  0  0
  187.2430  176.9100  137.1610 C   0  0  0  0  0  0  0  0  0  0  0  0
  186.8520  178.3740  137.1800 C   0  0  0  0  0  2  0  0  0  0  0  0
  184.1740  177.2430  137.2220 C   0  0  0  0  0  0  0  0  0  0  0  0
  185.8850  178.7360  138.3180 C   0  0  0  0  0  2  0  0  0  0  0  0
  184.7550  177.7140  138.5330 C   0  0  1  0  0  3  0  0  0  0  0  0
  184.2460  178.9280  140.6270 N   0  0  0  0  0  2  0  0  0  0  0  0
  184.4770  178.7690  145.4720 C   0  0  0  0  0  2  0  0  0  0  0  0
  186.0250  177.9360  142.7360 C   0  0  0  0  0  2  0  0  0  0  0  0
  183.5550  178.4860  141.8270 C   0  0  1  0  0  3  0  0  0  0  0  0
  185.9610  178.9970  145.0940 C   0  0  0  0  0  2  0  0  0  0  0  0
  184.5200  177.7900  142.7750 C   0  0  2  0  0  3  0  0  0  0  0  0
  186.5420  177.8860  144.1870 C   0  0  2  0  0  3  0  0  0  0  0  0
  184.1050  179.2290  143.0190 C   0  0  2  0  0  3  0  0  0  0  0  0
  183.4470  179.1660  144.3840 C   0  0  0  0  0  2  0  0  0  0  0  0
  187.9340  177.9840  144.1710 O   0  0  0  0  0  0  0  0  0  0  0  0
  188.3490  177.5530  145.4370 C   0  0  0  0  0  2  0  0  0  0  0  0
  189.8670  177.6150  145.5640 C   0  0  2  0  0  3  0  0  0  0  0  0
  190.5390  177.1660  144.2800 C   0  0  0  0  0  1  0  0  0  0  0  0
  190.3120  176.7900  146.6720 N   0  0  0  0  0  2  0  0  0  0  0  0
  191.7110  176.8170  146.6630 N   0  0  0  0  0  2  0  0  0  0  0  0
  192.1060  176.9220  147.9530 O   0  0  0  0  0  1  0  0  0  0  0  0
  1 19  1  1  0  0  0
  2 12  1  0  0  0  0
  2 16  2  0  0  0  0
  3  7  1  0  0  0  0
  4 16  1  0  0  0  0
  4  9  1  0  0  0  0
  6  8  2  0  0  0  0
  8  5  1  0  0  0  0
  9 10  1  0  0  0  0
 10  1  1  0  0  0  0
 10  5  2  0  0  0  0
 11  9  2  0  0  0  0
 11  6  1  0  0  0  0
 12 14  1  0  0  0  0
 13  3  1  0  0  0  0
 14 15  1  0  0  0  0
 14  3  2  0  0  0  0
 15 17  1  0  0  0  0
 16 18  1  0  0  0  0
 18 17  1  6  0  0  0
 18  1  1  0  0  0  0
 21 25  1  0  0  0  0
 22 19  1  6  0  0  0
 22 24  1  0  0  0  0
 22 26  1  0  0  0  0
 23 20  1  0  0  0  0
 24 21  1  6  0  0  0
 24 26  1  0  0  0  0
 25 28  1  6  0  0  0
 25 23  1  0  0  0  0
 26 27  1  1  0  0  0
 27 20  1  0  0  0  0
 28 29  1  0  0  0  0
 29 30  1  0  0  0  0
 30 31  1  6  0  0  0
 30 32  1  0  0  0  0
 33 32  1  0  0  0  0
 33 34  1  0  0  0  0
M  END
>  <MODEL>
6

>  <REMARK>
 VINA RESULT:      -7.4      3.020      6.687
  Name = 
  7 active torsions:
  status: ('A' for Active; 'I' for Inactive)
    1  A    between atoms: C_1  and  N_9
    2  A    between atoms: C_7  and  N_21
    3  A    between atoms: C_7  and  C_29
    4  A    between atoms: C_8  and  N_9
    5  A    between atoms: N_11  and  N_21
    6  A    between atoms: O_26  and  C_28
    7  A    between atoms: O_26  and  C_29
                            x       y       z     vdW  Elec       q    Type
                         _______ _______ _______ _____ _____    ______ ____

>  <TORSDO>
F 7

$$$$
=
 OpenBabel11052415453D

 34 38  0  0  1  0  0  0  0  0999 V2000
  185.9400  179.1820  142.3960 C   0  0  1  0  0  3  0  0  0  0  0  0
  184.7280  179.0880  145.9350 C   0  0  0  0  0  3  0  0  0  0  0  0
  187.9410  177.6300  147.3210 C   0  0  0  0  0  0  0  0  0  0  0  0
  183.5260  178.9190  143.9140 O   0  0  0  0  0  0  0  0  0  0  0  0
  184.5540  178.5630  140.3660 C   0  0  0  0  0  3  0  0  0  0  0  0
  182.1650  178.2200  140.5500 C   0  0  0  0  0  3  0  0  0  0  0  0
  188.8120  176.4270  147.1450 C   0  0  0  0  0  1  0  0  0  0  0  0
  183.3210  178.2820  139.7690 C   0  0  0  0  0  3  0  0  0  0  0  0
  183.4710  178.7110  142.5320 C   0  0  0  0  0  0  0  0  0  0  0  0
  184.6420  178.7610  141.7530 C   0  0  0  0  0  0  0  0  0  0  0  0
  182.2390  178.4390  141.9280 C   0  0  0  0  0  3  0  0  0  0  0  0
  185.9870  179.0650  146.7610 C   0  0  0  0  0  2  0  0  0  0  0  0
  188.3230  178.5960  148.3990 C   0  0  0  0  0  1  0  0  0  0  0  0
  186.8430  177.8240  146.5570 C   0  0  0  0  0  0  0  0  0  0  0  0
  186.4660  176.8050  145.5010 C   0  0  0  0  0  2  0  0  0  0  0  0
  184.7390  178.9660  144.6070 C   0  0  0  0  0  0  0  0  0  0  0  0
  186.5860  177.3370  144.0650 C   0  0  0  0  0  2  0  0  0  0  0  0
  186.0430  178.7650  143.8740 C   0  0  1  0  0  3  0  0  0  0  0  0
  187.0960  178.7170  141.6370 N   0  0  0  0  0  2  0  0  0  0  0  0
  191.6630  177.3280  142.5170 C   0  0  0  0  0  2  0  0  0  0  0  0
  189.2630  177.2420  140.3230 C   0  0  0  0  0  2  0  0  0  0  0  0
  187.9470  177.9730  142.5510 C   0  0  1  0  0  3  0  0  0  0  0  0
  191.7220  177.6650  141.0070 C   0  0  0  0  0  2  0  0  0  0  0  0
  188.9010  177.0720  141.7810 C   0  0  2  0  0  3  0  0  0  0  0  0
  190.7380  176.8300  140.1520 C   0  0  2  0  0  3  0  0  0  0  0  0
  189.3810  178.3940  142.3470 C   0  0  2  0  0  3  0  0  0  0  0  0
  190.4890  177.9760  143.2950 C   0  0  0  0  0  2  0  0  0  0  0  0
  191.0840  176.9470  138.8050 O   0  0  0  0  0  0  0  0  0  0  0  0
  192.4470  176.6310  138.7440 C   0  0  0  0  0  2  0  0  0  0  0  0
  192.7830  175.9190  137.4390 C   0  0  2  0  0  3  0  0  0  0  0  0
  192.1950  174.5210  137.4140 C   0  0  0  0  0  1  0  0  0  0  0  0
  194.2220  175.8550  137.2590 N   0  0  0  0  0  2  0  0  0  0  0  0
  194.5290  176.6540  136.1520 N   0  0  0  0  0  2  0  0  0  0  0  0
  195.8650  176.5510  135.9570 O   0  0  0  0  0  1  0  0  0  0  0  0
  1 19  1  6  0  0  0
  1 18  1  0  0  0  0
  2 12  1  0  0  0  0
  3 13  1  0  0  0  0
  4 16  1  0  0  0  0
  5 10  1  0  0  0  0
  6 11  2  0  0  0  0
  7  3  1  0  0  0  0
  8  5  2  0  0  0  0
  8  6  1  0  0  0  0
  9  4  1  0  0  0  0
 10  1  1  0  0  0  0
 10  9  2  0  0  0  0
 11  9  1  0  0  0  0
 14 12  1  0  0  0  0
 14  3  2  0  0  0  0
 15 14  1  0  0  0  0
 16  2  2  0  0  0  0
 17 15  1  0  0  0  0
 18 17  1  6  0  0  0
 18 16  1  0  0  0  0
 20 27  1  0  0  0  0
 22 19  1  6  0  0  0
 23 20  1  0  0  0  0
 24 21  1  6  0  0  0
 24 26  1  0  0  0  0
 24 22  1  0  0  0  0
 25 28  1  6  0  0  0
 25 21  1  0  0  0  0
 25 23  1  0  0  0  0
 26 22  1  0  0  0  0
 26 27  1  1  0  0  0
 29 28  1  0  0  0  0
 30 31  1  1  0  0  0
 30 29  1  0  0  0  0
 32 30  1  0  0  0  0
 33 32  1  0  0  0  0
 34 33  1  0  0  0  0
M  END
>  <MODEL>
7

>  <REMARK>
 VINA RESULT:      -7.4      2.870      3.929
  Name = 
  7 active torsions:
  status: ('A' for Active; 'I' for Inactive)
    1  A    between atoms: C_1  and  N_9
    2  A    between atoms: C_7  and  N_21
    3  A    between atoms: C_7  and  C_29
    4  A    between atoms: C_8  and  N_9
    5  A    between atoms: N_11  and  N_21
    6  A    between atoms: O_26  and  C_28
    7  A    between atoms: O_26  and  C_29
                            x       y       z     vdW  Elec       q    Type
                         _______ _______ _______ _____ _____    ______ ____

>  <TORSDO>
F 7

$$$$
=
 OpenBabel11052415453D

 34 38  0  0  1  0  0  0  0  0999 V2000
  185.9200  178.8840  143.0730 C   0  0  1  0  0  3  0  0  0  0  0  0
  185.5570  179.3760  146.7650 C   0  0  0  0  0  3  0  0  0  0  0  0
  188.7260  177.4880  147.6380 C   0  0  0  0  0  0  0  0  0  0  0  0
  183.9100  179.2310  145.0840 O   0  0  0  0  0  0  0  0  0  0  0  0
  184.0220  178.3340  141.4850 C   0  0  0  0  0  3  0  0  0  0  0  0
  181.7170  178.4650  142.2110 C   0  0  0  0  0  3  0  0  0  0  0  0
  189.3290  176.1320  147.4540 C   0  0  0  0  0  1  0  0  0  0  0  0
  182.6570  178.2300  141.2040 C   0  0  0  0  0  3  0  0  0  0  0  0
  183.5050  178.8990  143.7880 C   0  0  0  0  0  0  0  0  0  0  0  0
  184.4580  178.6510  142.7810 C   0  0  0  0  0  0  0  0  0  0  0  0
  182.1410  178.8030  143.4980 C   0  0  0  0  0  3  0  0  0  0  0  0
  186.9520  179.2010  147.3040 C   0  0  0  0  0  2  0  0  0  0  0  0
  189.4960  178.4690  148.4670 C   0  0  0  0  0  1  0  0  0  0  0  0
  187.5280  177.8070  147.1010 C   0  0  0  0  0  0  0  0  0  0  0  0
  186.7600  176.7750  146.3010 C   0  0  0  0  0  2  0  0  0  0  0  0
  185.2420  179.1200  145.4940 C   0  0  0  0  0  0  0  0  0  0  0  0
  186.6290  177.1280  144.8110 C   0  0  0  0  0  2  0  0  0  0  0  0
  186.2920  178.6050  144.5410 C   0  0  1  0  0  3  0  0  0  0  0  0
  186.7790  178.1360  142.1620 N   0  0  0  0  0  2  0  0  0  0  0  0
  188.1210  177.9560  137.5010 C   0  0  0  0  0  2  0  0  0  0  0  0
  189.1450  177.4920  140.5530 C   0  0  0  0  0  2  0  0  0  0  0  0
  186.8920  178.9100  140.9350 C   0  0  1  0  0  3  0  0  0  0  0  0
  188.8760  176.7400  138.0920 C   0  0  0  0  0  2  0  0  0  0  0  0
  188.2430  178.6740  140.2760 C   0  0  2  0  0  3  0  0  0  0  0  0
  189.8500  177.1180  139.2350 C   0  0  2  0  0  3  0  0  0  0  0  0
  187.0030  177.9670  139.7630 C   0  0  2  0  0  3  0  0  0  0  0  0
  186.9070  178.4490  138.3280 C   0  0  0  0  0  2  0  0  0  0  0  0
  190.7150  176.0490  139.4760 O   0  0  0  0  0  0  0  0  0  0  0  0
  191.5080  175.9490  138.3260 C   0  0  0  0  0  2  0  0  0  0  0  0
  192.9760  176.1980  138.6520 C   0  0  2  0  0  3  0  0  0  0  0  0
  193.1180  177.1340  139.8380 C   0  0  0  0  0  1  0  0  0  0  0  0
  193.6590  176.7520  137.4980 N   0  0  0  0  0  2  0  0  0  0  0  0
  194.3720  175.7030  136.9060 N   0  0  0  0  0  2  0  0  0  0  0  0
  195.3130  175.3200  137.8000 O   0  0  0  0  0  1  0  0  0  0  0  0
  1 19  1  6  0  0  0
  1 18  1  0  0  0  0
  2 12  1  0  0  0  0
  3 13  1  0  0  0  0
  4 16  1  0  0  0  0
  5 10  1  0  0  0  0
  6 11  2  0  0  0  0
  7  3  1  0  0  0  0
  8  5  2  0  0  0  0
  8  6  1  0  0  0  0
  9  4  1  0  0  0  0
 10  1  1  0  0  0  0
 10  9  2  0  0  0  0
 11  9  1  0  0  0  0
 14 12  1  0  0  0  0
 14  3  2  0  0  0  0
 15 14  1  0  0  0  0
 16  2  2  0  0  0  0
 17 15  1  0  0  0  0
 18 17  1  6  0  0  0
 18 16  1  0  0  0  0
 20 23  1  0  0  0  0
 20 27  1  0  0  0  0
 22 19  1  1  0  0  0
 23 25  1  0  0  0  0
 24 21  1  1  0  0  0
 24 22  1  0  0  0  0
 25 28  1  1  0  0  0
 25 21  1  0  0  0  0
 26 27  1  6  0  0  0
 26 24  1  0  0  0  0
 26 22  1  0  0  0  0
 29 30  1  0  0  0  0
 29 28  1  0  0  0  0
 30 31  1  1  0  0  0
 32 30  1  0  0  0  0
 33 32  1  0  0  0  0
 33 34  1  0  0  0  0
M  END
>  <MODEL>
8

>  <REMARK>
 VINA RESULT:      -7.2      2.485      3.215
  Name = 
  7 active torsions:
  status: ('A' for Active; 'I' for Inactive)
    1  A    between atoms: C_1  and  N_9
    2  A    between atoms: C_7  and  N_21
    3  A    between atoms: C_7  and  C_29
    4  A    between atoms: C_8  and  N_9
    5  A    between atoms: N_11  and  N_21
    6  A    between atoms: O_26  and  C_28
    7  A    between atoms: O_26  and  C_29
                            x       y       z     vdW  Elec       q    Type
                         _______ _______ _______ _____ _____    ______ ____

>  <TORSDO>
F 7

$$$$
=
 OpenBabel11052415453D

 34 38  0  0  1  0  0  0  0  0999 V2000
  190.0020  176.9870  138.0510 C   0  0  1  0  0  3  0  0  0  0  0  0
  187.8410  177.2000  135.0030 C   0  0  0  0  0  3  0  0  0  0  0  0
  184.6540  176.2430  136.8180 C   0  0  0  0  0  0  0  0  0  0  0  0
  190.1300  176.6700  135.2070 O   0  0  0  0  0  0  0  0  0  0  0  0
  192.3340  175.9940  138.1150 C   0  0  0  0  0  3  0  0  0  0  0  0
  193.5060  175.4410  136.0710 C   0  0  0  0  0  3  0  0  0  0  0  0
  184.1080  175.1190  137.6410 C   0  0  0  0  0  1  0  0  0  0  0  0
  193.4780  175.5230  137.4650 C   0  0  0  0  0  3  0  0  0  0  0  0
  191.2390  176.2930  135.9700 C   0  0  0  0  0  0  0  0  0  0  0  0
  191.2000  176.3650  137.3760 C   0  0  0  0  0  0  0  0  0  0  0  0
  192.3900  175.8310  135.3250 C   0  0  0  0  0  3  0  0  0  0  0  0
  186.4510  177.4010  135.5440 C   0  0  0  0  0  2  0  0  0  0  0  0
  183.7190  177.3640  136.4900 C   0  0  0  0  0  1  0  0  0  0  0  0
  185.9300  176.2350  136.3700 C   0  0  0  0  0  0  0  0  0  0  0  0
  186.8360  175.0630  136.6910 C   0  0  0  0  0  2  0  0  0  0  0  0
  188.8830  176.9200  135.7880 C   0  0  0  0  0  0  0  0  0  0  0  0
  188.0040  175.4290  137.6200 C   0  0  0  0  0  2  0  0  0  0  0  0
  188.6900  176.7620  137.2760 C   0  0  1  0  0  3  0  0  0  0  0  0
  189.8750  176.5500  139.4370 N   0  0  0  0  0  2  0  0  0  0  0  0
  190.9910  177.7460  144.0070 C   0  0  0  0  0  2  0  0  0  0  0  0
  188.5270  177.1210  141.9780 C   0  0  0  0  0  2  0  0  0  0  0  0
  190.5620  177.5270  140.2670 C   0  0  1  0  0  3  0  0  0  0  0  0
  189.7840  176.7990  144.2160 C   0  0  0  0  0  2  0  0  0  0  0  0
  189.6950  177.9250  141.4520 C   0  0  2  0  0  3  0  0  0  0  0  0
  188.4940  177.2820  143.5100 C   0  0  2  0  0  3  0  0  0  0  0  0
  190.8240  176.9270  141.6260 C   0  0  2  0  0  3  0  0  0  0  0  0
  191.7200  177.6010  142.6470 C   0  0  0  0  0  2  0  0  0  0  0  0
  187.4000  176.5750  144.0120 O   0  0  0  0  0  0  0  0  0  0  0  0
  186.3930  177.5310  144.1930 C   0  0  0  0  0  2  0  0  0  0  0  0
  186.6780  178.3980  145.4140 C   0  0  2  0  0  3  0  0  0  0  0  0
  186.8470  177.5460  146.6580 C   0  0  0  0  0  1  0  0  0  0  0  0
  185.6050  179.3560  145.6100 N   0  0  0  0  0  2  0  0  0  0  0  0
  184.5990  178.6980  146.3270 N   0  0  0  0  0  2  0  0  0  0  0  0
  183.4280  178.9980  145.7170 O   0  0  0  0  0  1  0  0  0  0  0  0
  1 19  1  1  0  0  0
  2 12  1  0  0  0  0
  2 16  2  0  0  0  0
  3  7  1  0  0  0  0
  4 16  1  0  0  0  0
  4  9  1  0  0  0  0
  6  8  2  0  0  0  0
  8  5  1  0  0  0  0
  9 10  1  0  0  0  0
 10  1  1  0  0  0  0
 10  5  2  0  0  0  0
 11  9  2  0  0  0  0
 11  6  1  0  0  0  0
 12 14  1  0  0  0  0
 13  3  1  0  0  0  0
 14 15  1  0  0  0  0
 14  3  2  0  0  0  0
 15 17  1  0  0  0  0
 16 18  1  0  0  0  0
 18 17  1  6  0  0  0
 18  1  1  0  0  0  0
 20 23  1  0  0  0  0
 21 25  1  0  0  0  0
 22 19  1  6  0  0  0
 22 24  1  0  0  0  0
 22 26  1  0  0  0  0
 24 26  1  0  0  0  0
 24 21  1  6  0  0  0
 25 28  1  1  0  0  0
 25 23  1  0  0  0  0
 26 27  1  1  0  0  0
 27 20  1  0  0  0  0
 28 29  1  0  0  0  0
 29 30  1  0  0  0  0
 30 32  1  0  0  0  0
 30 31  1  1  0  0  0
 32 33  1  0  0  0  0
 34 33  1  0  0  0  0
M  END
>  <MODEL>
9

>  <REMARK>
 VINA RESULT:      -7.2      3.369      8.865
  Name = 
  7 active torsions:
  status: ('A' for Active; 'I' for Inactive)
    1  A    between atoms: C_1  and  N_9
    2  A    between atoms: C_7  and  N_21
    3  A    between atoms: C_7  and  C_29
    4  A    between atoms: C_8  and  N_9
    5  A    between atoms: N_11  and  N_21
    6  A    between atoms: O_26  and  C_28
    7  A    between atoms: O_26  and  C_29
                            x       y       z     vdW  Elec       q    Type
                         _______ _______ _______ _____ _____    ______ ____

>  <TORSDO>
F 7

$$$$
