=
 OpenBabel11052412413D

 25 28  0  0  1  0  0  0  0  0999 V2000
  183.0080  178.6910  141.8320 C   0  0  0  0  0  0  0  0  0  0  0  0
  184.1260  178.6480  142.6680 C   0  0  0  0  0  0  0  0  0  0  0  0
  181.5570  179.0430  143.7050 C   0  0  0  0  0  3  0  0  0  0  0  0
  182.8950  178.6100  140.3450 C   0  0  2  0  0  3  0  0  0  0  0  0
  187.5670  177.1630  142.6730 N   0  0  0  0  0  2  0  0  0  0  0  0
  181.2280  176.3430  139.8460 C   0  0  0  0  0  2  0  0  0  0  0  0
  182.6410  178.9930  144.5340 N   0  0  0  0  0  0  0  0  0  0  0  0
  181.4320  178.8110  140.0530 N   0  0  1  0  0  0  0  0  0  0  0  0
  180.7670  177.7070  139.3410 C   0  0  0  0  0  2  0  0  0  0  0  0
  185.1020  178.8030  144.9770 C   0  0  1  0  0  3  0  0  0  0  0  0
  184.7590  178.2580  146.3520 C   0  0  0  0  0  1  0  0  0  0  0  0
  185.5200  178.5320  142.1280 C   0  0  0  0  0  2  0  0  0  0  0  0
  182.6960  176.2400  139.6140 C   0  0  0  0  0  3  0  0  0  0  0  0
  181.7680  178.8840  142.3400 C   0  0  0  0  0  0  0  0  0  0  0  0
  180.8090  178.9460  141.3120 N   0  0  0  0  0  2  0  0  0  0  0  0
  186.2150  178.0300  144.4170 N   0  0  0  0  0  0  0  0  0  0  0  0
  183.4710  177.3040  139.8380 C   0  0  0  0  0  3  0  0  0  0  0  0
  186.4370  177.9030  143.1390 C   0  0  0  0  0  0  0  0  0  0  0  0
  183.9090  178.7860  144.0560 C   0  0  0  0  0  0  0  0  0  0  0  0
  188.5050  176.5190  143.5810 C   0  0  0  0  0  2  0  0  0  0  0  0
  189.8300  177.2670  143.5780 C   0  0  2  0  0  3  0  0  0  0  0  0
  190.9330  176.3220  143.1270 C   0  0  0  0  0  1  0  0  0  0  0  0
  190.1360  177.8150  144.9720 C   0  0  2  0  0  3  0  0  0  0  0  0
  191.4590  177.5370  145.3210 O   0  0  0  0  0  1  0  0  0  0  0  0
  189.2190  177.1900  146.0090 C   0  0  0  0  0  1  0  0  0  0  0  0
  1 14  2  0  0  0  0
  1  2  1  0  0  0  0
  2 19  2  0  0  0  0
  3  7  2  0  0  0  0
  4 17  1  1  0  0  0
  4  1  1  0  0  0  0
  5 18  1  0  0  0  0
  5 20  1  0  0  0  0
  8  9  1  1  0  0  0
  8  4  1  0  0  0  0
  8 15  1  0  0  0  0
  9  6  1  0  0  0  0
 10 11  1  1  0  0  0
 12  2  1  0  0  0  0
 12 18  1  0  0  0  0
 13 17  2  0  0  0  0
 13  6  1  0  0  0  0
 14  3  1  0  0  0  0
 15 14  1  0  0  0  0
 16 10  1  0  0  0  0
 18 16  2  0  0  0  0
 19  7  1  0  0  0  0
 19 10  1  0  0  0  0
 21 22  1  1  0  0  0
 21 20  1  0  0  0  0
 21 23  1  0  0  0  0
 23 24  1  0  0  0  0
 23 25  1  1  0  0  0
M  END
>  <MODEL>
1

>  <REMARK>
 VINA RESULT:      -8.0      0.000      0.000
  Name = 
  3 active torsions:
  status: ('A' for Active; 'I' for Inactive)
    1  A    between atoms: C_2  and  C_21
    2  A    between atoms: N_6  and  C_15
    3  A    between atoms: C_15  and  C_21
                            x       y       z     vdW  Elec       q    Type
                         _______ _______ _______ _____ _____    ______ ____

>  <TORSDO>
F 3

$$$$
=
 OpenBabel11052412413D

 25 28  0  0  1  0  0  0  0  0999 V2000
  188.1500  178.1740  138.7060 C   0  0  0  0  0  0  0  0  0  0  0  0
  187.7260  178.3350  140.0280 C   0  0  0  0  0  0  0  0  0  0  0  0
  185.9030  178.3970  137.9070 C   0  0  0  0  0  3  0  0  0  0  0  0
  189.5170  178.0080  138.1300 C   0  0  2  0  0  3  0  0  0  0  0  0
  188.8580  177.3720  143.4690 N   0  0  0  0  0  2  0  0  0  0  0  0
  189.4510  175.5010  136.7600 C   0  0  0  0  0  2  0  0  0  0  0  0
  185.4750  178.5450  139.1950 N   0  0  0  0  0  0  0  0  0  0  0  0
  189.3120  177.9790  136.6390 N   0  0  1  0  0  0  0  0  0  0  0  0
  189.7700  176.7570  135.9570 C   0  0  0  0  0  2  0  0  0  0  0  0
  185.8660  178.7380  141.6650 C   0  0  1  0  0  3  0  0  0  0  0  0
  184.4560  178.2140  141.8760 C   0  0  0  0  0  1  0  0  0  0  0  0
  188.6950  178.3990  141.1710 C   0  0  0  0  0  2  0  0  0  0  0  0
  190.1520  175.6030  138.0720 C   0  0  0  0  0  3  0  0  0  0  0  0
  187.2620  178.2070  137.6850 C   0  0  0  0  0  0  0  0  0  0  0  0
  187.9170  178.0790  136.4460 N   0  0  0  0  0  2  0  0  0  0  0  0
  186.7630  178.1120  142.6400 N   0  0  0  0  0  0  0  0  0  0  0  0
  190.1900  176.7780  138.7030 C   0  0  0  0  0  3  0  0  0  0  0  0
  188.0440  177.9590  142.4520 C   0  0  0  0  0  0  0  0  0  0  0  0
  186.3440  178.5040  140.2550 C   0  0  0  0  0  0  0  0  0  0  0  0
  188.3110  176.9150  144.7380 C   0  0  0  0  0  2  0  0  0  0  0  0
  188.9500  177.6820  145.8860 C   0  0  2  0  0  3  0  0  0  0  0  0
  190.3530  177.1440  146.1230 C   0  0  0  0  0  1  0  0  0  0  0  0
  188.1060  177.5430  147.1540 C   0  0  2  0  0  3  0  0  0  0  0  0
  186.8740  178.1780  146.9860 O   0  0  0  0  0  1  0  0  0  0  0  0
  188.8150  178.1680  148.3430 C   0  0  0  0  0  1  0  0  0  0  0  0
  1  2  1  0  0  0  0
  2 19  2  0  0  0  0
  2 12  1  0  0  0  0
  3  7  2  0  0  0  0
  4 17  1  1  0  0  0
  4  1  1  0  0  0  0
  5 20  1  0  0  0  0
  6 13  1  0  0  0  0
  7 19  1  0  0  0  0
  8  9  1  1  0  0  0
  8  4  1  0  0  0  0
  9  6  1  0  0  0  0
 10 11  1  6  0  0  0
 10 16  1  0  0  0  0
 12 18  1  0  0  0  0
 13 17  2  0  0  0  0
 14  3  1  0  0  0  0
 14  1  2  0  0  0  0
 15  8  1  0  0  0  0
 15 14  1  0  0  0  0
 18 16  2  0  0  0  0
 18  5  1  0  0  0  0
 19 10  1  0  0  0  0
 20 21  1  0  0  0  0
 21 22  1  1  0  0  0
 21 23  1  0  0  0  0
 23 25  1  1  0  0  0
 24 23  1  0  0  0  0
M  END
>  <MODEL>
2

>  <REMARK>
 VINA RESULT:      -7.8      3.931      5.667
  Name = 
  3 active torsions:
  status: ('A' for Active; 'I' for Inactive)
    1  A    between atoms: C_2  and  C_21
    2  A    between atoms: N_6  and  C_15
    3  A    between atoms: C_15  and  C_21
                            x       y       z     vdW  Elec       q    Type
                         _______ _______ _______ _____ _____    ______ ____

>  <TORSDO>
F 3

$$$$
=
 OpenBabel11052412413D

 25 28  0  0  1  0  0  0  0  0999 V2000
  183.1100  178.6830  141.8480 C   0  0  0  0  0  0  0  0  0  0  0  0
  184.2530  178.6270  142.6490 C   0  0  0  0  0  0  0  0  0  0  0  0
  181.7190  179.0130  143.7700 C   0  0  0  0  0  3  0  0  0  0  0  0
  182.9500  178.6220  140.3650 C   0  0  2  0  0  3  0  0  0  0  0  0
  187.6900  177.1360  142.5260 N   0  0  0  0  0  2  0  0  0  0  0  0
  181.2620  176.3640  139.8890 C   0  0  0  0  0  2  0  0  0  0  0  0
  182.8280  178.9500  144.5640 N   0  0  0  0  0  0  0  0  0  0  0  0
  181.4790  178.8290  140.1220 N   0  0  1  0  0  0  0  0  0  0  0  0
  180.7890  177.7360  139.4170 C   0  0  0  0  0  2  0  0  0  0  0  0
  185.3020  178.7500  144.9270 C   0  0  1  0  0  3  0  0  0  0  0  0
  185.0010  178.1870  146.3050 C   0  0  0  0  0  1  0  0  0  0  0  0
  185.6290  178.5150  142.0630 C   0  0  0  0  0  2  0  0  0  0  0  0
  182.7230  176.2620  139.6100 C   0  0  0  0  0  3  0  0  0  0  0  0
  181.8870  178.8720  142.3970 C   0  0  0  0  0  0  0  0  0  0  0  0
  180.8960  178.9480  141.4010 N   0  0  0  0  0  2  0  0  0  0  0  0
  186.3950  177.9820  144.3220 N   0  0  0  0  0  0  0  0  0  0  0  0
  183.5060  177.3210  139.8230 C   0  0  0  0  0  3  0  0  0  0  0  0
  186.5770  177.8720  143.0360 C   0  0  0  0  0  0  0  0  0  0  0  0
  184.0810  178.7470  144.0440 C   0  0  0  0  0  0  0  0  0  0  0  0
  188.6540  176.4780  143.3950 C   0  0  0  0  0  2  0  0  0  0  0  0
  189.9910  176.3450  142.6820 C   0  0  2  0  0  3  0  0  0  0  0  0
  190.9750  175.6350  143.6000 C   0  0  0  0  0  1  0  0  0  0  0  0
  190.5270  177.7230  142.2920 C   0  0  2  0  0  3  0  0  0  0  0  0
  191.6500  177.5910  141.4720 O   0  0  0  0  0  1  0  0  0  0  0  0
  190.9190  178.5160  143.5260 C   0  0  0  0  0  1  0  0  0  0  0  0
  1 14  2  0  0  0  0
  1  2  1  0  0  0  0
  2 19  2  0  0  0  0
  3  7  2  0  0  0  0
  4 17  1  1  0  0  0
  4  1  1  0  0  0  0
  5 18  1  0  0  0  0
  5 20  1  0  0  0  0
  8  9  1  1  0  0  0
  8  4  1  0  0  0  0
  8 15  1  0  0  0  0
  9  6  1  0  0  0  0
 10 11  1  1  0  0  0
 12  2  1  0  0  0  0
 12 18  1  0  0  0  0
 13 17  2  0  0  0  0
 13  6  1  0  0  0  0
 14  3  1  0  0  0  0
 15 14  1  0  0  0  0
 16 10  1  0  0  0  0
 18 16  2  0  0  0  0
 19  7  1  0  0  0  0
 19 10  1  0  0  0  0
 21 20  1  0  0  0  0
 21 22  1  1  0  0  0
 23 21  1  0  0  0  0
 23 25  1  1  0  0  0
 24 23  1  0  0  0  0
M  END
>  <MODEL>
3

>  <REMARK>
 VINA RESULT:      -7.7      1.069      1.198
  Name = 
  3 active torsions:
  status: ('A' for Active; 'I' for Inactive)
    1  A    between atoms: C_2  and  C_21
    2  A    between atoms: N_6  and  C_15
    3  A    between atoms: C_15  and  C_21
                            x       y       z     vdW  Elec       q    Type
                         _______ _______ _______ _____ _____    ______ ____

>  <TORSDO>
F 3

$$$$
=
 OpenBabel11052412413D

 25 28  0  0  1  0  0  0  0  0999 V2000
  188.2360  177.3340  144.7490 C   0  0  0  0  0  0  0  0  0  0  0  0
  186.9930  177.5780  144.1610 C   0  0  0  0  0  0  0  0  0  0  0  0
  187.3760  177.8930  146.9140 C   0  0  0  0  0  3  0  0  0  0  0  0
  189.5180  176.8450  144.1610 C   0  0  2  0  0  3  0  0  0  0  0  0
  185.6230  178.5710  140.8160 N   0  0  0  0  0  2  0  0  0  0  0  0
  191.4230  178.9050  144.7030 C   0  0  0  0  0  2  0  0  0  0  0  0
  186.1580  178.1440  146.3490 N   0  0  0  0  0  0  0  0  0  0  0  0
  190.4550  176.7040  145.3310 N   0  0  1  0  0  0  0  0  0  0  0  0
  191.6860  177.5100  145.2620 C   0  0  0  0  0  2  0  0  0  0  0  0
  184.5790  178.2260  144.4030 C   0  0  1  0  0  3  0  0  0  0  0  0
  183.7990  179.2950  145.1480 C   0  0  0  0  0  1  0  0  0  0  0  0
  186.7400  177.3260  142.7040 C   0  0  0  0  0  2  0  0  0  0  0  0
  190.8780  178.7530  143.3240 C   0  0  0  0  0  3  0  0  0  0  0  0
  188.4140  177.4870  146.0830 C   0  0  0  0  0  0  0  0  0  0  0  0
  189.7230  177.1350  146.4580 N   0  0  0  0  0  2  0  0  0  0  0  0
  184.6720  178.5980  142.9870 N   0  0  0  0  0  0  0  0  0  0  0  0
  189.9960  177.7820  143.0720 C   0  0  0  0  0  3  0  0  0  0  0  0
  185.6250  178.1950  142.1940 C   0  0  0  0  0  0  0  0  0  0  0  0
  185.9450  178.0120  145.0010 C   0  0  0  0  0  0  0  0  0  0  0  0
  184.5850  179.4120  140.2390 C   0  0  0  0  0  2  0  0  0  0  0  0
  184.4340  179.1090  138.7560 C   0  0  2  0  0  3  0  0  0  0  0  0
  183.0690  178.4850  138.5120 C   0  0  0  0  0  1  0  0  0  0  0  0
  185.5420  178.1640  138.2890 C   0  0  2  0  0  3  0  0  0  0  0  0
  186.5250  178.8750  137.5970 O   0  0  0  0  0  1  0  0  0  0  0  0
  184.9830  177.0910  137.3720 C   0  0  0  0  0  1  0  0  0  0  0  0
  1 14  1  0  0  0  0
  2  1  2  0  0  0  0
  2 19  1  0  0  0  0
  4 17  1  6  0  0  0
  4  1  1  0  0  0  0
  4  8  1  0  0  0  0
  5 18  1  0  0  0  0
  6  9  1  0  0  0  0
  7  3  1  0  0  0  0
  8  9  1  6  0  0  0
  8 15  1  0  0  0  0
 10 19  1  0  0  0  0
 10 11  1  1  0  0  0
 12  2  1  0  0  0  0
 13  6  1  0  0  0  0
 14 15  1  0  0  0  0
 14  3  2  0  0  0  0
 16 10  1  0  0  0  0
 17 13  2  0  0  0  0
 18 12  1  0  0  0  0
 18 16  2  0  0  0  0
 19  7  2  0  0  0  0
 20  5  1  0  0  0  0
 21 22  1  1  0  0  0
 21 20  1  0  0  0  0
 23 25  1  6  0  0  0
 23 21  1  0  0  0  0
 24 23  1  0  0  0  0
M  END
>  <MODEL>
4

>  <REMARK>
 VINA RESULT:      -7.7      2.913      7.310
  Name = 
  3 active torsions:
  status: ('A' for Active; 'I' for Inactive)
    1  A    between atoms: C_2  and  C_21
    2  A    between atoms: N_6  and  C_15
    3  A    between atoms: C_15  and  C_21
                            x       y       z     vdW  Elec       q    Type
                         _______ _______ _______ _____ _____    ______ ____

>  <TORSDO>
F 3

$$$$
=
 OpenBabel11052412413D

 25 28  0  0  1  0  0  0  0  0999 V2000
  189.4030  177.2410  137.8320 C   0  0  0  0  0  0  0  0  0  0  0  0
  189.2010  177.5830  139.1710 C   0  0  0  0  0  0  0  0  0  0  0  0
  187.2930  178.1960  137.2200 C   0  0  0  0  0  3  0  0  0  0  0  0
  190.5640  176.5960  137.1500 C   0  0  2  0  0  3  0  0  0  0  0  0
  190.2980  176.4080  142.5570 N   0  0  0  0  0  2  0  0  0  0  0  0
  189.5070  174.2190  135.9660 C   0  0  0  0  0  2  0  0  0  0  0  0
  187.0800  178.5260  138.5280 N   0  0  0  0  0  0  0  0  0  0  0  0
  190.2040  176.5880  135.6890 N   0  0  1  0  0  0  0  0  0  0  0  0
  190.1460  175.2610  135.0530 C   0  0  0  0  0  2  0  0  0  0  0  0
  187.7720  178.6570  140.9350 C   0  0  1  0  0  3  0  0  0  0  0  0
  186.2990  178.6560  141.3040 C   0  0  0  0  0  1  0  0  0  0  0  0
  190.2500  177.3490  140.2170 C   0  0  0  0  0  2  0  0  0  0  0  0
  190.3360  174.1180  137.2000 C   0  0  0  0  0  3  0  0  0  0  0  0
  188.4760  177.5430  136.8920 C   0  0  0  0  0  0  0  0  0  0  0  0
  188.9140  177.1550  135.6130 N   0  0  0  0  0  2  0  0  0  0  0  0
  188.5030  177.7930  141.8670 N   0  0  0  0  0  0  0  0  0  0  0  0
  190.8370  175.2300  137.7450 C   0  0  0  0  0  3  0  0  0  0  0  0
  189.6290  177.2040  141.5780 C   0  0  0  0  0  0  0  0  0  0  0  0
  187.9910  178.2240  139.5080 C   0  0  0  0  0  0  0  0  0  0  0  0
  189.7670  176.2100  143.8970 C   0  0  0  0  0  2  0  0  0  0  0  0
  190.3940  177.2090  144.8590 C   0  0  2  0  0  3  0  0  0  0  0  0
  191.6210  176.5790  145.4990 C   0  0  0  0  0  1  0  0  0  0  0  0
  189.3860  177.6210  145.9320 C   0  0  2  0  0  3  0  0  0  0  0  0
  189.5220  176.8100  147.0600 O   0  0  0  0  0  1  0  0  0  0  0  0
  187.9650  177.4940  145.4120 C   0  0  0  0  0  1  0  0  0  0  0  0
  1  2  1  0  0  0  0
  2 19  2  0  0  0  0
  2 12  1  0  0  0  0
  3  7  2  0  0  0  0
  4 17  1  1  0  0  0
  4  1  1  0  0  0  0
  5 20  1  0  0  0  0
  6 13  1  0  0  0  0
  7 19  1  0  0  0  0
  8  9  1  1  0  0  0
  8  4  1  0  0  0  0
  9  6  1  0  0  0  0
 10 11  1  1  0  0  0
 10 16  1  0  0  0  0
 12 18  1  0  0  0  0
 13 17  2  0  0  0  0
 14  3  1  0  0  0  0
 14  1  2  0  0  0  0
 15  8  1  0  0  0  0
 15 14  1  0  0  0  0
 18 16  2  0  0  0  0
 18  5  1  0  0  0  0
 19 10  1  0  0  0  0
 20 21  1  0  0  0  0
 21 22  1  1  0  0  0
 21 23  1  0  0  0  0
 23 25  1  6  0  0  0
 23 24  1  0  0  0  0
M  END
>  <MODEL>
5

>  <REMARK>
 VINA RESULT:      -7.5      4.584      6.585
  Name = 
  3 active torsions:
  status: ('A' for Active; 'I' for Inactive)
    1  A    between atoms: C_2  and  C_21
    2  A    between atoms: N_6  and  C_15
    3  A    between atoms: C_15  and  C_21
                            x       y       z     vdW  Elec       q    Type
                         _______ _______ _______ _____ _____    ______ ____

>  <TORSDO>
F 3

$$$$
=
 OpenBabel11052412413D

 25 28  0  0  1  0  0  0  0  0999 V2000
  188.8500  176.8840  144.5250 C   0  0  0  0  0  0  0  0  0  0  0  0
  187.5440  177.2530  144.8570 C   0  0  0  0  0  0  0  0  0  0  0  0
  189.6550  177.6400  146.6510 C   0  0  0  0  0  3  0  0  0  0  0  0
  189.3980  176.2140  143.3100 C   0  0  2  0  0  3  0  0  0  0  0  0
  184.3870  178.2590  143.1040 N   0  0  0  0  0  2  0  0  0  0  0  0
  191.3220  178.0460  142.2530 C   0  0  0  0  0  2  0  0  0  0  0  0
  188.3840  178.0140  146.9820 N   0  0  0  0  0  0  0  0  0  0  0  0
  190.8610  176.0110  143.6030 N   0  0  1  0  0  0  0  0  0  0  0  0
  191.7950  176.6550  142.6640 C   0  0  0  0  0  2  0  0  0  0  0  0
  185.9260  178.2050  146.5250 C   0  0  1  0  0  3  0  0  0  0  0  0
  185.8960  179.3940  147.4690 C   0  0  0  0  0  1  0  0  0  0  0  0
  186.3830  176.9700  143.9490 C   0  0  0  0  0  2  0  0  0  0  0  0
  189.9990  177.9010  141.5810 C   0  0  0  0  0  3  0  0  0  0  0  0
  189.8660  177.0720  145.4000 C   0  0  0  0  0  0  0  0  0  0  0  0
  191.0750  176.5780  144.8770 N   0  0  0  0  0  2  0  0  0  0  0  0
  185.0940  178.4990  145.3540 N   0  0  0  0  0  0  0  0  0  0  0  0
  189.1070  177.0370  142.0720 C   0  0  0  0  0  3  0  0  0  0  0  0
  185.2660  177.9470  144.1860 C   0  0  0  0  0  0  0  0  0  0  0  0
  187.3330  177.8510  146.1170 C   0  0  0  0  0  0  0  0  0  0  0  0
  183.2820  179.1960  143.2430 C   0  0  0  0  0  2  0  0  0  0  0  0
  182.0030  178.5770  142.6980 C   0  0  2  0  0  3  0  0  0  0  0  0
  181.8640  178.9370  141.2270 C   0  0  0  0  0  1  0  0  0  0  0  0
  180.7920  179.0770  143.4850 C   0  0  2  0  0  3  0  0  0  0  0  0
  179.9390  178.0140  143.7880 O   0  0  0  0  0  1  0  0  0  0  0  0
  180.0160  180.1070  142.6810 C   0  0  0  0  0  1  0  0  0  0  0  0
  1  2  2  0  0  0  0
  1 14  1  0  0  0  0
  2 19  1  0  0  0  0
  3  7  1  0  0  0  0
  4 17  1  6  0  0  0
  4  8  1  0  0  0  0
  4  1  1  0  0  0  0
  5 20  1  0  0  0  0
  5 18  1  0  0  0  0
  6  9  1  0  0  0  0
  8  9  1  6  0  0  0
  8 15  1  0  0  0  0
 10 11  1  1  0  0  0
 12 18  1  0  0  0  0
 12  2  1  0  0  0  0
 13 17  2  0  0  0  0
 13  6  1  0  0  0  0
 14  3  2  0  0  0  0
 15 14  1  0  0  0  0
 16 10  1  0  0  0  0
 18 16  2  0  0  0  0
 19 10  1  0  0  0  0
 19  7  2  0  0  0  0
 21 22  1  6  0  0  0
 21 20  1  0  0  0  0
 21 23  1  0  0  0  0
 23 25  1  6  0  0  0
 23 24  1  0  0  0  0
M  END
>  <MODEL>
6

>  <REMARK>
 VINA RESULT:      -7.3      3.123      7.634
  Name = 
  3 active torsions:
  status: ('A' for Active; 'I' for Inactive)
    1  A    between atoms: C_2  and  C_21
    2  A    between atoms: N_6  and  C_15
    3  A    between atoms: C_15  and  C_21
                            x       y       z     vdW  Elec       q    Type
                         _______ _______ _______ _____ _____    ______ ____

>  <TORSDO>
F 3

$$$$
=
 OpenBabel11052412413D

 25 28  0  0  1  0  0  0  0  0999 V2000
  190.0480  176.8950  140.2730 C   0  0  0  0  0  0  0  0  0  0  0  0
  189.8460  176.9320  141.6540 C   0  0  0  0  0  0  0  0  0  0  0  0
  192.3600  177.4570  140.5450 C   0  0  0  0  0  3  0  0  0  0  0  0
  189.1170  176.5500  139.1570 C   0  0  2  0  0  3  0  0  0  0  0  0
  187.0350  177.5300  144.0600 N   0  0  0  0  0  2  0  0  0  0  0  0
  189.0420  178.8790  137.5020 C   0  0  0  0  0  2  0  0  0  0  0  0
  192.1730  177.5060  141.8970 N   0  0  0  0  0  0  0  0  0  0  0  0
  189.9620  176.6070  137.9120 N   0  0  1  0  0  0  0  0  0  0  0  0
  189.5220  177.5680  136.8870 C   0  0  0  0  0  2  0  0  0  0  0  0
  190.7750  177.2590  143.9640 C   0  0  1  0  0  3  0  0  0  0  0  0
  191.7000  178.2530  144.6450 C   0  0  0  0  0  1  0  0  0  0  0  0
  188.5320  176.5620  142.2760 C   0  0  0  0  0  2  0  0  0  0  0  0
  187.8870  178.5730  138.3930 C   0  0  0  0  0  3  0  0  0  0  0  0
  191.2670  177.1480  139.7430 C   0  0  0  0  0  0  0  0  0  0  0  0
  191.2470  177.0010  138.3440 N   0  0  0  0  0  2  0  0  0  0  0  0
  189.3890  177.5560  144.3390 N   0  0  0  0  0  0  0  0  0  0  0  0
  187.9210  177.4790  139.1560 C   0  0  0  0  0  3  0  0  0  0  0  0
  188.3580  177.2400  143.6060 C   0  0  0  0  0  0  0  0  0  0  0  0
  190.9490  177.2680  142.4670 C   0  0  0  0  0  0  0  0  0  0  0  0
  186.7750  178.1870  145.3320 C   0  0  0  0  0  2  0  0  0  0  0  0
  185.4690  178.9650  145.2590 C   0  0  2  0  0  3  0  0  0  0  0  0
  184.5770  178.5510  146.4190 C   0  0  0  0  0  1  0  0  0  0  0  0
  184.7660  178.7020  143.9270 C   0  0  2  0  0  3  0  0  0  0  0  0
  185.0680  179.7140  143.0120 O   0  0  0  0  0  1  0  0  0  0  0  0
  183.2600  178.6510  144.1140 C   0  0  0  0  0  1  0  0  0  0  0  0
  1  2  1  0  0  0  0
  2 12  1  0  0  0  0
  2 19  2  0  0  0  0
  3  7  2  0  0  0  0
  4 17  1  6  0  0  0
  4  1  1  0  0  0  0
  5 20  1  0  0  0  0
  6 13  1  0  0  0  0
  7 19  1  0  0  0  0
  8  9  1  6  0  0  0
  8 15  1  0  0  0  0
  8  4  1  0  0  0  0
  9  6  1  0  0  0  0
 10 16  1  0  0  0  0
 10 11  1  1  0  0  0
 12 18  1  0  0  0  0
 13 17  2  0  0  0  0
 14  1  2  0  0  0  0
 14  3  1  0  0  0  0
 15 14  1  0  0  0  0
 18  5  1  0  0  0  0
 18 16  2  0  0  0  0
 19 10  1  0  0  0  0
 21 20  1  0  0  0  0
 21 22  1  1  0  0  0
 23 25  1  1  0  0  0
 23 21  1  0  0  0  0
 24 23  1  0  0  0  0
M  END
>  <MODEL>
7

>  <REMARK>
 VINA RESULT:      -7.3      3.620      7.107
  Name = 
  3 active torsions:
  status: ('A' for Active; 'I' for Inactive)
    1  A    between atoms: C_2  and  C_21
    2  A    between atoms: N_6  and  C_15
    3  A    between atoms: C_15  and  C_21
                            x       y       z     vdW  Elec       q    Type
                         _______ _______ _______ _____ _____    ______ ____

>  <TORSDO>
F 3

$$$$
=
 OpenBabel11052412413D

 25 28  0  0  1  0  0  0  0  0999 V2000
  189.0260  176.8060  144.3990 C   0  0  0  0  0  0  0  0  0  0  0  0
  187.6840  177.1540  144.5750 C   0  0  0  0  0  0  0  0  0  0  0  0
  189.5810  177.6500  146.5710 C   0  0  0  0  0  3  0  0  0  0  0  0
  189.7160  176.1100  143.2730 C   0  0  2  0  0  3  0  0  0  0  0  0
  184.7150  178.0240  142.4610 N   0  0  0  0  0  2  0  0  0  0  0  0
  191.7040  177.9530  142.3650 C   0  0  0  0  0  2  0  0  0  0  0  0
  188.2740  178.0030  146.7510 N   0  0  0  0  0  0  0  0  0  0  0  0
  191.1420  175.9520  143.7280 N   0  0  1  0  0  0  0  0  0  0  0  0
  192.1590  176.5880  142.8730 C   0  0  0  0  0  2  0  0  0  0  0  0
  185.8760  178.1190  146.0260 C   0  0  1  0  0  3  0  0  0  0  0  0
  185.7200  179.3370  146.9200 C   0  0  0  0  0  1  0  0  0  0  0  0
  186.6350  176.8130  143.5600 C   0  0  0  0  0  2  0  0  0  0  0  0
  190.4640  177.7540  141.5610 C   0  0  0  0  0  3  0  0  0  0  0  0
  189.9380  177.0470  145.3700 C   0  0  0  0  0  0  0  0  0  0  0  0
  191.2060  176.5660  144.9970 N   0  0  0  0  0  2  0  0  0  0  0  0
  185.1690  178.3550  144.7640 N   0  0  0  0  0  0  0  0  0  0  0  0
  189.5430  176.8850  141.9830 C   0  0  0  0  0  3  0  0  0  0  0  0
  185.4780  177.7690  143.6410 C   0  0  0  0  0  0  0  0  0  0  0  0
  187.3260  177.7860  145.7850 C   0  0  0  0  0  0  0  0  0  0  0  0
  183.5820  178.9380  142.4470 C   0  0  0  0  0  2  0  0  0  0  0  0
  182.9370  178.9470  141.0690 C   0  0  2  0  0  3  0  0  0  0  0  0
  181.8730  177.8620  141.0110 C   0  0  0  0  0  1  0  0  0  0  0  0
  183.9910  178.7180  139.9860 C   0  0  2  0  0  3  0  0  0  0  0  0
  184.6490  179.9140  139.6900 O   0  0  0  0  0  1  0  0  0  0  0  0
  183.3500  178.1900  138.7150 C   0  0  0  0  0  1  0  0  0  0  0  0
  1  2  2  0  0  0  0
  1 14  1  0  0  0  0
  2 19  1  0  0  0  0
  3  7  1  0  0  0  0
  4 17  1  6  0  0  0
  4  8  1  0  0  0  0
  4  1  1  0  0  0  0
  5 18  1  0  0  0  0
  6  9  1  0  0  0  0
  8  9  1  6  0  0  0
  8 15  1  0  0  0  0
 10 11  1  1  0  0  0
 12 18  1  0  0  0  0
 12  2  1  0  0  0  0
 13 17  2  0  0  0  0
 13  6  1  0  0  0  0
 14  3  2  0  0  0  0
 15 14  1  0  0  0  0
 16 10  1  0  0  0  0
 18 16  2  0  0  0  0
 19 10  1  0  0  0  0
 19  7  2  0  0  0  0
 20  5  1  0  0  0  0
 21 22  1  1  0  0  0
 21 20  1  0  0  0  0
 23 25  1  6  0  0  0
 23 21  1  0  0  0  0
 24 23  1  0  0  0  0
M  END
>  <MODEL>
8

>  <REMARK>
 VINA RESULT:      -7.3      2.658      7.435
  Name = 
  3 active torsions:
  status: ('A' for Active; 'I' for Inactive)
    1  A    between atoms: C_2  and  C_21
    2  A    between atoms: N_6  and  C_15
    3  A    between atoms: C_15  and  C_21
                            x       y       z     vdW  Elec       q    Type
                         _______ _______ _______ _____ _____    ______ ____

>  <TORSDO>
F 3

$$$$
=
 OpenBabel11052412413D

 25 28  0  0  1  0  0  0  0  0999 V2000
  187.9010  177.9420  138.1780 C   0  0  0  0  0  0  0  0  0  0  0  0
  187.8770  178.1950  139.5510 C   0  0  0  0  0  0  0  0  0  0  0  0
  185.5380  178.3040  138.0200 C   0  0  0  0  0  3  0  0  0  0  0  0
  189.0380  177.6440  137.2580 C   0  0  2  0  0  3  0  0  0  0  0  0
  189.8690  177.3040  142.5990 N   0  0  0  0  0  2  0  0  0  0  0  0
  188.4330  175.0900  136.1270 C   0  0  0  0  0  2  0  0  0  0  0  0
  185.5010  178.5430  139.3640 N   0  0  0  0  0  0  0  0  0  0  0  0
  188.4200  177.5630  135.8870 N   0  0  1  0  0  0  0  0  0  0  0  0
  188.5910  176.2800  135.1850 C   0  0  0  0  0  2  0  0  0  0  0  0
  186.5810  178.8170  141.6110 C   0  0  1  0  0  3  0  0  0  0  0  0
  185.2580  178.4140  142.2370 C   0  0  0  0  0  1  0  0  0  0  0  0
  189.1310  178.2350  140.3740 C   0  0  0  0  0  2  0  0  0  0  0  0
  189.4800  175.1960  137.1820 C   0  0  0  0  0  3  0  0  0  0  0  0
  186.7660  177.9980  137.4430 C   0  0  0  0  0  0  0  0  0  0  0  0
  187.0370  177.7630  136.0820 N   0  0  0  0  0  2  0  0  0  0  0  0
  187.6760  178.1670  142.3370 N   0  0  0  0  0  0  0  0  0  0  0  0
  189.7670  176.3920  137.7000 C   0  0  0  0  0  3  0  0  0  0  0  0
  188.8400  177.9070  141.8110 C   0  0  0  0  0  0  0  0  0  0  0  0
  186.6290  178.4820  140.1420 C   0  0  0  0  0  0  0  0  0  0  0  0
  189.6740  176.9500  143.9970 C   0  0  0  0  0  2  0  0  0  0  0  0
  190.5200  177.8490  144.8850 C   0  0  2  0  0  3  0  0  0  0  0  0
  191.2510  178.8610  144.0160 C   0  0  0  0  0  1  0  0  0  0  0  0
  191.5210  177.0160  145.6880 C   0  0  2  0  0  3  0  0  0  0  0  0
  191.8480  175.8510  144.9910 O   0  0  0  0  0  1  0  0  0  0  0  0
  190.9390  176.6280  147.0350 C   0  0  0  0  0  1  0  0  0  0  0  0
  1  2  1  0  0  0  0
  2 19  2  0  0  0  0
  2 12  1  0  0  0  0
  3  7  2  0  0  0  0
  4 17  1  1  0  0  0
  4  1  1  0  0  0  0
  5 20  1  0  0  0  0
  6 13  1  0  0  0  0
  7 19  1  0  0  0  0
  8  9  1  1  0  0  0
  8 15  1  0  0  0  0
  8  4  1  0  0  0  0
  9  6  1  0  0  0  0
 10 11  1  1  0  0  0
 10 16  1  0  0  0  0
 12 18  1  0  0  0  0
 13 17  2  0  0  0  0
 14  3  1  0  0  0  0
 14  1  2  0  0  0  0
 15 14  1  0  0  0  0
 18 16  2  0  0  0  0
 18  5  1  0  0  0  0
 19 10  1  0  0  0  0
 20 21  1  0  0  0  0
 21 22  1  6  0  0  0
 21 23  1  0  0  0  0
 23 25  1  1  0  0  0
 24 23  1  0  0  0  0
M  END
>  <MODEL>
9

>  <REMARK>
 VINA RESULT:      -7.2      4.049      5.426
  Name = 
  3 active torsions:
  status: ('A' for Active; 'I' for Inactive)
    1  A    between atoms: C_2  and  C_21
    2  A    between atoms: N_6  and  C_15
    3  A    between atoms: C_15  and  C_21
                            x       y       z     vdW  Elec       q    Type
                         _______ _______ _______ _____ _____    ______ ____

>  <TORSDO>
F 3

$$$$
