=
 OpenBabel11052412563D

 31 34  0  0  1  0  0  0  0  0999 V2000
  183.2320  179.1340  143.7400 C   0  0  1  0  0  3  0  0  0  0  0  0
  186.6820  177.4040  143.9330 C   0  0  1  0  0  3  0  0  0  0  0  0
  187.4570  177.9020  145.1730 C   0  0  1  0  0  3  0  0  0  0  0  0
  187.0680  178.9270  147.4180 C   0  0  0  0  0  2  0  0  0  0  0  0
  185.6060  178.4380  143.5320 C   0  0  2  0  0  3  0  0  0  0  0  0
  182.8210  178.7100  142.0330 S   0  0  0  0  0  0  0  0  0  0  0  0
  186.5180  177.9620  146.3790 C   0  0  0  0  0  2  0  0  0  0  0  0
  188.0430  178.3100  141.9870 C   0  0  1  0  0  3  0  0  0  0  0  0
  182.0920  179.0080  144.5320 O   0  0  0  0  0  1  0  0  0  0  0  0
  189.5360  176.9290  144.2870 N   0  0  0  0  0  2  0  0  0  0  0  0
  187.9180  178.2260  148.4820 C   0  0  0  0  0  2  0  0  0  0  0  0
  186.8370  178.9520  141.2940 C   0  0  0  0  0  2  0  0  0  0  0  0
  187.6240  177.0450  142.7600 C   0  0  1  0  0  3  0  0  0  0  0  0
  184.2670  178.1280  144.1870 C   0  0  0  0  0  2  0  0  0  0  0  0
  188.8470  177.1320  147.9500 C   0  0  0  0  0  2  0  0  0  0  0  0
  185.5470  178.7560  142.0410 C   0  0  0  0  0  0  0  0  0  0  0  0
  184.4460  179.0130  141.4170 N   0  0  0  0  0  0  0  0  0  0  0  0
  188.8090  176.2110  143.2500 C   0  0  0  0  0  2  0  0  0  0  0  0
  188.6790  177.0040  145.4640 C   0  0  1  0  0  3  0  0  0  0  0  0
  189.5130  177.5130  146.6360 C   0  0  0  0  0  2  0  0  0  0  0  0
  189.1290  178.0380  140.9500 C   0  0  0  0  0  2  0  0  0  0  0  0
  188.6710  177.1340  139.9730 O   0  0  0  0  0  0  0  0  0  0  0  0
  189.1850  178.9660  138.7480 O   0  0  0  0  0  1  0  0  0  0  0  0
  189.0300  177.5780  138.6750 C   0  0  1  0  0  0  0  0  0  0  0  0
  190.5880  175.7300  138.7850 O   0  0  0  0  0  1  0  0  0  0  0  0
  190.4000  177.0120  138.2630 C   0  0  0  0  0  2  0  0  0  0  0  0
  187.9210  177.2800  137.6580 C   0  0  0  0  0  0  0  0  0  0  0  0
  186.7590  177.9210  137.7950 C   0  0  0  0  0  2  0  0  0  0  0  0
  188.0470  176.2750  136.6270 N   0  0  0  0  0  0  0  0  0  0  0  0
  187.7100  174.8780  136.8560 C   0  0  0  0  0  1  0  0  0  0  0  0
  188.4080  176.6490  135.2680 C   0  0  0  0  0  1  0  0  0  0  0  0
  1 14  1  0  0  0  0
  1  9  1  1  0  0  0
  2  3  1  0  0  0  0
  3 19  1  0  0  0  0
  3  7  1  0  0  0  0
  4 11  1  0  0  0  0
  5  2  1  0  0  0  0
  5 14  1  0  0  0  0
  6  1  1  0  0  0  0
  7  4  1  0  0  0  0
  8 13  1  0  0  0  0
 10 19  1  0  0  0  0
 12  8  1  0  0  0  0
 12 16  1  0  0  0  0
 13 18  1  0  0  0  0
 13  2  1  0  0  0  0
 15 11  1  0  0  0  0
 16  5  1  0  0  0  0
 17  6  1  0  0  0  0
 17 16  2  0  0  0  0
 18 10  1  0  0  0  0
 19 20  1  0  0  0  0
 20 15  1  0  0  0  0
 21  8  1  0  0  0  0
 22 21  1  0  0  0  0
 24 23  1  0  0  0  0
 24 22  1  0  0  0  0
 26 24  1  0  0  0  0
 26 25  1  0  0  0  0
 27 28  2  0  0  0  0
 27 24  1  0  0  0  0
 29 30  1  0  0  0  0
 29 27  1  0  0  0  0
 31 29  1  0  0  0  0
M  END
>  <MODEL>
1

>  <REMARK>
 VINA RESULT:      -9.1      0.000      0.000
  Name = 
  6 active torsions:
  status: ('A' for Active; 'I' for Inactive)
    1  A    between atoms: N_1  and  C_19
    2  A    between atoms: C_7  and  C_22
    3  A    between atoms: O_9  and  C_22
    4  A    between atoms: O_9  and  C_23
    5  A    between atoms: C_15  and  C_23
    6  A    between atoms: C_19  and  C_22
                            x       y       z     vdW  Elec       q    Type
                         _______ _______ _______ _____ _____    ______ ____

>  <TORSDO>
F 6

$$$$
=
 OpenBabel11052412563D

 31 34  0  0  1  0  0  0  0  0999 V2000
  184.6450  178.9670  144.6990 C   0  0  1  0  0  3  0  0  0  0  0  0
  187.9080  177.0200  143.9980 C   0  0  1  0  0  3  0  0  0  0  0  0
  188.9960  177.4210  145.0180 C   0  0  1  0  0  3  0  0  0  0  0  0
  189.2420  178.3850  147.3110 C   0  0  0  0  0  2  0  0  0  0  0  0
  186.8410  178.1330  143.8970 C   0  0  2  0  0  3  0  0  0  0  0  0
  183.8000  178.6340  143.1390 S   0  0  0  0  0  0  0  0  0  0  0  0
  188.3880  177.4960  146.4200 C   0  0  0  0  0  2  0  0  0  0  0  0
  188.8100  177.9110  141.7950 C   0  0  1  0  0  3  0  0  0  0  0  0
  183.7280  178.8830  145.7450 O   0  0  0  0  0  1  0  0  0  0  0  0
  190.7210  176.3550  143.6260 N   0  0  0  0  0  2  0  0  0  0  0  0
  190.2750  177.5930  148.1160 C   0  0  0  0  0  2  0  0  0  0  0  0
  187.5180  178.6520  141.4350 C   0  0  0  0  0  2  0  0  0  0  0  0
  188.5060  176.6470  142.6210 C   0  0  1  0  0  3  0  0  0  0  0  0
  185.6850  177.8830  144.8560 C   0  0  0  0  0  2  0  0  0  0  0  0
  190.9680  176.4640  147.3490 C   0  0  0  0  0  2  0  0  0  0  0  0
  186.4410  178.5090  142.4740 C   0  0  0  0  0  0  0  0  0  0  0  0
  185.2410  178.8580  142.1470 N   0  0  0  0  0  0  0  0  0  0  0  0
  189.7140  175.7220  142.7860 C   0  0  0  0  0  2  0  0  0  0  0  0
  190.1870  176.4390  144.9800 C   0  0  1  0  0  3  0  0  0  0  0  0
  191.3160  176.8520  145.9190 C   0  0  0  0  0  2  0  0  0  0  0  0
  189.5870  177.6100  140.5170 C   0  0  0  0  0  2  0  0  0  0  0  0
  188.7940  176.8790  139.6110 O   0  0  0  0  0  0  0  0  0  0  0  0
  190.5860  177.5290  138.3910 O   0  0  0  0  0  1  0  0  0  0  0  0
  189.2850  177.0230  138.2890 C   0  0  1  0  0  0  0  0  0  0  0  0
  190.5040  174.9430  138.0950 O   0  0  0  0  0  1  0  0  0  0  0  0
  189.4090  175.6540  137.5980 C   0  0  0  0  0  2  0  0  0  0  0  0
  188.4480  178.0300  137.4910 C   0  0  0  0  0  0  0  0  0  0  0  0
  189.0080  179.2000  137.1780 C   0  0  0  0  0  2  0  0  0  0  0  0
  187.0610  177.8070  137.1500 N   0  0  0  0  0  0  0  0  0  0  0  0
  185.9740  178.1240  138.0640 C   0  0  0  0  0  1  0  0  0  0  0  0
  186.6890  177.3620  135.8160 C   0  0  0  0  0  1  0  0  0  0  0  0
  1 14  1  0  0  0  0
  1  9  1  1  0  0  0
  2  3  1  0  0  0  0
  3  7  1  0  0  0  0
  4 11  1  0  0  0  0
  5  2  1  0  0  0  0
  5 14  1  0  0  0  0
  6  1  1  0  0  0  0
  7  4  1  0  0  0  0
  8 13  1  0  0  0  0
 10 19  1  0  0  0  0
 12  8  1  0  0  0  0
 12 16  1  0  0  0  0
 13 18  1  0  0  0  0
 13  2  1  0  0  0  0
 15 11  1  0  0  0  0
 16  5  1  0  0  0  0
 17 16  2  0  0  0  0
 17  6  1  0  0  0  0
 18 10  1  0  0  0  0
 19  3  1  0  0  0  0
 19 20  1  0  0  0  0
 20 15  1  0  0  0  0
 21  8  1  0  0  0  0
 22 21  1  0  0  0  0
 24 23  1  0  0  0  0
 24 22  1  0  0  0  0
 26 25  1  0  0  0  0
 26 24  1  0  0  0  0
 27 24  1  0  0  0  0
 28 27  2  0  0  0  0
 29 27  1  0  0  0  0
 29 30  1  0  0  0  0
 31 29  1  0  0  0  0
M  END
>  <MODEL>
2

>  <REMARK>
 VINA RESULT:      -9.0      1.372      1.734
  Name = 
  6 active torsions:
  status: ('A' for Active; 'I' for Inactive)
    1  A    between atoms: N_1  and  C_19
    2  A    between atoms: C_7  and  C_22
    3  A    between atoms: O_9  and  C_22
    4  A    between atoms: O_9  and  C_23
    5  A    between atoms: C_15  and  C_23
    6  A    between atoms: C_19  and  C_22
                            x       y       z     vdW  Elec       q    Type
                         _______ _______ _______ _____ _____    ______ ____

>  <TORSDO>
F 6

$$$$
=
 OpenBabel11052412563D

 31 34  0  0  1  0  0  0  0  0999 V2000
  184.8050  178.9500  145.3590 C   0  0  1  0  0  3  0  0  0  0  0  0
  187.8930  176.9970  144.1040 C   0  0  1  0  0  3  0  0  0  0  0  0
  189.1270  177.3420  144.9680 C   0  0  1  0  0  3  0  0  0  0  0  0
  189.7250  178.2040  147.2350 C   0  0  0  0  0  2  0  0  0  0  0  0
  186.8430  178.1260  144.2080 C   0  0  2  0  0  3  0  0  0  0  0  0
  183.7320  178.6930  143.9290 S   0  0  0  0  0  0  0  0  0  0  0  0
  188.7340  177.3630  146.4460 C   0  0  0  0  0  2  0  0  0  0  0  0
  188.4760  177.9710  141.8300 C   0  0  1  0  0  3  0  0  0  0  0  0
  184.0510  178.8320  146.5260 O   0  0  0  0  0  1  0  0  0  0  0  0
  190.6080  176.3160  143.2930 N   0  0  0  0  0  2  0  0  0  0  0  0
  190.8520  177.3660  147.8460 C   0  0  0  0  0  2  0  0  0  0  0  0
  187.1580  178.7410  141.6960 C   0  0  0  0  0  2  0  0  0  0  0  0
  188.2750  176.6760  142.6400 C   0  0  1  0  0  3  0  0  0  0  0  0
  185.8370  177.8480  145.3170 C   0  0  0  0  0  2  0  0  0  0  0  0
  191.4040  176.2640  146.9390 C   0  0  0  0  0  2  0  0  0  0  0  0
  186.2440  178.5660  142.8760 C   0  0  0  0  0  0  0  0  0  0  0  0
  185.0150  178.9430  142.7450 N   0  0  0  0  0  0  0  0  0  0  0  0
  189.4770  175.7310  142.5870 C   0  0  0  0  0  2  0  0  0  0  0  0
  190.2810  176.3480  144.7130 C   0  0  1  0  0  3  0  0  0  0  0  0
  191.5430  176.7070  145.4910 C   0  0  0  0  0  2  0  0  0  0  0  0
  189.0500  177.7160  140.4390 C   0  0  0  0  0  2  0  0  0  0  0  0
  188.0620  177.2020  139.5780 O   0  0  0  0  0  0  0  0  0  0  0  0
  187.0200  178.4790  138.0260 O   0  0  0  0  0  1  0  0  0  0  0  0
  188.1930  177.7590  138.2800 C   0  0  1  0  0  0  0  0  0  0  0  0
  188.9320  179.9680  137.6270 O   0  0  0  0  0  1  0  0  0  0  0  0
  189.3430  178.7800  138.2360 C   0  0  0  0  0  2  0  0  0  0  0  0
  188.3150  176.6630  137.2140 C   0  0  0  0  0  0  0  0  0  0  0  0
  187.6140  175.5410  137.3890 C   0  0  0  0  0  2  0  0  0  0  0  0
  189.2190  176.7540  136.0910 N   0  0  0  0  0  0  0  0  0  0  0  0
  188.9410  177.5890  134.9320 C   0  0  0  0  0  1  0  0  0  0  0  0
  190.5160  176.0950  136.1300 C   0  0  0  0  0  1  0  0  0  0  0  0
  1  9  1  1  0  0  0
  2  5  1  0  0  0  0
  2  3  1  0  0  0  0
  3  7  1  0  0  0  0
  4 11  1  0  0  0  0
  5 14  1  0  0  0  0
  6  1  1  0  0  0  0
  7  4  1  0  0  0  0
  8 13  1  0  0  0  0
 10 19  1  0  0  0  0
 12  8  1  0  0  0  0
 12 16  1  0  0  0  0
 13  2  1  0  0  0  0
 14  1  1  0  0  0  0
 15 11  1  0  0  0  0
 16  5  1  0  0  0  0
 17 16  2  0  0  0  0
 17  6  1  0  0  0  0
 18 13  1  0  0  0  0
 18 10  1  0  0  0  0
 19  3  1  0  0  0  0
 19 20  1  0  0  0  0
 20 15  1  0  0  0  0
 21  8  1  0  0  0  0
 22 21  1  0  0  0  0
 23 24  1  0  0  0  0
 24 22  1  0  0  0  0
 25 26  1  0  0  0  0
 26 24  1  0  0  0  0
 27 28  2  0  0  0  0
 27 24  1  0  0  0  0
 29 31  1  0  0  0  0
 29 27  1  0  0  0  0
 30 29  1  0  0  0  0
M  END
>  <MODEL>
3

>  <REMARK>
 VINA RESULT:      -8.6      1.514      2.107
  Name = 
  6 active torsions:
  status: ('A' for Active; 'I' for Inactive)
    1  A    between atoms: N_1  and  C_19
    2  A    between atoms: C_7  and  C_22
    3  A    between atoms: O_9  and  C_22
    4  A    between atoms: O_9  and  C_23
    5  A    between atoms: C_15  and  C_23
    6  A    between atoms: C_19  and  C_22
                            x       y       z     vdW  Elec       q    Type
                         _______ _______ _______ _____ _____    ______ ____

>  <TORSDO>
F 6

$$$$
=
 OpenBabel11052412563D

 31 34  0  0  1  0  0  0  0  0999 V2000
  189.9700  176.8380  146.7450 C   0  0  1  0  0  3  0  0  0  0  0  0
  188.3330  178.2600  143.5470 C   0  0  1  0  0  3  0  0  0  0  0  0
  186.8010  178.0730  143.6060 C   0  0  1  0  0  3  0  0  0  0  0  0
  184.9490  177.7610  145.2540 C   0  0  0  0  0  2  0  0  0  0  0  0
  189.0260  177.2470  144.4860 C   0  0  2  0  0  3  0  0  0  0  0  0
  191.6800  176.7930  146.1680 S   0  0  0  0  0  0  0  0  0  0  0  0
  186.2890  178.4340  145.0010 C   0  0  0  0  0  2  0  0  0  0  0  0
  189.0410  176.7300  141.6440 C   0  0  1  0  0  3  0  0  0  0  0  0
  189.9430  177.2770  148.0680 O   0  0  0  0  0  1  0  0  0  0  0  0
  186.6290  178.5780  141.2050 N   0  0  0  0  0  2  0  0  0  0  0  0
  183.7620  178.6630  144.9020 C   0  0  0  0  0  2  0  0  0  0  0  0
  190.1220  176.0200  142.4660 C   0  0  0  0  0  2  0  0  0  0  0  0
  188.8760  178.1920  142.1000 C   0  0  1  0  0  3  0  0  0  0  0  0
  189.2550  177.8400  145.8700 C   0  0  0  0  0  2  0  0  0  0  0  0
  183.9280  179.4800  143.6180 C   0  0  0  0  0  2  0  0  0  0  0  0
  190.2250  176.5260  143.8770 C   0  0  0  0  0  0  0  0  0  0  0  0
  191.2700  176.1940  144.5600 N   0  0  0  0  0  0  0  0  0  0  0  0
  188.0120  179.0310  141.1560 C   0  0  0  0  0  2  0  0  0  0  0  0
  186.0940  178.9120  142.5190 C   0  0  1  0  0  3  0  0  0  0  0  0
  184.5860  178.6880  142.4980 C   0  0  0  0  0  2  0  0  0  0  0  0
  189.3770  176.6060  140.1610 C   0  0  0  0  0  2  0  0  0  0  0  0
  190.6470  176.0220  139.9850 O   0  0  0  0  0  0  0  0  0  0  0  0
  190.7470  174.8720  138.0390 O   0  0  0  0  0  1  0  0  0  0  0  0
  191.0490  176.1040  138.6280 C   0  0  1  0  0  0  0  0  0  0  0  0
  189.9030  176.7140  136.5860 O   0  0  0  0  0  1  0  0  0  0  0  0
  190.2180  177.1570  137.8730 C   0  0  0  0  0  2  0  0  0  0  0  0
  192.5610  176.3270  138.5080 C   0  0  0  0  0  0  0  0  0  0  0  0
  193.1290  177.2130  139.3280 C   0  0  0  0  0  2  0  0  0  0  0  0
  193.3730  175.6950  137.4920 N   0  0  0  0  0  0  0  0  0  0  0  0
  193.3660  176.1340  136.1050 C   0  0  0  0  0  1  0  0  0  0  0  0
  194.3290  174.6580  137.8480 C   0  0  0  0  0  1  0  0  0  0  0  0
  1  9  1  1  0  0  0
  2  3  1  0  0  0  0
  2  5  1  0  0  0  0
  3  7  1  0  0  0  0
  5 14  1  0  0  0  0
  6  1  1  0  0  0  0
  7  4  1  0  0  0  0
  8 13  1  0  0  0  0
  8 12  1  0  0  0  0
 10 19  1  0  0  0  0
 11  4  1  0  0  0  0
 12 16  1  0  0  0  0
 13  2  1  0  0  0  0
 14  1  1  0  0  0  0
 15 11  1  0  0  0  0
 16  5  1  0  0  0  0
 16 17  2  0  0  0  0
 17  6  1  0  0  0  0
 18 10  1  0  0  0  0
 18 13  1  0  0  0  0
 19  3  1  0  0  0  0
 20 19  1  0  0  0  0
 20 15  1  0  0  0  0
 21  8  1  0  0  0  0
 22 21  1  0  0  0  0
 23 24  1  0  0  0  0
 24 22  1  0  0  0  0
 25 26  1  0  0  0  0
 26 24  1  0  0  0  0
 27 24  1  0  0  0  0
 27 28  2  0  0  0  0
 29 31  1  0  0  0  0
 29 27  1  0  0  0  0
 30 29  1  0  0  0  0
M  END
>  <MODEL>
4

>  <REMARK>
 VINA RESULT:      -7.7      3.161      5.111
  Name = 
  6 active torsions:
  status: ('A' for Active; 'I' for Inactive)
    1  A    between atoms: N_1  and  C_19
    2  A    between atoms: C_7  and  C_22
    3  A    between atoms: O_9  and  C_22
    4  A    between atoms: O_9  and  C_23
    5  A    between atoms: C_15  and  C_23
    6  A    between atoms: C_19  and  C_22
                            x       y       z     vdW  Elec       q    Type
                         _______ _______ _______ _____ _____    ______ ____

>  <TORSDO>
F 6

$$$$
=
 OpenBabel11052412563D

 31 34  0  0  1  0  0  0  0  0999 V2000
  189.9110  176.7680  146.7090 C   0  0  1  0  0  3  0  0  0  0  0  0
  188.6430  178.2250  143.3630 C   0  0  1  0  0  3  0  0  0  0  0  0
  187.1170  178.0210  143.2390 C   0  0  1  0  0  3  0  0  0  0  0  0
  185.0880  177.6630  144.6520 C   0  0  0  0  0  2  0  0  0  0  0  0
  189.2340  177.2050  144.3610 C   0  0  2  0  0  3  0  0  0  0  0  0
  191.6780  176.7500  146.3360 S   0  0  0  0  0  0  0  0  0  0  0  0
  186.4410  178.3540  144.5700 C   0  0  0  0  0  2  0  0  0  0  0  0
  189.5880  176.7360  141.5330 C   0  0  1  0  0  3  0  0  0  0  0  0
  189.7240  177.1840  148.0260 O   0  0  0  0  0  1  0  0  0  0  0  0
  187.2220  178.5650  140.8420 N   0  0  0  0  0  2  0  0  0  0  0  0
  183.9400  178.5570  144.1770 C   0  0  0  0  0  2  0  0  0  0  0  0
  190.5740  176.0230  142.4650 C   0  0  0  0  0  2  0  0  0  0  0  0
  189.3530  178.1880  141.9890 C   0  0  1  0  0  3  0  0  0  0  0  0
  189.2910  177.7770  145.7720 C   0  0  0  0  0  2  0  0  0  0  0  0
  184.2450  179.3970  142.9350 C   0  0  0  0  0  2  0  0  0  0  0  0
  190.5040  176.5070  143.8870 C   0  0  0  0  0  0  0  0  0  0  0  0
  191.4670  176.1740  144.6820 N   0  0  0  0  0  0  0  0  0  0  0  0
  188.5950  179.0330  140.9630 C   0  0  0  0  0  2  0  0  0  0  0  0
  186.5330  178.8710  142.0900 C   0  0  1  0  0  3  0  0  0  0  0  0
  185.0400  178.6320  141.8870 C   0  0  0  0  0  2  0  0  0  0  0  0
  190.0980  176.6400  140.0980 C   0  0  0  0  0  2  0  0  0  0  0  0
  189.0370  176.3790  139.2090 O   0  0  0  0  0  0  0  0  0  0  0  0
  190.7500  177.1080  137.9220 O   0  0  0  0  0  1  0  0  0  0  0  0
  189.4200  176.6770  137.8760 C   0  0  1  0  0  0  0  0  0  0  0  0
  190.1400  174.3830  137.6090 O   0  0  0  0  0  1  0  0  0  0  0  0
  189.4080  175.4090  137.0060 C   0  0  0  0  0  2  0  0  0  0  0  0
  188.5730  177.8170  137.2970 C   0  0  0  0  0  0  0  0  0  0  0  0
  189.0540  179.0590  137.3840 C   0  0  0  0  0  2  0  0  0  0  0  0
  187.2500  177.6180  136.7520 N   0  0  0  0  0  0  0  0  0  0  0  0
  186.0840  177.4070  137.5960 C   0  0  0  0  0  1  0  0  0  0  0  0
  187.0110  177.7400  135.3220 C   0  0  0  0  0  1  0  0  0  0  0  0
  1  9  1  1  0  0  0
  2  5  1  0  0  0  0
  3  2  1  0  0  0  0
  3  7  1  0  0  0  0
  5 14  1  0  0  0  0
  6  1  1  0  0  0  0
  7  4  1  0  0  0  0
  8 13  1  0  0  0  0
  8 12  1  0  0  0  0
 10 18  1  0  0  0  0
 10 19  1  0  0  0  0
 11  4  1  0  0  0  0
 12 16  1  0  0  0  0
 13  2  1  0  0  0  0
 14  1  1  0  0  0  0
 15 11  1  0  0  0  0
 16  5  1  0  0  0  0
 16 17  2  0  0  0  0
 17  6  1  0  0  0  0
 18 13  1  0  0  0  0
 19  3  1  0  0  0  0
 20 19  1  0  0  0  0
 20 15  1  0  0  0  0
 21  8  1  0  0  0  0
 22 21  1  0  0  0  0
 24 23  1  0  0  0  0
 24 22  1  0  0  0  0
 26 25  1  0  0  0  0
 26 24  1  0  0  0  0
 27 28  2  0  0  0  0
 27 24  1  0  0  0  0
 29 27  1  0  0  0  0
 29 30  1  0  0  0  0
 31 29  1  0  0  0  0
M  END
>  <MODEL>
5

>  <REMARK>
 VINA RESULT:      -7.2      2.843      4.627
  Name = 
  6 active torsions:
  status: ('A' for Active; 'I' for Inactive)
    1  A    between atoms: N_1  and  C_19
    2  A    between atoms: C_7  and  C_22
    3  A    between atoms: O_9  and  C_22
    4  A    between atoms: O_9  and  C_23
    5  A    between atoms: C_15  and  C_23
    6  A    between atoms: C_19  and  C_22
                            x       y       z     vdW  Elec       q    Type
                         _______ _______ _______ _____ _____    ______ ____

>  <TORSDO>
F 6

$$$$
=
 OpenBabel11052412563D

 31 34  0  0  1  0  0  0  0  0999 V2000
  183.0910  178.6980  142.5820 C   0  0  1  0  0  3  0  0  0  0  0  0
  186.5680  178.6530  140.8990 C   0  0  1  0  0  3  0  0  0  0  0  0
  186.4990  177.8930  139.5550 C   0  0  1  0  0  3  0  0  0  0  0  0
  184.8640  177.2300  137.7870 C   0  0  0  0  0  2  0  0  0  0  0  0
  185.4010  178.2180  141.8130 C   0  0  2  0  0  3  0  0  0  0  0  0
  183.6050  179.2110  144.2350 S   0  0  0  0  0  0  0  0  0  0  0  0
  185.2400  178.3080  138.7920 C   0  0  0  0  0  2  0  0  0  0  0  0
  188.0390  177.1650  142.3420 C   0  0  1  0  0  3  0  0  0  0  0  0
  181.9110  179.3580  142.2420 O   0  0  0  0  0  1  0  0  0  0  0  0
  188.9550  177.7740  139.4750 N   0  0  0  0  0  2  0  0  0  0  0  0
  185.4440  177.4940  136.3950 C   0  0  0  0  0  2  0  0  0  0  0  0
  187.0500  177.1280  143.5110 C   0  0  0  0  0  2  0  0  0  0  0  0
  187.9460  178.5040  141.5850 C   0  0  1  0  0  3  0  0  0  0  0  0
  184.1930  179.1290  141.6430 C   0  0  0  0  0  2  0  0  0  0  0  0
  186.8810  178.0210  136.3820 C   0  0  0  0  0  2  0  0  0  0  0  0
  185.7970  177.9180  143.2560 C   0  0  0  0  0  0  0  0  0  0  0  0
  185.0330  178.1770  144.2650 N   0  0  0  0  0  0  0  0  0  0  0  0
  189.0800  178.7150  140.5800 C   0  0  0  0  0  2  0  0  0  0  0  0
  187.7680  178.1380  138.7100 C   0  0  1  0  0  3  0  0  0  0  0  0
  187.7680  177.3380  137.4110 C   0  0  0  0  0  2  0  0  0  0  0  0
  189.4430  176.8760  142.8640 C   0  0  0  0  0  2  0  0  0  0  0  0
  189.4100  176.5670  144.2380 O   0  0  0  0  0  0  0  0  0  0  0  0
  191.6420  176.7290  144.5770 O   0  0  0  0  0  1  0  0  0  0  0  0
  190.4110  177.2900  144.9350 C   0  0  1  0  0  0  0  0  0  0  0  0
  191.7510  179.1280  144.1140 O   0  0  0  0  0  1  0  0  0  0  0  0
  190.4530  178.7550  144.4700 C   0  0  0  0  0  2  0  0  0  0  0  0
  190.2490  177.1410  146.4530 C   0  0  0  0  0  0  0  0  0  0  0  0
  191.1470  176.4030  147.1080 C   0  0  0  0  0  2  0  0  0  0  0  0
  189.1230  177.6810  147.1820 N   0  0  0  0  0  0  0  0  0  0  0  0
  187.7490  177.4980  146.7400 C   0  0  0  0  0  1  0  0  0  0  0  0
  189.3190  178.3360  148.4660 C   0  0  0  0  0  1  0  0  0  0  0  0
  1  9  1  6  0  0  0
  1  6  1  0  0  0  0
  2 13  1  0  0  0  0
  2  5  1  0  0  0  0
  3  2  1  0  0  0  0
  4  7  1  0  0  0  0
  5 16  1  0  0  0  0
  6 17  1  0  0  0  0
  7  3  1  0  0  0  0
  8 21  1  0  0  0  0
  8 12  1  0  0  0  0
 10 18  1  0  0  0  0
 11  4  1  0  0  0  0
 13  8  1  0  0  0  0
 14  5  1  0  0  0  0
 14  1  1  0  0  0  0
 15 11  1  0  0  0  0
 15 20  1  0  0  0  0
 16 12  1  0  0  0  0
 16 17  2  0  0  0  0
 18 13  1  0  0  0  0
 19 10  1  0  0  0  0
 19  3  1  0  0  0  0
 20 19  1  0  0  0  0
 21 22  1  0  0  0  0
 22 24  1  0  0  0  0
 23 24  1  0  0  0  0
 24 27  1  0  0  0  0
 25 26  1  0  0  0  0
 26 24  1  0  0  0  0
 27 28  2  0  0  0  0
 27 29  1  0  0  0  0
 29 31  1  0  0  0  0
 30 29  1  0  0  0  0
M  END
>  <MODEL>
6

>  <REMARK>
 VINA RESULT:      -7.2      2.364      6.949
  Name = 
  6 active torsions:
  status: ('A' for Active; 'I' for Inactive)
    1  A    between atoms: N_1  and  C_19
    2  A    between atoms: C_7  and  C_22
    3  A    between atoms: O_9  and  C_22
    4  A    between atoms: O_9  and  C_23
    5  A    between atoms: C_15  and  C_23
    6  A    between atoms: C_19  and  C_22
                            x       y       z     vdW  Elec       q    Type
                         _______ _______ _______ _____ _____    ______ ____

>  <TORSDO>
F 6

$$$$
=
 OpenBabel11052412563D

 31 34  0  0  1  0  0  0  0  0999 V2000
  188.3270  177.9350  138.4080 C   0  0  1  0  0  3  0  0  0  0  0  0
  186.6100  178.8500  141.7470 C   0  0  1  0  0  3  0  0  0  0  0  0
  187.0770  177.8900  142.8640 C   0  0  1  0  0  3  0  0  0  0  0  0
  188.9760  176.3780  143.4520 C   0  0  0  0  0  2  0  0  0  0  0  0
  186.8200  178.1930  140.3640 C   0  0  2  0  0  3  0  0  0  0  0  0
  187.2650  178.8850  137.2980 S   0  0  0  0  0  0  0  0  0  0  0  0
  188.5880  177.6790  142.7670 C   0  0  0  0  0  2  0  0  0  0  0  0
  184.1510  178.2750  141.4650 C   0  0  1  0  0  3  0  0  0  0  0  0
  189.6510  178.0530  137.9900 O   0  0  0  0  0  1  0  0  0  0  0  0
  185.2390  178.6530  144.3110 N   0  0  0  0  0  2  0  0  0  0  0  0
  189.3910  176.5820  144.9120 C   0  0  0  0  0  2  0  0  0  0  0  0
  184.2510  178.0930  139.9460 C   0  0  0  0  0  2  0  0  0  0  0  0
  185.1570  179.3330  141.9580 C   0  0  1  0  0  3  0  0  0  0  0  0
  188.1760  178.5600  139.7750 C   0  0  0  0  0  2  0  0  0  0  0  0
  188.5350  177.5800  145.6940 C   0  0  0  0  0  2  0  0  0  0  0  0
  185.6370  178.3180  139.4100 C   0  0  0  0  0  0  0  0  0  0  0  0
  185.7710  178.4590  138.1330 N   0  0  0  0  0  0  0  0  0  0  0  0
  184.9310  179.7560  143.4110 C   0  0  0  0  0  2  0  0  0  0  0  0
  186.6770  178.4220  144.2580 C   0  0  1  0  0  3  0  0  0  0  0  0
  187.0520  177.4580  145.3800 C   0  0  0  0  0  2  0  0  0  0  0  0
  182.7090  178.6100  141.8350 C   0  0  0  0  0  2  0  0  0  0  0  0
  181.8100  178.0120  140.9310 O   0  0  0  0  0  0  0  0  0  0  0  0
  179.6050  177.7420  140.5000 O   0  0  0  0  0  1  0  0  0  0  0  0
  180.5470  178.6550  140.9840 C   0  0  1  0  0  0  0  0  0  0  0  0
  179.4560  177.8780  142.9990 O   0  0  0  0  0  1  0  0  0  0  0  0
  180.1470  178.9550  142.4390 C   0  0  0  0  0  2  0  0  0  0  0  0
  180.5140  179.8930  140.0790 C   0  0  0  0  0  0  0  0  0  0  0  0
  179.6660  180.8730  140.3930 C   0  0  0  0  0  2  0  0  0  0  0  0
  181.2850  179.9990  138.8620 N   0  0  0  0  0  0  0  0  0  0  0  0
  181.0090  179.1810  137.6910 C   0  0  0  0  0  1  0  0  0  0  0  0
  182.3060  181.0260  138.7190 C   0  0  0  0  0  1  0  0  0  0  0  0
  1  9  1  6  0  0  0
  1 14  1  0  0  0  0
  2 13  1  0  0  0  0
  2  3  1  0  0  0  0
  3 19  1  0  0  0  0
  4 11  1  0  0  0  0
  5  2  1  0  0  0  0
  6 17  1  0  0  0  0
  6  1  1  0  0  0  0
  7  3  1  0  0  0  0
  7  4  1  0  0  0  0
  8 21  1  0  0  0  0
  8 13  1  0  0  0  0
 11 15  1  0  0  0  0
 12  8  1  0  0  0  0
 13 18  1  0  0  0  0
 14  5  1  0  0  0  0
 16 12  1  0  0  0  0
 16  5  1  0  0  0  0
 17 16  2  0  0  0  0
 18 10  1  0  0  0  0
 19 10  1  0  0  0  0
 19 20  1  0  0  0  0
 20 15  1  0  0  0  0
 22 24  1  0  0  0  0
 22 21  1  0  0  0  0
 23 24  1  0  0  0  0
 24 26  1  0  0  0  0
 26 25  1  0  0  0  0
 27 28  2  0  0  0  0
 27 24  1  0  0  0  0
 29 27  1  0  0  0  0
 30 29  1  0  0  0  0
 31 29  1  0  0  0  0
M  END
>  <MODEL>
7

>  <REMARK>
 VINA RESULT:      -6.6      3.098      6.510
  Name = 
  6 active torsions:
  status: ('A' for Active; 'I' for Inactive)
    1  A    between atoms: N_1  and  C_19
    2  A    between atoms: C_7  and  C_22
    3  A    between atoms: O_9  and  C_22
    4  A    between atoms: O_9  and  C_23
    5  A    between atoms: C_15  and  C_23
    6  A    between atoms: C_19  and  C_22
                            x       y       z     vdW  Elec       q    Type
                         _______ _______ _______ _____ _____    ______ ____

>  <TORSDO>
F 6

$$$$
=
 OpenBabel11052412563D

 31 34  0  0  1  0  0  0  0  0999 V2000
  188.4690  177.9500  138.3110 C   0  0  1  0  0  3  0  0  0  0  0  0
  186.7030  178.8380  141.6310 C   0  0  1  0  0  3  0  0  0  0  0  0
  187.1650  177.8790  142.7510 C   0  0  1  0  0  3  0  0  0  0  0  0
  189.0710  176.3830  143.3580 C   0  0  0  0  0  2  0  0  0  0  0  0
  186.9370  178.1880  140.2490 C   0  0  2  0  0  3  0  0  0  0  0  0
  187.4130  178.8930  137.1900 S   0  0  0  0  0  0  0  0  0  0  0  0
  188.6790  177.6830  142.6720 C   0  0  0  0  0  2  0  0  0  0  0  0
  184.2530  178.2410  141.3160 C   0  0  1  0  0  3  0  0  0  0  0  0
  189.7980  178.0810  137.9090 O   0  0  0  0  0  1  0  0  0  0  0  0
  185.3020  178.6200  144.1770 N   0  0  0  0  0  2  0  0  0  0  0  0
  189.4660  176.5860  144.8230 C   0  0  0  0  0  2  0  0  0  0  0  0
  184.3730  178.0650  139.7990 C   0  0  0  0  0  2  0  0  0  0  0  0
  185.2420  179.3060  141.8250 C   0  0  1  0  0  3  0  0  0  0  0  0
  188.2960  178.5690  139.6780 C   0  0  0  0  0  2  0  0  0  0  0  0
  188.5910  177.5740  145.5980 C   0  0  0  0  0  2  0  0  0  0  0  0
  185.7640  178.3040  139.2810 C   0  0  0  0  0  0  0  0  0  0  0  0
  185.9130  178.4500  138.0050 N   0  0  0  0  0  0  0  0  0  0  0  0
  184.9940  179.7230  143.2770 C   0  0  0  0  0  2  0  0  0  0  0  0
  186.7430  178.4020  144.1410 C   0  0  1  0  0  3  0  0  0  0  0  0
  187.1120  177.4390  145.2640 C   0  0  0  0  0  2  0  0  0  0  0  0
  182.8040  178.5610  141.6690 C   0  0  0  0  0  2  0  0  0  0  0  0
  182.1360  179.1320  140.5680 O   0  0  0  0  0  0  0  0  0  0  0  0
  180.5320  179.1660  142.1630 O   0  0  0  0  0  1  0  0  0  0  0  0
  180.7340  179.1310  140.7790 C   0  0  1  0  0  0  0  0  0  0  0  0
  179.6740  181.2540  141.2510 O   0  0  0  0  0  1  0  0  0  0  0  0
  180.0950  180.4130  140.2180 C   0  0  0  0  0  2  0  0  0  0  0  0
  180.0920  177.8470  140.2400 C   0  0  0  0  0  0  0  0  0  0  0  0
  178.9920  177.3960  140.8470 C   0  0  0  0  0  2  0  0  0  0  0  0
  180.6740  177.0610  139.1760 N   0  0  0  0  0  0  0  0  0  0  0  0
  180.7080  177.5220  137.7970 C   0  0  0  0  0  1  0  0  0  0  0  0
  181.3640  175.8140  139.4690 C   0  0  0  0  0  1  0  0  0  0  0  0
  1  9  1  6  0  0  0
  1 14  1  0  0  0  0
  2 13  1  0  0  0  0
  2  3  1  0  0  0  0
  3 19  1  0  0  0  0
  4 11  1  0  0  0  0
  5  2  1  0  0  0  0
  6 17  1  0  0  0  0
  6  1  1  0  0  0  0
  7  3  1  0  0  0  0
  7  4  1  0  0  0  0
  8 21  1  0  0  0  0
  8 13  1  0  0  0  0
 11 15  1  0  0  0  0
 12  8  1  0  0  0  0
 13 18  1  0  0  0  0
 14  5  1  0  0  0  0
 16 12  1  0  0  0  0
 16  5  1  0  0  0  0
 17 16  2  0  0  0  0
 18 10  1  0  0  0  0
 19 10  1  0  0  0  0
 19 20  1  0  0  0  0
 20 15  1  0  0  0  0
 22 24  1  0  0  0  0
 22 21  1  0  0  0  0
 24 23  1  0  0  0  0
 26 24  1  0  0  0  0
 26 25  1  0  0  0  0
 27 24  1  0  0  0  0
 27 28  2  0  0  0  0
 29 31  1  0  0  0  0
 29 27  1  0  0  0  0
 30 29  1  0  0  0  0
M  END
>  <MODEL>
8

>  <REMARK>
 VINA RESULT:      -6.6      3.245      6.505
  Name = 
  6 active torsions:
  status: ('A' for Active; 'I' for Inactive)
    1  A    between atoms: N_1  and  C_19
    2  A    between atoms: C_7  and  C_22
    3  A    between atoms: O_9  and  C_22
    4  A    between atoms: O_9  and  C_23
    5  A    between atoms: C_15  and  C_23
    6  A    between atoms: C_19  and  C_22
                            x       y       z     vdW  Elec       q    Type
                         _______ _______ _______ _____ _____    ______ ____

>  <TORSDO>
F 6

$$$$
=
 OpenBabel11052412563D

 31 34  0  0  1  0  0  0  0  0999 V2000
  183.1380  178.3250  138.0200 C   0  0  1  0  0  3  0  0  0  0  0  0
  186.9280  177.6050  137.8010 C   0  0  1  0  0  3  0  0  0  0  0  0
  187.1670  176.1110  137.4900 C   0  0  1  0  0  3  0  0  0  0  0  0
  186.0270  174.1360  136.4710 C   0  0  0  0  0  2  0  0  0  0  0  0
  185.5280  177.7970  138.4280 C   0  0  2  0  0  3  0  0  0  0  0  0
  183.2230  179.9450  138.8140 S   0  0  0  0  0  0  0  0  0  0  0  0
  186.1960  175.6470  136.4050 C   0  0  0  0  0  2  0  0  0  0  0  0
  187.8400  177.8700  140.1590 C   0  0  1  0  0  3  0  0  0  0  0  0
  182.1450  178.3440  137.0420 O   0  0  0  0  0  1  0  0  0  0  0  0
  189.5380  176.3460  138.1040 N   0  0  0  0  0  2  0  0  0  0  0  0
  186.9790  173.3950  135.5280 C   0  0  0  0  0  2  0  0  0  0  0  0
  186.5720  178.5420  140.6960 C   0  0  0  0  0  2  0  0  0  0  0  0
  188.0540  178.2110  138.6710 C   0  0  1  0  0  3  0  0  0  0  0  0
  184.4810  178.1030  137.3660 C   0  0  0  0  0  2  0  0  0  0  0  0
  188.4010  173.9590  135.4700 C   0  0  0  0  0  2  0  0  0  0  0  0
  185.4960  178.6980  139.6580 C   0  0  0  0  0  0  0  0  0  0  0  0
  184.5090  179.4870  139.9300 N   0  0  0  0  0  0  0  0  0  0  0  0
  189.4290  177.7980  138.1440 C   0  0  0  0  0  2  0  0  0  0  0  0
  188.6320  175.8570  137.0720 C   0  0  1  0  0  3  0  0  0  0  0  0
  188.9240  174.3790  136.8360 C   0  0  0  0  0  2  0  0  0  0  0  0
  189.0260  178.2670  141.0330 C   0  0  0  0  0  2  0  0  0  0  0  0
  188.6450  178.3400  142.3870 O   0  0  0  0  0  0  0  0  0  0  0  0
  187.9690  176.3310  143.1820 O   0  0  0  0  0  1  0  0  0  0  0  0
  189.0740  177.1840  143.0880 C   0  0  1  0  0  0  0  0  0  0  0  0
  190.3750  175.1600  142.8390 O   0  0  0  0  0  1  0  0  0  0  0  0
  190.1410  176.4210  142.2850 C   0  0  0  0  0  2  0  0  0  0  0  0
  189.5230  177.5330  144.5130 C   0  0  0  0  0  0  0  0  0  0  0  0
  188.5790  177.7150  145.4380 C   0  0  0  0  0  2  0  0  0  0  0  0
  190.9040  177.7640  144.8690 N   0  0  0  0  0  0  0  0  0  0  0  0
  191.6340  176.8840  145.7690 C   0  0  0  0  0  1  0  0  0  0  0  0
  191.6630  178.8340  144.2390 C   0  0  0  0  0  1  0  0  0  0  0  0
  1  9  1  6  0  0  0
  1  6  1  0  0  0  0
  2  5  1  0  0  0  0
  2 13  1  0  0  0  0
  3  2  1  0  0  0  0
  5 16  1  0  0  0  0
  6 17  1  0  0  0  0
  7  4  1  0  0  0  0
  7  3  1  0  0  0  0
  8 12  1  0  0  0  0
  8 21  1  0  0  0  0
 10 18  1  0  0  0  0
 11  4  1  0  0  0  0
 13  8  1  0  0  0  0
 14  1  1  0  0  0  0
 14  5  1  0  0  0  0
 15 11  1  0  0  0  0
 15 20  1  0  0  0  0
 16 17  2  0  0  0  0
 16 12  1  0  0  0  0
 18 13  1  0  0  0  0
 19  3  1  0  0  0  0
 19 10  1  0  0  0  0
 20 19  1  0  0  0  0
 21 22  1  0  0  0  0
 22 24  1  0  0  0  0
 24 23  1  0  0  0  0
 24 27  1  0  0  0  0
 26 25  1  0  0  0  0
 26 24  1  0  0  0  0
 27 29  1  0  0  0  0
 27 28  2  0  0  0  0
 29 30  1  0  0  0  0
 31 29  1  0  0  0  0
M  END
>  <MODEL>
9

>  <REMARK>
 VINA RESULT:      -6.5      2.592      7.253
  Name = 
  6 active torsions:
  status: ('A' for Active; 'I' for Inactive)
    1  A    between atoms: N_1  and  C_19
    2  A    between atoms: C_7  and  C_22
    3  A    between atoms: O_9  and  C_22
    4  A    between atoms: O_9  and  C_23
    5  A    between atoms: C_15  and  C_23
    6  A    between atoms: C_19  and  C_22
                            x       y       z     vdW  Elec       q    Type
                         _______ _______ _______ _____ _____    ______ ____

>  <TORSDO>
F 6

$$$$
