=
 OpenBabel11052414043D

 34 37  0  0  1  0  0  0  0  0999 V2000
  184.5050  178.1030  138.4130 C   0  0  0  0  0  0  0  0  0  0  0  0
  183.4080  176.0840  137.2190 C   0  0  1  0  0  3  0  0  0  0  0  0
  181.9870  177.6590  138.5340 C   0  0  2  0  0  3  0  0  0  0  0  0
  186.8230  178.6210  138.2700 O   0  0  0  0  0  1  0  0  0  0  0  0
  183.6890  176.8100  135.9080 C   0  0  0  0  0  1  0  0  0  0  0  0
  181.4310  175.1940  138.3750 C   0  0  0  0  0  2  0  0  0  0  0  0
  183.3990  177.0680  138.4180 C   0  0  2  0  0  3  0  0  0  0  0  0
  180.9410  176.3840  140.3710 O   0  0  0  0  0  0  0  0  0  0  0  0
  185.7690  177.7130  138.2420 C   0  0  0  0  0  3  0  0  0  0  0  0
  181.8980  178.9230  139.4030 C   0  0  1  0  0  3  0  0  0  0  0  0
  184.2000  179.5200  138.6890 C   0  0  0  0  0  3  0  0  0  0  0  0
  182.1300  175.3340  137.0910 N   0  0  2  0  0  0  0  0  0  0  0  0
  180.6350  177.5950  141.0280 C   0  0  0  0  0  2  0  0  0  0  0  0
  181.7770  178.5900  140.8860 C   0  0  1  0  0  3  0  0  0  0  0  0
  180.9790  176.5520  138.9580 C   0  0  1  0  0  0  0  0  0  0  0  0
  182.9980  179.9060  139.1160 C   0  0  0  0  0  3  0  0  0  0  0  0
  181.2150  174.8900  134.6370 F   0  0  0  0  0  0  0  0  0  0  0  0
  183.7100  173.3840  136.9340 C   0  0  0  0  0  2  0  0  0  0  0  0
  182.0860  173.8950  135.0490 C   0  0  1  0  0  3  0  0  0  0  0  0
  182.3350  173.9710  136.5650 C   0  0  2  0  0  3  0  0  0  0  0  0
  183.5030  171.4110  135.4950 N   0  0  0  0  0  2  0  0  0  0  0  0
  182.0610  171.3190  135.3190 C   0  0  0  0  0  2  0  0  0  0  0  0
  181.5130  172.5470  134.5940 C   0  0  0  0  0  2  0  0  0  0  0  0
  183.7240  171.8630  136.8600 C   0  0  0  0  0  2  0  0  0  0  0  0
  182.9610  178.0250  141.3790 O   0  0  0  0  0  0  0  0  0  0  0  0
  183.4790  178.9650  142.2790 C   0  0  2  0  0  3  0  0  0  0  0  0
  184.9700  178.8640  142.3450 C   0  0  0  0  0  0  0  0  0  0  0  0
  185.5570  177.7600  142.9490 O   0  0  0  0  0  1  0  0  0  0  0  0
  185.6980  179.7550  141.8320 O   0  0  0  0  0  0  0  0  0  0  0  0
  183.4970  179.1460  144.7540 C   0  0  0  0  0  2  0  0  0  0  0  0
  182.8560  178.8030  143.6370 C   0  0  0  0  0  3  0  0  0  0  0  0
  179.5910  176.9020  138.3860 C   0  0  0  0  0  2  0  0  0  0  0  0
  179.1570  177.0100  135.9220 C   0  0  0  0  0  1  0  0  0  0  0  0
  179.6440  177.7780  137.1370 C   0  0  0  0  0  2  0  0  0  0  0  0
  1  7  1  0  0  0  0
  1 11  1  0  0  0  0
  2  5  1  6  0  0  0
  2  7  1  0  0  0  0
  3 15  1  0  0  0  0
  3 10  1  0  0  0  0
  6 15  1  0  0  0  0
  7  3  1  0  0  0  0
  8 13  1  0  0  0  0
  9  4  1  0  0  0  0
  9  1  2  0  0  0  0
 10 14  1  0  0  0  0
 11 16  2  0  0  0  0
 12  2  1  0  0  0  0
 12  6  1  0  0  0  0
 14 13  1  0  0  0  0
 14 25  1  0  0  0  0
 15  8  1  0  0  0  0
 16 10  1  0  0  0  0
 17 19  1  0  0  0  0
 19 20  1  0  0  0  0
 20 18  1  0  0  0  0
 20 12  1  0  0  0  0
 21 24  1  0  0  0  0
 22 21  1  0  0  0  0
 23 19  1  0  0  0  0
 23 22  1  0  0  0  0
 24 18  1  0  0  0  0
 25 26  1  0  0  0  0
 26 27  1  0  0  0  0
 26 31  1  0  0  0  0
 27 28  1  0  0  0  0
 29 27  2  0  0  0  0
 31 30  2  0  0  0  0
 32 15  1  0  0  0  0
 33 34  1  0  0  0  0
 34 32  1  0  0  0  0
M  END
>  <MODEL>
1

>  <REMARK>
 VINA RESULT:      -5.2      0.000      0.000
  Name = 
  7 active torsions:
  status: ('A' for Active; 'I' for Inactive)
    1  A    between atoms: C_7  and  C_23
    2  A    between atoms: O_12  and  C_23
    3  A    between atoms: O_12  and  C_28
    4  A    between atoms: C_14  and  N_25
    5  A    between atoms: C_17  and  C_29
    6  A    between atoms: C_23  and  C_27
    7  A    between atoms: C_29  and  C_31
                            x       y       z     vdW  Elec       q    Type
                         _______ _______ _______ _____ _____    ______ ____

>  <TORSDO>
F 7

$$$$
=
 OpenBabel11052414043D

 34 37  0  0  1  0  0  0  0  0999 V2000
  186.9540  177.6430  137.3820 C   0  0  0  0  0  0  0  0  0  0  0  0
  188.6410  177.4630  139.3390 C   0  0  1  0  0  3  0  0  0  0  0  0
  189.3950  176.9670  137.0120 C   0  0  2  0  0  3  0  0  0  0  0  0
  184.6970  178.3470  137.6460 O   0  0  0  0  0  1  0  0  0  0  0  0
  188.5860  178.9850  139.4180 C   0  0  0  0  0  1  0  0  0  0  0  0
  190.3760  175.7570  139.0080 C   0  0  0  0  0  2  0  0  0  0  0  0
  188.1780  176.9540  137.9480 C   0  0  2  0  0  3  0  0  0  0  0  0
  190.1340  174.6130  136.9410 O   0  0  0  0  0  0  0  0  0  0  0  0
  185.8590  177.7590  138.1350 C   0  0  0  0  0  3  0  0  0  0  0  0
  189.0470  176.8710  135.5190 C   0  0  1  0  0  3  0  0  0  0  0  0
  186.9380  178.0970  135.9790 C   0  0  0  0  0  3  0  0  0  0  0  0
  190.0150  177.0100  139.6810 N   0  0  2  0  0  0  0  0  0  0  0  0
  190.0560  174.6390  135.5310 C   0  0  0  0  0  2  0  0  0  0  0  0
  188.8390  175.4280  135.0720 C   0  0  1  0  0  3  0  0  0  0  0  0
  190.4320  175.9000  137.4700 C   0  0  1  0  0  0  0  0  0  0  0  0
  187.9090  177.7700  135.1260 C   0  0  0  0  0  3  0  0  0  0  0  0
  192.2640  177.9380  140.7490 F   0  0  0  0  0  0  0  0  0  0  0  0
  188.8780  176.9790  141.9230 C   0  0  0  0  0  2  0  0  0  0  0  0
  191.3250  177.6260  141.7170 C   0  0  1  0  0  3  0  0  0  0  0  0
  190.1820  176.7820  141.1280 C   0  0  2  0  0  3  0  0  0  0  0  0
  189.9360  176.8310  144.1290 N   0  0  0  0  0  2  0  0  0  0  0  0
  191.1710  176.1240  143.8210 C   0  0  0  0  0  2  0  0  0  0  0  0
  192.0540  176.9380  142.8780 C   0  0  0  0  0  2  0  0  0  0  0  0
  188.9090  176.2640  143.2670 C   0  0  0  0  0  2  0  0  0  0  0  0
  187.6800  174.8820  135.6400 O   0  0  0  0  0  0  0  0  0  0  0  0
  187.0430  174.1920  134.6010 C   0  0  2  0  0  3  0  0  0  0  0  0
  185.5760  174.4880  134.5940 C   0  0  0  0  0  0  0  0  0  0  0  0
  184.6640  173.4420  134.6190 O   0  0  0  0  0  1  0  0  0  0  0  0
  185.1620  175.6780  134.5940 O   0  0  0  0  0  0  0  0  0  0  0  0
  187.4680  172.1040  135.8740 C   0  0  0  0  0  2  0  0  0  0  0  0
  187.3040  172.7140  134.7010 C   0  0  0  0  0  3  0  0  0  0  0  0
  191.8410  176.3750  137.0650 C   0  0  0  0  0  2  0  0  0  0  0  0
  193.7440  174.8340  137.5870 C   0  0  0  0  0  1  0  0  0  0  0  0
  192.9260  176.0140  138.0760 C   0  0  0  0  0  2  0  0  0  0  0  0
  1  7  1  0  0  0  0
  1  9  2  0  0  0  0
  2  5  1  6  0  0  0
  2 12  1  0  0  0  0
  3 15  1  0  0  0  0
  3  7  1  0  0  0  0
  4  9  1  0  0  0  0
  6 12  1  0  0  0  0
  7  2  1  0  0  0  0
  8 15  1  0  0  0  0
 10  3  1  0  0  0  0
 11  1  1  0  0  0  0
 12 20  1  0  0  0  0
 13  8  1  0  0  0  0
 14 10  1  0  0  0  0
 14 13  1  0  0  0  0
 14 25  1  0  0  0  0
 15  6  1  0  0  0  0
 16 10  1  0  0  0  0
 16 11  2  0  0  0  0
 17 19  1  0  0  0  0
 18 24  1  0  0  0  0
 19 23  1  0  0  0  0
 20 19  1  0  0  0  0
 20 18  1  0  0  0  0
 22 21  1  0  0  0  0
 23 22  1  0  0  0  0
 24 21  1  0  0  0  0
 26 31  1  0  0  0  0
 26 25  1  0  0  0  0
 27 29  2  0  0  0  0
 27 26  1  0  0  0  0
 27 28  1  0  0  0  0
 31 30  2  0  0  0  0
 32 15  1  0  0  0  0
 32 34  1  0  0  0  0
 33 34  1  0  0  0  0
M  END
>  <MODEL>
2

>  <REMARK>
 VINA RESULT:      -5.2      5.729      9.661
  Name = 
  7 active torsions:
  status: ('A' for Active; 'I' for Inactive)
    1  A    between atoms: C_7  and  C_23
    2  A    between atoms: O_12  and  C_23
    3  A    between atoms: O_12  and  C_28
    4  A    between atoms: C_14  and  N_25
    5  A    between atoms: C_17  and  C_29
    6  A    between atoms: C_23  and  C_27
    7  A    between atoms: C_29  and  C_31
                            x       y       z     vdW  Elec       q    Type
                         _______ _______ _______ _____ _____    ______ ____

>  <TORSDO>
F 7

$$$$
=
 OpenBabel11052414043D

 34 37  0  0  1  0  0  0  0  0999 V2000
  187.1460  178.0310  138.5660 C   0  0  0  0  0  0  0  0  0  0  0  0
  188.4660  178.0180  140.7940 C   0  0  1  0  0  3  0  0  0  0  0  0
  189.6650  177.5770  138.6490 C   0  0  2  0  0  3  0  0  0  0  0  0
  184.8250  178.5290  138.4090 O   0  0  0  0  0  1  0  0  0  0  0  0
  188.2650  179.5300  140.8270 C   0  0  0  0  0  1  0  0  0  0  0  0
  190.3770  176.4740  140.8140 C   0  0  0  0  0  2  0  0  0  0  0  0
  188.3060  177.4600  139.3550 C   0  0  2  0  0  3  0  0  0  0  0  0
  190.6090  175.3000  138.7630 O   0  0  0  0  0  0  0  0  0  0  0  0
  185.9290  178.0530  139.1100 C   0  0  0  0  0  3  0  0  0  0  0  0
  189.5980  177.4400  137.1210 C   0  0  1  0  0  3  0  0  0  0  0  0
  187.3410  178.4720  137.1710 C   0  0  0  0  0  3  0  0  0  0  0  0
  189.7920  177.6950  141.3840 N   0  0  2  0  0  0  0  0  0  0  0  0
  190.7820  175.3090  137.3620 C   0  0  0  0  0  2  0  0  0  0  0  0
  189.6010  175.9810  136.6770 C   0  0  1  0  0  3  0  0  0  0  0  0
  190.6930  176.6120  139.3080 C   0  0  1  0  0  0  0  0  0  0  0  0
  188.4740  178.2300  136.5120 C   0  0  0  0  0  3  0  0  0  0  0  0
  191.6960  178.8720  142.8160 F   0  0  0  0  0  0  0  0  0  0  0  0
  188.2770  177.5460  143.3850 C   0  0  0  0  0  2  0  0  0  0  0  0
  190.6360  178.4610  143.6070 C   0  0  1  0  0  3  0  0  0  0  0  0
  189.7180  177.4920  142.8430 C   0  0  2  0  0  3  0  0  0  0  0  0
  188.9280  177.5250  145.7480 N   0  0  0  0  0  2  0  0  0  0  0  0
  190.2670  176.9590  145.6850 C   0  0  0  0  0  2  0  0  0  0  0  0
  191.2130  177.8630  144.8960 C   0  0  0  0  0  2  0  0  0  0  0  0
  188.1420  176.8430  144.7300 C   0  0  0  0  0  2  0  0  0  0  0  0
  188.4120  175.3350  137.0430 O   0  0  0  0  0  0  0  0  0  0  0  0
  187.8880  174.8140  135.8540 C   0  0  2  0  0  3  0  0  0  0  0  0
  186.4600  175.2290  135.6820 C   0  0  0  0  0  0  0  0  0  0  0  0
  185.5740  175.0930  136.7420 O   0  0  0  0  0  1  0  0  0  0  0  0
  186.0620  175.7260  134.5950 O   0  0  0  0  0  0  0  0  0  0  0  0
  188.0260  172.5790  136.9240 C   0  0  0  0  0  2  0  0  0  0  0  0
  188.0340  173.3180  135.8160 C   0  0  0  0  0  3  0  0  0  0  0  0
  192.1050  177.2100  139.1480 C   0  0  0  0  0  2  0  0  0  0  0  0
  194.3610  176.8310  140.1640 C   0  0  0  0  0  1  0  0  0  0  0  0
  192.9190  177.2160  140.4380 C   0  0  0  0  0  2  0  0  0  0  0  0
  1  9  2  0  0  0  0
  1  7  1  0  0  0  0
  2  5  1  6  0  0  0
  2 12  1  0  0  0  0
  3 15  1  0  0  0  0
  3  7  1  0  0  0  0
  4  9  1  0  0  0  0
  6 12  1  0  0  0  0
  7  2  1  0  0  0  0
  8 15  1  0  0  0  0
 10  3  1  0  0  0  0
 11  1  1  0  0  0  0
 12 20  1  0  0  0  0
 13  8  1  0  0  0  0
 14 25  1  0  0  0  0
 14 10  1  0  0  0  0
 14 13  1  0  0  0  0
 15  6  1  0  0  0  0
 16 10  1  0  0  0  0
 16 11  2  0  0  0  0
 17 19  1  0  0  0  0
 18 24  1  0  0  0  0
 19 23  1  0  0  0  0
 20 18  1  0  0  0  0
 20 19  1  0  0  0  0
 22 21  1  0  0  0  0
 23 22  1  0  0  0  0
 24 21  1  0  0  0  0
 26 25  1  0  0  0  0
 27 26  1  0  0  0  0
 27 28  1  0  0  0  0
 29 27  2  0  0  0  0
 31 26  1  0  0  0  0
 31 30  2  0  0  0  0
 32 15  1  0  0  0  0
 32 34  1  0  0  0  0
 33 34  1  0  0  0  0
M  END
>  <MODEL>
3

>  <REMARK>
 VINA RESULT:      -5.2      5.692      9.827
  Name = 
  7 active torsions:
  status: ('A' for Active; 'I' for Inactive)
    1  A    between atoms: C_7  and  C_23
    2  A    between atoms: O_12  and  C_23
    3  A    between atoms: O_12  and  C_28
    4  A    between atoms: C_14  and  N_25
    5  A    between atoms: C_17  and  C_29
    6  A    between atoms: C_23  and  C_27
    7  A    between atoms: C_29  and  C_31
                            x       y       z     vdW  Elec       q    Type
                         _______ _______ _______ _____ _____    ______ ____

>  <TORSDO>
F 7

$$$$
=
 OpenBabel11052414043D

 34 37  0  0  1  0  0  0  0  0999 V2000
  181.9730  178.1350  137.7100 C   0  0  0  0  0  0  0  0  0  0  0  0
  182.6320  178.0270  140.2120 C   0  0  1  0  0  3  0  0  0  0  0  0
  180.3720  178.8680  139.5680 C   0  0  2  0  0  3  0  0  0  0  0  0
  183.3790  177.3910  135.9410 O   0  0  0  0  0  1  0  0  0  0  0  0
  182.5360  176.5100  140.0870 C   0  0  0  0  0  1  0  0  0  0  0  0
  181.5920  179.7700  141.5950 C   0  0  0  0  0  2  0  0  0  0  0  0
  181.8260  178.7360  139.0920 C   0  0  2  0  0  3  0  0  0  0  0  0
  180.1900  181.2100  140.3290 O   0  0  0  0  0  0  0  0  0  0  0  0
  183.1920  177.9030  137.2200 C   0  0  0  0  0  3  0  0  0  0  0  0
  179.3660  179.1860  138.4510 C   0  0  1  0  0  3  0  0  0  0  0  0
  180.7820  177.8970  136.8720 C   0  0  0  0  0  3  0  0  0  0  0  0
  182.1880  178.4290  141.5720 N   0  0  2  0  0  0  0  0  0  0  0  0
  179.0830  181.3950  139.4720 C   0  0  0  0  0  2  0  0  0  0  0  0
  179.3010  180.6780  138.1470 C   0  0  1  0  0  3  0  0  0  0  0  0
  180.2910  179.8580  140.7660 C   0  0  1  0  0  0  0  0  0  0  0  0
  179.5790  178.3510  137.2200 C   0  0  0  0  0  3  0  0  0  0  0  0
  184.5840  179.0050  140.5800 F   0  0  0  0  0  0  0  0  0  0  0  0
  182.9140  179.0690  143.8930 C   0  0  0  0  0  2  0  0  0  0  0  0
  184.5630  179.0970  141.9620 C   0  0  1  0  0  3  0  0  0  0  0  0
  183.3000  178.4390  142.5410 C   0  0  2  0  0  3  0  0  0  0  0  0
  185.1970  179.0940  144.7860 N   0  0  0  0  0  2  0  0  0  0  0  0
  185.8490  178.0830  143.9680 C   0  0  0  0  0  2  0  0  0  0  0  0
  185.8660  178.4880  142.4950 C   0  0  0  0  0  2  0  0  0  0  0  0
  183.8390  178.6250  145.0190 C   0  0  0  0  0  2  0  0  0  0  0  0
  180.4900  181.1290  137.5560 O   0  0  0  0  0  0  0  0  0  0  0  0
  180.1470  182.3050  136.8770 C   0  0  2  0  0  3  0  0  0  0  0  0
  180.0380  182.0520  135.4070 C   0  0  0  0  0  0  0  0  0  0  0  0
  178.9870  182.6070  134.6900 O   0  0  0  0  0  0  0  0  0  0  0  0
  180.9080  181.3640  134.8070 O   0  0  0  0  0  1  0  0  0  0  0  0
  181.0950  184.5760  136.5480 C   0  0  0  0  0  2  0  0  0  0  0  0
  181.1330  183.4000  137.1750 C   0  0  0  0  0  3  0  0  0  0  0  0
  179.1020  179.4550  141.6610 C   0  0  0  0  0  2  0  0  0  0  0  0
  179.1560  179.0670  144.1330 C   0  0  0  0  0  1  0  0  0  0  0  0
  179.1180  180.1150  143.0370 C   0  0  0  0  0  2  0  0  0  0  0  0
  1  7  1  0  0  0  0
  2  5  1  1  0  0  0
  2 12  1  0  0  0  0
  3 15  1  0  0  0  0
  4  9  1  0  0  0  0
  7  3  1  0  0  0  0
  7  2  1  0  0  0  0
  8 15  1  0  0  0  0
  9  1  2  0  0  0  0
 10  3  1  0  0  0  0
 11 16  2  0  0  0  0
 11  1  1  0  0  0  0
 12  6  1  0  0  0  0
 12 20  1  0  0  0  0
 13  8  1  0  0  0  0
 14 10  1  0  0  0  0
 14 13  1  0  0  0  0
 15  6  1  0  0  0  0
 15 32  1  0  0  0  0
 16 10  1  0  0  0  0
 17 19  1  0  0  0  0
 18 24  1  0  0  0  0
 19 23  1  0  0  0  0
 19 20  1  0  0  0  0
 20 18  1  0  0  0  0
 21 24  1  0  0  0  0
 22 21  1  0  0  0  0
 23 22  1  0  0  0  0
 25 14  1  0  0  0  0
 26 31  1  0  0  0  0
 26 25  1  0  0  0  0
 27 26  1  0  0  0  0
 28 27  2  0  0  0  0
 29 27  1  0  0  0  0
 30 31  2  0  0  0  0
 32 34  1  0  0  0  0
 34 33  1  0  0  0  0
M  END
>  <MODEL>
4

>  <REMARK>
 VINA RESULT:      -5.0      4.027      7.119
  Name = 
  7 active torsions:
  status: ('A' for Active; 'I' for Inactive)
    1  A    between atoms: C_7  and  C_23
    2  A    between atoms: O_12  and  C_23
    3  A    between atoms: O_12  and  C_28
    4  A    between atoms: C_14  and  N_25
    5  A    between atoms: C_17  and  C_29
    6  A    between atoms: C_23  and  C_27
    7  A    between atoms: C_29  and  C_31
                            x       y       z     vdW  Elec       q    Type
                         _______ _______ _______ _____ _____    ______ ____

>  <TORSDO>
F 7

$$$$
=
 OpenBabel11052414043D

 34 37  0  0  1  0  0  0  0  0999 V2000
  188.6780  174.8600  136.4880 C   0  0  0  0  0  0  0  0  0  0  0  0
  186.2750  173.9970  136.0510 C   0  0  1  0  0  3  0  0  0  0  0  0
  186.6710  176.4430  136.3510 C   0  0  2  0  0  3  0  0  0  0  0  0
  190.5960  173.4530  136.5420 O   0  0  0  0  0  1  0  0  0  0  0  0
  186.7300  173.6980  134.6270 C   0  0  0  0  0  1  0  0  0  0  0  0
  184.5200  175.3470  137.1160 C   0  0  0  0  0  2  0  0  0  0  0  0
  187.1940  175.0490  136.7260 C   0  0  2  0  0  3  0  0  0  0  0  0
  185.4090  177.1770  138.3420 O   0  0  0  0  0  0  0  0  0  0  0  0
  189.2310  173.6660  136.7080 C   0  0  0  0  0  3  0  0  0  0  0  0
  187.6690  177.5840  136.6020 C   0  0  1  0  0  3  0  0  0  0  0  0
  189.5230  176.0080  136.1090 C   0  0  0  0  0  3  0  0  0  0  0  0
  184.8510  174.4210  136.0250 N   0  0  2  0  0  0  0  0  0  0  0  0
  186.1810  178.3580  138.3870 C   0  0  0  0  0  2  0  0  0  0  0  0
  187.6350  178.0650  138.0490 C   0  0  1  0  0  3  0  0  0  0  0  0
  185.2830  176.6870  137.0110 C   0  0  1  0  0  0  0  0  0  0  0  0
  189.0580  177.2570  136.1310 C   0  0  0  0  0  3  0  0  0  0  0  0
  182.6180  174.5850  134.5940 F   0  0  0  0  0  0  0  0  0  0  0  0
  184.6520  171.9200  136.1820 C   0  0  0  0  0  2  0  0  0  0  0  0
  182.8450  173.2960  135.0470 C   0  0  1  0  0  3  0  0  0  0  0  0
  183.9270  173.2780  136.1410 C   0  0  2  0  0  3  0  0  0  0  0  0
  182.6140  170.5720  135.9950 N   0  0  0  0  0  2  0  0  0  0  0  0
  181.5940  171.5080  136.4420 C   0  0  0  0  0  2  0  0  0  0  0  0
  181.5030  172.7140  135.5080 C   0  0  0  0  0  2  0  0  0  0  0  0
  183.7940  170.8280  136.8080 C   0  0  0  0  0  2  0  0  0  0  0  0
  188.1370  177.0900  138.9220 O   0  0  0  0  0  0  0  0  0  0  0  0
  189.0210  177.7670  139.7710 C   0  0  2  0  0  3  0  0  0  0  0  0
  190.2870  176.9880  139.9410 C   0  0  0  0  0  0  0  0  0  0  0  0
  191.3140  177.5080  140.7190 O   0  0  0  0  0  1  0  0  0  0  0  0
  190.4200  175.8530  139.4100 O   0  0  0  0  0  0  0  0  0  0  0  0
  188.4500  177.2110  142.1220 C   0  0  0  0  0  2  0  0  0  0  0  0
  188.3720  178.0570  141.0960 C   0  0  0  0  0  3  0  0  0  0  0  0
  184.4750  177.6510  136.1200 C   0  0  0  0  0  2  0  0  0  0  0  0
  182.2930  178.3640  137.1210 C   0  0  0  0  0  1  0  0  0  0  0  0
  182.9680  177.4060  136.1580 C   0  0  0  0  0  2  0  0  0  0  0  0
  1  9  2  0  0  0  0
  1  7  1  0  0  0  0
  2  5  1  6  0  0  0
  2  7  1  0  0  0  0
  3 10  1  0  0  0  0
  3  7  1  0  0  0  0
  3 15  1  0  0  0  0
  4  9  1  0  0  0  0
  8 13  1  0  0  0  0
 10 14  1  0  0  0  0
 11 16  2  0  0  0  0
 11  1  1  0  0  0  0
 12  2  1  0  0  0  0
 12 20  1  0  0  0  0
 12  6  1  0  0  0  0
 14 13  1  0  0  0  0
 14 25  1  0  0  0  0
 15  6  1  0  0  0  0
 15  8  1  0  0  0  0
 16 10  1  0  0  0  0
 17 19  1  0  0  0  0
 18 24  1  0  0  0  0
 19 23  1  0  0  0  0
 19 20  1  0  0  0  0
 20 18  1  0  0  0  0
 21 22  1  0  0  0  0
 21 24  1  0  0  0  0
 23 22  1  0  0  0  0
 25 26  1  0  0  0  0
 26 27  1  0  0  0  0
 26 31  1  0  0  0  0
 27 28  1  0  0  0  0
 29 27  2  0  0  0  0
 31 30  2  0  0  0  0
 32 34  1  0  0  0  0
 32 15  1  0  0  0  0
 34 33  1  0  0  0  0
M  END
>  <MODEL>
5

>  <REMARK>
 VINA RESULT:      -4.7      3.134      4.897
  Name = 
  7 active torsions:
  status: ('A' for Active; 'I' for Inactive)
    1  A    between atoms: C_7  and  C_23
    2  A    between atoms: O_12  and  C_23
    3  A    between atoms: O_12  and  C_28
    4  A    between atoms: C_14  and  N_25
    5  A    between atoms: C_17  and  C_29
    6  A    between atoms: C_23  and  C_27
    7  A    between atoms: C_29  and  C_31
                            x       y       z     vdW  Elec       q    Type
                         _______ _______ _______ _____ _____    ______ ____

>  <TORSDO>
F 7

$$$$
=
 OpenBabel11052414043D

 34 37  0  0  1  0  0  0  0  0999 V2000
  187.0740  178.1470  138.5950 C   0  0  0  0  0  0  0  0  0  0  0  0
  188.6240  178.1300  140.6690 C   0  0  1  0  0  3  0  0  0  0  0  0
  189.5670  177.5910  138.4220 C   0  0  2  0  0  3  0  0  0  0  0  0
  184.7710  178.7360  138.6730 O   0  0  0  0  0  1  0  0  0  0  0  0
  188.4860  179.6490  140.6830 C   0  0  0  0  0  1  0  0  0  0  0  0
  190.4650  176.5090  140.5280 C   0  0  0  0  0  2  0  0  0  0  0  0
  188.2890  177.5470  139.2710 C   0  0  2  0  0  3  0  0  0  0  0  0
  190.4300  175.2800  138.4960 O   0  0  0  0  0  0  0  0  0  0  0  0
  185.9240  178.2310  139.2640 C   0  0  0  0  0  3  0  0  0  0  0  0
  189.3310  177.4220  136.9130 C   0  0  1  0  0  3  0  0  0  0  0  0
  187.1340  178.5480  137.1760 C   0  0  0  0  0  3  0  0  0  0  0  0
  189.9920  177.7660  141.1230 N   0  0  2  0  0  0  0  0  0  0  0  0
  190.4510  175.2500  137.0840 C   0  0  0  0  0  2  0  0  0  0  0  0
  189.2300  175.9540  136.5120 C   0  0  1  0  0  3  0  0  0  0  0  0
  190.6220  176.6000  138.9930 C   0  0  1  0  0  0  0  0  0  0  0  0
  188.1800  178.2430  136.4070 C   0  0  0  0  0  3  0  0  0  0  0  0
  187.9570  176.4830  142.2510 F   0  0  0  0  0  0  0  0  0  0  0  0
  191.4870  177.2640  143.0810 C   0  0  0  0  0  2  0  0  0  0  0  0
  189.0430  176.5760  143.1050 C   0  0  1  0  0  3  0  0  0  0  0  0
  190.0680  177.5990  142.5870 C   0  0  2  0  0  3  0  0  0  0  0  0
  190.8110  176.7790  145.3870 N   0  0  0  0  0  2  0  0  0  0  0  0
  189.5400  177.4810  145.4800 C   0  0  0  0  0  2  0  0  0  0  0  0
  188.5150  176.9000  144.5070 C   0  0  0  0  0  2  0  0  0  0  0  0
  191.6770  177.6010  144.5550 C   0  0  0  0  0  2  0  0  0  0  0  0
  188.0630  175.3670  137.0200 O   0  0  0  0  0  0  0  0  0  0  0  0
  187.4130  174.8080  135.9120 C   0  0  2  0  0  3  0  0  0  0  0  0
  185.9970  175.2860  135.8380 C   0  0  0  0  0  0  0  0  0  0  0  0
  185.4320  175.5710  134.6020 O   0  0  0  0  0  0  0  0  0  0  0  0
  185.3030  175.4030  136.8830 O   0  0  0  0  0  1  0  0  0  0  0  0
  187.5300  172.6310  137.0990 C   0  0  0  0  0  2  0  0  0  0  0  0
  187.4850  173.3070  135.9510 C   0  0  0  0  0  3  0  0  0  0  0  0
  192.0310  177.1350  138.6670 C   0  0  0  0  0  2  0  0  0  0  0  0
  193.9250  175.6070  138.0810 C   0  0  0  0  0  1  0  0  0  0  0  0
  193.1600  176.2650  139.2130 C   0  0  0  0  0  2  0  0  0  0  0  0
  1  9  2  0  0  0  0
  1  7  1  0  0  0  0
  2  5  1  6  0  0  0
  2 12  1  0  0  0  0
  3 15  1  0  0  0  0
  3  7  1  0  0  0  0
  4  9  1  0  0  0  0
  6 12  1  0  0  0  0
  7  2  1  0  0  0  0
  8 15  1  0  0  0  0
 10  3  1  0  0  0  0
 11  1  1  0  0  0  0
 12 20  1  0  0  0  0
 13  8  1  0  0  0  0
 14 10  1  0  0  0  0
 14 25  1  0  0  0  0
 14 13  1  0  0  0  0
 15  6  1  0  0  0  0
 16 10  1  0  0  0  0
 16 11  2  0  0  0  0
 17 19  1  0  0  0  0
 18 24  1  0  0  0  0
 19 23  1  0  0  0  0
 20 18  1  0  0  0  0
 20 19  1  0  0  0  0
 21 22  1  0  0  0  0
 23 22  1  0  0  0  0
 24 21  1  0  0  0  0
 26 31  1  0  0  0  0
 26 25  1  0  0  0  0
 27 26  1  0  0  0  0
 27 29  1  0  0  0  0
 28 27  2  0  0  0  0
 31 30  2  0  0  0  0
 32 15  1  0  0  0  0
 32 34  1  0  0  0  0
 33 34  1  0  0  0  0
M  END
>  <MODEL>
6

>  <REMARK>
 VINA RESULT:      -4.6      5.493      9.560
  Name = 
  7 active torsions:
  status: ('A' for Active; 'I' for Inactive)
    1  A    between atoms: C_7  and  C_23
    2  A    between atoms: O_12  and  C_23
    3  A    between atoms: O_12  and  C_28
    4  A    between atoms: C_14  and  N_25
    5  A    between atoms: C_17  and  C_29
    6  A    between atoms: C_23  and  C_27
    7  A    between atoms: C_29  and  C_31
                            x       y       z     vdW  Elec       q    Type
                         _______ _______ _______ _____ _____    ______ ____

>  <TORSDO>
F 7

$$$$
=
 OpenBabel11052414043D

 34 37  0  0  1  0  0  0  0  0999 V2000
  188.3180  176.5980  137.4100 C   0  0  0  0  0  0  0  0  0  0  0  0
  185.8010  176.3560  136.8540 C   0  0  1  0  0  3  0  0  0  0  0  0
  186.5660  178.2330  138.3100 C   0  0  2  0  0  3  0  0  0  0  0  0
  190.0050  175.1640  136.5390 O   0  0  0  0  0  1  0  0  0  0  0  0
  186.1560  176.7890  135.4360 C   0  0  0  0  0  1  0  0  0  0  0  0
  184.3040  177.1450  138.6360 C   0  0  0  0  0  2  0  0  0  0  0  0
  186.8890  176.7990  137.8680 C   0  0  2  0  0  3  0  0  0  0  0  0
  185.4970  177.9660  140.5180 O   0  0  0  0  0  0  0  0  0  0  0  0
  188.6940  175.4100  136.9330 C   0  0  0  0  0  3  0  0  0  0  0  0
  187.7320  178.9610  138.9970 C   0  0  1  0  0  3  0  0  0  0  0  0
  189.3120  177.6750  137.5780 C   0  0  0  0  0  3  0  0  0  0  0  0
  184.4550  176.8870  137.1980 N   0  0  2  0  0  0  0  0  0  0  0  0
  186.4380  178.8590  141.0750 C   0  0  0  0  0  2  0  0  0  0  0  0
  187.8200  178.6250  140.4820 C   0  0  1  0  0  3  0  0  0  0  0  0
  185.2540  178.2520  139.1450 C   0  0  1  0  0  0  0  0  0  0  0  0
  189.0400  178.7750  138.2810 C   0  0  0  0  0  3  0  0  0  0  0  0
  182.6960  177.8170  135.4370 F   0  0  0  0  0  0  0  0  0  0  0  0
  183.8630  174.5070  136.6420 C   0  0  0  0  0  2  0  0  0  0  0  0
  182.6140  176.4410  135.5690 C   0  0  1  0  0  3  0  0  0  0  0  0
  183.3750  175.9580  136.8160 C   0  0  2  0  0  3  0  0  0  0  0  0
  181.7610  173.6780  135.6920 N   0  0  0  0  0  2  0  0  0  0  0  0
  180.8090  174.6770  136.1530 C   0  0  0  0  0  2  0  0  0  0  0  0
  181.1290  176.0550  135.5750 C   0  0  0  0  0  2  0  0  0  0  0  0
  182.7270  173.5000  136.7670 C   0  0  0  0  0  2  0  0  0  0  0  0
  188.2000  177.2910  140.6800 O   0  0  0  0  0  0  0  0  0  0  0  0
  189.1200  177.3170  141.7360 C   0  0  2  0  0  3  0  0  0  0  0  0
  190.4920  176.9740  141.2460 C   0  0  0  0  0  0  0  0  0  0  0  0
  191.6020  177.5070  141.8870 O   0  0  0  0  0  1  0  0  0  0  0  0
  190.6500  176.1850  140.2770 O   0  0  0  0  0  0  0  0  0  0  0  0
  187.7530  176.7480  143.7280 C   0  0  0  0  0  2  0  0  0  0  0  0
  188.6870  176.3980  142.8440 C   0  0  0  0  0  3  0  0  0  0  0  0
  184.5690  179.6200  138.9590 C   0  0  0  0  0  2  0  0  0  0  0  0
  182.2910  180.5700  138.5350 C   0  0  0  0  0  1  0  0  0  0  0  0
  183.1120  179.6450  139.4130 C   0  0  0  0  0  2  0  0  0  0  0  0
  1 11  1  0  0  0  0
  1  7  1  0  0  0  0
  2  5  1  6  0  0  0
  2 12  1  0  0  0  0
  2  7  1  0  0  0  0
  3 10  1  0  0  0  0
  3 15  1  0  0  0  0
  4  9  1  0  0  0  0
  6 15  1  0  0  0  0
  7  3  1  0  0  0  0
  8 13  1  0  0  0  0
  9  1  2  0  0  0  0
 10 14  1  0  0  0  0
 11 16  2  0  0  0  0
 12  6  1  0  0  0  0
 14 25  1  0  0  0  0
 14 13  1  0  0  0  0
 15  8  1  0  0  0  0
 16 10  1  0  0  0  0
 17 19  1  0  0  0  0
 18 24  1  0  0  0  0
 18 20  1  0  0  0  0
 19 23  1  0  0  0  0
 19 20  1  0  0  0  0
 20 12  1  0  0  0  0
 21 22  1  0  0  0  0
 21 24  1  0  0  0  0
 23 22  1  0  0  0  0
 25 26  1  0  0  0  0
 26 31  1  0  0  0  0
 27 26  1  0  0  0  0
 27 28  1  0  0  0  0
 29 27  2  0  0  0  0
 31 30  2  0  0  0  0
 32 15  1  0  0  0  0
 32 34  1  0  0  0  0
 33 34  1  0  0  0  0
M  END
>  <MODEL>
7

>  <REMARK>
 VINA RESULT:      -4.6      3.011      4.640
  Name = 
  7 active torsions:
  status: ('A' for Active; 'I' for Inactive)
    1  A    between atoms: C_7  and  C_23
    2  A    between atoms: O_12  and  C_23
    3  A    between atoms: O_12  and  C_28
    4  A    between atoms: C_14  and  N_25
    5  A    between atoms: C_17  and  C_29
    6  A    between atoms: C_23  and  C_27
    7  A    between atoms: C_29  and  C_31
                            x       y       z     vdW  Elec       q    Type
                         _______ _______ _______ _____ _____    ______ ____

>  <TORSDO>
F 7

$$$$
=
 OpenBabel11052414043D

 34 37  0  0  1  0  0  0  0  0999 V2000
  184.3290  178.5740  140.9350 C   0  0  0  0  0  0  0  0  0  0  0  0
  186.8420  178.4530  141.5480 C   0  0  1  0  0  3  0  0  0  0  0  0
  186.1650  178.6130  139.1510 C   0  0  2  0  0  3  0  0  0  0  0  0
  182.5780  178.6280  142.5450 O   0  0  0  0  0  1  0  0  0  0  0  0
  186.6930  179.8700  142.0940 C   0  0  0  0  0  1  0  0  0  0  0  0
  188.2300  177.3300  139.8610 C   0  0  0  0  0  2  0  0  0  0  0  0
  185.7170  178.1190  140.5340 C   0  0  2  0  0  3  0  0  0  0  0  0
  186.9570  176.5770  138.0030 O   0  0  0  0  0  0  0  0  0  0  0  0
  183.8610  178.2680  142.1460 C   0  0  0  0  0  3  0  0  0  0  0  0
  185.0330  178.7180  138.1180 C   0  0  1  0  0  3  0  0  0  0  0  0
  183.4640  179.2670  139.9620 C   0  0  0  0  0  3  0  0  0  0  0  0
  188.1990  178.3030  140.9610 N   0  0  2  0  0  0  0  0  0  0  0  0
  186.0800  176.8490  136.9300 C   0  0  0  0  0  2  0  0  0  0  0  0
  184.7500  177.3810  137.4430 C   0  0  1  0  0  3  0  0  0  0  0  0
  187.3760  177.7730  138.6510 C   0  0  1  0  0  0  0  0  0  0  0  0
  183.7940  179.3620  138.6740 C   0  0  0  0  0  3  0  0  0  0  0  0
  187.2610  176.7770  142.9230 F   0  0  0  0  0  0  0  0  0  0  0  0
  190.5390  177.4590  141.3260 C   0  0  0  0  0  2  0  0  0  0  0  0
  188.6430  176.7240  142.8460 C   0  0  1  0  0  3  0  0  0  0  0  0
  189.1910  177.8530  141.9560 C   0  0  2  0  0  3  0  0  0  0  0  0
  191.4790  176.5130  143.3830 N   0  0  0  0  0  2  0  0  0  0  0  0
  190.6660  177.1540  144.4050 C   0  0  0  0  0  2  0  0  0  0  0  0
  189.1970  176.7530  144.2760 C   0  0  0  0  0  2  0  0  0  0  0  0
  191.6800  177.5030  142.3340 C   0  0  0  0  0  2  0  0  0  0  0  0
  184.1890  176.4640  138.3430 O   0  0  0  0  0  0  0  0  0  0  0  0
  183.0990  175.8980  137.6710 C   0  0  2  0  0  3  0  0  0  0  0  0
  181.9600  175.6720  138.6140 C   0  0  0  0  0  0  0  0  0  0  0  0
  180.8520  174.9480  138.1920 O   0  0  0  0  0  0  0  0  0  0  0  0
  182.0080  176.1070  139.7960 O   0  0  0  0  0  1  0  0  0  0  0  0
  184.2060  173.6780  137.5930 C   0  0  0  0  0  2  0  0  0  0  0  0
  183.5000  174.6260  136.9780 C   0  0  0  0  0  3  0  0  0  0  0  0
  188.2400  178.6530  137.7270 C   0  0  0  0  0  2  0  0  0  0  0  0
  189.8060  177.1520  136.4760 C   0  0  0  0  0  1  0  0  0  0  0  0
  189.6830  178.1710  137.5930 C   0  0  0  0  0  2  0  0  0  0  0  0
  1  9  2  0  0  0  0
  2  5  1  6  0  0  0
  3  7  1  0  0  0  0
  6 12  1  0  0  0  0
  7  1  1  0  0  0  0
  7  2  1  0  0  0  0
  8 15  1  0  0  0  0
  9  4  1  0  0  0  0
 10 16  1  0  0  0  0
 10  3  1  0  0  0  0
 11  1  1  0  0  0  0
 12  2  1  0  0  0  0
 12 20  1  0  0  0  0
 13 14  1  0  0  0  0
 13  8  1  0  0  0  0
 14 10  1  0  0  0  0
 14 25  1  0  0  0  0
 15  3  1  0  0  0  0
 15  6  1  0  0  0  0
 16 11  2  0  0  0  0
 18 20  1  0  0  0  0
 18 24  1  0  0  0  0
 19 17  1  0  0  0  0
 19 23  1  0  0  0  0
 20 19  1  0  0  0  0
 21 22  1  0  0  0  0
 23 22  1  0  0  0  0
 24 21  1  0  0  0  0
 26 25  1  0  0  0  0
 26 27  1  0  0  0  0
 27 29  1  0  0  0  0
 28 27  2  0  0  0  0
 31 30  2  0  0  0  0
 31 26  1  0  0  0  0
 32 15  1  0  0  0  0
 33 34  1  0  0  0  0
 34 32  1  0  0  0  0
M  END
>  <MODEL>
8

>  <REMARK>
 VINA RESULT:      -4.4      4.158      7.853
  Name = 
  7 active torsions:
  status: ('A' for Active; 'I' for Inactive)
    1  A    between atoms: C_7  and  C_23
    2  A    between atoms: O_12  and  C_23
    3  A    between atoms: O_12  and  C_28
    4  A    between atoms: C_14  and  N_25
    5  A    between atoms: C_17  and  C_29
    6  A    between atoms: C_23  and  C_27
    7  A    between atoms: C_29  and  C_31
                            x       y       z     vdW  Elec       q    Type
                         _______ _______ _______ _____ _____    ______ ____

>  <TORSDO>
F 7

$$$$
=
 OpenBabel11052414043D

 34 37  0  0  1  0  0  0  0  0999 V2000
  186.8120  176.4230  137.2650 C   0  0  0  0  0  0  0  0  0  0  0  0
  184.6850  175.0670  136.6800 C   0  0  1  0  0  3  0  0  0  0  0  0
  184.4620  177.4100  137.5080 C   0  0  2  0  0  3  0  0  0  0  0  0
  189.0240  175.5960  136.9830 O   0  0  0  0  0  1  0  0  0  0  0  0
  185.0990  175.2040  135.2180 C   0  0  0  0  0  1  0  0  0  0  0  0
  182.7230  175.6480  138.0390 C   0  0  0  0  0  2  0  0  0  0  0  0
  185.3500  176.1580  137.5590 C   0  0  2  0  0  3  0  0  0  0  0  0
  183.1980  177.3480  139.6280 O   0  0  0  0  0  0  0  0  0  0  0  0
  187.6660  175.4000  137.2090 C   0  0  0  0  0  3  0  0  0  0  0  0
  185.1510  178.6950  137.9930 C   0  0  1  0  0  3  0  0  0  0  0  0
  187.3070  177.8070  137.1390 C   0  0  0  0  0  3  0  0  0  0  0  0
  183.2010  175.0940  136.7660 N   0  0  2  0  0  0  0  0  0  0  0  0
  183.6450  178.6550  139.9240 C   0  0  0  0  0  2  0  0  0  0  0  0
  185.0980  178.8360  139.5100 C   0  0  1  0  0  3  0  0  0  0  0  0
  183.1080  177.1340  138.2230 C   0  0  1  0  0  0  0  0  0  0  0  0
  186.5410  178.8550  137.4430 C   0  0  0  0  0  3  0  0  0  0  0  0
  181.3220  174.8240  134.9070 F   0  0  0  0  0  0  0  0  0  0  0  0
  183.6500  172.6200  136.7750 C   0  0  0  0  0  2  0  0  0  0  0  0
  181.7940  173.5970  135.3440 C   0  0  1  0  0  3  0  0  0  0  0  0
  182.6110  173.7480  136.6380 C   0  0  2  0  0  3  0  0  0  0  0  0
  182.1200  170.8250  136.1080 N   0  0  0  0  0  2  0  0  0  0  0  0
  180.8210  171.4270  136.3690 C   0  0  0  0  0  2  0  0  0  0  0  0
  180.5930  172.6550  135.4880 C   0  0  0  0  0  2  0  0  0  0  0  0
  183.0110  171.2920  137.1600 C   0  0  0  0  0  2  0  0  0  0  0  0
  185.8930  177.8680  140.1390 O   0  0  0  0  0  0  0  0  0  0  0  0
  186.6610  178.5670  141.0780 C   0  0  2  0  0  3  0  0  0  0  0  0
  188.1150  178.2600  140.9000 C   0  0  0  0  0  0  0  0  0  0  0  0
  188.8340  178.8960  139.8970 O   0  0  0  0  0  0  0  0  0  0  0  0
  188.6990  177.4510  141.6700 O   0  0  0  0  0  1  0  0  0  0  0  0
  185.0890  178.7900  142.9850 C   0  0  0  0  0  2  0  0  0  0  0  0
  186.2030  178.2640  142.4770 C   0  0  0  0  0  3  0  0  0  0  0  0
  182.0200  178.0140  137.5780 C   0  0  0  0  0  2  0  0  0  0  0  0
  180.8720  178.5350  135.4150 C   0  0  0  0  0  1  0  0  0  0  0  0
  182.1990  178.2100  136.0750 C   0  0  0  0  0  2  0  0  0  0  0  0
  1  7  1  0  0  0  0
  2  5  1  6  0  0  0
  2 12  1  0  0  0  0
  2  7  1  0  0  0  0
  3  7  1  0  0  0  0
  3 10  1  0  0  0  0
  3 15  1  0  0  0  0
  4  9  1  0  0  0  0
  6 15  1  0  0  0  0
  8 13  1  0  0  0  0
  9  1  2  0  0  0  0
 10 14  1  0  0  0  0
 11  1  1  0  0  0  0
 11 16  2  0  0  0  0
 12  6  1  0  0  0  0
 14 13  1  0  0  0  0
 14 25  1  0  0  0  0
 15  8  1  0  0  0  0
 16 10  1  0  0  0  0
 17 19  1  0  0  0  0
 18 24  1  0  0  0  0
 19 23  1  0  0  0  0
 19 20  1  0  0  0  0
 20 12  1  0  0  0  0
 20 18  1  0  0  0  0
 21 22  1  0  0  0  0
 21 24  1  0  0  0  0
 23 22  1  0  0  0  0
 25 26  1  0  0  0  0
 26 31  1  0  0  0  0
 27 26  1  0  0  0  0
 27 29  1  0  0  0  0
 28 27  2  0  0  0  0
 31 30  2  0  0  0  0
 32 15  1  0  0  0  0
 33 34  1  0  0  0  0
 34 32  1  0  0  0  0
M  END
>  <MODEL>
9

>  <REMARK>
 VINA RESULT:      -4.2      1.890      2.755
  Name = 
  7 active torsions:
  status: ('A' for Active; 'I' for Inactive)
    1  A    between atoms: C_7  and  C_23
    2  A    between atoms: O_12  and  C_23
    3  A    between atoms: O_12  and  C_28
    4  A    between atoms: C_14  and  N_25
    5  A    between atoms: C_17  and  C_29
    6  A    between atoms: C_23  and  C_27
    7  A    between atoms: C_29  and  C_31
                            x       y       z     vdW  Elec       q    Type
                         _______ _______ _______ _____ _____    ______ ____

>  <TORSDO>
F 7

$$$$
