=
 OpenBabel11052413153D

 31 33  0  0  1  0  0  0  0  0999 V2000
  186.9020  177.7720  145.3530 C   0  0  0  0  0  0  0  0  0  0  0  0
  188.1460  178.3240  141.8020 C   0  0  2  0  0  3  0  0  0  0  0  0
  189.4180  177.5370  141.6660 C   0  0  1  0  0  3  0  0  0  0  0  0
  187.2600  178.1090  142.9830 C   0  0  0  0  0  0  0  0  0  0  0  0
  185.5310  177.9890  145.1780 C   0  0  0  0  0  3  0  0  0  0  0  0
  186.3260  178.8480  140.3740 N   0  0  0  0  0  0  0  0  0  0  0  0
  187.5350  177.4230  146.9460 Cl  0  0  0  0  0  0  0  0  0  0  0  0
  188.5630  177.9160  139.5930 C   0  0  2  0  0  3  0  0  0  0  0  0
  185.3060  178.6130  141.4210 C   0  0  0  0  0  2  0  0  0  0  0  0
  187.4220  177.8970  140.5870 C   0  0  1  0  0  3  0  0  0  0  0  0
  187.7690  177.8440  144.2590 C   0  0  0  0  0  3  0  0  0  0  0  0
  185.8810  178.3620  142.8090 C   0  0  0  0  0  0  0  0  0  0  0  0
  185.0210  178.2810  143.9090 C   0  0  0  0  0  3  0  0  0  0  0  0
  188.2940  176.9390  138.4640 C   0  0  0  0  0  1  0  0  0  0  0  0
  189.7330  177.5180  140.2850 O   0  0  0  0  0  0  0  0  0  0  0  0
  190.4850  178.1920  142.4050 N   0  0  0  0  0  2  0  0  0  0  0  0
  191.6030  177.2640  142.4700 C   0  0  0  0  0  2  0  0  0  0  0  0
  191.6510  176.6180  143.8120 C   0  0  0  0  0  0  0  0  0  0  0  0
  191.5460  177.3930  144.9590 O   0  0  0  0  0  1  0  0  0  0  0  0
  191.7530  175.3680  143.9070 O   0  0  0  0  0  0  0  0  0  0  0  0
  185.6780  178.5490  139.1030 C   0  0  0  0  0  2  0  0  0  0  0  0
  183.1710  176.9950  138.9790 C   0  0  0  0  0  1  0  0  0  0  0  0
  184.2950  180.4760  139.0730 O   0  0  0  0  0  0  0  0  0  0  0  0
  184.3420  179.2170  139.0410 C   0  0  0  0  0  0  0  0  0  0  0  0
  183.1320  178.4460  138.8980 N   0  0  0  0  0  0  0  0  0  0  0  0
  181.5140  179.0420  137.1500 C   0  0  0  0  0  1  0  0  0  0  0  0
  181.8310  179.0640  138.6350 C   0  0  1  0  0  3  0  0  0  0  0  0
  180.7150  178.3880  139.4240 C   0  0  0  0  0  2  0  0  0  0  0  0
  180.2810  179.2400  140.6070 C   0  0  1  0  0  3  0  0  0  0  0  0
  181.1530  178.9150  141.8010 C   0  0  0  0  0  1  0  0  0  0  0  0
  180.4160  180.5940  140.2970 O   0  0  0  0  0  1  0  0  0  0  0  0
  1  7  1  0  0  0  0
  2  4  1  1  0  0  0
  3  2  1  0  0  0  0
  3 16  1  1  0  0  0
  4 11  1  0  0  0  0
  5  1  1  0  0  0  0
  6  9  1  0  0  0  0
  8 14  1  6  0  0  0
  8 15  1  0  0  0  0
  8 10  1  0  0  0  0
  9 12  1  0  0  0  0
 10  6  1  6  0  0  0
 10  2  1  0  0  0  0
 11  1  2  0  0  0  0
 12  4  2  0  0  0  0
 12 13  1  0  0  0  0
 13  5  2  0  0  0  0
 15  3  1  0  0  0  0
 16 17  1  0  0  0  0
 17 18  1  0  0  0  0
 18 20  2  0  0  0  0
 18 19  1  0  0  0  0
 21  6  1  0  0  0  0
 24 23  2  0  0  0  0
 24 21  1  0  0  0  0
 25 22  1  0  0  0  0
 25 24  1  0  0  0  0
 27 26  1  6  0  0  0
 27 25  1  0  0  0  0
 27 28  1  0  0  0  0
 28 29  1  0  0  0  0
 29 30  1  1  0  0  0
 31 29  1  0  0  0  0
M  END
>  <MODEL>
1

>  <REMARK>
 VINA RESULT:      -7.4      0.000      0.000
  Name = 
  8 active torsions:
  status: ('A' for Active; 'I' for Inactive)
    1  A    between atoms: C_1  and  C_24
    2  A    between atoms: C_5  and  N_14
    3  A    between atoms: C_9  and  C_23
    4  A    between atoms: C_10  and  N_14
    5  A    between atoms: C_10  and  C_18
    6  A    between atoms: N_15  and  C_23
    7  A    between atoms: C_19  and  N_22
    8  A    between atoms: C_19  and  C_24
                            x       y       z     vdW  Elec       q    Type
                         _______ _______ _______ _____ _____    ______ ____

>  <TORSDO>
F 8

$$$$
=
 OpenBabel11052413153D

 31 33  0  0  1  0  0  0  0  0999 V2000
  183.8350  178.6670  143.0070 C   0  0  0  0  0  0  0  0  0  0  0  0
  187.5910  178.1480  143.2890 C   0  0  2  0  0  3  0  0  0  0  0  0
  187.8230  177.3600  144.5460 C   0  0  1  0  0  3  0  0  0  0  0  0
  186.2110  178.2900  142.7410 C   0  0  0  0  0  0  0  0  0  0  0  0
  183.7020  178.8180  141.6220 C   0  0  0  0  0  3  0  0  0  0  0  0
  188.5870  178.2220  141.1370 N   0  0  0  0  0  0  0  0  0  0  0  0
  182.4290  178.8060  144.0380 Cl  0  0  0  0  0  0  0  0  0  0  0  0
  189.6220  177.1060  143.1780 C   0  0  2  0  0  3  0  0  0  0  0  0
  187.2890  178.3040  140.4290 C   0  0  0  0  0  2  0  0  0  0  0  0
  188.4030  177.3790  142.3230 C   0  0  1  0  0  3  0  0  0  0  0  0
  185.0900  178.4150  143.5690 C   0  0  0  0  0  3  0  0  0  0  0  0
  186.0860  178.4760  141.3460 C   0  0  0  0  0  0  0  0  0  0  0  0
  184.8250  178.7210  140.7930 C   0  0  0  0  0  3  0  0  0  0  0  0
  190.3160  175.8390  142.7180 C   0  0  0  0  0  1  0  0  0  0  0  0
  189.1730  176.9340  144.5110 O   0  0  0  0  0  0  0  0  0  0  0  0
  187.6040  178.2070  145.7070 N   0  0  0  0  0  2  0  0  0  0  0  0
  186.6030  177.5570  146.5380 C   0  0  0  0  0  2  0  0  0  0  0  0
  185.5870  178.5500  146.9850 C   0  0  0  0  0  0  0  0  0  0  0  0
  185.9940  179.7680  147.5140 O   0  0  0  0  0  1  0  0  0  0  0  0
  184.3610  178.3020  146.8530 O   0  0  0  0  0  0  0  0  0  0  0  0
  189.5070  177.5580  140.2210 C   0  0  0  0  0  2  0  0  0  0  0  0
  189.4850  175.7250  137.9070 C   0  0  0  0  0  1  0  0  0  0  0  0
  189.0780  179.2840  138.6520 O   0  0  0  0  0  0  0  0  0  0  0  0
  189.2870  178.0540  138.8280 C   0  0  0  0  0  0  0  0  0  0  0  0
  189.3620  177.1590  137.7010 N   0  0  0  0  0  0  0  0  0  0  0  0
  189.9010  176.5740  135.3780 C   0  0  0  0  0  1  0  0  0  0  0  0
  189.3510  177.6340  136.3160 C   0  0  1  0  0  3  0  0  0  0  0  0
  187.9530  178.0570  135.8750 C   0  0  0  0  0  2  0  0  0  0  0  0
  186.9160  177.0080  136.2440 C   0  0  1  0  0  3  0  0  0  0  0  0
  185.8260  177.6540  137.0710 C   0  0  0  0  0  1  0  0  0  0  0  0
  186.3540  176.4650  135.0880 O   0  0  0  0  0  1  0  0  0  0  0  0
  1 11  1  0  0  0  0
  1  7  1  0  0  0  0
  2  4  1  6  0  0  0
  2  3  1  0  0  0  0
  3 16  1  1  0  0  0
  4 11  2  0  0  0  0
  5  1  2  0  0  0  0
  8 14  1  6  0  0  0
  8 15  1  0  0  0  0
  9  6  1  0  0  0  0
  9 12  1  0  0  0  0
 10  6  1  6  0  0  0
 10  8  1  0  0  0  0
 10  2  1  0  0  0  0
 12  4  1  0  0  0  0
 13 12  2  0  0  0  0
 13  5  1  0  0  0  0
 15  3  1  0  0  0  0
 16 17  1  0  0  0  0
 17 18  1  0  0  0  0
 18 19  1  0  0  0  0
 20 18  2  0  0  0  0
 21  6  1  0  0  0  0
 23 24  2  0  0  0  0
 24 21  1  0  0  0  0
 25 22  1  0  0  0  0
 25 24  1  0  0  0  0
 27 26  1  6  0  0  0
 27 25  1  0  0  0  0
 28 29  1  0  0  0  0
 28 27  1  0  0  0  0
 29 30  1  1  0  0  0
 31 29  1  0  0  0  0
M  END
>  <MODEL>
2

>  <REMARK>
 VINA RESULT:      -7.3      3.084      5.552
  Name = 
  8 active torsions:
  status: ('A' for Active; 'I' for Inactive)
    1  A    between atoms: C_1  and  C_24
    2  A    between atoms: C_5  and  N_14
    3  A    between atoms: C_9  and  C_23
    4  A    between atoms: C_10  and  N_14
    5  A    between atoms: C_10  and  C_18
    6  A    between atoms: N_15  and  C_23
    7  A    between atoms: C_19  and  N_22
    8  A    between atoms: C_19  and  C_24
                            x       y       z     vdW  Elec       q    Type
                         _______ _______ _______ _____ _____    ______ ____

>  <TORSDO>
F 8

$$$$
=
 OpenBabel11052413153D

 31 33  0  0  1  0  0  0  0  0999 V2000
  190.7120  177.1240  145.9900 C   0  0  0  0  0  0  0  0  0  0  0  0
  187.7890  177.2920  143.5630 C   0  0  2  0  0  3  0  0  0  0  0  0
  186.6390  177.8950  144.3170 C   0  0  1  0  0  3  0  0  0  0  0  0
  189.1640  177.3350  144.1410 C   0  0  0  0  0  0  0  0  0  0  0  0
  191.7870  177.1590  145.0960 C   0  0  0  0  0  3  0  0  0  0  0  0
  188.5890  177.4080  141.3320 N   0  0  0  0  0  0  0  0  0  0  0  0
  191.0090  176.9730  147.7070 Cl  0  0  0  0  0  0  0  0  0  0  0  0
  186.2800  178.1690  142.0880 C   0  0  2  0  0  3  0  0  0  0  0  0
  190.0080  177.5220  141.7400 C   0  0  0  0  0  2  0  0  0  0  0  0
  187.7730  178.1070  142.3300 C   0  0  1  0  0  3  0  0  0  0  0  0
  189.4000  177.1990  145.5140 C   0  0  0  0  0  3  0  0  0  0  0  0
  190.2460  177.3360  143.2330 C   0  0  0  0  0  0  0  0  0  0  0  0
  191.5550  177.2670  143.7200 C   0  0  0  0  0  3  0  0  0  0  0  0
  185.9230  179.4230  141.3120 C   0  0  0  0  0  1  0  0  0  0  0  0
  185.6480  178.2090  143.3550 O   0  0  0  0  0  0  0  0  0  0  0  0
  186.1130  176.9300  145.2690 N   0  0  0  0  0  2  0  0  0  0  0  0
  186.2490  177.5080  146.5960 C   0  0  0  0  0  2  0  0  0  0  0  0
  185.3640  178.6990  146.7270 C   0  0  0  0  0  0  0  0  0  0  0  0
  184.0740  178.6650  146.2140 O   0  0  0  0  0  0  0  0  0  0  0  0
  185.7720  179.7240  147.3330 O   0  0  0  0  0  1  0  0  0  0  0  0
  188.4770  178.1030  140.0560 C   0  0  0  0  0  2  0  0  0  0  0  0
  186.4320  177.9930  137.9300 C   0  0  0  0  0  1  0  0  0  0  0  0
  189.5570  176.3460  138.8840 O   0  0  0  0  0  0  0  0  0  0  0  0
  188.5650  177.1220  138.9310 C   0  0  0  0  0  0  0  0  0  0  0  0
  187.5170  177.0240  137.9470 N   0  0  0  0  0  0  0  0  0  0  0  0
  186.0360  175.4940  136.7240 C   0  0  0  0  0  1  0  0  0  0  0  0
  187.4670  175.9510  136.9530 C   0  0  1  0  0  3  0  0  0  0  0  0
  188.1050  176.3730  135.6340 C   0  0  0  0  0  2  0  0  0  0  0  0
  189.3090  175.5070  135.3000 C   0  0  1  0  0  3  0  0  0  0  0  0
  190.5740  176.3130  135.5070 C   0  0  0  0  0  1  0  0  0  0  0  0
  189.3380  174.3870  136.1320 O   0  0  0  0  0  1  0  0  0  0  0  0
  1  7  1  0  0  0  0
  2  4  1  1  0  0  0
  2  3  1  0  0  0  0
  3 16  1  1  0  0  0
  4 11  2  0  0  0  0
  5  1  2  0  0  0  0
  6  9  1  0  0  0  0
  8 14  1  6  0  0  0
  8 10  1  0  0  0  0
  8 15  1  0  0  0  0
  9 12  1  0  0  0  0
 10  6  1  6  0  0  0
 10  2  1  0  0  0  0
 11  1  1  0  0  0  0
 12 13  2  0  0  0  0
 12  4  1  0  0  0  0
 13  5  1  0  0  0  0
 15  3  1  0  0  0  0
 16 17  1  0  0  0  0
 17 18  1  0  0  0  0
 18 20  1  0  0  0  0
 19 18  2  0  0  0  0
 21  6  1  0  0  0  0
 22 25  1  0  0  0  0
 23 24  2  0  0  0  0
 24 21  1  0  0  0  0
 25 24  1  0  0  0  0
 27 26  1  6  0  0  0
 27 25  1  0  0  0  0
 28 27  1  0  0  0  0
 29 30  1  1  0  0  0
 29 28  1  0  0  0  0
 29 31  1  0  0  0  0
M  END
>  <MODEL>
3

>  <REMARK>
 VINA RESULT:      -7.2      3.412      6.123
  Name = 
  8 active torsions:
  status: ('A' for Active; 'I' for Inactive)
    1  A    between atoms: C_1  and  C_24
    2  A    between atoms: C_5  and  N_14
    3  A    between atoms: C_9  and  C_23
    4  A    between atoms: C_10  and  N_14
    5  A    between atoms: C_10  and  C_18
    6  A    between atoms: N_15  and  C_23
    7  A    between atoms: C_19  and  N_22
    8  A    between atoms: C_19  and  C_24
                            x       y       z     vdW  Elec       q    Type
                         _______ _______ _______ _____ _____    ______ ____

>  <TORSDO>
F 8

$$$$
=
 OpenBabel11052413153D

 31 33  0  0  1  0  0  0  0  0999 V2000
  189.4700  177.5350  145.3100 C   0  0  0  0  0  0  0  0  0  0  0  0
  188.3960  177.4490  141.6630 C   0  0  2  0  0  3  0  0  0  0  0  0
  187.2960  178.4610  141.5150 C   0  0  1  0  0  3  0  0  0  0  0  0
  189.2230  177.4230  142.9050 C   0  0  0  0  0  0  0  0  0  0  0  0
  190.7900  177.0850  145.1970 C   0  0  0  0  0  3  0  0  0  0  0  0
  190.1900  176.6980  140.3040 N   0  0  0  0  0  0  0  0  0  0  0  0
  188.8000  177.8880  146.8870 Cl  0  0  0  0  0  0  0  0  0  0  0  0
  188.2120  178.0690  139.4710 C   0  0  2  0  0  3  0  0  0  0  0  0
  191.1600  176.6760  141.4220 C   0  0  0  0  0  2  0  0  0  0  0  0
  189.2670  177.8160  140.5270 C   0  0  1  0  0  3  0  0  0  0  0  0
  188.6810  177.6920  144.1660 C   0  0  0  0  0  3  0  0  0  0  0  0
  190.5440  176.9360  142.7900 C   0  0  0  0  0  0  0  0  0  0  0  0
  191.3270  176.7890  143.9400 C   0  0  0  0  0  3  0  0  0  0  0  0
  188.7260  179.0520  138.4370 C   0  0  0  0  0  1  0  0  0  0  0  0
  187.0860  178.6260  140.1250 O   0  0  0  0  0  0  0  0  0  0  0  0
  186.0810  177.9630  142.1410 N   0  0  0  0  0  2  0  0  0  0  0  0
  185.3140  179.1170  142.5810 C   0  0  0  0  0  2  0  0  0  0  0  0
  184.6760  178.8340  143.8970 C   0  0  0  0  0  0  0  0  0  0  0  0
  183.2960  178.7030  143.9860 O   0  0  0  0  0  0  0  0  0  0  0  0
  185.3880  178.6790  144.9230 O   0  0  0  0  0  1  0  0  0  0  0  0
  190.9670  176.9570  139.0970 C   0  0  0  0  0  2  0  0  0  0  0  0
  193.7270  176.2760  138.3040 C   0  0  0  0  0  1  0  0  0  0  0  0
  190.3610  174.8460  138.2020 O   0  0  0  0  0  0  0  0  0  0  0  0
  191.2920  175.6680  138.4140 C   0  0  0  0  0  0  0  0  0  0  0  0
  192.6300  175.3860  137.9580 N   0  0  0  0  0  0  0  0  0  0  0  0
  192.3920  174.4220  135.7130 C   0  0  0  0  0  1  0  0  0  0  0  0
  192.9480  174.2340  137.1140 C   0  0  1  0  0  3  0  0  0  0  0  0
  194.4500  173.9730  137.0570 C   0  0  0  0  0  2  0  0  0  0  0  0
  194.8280  172.7400  137.8630 C   0  0  1  0  0  3  0  0  0  0  0  0
  195.7450  171.8660  137.0350 C   0  0  0  0  0  1  0  0  0  0  0  0
  195.4880  173.1170  139.0330 O   0  0  0  0  0  1  0  0  0  0  0  0
  1  7  1  0  0  0  0
  2  4  1  1  0  0  0
  3  2  1  0  0  0  0
  3 16  1  1  0  0  0
  4 11  1  0  0  0  0
  5  1  1  0  0  0  0
  6  9  1  0  0  0  0
  8 14  1  6  0  0  0
  8 15  1  0  0  0  0
  8 10  1  0  0  0  0
  9 12  1  0  0  0  0
 10  6  1  6  0  0  0
 10  2  1  0  0  0  0
 11  1  2  0  0  0  0
 12  4  2  0  0  0  0
 12 13  1  0  0  0  0
 13  5  2  0  0  0  0
 15  3  1  0  0  0  0
 16 17  1  0  0  0  0
 17 18  1  0  0  0  0
 18 19  2  0  0  0  0
 18 20  1  0  0  0  0
 21  6  1  0  0  0  0
 23 24  2  0  0  0  0
 24 21  1  0  0  0  0
 25 22  1  0  0  0  0
 25 24  1  0  0  0  0
 27 26  1  6  0  0  0
 27 25  1  0  0  0  0
 28 27  1  0  0  0  0
 28 29  1  0  0  0  0
 29 30  1  6  0  0  0
 29 31  1  0  0  0  0
M  END
>  <MODEL>
4

>  <REMARK>
 VINA RESULT:      -7.1      3.892      8.304
  Name = 
  8 active torsions:
  status: ('A' for Active; 'I' for Inactive)
    1  A    between atoms: C_1  and  C_24
    2  A    between atoms: C_5  and  N_14
    3  A    between atoms: C_9  and  C_23
    4  A    between atoms: C_10  and  N_14
    5  A    between atoms: C_10  and  C_18
    6  A    between atoms: N_15  and  C_23
    7  A    between atoms: C_19  and  N_22
    8  A    between atoms: C_19  and  C_24
                            x       y       z     vdW  Elec       q    Type
                         _______ _______ _______ _____ _____    ______ ____

>  <TORSDO>
F 8

$$$$
=
 OpenBabel11052413153D

 31 33  0  0  1  0  0  0  0  0999 V2000
  186.0210  178.1010  144.8180 C   0  0  0  0  0  0  0  0  0  0  0  0
  185.9010  178.8870  141.1000 C   0  0  2  0  0  3  0  0  0  0  0  0
  187.0390  178.1400  140.4660 C   0  0  1  0  0  3  0  0  0  0  0  0
  185.4990  178.5830  142.5040 C   0  0  0  0  0  0  0  0  0  0  0  0
  184.6780  178.2950  145.1620 C   0  0  0  0  0  3  0  0  0  0  0  0
  183.6870  179.4500  140.4580 N   0  0  0  0  0  0  0  0  0  0  0  0
  187.1850  177.6750  146.0520 Cl  0  0  0  0  0  0  0  0  0  0  0  0
  185.4930  178.6180  138.8670 C   0  0  2  0  0  3  0  0  0  0  0  0
  183.1140  179.1300  141.7850 C   0  0  0  0  0  2  0  0  0  0  0  0
  184.7870  178.5140  140.2020 C   0  0  1  0  0  3  0  0  0  0  0  0
  186.4350  178.2570  143.4920 C   0  0  0  0  0  3  0  0  0  0  0  0
  184.1500  178.8130  142.8540 C   0  0  0  0  0  0  0  0  0  0  0  0
  183.7450  178.6480  144.1820 C   0  0  0  0  0  3  0  0  0  0  0  0
  184.8370  177.7020  137.8510 C   0  0  0  0  0  1  0  0  0  0  0  0
  186.8350  178.2080  139.0660 O   0  0  0  0  0  0  0  0  0  0  0  0
  188.3000  178.7770  140.8110 N   0  0  0  0  0  2  0  0  0  0  0  0
  189.3170  177.7380  140.8450 C   0  0  0  0  0  2  0  0  0  0  0  0
  189.6450  177.3910  142.2560 C   0  0  0  0  0  0  0  0  0  0  0  0
  189.3900  176.1120  142.7340 O   0  0  0  0  0  0  0  0  0  0  0  0
  190.1830  178.2450  143.0070 O   0  0  0  0  0  1  0  0  0  0  0  0
  182.6250  179.2090  139.4880 C   0  0  0  0  0  2  0  0  0  0  0  0
  180.1220  179.5890  137.9700 C   0  0  0  0  0  1  0  0  0  0  0  0
  183.2360  181.3640  138.7060 O   0  0  0  0  0  0  0  0  0  0  0  0
  182.3680  180.4500  138.6960 C   0  0  0  0  0  0  0  0  0  0  0  0
  181.1780  180.5850  137.8930 N   0  0  0  0  0  0  0  0  0  0  0  0
  179.9560  181.3240  135.8950 C   0  0  0  0  0  1  0  0  0  0  0  0
  180.9830  181.6900  136.9530 C   0  0  1  0  0  3  0  0  0  0  0  0
  180.5720  182.9740  137.6670 C   0  0  0  0  0  2  0  0  0  0  0  0
  181.1280  184.2010  136.9610 C   0  0  1  0  0  3  0  0  0  0  0  0
  180.1110  185.3200  137.0340 C   0  0  0  0  0  1  0  0  0  0  0  0
  182.3080  184.6140  137.5800 O   0  0  0  0  0  1  0  0  0  0  0  0
  1  5  1  0  0  0  0
  1  7  1  0  0  0  0
  2  4  1  1  0  0  0
  3 16  1  6  0  0  0
  3  2  1  0  0  0  0
  4 12  2  0  0  0  0
  4 11  1  0  0  0  0
  6  9  1  0  0  0  0
  8 14  1  6  0  0  0
  8 15  1  0  0  0  0
  8 10  1  0  0  0  0
  9 12  1  0  0  0  0
 10  6  1  6  0  0  0
 10  2  1  0  0  0  0
 11  1  2  0  0  0  0
 12 13  1  0  0  0  0
 13  5  2  0  0  0  0
 15  3  1  0  0  0  0
 16 17  1  0  0  0  0
 17 18  1  0  0  0  0
 18 19  2  0  0  0  0
 18 20  1  0  0  0  0
 21  6  1  0  0  0  0
 24 23  2  0  0  0  0
 24 21  1  0  0  0  0
 25 22  1  0  0  0  0
 25 24  1  0  0  0  0
 27 26  1  6  0  0  0
 27 28  1  0  0  0  0
 27 25  1  0  0  0  0
 29 30  1  1  0  0  0
 29 31  1  0  0  0  0
 29 28  1  0  0  0  0
M  END
>  <MODEL>
5

>  <REMARK>
 VINA RESULT:      -7.1      2.493      3.336
  Name = 
  8 active torsions:
  status: ('A' for Active; 'I' for Inactive)
    1  A    between atoms: C_1  and  C_24
    2  A    between atoms: C_5  and  N_14
    3  A    between atoms: C_9  and  C_23
    4  A    between atoms: C_10  and  N_14
    5  A    between atoms: C_10  and  C_18
    6  A    between atoms: N_15  and  C_23
    7  A    between atoms: C_19  and  N_22
    8  A    between atoms: C_19  and  C_24
                            x       y       z     vdW  Elec       q    Type
                         _______ _______ _______ _____ _____    ______ ____

>  <TORSDO>
F 8

$$$$
=
 OpenBabel11052413153D

 31 33  0  0  1  0  0  0  0  0999 V2000
  186.3290  177.8580  144.4620 C   0  0  0  0  0  0  0  0  0  0  0  0
  189.1420  177.9310  141.9040 C   0  0  2  0  0  3  0  0  0  0  0  0
  190.1880  176.9690  142.3880 C   0  0  1  0  0  3  0  0  0  0  0  0
  187.7890  177.9410  142.5330 C   0  0  0  0  0  0  0  0  0  0  0  0
  185.2480  178.2440  143.6620 C   0  0  0  0  0  3  0  0  0  0  0  0
  188.2960  178.5760  139.7820 N   0  0  0  0  0  0  0  0  0  0  0  0
  186.0910  177.5620  146.1700 Cl  0  0  0  0  0  0  0  0  0  0  0  0
  190.4590  177.2840  140.1510 C   0  0  2  0  0  3  0  0  0  0  0  0
  186.8850  178.5720  140.2320 C   0  0  0  0  0  2  0  0  0  0  0  0
  189.0010  177.5050  140.4950 C   0  0  1  0  0  3  0  0  0  0  0  0
  187.6030  177.7180  143.9020 C   0  0  0  0  0  3  0  0  0  0  0  0
  186.7070  178.3640  141.7300 C   0  0  0  0  0  0  0  0  0  0  0  0
  185.4360  178.4940  142.2990 C   0  0  0  0  0  3  0  0  0  0  0  0
  190.5890  176.2610  139.0400 C   0  0  0  0  0  1  0  0  0  0  0  0
  191.0970  176.7910  141.3160 O   0  0  0  0  0  0  0  0  0  0  0  0
  190.8840  177.5330  143.5340 N   0  0  0  0  0  2  0  0  0  0  0  0
  191.2900  176.4260  144.3840 C   0  0  0  0  0  2  0  0  0  0  0  0
  191.0170  176.7530  145.8120 C   0  0  0  0  0  0  0  0  0  0  0  0
  192.0560  176.7540  146.7340 O   0  0  0  0  0  1  0  0  0  0  0  0
  189.8530  177.0600  146.1770 O   0  0  0  0  0  0  0  0  0  0  0  0
  188.2690  178.2610  138.3590 C   0  0  0  0  0  2  0  0  0  0  0  0
  187.3480  175.6590  137.3130 C   0  0  0  0  0  1  0  0  0  0  0  0
  186.0430  179.0040  138.0130 O   0  0  0  0  0  0  0  0  0  0  0  0
  186.8590  178.0490  137.9110 C   0  0  0  0  0  0  0  0  0  0  0  0
  186.4450  176.7980  137.3250 N   0  0  0  0  0  0  0  0  0  0  0  0
  185.2760  175.9200  135.3520 C   0  0  0  0  0  1  0  0  0  0  0  0
  185.1370  176.6180  136.6940 C   0  0  1  0  0  3  0  0  0  0  0  0
  184.1780  175.8470  137.5950 C   0  0  0  0  0  2  0  0  0  0  0  0
  183.0170  176.7210  138.0430 C   0  0  1  0  0  3  0  0  0  0  0  0
  183.2550  177.1720  139.4680 C   0  0  0  0  0  1  0  0  0  0  0  0
  182.9170  177.8430  137.2190 O   0  0  0  0  0  1  0  0  0  0  0  0
  1  7  1  0  0  0  0
  2  3  1  0  0  0  0
  2  4  1  1  0  0  0
  3 16  1  1  0  0  0
  4 11  2  0  0  0  0
  5  1  2  0  0  0  0
  6  9  1  0  0  0  0
  8 14  1  6  0  0  0
  8 10  1  0  0  0  0
  8 15  1  0  0  0  0
  9 12  1  0  0  0  0
 10  6  1  6  0  0  0
 10  2  1  0  0  0  0
 11  1  1  0  0  0  0
 12 13  2  0  0  0  0
 12  4  1  0  0  0  0
 13  5  1  0  0  0  0
 15  3  1  0  0  0  0
 16 17  1  0  0  0  0
 17 18  1  0  0  0  0
 18 20  2  0  0  0  0
 18 19  1  0  0  0  0
 21  6  1  0  0  0  0
 22 25  1  0  0  0  0
 24 23  2  0  0  0  0
 24 21  1  0  0  0  0
 25 24  1  0  0  0  0
 27 26  1  6  0  0  0
 27 25  1  0  0  0  0
 27 28  1  0  0  0  0
 28 29  1  0  0  0  0
 29 30  1  1  0  0  0
 31 29  1  0  0  0  0
M  END
>  <MODEL>
6

>  <REMARK>
 VINA RESULT:      -7.0      2.137      2.852
  Name = 
  8 active torsions:
  status: ('A' for Active; 'I' for Inactive)
    1  A    between atoms: C_1  and  C_24
    2  A    between atoms: C_5  and  N_14
    3  A    between atoms: C_9  and  C_23
    4  A    between atoms: C_10  and  N_14
    5  A    between atoms: C_10  and  C_18
    6  A    between atoms: N_15  and  C_23
    7  A    between atoms: C_19  and  N_22
    8  A    between atoms: C_19  and  C_24
                            x       y       z     vdW  Elec       q    Type
                         _______ _______ _______ _____ _____    ______ ____

>  <TORSDO>
F 8

$$$$
=
 OpenBabel11052413153D

 31 33  0  0  1  0  0  0  0  0999 V2000
  187.2420  177.7460  136.4730 C   0  0  0  0  0  0  0  0  0  0  0  0
  190.4030  176.3920  138.0970 C   0  0  2  0  0  3  0  0  0  0  0  0
  191.4680  176.4050  137.0390 C   0  0  1  0  0  3  0  0  0  0  0  0
  189.1160  177.1120  137.8680 C   0  0  0  0  0  0  0  0  0  0  0  0
  186.5760  178.2510  137.5950 C   0  0  0  0  0  3  0  0  0  0  0  0
  190.3450  176.7800  140.4370 N   0  0  0  0  0  0  0  0  0  0  0  0
  186.4850  177.8290  134.8980 Cl  0  0  0  0  0  0  0  0  0  0  0  0
  192.4640  176.3770  139.0840 C   0  0  2  0  0  3  0  0  0  0  0  0
  189.0980  177.5750  140.3760 C   0  0  0  0  0  2  0  0  0  0  0  0
  191.1130  177.0470  139.2160 C   0  0  1  0  0  3  0  0  0  0  0  0
  188.5060  177.1650  136.6090 C   0  0  0  0  0  3  0  0  0  0  0  0
  188.4320  177.5900  139.0070 C   0  0  0  0  0  0  0  0  0  0  0  0
  187.1700  178.1760  138.8590 C   0  0  0  0  0  3  0  0  0  0  0  0
  193.5530  177.2740  139.6410 C   0  0  0  0  0  1  0  0  0  0  0  0
  192.6960  176.1660  137.7020 O   0  0  0  0  0  0  0  0  0  0  0  0
  191.2170  175.3470  136.0730 N   0  0  0  0  0  2  0  0  0  0  0  0
  191.0620  174.1070  136.8160 C   0  0  0  0  0  2  0  0  0  0  0  0
  189.8810  173.3530  136.3090 C   0  0  0  0  0  0  0  0  0  0  0  0
  188.7090  173.3180  137.0530 O   0  0  0  0  0  1  0  0  0  0  0  0
  189.9340  172.7750  135.1930 O   0  0  0  0  0  0  0  0  0  0  0  0
  191.0910  177.2810  141.5850 C   0  0  0  0  0  2  0  0  0  0  0  0
  190.7850  178.9960  143.9680 C   0  0  0  0  0  1  0  0  0  0  0  0
  190.0700  175.5760  142.8810 O   0  0  0  0  0  0  0  0  0  0  0  0
  190.4840  176.7660  142.8510 C   0  0  0  0  0  0  0  0  0  0  0  0
  190.4180  177.5900  144.0320 N   0  0  0  0  0  0  0  0  0  0  0  0
  191.2360  176.7520  146.1890 C   0  0  0  0  0  1  0  0  0  0  0  0
  190.0180  177.0650  145.3380 C   0  0  1  0  0  3  0  0  0  0  0  0
  189.0910  178.0260  146.0740 C   0  0  0  0  0  2  0  0  0  0  0  0
  188.1310  177.2790  146.9870 C   0  0  1  0  0  3  0  0  0  0  0  0
  188.3070  177.7750  148.4060 C   0  0  0  0  0  1  0  0  0  0  0  0
  186.8140  177.5040  146.5830 O   0  0  0  0  0  1  0  0  0  0  0  0
  1 11  2  0  0  0  0
  1  5  1  0  0  0  0
  2  4  1  6  0  0  0
  2 10  1  0  0  0  0
  3 16  1  6  0  0  0
  3 15  1  0  0  0  0
  3  2  1  0  0  0  0
  4 12  2  0  0  0  0
  5 13  2  0  0  0  0
  6 21  1  0  0  0  0
  7  1  1  0  0  0  0
  8 10  1  0  0  0  0
  8 14  1  6  0  0  0
  9  6  1  0  0  0  0
 10  6  1  1  0  0  0
 11  4  1  0  0  0  0
 12  9  1  0  0  0  0
 13 12  1  0  0  0  0
 15  8  1  0  0  0  0
 16 17  1  0  0  0  0
 18 17  1  0  0  0  0
 18 19  1  0  0  0  0
 20 18  2  0  0  0  0
 21 24  1  0  0  0  0
 22 25  1  0  0  0  0
 24 23  2  0  0  0  0
 24 25  1  0  0  0  0
 25 27  1  0  0  0  0
 27 28  1  0  0  0  0
 27 26  1  1  0  0  0
 28 29  1  0  0  0  0
 29 30  1  1  0  0  0
 31 29  1  0  0  0  0
M  END
>  <MODEL>
7

>  <REMARK>
 VINA RESULT:      -6.8      4.794      7.962
  Name = 
  8 active torsions:
  status: ('A' for Active; 'I' for Inactive)
    1  A    between atoms: C_1  and  C_24
    2  A    between atoms: C_5  and  N_14
    3  A    between atoms: C_9  and  C_23
    4  A    between atoms: C_10  and  N_14
    5  A    between atoms: C_10  and  C_18
    6  A    between atoms: N_15  and  C_23
    7  A    between atoms: C_19  and  N_22
    8  A    between atoms: C_19  and  C_24
                            x       y       z     vdW  Elec       q    Type
                         _______ _______ _______ _____ _____    ______ ____

>  <TORSDO>
F 8

$$$$
=
 OpenBabel11052413153D

 31 33  0  0  1  0  0  0  0  0999 V2000
  190.8660  177.0100  145.5330 C   0  0  0  0  0  0  0  0  0  0  0  0
  187.7200  177.3070  143.4180 C   0  0  2  0  0  3  0  0  0  0  0  0
  186.6640  177.9090  144.3000 C   0  0  1  0  0  3  0  0  0  0  0  0
  189.1460  177.3060  143.8550 C   0  0  0  0  0  0  0  0  0  0  0  0
  191.8470  177.0510  144.5360 C   0  0  0  0  0  3  0  0  0  0  0  0
  188.2950  177.4740  141.1220 N   0  0  0  0  0  0  0  0  0  0  0  0
  191.3300  176.8010  147.2060 Cl  0  0  0  0  0  0  0  0  0  0  0  0
  186.0900  178.2570  142.1270 C   0  0  2  0  0  3  0  0  0  0  0  0
  189.7490  177.5490  141.3880 C   0  0  0  0  0  2  0  0  0  0  0  0
  187.5980  178.1590  142.2160 C   0  0  1  0  0  3  0  0  0  0  0  0
  189.5150  177.1250  145.1930 C   0  0  0  0  0  3  0  0  0  0  0  0
  190.1310  177.3140  142.8440 C   0  0  0  0  0  0  0  0  0  0  0  0
  191.4810  177.2050  143.1950 C   0  0  0  0  0  3  0  0  0  0  0  0
  185.6850  179.5400  141.4270 C   0  0  0  0  0  1  0  0  0  0  0  0
  185.5890  178.2710  143.4520 O   0  0  0  0  0  0  0  0  0  0  0  0
  186.2140  176.9260  145.2730 N   0  0  0  0  0  2  0  0  0  0  0  0
  186.4160  177.4970  146.5940 C   0  0  0  0  0  2  0  0  0  0  0  0
  185.4120  178.5690  146.8460 C   0  0  0  0  0  0  0  0  0  0  0  0
  185.8190  179.7950  147.3550 O   0  0  0  0  0  1  0  0  0  0  0  0
  184.2010  178.3770  146.5650 O   0  0  0  0  0  0  0  0  0  0  0  0
  188.0710  178.2100  139.8830 C   0  0  0  0  0  2  0  0  0  0  0  0
  185.8770  177.9690  137.9240 C   0  0  0  0  0  1  0  0  0  0  0  0
  189.2140  176.6080  138.5570 O   0  0  0  0  0  0  0  0  0  0  0  0
  188.1590  177.2800  138.7160 C   0  0  0  0  0  0  0  0  0  0  0  0
  187.0460  177.1120  137.8150 N   0  0  0  0  0  0  0  0  0  0  0  0
  187.8820  176.4660  135.5980 C   0  0  0  0  0  1  0  0  0  0  0  0
  187.0170  176.0730  136.7840 C   0  0  1  0  0  3  0  0  0  0  0  0
  187.4570  174.7200  137.3340 C   0  0  0  0  0  2  0  0  0  0  0  0
  186.5130  173.6120  136.8940 C   0  0  1  0  0  3  0  0  0  0  0  0
  187.3250  172.4300  136.4080 C   0  0  0  0  0  1  0  0  0  0  0  0
  185.7150  173.2100  137.9660 O   0  0  0  0  0  1  0  0  0  0  0  0
  1  7  1  0  0  0  0
  2  4  1  1  0  0  0
  2  3  1  0  0  0  0
  3 16  1  1  0  0  0
  4 11  2  0  0  0  0
  5  1  2  0  0  0  0
  6  9  1  0  0  0  0
  8 14  1  1  0  0  0
  8 10  1  0  0  0  0
  8 15  1  0  0  0  0
  9 12  1  0  0  0  0
 10  6  1  6  0  0  0
 10  2  1  0  0  0  0
 11  1  1  0  0  0  0
 12 13  2  0  0  0  0
 12  4  1  0  0  0  0
 13  5  1  0  0  0  0
 15  3  1  0  0  0  0
 16 17  1  0  0  0  0
 17 18  1  0  0  0  0
 18 19  1  0  0  0  0
 20 18  2  0  0  0  0
 21  6  1  0  0  0  0
 23 24  2  0  0  0  0
 24 21  1  0  0  0  0
 25 22  1  0  0  0  0
 25 24  1  0  0  0  0
 27 26  1  6  0  0  0
 27 28  1  0  0  0  0
 27 25  1  0  0  0  0
 29 30  1  1  0  0  0
 29 28  1  0  0  0  0
 29 31  1  0  0  0  0
M  END
>  <MODEL>
8

>  <REMARK>
 VINA RESULT:      -6.6      3.321      5.744
  Name = 
  8 active torsions:
  status: ('A' for Active; 'I' for Inactive)
    1  A    between atoms: C_1  and  C_24
    2  A    between atoms: C_5  and  N_14
    3  A    between atoms: C_9  and  C_23
    4  A    between atoms: C_10  and  N_14
    5  A    between atoms: C_10  and  C_18
    6  A    between atoms: N_15  and  C_23
    7  A    between atoms: C_19  and  N_22
    8  A    between atoms: C_19  and  C_24
                            x       y       z     vdW  Elec       q    Type
                         _______ _______ _______ _____ _____    ______ ____

>  <TORSDO>
F 8

$$$$
=
 OpenBabel11052413153D

 31 33  0  0  1  0  0  0  0  0999 V2000
  188.8730  177.5030  145.8440 C   0  0  0  0  0  0  0  0  0  0  0  0
  188.3080  177.4170  142.0840 C   0  0  2  0  0  3  0  0  0  0  0  0
  187.2160  178.4050  141.7910 C   0  0  1  0  0  3  0  0  0  0  0  0
  188.9580  177.4010  143.4270 C   0  0  0  0  0  0  0  0  0  0  0  0
  190.2060  177.0830  145.9100 C   0  0  0  0  0  3  0  0  0  0  0  0
  190.2870  176.7130  140.9800 N   0  0  0  0  0  0  0  0  0  0  0  0
  187.9870  177.8330  147.3150 Cl  0  0  0  0  0  0  0  0  0  0  0  0
  188.4110  178.0460  139.8890 C   0  0  2  0  0  3  0  0  0  0  0  0
  191.0960  176.7050  142.2200 C   0  0  0  0  0  2  0  0  0  0  0  0
  189.3170  177.8100  141.0780 C   0  0  1  0  0  3  0  0  0  0  0  0
  188.2440  177.6510  144.6040 C   0  0  0  0  0  3  0  0  0  0  0  0
  190.2930  176.9440  143.4910 C   0  0  0  0  0  0  0  0  0  0  0  0
  190.9150  176.8060  144.7370 C   0  0  0  0  0  3  0  0  0  0  0  0
  189.0390  179.0460  138.9380 C   0  0  0  0  0  1  0  0  0  0  0  0
  187.1940  178.5740  140.3850 O   0  0  0  0  0  0  0  0  0  0  0  0
  185.9380  177.8770  142.2430 N   0  0  0  0  0  2  0  0  0  0  0  0
  184.9110  178.8300  141.8530 C   0  0  0  0  0  2  0  0  0  0  0  0
  183.9830  179.0740  142.9920 C   0  0  0  0  0  0  0  0  0  0  0  0
  182.6120  178.9400  142.8110 O   0  0  0  0  0  0  0  0  0  0  0  0
  184.4400  179.3670  144.1270 O   0  0  0  0  0  1  0  0  0  0  0  0
  191.2150  176.9960  139.8910 C   0  0  0  0  0  2  0  0  0  0  0  0
  193.1960  176.5200  137.7560 C   0  0  0  0  0  1  0  0  0  0  0  0
  189.7900  175.5460  138.6700 O   0  0  0  0  0  0  0  0  0  0  0  0
  190.9120  176.1170  138.7210 C   0  0  0  0  0  0  0  0  0  0  0  0
  191.8580  175.9600  137.6450 N   0  0  0  0  0  0  0  0  0  0  0  0
  192.5410  175.5970  135.3150 C   0  0  0  0  0  1  0  0  0  0  0  0
  191.5250  175.2730  136.3970 C   0  0  1  0  0  3  0  0  0  0  0  0
  191.4240  173.7640  136.5920 C   0  0  0  0  0  2  0  0  0  0  0  0
  190.2350  173.1870  135.8390 C   0  0  1  0  0  3  0  0  0  0  0  0
  189.0730  173.0230  136.7960 C   0  0  0  0  0  1  0  0  0  0  0  0
  189.8590  174.0480  134.8070 O   0  0  0  0  0  1  0  0  0  0  0  0
  1  5  1  0  0  0  0
  1  7  1  0  0  0  0
  2  4  1  1  0  0  0
  3  2  1  0  0  0  0
  3 16  1  6  0  0  0
  4 12  2  0  0  0  0
  4 11  1  0  0  0  0
  6  9  1  0  0  0  0
  8 14  1  6  0  0  0
  8 15  1  0  0  0  0
  8 10  1  0  0  0  0
  9 12  1  0  0  0  0
 10  6  1  6  0  0  0
 10  2  1  0  0  0  0
 11  1  2  0  0  0  0
 12 13  1  0  0  0  0
 13  5  2  0  0  0  0
 15  3  1  0  0  0  0
 17 16  1  0  0  0  0
 17 18  1  0  0  0  0
 18 20  1  0  0  0  0
 19 18  2  0  0  0  0
 21  6  1  0  0  0  0
 23 24  2  0  0  0  0
 24 21  1  0  0  0  0
 25 22  1  0  0  0  0
 25 24  1  0  0  0  0
 27 26  1  6  0  0  0
 27 28  1  0  0  0  0
 27 25  1  0  0  0  0
 29 28  1  0  0  0  0
 29 30  1  1  0  0  0
 31 29  1  0  0  0  0
M  END
>  <MODEL>
9

>  <REMARK>
 VINA RESULT:      -6.6      3.179      7.247
  Name = 
  8 active torsions:
  status: ('A' for Active; 'I' for Inactive)
    1  A    between atoms: C_1  and  C_24
    2  A    between atoms: C_5  and  N_14
    3  A    between atoms: C_9  and  C_23
    4  A    between atoms: C_10  and  N_14
    5  A    between atoms: C_10  and  C_18
    6  A    between atoms: N_15  and  C_23
    7  A    between atoms: C_19  and  N_22
    8  A    between atoms: C_19  and  C_24
                            x       y       z     vdW  Elec       q    Type
                         _______ _______ _______ _____ _____    ______ ____

>  <TORSDO>
F 8

$$$$
