=
 OpenBabel11052412463D

 25 28  0  0  0  0  0  0  0  0999 V2000
  187.1730  177.9650  145.7900 C   0  0  0  0  0  0  0  0  0  0  0  0
  188.4940  177.5150  145.6600 C   0  0  0  0  0  0  0  0  0  0  0  0
  187.5030  178.2570  148.1920 C   0  0  0  0  0  3  0  0  0  0  0  0
  186.1680  178.1640  144.9520 C   0  0  0  0  0  0  0  0  0  0  0  0
  183.7670  178.7670  143.6950 C   0  0  0  0  0  3  0  0  0  0  0  0
  188.8350  177.8030  148.0600 C   0  0  0  0  0  3  0  0  0  0  0  0
  185.0920  178.6390  145.6930 C   0  0  0  0  0  0  0  0  0  0  0  0
  183.8770  178.9470  145.0850 C   0  0  0  0  0  3  0  0  0  0  0  0
  190.5400  176.7360  145.1610 N   0  0  0  0  0  0  0  0  0  0  0  0
  190.5690  176.9490  146.4170 N   0  0  0  0  0  0  0  0  0  0  0  0
  184.8600  178.2890  142.9440 C   0  0  0  0  0  3  0  0  0  0  0  0
  186.7010  178.3250  147.0390 C   0  0  0  0  0  0  0  0  0  0  0  0
  185.3460  178.7590  146.9600 N   0  0  0  0  0  0  0  0  0  0  0  0
  189.2470  177.0870  144.6530 C   0  0  0  0  0  0  0  0  0  0  0  0
  186.0790  177.9830  143.5720 C   0  0  0  0  0  3  0  0  0  0  0  0
  189.2900  177.4450  146.7800 C   0  0  0  0  0  0  0  0  0  0  0  0
  188.8440  176.8910  143.2300 C   0  0  0  0  0  2  0  0  0  0  0  0
  189.9820  176.2810  142.4230 C   0  0  0  0  0  2  0  0  0  0  0  0
  190.3900  177.1800  141.2630 C   0  0  0  0  0  2  0  0  0  0  0  0
  189.5770  176.8810  140.0100 C   0  0  0  0  0  2  0  0  0  0  0  0
  189.2880  178.4920  138.0620 N   0  0  0  0  0  0  0  0  0  0  0  0
  188.7880  179.6640  137.5440 O   0  0  0  0  0  0  0  0  0  0  0  0
  189.9660  177.7400  137.3330 O   0  0  0  0  0  0  0  0  0  0  0  0
  189.0180  178.1380  139.4220 C   0  0  0  0  0  0  0  0  0  0  0  0
  188.3190  178.8970  140.1430 O   0  0  0  0  0  0  0  0  0  0  0  0
  1 12  1  0  0  0  0
  2  1  1  0  0  0  0
  2 16  1  0  0  0  0
  4  7  1  0  0  0  0
  4  1  2  0  0  0  0
  5  8  2  0  0  0  0
  6  3  1  0  0  0  0
  7 13  2  0  0  0  0
  8  7  1  0  0  0  0
  9 10  2  0  0  0  0
 10 16  1  0  0  0  0
 11 15  2  0  0  0  0
 11  5  1  0  0  0  0
 12  3  2  0  0  0  0
 13 12  1  0  0  0  0
 14  9  1  0  0  0  0
 14  2  2  0  0  0  0
 15  4  1  0  0  0  0
 16  6  2  0  0  0  0
 17 14  1  0  0  0  0
 18 17  1  0  0  0  0
 19 18  1  0  0  0  0
 20 19  1  0  0  0  0
 21 24  1  0  0  0  0
 22 21  2  0  0  0  0
 23 21  2  0  0  0  0
 24 20  1  0  0  0  0
 24 25  2  0  0  0  0
M  END
>  <MODEL>
1

>  <REMARK>
 VINA RESULT:     -10.2      0.000      0.000
  Name = 
  5 active torsions:
  status: ('A' for Active; 'I' for Inactive)
    1  A    between atoms: C_6  and  C_15
    2  A    between atoms: C_6  and  C_23
    3  A    between atoms: C_15  and  C_21
    4  A    between atoms: C_16  and  C_20
    5  A    between atoms: C_16  and  C_23
                            x       y       z     vdW  Elec       q    Type
                         _______ _______ _______ _____ _____    ______ ____

>  <TORSDO>
F 5

$$$$
=
 OpenBabel11052412463D

 25 28  0  0  0  0  0  0  0  0999 V2000
  187.1810  177.9470  145.8960 C   0  0  0  0  0  0  0  0  0  0  0  0
  188.4920  177.4660  145.7950 C   0  0  0  0  0  0  0  0  0  0  0  0
  187.5030  178.3420  148.2840 C   0  0  0  0  0  3  0  0  0  0  0  0
  186.1840  178.1270  145.0430 C   0  0  0  0  0  0  0  0  0  0  0  0
  183.8020  178.7180  143.7450 C   0  0  0  0  0  3  0  0  0  0  0  0
  188.8270  177.8570  148.1810 C   0  0  0  0  0  3  0  0  0  0  0  0
  185.1140  178.6560  145.7550 C   0  0  0  0  0  0  0  0  0  0  0  0
  183.9080  178.9600  145.1260 C   0  0  0  0  0  3  0  0  0  0  0  0
  190.5260  176.6250  145.3450 N   0  0  0  0  0  0  0  0  0  0  0  0
  190.5520  176.8960  146.5900 N   0  0  0  0  0  0  0  0  0  0  0  0
  184.8900  178.1860  143.0240 C   0  0  0  0  0  3  0  0  0  0  0  0
  186.7090  178.3740  147.1240 C   0  0  0  0  0  0  0  0  0  0  0  0
  185.3620  178.8300  147.0170 N   0  0  0  0  0  0  0  0  0  0  0  0
  189.2430  176.9780  144.8130 C   0  0  0  0  0  0  0  0  0  0  0  0
  186.0990  177.8850  143.6720 C   0  0  0  0  0  3  0  0  0  0  0  0
  189.2810  177.4320  146.9220 C   0  0  0  0  0  0  0  0  0  0  0  0
  188.8430  176.7250  143.3980 C   0  0  0  0  0  2  0  0  0  0  0  0
  190.0170  176.1830  142.5930 C   0  0  0  0  0  2  0  0  0  0  0  0
  190.1590  176.9040  141.2580 C   0  0  0  0  0  2  0  0  0  0  0  0
  188.9740  177.8220  140.9880 C   0  0  0  0  0  2  0  0  0  0  0  0
  187.5280  178.4300  138.9840 N   0  0  0  0  0  0  0  0  0  0  0  0
  187.3800  178.6170  137.6300 O   0  0  0  0  0  0  0  0  0  0  0  0
  186.5480  178.6010  139.7380 O   0  0  0  0  0  0  0  0  0  0  0  0
  188.8010  178.0560  139.5210 C   0  0  0  0  0  0  0  0  0  0  0  0
  189.7870  177.9020  138.7530 O   0  0  0  0  0  0  0  0  0  0  0  0
  1 12  1  0  0  0  0
  2  1  1  0  0  0  0
  2 16  1  0  0  0  0
  4  7  1  0  0  0  0
  4  1  2  0  0  0  0
  5  8  2  0  0  0  0
  6  3  1  0  0  0  0
  7 13  2  0  0  0  0
  8  7  1  0  0  0  0
  9 10  2  0  0  0  0
 10 16  1  0  0  0  0
 11 15  2  0  0  0  0
 11  5  1  0  0  0  0
 12  3  2  0  0  0  0
 13 12  1  0  0  0  0
 14  9  1  0  0  0  0
 14  2  2  0  0  0  0
 15  4  1  0  0  0  0
 16  6  2  0  0  0  0
 17 14  1  0  0  0  0
 18 17  1  0  0  0  0
 19 18  1  0  0  0  0
 20 19  1  0  0  0  0
 21 24  1  0  0  0  0
 21 23  2  0  0  0  0
 22 21  2  0  0  0  0
 24 20  1  0  0  0  0
 25 24  2  0  0  0  0
M  END
>  <MODEL>
2

>  <REMARK>
 VINA RESULT:     -10.2      0.782      1.151
  Name = 
  5 active torsions:
  status: ('A' for Active; 'I' for Inactive)
    1  A    between atoms: C_6  and  C_15
    2  A    between atoms: C_6  and  C_23
    3  A    between atoms: C_15  and  C_21
    4  A    between atoms: C_16  and  C_20
    5  A    between atoms: C_16  and  C_23
                            x       y       z     vdW  Elec       q    Type
                         _______ _______ _______ _____ _____    ______ ____

>  <TORSDO>
F 5

$$$$
=
 OpenBabel11052412463D

 25 28  0  0  0  0  0  0  0  0999 V2000
  186.9940  177.9700  145.6460 C   0  0  0  0  0  0  0  0  0  0  0  0
  188.2980  177.5270  145.3930 C   0  0  0  0  0  0  0  0  0  0  0  0
  187.5200  178.1800  148.0210 C   0  0  0  0  0  3  0  0  0  0  0  0
  185.9230  178.1960  144.9010 C   0  0  0  0  0  0  0  0  0  0  0  0
  183.4270  178.8380  143.8670 C   0  0  0  0  0  3  0  0  0  0  0  0
  188.8370  177.7330  147.7640 C   0  0  0  0  0  3  0  0  0  0  0  0
  184.9130  178.6430  145.7440 C   0  0  0  0  0  0  0  0  0  0  0  0
  183.6520  178.9710  145.2490 C   0  0  0  0  0  3  0  0  0  0  0  0
  190.2950  176.7680  144.7000 N   0  0  0  0  0  0  0  0  0  0  0  0
  190.4290  176.9390  145.9560 N   0  0  0  0  0  0  0  0  0  0  0  0
  184.4540  178.3880  143.0140 C   0  0  0  0  0  3  0  0  0  0  0  0
  186.6270  178.2870  146.9410 C   0  0  0  0  0  0  0  0  0  0  0  0
  185.2700  178.7210  146.9890 N   0  0  0  0  0  0  0  0  0  0  0  0
  188.9650  177.1350  144.3130 C   0  0  0  0  0  0  0  0  0  0  0  0
  185.7200  178.0630  143.5270 C   0  0  0  0  0  3  0  0  0  0  0  0
  189.1840  177.4200  146.4400 C   0  0  0  0  0  0  0  0  0  0  0  0
  188.4460  176.9880  142.9220 C   0  0  0  0  0  2  0  0  0  0  0  0
  189.0930  178.0060  141.9920 C   0  0  0  0  0  2  0  0  0  0  0  0
  188.2060  178.3060  140.7890 C   0  0  0  0  0  2  0  0  0  0  0  0
  189.0200  178.4180  139.5070 C   0  0  0  0  0  2  0  0  0  0  0  0
  190.5620  176.4460  139.0510 N   0  0  0  0  0  0  0  0  0  0  0  0
  190.7920  175.2150  138.4830 O   0  0  0  0  0  0  0  0  0  0  0  0
  191.4760  177.0070  139.6890 O   0  0  0  0  0  0  0  0  0  0  0  0
  189.2790  177.0670  138.9190 C   0  0  0  0  0  0  0  0  0  0  0  0
  188.3600  176.4840  138.2860 O   0  0  0  0  0  0  0  0  0  0  0  0
  1 12  1  0  0  0  0
  2  1  1  0  0  0  0
  2 16  1  0  0  0  0
  4  1  2  0  0  0  0
  4  7  1  0  0  0  0
  5  8  2  0  0  0  0
  6  3  1  0  0  0  0
  7 13  2  0  0  0  0
  8  7  1  0  0  0  0
  9 10  2  0  0  0  0
 10 16  1  0  0  0  0
 11 15  2  0  0  0  0
 11  5  1  0  0  0  0
 12 13  1  0  0  0  0
 12  3  2  0  0  0  0
 14  9  1  0  0  0  0
 14  2  2  0  0  0  0
 15  4  1  0  0  0  0
 16  6  2  0  0  0  0
 17 14  1  0  0  0  0
 18 17  1  0  0  0  0
 19 18  1  0  0  0  0
 20 19  1  0  0  0  0
 21 23  2  0  0  0  0
 22 21  2  0  0  0  0
 24 21  1  0  0  0  0
 24 20  1  0  0  0  0
 25 24  2  0  0  0  0
M  END
>  <MODEL>
3

>  <REMARK>
 VINA RESULT:     -10.1      1.287      1.622
  Name = 
  5 active torsions:
  status: ('A' for Active; 'I' for Inactive)
    1  A    between atoms: C_6  and  C_15
    2  A    between atoms: C_6  and  C_23
    3  A    between atoms: C_15  and  C_21
    4  A    between atoms: C_16  and  C_20
    5  A    between atoms: C_16  and  C_23
                            x       y       z     vdW  Elec       q    Type
                         _______ _______ _______ _____ _____    ______ ____

>  <TORSDO>
F 5

$$$$
=
 OpenBabel11052412463D

 25 28  0  0  0  0  0  0  0  0999 V2000
  188.3050  177.5700  145.6600 C   0  0  0  0  0  0  0  0  0  0  0  0
  187.0540  178.0520  146.0680 C   0  0  0  0  0  0  0  0  0  0  0  0
  189.1120  177.7020  147.9610 C   0  0  0  0  0  3  0  0  0  0  0  0
  188.8270  177.1880  144.5060 C   0  0  0  0  0  0  0  0  0  0  0  0
  190.4170  176.2730  142.4210 C   0  0  0  0  0  3  0  0  0  0  0  0
  187.8480  178.1870  148.3720 C   0  0  0  0  0  3  0  0  0  0  0  0
  190.1380  176.7960  144.7480 C   0  0  0  0  0  0  0  0  0  0  0  0
  190.9560  176.3350  143.7180 C   0  0  0  0  0  3  0  0  0  0  0  0
  184.9770  178.8280  146.4250 N   0  0  0  0  0  0  0  0  0  0  0  0
  185.5280  178.8300  147.5740 N   0  0  0  0  0  0  0  0  0  0  0  0
  189.0850  176.6670  142.1780 C   0  0  0  0  0  3  0  0  0  0  0  0
  189.3050  177.4040  146.6010 C   0  0  0  0  0  0  0  0  0  0  0  0
  190.4920  176.9020  145.9920 N   0  0  0  0  0  0  0  0  0  0  0  0
  185.9110  178.3380  145.4550 C   0  0  0  0  0  0  0  0  0  0  0  0
  188.2730  177.1290  143.2270 C   0  0  0  0  0  3  0  0  0  0  0  0
  186.8500  178.3450  147.3970 C   0  0  0  0  0  0  0  0  0  0  0  0
  185.6170  178.2720  143.9940 C   0  0  0  0  0  2  0  0  0  0  0  0
  184.6180  179.3510  143.5930 C   0  0  0  0  0  2  0  0  0  0  0  0
  183.3330  178.7450  143.0430 C   0  0  0  0  0  2  0  0  0  0  0  0
  183.5850  177.9710  141.7560 C   0  0  0  0  0  2  0  0  0  0  0  0
  184.6530  179.3530  139.9050 N   0  0  0  0  0  0  0  0  0  0  0  0
  184.5380  180.1970  138.8250 O   0  0  0  0  0  0  0  0  0  0  0  0
  185.7870  179.0090  140.2970 O   0  0  0  0  0  0  0  0  0  0  0  0
  183.4790  178.8670  140.5630 C   0  0  0  0  0  0  0  0  0  0  0  0
  182.3390  179.2080  140.1490 O   0  0  0  0  0  0  0  0  0  0  0  0
  1  2  1  0  0  0  0
  1 12  1  0  0  0  0
  2 16  1  0  0  0  0
  3  6  1  0  0  0  0
  4  7  1  0  0  0  0
  4  1  2  0  0  0  0
  5  8  2  0  0  0  0
  7 13  2  0  0  0  0
  8  7  1  0  0  0  0
  9 10  2  0  0  0  0
 11  5  1  0  0  0  0
 11 15  2  0  0  0  0
 12  3  2  0  0  0  0
 13 12  1  0  0  0  0
 14  2  2  0  0  0  0
 14  9  1  0  0  0  0
 15  4  1  0  0  0  0
 16 10  1  0  0  0  0
 16  6  2  0  0  0  0
 17 14  1  0  0  0  0
 18 17  1  0  0  0  0
 19 18  1  0  0  0  0
 20 19  1  0  0  0  0
 21 23  2  0  0  0  0
 21 24  1  0  0  0  0
 22 21  2  0  0  0  0
 24 20  1  0  0  0  0
 25 24  2  0  0  0  0
M  END
>  <MODEL>
4

>  <REMARK>
 VINA RESULT:      -9.8      2.060      4.899
  Name = 
  5 active torsions:
  status: ('A' for Active; 'I' for Inactive)
    1  A    between atoms: C_6  and  C_15
    2  A    between atoms: C_6  and  C_23
    3  A    between atoms: C_15  and  C_21
    4  A    between atoms: C_16  and  C_20
    5  A    between atoms: C_16  and  C_23
                            x       y       z     vdW  Elec       q    Type
                         _______ _______ _______ _____ _____    ______ ____

>  <TORSDO>
F 5

$$$$
=
 OpenBabel11052412463D

 25 28  0  0  0  0  0  0  0  0999 V2000
  189.0330  177.2580  145.7300 C   0  0  0  0  0  0  0  0  0  0  0  0
  189.8450  176.8400  144.6670 C   0  0  0  0  0  0  0  0  0  0  0  0
  190.8780  176.8970  147.2890 C   0  0  0  0  0  3  0  0  0  0  0  0
  187.7850  177.6860  145.8390 C   0  0  0  0  0  0  0  0  0  0  0  0
  185.3070  178.6330  146.6580 C   0  0  0  0  0  3  0  0  0  0  0  0
  191.6970  176.4760  146.2150 C   0  0  0  0  0  3  0  0  0  0  0  0
  187.5530  177.9610  147.1810 C   0  0  0  0  0  0  0  0  0  0  0  0
  186.3170  178.4370  147.6170 C   0  0  0  0  0  3  0  0  0  0  0  0
  190.8970  176.1930  142.7910 N   0  0  0  0  0  0  0  0  0  0  0  0
  191.7670  176.0660  143.7140 N   0  0  0  0  0  0  0  0  0  0  0  0
  185.5460  178.3570  145.2970 C   0  0  0  0  0  3  0  0  0  0  0  0
  189.5540  177.2800  147.0110 C   0  0  0  0  0  0  0  0  0  0  0  0
  188.5780  177.7380  147.9440 N   0  0  0  0  0  0  0  0  0  0  0  0
  189.6760  176.6850  143.3590 C   0  0  0  0  0  0  0  0  0  0  0  0
  186.7970  177.8790  144.8730 C   0  0  0  0  0  3  0  0  0  0  0  0
  191.1440  176.4650  144.9250 C   0  0  0  0  0  0  0  0  0  0  0  0
  188.4250  176.8790  142.5700 C   0  0  0  0  0  2  0  0  0  0  0  0
  188.4200  178.2420  141.8890 C   0  0  0  0  0  2  0  0  0  0  0  0
  187.2250  178.3960  140.9560 C   0  0  0  0  0  2  0  0  0  0  0  0
  186.1530  179.2910  141.5630 C   0  0  0  0  0  2  0  0  0  0  0  0
  184.0610  179.2360  140.1140 N   0  0  0  0  0  0  0  0  0  0  0  0
  182.7950  178.7650  139.8610 O   0  0  0  0  0  0  0  0  0  0  0  0
  184.5750  180.0620  139.3330 O   0  0  0  0  0  0  0  0  0  0  0  0
  184.7840  178.7690  141.2570 C   0  0  0  0  0  0  0  0  0  0  0  0
  184.2620  177.9230  142.0300 O   0  0  0  0  0  0  0  0  0  0  0  0
  1  4  1  0  0  0  0
  1 12  1  0  0  0  0
  2 16  1  0  0  0  0
  2  1  2  0  0  0  0
  4  7  1  0  0  0  0
  5  8  1  0  0  0  0
  6  3  2  0  0  0  0
  7  8  2  0  0  0  0
  7 13  1  0  0  0  0
  9 14  2  0  0  0  0
  9 10  1  0  0  0  0
 10 16  2  0  0  0  0
 11  5  2  0  0  0  0
 12  3  1  0  0  0  0
 12 13  2  0  0  0  0
 14  2  1  0  0  0  0
 15 11  1  0  0  0  0
 15  4  2  0  0  0  0
 16  6  1  0  0  0  0
 17 14  1  0  0  0  0
 18 17  1  0  0  0  0
 19 20  1  0  0  0  0
 19 18  1  0  0  0  0
 21 24  1  0  0  0  0
 22 21  2  0  0  0  0
 23 21  2  0  0  0  0
 24 20  1  0  0  0  0
 24 25  2  0  0  0  0
M  END
>  <MODEL>
5

>  <REMARK>
 VINA RESULT:      -9.7      2.598      3.579
  Name = 
  5 active torsions:
  status: ('A' for Active; 'I' for Inactive)
    1  A    between atoms: C_6  and  C_15
    2  A    between atoms: C_6  and  C_23
    3  A    between atoms: C_15  and  C_21
    4  A    between atoms: C_16  and  C_20
    5  A    between atoms: C_16  and  C_23
                            x       y       z     vdW  Elec       q    Type
                         _______ _______ _______ _____ _____    ______ ____

>  <TORSDO>
F 5

$$$$
=
 OpenBabel11052412463D

 25 28  0  0  0  0  0  0  0  0999 V2000
  185.7420  178.4490  144.7980 C   0  0  0  0  0  0  0  0  0  0  0  0
  185.5610  178.4860  143.4090 C   0  0  0  0  0  0  0  0  0  0  0  0
  183.3910  179.0210  145.1250 C   0  0  0  0  0  3  0  0  0  0  0  0
  186.7640  178.1940  145.6000 C   0  0  0  0  0  0  0  0  0  0  0  0
  188.4980  177.7540  147.7240 C   0  0  0  0  0  3  0  0  0  0  0  0
  183.2090  179.0570  143.7230 C   0  0  0  0  0  3  0  0  0  0  0  0
  186.3080  178.3090  146.9080 C   0  0  0  0  0  0  0  0  0  0  0  0
  187.1600  178.0940  147.9900 C   0  0  0  0  0  3  0  0  0  0  0  0
  185.5730  178.5030  141.1640 N   0  0  0  0  0  0  0  0  0  0  0  0
  184.3720  178.7810  141.4860 N   0  0  0  0  0  0  0  0  0  0  0  0
  188.9570  177.6340  146.3960 C   0  0  0  0  0  3  0  0  0  0  0  0
  184.6670  178.7140  145.6270 C   0  0  0  0  0  0  0  0  0  0  0  0
  185.0520  178.6210  146.9970 N   0  0  0  0  0  0  0  0  0  0  0  0
  186.3470  178.3060  142.3530 C   0  0  0  0  0  0  0  0  0  0  0  0
  188.0860  177.8540  145.3160 C   0  0  0  0  0  3  0  0  0  0  0  0
  184.3160  178.7820  142.9040 C   0  0  0  0  0  0  0  0  0  0  0  0
  187.8140  178.0380  142.3420 C   0  0  0  0  0  2  0  0  0  0  0  0
  188.3840  178.2000  140.9390 C   0  0  0  0  0  2  0  0  0  0  0  0
  189.4350  177.1380  140.6370 C   0  0  0  0  0  2  0  0  0  0  0  0
  190.7410  177.4180  141.3680 C   0  0  0  0  0  2  0  0  0  0  0  0
  191.5110  177.0730  143.7690 N   0  0  0  0  0  0  0  0  0  0  0  0
  191.6320  176.2750  144.8820 O   0  0  0  0  0  0  0  0  0  0  0  0
  191.9670  178.2340  143.7940 O   0  0  0  0  0  0  0  0  0  0  0  0
  190.8570  176.5740  142.5980 C   0  0  0  0  0  0  0  0  0  0  0  0
  190.3860  175.4060  142.5890 O   0  0  0  0  0  0  0  0  0  0  0  0
  1  4  1  0  0  0  0
  1 12  1  0  0  0  0
  2  1  2  0  0  0  0
  3 12  1  0  0  0  0
  4  7  1  0  0  0  0
  5  8  1  0  0  0  0
  6  3  2  0  0  0  0
  7 13  1  0  0  0  0
  7  8  2  0  0  0  0
  9 10  1  0  0  0  0
  9 14  2  0  0  0  0
 10 16  2  0  0  0  0
 11  5  2  0  0  0  0
 12 13  2  0  0  0  0
 14  2  1  0  0  0  0
 15  4  2  0  0  0  0
 15 11  1  0  0  0  0
 16  2  1  0  0  0  0
 16  6  1  0  0  0  0
 17 14  1  0  0  0  0
 18 17  1  0  0  0  0
 19 18  1  0  0  0  0
 19 20  1  0  0  0  0
 20 24  1  0  0  0  0
 21 23  2  0  0  0  0
 21 22  2  0  0  0  0
 24 21  1  0  0  0  0
 25 24  2  0  0  0  0
M  END
>  <MODEL>
6

>  <REMARK>
 VINA RESULT:      -9.6      2.531      4.830
  Name = 
  5 active torsions:
  status: ('A' for Active; 'I' for Inactive)
    1  A    between atoms: C_6  and  C_15
    2  A    between atoms: C_6  and  C_23
    3  A    between atoms: C_15  and  C_21
    4  A    between atoms: C_16  and  C_20
    5  A    between atoms: C_16  and  C_23
                            x       y       z     vdW  Elec       q    Type
                         _______ _______ _______ _____ _____    ______ ____

>  <TORSDO>
F 5

$$$$
=
 OpenBabel11052412463D

 25 28  0  0  0  0  0  0  0  0999 V2000
  187.4310  177.8010  145.4120 C   0  0  0  0  0  0  0  0  0  0  0  0
  186.6060  177.9800  144.2950 C   0  0  0  0  0  0  0  0  0  0  0  0
  185.5760  178.3970  146.8840 C   0  0  0  0  0  3  0  0  0  0  0  0
  188.6920  177.4410  145.5940 C   0  0  0  0  0  0  0  0  0  0  0  0
  191.1990  176.7470  146.5650 C   0  0  0  0  0  3  0  0  0  0  0  0
  184.7440  178.5770  145.7550 C   0  0  0  0  0  3  0  0  0  0  0  0
  188.9330  177.4370  146.9630 C   0  0  0  0  0  0  0  0  0  0  0  0
  190.1830  177.0930  147.4740 C   0  0  0  0  0  3  0  0  0  0  0  0
  185.5340  178.2200  142.3360 N   0  0  0  0  0  0  0  0  0  0  0  0
  184.6600  178.4960  143.2220 N   0  0  0  0  0  0  0  0  0  0  0  0
  190.9510  176.7490  145.1780 C   0  0  0  0  0  3  0  0  0  0  0  0
  186.9110  178.0090  146.6770 C   0  0  0  0  0  0  0  0  0  0  0  0
  187.9010  177.7710  147.6750 N   0  0  0  0  0  0  0  0  0  0  0  0
  186.7700  177.8860  142.9800 C   0  0  0  0  0  0  0  0  0  0  0  0
  189.6850  177.0960  144.6780 C   0  0  0  0  0  3  0  0  0  0  0  0
  185.2960  178.3570  144.4830 C   0  0  0  0  0  0  0  0  0  0  0  0
  188.0260  177.5820  142.2360 C   0  0  0  0  0  2  0  0  0  0  0  0
  188.2300  178.5670  141.0910 C   0  0  0  0  0  2  0  0  0  0  0  0
  189.0970  177.9700  139.9890 C   0  0  0  0  0  2  0  0  0  0  0  0
  189.9460  176.8170  140.5070 C   0  0  0  0  0  2  0  0  0  0  0  0
  192.2860  177.0320  139.5300 N   0  0  0  0  0  0  0  0  0  0  0  0
  193.6090  177.3850  139.6620 O   0  0  0  0  0  0  0  0  0  0  0  0
  191.8830  176.5580  138.4490 O   0  0  0  0  0  0  0  0  0  0  0  0
  191.3820  177.2200  140.6240 C   0  0  0  0  0  0  0  0  0  0  0  0
  191.7970  177.7140  141.7050 O   0  0  0  0  0  0  0  0  0  0  0  0
  1  4  1  0  0  0  0
  1 12  1  0  0  0  0
  2 16  1  0  0  0  0
  2  1  2  0  0  0  0
  4  7  1  0  0  0  0
  5  8  1  0  0  0  0
  6  3  2  0  0  0  0
  7  8  2  0  0  0  0
  7 13  1  0  0  0  0
  9 14  2  0  0  0  0
  9 10  1  0  0  0  0
 10 16  2  0  0  0  0
 11  5  2  0  0  0  0
 12  3  1  0  0  0  0
 12 13  2  0  0  0  0
 14  2  1  0  0  0  0
 15 11  1  0  0  0  0
 15  4  2  0  0  0  0
 16  6  1  0  0  0  0
 17 14  1  0  0  0  0
 18 17  1  0  0  0  0
 19 20  1  0  0  0  0
 19 18  1  0  0  0  0
 20 24  1  0  0  0  0
 21 22  2  0  0  0  0
 21 24  1  0  0  0  0
 23 21  2  0  0  0  0
 24 25  2  0  0  0  0
M  END
>  <MODEL>
7

>  <REMARK>
 VINA RESULT:      -9.6      2.192      4.245
  Name = 
  5 active torsions:
  status: ('A' for Active; 'I' for Inactive)
    1  A    between atoms: C_6  and  C_15
    2  A    between atoms: C_6  and  C_23
    3  A    between atoms: C_15  and  C_21
    4  A    between atoms: C_16  and  C_20
    5  A    between atoms: C_16  and  C_23
                            x       y       z     vdW  Elec       q    Type
                         _______ _______ _______ _____ _____    ______ ____

>  <TORSDO>
F 5

$$$$
=
 OpenBabel11052412463D

 25 28  0  0  0  0  0  0  0  0999 V2000
  188.5370  177.4720  146.0260 C   0  0  0  0  0  0  0  0  0  0  0  0
  187.2000  177.8930  146.0340 C   0  0  0  0  0  0  0  0  0  0  0  0
  188.7040  177.9430  148.4170 C   0  0  0  0  0  3  0  0  0  0  0  0
  189.3620  177.0000  145.1050 C   0  0  0  0  0  0  0  0  0  0  0  0
  191.4860  175.9810  143.6370 C   0  0  0  0  0  3  0  0  0  0  0  0
  187.3540  178.3670  148.4230 C   0  0  0  0  0  3  0  0  0  0  0  0
  190.5810  176.7510  145.7240 C   0  0  0  0  0  0  0  0  0  0  0  0
  191.6620  176.2400  145.0080 C   0  0  0  0  0  3  0  0  0  0  0  0
  185.0670  178.5300  145.7430 N   0  0  0  0  0  0  0  0  0  0  0  0
  185.2960  178.7150  146.9830 N   0  0  0  0  0  0  0  0  0  0  0  0
  190.2480  176.2310  143.0130 C   0  0  0  0  0  3  0  0  0  0  0  0
  189.2620  177.5030  147.2040 C   0  0  0  0  0  0  0  0  0  0  0  0
  190.5900  177.0320  146.9910 N   0  0  0  0  0  0  0  0  0  0  0  0
  186.2450  178.0080  145.1180 C   0  0  0  0  0  0  0  0  0  0  0  0
  189.1670  176.7450  143.7480 C   0  0  0  0  0  3  0  0  0  0  0  0
  186.6410  178.3240  147.2150 C   0  0  0  0  0  0  0  0  0  0  0  0
  186.3490  177.7460  143.6530 C   0  0  0  0  0  2  0  0  0  0  0  0
  185.1100  178.2490  142.9230 C   0  0  0  0  0  2  0  0  0  0  0  0
  185.4790  178.9900  141.6430 C   0  0  0  0  0  2  0  0  0  0  0  0
  186.9310  178.7470  141.2530 C   0  0  0  0  0  2  0  0  0  0  0  0
  188.2340  177.7900  139.2890 N   0  0  0  0  0  0  0  0  0  0  0  0
  188.3320  177.4950  137.9490 O   0  0  0  0  0  0  0  0  0  0  0  0
  189.1860  177.5170  140.0470 O   0  0  0  0  0  0  0  0  0  0  0  0
  187.0440  178.3940  139.8040 C   0  0  0  0  0  0  0  0  0  0  0  0
  186.0830  178.6510  139.0310 O   0  0  0  0  0  0  0  0  0  0  0  0
  1  2  1  0  0  0  0
  1 12  1  0  0  0  0
  2 16  1  0  0  0  0
  3  6  1  0  0  0  0
  4  7  1  0  0  0  0
  4  1  2  0  0  0  0
  5  8  2  0  0  0  0
  7 13  2  0  0  0  0
  8  7  1  0  0  0  0
  9 10  2  0  0  0  0
 10 16  1  0  0  0  0
 11  5  1  0  0  0  0
 11 15  2  0  0  0  0
 12  3  2  0  0  0  0
 13 12  1  0  0  0  0
 14  9  1  0  0  0  0
 14  2  2  0  0  0  0
 15  4  1  0  0  0  0
 16  6  2  0  0  0  0
 17 14  1  0  0  0  0
 18 17  1  0  0  0  0
 19 18  1  0  0  0  0
 20 19  1  0  0  0  0
 21 24  1  0  0  0  0
 21 23  2  0  0  0  0
 22 21  2  0  0  0  0
 24 20  1  0  0  0  0
 25 24  2  0  0  0  0
M  END
>  <MODEL>
8

>  <REMARK>
 VINA RESULT:      -9.5      1.382      4.266
  Name = 
  5 active torsions:
  status: ('A' for Active; 'I' for Inactive)
    1  A    between atoms: C_6  and  C_15
    2  A    between atoms: C_6  and  C_23
    3  A    between atoms: C_15  and  C_21
    4  A    between atoms: C_16  and  C_20
    5  A    between atoms: C_16  and  C_23
                            x       y       z     vdW  Elec       q    Type
                         _______ _______ _______ _____ _____    ______ ____

>  <TORSDO>
F 5

$$$$
=
 OpenBabel11052412463D

 25 28  0  0  0  0  0  0  0  0999 V2000
  189.7310  177.1290  144.8660 C   0  0  0  0  0  0  0  0  0  0  0  0
  188.9740  177.3200  146.0290 C   0  0  0  0  0  0  0  0  0  0  0  0
  191.6700  176.5250  146.2210 C   0  0  0  0  0  3  0  0  0  0  0  0
  189.4880  177.2230  143.5680 C   0  0  0  0  0  0  0  0  0  0  0  0
  189.5600  177.2440  140.7930 C   0  0  0  0  0  3  0  0  0  0  0  0
  190.9050  176.7170  147.3950 C   0  0  0  0  0  3  0  0  0  0  0  0
  190.6610  176.8950  142.8980 C   0  0  0  0  0  0  0  0  0  0  0  0
  190.7220  176.8990  141.5060 C   0  0  0  0  0  3  0  0  0  0  0  0
  187.5390  177.7270  147.7090 N   0  0  0  0  0  0  0  0  0  0  0  0
  188.6230  177.3800  148.2820 N   0  0  0  0  0  0  0  0  0  0  0  0
  188.3710  177.5720  141.4740 C   0  0  0  0  0  3  0  0  0  0  0  0
  191.0530  176.7390  144.9770 C   0  0  0  0  0  0  0  0  0  0  0  0
  191.6450  176.5920  143.6880 N   0  0  0  0  0  0  0  0  0  0  0  0
  187.7260  177.6950  146.2880 C   0  0  0  0  0  0  0  0  0  0  0  0
  188.3250  177.5630  142.8780 C   0  0  0  0  0  3  0  0  0  0  0  0
  189.5640  177.1110  147.2540 C   0  0  0  0  0  0  0  0  0  0  0  0
  186.6780  178.1160  145.3140 C   0  0  0  0  0  2  0  0  0  0  0  0
  185.4280  178.6010  146.0370 C   0  0  0  0  0  2  0  0  0  0  0  0
  184.2740  178.8260  145.0690 C   0  0  0  0  0  2  0  0  0  0  0  0
  184.7440  179.4880  143.7800 C   0  0  0  0  0  2  0  0  0  0  0  0
  184.4540  179.1060  141.2810 N   0  0  0  0  0  0  0  0  0  0  0  0
  183.6880  178.6950  140.2160 O   0  0  0  0  0  0  0  0  0  0  0  0
  185.6060  179.5410  141.0760 O   0  0  0  0  0  0  0  0  0  0  0  0
  183.9350  179.0200  142.6120 C   0  0  0  0  0  0  0  0  0  0  0  0
  182.7780  178.5640  142.8080 O   0  0  0  0  0  0  0  0  0  0  0  0
  1 12  1  0  0  0  0
  1  2  1  0  0  0  0
  2 14  2  0  0  0  0
  2 16  1  0  0  0  0
  3  6  1  0  0  0  0
  4  1  2  0  0  0  0
  5 11  1  0  0  0  0
  5  8  2  0  0  0  0
  7  4  1  0  0  0  0
  7 13  2  0  0  0  0
  8  7  1  0  0  0  0
  9 10  2  0  0  0  0
 11 15  2  0  0  0  0
 12  3  2  0  0  0  0
 13 12  1  0  0  0  0
 14  9  1  0  0  0  0
 15  4  1  0  0  0  0
 16  6  2  0  0  0  0
 16 10  1  0  0  0  0
 17 18  1  0  0  0  0
 17 14  1  0  0  0  0
 19 18  1  0  0  0  0
 20 19  1  0  0  0  0
 21 24  1  0  0  0  0
 22 21  2  0  0  0  0
 23 21  2  0  0  0  0
 24 25  2  0  0  0  0
 24 20  1  0  0  0  0
M  END
>  <MODEL>
9

>  <REMARK>
 VINA RESULT:      -9.5      2.408      5.144
  Name = 
  5 active torsions:
  status: ('A' for Active; 'I' for Inactive)
    1  A    between atoms: C_6  and  C_15
    2  A    between atoms: C_6  and  C_23
    3  A    between atoms: C_15  and  C_21
    4  A    between atoms: C_16  and  C_20
    5  A    between atoms: C_16  and  C_23
                            x       y       z     vdW  Elec       q    Type
                         _______ _______ _______ _____ _____    ______ ____

>  <TORSDO>
F 5

$$$$
