=
 OpenBabel11052413383D

 28 29  0  0  1  0  0  0  0  0999 V2000
  186.4000  178.0180  137.1880 C   0  0  0  0  0  2  0  0  0  0  0  0
  185.3390  175.2970  136.5720 C   0  0  0  0  0  1  0  0  0  0  0  0
  184.4140  176.3870  137.0990 C   0  0  0  0  0  0  0  0  0  0  0  0
  187.1920  178.3510  140.3250 C   0  0  0  0  0  3  0  0  0  0  0  0
  183.8030  177.1240  135.9070 C   0  0  0  0  0  1  0  0  0  0  0  0
  182.4260  176.7660  138.6570 C   0  0  0  0  0  2  0  0  0  0  0  0
  183.2620  177.7020  139.5280 C   0  0  1  0  0  3  0  0  0  0  0  0
  183.3160  175.7310  137.9710 C   0  0  1  0  0  3  0  0  0  0  0  0
  185.5560  179.0770  141.9660 C   0  0  0  0  0  1  0  0  0  0  0  0
  184.3570  178.3920  138.7040 C   0  0  1  0  0  3  0  0  0  0  0  0
  187.7760  178.0720  138.9680 C   0  0  0  0  0  2  0  0  0  0  0  0
  185.1250  179.2810  139.5250 O   0  0  0  0  0  0  0  0  0  0  0  0
  185.9770  178.8610  140.5580 C   0  0  0  0  0  0  0  0  0  0  0  0
  187.1820  178.8730  137.9850 O   0  0  0  0  0  0  0  0  0  0  0  0
  185.2390  177.3620  137.9700 C   0  0  2  0  0  3  0  0  0  0  0  0
  181.3040  175.1090  136.6280 O   0  0  0  0  0  0  0  0  0  0  0  0
  182.4820  174.7140  137.2470 C   0  0  0  0  0  0  0  0  0  0  0  0
  182.8320  173.5040  137.2070 O   0  0  0  0  0  1  0  0  0  0  0  0
  182.3820  178.7210  140.2690 C   0  0  2  0  0  3  0  0  0  0  0  0
  182.3310  178.9320  142.4750 C   0  0  0  0  0  1  0  0  0  0  0  0
  181.8340  178.1560  141.4270 O   0  0  0  0  0  0  0  0  0  0  0  0
  181.2930  179.3380  139.3830 C   0  0  2  0  0  3  0  0  0  0  0  0
  181.7880  180.6580  138.8120 C   0  0  0  0  0  2  0  0  0  0  0  0
  181.2210  180.8830  137.4240 C   0  0  0  0  0  2  0  0  0  0  0  0
  181.0120  179.5470  136.7430 C   0  0  0  0  0  1  0  0  0  0  0  0
  180.0960  179.5310  140.1240 O   0  0  0  0  0  0  0  0  0  0  0  0
  179.7130  180.8010  140.5400 C   0  0  0  0  0  3  0  0  0  0  0  0
  179.6700  181.0760  141.7660 O   0  0  0  0  0  0  0  0  0  0  0  0
  1 14  1  0  0  0  0
  2  3  1  0  0  0  0
  3 15  1  0  0  0  0
  3  8  1  0  0  0  0
  4 13  2  0  0  0  0
  5  3  1  0  0  0  0
  6  7  1  0  0  0  0
  7 19  1  6  0  0  0
  8 17  1  6  0  0  0
  8  6  1  0  0  0  0
 10 12  1  1  0  0  0
 10  7  1  0  0  0  0
 11  4  1  0  0  0  0
 12 13  1  0  0  0  0
 13  9  1  0  0  0  0
 14 11  1  0  0  0  0
 15  1  1  6  0  0  0
 15 10  1  0  0  0  0
 16 17  2  0  0  0  0
 18 17  1  0  0  0  0
 19 21  1  1  0  0  0
 21 20  1  0  0  0  0
 22 23  1  1  0  0  0
 22 26  1  0  0  0  0
 22 19  1  0  0  0  0
 24 23  1  0  0  0  0
 25 24  1  0  0  0  0
 26 27  1  0  0  0  0
 27 28  2  0  0  0  0
M  END
>  <MODEL>
1

>  <REMARK>
 VINA RESULT:      -4.7      0.000      0.000
  Name = 
  8 active torsions:
  status: ('A' for Active; 'I' for Inactive)
    1  A    between atoms: C_9  and  C_12
    2  A    between atoms: C_9  and  C_13
    3  A    between atoms: C_9  and  O_14
    4  A    between atoms: C_10  and  C_13
    5  A    between atoms: C_11  and  C_22
    6  A    between atoms: C_12  and  C_15
    7  A    between atoms: C_13  and  O_24
    8  A    between atoms: O_14  and  C_18
                            x       y       z     vdW  Elec       q    Type
                         _______ _______ _______ _____ _____    ______ ____

>  <TORSDO>
F 8

$$$$
=
 OpenBabel11052413383D

 28 29  0  0  1  0  0  0  0  0999 V2000
  187.2920  177.9800  137.6570 C   0  0  0  0  0  2  0  0  0  0  0  0
  186.4890  175.2340  136.8070 C   0  0  0  0  0  1  0  0  0  0  0  0
  185.4380  176.3170  137.0170 C   0  0  0  0  0  0  0  0  0  0  0  0
  187.1170  178.3730  140.8810 C   0  0  0  0  0  3  0  0  0  0  0  0
  185.1990  177.0270  135.6840 C   0  0  0  0  0  1  0  0  0  0  0  0
  183.0750  176.6890  137.9100 C   0  0  0  0  0  2  0  0  0  0  0  0
  183.6050  177.6500  138.9720 C   0  0  1  0  0  3  0  0  0  0  0  0
  184.1380  175.6580  137.5370 C   0  0  1  0  0  3  0  0  0  0  0  0
  185.0610  179.0980  141.9520 C   0  0  0  0  0  1  0  0  0  0  0  0
  184.8880  178.3460  138.4950 C   0  0  1  0  0  3  0  0  0  0  0  0
  188.0790  178.0830  139.7630 C   0  0  0  0  0  2  0  0  0  0  0  0
  185.3700  179.2580  139.4890 O   0  0  0  0  0  0  0  0  0  0  0  0
  185.8820  178.8680  140.7350 C   0  0  0  0  0  0  0  0  0  0  0  0
  187.7940  178.8600  138.6330 O   0  0  0  0  0  0  0  0  0  0  0  0
  185.9580  177.3190  138.0740 C   0  0  2  0  0  3  0  0  0  0  0  0
  182.7050  175.0010  135.6000 O   0  0  0  0  0  0  0  0  0  0  0  0
  183.5660  174.6170  136.6190 C   0  0  0  0  0  0  0  0  0  0  0  0
  183.8470  173.3980  136.7710 O   0  0  0  0  0  1  0  0  0  0  0  0
  182.5350  178.6670  139.4000 C   0  0  2  0  0  3  0  0  0  0  0  0
  181.4660  178.5690  141.3400 C   0  0  0  0  0  1  0  0  0  0  0  0
  181.4750  178.0270  140.0530 O   0  0  0  0  0  0  0  0  0  0  0  0
  182.0300  179.5380  138.2440 C   0  0  2  0  0  3  0  0  0  0  0  0
  182.2070  181.0070  138.5970 C   0  0  0  0  0  2  0  0  0  0  0  0
  180.8720  181.7250  138.5710 C   0  0  0  0  0  2  0  0  0  0  0  0
  180.8630  182.7300  137.4380 C   0  0  0  0  0  1  0  0  0  0  0  0
  180.6670  179.2540  137.9610 O   0  0  0  0  0  0  0  0  0  0  0  0
  180.2800  178.7990  136.7060 C   0  0  0  0  0  3  0  0  0  0  0  0
  181.1210  178.7370  135.7730 O   0  0  0  0  0  0  0  0  0  0  0  0
  1 14  1  0  0  0  0
  2  3  1  0  0  0  0
  3  8  1  0  0  0  0
  3 15  1  0  0  0  0
  5  3  1  0  0  0  0
  6  7  1  0  0  0  0
  7 19  1  6  0  0  0
  8 17  1  6  0  0  0
  8  6  1  0  0  0  0
 10  7  1  0  0  0  0
 10 12  1  1  0  0  0
 11  4  1  0  0  0  0
 12 13  1  0  0  0  0
 13  4  2  0  0  0  0
 13  9  1  0  0  0  0
 14 11  1  0  0  0  0
 15  1  1  6  0  0  0
 15 10  1  0  0  0  0
 16 17  2  0  0  0  0
 17 18  1  0  0  0  0
 19 21  1  6  0  0  0
 21 20  1  0  0  0  0
 22 23  1  1  0  0  0
 22 19  1  0  0  0  0
 24 23  1  0  0  0  0
 25 24  1  0  0  0  0
 26 22  1  0  0  0  0
 27 26  1  0  0  0  0
 28 27  2  0  0  0  0
M  END
>  <MODEL>
2

>  <REMARK>
 VINA RESULT:      -4.5      1.368      1.929
  Name = 
  8 active torsions:
  status: ('A' for Active; 'I' for Inactive)
    1  A    between atoms: C_9  and  C_12
    2  A    between atoms: C_9  and  C_13
    3  A    between atoms: C_9  and  O_14
    4  A    between atoms: C_10  and  C_13
    5  A    between atoms: C_11  and  C_22
    6  A    between atoms: C_12  and  C_15
    7  A    between atoms: C_13  and  O_24
    8  A    between atoms: O_14  and  C_18
                            x       y       z     vdW  Elec       q    Type
                         _______ _______ _______ _____ _____    ______ ____

>  <TORSDO>
F 8

$$$$
=
 OpenBabel11052413383D

 28 29  0  0  1  0  0  0  0  0999 V2000
  189.0630  176.3100  144.2090 C   0  0  0  0  0  2  0  0  0  0  0  0
  188.1970  178.0240  146.4940 C   0  0  0  0  0  1  0  0  0  0  0  0
  187.2260  177.6850  145.3700 C   0  0  0  0  0  0  0  0  0  0  0  0
  190.0730  178.0670  141.6640 C   0  0  0  0  0  3  0  0  0  0  0  0
  186.4590  176.4200  145.7550 C   0  0  0  0  0  1  0  0  0  0  0  0
  185.3450  178.6830  143.9600 C   0  0  0  0  0  2  0  0  0  0  0  0
  186.1630  178.4780  142.6870 C   0  0  1  0  0  3  0  0  0  0  0  0
  186.2630  178.8790  145.1650 C   0  0  1  0  0  3  0  0  0  0  0  0
  188.5170  178.8240  139.9600 C   0  0  0  0  0  1  0  0  0  0  0  0
  187.1240  177.2900  142.8330 C   0  0  1  0  0  3  0  0  0  0  0  0
  190.5680  177.2960  142.8560 C   0  0  0  0  0  2  0  0  0  0  0  0
  187.8750  177.0950  141.6290 O   0  0  0  0  0  0  0  0  0  0  0  0
  188.8400  177.9920  141.1480 C   0  0  0  0  0  0  0  0  0  0  0  0
  189.8280  176.1210  143.0440 O   0  0  0  0  0  0  0  0  0  0  0  0
  188.0300  177.4520  144.0700 C   0  0  2  0  0  3  0  0  0  0  0  0
  184.1460  178.8250  146.4880 O   0  0  0  0  0  0  0  0  0  0  0  0
  185.4650  179.2420  146.3840 C   0  0  0  0  0  0  0  0  0  0  0  0
  185.9750  179.9330  147.3060 O   0  0  0  0  0  1  0  0  0  0  0  0
  185.2600  178.3290  141.4520 C   0  0  2  0  0  3  0  0  0  0  0  0
  185.2700  179.0340  139.3500 C   0  0  0  0  0  1  0  0  0  0  0  0
  185.2920  179.4890  140.6700 O   0  0  0  0  0  0  0  0  0  0  0  0
  183.8200  177.9320  141.7990 C   0  0  2  0  0  3  0  0  0  0  0  0
  183.2250  177.1200  140.6590 C   0  0  0  0  0  2  0  0  0  0  0  0
  182.0170  177.8260  140.0760 C   0  0  0  0  0  2  0  0  0  0  0  0
  180.7830  176.9790  140.2990 C   0  0  0  0  0  1  0  0  0  0  0  0
  183.0310  179.0870  142.0540 O   0  0  0  0  0  0  0  0  0  0  0  0
  182.1530  179.1260  143.1310 C   0  0  0  0  0  3  0  0  0  0  0  0
  181.0080  179.6260  142.9910 O   0  0  0  0  0  0  0  0  0  0  0  0
  3  5  1  0  0  0  0
  3  2  1  0  0  0  0
  4 11  1  0  0  0  0
  6  8  1  0  0  0  0
  7 19  1  6  0  0  0
  7 10  1  0  0  0  0
  7  6  1  0  0  0  0
  8  3  1  0  0  0  0
  8 17  1  1  0  0  0
  9 13  1  0  0  0  0
 10 12  1  6  0  0  0
 10 15  1  0  0  0  0
 11 14  1  0  0  0  0
 13 12  1  0  0  0  0
 13  4  2  0  0  0  0
 14  1  1  0  0  0  0
 15  1  1  1  0  0  0
 15  3  1  0  0  0  0
 17 16  2  0  0  0  0
 17 18  1  0  0  0  0
 19 21  1  1  0  0  0
 19 22  1  0  0  0  0
 20 21  1  0  0  0  0
 22 23  1  6  0  0  0
 22 26  1  0  0  0  0
 24 25  1  0  0  0  0
 24 23  1  0  0  0  0
 26 27  1  0  0  0  0
 28 27  2  0  0  0  0
M  END
>  <MODEL>
3

>  <REMARK>
 VINA RESULT:      -4.4      3.522      6.544
  Name = 
  8 active torsions:
  status: ('A' for Active; 'I' for Inactive)
    1  A    between atoms: C_9  and  C_12
    2  A    between atoms: C_9  and  C_13
    3  A    between atoms: C_9  and  O_14
    4  A    between atoms: C_10  and  C_13
    5  A    between atoms: C_11  and  C_22
    6  A    between atoms: C_12  and  C_15
    7  A    between atoms: C_13  and  O_24
    8  A    between atoms: O_14  and  C_18
                            x       y       z     vdW  Elec       q    Type
                         _______ _______ _______ _____ _____    ______ ____

>  <TORSDO>
F 8

$$$$
=
 OpenBabel11052413383D

 28 29  0  0  1  0  0  0  0  0999 V2000
  181.3340  178.6510  143.4370 C   0  0  0  0  0  2  0  0  0  0  0  0
  179.5970  180.6970  142.1320 C   0  0  0  0  0  1  0  0  0  0  0  0
  180.3580  179.6790  141.2920 C   0  0  0  0  0  0  0  0  0  0  0  0
  184.4440  179.5890  143.5890 C   0  0  0  0  0  3  0  0  0  0  0  0
  179.4570  178.4650  141.0650 C   0  0  0  0  0  1  0  0  0  0  0  0
  181.6460  179.4320  139.1000 C   0  0  0  0  0  2  0  0  0  0  0  0
  182.9140  179.0560  139.8640 C   0  0  1  0  0  3  0  0  0  0  0  0
  180.7550  180.3370  139.9480 C   0  0  1  0  0  3  0  0  0  0  0  0
  185.9890  179.1300  141.7720 C   0  0  0  0  0  1  0  0  0  0  0  0
  182.5740  178.3810  141.2010 C   0  0  1  0  0  3  0  0  0  0  0  0
  183.1800  179.5090  144.3980 C   0  0  0  0  0  2  0  0  0  0  0  0
  183.7680  178.0170  141.9030 O   0  0  0  0  0  0  0  0  0  0  0  0
  184.6770  178.9380  142.4440 C   0  0  0  0  0  0  0  0  0  0  0  0
  182.4960  178.3100  144.1530 O   0  0  0  0  0  0  0  0  0  0  0  0
  181.6400  179.2640  142.0510 C   0  0  2  0  0  3  0  0  0  0  0  0
  178.9380  179.9750  138.2730 O   0  0  0  0  0  0  0  0  0  0  0  0
  179.5910  180.8380  139.1420 C   0  0  0  0  0  0  0  0  0  0  0  0
  179.2110  182.0360  139.2340 O   0  0  0  0  0  1  0  0  0  0  0  0
  183.8510  178.1850  139.0120 C   0  0  2  0  0  3  0  0  0  0  0  0
  186.0290  178.2370  138.6000 C   0  0  0  0  0  1  0  0  0  0  0  0
  184.8510  178.9640  138.4190 O   0  0  0  0  0  0  0  0  0  0  0  0
  183.1110  177.3430  137.9660 C   0  0  2  0  0  3  0  0  0  0  0  0
  183.1610  175.8750  138.3640 C   0  0  0  0  0  2  0  0  0  0  0  0
  181.7740  175.2660  138.3270 C   0  0  0  0  0  2  0  0  0  0  0  0
  181.0870  175.4960  139.6560 C   0  0  0  0  0  1  0  0  0  0  0  0
  183.6810  177.5310  136.6780 O   0  0  0  0  0  0  0  0  0  0  0  0
  184.1610  176.4500  135.9480 C   0  0  0  0  0  3  0  0  0  0  0  0
  185.3640  176.4230  135.5820 O   0  0  0  0  0  0  0  0  0  0  0  0
  1 14  1  0  0  0  0
  3 15  1  0  0  0  0
  3  2  1  0  0  0  0
  4 11  1  0  0  0  0
  5  3  1  0  0  0  0
  6  7  1  0  0  0  0
  6  8  1  0  0  0  0
  7 19  1  6  0  0  0
  7 10  1  0  0  0  0
  8 17  1  6  0  0  0
  8  3  1  0  0  0  0
  9 13  1  0  0  0  0
 10 12  1  1  0  0  0
 10 15  1  0  0  0  0
 12 13  1  0  0  0  0
 13  4  2  0  0  0  0
 14 11  1  0  0  0  0
 15  1  1  1  0  0  0
 16 17  2  0  0  0  0
 17 18  1  0  0  0  0
 19 21  1  6  0  0  0
 21 20  1  0  0  0  0
 22 23  1  1  0  0  0
 22 19  1  0  0  0  0
 24 23  1  0  0  0  0
 24 25  1  0  0  0  0
 26 22  1  0  0  0  0
 27 26  1  0  0  0  0
 28 27  2  0  0  0  0
M  END
>  <MODEL>
4

>  <REMARK>
 VINA RESULT:      -4.4      1.811      5.910
  Name = 
  8 active torsions:
  status: ('A' for Active; 'I' for Inactive)
    1  A    between atoms: C_9  and  C_12
    2  A    between atoms: C_9  and  C_13
    3  A    between atoms: C_9  and  O_14
    4  A    between atoms: C_10  and  C_13
    5  A    between atoms: C_11  and  C_22
    6  A    between atoms: C_12  and  C_15
    7  A    between atoms: C_13  and  O_24
    8  A    between atoms: O_14  and  C_18
                            x       y       z     vdW  Elec       q    Type
                         _______ _______ _______ _____ _____    ______ ____

>  <TORSDO>
F 8

$$$$
=
 OpenBabel11052413383D

 28 29  0  0  1  0  0  0  0  0999 V2000
  186.5030  179.0120  142.5580 C   0  0  0  0  0  2  0  0  0  0  0  0
  187.8470  176.7750  144.0060 C   0  0  0  0  0  1  0  0  0  0  0  0
  188.5280  177.4500  142.8220 C   0  0  0  0  0  0  0  0  0  0  0  0
  184.8660  177.9820  139.9440 C   0  0  0  0  0  3  0  0  0  0  0  0
  189.3980  178.5920  143.3480 C   0  0  0  0  0  1  0  0  0  0  0  0
  189.9890  176.9580  140.7860 C   0  0  0  0  0  2  0  0  0  0  0  0
  188.8940  177.4700  139.8510 C   0  0  1  0  0  3  0  0  0  0  0  0
  189.3830  176.4000  142.0720 C   0  0  1  0  0  3  0  0  0  0  0  0
  185.9460  177.7880  137.7770 C   0  0  0  0  0  1  0  0  0  0  0  0
  188.0280  178.5310  140.5450 C   0  0  1  0  0  3  0  0  0  0  0  0
  184.6910  178.3730  141.3850 C   0  0  0  0  0  2  0  0  0  0  0  0
  187.0150  179.0170  139.6570 O   0  0  0  0  0  0  0  0  0  0  0  0
  185.9390  178.2470  139.1910 C   0  0  0  0  0  0  0  0  0  0  0  0
  185.4850  179.4820  141.7090 O   0  0  0  0  0  0  0  0  0  0  0  0
  187.4420  177.9970  141.8670 C   0  0  2  0  0  3  0  0  0  0  0  0
  191.5340  176.4940  143.3370 O   0  0  0  0  0  1  0  0  0  0  0  0
  190.4400  175.7500  142.9170 C   0  0  0  0  0  0  0  0  0  0  0  0
  190.3530  174.5350  143.2360 O   0  0  0  0  0  0  0  0  0  0  0  0
  189.4780  177.9910  138.5280 C   0  0  2  0  0  3  0  0  0  0  0  0
  188.9460  179.3020  136.8220 C   0  0  0  0  0  1  0  0  0  0  0  0
  188.9550  179.2510  138.2170 O   0  0  0  0  0  0  0  0  0  0  0  0
  189.3000  177.0120  137.3620 C   0  0  2  0  0  3  0  0  0  0  0  0
  188.5960  175.7560  137.8520 C   0  0  0  0  0  2  0  0  0  0  0  0
  188.3080  174.8200  136.6940 C   0  0  0  0  0  2  0  0  0  0  0  0
  189.0160  173.5020  136.9240 C   0  0  0  0  0  1  0  0  0  0  0  0
  190.5590  176.6860  136.7860 O   0  0  0  0  0  0  0  0  0  0  0  0
  191.6760  176.4840  137.5870 C   0  0  0  0  0  3  0  0  0  0  0  0
  192.0050  175.3190  137.9270 O   0  0  0  0  0  0  0  0  0  0  0  0
  3  5  1  0  0  0  0
  3  2  1  0  0  0  0
  4 11  1  0  0  0  0
  6  8  1  0  0  0  0
  7 19  1  6  0  0  0
  7 10  1  0  0  0  0
  7  6  1  0  0  0  0
  8  3  1  0  0  0  0
  8 17  1  1  0  0  0
  9 13  1  0  0  0  0
 10 12  1  6  0  0  0
 10 15  1  0  0  0  0
 11 14  1  0  0  0  0
 13 12  1  0  0  0  0
 13  4  2  0  0  0  0
 14  1  1  0  0  0  0
 15  1  1  1  0  0  0
 15  3  1  0  0  0  0
 17 18  2  0  0  0  0
 17 16  1  0  0  0  0
 19 21  1  6  0  0  0
 20 21  1  0  0  0  0
 22 23  1  1  0  0  0
 22 19  1  0  0  0  0
 24 25  1  0  0  0  0
 24 23  1  0  0  0  0
 26 22  1  0  0  0  0
 26 27  1  0  0  0  0
 27 28  2  0  0  0  0
M  END
>  <MODEL>
5

>  <REMARK>
 VINA RESULT:      -4.3      3.828      8.124
  Name = 
  8 active torsions:
  status: ('A' for Active; 'I' for Inactive)
    1  A    between atoms: C_9  and  C_12
    2  A    between atoms: C_9  and  C_13
    3  A    between atoms: C_9  and  O_14
    4  A    between atoms: C_10  and  C_13
    5  A    between atoms: C_11  and  C_22
    6  A    between atoms: C_12  and  C_15
    7  A    between atoms: C_13  and  O_24
    8  A    between atoms: O_14  and  C_18
                            x       y       z     vdW  Elec       q    Type
                         _______ _______ _______ _____ _____    ______ ____

>  <TORSDO>
F 8

$$$$
=
 OpenBabel11052413383D

 28 29  0  0  1  0  0  0  0  0999 V2000
  190.6460  176.0270  139.5750 C   0  0  0  0  0  2  0  0  0  0  0  0
  192.2700  177.5030  141.5980 C   0  0  0  0  0  1  0  0  0  0  0  0
  190.7760  177.2960  141.8070 C   0  0  0  0  0  0  0  0  0  0  0  0
  189.2120  178.0270  137.4480 C   0  0  0  0  0  3  0  0  0  0  0  0
  190.5700  176.0070  142.6040 C   0  0  0  0  0  1  0  0  0  0  0  0
  188.6840  178.4610  142.6960 C   0  0  0  0  0  2  0  0  0  0  0  0
  188.0290  178.3800  141.3180 C   0  0  1  0  0  3  0  0  0  0  0  0
  190.2040  178.5180  142.5670 C   0  0  1  0  0  3  0  0  0  0  0  0
  187.0220  178.9790  137.8940 C   0  0  0  0  0  1  0  0  0  0  0  0
  188.5500  177.1710  140.5290 C   0  0  1  0  0  3  0  0  0  0  0  0
  190.4040  177.1290  137.6270 C   0  0  0  0  0  2  0  0  0  0  0  0
  187.9190  177.0930  139.2460 O   0  0  0  0  0  0  0  0  0  0  0  0
  188.1140  178.0220  138.2140 C   0  0  0  0  0  0  0  0  0  0  0  0
  190.0560  175.9500  138.3010 O   0  0  0  0  0  0  0  0  0  0  0  0
  190.0880  177.1900  140.4270 C   0  0  2  0  0  3  0  0  0  0  0  0
  190.2390  178.2570  145.0510 O   0  0  0  0  0  1  0  0  0  0  0  0
  190.8400  178.7610  143.9060 C   0  0  0  0  0  0  0  0  0  0  0  0
  191.9030  179.4300  144.0030 O   0  0  0  0  0  0  0  0  0  0  0  0
  186.4950  178.3730  141.4200 C   0  0  2  0  0  3  0  0  0  0  0  0
  184.8480  179.0030  140.0770 C   0  0  0  0  0  1  0  0  0  0  0  0
  185.9490  179.4920  140.7810 O   0  0  0  0  0  0  0  0  0  0  0  0
  185.9850  178.2520  142.8610 C   0  0  2  0  0  3  0  0  0  0  0  0
  186.8060  177.2110  143.6070 C   0  0  0  0  0  2  0  0  0  0  0  0
  186.3270  177.0840  145.0400 C   0  0  0  0  0  2  0  0  0  0  0  0
  186.8460  178.2520  145.8500 C   0  0  0  0  0  1  0  0  0  0  0  0
  184.6060  177.9050  142.8760 O   0  0  0  0  0  0  0  0  0  0  0  0
  183.6770  178.7080  143.5260 C   0  0  0  0  0  3  0  0  0  0  0  0
  184.0240  179.8270  143.9830 O   0  0  0  0  0  0  0  0  0  0  0  0
  2  3  1  0  0  0  0
  3  8  1  0  0  0  0
  3  5  1  0  0  0  0
  4 11  1  0  0  0  0
  4 13  2  0  0  0  0
  7 19  1  1  0  0  0
  7  6  1  0  0  0  0
  8  6  1  0  0  0  0
  8 17  1  1  0  0  0
  9 13  1  0  0  0  0
 10 12  1  6  0  0  0
 10  7  1  0  0  0  0
 11 14  1  0  0  0  0
 13 12  1  0  0  0  0
 14  1  1  0  0  0  0
 15  1  1  1  0  0  0
 15 10  1  0  0  0  0
 15  3  1  0  0  0  0
 17 18  2  0  0  0  0
 17 16  1  0  0  0  0
 19 21  1  1  0  0  0
 19 22  1  0  0  0  0
 20 21  1  0  0  0  0
 22 26  1  0  0  0  0
 22 23  1  1  0  0  0
 23 24  1  0  0  0  0
 24 25  1  0  0  0  0
 26 27  1  0  0  0  0
 27 28  2  0  0  0  0
M  END
>  <MODEL>
6

>  <REMARK>
 VINA RESULT:      -4.2      3.862      7.214
  Name = 
  8 active torsions:
  status: ('A' for Active; 'I' for Inactive)
    1  A    between atoms: C_9  and  C_12
    2  A    between atoms: C_9  and  C_13
    3  A    between atoms: C_9  and  O_14
    4  A    between atoms: C_10  and  C_13
    5  A    between atoms: C_11  and  C_22
    6  A    between atoms: C_12  and  C_15
    7  A    between atoms: C_13  and  O_24
    8  A    between atoms: O_14  and  C_18
                            x       y       z     vdW  Elec       q    Type
                         _______ _______ _______ _____ _____    ______ ____

>  <TORSDO>
F 8

$$$$
=
 OpenBabel11052413383D

 28 29  0  0  1  0  0  0  0  0999 V2000
  181.6150  179.8260  144.0800 C   0  0  0  0  0  2  0  0  0  0  0  0
  183.9720  178.5990  145.4390 C   0  0  0  0  0  1  0  0  0  0  0  0
  184.0050  178.8880  143.9440 C   0  0  0  0  0  0  0  0  0  0  0  0
  179.6610  177.5950  142.7460 C   0  0  0  0  0  3  0  0  0  0  0  0
  184.5900  180.2850  143.7310 C   0  0  0  0  0  1  0  0  0  0  0  0
  184.8410  177.9410  141.7240 C   0  0  0  0  0  2  0  0  0  0  0  0
  183.4090  177.8460  141.2010 C   0  0  1  0  0  3  0  0  0  0  0  0
  184.8700  177.8110  143.2450 C   0  0  1  0  0  3  0  0  0  0  0  0
  180.0210  176.7980  140.4810 C   0  0  0  0  0  1  0  0  0  0  0  0
  182.5130  178.9100  141.8520 C   0  0  1  0  0  3  0  0  0  0  0  0
  179.8270  178.4640  143.9610 C   0  0  0  0  0  2  0  0  0  0  0  0
  181.1760  178.8250  141.3440 O   0  0  0  0  0  0  0  0  0  0  0  0
  180.3080  177.7500  141.5860 C   0  0  0  0  0  0  0  0  0  0  0  0
  180.2910  179.7400  143.6130 O   0  0  0  0  0  0  0  0  0  0  0  0
  182.5630  178.8190  143.3900 C   0  0  2  0  0  3  0  0  0  0  0  0
  187.3200  178.1780  142.9300 O   0  0  0  0  0  0  0  0  0  0  0  0
  186.2840  177.7400  143.7440 C   0  0  0  0  0  0  0  0  0  0  0  0
  186.5430  177.2730  144.8850 O   0  0  0  0  0  1  0  0  0  0  0  0
  183.3600  177.9250  139.6670 C   0  0  2  0  0  3  0  0  0  0  0  0
  182.3980  176.5000  138.2670 C   0  0  0  0  0  1  0  0  0  0  0  0
  183.5080  176.6540  139.1000 O   0  0  0  0  0  0  0  0  0  0  0  0
  184.3700  178.9170  139.0790 C   0  0  2  0  0  3  0  0  0  0  0  0
  183.6580  180.2080  138.7050 C   0  0  0  0  0  2  0  0  0  0  0  0
  182.2160  179.9300  138.3270 C   0  0  0  0  0  2  0  0  0  0  0  0
  181.3720  181.1500  138.6280 C   0  0  0  0  0  1  0  0  0  0  0  0
  185.0190  178.3580  137.9450 O   0  0  0  0  0  0  0  0  0  0  0  0
  186.3950  178.1660  137.9350 C   0  0  0  0  0  3  0  0  0  0  0  0
  187.0840  178.5010  138.9320 O   0  0  0  0  0  0  0  0  0  0  0  0
  3  2  1  0  0  0  0
  4 11  1  0  0  0  0
  5  3  1  0  0  0  0
  6  8  1  0  0  0  0
  7 19  1  6  0  0  0
  7  6  1  0  0  0  0
  7 10  1  0  0  0  0
  8 17  1  1  0  0  0
  8  3  1  0  0  0  0
  9 13  1  0  0  0  0
 10 12  1  6  0  0  0
 10 15  1  0  0  0  0
 12 13  1  0  0  0  0
 13  4  2  0  0  0  0
 14 11  1  0  0  0  0
 14  1  1  0  0  0  0
 15  3  1  0  0  0  0
 15  1  1  1  0  0  0
 16 17  2  0  0  0  0
 17 18  1  0  0  0  0
 19 21  1  6  0  0  0
 20 21  1  0  0  0  0
 22 23  1  6  0  0  0
 22 19  1  0  0  0  0
 24 25  1  0  0  0  0
 24 23  1  0  0  0  0
 26 22  1  0  0  0  0
 27 26  1  0  0  0  0
 27 28  2  0  0  0  0
M  END
>  <MODEL>
7

>  <REMARK>
 VINA RESULT:      -4.2      2.341      6.476
  Name = 
  8 active torsions:
  status: ('A' for Active; 'I' for Inactive)
    1  A    between atoms: C_9  and  C_12
    2  A    between atoms: C_9  and  C_13
    3  A    between atoms: C_9  and  O_14
    4  A    between atoms: C_10  and  C_13
    5  A    between atoms: C_11  and  C_22
    6  A    between atoms: C_12  and  C_15
    7  A    between atoms: C_13  and  O_24
    8  A    between atoms: O_14  and  C_18
                            x       y       z     vdW  Elec       q    Type
                         _______ _______ _______ _____ _____    ______ ____

>  <TORSDO>
F 8

$$$$
=
 OpenBabel11052413383D

 28 29  0  0  1  0  0  0  0  0999 V2000
  187.9400  178.2860  137.9610 C   0  0  0  0  0  2  0  0  0  0  0  0
  187.4380  175.6580  136.6390 C   0  0  0  0  0  1  0  0  0  0  0  0
  186.3010  176.6510  136.8430 C   0  0  0  0  0  0  0  0  0  0  0  0
  187.3090  178.2020  141.1500 C   0  0  0  0  0  3  0  0  0  0  0  0
  186.1970  177.5340  135.5990 C   0  0  0  0  0  1  0  0  0  0  0  0
  183.8200  176.7820  137.4340 C   0  0  0  0  0  2  0  0  0  0  0  0
  184.1400  177.6040  138.6810 C   0  0  1  0  0  3  0  0  0  0  0  0
  184.9880  175.8650  137.0790 C   0  0  1  0  0  3  0  0  0  0  0  0
  185.0860  178.6720  142.0070 C   0  0  0  0  0  1  0  0  0  0  0  0
  185.4270  178.4180  138.4900 C   0  0  1  0  0  3  0  0  0  0  0  0
  188.4300  178.1190  140.1520 C   0  0  0  0  0  2  0  0  0  0  0  0
  185.7110  179.1990  139.6580 O   0  0  0  0  0  0  0  0  0  0  0  0
  186.0760  178.6560  140.8990 C   0  0  0  0  0  0  0  0  0  0  0  0
  188.2490  179.0380  139.1080 O   0  0  0  0  0  0  0  0  0  0  0  0
  186.6080  177.5120  138.0900 C   0  0  2  0  0  3  0  0  0  0  0  0
  183.8370  175.4190  134.9070 O   0  0  0  0  0  0  0  0  0  0  0  0
  184.6130  174.9430  135.9550 C   0  0  0  0  0  0  0  0  0  0  0  0
  184.9820  173.7380  135.9600 O   0  0  0  0  0  1  0  0  0  0  0  0
  182.9580  178.4990  139.0880 C   0  0  2  0  0  3  0  0  0  0  0  0
  182.4620  180.5920  138.5520 C   0  0  0  0  0  1  0  0  0  0  0  0
  183.3770  179.8220  139.2710 O   0  0  0  0  0  0  0  0  0  0  0  0
  182.2010  177.9810  140.3160 C   0  0  2  0  0  3  0  0  0  0  0  0
  180.9330  177.2680  139.8710 C   0  0  0  0  0  2  0  0  0  0  0  0
  181.1480  175.7680  139.8420 C   0  0  0  0  0  2  0  0  0  0  0  0
  179.8360  175.0650  140.1180 C   0  0  0  0  0  1  0  0  0  0  0  0
  181.8890  179.0500  141.2000 O   0  0  0  0  0  0  0  0  0  0  0  0
  180.5820  179.2650  141.6230 C   0  0  0  0  0  3  0  0  0  0  0  0
  180.2570  180.3730  142.1220 O   0  0  0  0  0  0  0  0  0  0  0  0
  1 14  1  0  0  0  0
  2  3  1  0  0  0  0
  3  8  1  0  0  0  0
  3 15  1  0  0  0  0
  5  3  1  0  0  0  0
  6  7  1  0  0  0  0
  7 19  1  6  0  0  0
  8 17  1  6  0  0  0
  8  6  1  0  0  0  0
 10  7  1  0  0  0  0
 10 12  1  1  0  0  0
 11  4  1  0  0  0  0
 12 13  1  0  0  0  0
 13  4  2  0  0  0  0
 13  9  1  0  0  0  0
 14 11  1  0  0  0  0
 15  1  1  6  0  0  0
 15 10  1  0  0  0  0
 16 17  2  0  0  0  0
 17 18  1  0  0  0  0
 19 21  1  1  0  0  0
 19 22  1  0  0  0  0
 20 21  1  0  0  0  0
 22 23  1  6  0  0  0
 22 26  1  0  0  0  0
 24 23  1  0  0  0  0
 24 25  1  0  0  0  0
 26 27  1  0  0  0  0
 27 28  2  0  0  0  0
M  END
>  <MODEL>
8

>  <REMARK>
 VINA RESULT:      -4.1      1.565      2.522
  Name = 
  8 active torsions:
  status: ('A' for Active; 'I' for Inactive)
    1  A    between atoms: C_9  and  C_12
    2  A    between atoms: C_9  and  C_13
    3  A    between atoms: C_9  and  O_14
    4  A    between atoms: C_10  and  C_13
    5  A    between atoms: C_11  and  C_22
    6  A    between atoms: C_12  and  C_15
    7  A    between atoms: C_13  and  O_24
    8  A    between atoms: O_14  and  C_18
                            x       y       z     vdW  Elec       q    Type
                         _______ _______ _______ _____ _____    ______ ____

>  <TORSDO>
F 8

$$$$
=
 OpenBabel11052413383D

 28 29  0  0  1  0  0  0  0  0999 V2000
  186.0930  179.2620  142.1760 C   0  0  0  0  0  2  0  0  0  0  0  0
  187.8150  177.3420  143.6760 C   0  0  0  0  0  1  0  0  0  0  0  0
  188.2200  177.8230  142.2890 C   0  0  0  0  0  0  0  0  0  0  0  0
  184.0560  177.7570  140.1350 C   0  0  0  0  0  3  0  0  0  0  0  0
  189.1040  179.0610  142.4420 C   0  0  0  0  0  1  0  0  0  0  0  0
  189.2980  177.0290  140.1140 C   0  0  0  0  0  2  0  0  0  0  0  0
  188.0180  177.3450  139.3410 C   0  0  1  0  0  3  0  0  0  0  0  0
  188.9780  176.6830  141.5660 C   0  0  1  0  0  3  0  0  0  0  0  0
  184.7180  177.2260  137.8600 C   0  0  0  0  0  1  0  0  0  0  0  0
  187.2370  178.4850  140.0090 C   0  0  1  0  0  3  0  0  0  0  0  0
  184.1330  178.3840  141.4990 C   0  0  0  0  0  2  0  0  0  0  0  0
  186.0480  178.7860  139.2690 O   0  0  0  0  0  0  0  0  0  0  0  0
  184.9510  177.9190  139.1540 C   0  0  0  0  0  0  0  0  0  0  0  0
  184.9070  179.5530  141.4780 O   0  0  0  0  0  0  0  0  0  0  0  0
  186.9430  178.1700  141.4890 C   0  0  2  0  0  3  0  0  0  0  0  0
  191.3750  176.9700  142.2070 O   0  0  0  0  0  0  0  0  0  0  0  0
  190.2120  176.2150  142.2820 C   0  0  0  0  0  0  0  0  0  0  0  0
  190.2090  175.1390  142.9360 O   0  0  0  0  0  1  0  0  0  0  0  0
  188.3100  177.6480  137.8620 C   0  0  2  0  0  3  0  0  0  0  0  0
  189.0900  179.6110  137.1920 C   0  0  0  0  0  1  0  0  0  0  0  0
  187.9100  178.9480  137.5330 O   0  0  0  0  0  0  0  0  0  0  0  0
  187.7010  176.6190  136.9020 C   0  0  2  0  0  3  0  0  0  0  0  0
  188.2360  175.2340  137.2310 C   0  0  0  0  0  2  0  0  0  0  0  0
  189.5180  174.9640  136.4690 C   0  0  0  0  0  2  0  0  0  0  0  0
  190.6380  174.6860  137.4490 C   0  0  0  0  0  1  0  0  0  0  0  0
  187.9930  176.9600  135.5530 O   0  0  0  0  0  0  0  0  0  0  0  0
  186.9870  176.9920  134.5940 C   0  0  0  0  0  3  0  0  0  0  0  0
  186.0580  177.8340  134.6850 O   0  0  0  0  0  0  0  0  0  0  0  0
  3  5  1  0  0  0  0
  3  2  1  0  0  0  0
  4 11  1  0  0  0  0
  6  8  1  0  0  0  0
  7 19  1  6  0  0  0
  7 10  1  0  0  0  0
  7  6  1  0  0  0  0
  8 17  1  1  0  0  0
  8  3  1  0  0  0  0
  9 13  1  0  0  0  0
 10 12  1  6  0  0  0
 10 15  1  0  0  0  0
 13 12  1  0  0  0  0
 13  4  2  0  0  0  0
 14 11  1  0  0  0  0
 14  1  1  0  0  0  0
 15  1  1  1  0  0  0
 15  3  1  0  0  0  0
 16 17  2  0  0  0  0
 17 18  1  0  0  0  0
 19 21  1  6  0  0  0
 20 21  1  0  0  0  0
 22 23  1  1  0  0  0
 22 19  1  0  0  0  0
 24 23  1  0  0  0  0
 24 25  1  0  0  0  0
 26 22  1  0  0  0  0
 27 28  2  0  0  0  0
 27 26  1  0  0  0  0
M  END
>  <MODEL>
9

>  <REMARK>
 VINA RESULT:      -4.0      3.197      7.438
  Name = 
  8 active torsions:
  status: ('A' for Active; 'I' for Inactive)
    1  A    between atoms: C_9  and  C_12
    2  A    between atoms: C_9  and  C_13
    3  A    between atoms: C_9  and  O_14
    4  A    between atoms: C_10  and  C_13
    5  A    between atoms: C_11  and  C_22
    6  A    between atoms: C_12  and  C_15
    7  A    between atoms: C_13  and  O_24
    8  A    between atoms: O_14  and  C_18
                            x       y       z     vdW  Elec       q    Type
                         _______ _______ _______ _____ _____    ______ ____

>  <TORSDO>
F 8

$$$$
