=
 OpenBabel11052413593D

 34 38  0  0  1  0  0  0  0  0999 V2000
  181.3110  178.9290  143.2090 C   0  0  0  0  0  0  0  0  0  0  0  0
  183.5510  178.8410  144.2140 C   0  0  0  0  0  0  0  0  0  0  0  0
  183.3180  178.9260  141.7570 C   0  0  0  0  0  0  0  0  0  0  0  0
  185.2590  179.4260  139.3090 N   0  0  0  0  0  0  0  0  0  0  0  0
  179.0100  179.0370  142.2080 C   0  0  0  0  0  1  0  0  0  0  0  0
  183.0290  178.8240  145.5040 O   0  0  0  0  0  1  0  0  0  0  0  0
  185.5060  178.8090  142.8280 C   0  0  0  0  0  3  0  0  0  0  0  0
  182.7220  178.8980  143.0700 C   0  0  0  0  0  0  0  0  0  0  0  0
  185.5880  178.8170  140.4030 C   0  0  0  0  0  0  0  0  0  0  0  0
  180.7060  178.8860  144.4640 O   0  0  0  0  0  1  0  0  0  0  0  0
  182.4390  179.0330  140.6400 C   0  0  0  0  0  0  0  0  0  0  0  0
  180.4940  179.0040  142.0830 C   0  0  0  0  0  0  0  0  0  0  0  0
  184.9270  178.8070  144.0810 C   0  0  0  0  0  3  0  0  0  0  0  0
  184.0140  179.9390  139.0500 O   0  0  0  0  0  0  0  0  0  0  0  0
  182.8580  179.1400  139.2150 C   0  0  1  0  0  3  0  0  0  0  0  0
  184.7510  178.8450  141.6500 C   0  0  0  0  0  0  0  0  0  0  0  0
  181.0590  179.0630  140.8230 C   0  0  0  0  0  3  0  0  0  0  0  0
  183.0960  176.5090  136.4710 C   0  0  0  0  0  0  0  0  0  0  0  0
  183.0450  175.3710  137.2150 N   0  0  0  0  0  0  0  0  0  0  0  0
  182.9440  177.8230  138.4930 C   0  0  0  0  0  0  0  0  0  0  0  0
  182.9420  175.4120  138.5700 C   0  0  0  0  0  3  0  0  0  0  0  0
  183.0440  177.7550  137.0970 C   0  0  0  0  0  3  0  0  0  0  0  0
  182.8870  176.6400  139.2330 C   0  0  0  0  0  3  0  0  0  0  0  0
  183.2020  176.4270  134.9920 C   0  0  0  0  0  1  0  0  0  0  0  0
  186.8370  178.1850  140.4100 O   0  0  0  0  0  0  0  0  0  0  0  0
  187.9650  178.8420  140.7150 O   0  0  0  0  0  0  0  0  0  0  0  0
  188.9310  177.8450  140.8460 C   0  0  0  0  0  2  0  0  0  0  0  0
  188.2610  176.3240  143.2440 C   0  0  0  0  0  1  0  0  0  0  0  0
  189.6760  178.0390  142.0840 N   0  0  0  0  0  0  0  0  0  0  0  0
  188.8220  177.7460  143.2530 C   0  0  2  0  0  3  0  0  0  0  0  0
  191.0690  178.2380  144.3530 C   0  0  0  0  0  2  0  0  0  0  0  0
  191.6500  177.2250  143.3670 C   0  0  0  0  0  2  0  0  0  0  0  0
  190.8500  177.1590  142.0580 C   0  0  0  0  0  2  0  0  0  0  0  0
  189.5760  177.9860  144.5700 C   0  0  0  0  0  2  0  0  0  0  0  0
  1 10  1  0  0  0  0
  2  6  1  0  0  0  0
  3  8  1  0  0  0  0
  4  9  2  0  0  0  0
  7 13  2  0  0  0  0
  8  1  1  0  0  0  0
  8  2  2  0  0  0  0
  9 25  1  0  0  0  0
  9 16  1  0  0  0  0
 11 17  2  0  0  0  0
 11  3  1  0  0  0  0
 12  5  1  0  0  0  0
 12  1  2  0  0  0  0
 13  2  1  0  0  0  0
 14 15  1  0  0  0  0
 14  4  1  0  0  0  0
 15 20  1  1  0  0  0
 15 11  1  0  0  0  0
 16  3  2  0  0  0  0
 16  7  1  0  0  0  0
 17 12  1  0  0  0  0
 18 22  2  0  0  0  0
 18 19  1  0  0  0  0
 19 21  2  0  0  0  0
 20 23  2  0  0  0  0
 21 23  1  0  0  0  0
 22 20  1  0  0  0  0
 24 18  1  0  0  0  0
 25 26  1  0  0  0  0
 26 27  1  0  0  0  0
 27 29  1  0  0  0  0
 29 30  1  0  0  0  0
 30 28  1  6  0  0  0
 30 34  1  0  0  0  0
 31 34  1  0  0  0  0
 32 31  1  0  0  0  0
 33 29  1  0  0  0  0
 33 32  1  0  0  0  0
M  END
>  <MODEL>
1

>  <REMARK>
 VINA RESULT:      -8.8      0.000      0.000
  Name = 
  5 active torsions:
  status: ('A' for Active; 'I' for Inactive)
    1  A    between atoms: C_3  and  N_13
    2  A    between atoms: C_3  and  O_17
    3  A    between atoms: C_12  and  C_28
    4  A    between atoms: O_17  and  O_29
    5  A    between atoms: C_18  and  O_29
                            x       y       z     vdW  Elec       q    Type
                         _______ _______ _______ _____ _____    ______ ____

>  <TORSDO>
F 5

$$$$
=
 OpenBabel11052413593D

 34 38  0  0  1  0  0  0  0  0999 V2000
  182.9630  178.5140  139.7680 C   0  0  0  0  0  0  0  0  0  0  0  0
  184.2060  178.7970  141.8690 C   0  0  0  0  0  0  0  0  0  0  0  0
  185.4390  178.4310  139.7600 C   0  0  0  0  0  0  0  0  0  0  0  0
  188.4520  178.6620  138.8230 N   0  0  0  0  0  0  0  0  0  0  0  0
  181.6690  178.2470  137.6330 C   0  0  0  0  0  1  0  0  0  0  0  0
  183.0350  178.9600  142.6010 O   0  0  0  0  0  1  0  0  0  0  0  0
  186.6010  178.6920  141.8880 C   0  0  0  0  0  3  0  0  0  0  0  0
  184.1940  178.5810  140.4710 C   0  0  0  0  0  0  0  0  0  0  0  0
  188.0690  178.2840  140.0000 C   0  0  0  0  0  0  0  0  0  0  0  0
  181.7430  178.6380  140.4310 O   0  0  0  0  0  1  0  0  0  0  0  0
  185.3720  178.2660  138.3460 C   0  0  0  0  0  0  0  0  0  0  0  0
  182.9500  178.3210  138.3890 C   0  0  0  0  0  0  0  0  0  0  0  0
  185.4040  178.8600  142.5560 C   0  0  0  0  0  3  0  0  0  0  0  0
  187.6030  179.0120  137.8050 O   0  0  0  0  0  0  0  0  0  0  0  0
  186.5400  178.1580  137.4300 C   0  0  1  0  0  3  0  0  0  0  0  0
  186.6670  178.4570  140.5110 C   0  0  0  0  0  0  0  0  0  0  0  0
  184.1410  178.2070  137.6960 C   0  0  0  0  0  3  0  0  0  0  0  0
  186.6270  174.3580  137.1770 C   0  0  0  0  0  0  0  0  0  0  0  0
  187.8820  174.1720  136.6860 N   0  0  0  0  0  0  0  0  0  0  0  0
  186.9870  176.7470  137.1570 C   0  0  0  0  0  0  0  0  0  0  0  0
  188.7060  175.2220  136.4260 C   0  0  0  0  0  3  0  0  0  0  0  0
  186.1580  175.6490  137.4230 C   0  0  0  0  0  3  0  0  0  0  0  0
  188.2730  176.5290  136.6600 C   0  0  0  0  0  3  0  0  0  0  0  0
  185.7560  173.1880  137.4550 C   0  0  0  0  0  1  0  0  0  0  0  0
  189.0650  177.7740  140.8430 O   0  0  0  0  0  0  0  0  0  0  0  0
  188.7970  176.8660  141.7920 O   0  0  0  0  0  0  0  0  0  0  0  0
  190.0480  176.4500  142.2470 C   0  0  0  0  0  2  0  0  0  0  0  0
  191.4530  178.6090  143.6190 C   0  0  0  0  0  1  0  0  0  0  0  0
  190.0880  176.5070  143.7030 N   0  0  0  0  0  0  0  0  0  0  0  0
  191.3170  177.1860  144.1620 C   0  0  2  0  0  3  0  0  0  0  0  0
  190.0990  176.7580  146.3620 C   0  0  0  0  0  2  0  0  0  0  0  0
  188.8890  177.4090  145.6930 C   0  0  0  0  0  2  0  0  0  0  0  0
  188.8900  177.2170  144.1680 C   0  0  0  0  0  2  0  0  0  0  0  0
  191.3980  177.2180  145.6960 C   0  0  0  0  0  2  0  0  0  0  0  0
  1 10  1  0  0  0  0
  1  8  1  0  0  0  0
  2 13  1  0  0  0  0
  2  6  1  0  0  0  0
  3  8  1  0  0  0  0
  3 16  2  0  0  0  0
  4  9  2  0  0  0  0
  5 12  1  0  0  0  0
  7 13  2  0  0  0  0
  8  2  2  0  0  0  0
  9 16  1  0  0  0  0
  9 25  1  0  0  0  0
 11  3  1  0  0  0  0
 12  1  2  0  0  0  0
 14  4  1  0  0  0  0
 15 20  1  1  0  0  0
 15 14  1  0  0  0  0
 15 11  1  0  0  0  0
 16  7  1  0  0  0  0
 17 11  2  0  0  0  0
 17 12  1  0  0  0  0
 18 22  1  0  0  0  0
 18 24  1  0  0  0  0
 19 18  2  0  0  0  0
 20 22  2  0  0  0  0
 21 23  2  0  0  0  0
 21 19  1  0  0  0  0
 23 20  1  0  0  0  0
 25 26  1  0  0  0  0
 26 27  1  0  0  0  0
 27 29  1  0  0  0  0
 29 30  1  0  0  0  0
 29 33  1  0  0  0  0
 30 28  1  1  0  0  0
 30 34  1  0  0  0  0
 32 31  1  0  0  0  0
 33 32  1  0  0  0  0
 34 31  1  0  0  0  0
M  END
>  <MODEL>
2

>  <REMARK>
 VINA RESULT:      -8.0      2.543      3.673
  Name = 
  5 active torsions:
  status: ('A' for Active; 'I' for Inactive)
    1  A    between atoms: C_3  and  N_13
    2  A    between atoms: C_3  and  O_17
    3  A    between atoms: C_12  and  C_28
    4  A    between atoms: O_17  and  O_29
    5  A    between atoms: C_18  and  O_29
                            x       y       z     vdW  Elec       q    Type
                         _______ _______ _______ _____ _____    ______ ____

>  <TORSDO>
F 5

$$$$
=
 OpenBabel11052413593D

 34 38  0  0  1  0  0  0  0  0999 V2000
  185.6980  178.3280  143.8480 C   0  0  0  0  0  0  0  0  0  0  0  0
  187.8060  177.8620  142.6750 C   0  0  0  0  0  0  0  0  0  0  0  0
  185.8010  178.4930  141.3790 C   0  0  0  0  0  0  0  0  0  0  0  0
  185.2100  179.3680  138.3960 N   0  0  0  0  0  0  0  0  0  0  0  0
  183.5610  178.8180  145.0730 C   0  0  0  0  0  1  0  0  0  0  0  0
  188.4730  177.6050  143.8680 O   0  0  0  0  0  1  0  0  0  0  0  0
  187.9210  177.9880  140.2840 C   0  0  0  0  0  3  0  0  0  0  0  0
  186.4400  178.2250  142.6430 C   0  0  0  0  0  0  0  0  0  0  0  0
  186.1150  178.5140  138.7520 C   0  0  0  0  0  0  0  0  0  0  0  0
  186.2830  178.0590  145.0840 O   0  0  0  0  0  1  0  0  0  0  0  0
  184.4360  178.9030  141.4060 C   0  0  0  0  0  0  0  0  0  0  0  0
  184.3570  178.7050  143.8190 C   0  0  0  0  0  0  0  0  0  0  0  0
  188.5300  177.7580  141.5020 C   0  0  0  0  0  3  0  0  0  0  0  0
  184.3670  180.0140  139.2640 O   0  0  0  0  0  0  0  0  0  0  0  0
  183.6220  179.2850  140.2200 C   0  0  1  0  0  3  0  0  0  0  0  0
  186.5700  178.3330  140.1730 C   0  0  0  0  0  0  0  0  0  0  0  0
  183.7460  178.9930  142.6130 C   0  0  0  0  0  3  0  0  0  0  0  0
  181.0780  177.3000  138.1950 C   0  0  0  0  0  0  0  0  0  0  0  0
  181.3930  176.0330  138.5780 N   0  0  0  0  0  0  0  0  0  0  0  0
  182.8370  178.1520  139.6150 C   0  0  0  0  0  0  0  0  0  0  0  0
  182.3980  175.7860  139.4600 C   0  0  0  0  0  3  0  0  0  0  0  0
  181.7930  178.3830  138.7100 C   0  0  0  0  0  3  0  0  0  0  0  0
  183.1360  176.8430  139.9960 C   0  0  0  0  0  3  0  0  0  0  0  0
  179.9700  177.5340  137.2340 C   0  0  0  0  0  1  0  0  0  0  0  0
  186.7420  177.8070  137.7190 O   0  0  0  0  0  0  0  0  0  0  0  0
  186.1330  177.5700  136.5480 O   0  0  0  0  0  0  0  0  0  0  0  0
  186.7040  176.3840  136.0870 C   0  0  0  0  0  2  0  0  0  0  0  0
  184.8730  174.6040  134.6730 C   0  0  0  0  0  1  0  0  0  0  0  0
  186.0960  175.2460  136.7670 N   0  0  0  0  0  0  0  0  0  0  0  0
  184.7850  174.9240  136.1660 C   0  0  2  0  0  3  0  0  0  0  0  0
  185.0410  173.0700  137.8980 C   0  0  0  0  0  2  0  0  0  0  0  0
  186.4170  172.8280  137.2770 C   0  0  0  0  0  2  0  0  0  0  0  0
  187.0140  174.1060  136.6670 C   0  0  0  0  0  2  0  0  0  0  0  0
  184.1090  173.7550  136.8970 C   0  0  0  0  0  2  0  0  0  0  0  0
  1 10  1  0  0  0  0
  2  6  1  0  0  0  0
  3 11  2  0  0  0  0
  3  8  1  0  0  0  0
  4  9  2  0  0  0  0
  4 14  1  0  0  0  0
  7 13  1  0  0  0  0
  8  2  1  0  0  0  0
  8  1  2  0  0  0  0
  9 16  1  0  0  0  0
 11 17  1  0  0  0  0
 12  1  1  0  0  0  0
 12  5  1  0  0  0  0
 13  2  2  0  0  0  0
 14 15  1  0  0  0  0
 15 20  1  6  0  0  0
 15 11  1  0  0  0  0
 16  7  2  0  0  0  0
 16  3  1  0  0  0  0
 17 12  2  0  0  0  0
 18 19  2  0  0  0  0
 18 22  1  0  0  0  0
 19 21  1  0  0  0  0
 20 23  1  0  0  0  0
 21 23  2  0  0  0  0
 22 20  2  0  0  0  0
 24 18  1  0  0  0  0
 25  9  1  0  0  0  0
 26 25  1  0  0  0  0
 27 26  1  0  0  0  0
 27 29  1  0  0  0  0
 30 28  1  6  0  0  0
 30 29  1  0  0  0  0
 30 34  1  0  0  0  0
 32 31  1  0  0  0  0
 33 29  1  0  0  0  0
 33 32  1  0  0  0  0
 34 31  1  0  0  0  0
M  END
>  <MODEL>
3

>  <REMARK>
 VINA RESULT:      -7.8      2.542      5.122
  Name = 
  5 active torsions:
  status: ('A' for Active; 'I' for Inactive)
    1  A    between atoms: C_3  and  N_13
    2  A    between atoms: C_3  and  O_17
    3  A    between atoms: C_12  and  C_28
    4  A    between atoms: O_17  and  O_29
    5  A    between atoms: C_18  and  O_29
                            x       y       z     vdW  Elec       q    Type
                         _______ _______ _______ _____ _____    ______ ____

>  <TORSDO>
F 5

$$$$
=
 OpenBabel11052413593D

 34 38  0  0  1  0  0  0  0  0999 V2000
  185.8550  178.2680  143.8740 C   0  0  0  0  0  0  0  0  0  0  0  0
  187.8680  177.8550  142.5260 C   0  0  0  0  0  0  0  0  0  0  0  0
  185.7690  178.5270  141.4110 C   0  0  0  0  0  0  0  0  0  0  0  0
  184.9510  179.5110  138.5180 N   0  0  0  0  0  0  0  0  0  0  0  0
  183.8170  178.7030  145.2750 C   0  0  0  0  0  1  0  0  0  0  0  0
  188.6250  177.5550  143.6550 O   0  0  0  0  0  1  0  0  0  0  0  0
  187.8000  178.0710  140.1400 C   0  0  0  0  0  3  0  0  0  0  0  0
  186.5030  178.2140  142.6120 C   0  0  0  0  0  0  0  0  0  0  0  0
  185.8820  178.6480  138.7710 C   0  0  0  0  0  0  0  0  0  0  0  0
  186.5330  177.9550  145.0500 O   0  0  0  0  0  1  0  0  0  0  0  0
  184.4100  178.9310  141.5580 C   0  0  0  0  0  0  0  0  0  0  0  0
  184.5160  178.6410  143.9610 C   0  0  0  0  0  0  0  0  0  0  0  0
  188.5000  177.7980  141.2980 C   0  0  0  0  0  3  0  0  0  0  0  0
  184.1770  180.1210  139.4710 O   0  0  0  0  0  0  0  0  0  0  0  0
  183.5070  179.3530  140.4530 C   0  0  1  0  0  3  0  0  0  0  0  0
  186.4430  178.4150  140.1450 C   0  0  0  0  0  0  0  0  0  0  0  0
  183.8140  178.9720  142.8170 C   0  0  0  0  0  3  0  0  0  0  0  0
  180.7760  177.4350  138.6170 C   0  0  0  0  0  0  0  0  0  0  0  0
  181.1670  176.1550  138.8610 N   0  0  0  0  0  0  0  0  0  0  0  0
  182.6800  178.2410  139.8670 C   0  0  0  0  0  0  0  0  0  0  0  0
  182.2810  175.8790  139.5910 C   0  0  0  0  0  3  0  0  0  0  0  0
  181.5240  178.5010  139.1180 C   0  0  0  0  0  3  0  0  0  0  0  0
  183.0560  176.9180  140.1090 C   0  0  0  0  0  3  0  0  0  0  0  0
  179.5500  177.7000  137.8220 C   0  0  0  0  0  1  0  0  0  0  0  0
  186.4280  177.9820  137.6670 O   0  0  0  0  0  0  0  0  0  0  0  0
  186.8400  178.6380  136.5730 O   0  0  0  0  0  0  0  0  0  0  0  0
  187.5970  177.7050  135.8650 C   0  0  0  0  0  2  0  0  0  0  0  0
  189.4680  175.6990  134.8670 C   0  0  0  0  0  1  0  0  0  0  0  0
  188.4980  177.0080  136.7750 N   0  0  0  0  0  0  0  0  0  0  0  0
  188.8240  175.6650  136.2540 C   0  0  2  0  0  3  0  0  0  0  0  0
  190.2710  175.7810  138.3500 C   0  0  0  0  0  2  0  0  0  0  0  0
  190.7660  177.1200  137.8020 C   0  0  0  0  0  2  0  0  0  0  0  0
  189.7120  177.8190  136.9300 C   0  0  0  0  0  2  0  0  0  0  0  0
  189.7390  174.8980  137.2200 C   0  0  0  0  0  2  0  0  0  0  0  0
  1 12  1  0  0  0  0
  1 10  1  0  0  0  0
  2  8  1  0  0  0  0
  2  6  1  0  0  0  0
  3 11  2  0  0  0  0
  3  8  1  0  0  0  0
  4  9  2  0  0  0  0
  4 14  1  0  0  0  0
  7 16  2  0  0  0  0
  7 13  1  0  0  0  0
  8  1  2  0  0  0  0
  9 16  1  0  0  0  0
 11 17  1  0  0  0  0
 12  5  1  0  0  0  0
 13  2  2  0  0  0  0
 14 15  1  0  0  0  0
 15 20  1  6  0  0  0
 15 11  1  0  0  0  0
 16  3  1  0  0  0  0
 17 12  2  0  0  0  0
 18 19  2  0  0  0  0
 18 22  1  0  0  0  0
 19 21  1  0  0  0  0
 20 23  1  0  0  0  0
 21 23  2  0  0  0  0
 22 20  2  0  0  0  0
 24 18  1  0  0  0  0
 25  9  1  0  0  0  0
 26 25  1  0  0  0  0
 27 26  1  0  0  0  0
 27 29  1  0  0  0  0
 29 33  1  0  0  0  0
 30 28  1  6  0  0  0
 30 29  1  0  0  0  0
 30 34  1  0  0  0  0
 32 31  1  0  0  0  0
 33 32  1  0  0  0  0
 34 31  1  0  0  0  0
M  END
>  <MODEL>
4

>  <REMARK>
 VINA RESULT:      -7.7      2.797      4.467
  Name = 
  5 active torsions:
  status: ('A' for Active; 'I' for Inactive)
    1  A    between atoms: C_3  and  N_13
    2  A    between atoms: C_3  and  O_17
    3  A    between atoms: C_12  and  C_28
    4  A    between atoms: O_17  and  O_29
    5  A    between atoms: C_18  and  O_29
                            x       y       z     vdW  Elec       q    Type
                         _______ _______ _______ _____ _____    ______ ____

>  <TORSDO>
F 5

$$$$
=
 OpenBabel11052413593D

 34 38  0  0  1  0  0  0  0  0999 V2000
  189.2280  173.9670  136.4310 C   0  0  0  0  0  0  0  0  0  0  0  0
  186.8800  174.6940  136.4510 C   0  0  0  0  0  0  0  0  0  0  0  0
  188.5900  176.0540  137.6030 C   0  0  0  0  0  0  0  0  0  0  0  0
  188.7140  178.9540  138.8600 N   0  0  0  0  0  0  0  0  0  0  0  0
  191.6220  173.2110  136.3790 C   0  0  0  0  0  1  0  0  0  0  0  0
  186.4810  173.6000  135.6890 O   0  0  0  0  0  1  0  0  0  0  0  0
  186.2370  176.6940  137.6030 C   0  0  0  0  0  3  0  0  0  0  0  0
  188.2300  174.8960  136.8230 C   0  0  0  0  0  0  0  0  0  0  0  0
  187.6710  178.1870  138.8680 C   0  0  0  0  0  0  0  0  0  0  0  0
  188.9080  172.8300  135.6910 O   0  0  0  0  0  1  0  0  0  0  0  0
  189.9700  176.2360  137.9090 C   0  0  0  0  0  0  0  0  0  0  0  0
  190.5600  174.1750  136.7800 C   0  0  0  0  0  0  0  0  0  0  0  0
  185.9060  175.5960  136.8350 C   0  0  0  0  0  3  0  0  0  0  0  0
  189.9230  178.6160  138.3090 O   0  0  0  0  0  0  0  0  0  0  0  0
  190.5490  177.3930  138.6450 C   0  0  1  0  0  3  0  0  0  0  0  0
  187.5460  176.9500  138.0250 C   0  0  0  0  0  0  0  0  0  0  0  0
  190.9170  175.2990  137.5020 C   0  0  0  0  0  3  0  0  0  0  0  0
  189.7670  176.5390  142.2740 C   0  0  0  0  0  0  0  0  0  0  0  0
  190.9460  176.8730  142.8650 N   0  0  0  0  0  0  0  0  0  0  0  0
  190.6750  177.1840  140.1300 C   0  0  0  0  0  0  0  0  0  0  0  0
  191.9910  177.3580  142.1440 C   0  0  0  0  0  3  0  0  0  0  0  0
  189.6100  176.6910  140.8960 C   0  0  0  0  0  3  0  0  0  0  0  0
  191.8720  177.5260  140.7620 C   0  0  0  0  0  3  0  0  0  0  0  0
  188.6440  176.0160  143.0940 C   0  0  0  0  0  1  0  0  0  0  0  0
  186.5910  178.6160  139.6500 O   0  0  0  0  0  0  0  0  0  0  0  0
  186.6850  178.7550  140.9790 O   0  0  0  0  0  0  0  0  0  0  0  0
  185.5130  179.4120  141.3510 C   0  0  0  0  0  2  0  0  0  0  0  0
  183.1000  178.2380  142.5000 C   0  0  0  0  0  1  0  0  0  0  0  0
  185.3380  179.3320  142.7960 N   0  0  0  0  0  0  0  0  0  0  0  0
  183.9040  179.3670  143.1470 C   0  0  2  0  0  3  0  0  0  0  0  0
  184.9960  179.0280  145.4270 C   0  0  0  0  0  2  0  0  0  0  0  0
  185.7500  177.8710  144.7720 C   0  0  0  0  0  2  0  0  0  0  0  0
  185.9640  178.0910  143.2660 C   0  0  0  0  0  2  0  0  0  0  0  0
  183.7010  179.3260  144.6690 C   0  0  0  0  0  2  0  0  0  0  0  0
  1 12  2  0  0  0  0
  1  8  1  0  0  0  0
  2  8  2  0  0  0  0
  2 13  1  0  0  0  0
  3 11  1  0  0  0  0
  3 16  2  0  0  0  0
  4  9  2  0  0  0  0
  5 12  1  0  0  0  0
  6  2  1  0  0  0  0
  7 16  1  0  0  0  0
  8  3  1  0  0  0  0
  9 25  1  0  0  0  0
 10  1  1  0  0  0  0
 11 15  1  0  0  0  0
 12 17  1  0  0  0  0
 13  7  2  0  0  0  0
 14 15  1  0  0  0  0
 14  4  1  0  0  0  0
 15 20  1  1  0  0  0
 16  9  1  0  0  0  0
 17 11  2  0  0  0  0
 18 19  1  0  0  0  0
 18 24  1  0  0  0  0
 20 23  2  0  0  0  0
 20 22  1  0  0  0  0
 21 19  2  0  0  0  0
 22 18  2  0  0  0  0
 23 21  1  0  0  0  0
 25 26  1  0  0  0  0
 26 27  1  0  0  0  0
 27 29  1  0  0  0  0
 29 30  1  0  0  0  0
 29 33  1  0  0  0  0
 30 28  1  6  0  0  0
 30 34  1  0  0  0  0
 32 31  1  0  0  0  0
 33 32  1  0  0  0  0
 34 31  1  0  0  0  0
M  END
>  <MODEL>
5

>  <REMARK>
 VINA RESULT:      -7.6      3.466      8.223
  Name = 
  5 active torsions:
  status: ('A' for Active; 'I' for Inactive)
    1  A    between atoms: C_3  and  N_13
    2  A    between atoms: C_3  and  O_17
    3  A    between atoms: C_12  and  C_28
    4  A    between atoms: O_17  and  O_29
    5  A    between atoms: C_18  and  O_29
                            x       y       z     vdW  Elec       q    Type
                         _______ _______ _______ _____ _____    ______ ____

>  <TORSDO>
F 5

$$$$
=
 OpenBabel11052413593D

 34 38  0  0  1  0  0  0  0  0999 V2000
  181.5260  178.9890  143.1240 C   0  0  0  0  0  0  0  0  0  0  0  0
  183.7200  178.8680  144.2250 C   0  0  0  0  0  0  0  0  0  0  0  0
  183.5890  178.8640  141.7580 C   0  0  0  0  0  0  0  0  0  0  0  0
  185.6430  179.2040  139.3760 N   0  0  0  0  0  0  0  0  0  0  0  0
  179.2730  179.1320  142.0240 C   0  0  0  0  0  1  0  0  0  0  0  0
  183.1450  178.9190  145.4900 O   0  0  0  0  0  1  0  0  0  0  0  0
  185.7270  178.7180  142.9230 C   0  0  0  0  0  3  0  0  0  0  0  0
  182.9400  178.9070  143.0450 C   0  0  0  0  0  0  0  0  0  0  0  0
  185.9070  178.6280  140.5050 C   0  0  0  0  0  0  0  0  0  0  0  0
  180.8690  179.0150  144.3530 O   0  0  0  0  0  1  0  0  0  0  0  0
  182.7610  178.9560  140.6020 C   0  0  0  0  0  0  0  0  0  0  0  0
  180.7590  179.0470  141.9630 C   0  0  0  0  0  0  0  0  0  0  0  0
  185.0970  178.7850  144.1500 C   0  0  0  0  0  3  0  0  0  0  0  0
  184.4280  179.7460  139.0460 O   0  0  0  0  0  0  0  0  0  0  0  0
  183.2400  178.9920  139.1930 C   0  0  1  0  0  3  0  0  0  0  0  0
  185.0210  178.7320  141.7150 C   0  0  0  0  0  0  0  0  0  0  0  0
  181.3760  179.0370  140.7260 C   0  0  0  0  0  3  0  0  0  0  0  0
  183.6610  176.2450  136.5890 C   0  0  0  0  0  0  0  0  0  0  0  0
  183.3720  175.1470  137.3390 N   0  0  0  0  0  0  0  0  0  0  0  0
  183.3110  177.6460  138.5260 C   0  0  0  0  0  0  0  0  0  0  0  0
  183.0500  175.2510  138.6560 C   0  0  0  0  0  3  0  0  0  0  0  0
  183.6330  177.5140  137.1680 C   0  0  0  0  0  3  0  0  0  0  0  0
  183.0120  176.5040  139.2720 C   0  0  0  0  0  3  0  0  0  0  0  0
  184.0030  176.0950  135.1510 C   0  0  0  0  0  1  0  0  0  0  0  0
  187.1330  177.9570  140.5890 O   0  0  0  0  0  0  0  0  0  0  0  0
  188.2980  178.5710  140.3400 O   0  0  0  0  0  0  0  0  0  0  0  0
  189.0250  177.6560  139.5790 C   0  0  0  0  0  2  0  0  0  0  0  0
  190.7280  176.7640  137.3830 C   0  0  0  0  0  1  0  0  0  0  0  0
  188.5320  177.6520  138.2070 N   0  0  0  0  0  0  0  0  0  0  0  0
  189.6470  177.8380  137.2560 C   0  0  2  0  0  3  0  0  0  0  0  0
  187.6670  177.4930  135.6860 C   0  0  0  0  0  2  0  0  0  0  0  0
  187.3690  176.2430  136.5140 C   0  0  0  0  0  2  0  0  0  0  0  0
  187.8450  176.3780  137.9690 C   0  0  0  0  0  2  0  0  0  0  0  0
  189.1420  177.8810  135.8060 C   0  0  0  0  0  2  0  0  0  0  0  0
  1 10  1  0  0  0  0
  2  6  1  0  0  0  0
  3  8  1  0  0  0  0
  4  9  2  0  0  0  0
  7 13  2  0  0  0  0
  8  1  1  0  0  0  0
  8  2  2  0  0  0  0
  9 25  1  0  0  0  0
  9 16  1  0  0  0  0
 11 17  2  0  0  0  0
 11  3  1  0  0  0  0
 12  5  1  0  0  0  0
 12  1  2  0  0  0  0
 13  2  1  0  0  0  0
 14 15  1  0  0  0  0
 14  4  1  0  0  0  0
 15 20  1  1  0  0  0
 15 11  1  0  0  0  0
 16  3  2  0  0  0  0
 16  7  1  0  0  0  0
 17 12  1  0  0  0  0
 18 22  2  0  0  0  0
 18 19  1  0  0  0  0
 19 21  2  0  0  0  0
 20 23  2  0  0  0  0
 21 23  1  0  0  0  0
 22 20  1  0  0  0  0
 24 18  1  0  0  0  0
 26 25  1  0  0  0  0
 27 26  1  0  0  0  0
 29 27  1  0  0  0  0
 30 28  1  6  0  0  0
 30 29  1  0  0  0  0
 31 34  1  0  0  0  0
 31 32  1  0  0  0  0
 32 33  1  0  0  0  0
 33 29  1  0  0  0  0
 34 30  1  0  0  0  0
M  END
>  <MODEL>
6

>  <REMARK>
 VINA RESULT:      -7.6      1.937      3.238
  Name = 
  5 active torsions:
  status: ('A' for Active; 'I' for Inactive)
    1  A    between atoms: C_3  and  N_13
    2  A    between atoms: C_3  and  O_17
    3  A    between atoms: C_12  and  C_28
    4  A    between atoms: O_17  and  O_29
    5  A    between atoms: C_18  and  O_29
                            x       y       z     vdW  Elec       q    Type
                         _______ _______ _______ _____ _____    ______ ____

>  <TORSDO>
F 5

$$$$
=
 OpenBabel11052413593D

 34 38  0  0  1  0  0  0  0  0999 V2000
  185.7950  178.2700  143.7940 C   0  0  0  0  0  0  0  0  0  0  0  0
  187.8890  177.7470  142.6190 C   0  0  0  0  0  0  0  0  0  0  0  0
  185.9070  178.4570  141.3260 C   0  0  0  0  0  0  0  0  0  0  0  0
  185.3500  179.3800  138.3520 N   0  0  0  0  0  0  0  0  0  0  0  0
  183.6730  178.8170  145.0210 C   0  0  0  0  0  1  0  0  0  0  0  0
  188.5450  177.4560  143.8110 O   0  0  0  0  0  1  0  0  0  0  0  0
  188.0120  177.8930  140.2300 C   0  0  0  0  0  3  0  0  0  0  0  0
  186.5350  178.1550  142.5890 C   0  0  0  0  0  0  0  0  0  0  0  0
  186.2260  178.4940  138.7010 C   0  0  0  0  0  0  0  0  0  0  0  0
  186.3690  177.9690  145.0280 O   0  0  0  0  0  1  0  0  0  0  0  0
  184.5570  178.9110  141.3560 C   0  0  0  0  0  0  0  0  0  0  0  0
  184.4680  178.6910  143.7670 C   0  0  0  0  0  0  0  0  0  0  0  0
  188.6100  177.6310  141.4460 C   0  0  0  0  0  3  0  0  0  0  0  0
  184.5280  180.0450  139.2250 O   0  0  0  0  0  0  0  0  0  0  0  0
  183.7570  179.3310  140.1730 C   0  0  1  0  0  3  0  0  0  0  0  0
  186.6720  178.2830  140.1200 C   0  0  0  0  0  0  0  0  0  0  0  0
  183.8690  179.0110  142.5630 C   0  0  0  0  0  3  0  0  0  0  0  0
  181.2390  177.4410  138.0300 C   0  0  0  0  0  0  0  0  0  0  0  0
  181.4180  176.1760  138.4970 N   0  0  0  0  0  0  0  0  0  0  0  0
  182.9370  178.2310  139.5560 C   0  0  0  0  0  0  0  0  0  0  0  0
  182.3230  175.8990  139.4730 C   0  0  0  0  0  3  0  0  0  0  0  0
  181.9930  178.4910  138.5530 C   0  0  0  0  0  3  0  0  0  0  0  0
  183.0970  176.9240  140.0220 C   0  0  0  0  0  3  0  0  0  0  0  0
  180.2360  177.7070  136.9660 C   0  0  0  0  0  1  0  0  0  0  0  0
  186.8310  177.7760  137.6610 O   0  0  0  0  0  0  0  0  0  0  0  0
  186.2100  176.7630  137.0410 O   0  0  0  0  0  0  0  0  0  0  0  0
  187.0570  176.4220  135.9860 C   0  0  0  0  0  2  0  0  0  0  0  0
  189.3330  175.2680  137.4030 C   0  0  0  0  0  1  0  0  0  0  0  0
  187.2860  174.9820  135.9840 N   0  0  0  0  0  0  0  0  0  0  0  0
  188.7260  174.6850  136.1270 C   0  0  2  0  0  3  0  0  0  0  0  0
  187.7030  172.3490  136.1370 C   0  0  0  0  0  2  0  0  0  0  0  0
  186.7660  172.8820  137.2200 C   0  0  0  0  0  2  0  0  0  0  0  0
  186.5160  174.3920  137.0850 C   0  0  0  0  0  2  0  0  0  0  0  0
  188.9910  173.1730  136.0830 C   0  0  0  0  0  2  0  0  0  0  0  0
  1 10  1  0  0  0  0
  2  6  1  0  0  0  0
  3 11  2  0  0  0  0
  3  8  1  0  0  0  0
  4  9  2  0  0  0  0
  4 14  1  0  0  0  0
  7 13  1  0  0  0  0
  8  2  1  0  0  0  0
  8  1  2  0  0  0  0
  9 16  1  0  0  0  0
 11 17  1  0  0  0  0
 12  1  1  0  0  0  0
 12  5  1  0  0  0  0
 13  2  2  0  0  0  0
 14 15  1  0  0  0  0
 15 20  1  6  0  0  0
 15 11  1  0  0  0  0
 16  7  2  0  0  0  0
 16  3  1  0  0  0  0
 17 12  2  0  0  0  0
 18 19  2  0  0  0  0
 18 22  1  0  0  0  0
 19 21  1  0  0  0  0
 20 23  1  0  0  0  0
 21 23  2  0  0  0  0
 22 20  2  0  0  0  0
 24 18  1  0  0  0  0
 25  9  1  0  0  0  0
 26 25  1  0  0  0  0
 27 26  1  0  0  0  0
 29 27  1  0  0  0  0
 29 30  1  0  0  0  0
 29 33  1  0  0  0  0
 30 28  1  1  0  0  0
 31 32  1  0  0  0  0
 33 32  1  0  0  0  0
 34 30  1  0  0  0  0
 34 31  1  0  0  0  0
M  END
>  <MODEL>
7

>  <REMARK>
 VINA RESULT:      -7.5      2.921      4.934
  Name = 
  5 active torsions:
  status: ('A' for Active; 'I' for Inactive)
    1  A    between atoms: C_3  and  N_13
    2  A    between atoms: C_3  and  O_17
    3  A    between atoms: C_12  and  C_28
    4  A    between atoms: O_17  and  O_29
    5  A    between atoms: C_18  and  O_29
                            x       y       z     vdW  Elec       q    Type
                         _______ _______ _______ _____ _____    ______ ____

>  <TORSDO>
F 5

$$$$
=
 OpenBabel11052413593D

 34 38  0  0  1  0  0  0  0  0999 V2000
  186.2150  178.1950  146.7900 C   0  0  0  0  0  0  0  0  0  0  0  0
  184.7270  178.8640  144.9530 C   0  0  0  0  0  0  0  0  0  0  0  0
  186.8680  177.7440  144.4430 C   0  0  0  0  0  0  0  0  0  0  0  0
  188.1840  176.4170  141.8900 N   0  0  0  0  0  0  0  0  0  0  0  0
  187.7090  177.5040  148.6870 C   0  0  0  0  0  1  0  0  0  0  0  0
  183.7830  179.3780  145.8360 O   0  0  0  0  0  1  0  0  0  0  0  0
  185.3520  178.4630  142.6740 C   0  0  0  0  0  3  0  0  0  0  0  0
  185.9300  178.2720  145.4020 C   0  0  0  0  0  0  0  0  0  0  0  0
  187.4050  177.4500  141.8690 C   0  0  0  0  0  0  0  0  0  0  0  0
  185.3360  178.7110  147.7400 O   0  0  0  0  0  1  0  0  0  0  0  0
  188.0420  177.1130  144.9510 C   0  0  0  0  0  0  0  0  0  0  0  0
  187.3910  177.5940  147.2340 C   0  0  0  0  0  0  0  0  0  0  0  0
  184.4490  178.9430  143.6010 C   0  0  0  0  0  3  0  0  0  0  0  0
  188.5590  175.7500  143.0280 O   0  0  0  0  0  0  0  0  0  0  0  0
  189.0950  176.4540  144.1310 C   0  0  1  0  0  3  0  0  0  0  0  0
  186.5700  177.8820  143.0420 C   0  0  0  0  0  0  0  0  0  0  0  0
  188.2800  177.0580  146.3220 C   0  0  0  0  0  3  0  0  0  0  0  0
  192.0550  177.9920  142.2930 C   0  0  0  0  0  0  0  0  0  0  0  0
  192.3770  179.0030  143.1450 N   0  0  0  0  0  0  0  0  0  0  0  0
  190.2420  177.3520  143.7560 C   0  0  0  0  0  0  0  0  0  0  0  0
  191.6760  179.2180  144.2900 C   0  0  0  0  0  3  0  0  0  0  0  0
  190.9840  177.1470  142.5850 C   0  0  0  0  0  3  0  0  0  0  0  0
  190.5970  178.3930  144.6170 C   0  0  0  0  0  3  0  0  0  0  0  0
  192.8480  177.7830  141.0540 C   0  0  0  0  0  1  0  0  0  0  0  0
  187.2940  178.1200  140.6450 O   0  0  0  0  0  0  0  0  0  0  0  0
  188.3580  178.3550  139.8640 O   0  0  0  0  0  0  0  0  0  0  0  0
  187.9830  177.8860  138.6050 C   0  0  0  0  0  2  0  0  0  0  0  0
  189.1270  177.7390  135.9240 C   0  0  0  0  0  1  0  0  0  0  0  0
  188.8370  176.7700  138.2190 N   0  0  0  0  0  0  0  0  0  0  0  0
  188.7420  176.5220  136.7660 C   0  0  2  0  0  3  0  0  0  0  0  0
  190.5140  174.8310  137.4730 C   0  0  0  0  0  2  0  0  0  0  0  0
  191.2090  176.0080  138.1560 C   0  0  0  0  0  2  0  0  0  0  0  0
  190.2160  177.0910  138.6070 C   0  0  0  0  0  2  0  0  0  0  0  0
  189.6020  175.3210  136.3460 C   0  0  0  0  0  2  0  0  0  0  0  0
  1 12  1  0  0  0  0
  1 10  1  0  0  0  0
  2  8  1  0  0  0  0
  2  6  1  0  0  0  0
  3 11  2  0  0  0  0
  3  8  1  0  0  0  0
  4 14  1  0  0  0  0
  7 16  2  0  0  0  0
  7 13  1  0  0  0  0
  8  1  2  0  0  0  0
  9  4  2  0  0  0  0
  9 16  1  0  0  0  0
 11 17  1  0  0  0  0
 12  5  1  0  0  0  0
 13  2  2  0  0  0  0
 14 15  1  0  0  0  0
 15 20  1  6  0  0  0
 15 11  1  0  0  0  0
 16  3  1  0  0  0  0
 17 12  2  0  0  0  0
 18 22  2  0  0  0  0
 18 19  1  0  0  0  0
 19 21  2  0  0  0  0
 20 23  2  0  0  0  0
 21 23  1  0  0  0  0
 22 20  1  0  0  0  0
 24 18  1  0  0  0  0
 25  9  1  0  0  0  0
 26 25  1  0  0  0  0
 27 26  1  0  0  0  0
 29 27  1  0  0  0  0
 29 33  1  0  0  0  0
 30 28  1  6  0  0  0
 30 29  1  0  0  0  0
 31 32  1  0  0  0  0
 32 33  1  0  0  0  0
 34 30  1  0  0  0  0
 34 31  1  0  0  0  0
M  END
>  <MODEL>
8

>  <REMARK>
 VINA RESULT:      -7.4      3.419      7.032
  Name = 
  5 active torsions:
  status: ('A' for Active; 'I' for Inactive)
    1  A    between atoms: C_3  and  N_13
    2  A    between atoms: C_3  and  O_17
    3  A    between atoms: C_12  and  C_28
    4  A    between atoms: O_17  and  O_29
    5  A    between atoms: C_18  and  O_29
                            x       y       z     vdW  Elec       q    Type
                         _______ _______ _______ _____ _____    ______ ____

>  <TORSDO>
F 5

$$$$
=
 OpenBabel11052413593D

 34 38  0  0  1  0  0  0  0  0999 V2000
  183.1100  178.6970  143.8870 C   0  0  0  0  0  0  0  0  0  0  0  0
  185.5500  178.4090  143.9780 C   0  0  0  0  0  0  0  0  0  0  0  0
  184.4370  178.7260  141.7950 C   0  0  0  0  0  0  0  0  0  0  0  0
  185.3750  179.3480  138.8390 N   0  0  0  0  0  0  0  0  0  0  0  0
  180.6190  179.0070  143.8250 C   0  0  0  0  0  1  0  0  0  0  0  0
  185.5380  178.3020  145.3640 O   0  0  0  0  0  1  0  0  0  0  0  0
  186.8490  178.4060  141.9630 C   0  0  0  0  0  3  0  0  0  0  0  0
  184.3650  178.6090  143.2300 C   0  0  0  0  0  0  0  0  0  0  0  0
  186.0340  178.6280  139.6890 C   0  0  0  0  0  0  0  0  0  0  0  0
  183.0080  178.5710  145.2720 O   0  0  0  0  0  1  0  0  0  0  0  0
  183.2210  178.9760  141.0950 C   0  0  0  0  0  0  0  0  0  0  0  0
  181.9460  178.9130  143.1550 C   0  0  0  0  0  0  0  0  0  0  0  0
  186.7720  178.3210  143.3390 C   0  0  0  0  0  3  0  0  0  0  0  0
  184.1670  179.9430  139.0960 O   0  0  0  0  0  0  0  0  0  0  0  0
  183.0940  179.1890  139.6270 C   0  0  1  0  0  3  0  0  0  0  0  0
  185.7190  178.5850  141.1570 C   0  0  0  0  0  0  0  0  0  0  0  0
  182.0110  179.0560  141.7810 C   0  0  0  0  0  3  0  0  0  0  0  0
  182.1290  176.8060  136.8170 C   0  0  0  0  0  0  0  0  0  0  0  0
  182.2330  175.6120  137.4600 N   0  0  0  0  0  0  0  0  0  0  0  0
  182.8050  177.9400  138.8410 C   0  0  0  0  0  0  0  0  0  0  0  0
  182.6080  175.5370  138.7650 C   0  0  0  0  0  3  0  0  0  0  0  0
  182.4100  177.9920  137.4970 C   0  0  0  0  0  3  0  0  0  0  0  0
  182.8980  176.7020  139.4790 C   0  0  0  0  0  3  0  0  0  0  0  0
  181.7100  176.8500  135.3930 C   0  0  0  0  0  1  0  0  0  0  0  0
  187.1450  177.9380  139.1890 O   0  0  0  0  0  0  0  0  0  0  0  0
  187.6300  178.1650  137.9600 O   0  0  0  0  0  0  0  0  0  0  0  0
  188.9670  178.5050  138.1640 C   0  0  0  0  0  2  0  0  0  0  0  0
  190.2750  176.7840  140.1260 C   0  0  0  0  0  1  0  0  0  0  0  0
  189.8260  177.4060  137.7380 N   0  0  0  0  0  0  0  0  0  0  0  0
  190.8600  177.1320  138.7560 C   0  0  2  0  0  3  0  0  0  0  0  0
  191.3080  175.2970  137.0440 C   0  0  0  0  0  2  0  0  0  0  0  0
  189.8150  174.9850  137.1480 C   0  0  0  0  0  2  0  0  0  0  0  0
  188.9840  176.2250  137.5130 C   0  0  0  0  0  2  0  0  0  0  0  0
  191.8020  176.0050  138.3060 C   0  0  0  0  0  2  0  0  0  0  0  0
  1 10  1  0  0  0  0
  2  6  1  0  0  0  0
  3  8  1  0  0  0  0
  4 14  1  0  0  0  0
  4  9  2  0  0  0  0
  7 13  2  0  0  0  0
  8  1  1  0  0  0  0
  8  2  2  0  0  0  0
  9 16  1  0  0  0  0
 11 17  2  0  0  0  0
 11  3  1  0  0  0  0
 12  5  1  0  0  0  0
 12  1  2  0  0  0  0
 13  2  1  0  0  0  0
 14 15  1  0  0  0  0
 15 20  1  6  0  0  0
 15 11  1  0  0  0  0
 16  3  2  0  0  0  0
 16  7  1  0  0  0  0
 17 12  1  0  0  0  0
 18 19  2  0  0  0  0
 18 22  1  0  0  0  0
 19 21  1  0  0  0  0
 20 23  1  0  0  0  0
 21 23  2  0  0  0  0
 22 20  2  0  0  0  0
 24 18  1  0  0  0  0
 25  9  1  0  0  0  0
 26 27  1  0  0  0  0
 26 25  1  0  0  0  0
 29 27  1  0  0  0  0
 29 30  1  0  0  0  0
 30 28  1  1  0  0  0
 31 32  1  0  0  0  0
 31 34  1  0  0  0  0
 32 33  1  0  0  0  0
 33 29  1  0  0  0  0
 34 30  1  0  0  0  0
M  END
>  <MODEL>
9

>  <REMARK>
 VINA RESULT:      -7.4      2.105      3.012
  Name = 
  5 active torsions:
  status: ('A' for Active; 'I' for Inactive)
    1  A    between atoms: C_3  and  N_13
    2  A    between atoms: C_3  and  O_17
    3  A    between atoms: C_12  and  C_28
    4  A    between atoms: O_17  and  O_29
    5  A    between atoms: C_18  and  O_29
                            x       y       z     vdW  Elec       q    Type
                         _______ _______ _______ _____ _____    ______ ____

>  <TORSDO>
F 5

$$$$
