=
 OpenBabel11052413363D

 28 31  0  0  1  0  0  0  0  0999 V2000
  181.9550  175.6820  137.6900 C   0  0  2  0  0  0  0  0  0  0  0  0
  182.2550  174.4420  136.8010 C   0  0  2  0  0  3  0  0  0  0  0  0
  181.1900  178.1320  137.2770 C   0  0  0  0  0  2  0  0  0  0  0  0
  180.2020  173.2580  137.6750 C   0  0  1  0  0  3  0  0  0  0  0  0
  179.8530  174.4800  138.5140 C   0  0  0  0  0  2  0  0  0  0  0  0
  182.5360  177.9110  139.9660 C   0  0  2  0  0  3  0  0  0  0  0  0
  181.1250  175.2280  138.9140 C   0  0  0  0  0  2  0  0  0  0  0  0
  181.8290  180.1130  139.2690 O   0  0  0  0  0  1  0  0  0  0  0  0
  183.6910  177.5590  137.2430 C   0  0  1  0  0  0  0  0  0  0  0  0
  183.4250  176.7100  139.6090 C   0  0  0  0  0  2  0  0  0  0  0  0
  185.0970  178.0600  137.5620 C   0  0  0  0  0  1  0  0  0  0  0  0
  182.6290  178.6400  137.5340 C   0  0  2  0  0  3  0  0  0  0  0  0
  183.6730  177.2180  135.8860 O   0  0  0  0  0  1  0  0  0  0  0  0
  178.9310  172.5470  137.2640 C   0  0  0  0  0  1  0  0  0  0  0  0
  182.7440  179.0930  139.0020 C   0  0  2  0  0  3  0  0  0  0  0  0
  181.1020  176.6630  136.8440 C   0  0  0  0  0  2  0  0  0  0  0  0
  183.3250  176.3370  138.1110 C   0  0  1  0  0  3  0  0  0  0  0  0
  180.9760  173.6790  136.4280 C   0  0  0  0  0  2  0  0  0  0  0  0
  184.0340  178.3900  141.9350 C   0  0  0  0  0  3  0  0  0  0  0  0
  181.6320  178.5990  142.2130 C   0  0  0  0  0  0  0  0  0  0  0  0
  183.1160  179.0470  144.0760 C   0  0  0  0  0  0  0  0  0  0  0  0
  182.7400  178.3100  141.3970 C   0  0  0  0  0  0  0  0  0  0  0  0
  181.8240  178.9670  143.5470 C   0  0  0  0  0  3  0  0  0  0  0  0
  180.3400  178.5230  141.7040 O   0  0  0  0  0  1  0  0  0  0  0  0
  183.2970  179.4050  145.3700 F   0  0  0  0  0  0  0  0  0  0  0  0
  184.2200  178.7580  143.2710 C   0  0  0  0  0  3  0  0  0  0  0  0
  183.2650  173.4750  137.4160 C   0  0  0  0  0  2  0  0  0  0  0  0
  183.5490  172.3390  136.4540 C   0  0  0  0  0  1  0  0  0  0  0  0
  1 16  1  6  0  0  0
  1 17  1  0  0  0  0
  1  7  1  0  0  0  0
  2 27  1  1  0  0  0
  2  1  1  0  0  0  0
  4 14  1  6  0  0  0
  4  5  1  0  0  0  0
  5  7  1  0  0  0  0
  6 22  1  1  0  0  0
  9 12  1  0  0  0  0
  9 11  1  1  0  0  0
  9 17  1  0  0  0  0
 10  6  1  0  0  0  0
 12  3  1  1  0  0  0
 12 15  1  0  0  0  0
 13  9  1  0  0  0  0
 15  8  1  1  0  0  0
 15  6  1  0  0  0  0
 16  3  1  0  0  0  0
 17 10  1  1  0  0  0
 18  2  1  0  0  0  0
 18  4  1  0  0  0  0
 19 26  1  0  0  0  0
 20 23  2  0  0  0  0
 21 25  1  0  0  0  0
 22 19  2  0  0  0  0
 22 20  1  0  0  0  0
 23 21  1  0  0  0  0
 24 20  1  0  0  0  0
 26 21  2  0  0  0  0
 28 27  1  0  0  0  0
M  END
>  <MODEL>
1

>  <REMARK>
 VINA RESULT:      -5.7      0.000      0.000
  Name = 
  2 active torsions:
  status: ('A' for Active; 'I' for Inactive)
    1  A    between atoms: C_2  and  C_3
    2  A    between atoms: C_10  and  C_13
                            x       y       z     vdW  Elec       q    Type
                         _______ _______ _______ _____ _____    ______ ____

>  <TORSDO>
F 2

$$$$
=
 OpenBabel11052413363D

 28 31  0  0  1  0  0  0  0  0999 V2000
  180.6780  177.0970  138.7770 C   0  0  2  0  0  0  0  0  0  0  0  0
  180.7330  176.4360  137.3710 C   0  0  2  0  0  3  0  0  0  0  0  0
  179.1050  178.7750  139.9880 C   0  0  0  0  0  2  0  0  0  0  0  0
  180.1590  174.1810  138.3540 C   0  0  1  0  0  3  0  0  0  0  0  0
  180.0420  174.8120  139.7350 C   0  0  0  0  0  2  0  0  0  0  0  0
  181.8040  178.7390  141.3300 C   0  0  2  0  0  3  0  0  0  0  0  0
  180.9740  176.0180  139.8460 C   0  0  0  0  0  2  0  0  0  0  0  0
  180.1750  180.3080  142.1800 O   0  0  0  0  0  1  0  0  0  0  0  0
  181.0700  179.6560  138.5920 C   0  0  1  0  0  0  0  0  0  0  0  0
  182.6020  178.3130  140.0880 C   0  0  0  0  0  2  0  0  0  0  0  0
  182.1260  180.7500  138.4640 C   0  0  0  0  0  1  0  0  0  0  0  0
  180.1440  179.9060  139.8010 C   0  0  2  0  0  3  0  0  0  0  0  0
  180.3270  179.6590  137.4070 O   0  0  0  0  0  1  0  0  0  0  0  0
  179.2090  173.0080  138.2510 C   0  0  0  0  0  1  0  0  0  0  0  0
  180.9910  180.0230  141.0820 C   0  0  2  0  0  3  0  0  0  0  0  0
  179.2330  177.6210  138.9840 C   0  0  0  0  0  2  0  0  0  0  0  0
  181.7230  178.2750  138.8160 C   0  0  1  0  0  3  0  0  0  0  0  0
  179.8180  175.2070  137.2760 C   0  0  0  0  0  2  0  0  0  0  0  0
  184.0700  179.1670  142.3470 C   0  0  0  0  0  3  0  0  0  0  0  0
  182.2000  178.6790  143.8150 C   0  0  0  0  0  0  0  0  0  0  0  0
  184.4000  179.0970  144.7440 C   0  0  0  0  0  0  0  0  0  0  0  0
  182.7090  178.8670  142.5190 C   0  0  0  0  0  0  0  0  0  0  0  0
  183.0460  178.7950  144.9210 C   0  0  0  0  0  3  0  0  0  0  0  0
  180.8570  178.3770  144.0100 O   0  0  0  0  0  1  0  0  0  0  0  0
  185.2150  179.2090  145.8190 F   0  0  0  0  0  0  0  0  0  0  0  0
  184.9110  179.2830  143.4570 C   0  0  0  0  0  3  0  0  0  0  0  0
  182.1450  176.0560  136.9260 C   0  0  0  0  0  2  0  0  0  0  0  0
  182.4550  176.6860  135.5830 C   0  0  0  0  0  1  0  0  0  0  0  0
  1 17  1  0  0  0  0
  1 16  1  1  0  0  0
  1  7  1  0  0  0  0
  2 27  1  1  0  0  0
  2  1  1  0  0  0  0
  4 14  1  1  0  0  0
  4  5  1  0  0  0  0
  5  7  1  0  0  0  0
  6 22  1  1  0  0  0
  9 11  1  6  0  0  0
  9 17  1  0  0  0  0
  9 12  1  0  0  0  0
 10  6  1  0  0  0  0
 12  3  1  1  0  0  0
 12 15  1  0  0  0  0
 13  9  1  0  0  0  0
 15  6  1  0  0  0  0
 15  8  1  1  0  0  0
 16  3  1  0  0  0  0
 17 10  1  1  0  0  0
 18  2  1  0  0  0  0
 18  4  1  0  0  0  0
 19 22  2  0  0  0  0
 19 26  1  0  0  0  0
 20 24  1  0  0  0  0
 20 23  2  0  0  0  0
 21 23  1  0  0  0  0
 21 25  1  0  0  0  0
 22 20  1  0  0  0  0
 26 21  2  0  0  0  0
 28 27  1  0  0  0  0
M  END
>  <MODEL>
2

>  <REMARK>
 VINA RESULT:      -5.3      1.936      2.591
  Name = 
  2 active torsions:
  status: ('A' for Active; 'I' for Inactive)
    1  A    between atoms: C_2  and  C_3
    2  A    between atoms: C_10  and  C_13
                            x       y       z     vdW  Elec       q    Type
                         _______ _______ _______ _____ _____    ______ ____

>  <TORSDO>
F 2

$$$$
=
 OpenBabel11052413363D

 28 31  0  0  1  0  0  0  0  0999 V2000
  185.5700  176.4330  136.6320 C   0  0  2  0  0  0  0  0  0  0  0  0
  184.5600  175.4160  136.0290 C   0  0  2  0  0  3  0  0  0  0  0  0
  187.1200  178.2990  135.6960 C   0  0  0  0  0  2  0  0  0  0  0  0
  182.6190  176.6470  137.0750 C   0  0  1  0  0  3  0  0  0  0  0  0
  183.5790  177.6900  137.6310 C   0  0  0  0  0  2  0  0  0  0  0  0
  188.0940  177.4110  138.4070 C   0  0  2  0  0  3  0  0  0  0  0  0
  184.9450  177.0610  137.9000 C   0  0  0  0  0  2  0  0  0  0  0  0
  189.4250  179.0600  137.2470 O   0  0  0  0  0  1  0  0  0  0  0  0
  187.9830  175.8870  135.8490 C   0  0  1  0  0  0  0  0  0  0  0  0
  187.5210  175.9880  138.3320 C   0  0  0  0  0  2  0  0  0  0  0  0
  189.2050  175.0060  136.0950 C   0  0  0  0  0  1  0  0  0  0  0  0
  188.3550  177.3850  135.8800 C   0  0  2  0  0  3  0  0  0  0  0  0
  187.4720  175.5430  134.5940 O   0  0  0  0  0  1  0  0  0  0  0  0
  181.2810  177.2930  136.7870 C   0  0  0  0  0  1  0  0  0  0  0  0
  189.0290  177.7210  137.2230 C   0  0  2  0  0  3  0  0  0  0  0  0
  185.7860  177.5500  135.5770 C   0  0  0  0  0  2  0  0  0  0  0  0
  186.9150  175.6760  136.9440 C   0  0  1  0  0  3  0  0  0  0  0  0
  183.1810  176.0460  135.7890 C   0  0  0  0  0  2  0  0  0  0  0  0
  190.0770  177.1890  139.9470 C   0  0  0  0  0  3  0  0  0  0  0  0
  188.0810  178.3000  140.7620 C   0  0  0  0  0  0  0  0  0  0  0  0
  190.0140  178.0590  142.2040 C   0  0  0  0  0  0  0  0  0  0  0  0
  188.7660  177.6390  139.7280 C   0  0  0  0  0  0  0  0  0  0  0  0
  188.7070  178.5080  141.9940 C   0  0  0  0  0  3  0  0  0  0  0  0
  186.7790  178.7510  140.5720 O   0  0  0  0  0  1  0  0  0  0  0  0
  190.6170  178.2640  143.3990 F   0  0  0  0  0  0  0  0  0  0  0  0
  190.6990  177.4000  141.1800 C   0  0  0  0  0  3  0  0  0  0  0  0
  184.4020  174.1420  136.8590 C   0  0  0  0  0  2  0  0  0  0  0  0
  183.5400  173.1410  136.1170 C   0  0  0  0  0  1  0  0  0  0  0  0
  1 16  1  6  0  0  0
  1 17  1  0  0  0  0
  1  7  1  0  0  0  0
  2  1  1  0  0  0  0
  2 27  1  1  0  0  0
  4 14  1  6  0  0  0
  4  5  1  0  0  0  0
  5  7  1  0  0  0  0
  6 22  1  1  0  0  0
  9 12  1  0  0  0  0
  9 11  1  1  0  0  0
  9 17  1  0  0  0  0
 10  6  1  0  0  0  0
 12  3  1  1  0  0  0
 12 15  1  0  0  0  0
 13  9  1  0  0  0  0
 15  8  1  6  0  0  0
 15  6  1  0  0  0  0
 16  3  1  0  0  0  0
 17 10  1  1  0  0  0
 18  2  1  0  0  0  0
 18  4  1  0  0  0  0
 19 26  1  0  0  0  0
 20 23  2  0  0  0  0
 21 25  1  0  0  0  0
 22 19  2  0  0  0  0
 22 20  1  0  0  0  0
 23 21  1  0  0  0  0
 24 20  1  0  0  0  0
 26 21  2  0  0  0  0
 28 27  1  0  0  0  0
M  END
>  <MODEL>
3

>  <REMARK>
 VINA RESULT:      -5.0      4.013      5.498
  Name = 
  2 active torsions:
  status: ('A' for Active; 'I' for Inactive)
    1  A    between atoms: C_2  and  C_3
    2  A    between atoms: C_10  and  C_13
                            x       y       z     vdW  Elec       q    Type
                         _______ _______ _______ _____ _____    ______ ____

>  <TORSDO>
F 2

$$$$
=
 OpenBabel11052413363D

 28 31  0  0  1  0  0  0  0  0999 V2000
  181.0580  177.3120  138.7720 C   0  0  2  0  0  0  0  0  0  0  0  0
  180.9820  177.3710  137.2200 C   0  0  2  0  0  3  0  0  0  0  0  0
  179.3500  177.0510  140.7150 C   0  0  0  0  0  2  0  0  0  0  0  0
  182.1000  175.1150  137.0300 C   0  0  1  0  0  3  0  0  0  0  0  0
  182.1370  175.0040  138.5480 C   0  0  0  0  0  2  0  0  0  0  0  0
  181.8980  178.2940  141.7410 C   0  0  2  0  0  3  0  0  0  0  0  0
  182.2350  176.3930  139.1780 C   0  0  0  0  0  2  0  0  0  0  0  0
  180.0850  178.0440  143.3170 O   0  0  0  0  0  1  0  0  0  0  0  0
  179.9060  179.3900  139.8160 C   0  0  1  0  0  0  0  0  0  0  0  0
  182.3200  178.9330  140.4090 C   0  0  0  0  0  2  0  0  0  0  0  0
  180.0780  180.8630  140.1760 C   0  0  0  0  0  1  0  0  0  0  0  0
  179.4700  178.5590  141.0410 C   0  0  2  0  0  3  0  0  0  0  0  0
  178.9310  179.3210  138.8160 O   0  0  0  0  0  1  0  0  0  0  0  0
  181.9740  173.7330  136.4250 C   0  0  0  0  0  1  0  0  0  0  0  0
  180.4920  178.7440  142.1790 C   0  0  2  0  0  3  0  0  0  0  0  0
  179.7350  176.6790  139.2760 C   0  0  0  0  0  2  0  0  0  0  0  0
  181.2330  178.7790  139.3200 C   0  0  1  0  0  3  0  0  0  0  0  0
  180.9140  175.9720  136.5940 C   0  0  0  0  0  2  0  0  0  0  0  0
  182.5350  178.8660  144.1110 C   0  0  0  0  0  3  0  0  0  0  0  0
  184.2950  178.4990  142.4820 C   0  0  0  0  0  0  0  0  0  0  0  0
  184.8560  179.0530  144.7740 C   0  0  0  0  0  0  0  0  0  0  0  0
  182.9270  178.5550  142.8000 C   0  0  0  0  0  0  0  0  0  0  0  0
  185.2530  178.7470  143.4690 C   0  0  0  0  0  3  0  0  0  0  0  0
  184.7090  178.1970  141.1890 O   0  0  0  0  0  1  0  0  0  0  0  0
  185.7880  179.2920  145.7270 F   0  0  0  0  0  0  0  0  0  0  0  0
  183.4970  179.1130  145.0950 C   0  0  0  0  0  3  0  0  0  0  0  0
  182.1210  178.1630  136.5790 C   0  0  0  0  0  2  0  0  0  0  0  0
  181.8050  178.4420  135.1230 C   0  0  0  0  0  1  0  0  0  0  0  0
  1  7  1  1  0  0  0
  1 16  1  0  0  0  0
  1 17  1  0  0  0  0
  2 27  1  6  0  0  0
  2  1  1  0  0  0  0
  4 14  1  6  0  0  0
  4  5  1  0  0  0  0
  5  7  1  0  0  0  0
  6 15  1  0  0  0  0
  6 22  1  1  0  0  0
  9 11  1  1  0  0  0
  9 12  1  0  0  0  0
 10  6  1  0  0  0  0
 12  3  1  6  0  0  0
 12 15  1  0  0  0  0
 13  9  1  0  0  0  0
 15  8  1  1  0  0  0
 16  3  1  0  0  0  0
 17  9  1  0  0  0  0
 17 10  1  1  0  0  0
 18  4  1  0  0  0  0
 18  2  1  0  0  0  0
 19 26  1  0  0  0  0
 20 22  1  0  0  0  0
 20 23  2  0  0  0  0
 21 26  2  0  0  0  0
 21 25  1  0  0  0  0
 22 19  2  0  0  0  0
 23 21  1  0  0  0  0
 24 20  1  0  0  0  0
 28 27  1  0  0  0  0
M  END
>  <MODEL>
4

>  <REMARK>
 VINA RESULT:      -5.0      1.961      3.695
  Name = 
  2 active torsions:
  status: ('A' for Active; 'I' for Inactive)
    1  A    between atoms: C_2  and  C_3
    2  A    between atoms: C_10  and  C_13
                            x       y       z     vdW  Elec       q    Type
                         _______ _______ _______ _____ _____    ______ ____

>  <TORSDO>
F 2

$$$$
=
 OpenBabel11052413363D

 28 31  0  0  1  0  0  0  0  0999 V2000
  181.3790  177.8040  138.0180 C   0  0  2  0  0  0  0  0  0  0  0  0
  180.0700  177.6880  138.8480 C   0  0  2  0  0  3  0  0  0  0  0  0
  181.9750  178.0140  135.4960 C   0  0  0  0  0  2  0  0  0  0  0  0
  180.4040  180.0070  139.7900 C   0  0  1  0  0  3  0  0  0  0  0  0
  181.6600  180.1710  138.9450 C   0  0  0  0  0  2  0  0  0  0  0  0
  184.3520  176.9810  137.0350 C   0  0  2  0  0  3  0  0  0  0  0  0
  182.3230  178.8130  138.7140 C   0  0  0  0  0  2  0  0  0  0  0  0
  184.5890  177.1600  134.6380 O   0  0  0  0  0  1  0  0  0  0  0  0
  181.7120  175.6890  136.5500 C   0  0  1  0  0  0  0  0  0  0  0  0
  183.5460  176.3280  138.1680 C   0  0  0  0  0  2  0  0  0  0  0  0
  182.2030  174.2440  136.5380 C   0  0  0  0  0  1  0  0  0  0  0  0
  182.4110  176.5290  135.4610 C   0  0  2  0  0  3  0  0  0  0  0  0
  180.3320  175.6580  136.3250 O   0  0  0  0  0  1  0  0  0  0  0  0
  179.7450  181.3560  139.9850 C   0  0  0  0  0  1  0  0  0  0  0  0
  183.9370  176.4520  135.6500 C   0  0  2  0  0  3  0  0  0  0  0  0
  180.9930  178.3620  136.6230 C   0  0  0  0  0  2  0  0  0  0  0  0
  182.0240  176.3720  137.8990 C   0  0  1  0  0  3  0  0  0  0  0  0
  179.4260  179.0580  139.1020 C   0  0  0  0  0  2  0  0  0  0  0  0
  186.4850  175.6440  136.9080 C   0  0  0  0  0  3  0  0  0  0  0  0
  186.5510  177.8620  137.8880 C   0  0  0  0  0  0  0  0  0  0  0  0
  188.5740  176.5360  137.7440 C   0  0  0  0  0  0  0  0  0  0  0  0
  185.8240  176.8260  137.2780 C   0  0  0  0  0  0  0  0  0  0  0  0
  187.9210  177.7140  138.1180 C   0  0  0  0  0  3  0  0  0  0  0  0
  185.9180  179.0410  138.2680 O   0  0  0  0  0  1  0  0  0  0  0  0
  189.9020  176.3970  137.9680 F   0  0  0  0  0  0  0  0  0  0  0  0
  187.8560  175.5010  137.1400 C   0  0  0  0  0  3  0  0  0  0  0  0
  180.2490  176.9530  140.1770 C   0  0  0  0  0  2  0  0  0  0  0  0
  179.2040  175.8640  140.3130 C   0  0  0  0  0  1  0  0  0  0  0  0
  1 16  1  6  0  0  0
  1  7  1  0  0  0  0
  1  2  1  0  0  0  0
  2 18  1  0  0  0  0
  2 27  1  1  0  0  0
  3 16  1  0  0  0  0
  4 14  1  6  0  0  0
  5  4  1  0  0  0  0
  6 22  1  1  0  0  0
  6 10  1  0  0  0  0
  7  5  1  0  0  0  0
  9 11  1  6  0  0  0
  9 17  1  0  0  0  0
 12  3  1  1  0  0  0
 12 15  1  0  0  0  0
 12  9  1  0  0  0  0
 13  9  1  0  0  0  0
 15  8  1  6  0  0  0
 15  6  1  0  0  0  0
 17  1  1  0  0  0  0
 17 10  1  6  0  0  0
 18  4  1  0  0  0  0
 19 26  2  0  0  0  0
 19 22  1  0  0  0  0
 20 23  1  0  0  0  0
 20 24  1  0  0  0  0
 21 25  1  0  0  0  0
 21 23  2  0  0  0  0
 22 20  2  0  0  0  0
 26 21  1  0  0  0  0
 27 28  1  0  0  0  0
M  END
>  <MODEL>
5

>  <REMARK>
 VINA RESULT:      -4.9      3.353      5.753
  Name = 
  2 active torsions:
  status: ('A' for Active; 'I' for Inactive)
    1  A    between atoms: C_2  and  C_3
    2  A    between atoms: C_10  and  C_13
                            x       y       z     vdW  Elec       q    Type
                         _______ _______ _______ _____ _____    ______ ____

>  <TORSDO>
F 2

$$$$
=
 OpenBabel11052413363D

 28 31  0  0  1  0  0  0  0  0999 V2000
  182.5950  177.6450  138.5260 C   0  0  2  0  0  0  0  0  0  0  0  0
  183.4040  178.4240  139.6020 C   0  0  2  0  0  3  0  0  0  0  0  0
  180.8580  178.2600  136.6920 C   0  0  0  0  0  2  0  0  0  0  0  0
  185.5580  178.0180  138.3480 C   0  0  1  0  0  3  0  0  0  0  0  0
  184.7850  177.3000  137.2500 C   0  0  0  0  0  2  0  0  0  0  0  0
  180.6390  175.3340  137.3810 C   0  0  2  0  0  3  0  0  0  0  0  0
  183.5370  176.6340  137.8310 C   0  0  0  0  0  2  0  0  0  0  0  0
  179.0530  176.2080  135.7820 O   0  0  0  0  0  1  0  0  0  0  0  0
  180.0580  177.7190  139.0700 C   0  0  1  0  0  0  0  0  0  0  0  0
  181.1670  175.4610  138.8180 C   0  0  0  0  0  2  0  0  0  0  0  0
  178.9440  177.0970  139.9060 C   0  0  0  0  0  1  0  0  0  0  0  0
  179.7140  177.6920  137.5660 C   0  0  2  0  0  3  0  0  0  0  0  0
  180.2150  179.0380  139.5060 O   0  0  0  0  0  1  0  0  0  0  0  0
  186.7730  178.6950  137.7510 C   0  0  0  0  0  1  0  0  0  0  0  0
  179.4230  176.2440  137.1290 C   0  0  2  0  0  3  0  0  0  0  0  0
  182.1090  178.6790  137.4760 C   0  0  0  0  0  2  0  0  0  0  0  0
  181.3790  176.9360  139.2320 C   0  0  1  0  0  3  0  0  0  0  0  0
  184.6710  179.0640  139.0180 C   0  0  0  0  0  2  0  0  0  0  0  0
  179.2400  173.2520  137.6260 C   0  0  0  0  0  3  0  0  0  0  0  0
  181.1820  173.1930  136.1740 C   0  0  0  0  0  0  0  0  0  0  0  0
  179.8050  171.2170  136.4440 C   0  0  0  0  0  0  0  0  0  0  0  0
  180.3450  173.9000  137.0530 C   0  0  0  0  0  0  0  0  0  0  0  0
  180.9090  171.8560  135.8720 C   0  0  0  0  0  3  0  0  0  0  0  0
  182.2860  173.8110  135.5970 O   0  0  0  0  0  1  0  0  0  0  0  0
  179.5440  169.9210  136.1490 F   0  0  0  0  0  0  0  0  0  0  0  0
  178.9710  171.9150  137.3210 C   0  0  0  0  0  3  0  0  0  0  0  0
  183.7730  177.5800  140.8220 C   0  0  0  0  0  2  0  0  0  0  0  0
  184.3380  178.4660  141.9150 C   0  0  0  0  0  1  0  0  0  0  0  0
  1 16  1  6  0  0  0
  1 17  1  0  0  0  0
  1  2  1  0  0  0  0
  2 27  1  1  0  0  0
  3 16  1  0  0  0  0
  4 14  1  6  0  0  0
  4 18  1  0  0  0  0
  5  7  1  0  0  0  0
  5  4  1  0  0  0  0
  6 22  1  1  0  0  0
  6 10  1  0  0  0  0
  7  1  1  0  0  0  0
  9 17  1  0  0  0  0
  9 13  1  0  0  0  0
  9 11  1  1  0  0  0
 12  3  1  6  0  0  0
 12  9  1  0  0  0  0
 15  8  1  6  0  0  0
 15  6  1  0  0  0  0
 15 12  1  0  0  0  0
 17 10  1  6  0  0  0
 18  2  1  0  0  0  0
 20 22  1  0  0  0  0
 21 26  2  0  0  0  0
 22 19  2  0  0  0  0
 23 20  2  0  0  0  0
 23 21  1  0  0  0  0
 24 20  1  0  0  0  0
 25 21  1  0  0  0  0
 26 19  1  0  0  0  0
 27 28  1  0  0  0  0
M  END
>  <MODEL>
6

>  <REMARK>
 VINA RESULT:      -4.3      3.143      6.926
  Name = 
  2 active torsions:
  status: ('A' for Active; 'I' for Inactive)
    1  A    between atoms: C_2  and  C_3
    2  A    between atoms: C_10  and  C_13
                            x       y       z     vdW  Elec       q    Type
                         _______ _______ _______ _____ _____    ______ ____

>  <TORSDO>
F 2

$$$$
=
 OpenBabel11052413363D

 28 31  0  0  1  0  0  0  0  0999 V2000
  181.8930  177.4690  137.7940 C   0  0  2  0  0  0  0  0  0  0  0  0
  181.5840  175.9600  138.0060 C   0  0  2  0  0  3  0  0  0  0  0  0
  183.4940  179.2130  138.8690 C   0  0  0  0  0  2  0  0  0  0  0  0
  182.6470  175.3810  135.7890 C   0  0  1  0  0  3  0  0  0  0  0  0
  183.0130  176.8440  135.5810 C   0  0  0  0  0  2  0  0  0  0  0  0
  181.2190  180.6190  137.4780 C   0  0  2  0  0  3  0  0  0  0  0  0
  181.9940  177.7480  136.2760 C   0  0  0  0  0  2  0  0  0  0  0  0
  182.8000  182.0020  138.6720 O   0  0  0  0  0  1  0  0  0  0  0  0
  181.1600  178.8430  139.8700 C   0  0  1  0  0  0  0  0  0  0  0  0
  180.2050  179.4730  137.6150 C   0  0  0  0  0  2  0  0  0  0  0  0
  179.9790  179.5050  140.5740 C   0  0  0  0  0  1  0  0  0  0  0  0
  182.3100  179.8460  139.6380 C   0  0  2  0  0  3  0  0  0  0  0  0
  181.5920  177.7940  140.6870 O   0  0  0  0  0  1  0  0  0  0  0  0
  183.6810  174.5010  135.1200 C   0  0  0  0  0  1  0  0  0  0  0  0
  181.7860  181.0560  138.8410 C   0  0  2  0  0  3  0  0  0  0  0  0
  183.2710  177.7540  138.4470 C   0  0  0  0  0  2  0  0  0  0  0  0
  180.7530  178.3130  138.4790 C   0  0  1  0  0  3  0  0  0  0  0  0
  182.5930  175.0590  137.2800 C   0  0  0  0  0  2  0  0  0  0  0  0
  180.2460  182.9430  137.4000 C   0  0  0  0  0  3  0  0  0  0  0  0
  180.4070  181.6720  135.3400 C   0  0  0  0  0  0  0  0  0  0  0  0
  179.4780  183.9100  135.3190 C   0  0  0  0  0  0  0  0  0  0  0  0
  180.6150  181.7680  136.7270 C   0  0  0  0  0  0  0  0  0  0  0  0
  179.8410  182.7420  134.6420 C   0  0  0  0  0  3  0  0  0  0  0  0
  180.7600  180.5170  134.6510 O   0  0  0  0  0  1  0  0  0  0  0  0
  178.9310  184.9450  134.6380 F   0  0  0  0  0  0  0  0  0  0  0  0
  179.6810  184.0110  136.6970 C   0  0  0  0  0  3  0  0  0  0  0  0
  180.1640  175.5610  137.6050 C   0  0  0  0  0  2  0  0  0  0  0  0
  179.4720  174.8700  138.7630 C   0  0  0  0  0  1  0  0  0  0  0  0
  1  7  1  6  0  0  0
  1  2  1  0  0  0  0
  1 16  1  0  0  0  0
  1 17  1  0  0  0  0
  2 27  1  6  0  0  0
  4 14  1  6  0  0  0
  4 18  1  0  0  0  0
  5  4  1  0  0  0  0
  5  7  1  0  0  0  0
  6 22  1  1  0  0  0
  6 10  1  0  0  0  0
  6 15  1  0  0  0  0
  9 11  1  1  0  0  0
  9 13  1  0  0  0  0
 12  3  1  6  0  0  0
 12  9  1  0  0  0  0
 15  8  1  6  0  0  0
 15 12  1  0  0  0  0
 16  3  1  0  0  0  0
 17 10  1  6  0  0  0
 17  9  1  0  0  0  0
 18  2  1  0  0  0  0
 20 22  2  0  0  0  0
 21 26  1  0  0  0  0
 22 19  1  0  0  0  0
 23 21  2  0  0  0  0
 23 20  1  0  0  0  0
 24 20  1  0  0  0  0
 25 21  1  0  0  0  0
 26 19  2  0  0  0  0
 27 28  1  0  0  0  0
M  END
>  <MODEL>
7

>  <REMARK>
 VINA RESULT:      -4.3      3.781      5.894
  Name = 
  2 active torsions:
  status: ('A' for Active; 'I' for Inactive)
    1  A    between atoms: C_2  and  C_3
    2  A    between atoms: C_10  and  C_13
                            x       y       z     vdW  Elec       q    Type
                         _______ _______ _______ _____ _____    ______ ____

>  <TORSDO>
F 2

$$$$
=
 OpenBabel11052413363D

 28 31  0  0  1  0  0  0  0  0999 V2000
  188.3420  177.6740  138.8240 C   0  0  2  0  0  0  0  0  0  0  0  0
  187.8020  178.6150  139.9380 C   0  0  2  0  0  3  0  0  0  0  0  0
  189.8040  177.9540  136.6930 C   0  0  0  0  0  2  0  0  0  0  0  0
  189.3350  177.5570  141.6440 C   0  0  1  0  0  3  0  0  0  0  0  0
  189.9230  176.6610  140.5610 C   0  0  0  0  0  2  0  0  0  0  0  0
  188.1740  175.4250  136.5010 C   0  0  2  0  0  3  0  0  0  0  0  0
  188.8770  176.3800  139.4830 C   0  0  0  0  0  2  0  0  0  0  0  0
  189.5410  175.9990  134.5940 O   0  0  0  0  0  1  0  0  0  0  0  0
  187.2600  178.2610  136.5390 C   0  0  1  0  0  0  0  0  0  0  0  0
  187.0260  175.8980  137.4060 C   0  0  0  0  0  2  0  0  0  0  0  0
  186.0270  178.0790  135.6600 C   0  0  0  0  0  1  0  0  0  0  0  0
  188.5460  177.8380  135.7980 C   0  0  2  0  0  3  0  0  0  0  0  0
  187.3260  179.6150  136.8840 O   0  0  0  0  0  1  0  0  0  0  0  0
  190.3920  177.8490  142.6880 C   0  0  0  0  0  1  0  0  0  0  0  0
  188.4090  176.3810  135.3170 C   0  0  2  0  0  3  0  0  0  0  0  0
  189.5210  178.4060  138.1320 C   0  0  0  0  0  2  0  0  0  0  0  0
  187.1750  177.3840  137.8070 C   0  0  1  0  0  3  0  0  0  0  0  0
  188.8470  178.8690  141.0330 C   0  0  0  0  0  2  0  0  0  0  0  0
  186.8750  173.7130  135.1850 C   0  0  0  0  0  3  0  0  0  0  0  0
  188.7840  172.9830  136.4910 C   0  0  0  0  0  0  0  0  0  0  0  0
  187.5010  171.3750  135.2090 C   0  0  0  0  0  0  0  0  0  0  0  0
  187.9400  174.0150  136.0470 C   0  0  0  0  0  0  0  0  0  0  0  0
  188.5620  171.6690  136.0710 C   0  0  0  0  0  3  0  0  0  0  0  0
  189.8440  173.2560  137.3490 O   0  0  0  0  0  1  0  0  0  0  0  0
  187.2900  170.1010  134.8040 F   0  0  0  0  0  0  0  0  0  0  0  0
  186.6570  172.3970  134.7670 C   0  0  0  0  0  3  0  0  0  0  0  0
  186.5010  178.1290  140.5760 C   0  0  0  0  0  2  0  0  0  0  0  0
  186.0080  179.1430  141.5880 C   0  0  0  0  0  1  0  0  0  0  0  0
  1 16  1  6  0  0  0
  1  7  1  0  0  0  0
  1  2  1  0  0  0  0
  2 27  1  1  0  0  0
  2 18  1  0  0  0  0
  3 16  1  0  0  0  0
  4 14  1  1  0  0  0
  5  4  1  0  0  0  0
  6 22  1  6  0  0  0
  6 10  1  0  0  0  0
  7  5  1  0  0  0  0
  9 11  1  6  0  0  0
  9 13  1  0  0  0  0
  9 17  1  0  0  0  0
 12  9  1  0  0  0  0
 12  3  1  1  0  0  0
 15  8  1  1  0  0  0
 15 12  1  0  0  0  0
 15  6  1  0  0  0  0
 17 10  1  6  0  0  0
 17  1  1  0  0  0  0
 18  4  1  0  0  0  0
 19 22  1  0  0  0  0
 20 24  1  0  0  0  0
 21 23  2  0  0  0  0
 22 20  2  0  0  0  0
 23 20  1  0  0  0  0
 25 21  1  0  0  0  0
 26 19  2  0  0  0  0
 26 21  1  0  0  0  0
 27 28  1  0  0  0  0
M  END
>  <MODEL>
8

>  <REMARK>
 VINA RESULT:      -4.2      5.638      9.108
  Name = 
  2 active torsions:
  status: ('A' for Active; 'I' for Inactive)
    1  A    between atoms: C_2  and  C_3
    2  A    between atoms: C_10  and  C_13
                            x       y       z     vdW  Elec       q    Type
                         _______ _______ _______ _____ _____    ______ ____

>  <TORSDO>
F 2

$$$$
=
 OpenBabel11052413363D

 28 31  0  0  1  0  0  0  0  0999 V2000
  181.3290  175.8200  137.4380 C   0  0  2  0  0  0  0  0  0  0  0  0
  179.9680  175.5290  136.7460 C   0  0  2  0  0  3  0  0  0  0  0  0
  182.0930  176.5720  139.8070 C   0  0  0  0  0  2  0  0  0  0  0  0
  180.4900  173.0590  136.6480 C   0  0  1  0  0  3  0  0  0  0  0  0
  181.8040  173.3070  137.3760 C   0  0  0  0  0  2  0  0  0  0  0  0
  184.2510  177.1690  137.7890 C   0  0  2  0  0  3  0  0  0  0  0  0
  182.3310  174.7060  137.0540 C   0  0  0  0  0  2  0  0  0  0  0  0
  184.6480  177.8780  140.0640 O   0  0  0  0  0  1  0  0  0  0  0  0
  181.5220  178.3380  138.0350 C   0  0  1  0  0  0  0  0  0  0  0  0
  183.3140  177.3100  136.5790 C   0  0  0  0  0  2  0  0  0  0  0  0
  181.8560  179.7260  137.4950 C   0  0  0  0  0  1  0  0  0  0  0  0
  182.3690  178.0000  139.2790 C   0  0  2  0  0  3  0  0  0  0  0  0
  180.1620  178.3390  138.3630 O   0  0  0  0  0  1  0  0  0  0  0  0
  179.9680  171.6830  137.0000 C   0  0  0  0  0  1  0  0  0  0  0  0
  183.8650  178.1240  138.9330 C   0  0  2  0  0  3  0  0  0  0  0  0
  181.0880  175.7680  138.9700 C   0  0  0  0  0  2  0  0  0  0  0  0
  181.8240  177.2460  136.9870 C   0  0  1  0  0  3  0  0  0  0  0  0
  179.4590  174.1120  137.0490 C   0  0  0  0  0  2  0  0  0  0  0  0
  186.2320  178.6270  137.2370 C   0  0  0  0  0  3  0  0  0  0  0  0
  186.4770  176.2170  137.0980 C   0  0  0  0  0  0  0  0  0  0  0  0
  188.3510  177.6620  136.5770 C   0  0  0  0  0  0  0  0  0  0  0  0
  185.6800  177.3430  137.3700 C   0  0  0  0  0  0  0  0  0  0  0  0
  187.8070  176.3800  136.7040 C   0  0  0  0  0  3  0  0  0  0  0  0
  185.9520  174.9340  137.2190 O   0  0  0  0  0  1  0  0  0  0  0  0
  189.6410  177.8150  136.1960 F   0  0  0  0  0  0  0  0  0  0  0  0
  187.5630  178.7850  136.8430 C   0  0  0  0  0  3  0  0  0  0  0  0
  179.9880  175.7520  135.2340 C   0  0  0  0  0  2  0  0  0  0  0  0
  178.9310  176.7650  134.8440 C   0  0  0  0  0  1  0  0  0  0  0  0
  1  7  1  6  0  0  0
  1 16  1  0  0  0  0
  2 27  1  6  0  0  0
  2 18  1  0  0  0  0
  2  1  1  0  0  0  0
  4 14  1  1  0  0  0
  4 18  1  0  0  0  0
  4  5  1  0  0  0  0
  6 22  1  6  0  0  0
  6 15  1  0  0  0  0
  7  5  1  0  0  0  0
  9 11  1  6  0  0  0
  9 13  1  0  0  0  0
  9 12  1  0  0  0  0
 10  6  1  0  0  0  0
 12  3  1  6  0  0  0
 15 12  1  0  0  0  0
 15  8  1  1  0  0  0
 16  3  1  0  0  0  0
 17 10  1  1  0  0  0
 17  1  1  0  0  0  0
 17  9  1  0  0  0  0
 19 22  1  0  0  0  0
 20 24  1  0  0  0  0
 20 22  2  0  0  0  0
 21 23  2  0  0  0  0
 21 26  1  0  0  0  0
 23 20  1  0  0  0  0
 25 21  1  0  0  0  0
 26 19  2  0  0  0  0
 28 27  1  0  0  0  0
M  END
>  <MODEL>
9

>  <REMARK>
 VINA RESULT:      -3.9      3.094      5.039
  Name = 
  2 active torsions:
  status: ('A' for Active; 'I' for Inactive)
    1  A    between atoms: C_2  and  C_3
    2  A    between atoms: C_10  and  C_13
                            x       y       z     vdW  Elec       q    Type
                         _______ _______ _______ _____ _____    ______ ____

>  <TORSDO>
F 2

$$$$
