=
 OpenBabel11052413113D

 31 35  0  0  1  0  0  0  0  0999 V2000
  190.9500  176.5660  136.4110 C   0  0  0  0  0  0  0  0  0  0  0  0
  188.4370  178.0090  138.7780 N   0  0  0  0  0  0  0  0  0  0  0  0
  187.1230  177.9270  138.2350 C   0  0  0  0  0  0  0  0  0  0  0  0
  185.3670  177.6330  136.6240 C   0  0  0  0  0  0  0  0  0  0  0  0
  189.6170  177.3850  138.2490 C   0  0  0  0  0  0  0  0  0  0  0  0
  191.9000  176.1500  137.2930 N   0  0  0  0  0  0  0  0  0  0  0  0
  186.7420  177.6600  136.9200 C   0  0  0  0  0  3  0  0  0  0  0  0
  188.9970  177.2710  141.0510 C   0  0  2  0  0  3  0  0  0  0  0  0
  191.1170  176.3890  135.1770 O   0  0  0  0  0  0  0  0  0  0  0  0
  186.2290  179.0090  141.6040 C   0  0  0  0  0  1  0  0  0  0  0  0
  184.9550  177.3800  135.3600 F   0  0  0  0  0  0  0  0  0  0  0  0
  190.4650  177.1550  140.6210 C   0  0  0  0  0  2  0  0  0  0  0  0
  188.2960  178.3390  140.2060 C   0  0  2  0  0  3  0  0  0  0  0  0
  189.7910  177.1920  136.8740 C   0  0  0  0  0  2  0  0  0  0  0  0
  184.4170  177.8680  137.6390 C   0  0  0  0  0  3  0  0  0  0  0  0
  190.6050  176.9320  139.1400 C   0  0  0  0  0  0  0  0  0  0  0  0
  191.7530  176.3220  138.6340 C   0  0  0  0  0  3  0  0  0  0  0  0
  186.8490  178.3620  140.4600 N   0  0  0  0  0  0  0  0  0  0  0  0
  186.2010  178.1460  139.2160 C   0  0  0  0  0  0  0  0  0  0  0  0
  184.8300  178.1290  138.9570 C   0  0  0  0  0  3  0  0  0  0  0  0
  188.0780  175.5670  143.1360 O   0  0  0  0  0  0  0  0  0  0  0  0
  188.4620  176.7210  143.4670 C   0  0  0  0  0  0  0  0  0  0  0  0
  188.9280  177.6260  142.4610 N   0  0  0  0  0  2  0  0  0  0  0  0
  188.2680  177.9790  147.5680 C   0  0  0  0  0  0  0  0  0  0  0  0
  187.1940  177.4960  145.4560 C   0  0  0  0  0  3  0  0  0  0  0  0
  190.8440  176.8990  145.1700 O   0  0  0  0  0  1  0  0  0  0  0  0
  188.1850  178.3960  148.9250 N   0  0  0  0  0  1  0  0  0  0  0  0
  187.1130  177.9070  146.7880 C   0  0  0  0  0  3  0  0  0  0  0  0
  189.5950  177.2280  145.6810 C   0  0  0  0  0  0  0  0  0  0  0  0
  188.4300  177.1520  144.8840 C   0  0  0  0  0  0  0  0  0  0  0  0
  189.5040  177.6400  147.0150 C   0  0  0  0  0  3  0  0  0  0  0  0
  1 14  1  0  0  0  0
  1  6  1  0  0  0  0
  3  2  1  0  0  0  0
  3 19  1  0  0  0  0
  4  7  1  0  0  0  0
  4 15  2  0  0  0  0
  5  2  1  0  0  0  0
  5 16  2  0  0  0  0
  6 17  2  0  0  0  0
  7  3  2  0  0  0  0
  8 23  1  1  0  0  0
  9  1  2  0  0  0  0
 11  4  1  0  0  0  0
 12  8  1  0  0  0  0
 13  2  1  6  0  0  0
 13 18  1  0  0  0  0
 13  8  1  0  0  0  0
 14  5  1  0  0  0  0
 15 20  1  0  0  0  0
 16 12  1  0  0  0  0
 17 16  1  0  0  0  0
 18 10  1  0  0  0  0
 19 18  1  0  0  0  0
 20 19  2  0  0  0  0
 21 22  2  0  0  0  0
 22 30  1  0  0  0  0
 23 22  1  0  0  0  0
 24 27  1  0  0  0  0
 25 28  1  0  0  0  0
 26 29  1  0  0  0  0
 28 24  2  0  0  0  0
 29 31  2  0  0  0  0
 30 25  2  0  0  0  0
 30 29  1  0  0  0  0
 31 24  1  0  0  0  0
M  END
>  <MODEL>
1

>  <REMARK>
 VINA RESULT:      -9.4      0.000      0.000
  Name = 
  2 active torsions:
  status: ('A' for Active; 'I' for Inactive)
    1  A    between atoms: C_9  and  C_22
    2  A    between atoms: C_15  and  N_23
                            x       y       z     vdW  Elec       q    Type
                         _______ _______ _______ _____ _____    ______ ____

>  <TORSDO>
F 2

$$$$
=
 OpenBabel11052413113D

 31 35  0  0  1  0  0  0  0  0999 V2000
  190.3170  176.2680  142.7160 C   0  0  0  0  0  0  0  0  0  0  0  0
  186.9170  177.5040  143.6740 N   0  0  0  0  0  0  0  0  0  0  0  0
  186.8660  177.8260  145.0600 C   0  0  0  0  0  0  0  0  0  0  0  0
  187.5020  177.9240  147.3730 C   0  0  0  0  0  0  0  0  0  0  0  0
  188.0960  177.1930  142.9150 C   0  0  0  0  0  0  0  0  0  0  0  0
  190.3500  176.6460  141.4090 N   0  0  0  0  0  0  0  0  0  0  0  0
  187.7730  177.4860  146.0640 C   0  0  0  0  0  3  0  0  0  0  0  0
  186.1160  179.0180  141.9160 C   0  0  2  0  0  3  0  0  0  0  0  0
  191.3030  175.6770  143.2250 O   0  0  0  0  0  0  0  0  0  0  0  0
  183.6200  179.1820  144.0900 C   0  0  0  0  0  1  0  0  0  0  0  0
  188.3550  177.6140  148.3770 F   0  0  0  0  0  0  0  0  0  0  0  0
  186.9920  178.2630  140.9070 C   0  0  0  0  0  2  0  0  0  0  0  0
  185.7110  178.0740  143.0530 C   0  0  2  0  0  3  0  0  0  0  0  0
  189.1870  176.5350  143.4930 C   0  0  0  0  0  2  0  0  0  0  0  0
  186.3450  178.6840  147.6440 C   0  0  0  0  0  3  0  0  0  0  0  0
  188.1610  177.5860  141.5680 C   0  0  0  0  0  0  0  0  0  0  0  0
  189.3040  177.2890  140.8250 C   0  0  0  0  0  3  0  0  0  0  0  0
  185.0200  178.7960  144.1300 N   0  0  0  0  0  0  0  0  0  0  0  0
  185.7530  178.5680  145.3240 C   0  0  0  0  0  0  0  0  0  0  0  0
  185.4520  179.0170  146.6110 C   0  0  0  0  0  3  0  0  0  0  0  0
  184.0360  177.4270  140.8040 O   0  0  0  0  0  0  0  0  0  0  0  0
  183.9120  178.6780  140.7120 C   0  0  0  0  0  0  0  0  0  0  0  0
  184.9300  179.5300  141.2460 N   0  0  0  0  0  2  0  0  0  0  0  0
  180.5390  180.4390  138.7230 C   0  0  0  0  0  0  0  0  0  0  0  0
  182.9090  179.9780  138.8500 C   0  0  0  0  0  3  0  0  0  0  0  0
  181.1820  178.4730  141.7680 O   0  0  0  0  0  1  0  0  0  0  0  0
  179.4320  181.0270  138.0500 N   0  0  0  0  0  1  0  0  0  0  0  0
  181.8230  180.5580  138.1900 C   0  0  0  0  0  3  0  0  0  0  0  0
  181.4230  179.1580  140.5830 C   0  0  0  0  0  0  0  0  0  0  0  0
  182.7280  179.2740  140.0510 C   0  0  0  0  0  0  0  0  0  0  0  0
  180.3410  179.7410  139.9150 C   0  0  0  0  0  3  0  0  0  0  0  0
  1  9  2  0  0  0  0
  1 14  1  0  0  0  0
  2  3  1  0  0  0  0
  3 19  2  0  0  0  0
  3  7  1  0  0  0  0
  4 15  1  0  0  0  0
  4 11  1  0  0  0  0
  5 14  1  0  0  0  0
  5  2  1  0  0  0  0
  6  1  1  0  0  0  0
  7  4  2  0  0  0  0
  8 23  1  6  0  0  0
  8 13  1  0  0  0  0
 10 18  1  0  0  0  0
 12 16  1  0  0  0  0
 12  8  1  0  0  0  0
 13  2  1  1  0  0  0
 13 18  1  0  0  0  0
 16  5  2  0  0  0  0
 17  6  2  0  0  0  0
 17 16  1  0  0  0  0
 18 19  1  0  0  0  0
 19 20  1  0  0  0  0
 20 15  2  0  0  0  0
 22 21  2  0  0  0  0
 22 23  1  0  0  0  0
 24 31  1  0  0  0  0
 25 30  2  0  0  0  0
 27 24  1  0  0  0  0
 28 24  2  0  0  0  0
 28 25  1  0  0  0  0
 29 26  1  0  0  0  0
 30 29  1  0  0  0  0
 30 22  1  0  0  0  0
 31 29  2  0  0  0  0
M  END
>  <MODEL>
2

>  <REMARK>
 VINA RESULT:      -9.2      4.014      7.939
  Name = 
  2 active torsions:
  status: ('A' for Active; 'I' for Inactive)
    1  A    between atoms: C_9  and  C_22
    2  A    between atoms: C_15  and  N_23
                            x       y       z     vdW  Elec       q    Type
                         _______ _______ _______ _____ _____    ______ ____

>  <TORSDO>
F 2

$$$$
=
 OpenBabel11052413113D

 31 35  0  0  1  0  0  0  0  0999 V2000
  184.1190  178.8440  144.6410 C   0  0  0  0  0  0  0  0  0  0  0  0
  187.8030  178.1900  144.6150 N   0  0  0  0  0  0  0  0  0  0  0  0
  188.2660  177.8400  145.9150 C   0  0  0  0  0  0  0  0  0  0  0  0
  188.2820  177.5640  148.3000 C   0  0  0  0  0  0  0  0  0  0  0  0
  186.4330  178.3130  144.2040 C   0  0  0  0  0  0  0  0  0  0  0  0
  183.8060  178.5050  143.3610 N   0  0  0  0  0  0  0  0  0  0  0  0
  187.6110  177.9870  147.1380 C   0  0  0  0  0  3  0  0  0  0  0  0
  188.3480  176.8910  142.6050 C   0  0  2  0  0  3  0  0  0  0  0  0
  183.2190  179.2390  145.4250 O   0  0  0  0  0  0  0  0  0  0  0  0
  191.3200  177.0980  144.0590 C   0  0  0  0  0  1  0  0  0  0  0  0
  187.6830  177.6910  149.5070 F   0  0  0  0  0  0  0  0  0  0  0  0
  187.1300  177.5110  141.9080 C   0  0  0  0  0  2  0  0  0  0  0  0
  188.8810  177.8560  143.6680 C   0  0  2  0  0  3  0  0  0  0  0  0
  185.4400  178.7540  145.0860 C   0  0  0  0  0  2  0  0  0  0  0  0
  189.5760  177.0090  148.2120 C   0  0  0  0  0  3  0  0  0  0  0  0
  186.0820  177.9550  142.8910 C   0  0  0  0  0  0  0  0  0  0  0  0
  184.7520  178.0710  142.4850 C   0  0  0  0  0  3  0  0  0  0  0  0
  189.9350  177.2340  144.4800 N   0  0  0  0  0  0  0  0  0  0  0  0
  189.5140  177.2950  145.8330 C   0  0  0  0  0  0  0  0  0  0  0  0
  190.2080  176.8680  146.9650 C   0  0  0  0  0  3  0  0  0  0  0  0
  189.0480  178.5830  140.4260 O   0  0  0  0  0  0  0  0  0  0  0  0
  189.6960  177.5080  140.5480 C   0  0  0  0  0  0  0  0  0  0  0  0
  189.3840  176.6130  141.6200 N   0  0  0  0  0  2  0  0  0  0  0  0
  192.8820  176.5270  137.8420 C   0  0  0  0  0  0  0  0  0  0  0  0
  192.1070  177.3440  139.9820 C   0  0  0  0  0  3  0  0  0  0  0  0
  189.2010  176.4470  137.8570 O   0  0  0  0  0  1  0  0  0  0  0  0
  193.9490  176.2050  136.9590 N   0  0  0  0  0  1  0  0  0  0  0  0
  193.1560  177.0300  139.1140 C   0  0  0  0  0  3  0  0  0  0  0  0
  190.5030  176.6500  138.3000 C   0  0  0  0  0  0  0  0  0  0  0  0
  190.7710  177.1600  139.5910 C   0  0  0  0  0  0  0  0  0  0  0  0
  191.5590  176.3370  137.4370 C   0  0  0  0  0  3  0  0  0  0  0  0
  1 14  1  0  0  0  0
  1  9  2  0  0  0  0
  2  3  1  0  0  0  0
  3  7  1  0  0  0  0
  4 11  1  0  0  0  0
  5  2  1  0  0  0  0
  5 14  1  0  0  0  0
  6  1  1  0  0  0  0
  7  4  2  0  0  0  0
  8 23  1  6  0  0  0
  8 13  1  0  0  0  0
 10 18  1  0  0  0  0
 12  8  1  0  0  0  0
 12 16  1  0  0  0  0
 13 18  1  1  0  0  0
 13  2  1  0  0  0  0
 15  4  1  0  0  0  0
 16  5  2  0  0  0  0
 17 16  1  0  0  0  0
 17  6  2  0  0  0  0
 18 19  1  0  0  0  0
 19  3  2  0  0  0  0
 19 20  1  0  0  0  0
 20 15  2  0  0  0  0
 21 22  2  0  0  0  0
 22 23  1  0  0  0  0
 24 28  1  0  0  0  0
 26 29  1  0  0  0  0
 27 24  1  0  0  0  0
 28 25  2  0  0  0  0
 29 30  2  0  0  0  0
 30 25  1  0  0  0  0
 30 22  1  0  0  0  0
 31 24  2  0  0  0  0
 31 29  1  0  0  0  0
M  END
>  <MODEL>
3

>  <REMARK>
 VINA RESULT:      -9.2      3.749      8.607
  Name = 
  2 active torsions:
  status: ('A' for Active; 'I' for Inactive)
    1  A    between atoms: C_9  and  C_22
    2  A    between atoms: C_15  and  N_23
                            x       y       z     vdW  Elec       q    Type
                         _______ _______ _______ _____ _____    ______ ____

>  <TORSDO>
F 2

$$$$
=
 OpenBabel11052413113D

 31 35  0  0  1  0  0  0  0  0999 V2000
  188.3220  177.8310  136.3230 C   0  0  0  0  0  0  0  0  0  0  0  0
  186.1820  178.5770  139.3000 N   0  0  0  0  0  0  0  0  0  0  0  0
  184.8160  178.2750  139.0320 C   0  0  0  0  0  0  0  0  0  0  0  0
  182.8270  177.7560  137.7910 C   0  0  0  0  0  0  0  0  0  0  0  0
  187.3070  178.2370  138.4750 C   0  0  0  0  0  0  0  0  0  0  0  0
  189.5020  177.5490  136.9400 N   0  0  0  0  0  0  0  0  0  0  0  0
  184.2070  178.0330  137.8010 C   0  0  0  0  0  3  0  0  0  0  0  0
  187.3540  177.8030  141.3140 C   0  0  2  0  0  3  0  0  0  0  0  0
  188.2400  177.7790  135.0690 O   0  0  0  0  0  0  0  0  0  0  0  0
  184.5140  178.9160  142.6120 C   0  0  0  0  0  1  0  0  0  0  0  0
  182.1970  177.5180  136.6180 F   0  0  0  0  0  0  0  0  0  0  0  0
  188.6870  178.0100  140.5820 C   0  0  0  0  0  2  0  0  0  0  0  0
  186.3050  178.7690  140.7550 C   0  0  2  0  0  3  0  0  0  0  0  0
  187.2020  178.1810  137.0810 C   0  0  0  0  0  2  0  0  0  0  0  0
  182.1000  177.7260  138.9990 C   0  0  0  0  0  3  0  0  0  0  0  0
  188.5320  177.9260  139.0890 C   0  0  0  0  0  0  0  0  0  0  0  0
  189.6280  177.5920  138.2930 C   0  0  0  0  0  3  0  0  0  0  0  0
  184.9700  178.4880  141.3000 N   0  0  0  0  0  0  0  0  0  0  0  0
  184.1110  178.2370  140.1990 C   0  0  0  0  0  0  0  0  0  0  0  0
  182.7420  177.9680  140.2260 C   0  0  0  0  0  3  0  0  0  0  0  0
  187.9720  175.8050  143.2430 O   0  0  0  0  0  0  0  0  0  0  0  0
  187.8550  176.9890  143.6610 C   0  0  0  0  0  0  0  0  0  0  0  0
  187.5380  178.0360  142.7390 N   0  0  0  0  0  2  0  0  0  0  0  0
  188.2830  177.9260  147.8300 C   0  0  0  0  0  0  0  0  0  0  0  0
  186.9200  177.7130  145.8440 C   0  0  0  0  0  3  0  0  0  0  0  0
  190.4320  176.8150  145.0550 O   0  0  0  0  0  1  0  0  0  0  0  0
  188.4070  178.2390  149.2120 N   0  0  0  0  0  1  0  0  0  0  0  0
  187.0410  178.0220  147.2010 C   0  0  0  0  0  3  0  0  0  0  0  0
  189.2920  177.2120  145.7420 C   0  0  0  0  0  0  0  0  0  0  0  0
  188.0370  177.3060  145.0970 C   0  0  0  0  0  0  0  0  0  0  0  0
  189.4040  177.5220  147.1020 C   0  0  0  0  0  3  0  0  0  0  0  0
  1  6  1  0  0  0  0
  1 14  1  0  0  0  0
  3  2  1  0  0  0  0
  3 19  1  0  0  0  0
  4  7  1  0  0  0  0
  4 15  2  0  0  0  0
  5 16  2  0  0  0  0
  5  2  1  0  0  0  0
  6 17  2  0  0  0  0
  7  3  2  0  0  0  0
  8 23  1  1  0  0  0
  9  1  2  0  0  0  0
 11  4  1  0  0  0  0
 12  8  1  0  0  0  0
 13  2  1  6  0  0  0
 13 18  1  0  0  0  0
 13  8  1  0  0  0  0
 14  5  1  0  0  0  0
 15 20  1  0  0  0  0
 16 12  1  0  0  0  0
 17 16  1  0  0  0  0
 18 10  1  0  0  0  0
 19 20  2  0  0  0  0
 19 18  1  0  0  0  0
 21 22  2  0  0  0  0
 22 30  1  0  0  0  0
 23 22  1  0  0  0  0
 24 27  1  0  0  0  0
 25 28  2  0  0  0  0
 26 29  1  0  0  0  0
 28 24  1  0  0  0  0
 29 31  1  0  0  0  0
 30 29  2  0  0  0  0
 30 25  1  0  0  0  0
 31 24  2  0  0  0  0
M  END
>  <MODEL>
4

>  <REMARK>
 VINA RESULT:      -9.0      1.461      2.050
  Name = 
  2 active torsions:
  status: ('A' for Active; 'I' for Inactive)
    1  A    between atoms: C_9  and  C_22
    2  A    between atoms: C_15  and  N_23
                            x       y       z     vdW  Elec       q    Type
                         _______ _______ _______ _____ _____    ______ ____

>  <TORSDO>
F 2

$$$$
=
 OpenBabel11052413113D

 31 35  0  0  1  0  0  0  0  0999 V2000
  188.1830  177.5040  148.0930 C   0  0  0  0  0  0  0  0  0  0  0  0
  187.5200  177.5530  144.4110 N   0  0  0  0  0  0  0  0  0  0  0  0
  186.2450  178.1240  144.1320 C   0  0  0  0  0  0  0  0  0  0  0  0
  184.0200  178.9490  144.4960 C   0  0  0  0  0  0  0  0  0  0  0  0
  188.1920  177.5500  145.6790 C   0  0  0  0  0  0  0  0  0  0  0  0
  189.5420  177.5750  148.0940 N   0  0  0  0  0  0  0  0  0  0  0  0
  185.1940  178.3730  145.0150 C   0  0  0  0  0  3  0  0  0  0  0  0
  189.5760  178.2400  143.2590 C   0  0  2  0  0  3  0  0  0  0  0  0
  187.5550  177.4490  149.1820 O   0  0  0  0  0  0  0  0  0  0  0  0
  187.4870  177.9240  140.7060 C   0  0  0  0  0  1  0  0  0  0  0  0
  182.9760  179.2050  145.3170 F   0  0  0  0  0  0  0  0  0  0  0  0
  190.3880  177.6690  144.4300 C   0  0  0  0  0  2  0  0  0  0  0  0
  188.2510  177.4820  143.1340 C   0  0  2  0  0  3  0  0  0  0  0  0
  187.4830  177.4900  146.8840 C   0  0  0  0  0  2  0  0  0  0  0  0
  183.9270  179.2600  143.1230 C   0  0  0  0  0  3  0  0  0  0  0  0
  189.5940  177.6390  145.7070 C   0  0  0  0  0  0  0  0  0  0  0  0
  190.2540  177.6380  146.9360 C   0  0  0  0  0  3  0  0  0  0  0  0
  187.3660  178.1070  142.1420 N   0  0  0  0  0  0  0  0  0  0  0  0
  186.1550  178.4340  142.8070 C   0  0  0  0  0  0  0  0  0  0  0  0
  185.0050  179.0030  142.2590 C   0  0  0  0  0  3  0  0  0  0  0  0
  190.4310  175.7890  142.0950 O   0  0  0  0  0  0  0  0  0  0  0  0
  190.7370  176.8490  141.4860 C   0  0  0  0  0  0  0  0  0  0  0  0
  190.3410  178.1140  142.0270 N   0  0  0  0  0  2  0  0  0  0  0  0
  193.0500  176.7370  137.8710 C   0  0  0  0  0  0  0  0  0  0  0  0
  192.8640  177.1580  140.2440 C   0  0  0  0  0  3  0  0  0  0  0  0
  189.5880  176.0420  138.9100 O   0  0  0  0  0  1  0  0  0  0  0  0
  193.8310  176.7040  136.6830 N   0  0  0  0  0  1  0  0  0  0  0  0
  193.6310  177.1270  139.0770 C   0  0  0  0  0  3  0  0  0  0  0  0
  190.9260  176.4060  138.9940 C   0  0  0  0  0  0  0  0  0  0  0  0
  191.5060  176.8010  140.2220 C   0  0  0  0  0  0  0  0  0  0  0  0
  191.7010  176.3780  137.8300 C   0  0  0  0  0  3  0  0  0  0  0  0
  1  6  1  0  0  0  0
  1  9  2  0  0  0  0
  2  5  1  0  0  0  0
  3  2  1  0  0  0  0
  3  7  1  0  0  0  0
  4  7  2  0  0  0  0
  4 11  1  0  0  0  0
  5 16  2  0  0  0  0
  5 14  1  0  0  0  0
  8 23  1  6  0  0  0
  8 12  1  0  0  0  0
 10 18  1  0  0  0  0
 12 16  1  0  0  0  0
 13 18  1  6  0  0  0
 13  8  1  0  0  0  0
 13  2  1  0  0  0  0
 14  1  1  0  0  0  0
 15  4  1  0  0  0  0
 16 17  1  0  0  0  0
 17  6  2  0  0  0  0
 18 19  1  0  0  0  0
 19  3  2  0  0  0  0
 20 19  1  0  0  0  0
 20 15  2  0  0  0  0
 22 23  1  0  0  0  0
 22 21  2  0  0  0  0
 24 28  1  0  0  0  0
 26 29  1  0  0  0  0
 27 24  1  0  0  0  0
 28 25  2  0  0  0  0
 29 30  2  0  0  0  0
 30 25  1  0  0  0  0
 30 22  1  0  0  0  0
 31 24  2  0  0  0  0
 31 29  1  0  0  0  0
M  END
>  <MODEL>
5

>  <REMARK>
 VINA RESULT:      -8.9      2.920      7.738
  Name = 
  2 active torsions:
  status: ('A' for Active; 'I' for Inactive)
    1  A    between atoms: C_9  and  C_22
    2  A    between atoms: C_15  and  N_23
                            x       y       z     vdW  Elec       q    Type
                         _______ _______ _______ _____ _____    ______ ____

>  <TORSDO>
F 2

$$$$
=
 OpenBabel11052413113D

 31 35  0  0  1  0  0  0  0  0999 V2000
  190.8800  177.1250  146.5410 C   0  0  0  0  0  0  0  0  0  0  0  0
  189.0550  178.0390  143.4060 N   0  0  0  0  0  0  0  0  0  0  0  0
  189.8650  177.8020  142.2590 C   0  0  0  0  0  0  0  0  0  0  0  0
  191.8190  177.3580  140.9360 C   0  0  0  0  0  0  0  0  0  0  0  0
  189.3410  177.6260  144.7510 C   0  0  0  0  0  0  0  0  0  0  0  0
  189.8310  176.7960  147.3430 N   0  0  0  0  0  0  0  0  0  0  0  0
  191.2390  177.5650  142.2010 C   0  0  0  0  0  3  0  0  0  0  0  0
  186.7380  177.2500  143.5960 C   0  0  2  0  0  3  0  0  0  0  0  0
  192.0560  177.0500  146.9820 O   0  0  0  0  0  0  0  0  0  0  0  0
  186.7300  178.5310  140.5390 C   0  0  0  0  0  1  0  0  0  0  0  0
  193.1480  177.1280  140.8350 F   0  0  0  0  0  0  0  0  0  0  0  0
  186.8520  177.3740  145.1210 C   0  0  0  0  0  2  0  0  0  0  0  0
  187.6790  178.2560  142.9260 C   0  0  2  0  0  3  0  0  0  0  0  0
  190.6530  177.5460  145.2290 C   0  0  0  0  0  2  0  0  0  0  0  0
  191.0210  177.3900  139.7740 C   0  0  0  0  0  3  0  0  0  0  0  0
  188.2750  177.2660  145.5930 C   0  0  0  0  0  0  0  0  0  0  0  0
  188.5460  176.8610  146.9010 C   0  0  0  0  0  3  0  0  0  0  0  0
  187.7360  178.0530  141.4730 N   0  0  0  0  0  0  0  0  0  0  0  0
  189.0950  177.8240  141.1340 C   0  0  0  0  0  0  0  0  0  0  0  0
  189.6380  177.6250  139.8640 C   0  0  0  0  0  3  0  0  0  0  0  0
  185.1090  179.3880  144.5280 O   0  0  0  0  0  0  0  0  0  0  0  0
  184.5960  178.6020  143.6860 C   0  0  0  0  0  0  0  0  0  0  0  0
  185.3640  177.5030  143.1860 N   0  0  0  0  0  2  0  0  0  0  0  0
  180.5350  179.1740  142.4150 C   0  0  0  0  0  0  0  0  0  0  0  0
  182.1690  178.8180  144.1610 C   0  0  0  0  0  3  0  0  0  0  0  0
  183.8690  178.9680  140.8670 O   0  0  0  0  0  1  0  0  0  0  0  0
  179.1840  179.3640  142.0120 N   0  0  0  0  0  1  0  0  0  0  0  0
  180.8420  179.0020  143.7650 C   0  0  0  0  0  3  0  0  0  0  0  0
  182.8850  178.9750  141.8490 C   0  0  0  0  0  0  0  0  0  0  0  0
  183.2060  178.8010  143.2150 C   0  0  0  0  0  0  0  0  0  0  0  0
  181.5540  179.1600  141.4610 C   0  0  0  0  0  3  0  0  0  0  0  0
  1  9  2  0  0  0  0
  1  6  1  0  0  0  0
  2  5  1  0  0  0  0
  3  2  1  0  0  0  0
  4  7  2  0  0  0  0
  5 14  1  0  0  0  0
  5 16  2  0  0  0  0
  7  3  1  0  0  0  0
  8 23  1  6  0  0  0
  8 12  1  0  0  0  0
 10 18  1  0  0  0  0
 11  4  1  0  0  0  0
 12 16  1  0  0  0  0
 13 18  1  6  0  0  0
 13  2  1  0  0  0  0
 13  8  1  0  0  0  0
 14  1  1  0  0  0  0
 15 20  2  0  0  0  0
 15  4  1  0  0  0  0
 16 17  1  0  0  0  0
 17  6  2  0  0  0  0
 19 18  1  0  0  0  0
 19  3  2  0  0  0  0
 20 19  1  0  0  0  0
 22 21  2  0  0  0  0
 23 22  1  0  0  0  0
 24 28  1  0  0  0  0
 26 29  1  0  0  0  0
 27 24  1  0  0  0  0
 28 25  2  0  0  0  0
 29 30  2  0  0  0  0
 30 22  1  0  0  0  0
 30 25  1  0  0  0  0
 31 29  1  0  0  0  0
 31 24  2  0  0  0  0
M  END
>  <MODEL>
6

>  <REMARK>
 VINA RESULT:      -8.8      3.624      7.177
  Name = 
  2 active torsions:
  status: ('A' for Active; 'I' for Inactive)
    1  A    between atoms: C_9  and  C_22
    2  A    between atoms: C_15  and  N_23
                            x       y       z     vdW  Elec       q    Type
                         _______ _______ _______ _____ _____    ______ ____

>  <TORSDO>
F 2

$$$$
=
 OpenBabel11052413113D

 31 35  0  0  1  0  0  0  0  0999 V2000
  190.5490  177.0800  147.2720 C   0  0  0  0  0  0  0  0  0  0  0  0
  188.0260  177.3050  144.5180 N   0  0  0  0  0  0  0  0  0  0  0  0
  186.7780  177.7830  145.0100 C   0  0  0  0  0  0  0  0  0  0  0  0
  185.0590  178.3940  146.5710 C   0  0  0  0  0  0  0  0  0  0  0  0
  189.2700  177.2780  145.2340 C   0  0  0  0  0  0  0  0  0  0  0  0
  191.6960  177.2650  146.5630 N   0  0  0  0  0  0  0  0  0  0  0  0
  186.3500  177.8870  146.3340 C   0  0  0  0  0  3  0  0  0  0  0  0
  189.1260  178.2330  142.5300 C   0  0  2  0  0  3  0  0  0  0  0  0
  190.6000  176.9050  148.5170 O   0  0  0  0  0  0  0  0  0  0  0  0
  186.0110  177.9030  141.4440 C   0  0  0  0  0  1  0  0  0  0  0  0
  184.6040  178.5090  147.8400 F   0  0  0  0  0  0  0  0  0  0  0  0
  190.4570  177.6600  143.0340 C   0  0  0  0  0  2  0  0  0  0  0  0
  187.9670  177.3760  143.0480 C   0  0  2  0  0  3  0  0  0  0  0  0
  189.3140  177.0830  146.6190 C   0  0  0  0  0  2  0  0  0  0  0  0
  184.2380  178.7820  145.4920 C   0  0  0  0  0  3  0  0  0  0  0  0
  190.4670  177.4820  144.5270 C   0  0  0  0  0  0  0  0  0  0  0  0
  191.6790  177.4600  145.2170 C   0  0  0  0  0  3  0  0  0  0  0  0
  186.6670  177.9860  142.7390 N   0  0  0  0  0  0  0  0  0  0  0  0
  185.9840  178.1670  143.9700 C   0  0  0  0  0  0  0  0  0  0  0  0
  184.6990  178.6710  144.1690 C   0  0  0  0  0  3  0  0  0  0  0  0
  190.1460  176.1700  140.8560 O   0  0  0  0  0  0  0  0  0  0  0  0
  189.6440  177.1750  140.2850 C   0  0  0  0  0  0  0  0  0  0  0  0
  189.1220  178.2490  141.0740 N   0  0  0  0  0  2  0  0  0  0  0  0
  189.4460  177.5030  136.0080 C   0  0  0  0  0  0  0  0  0  0  0  0
  188.8610  178.2990  138.2150 C   0  0  0  0  0  3  0  0  0  0  0  0
  191.0040  175.2850  138.4990 O   0  0  0  0  0  1  0  0  0  0  0  0
  189.3710  177.6270  134.5940 N   0  0  0  0  0  1  0  0  0  0  0  0
  188.7850  178.4210  136.8260 C   0  0  0  0  0  3  0  0  0  0  0  0
  190.2610  176.3340  137.9710 C   0  0  0  0  0  0  0  0  0  0  0  0
  189.5950  177.2590  138.8070 C   0  0  0  0  0  0  0  0  0  0  0  0
  190.1810  176.4630  136.5800 C   0  0  0  0  0  3  0  0  0  0  0  0
  1  9  2  0  0  0  0
  2  3  1  0  0  0  0
  2  5  1  0  0  0  0
  3  7  1  0  0  0  0
  4 11  1  0  0  0  0
  5 14  1  0  0  0  0
  6  1  1  0  0  0  0
  7  4  2  0  0  0  0
  8 23  1  6  0  0  0
  8 12  1  0  0  0  0
  8 13  1  0  0  0  0
 10 18  1  0  0  0  0
 12 16  1  0  0  0  0
 13 18  1  1  0  0  0
 13  2  1  0  0  0  0
 14  1  1  0  0  0  0
 15  4  1  0  0  0  0
 16 17  1  0  0  0  0
 16  5  2  0  0  0  0
 17  6  2  0  0  0  0
 18 19  1  0  0  0  0
 19 20  1  0  0  0  0
 19  3  2  0  0  0  0
 20 15  2  0  0  0  0
 22 21  2  0  0  0  0
 22 23  1  0  0  0  0
 24 31  2  0  0  0  0
 24 28  1  0  0  0  0
 25 30  1  0  0  0  0
 27 24  1  0  0  0  0
 28 25  2  0  0  0  0
 29 26  1  0  0  0  0
 29 30  2  0  0  0  0
 30 22  1  0  0  0  0
 31 29  1  0  0  0  0
M  END
>  <MODEL>
7

>  <REMARK>
 VINA RESULT:      -8.4      3.150      7.924
  Name = 
  2 active torsions:
  status: ('A' for Active; 'I' for Inactive)
    1  A    between atoms: C_9  and  C_22
    2  A    between atoms: C_15  and  N_23
                            x       y       z     vdW  Elec       q    Type
                         _______ _______ _______ _____ _____    ______ ____

>  <TORSDO>
F 2

$$$$
=
 OpenBabel11052413113D

 31 35  0  0  1  0  0  0  0  0999 V2000
  184.7760  178.6970  139.5840 C   0  0  0  0  0  0  0  0  0  0  0  0
  188.3150  178.1630  140.6770 N   0  0  0  0  0  0  0  0  0  0  0  0
  188.3700  177.7630  142.0430 C   0  0  0  0  0  0  0  0  0  0  0  0
  187.6620  177.3670  144.3020 C   0  0  0  0  0  0  0  0  0  0  0  0
  187.1340  178.2630  139.8660 C   0  0  0  0  0  0  0  0  0  0  0  0
  184.8890  178.4130  138.2580 N   0  0  0  0  0  0  0  0  0  0  0  0
  187.3630  177.8260  143.0070 C   0  0  0  0  0  3  0  0  0  0  0  0
  189.5130  176.9850  138.8870 C   0  0  2  0  0  3  0  0  0  0  0  0
  183.6610  179.0230  140.0650 O   0  0  0  0  0  0  0  0  0  0  0  0
  191.8770  177.2140  141.1980 C   0  0  0  0  0  1  0  0  0  0  0  0
  186.7150  177.4140  145.2680 F   0  0  0  0  0  0  0  0  0  0  0  0
  188.5410  177.6010  137.8710 C   0  0  0  0  0  2  0  0  0  0  0  0
  189.6460  177.9120  140.0990 C   0  0  2  0  0  3  0  0  0  0  0  0
  185.8990  178.6270  140.4130 C   0  0  0  0  0  2  0  0  0  0  0  0
  188.9440  176.8590  144.5990 C   0  0  0  0  0  3  0  0  0  0  0  0
  187.2220  177.9610  138.4970 C   0  0  0  0  0  0  0  0  0  0  0  0
  186.0780  178.0540  137.7030 C   0  0  0  0  0  3  0  0  0  0  0  0
  190.4260  177.2840  141.1740 N   0  0  0  0  0  0  0  0  0  0  0  0
  189.6050  177.2630  142.3310 C   0  0  0  0  0  0  0  0  0  0  0  0
  189.9360  176.8010  143.6060 C   0  0  0  0  0  3  0  0  0  0  0  0
  190.5430  174.4970  137.9680 O   0  0  0  0  0  0  0  0  0  0  0  0
  191.2740  175.5130  137.8140 C   0  0  0  0  0  0  0  0  0  0  0  0
  190.8130  176.7910  138.2620 N   0  0  0  0  0  2  0  0  0  0  0  0
  195.1760  175.1410  136.0590 C   0  0  0  0  0  0  0  0  0  0  0  0
  193.6990  175.0030  137.9690 C   0  0  0  0  0  3  0  0  0  0  0  0
  191.7780  176.0500  134.9730 O   0  0  0  0  0  1  0  0  0  0  0  0
  196.4750  175.0120  135.4950 N   0  0  0  0  0  1  0  0  0  0  0  0
  194.9750  174.8780  137.4150 C   0  0  0  0  0  3  0  0  0  0  0  0
  192.8200  175.6600  135.8050 C   0  0  0  0  0  0  0  0  0  0  0  0
  192.6070  175.3950  137.1780 C   0  0  0  0  0  0  0  0  0  0  0  0
  194.1010  175.5310  135.2580 C   0  0  0  0  0  3  0  0  0  0  0  0
  1  9  2  0  0  0  0
  1 14  1  0  0  0  0
  2  3  1  0  0  0  0
  3 19  2  0  0  0  0
  3  7  1  0  0  0  0
  4 15  1  0  0  0  0
  4 11  1  0  0  0  0
  5 14  1  0  0  0  0
  5  2  1  0  0  0  0
  6  1  1  0  0  0  0
  7  4  2  0  0  0  0
  8 23  1  6  0  0  0
  8 13  1  0  0  0  0
 12 16  1  0  0  0  0
 12  8  1  0  0  0  0
 13  2  1  1  0  0  0
 13 18  1  0  0  0  0
 16  5  2  0  0  0  0
 17  6  2  0  0  0  0
 17 16  1  0  0  0  0
 18 10  1  0  0  0  0
 18 19  1  0  0  0  0
 19 20  1  0  0  0  0
 20 15  2  0  0  0  0
 22 21  2  0  0  0  0
 22 23  1  0  0  0  0
 24 28  1  0  0  0  0
 26 29  1  0  0  0  0
 27 24  1  0  0  0  0
 28 25  2  0  0  0  0
 29 30  2  0  0  0  0
 30 22  1  0  0  0  0
 30 25  1  0  0  0  0
 31 29  1  0  0  0  0
 31 24  2  0  0  0  0
M  END
>  <MODEL>
8

>  <REMARK>
 VINA RESULT:      -8.3      3.238      8.000
  Name = 
  2 active torsions:
  status: ('A' for Active; 'I' for Inactive)
    1  A    between atoms: C_9  and  C_22
    2  A    between atoms: C_15  and  N_23
                            x       y       z     vdW  Elec       q    Type
                         _______ _______ _______ _____ _____    ______ ____

>  <TORSDO>
F 2

$$$$
=
 OpenBabel11052413113D

 31 35  0  0  1  0  0  0  0  0999 V2000
  185.8800  178.7080  146.8790 C   0  0  0  0  0  0  0  0  0  0  0  0
  188.7500  177.9770  144.5930 N   0  0  0  0  0  0  0  0  0  0  0  0
  189.8120  177.3440  145.2980 C   0  0  0  0  0  0  0  0  0  0  0  0
  191.1400  176.5590  147.1390 C   0  0  0  0  0  0  0  0  0  0  0  0
  187.4260  178.2230  145.0900 C   0  0  0  0  0  0  0  0  0  0  0  0
  184.8480  178.6610  145.9920 N   0  0  0  0  0  0  0  0  0  0  0  0
  189.9990  177.2400  146.6770 C   0  0  0  0  0  3  0  0  0  0  0  0
  187.8570  177.1280  142.4700 C   0  0  2  0  0  3  0  0  0  0  0  0
  185.6550  178.9480  148.0930 O   0  0  0  0  0  0  0  0  0  0  0  0
  191.1190  176.9380  141.9150 C   0  0  0  0  0  1  0  0  0  0  0  0
  191.3600  176.4390  148.4680 F   0  0  0  0  0  0  0  0  0  0  0  0
  186.5670  177.9160  142.7310 C   0  0  0  0  0  2  0  0  0  0  0  0
  189.0350  177.8270  143.1560 C   0  0  2  0  0  3  0  0  0  0  0  0
  187.1880  178.4890  146.4430 C   0  0  0  0  0  2  0  0  0  0  0  0
  192.0550  176.0030  146.2220 C   0  0  0  0  0  3  0  0  0  0  0  0
  186.3420  178.1650  144.1970 C   0  0  0  0  0  0  0  0  0  0  0  0
  185.0520  178.4010  144.6730 C   0  0  0  0  0  3  0  0  0  0  0  0
  190.2580  177.0170  143.0830 N   0  0  0  0  0  0  0  0  0  0  0  0
  190.6950  176.7960  144.4140 C   0  0  0  0  0  0  0  0  0  0  0  0
  191.8380  176.1170  144.8380 C   0  0  0  0  0  3  0  0  0  0  0  0
  188.0740  179.3450  140.6990 O   0  0  0  0  0  0  0  0  0  0  0  0
  188.2020  178.1960  140.1960 C   0  0  0  0  0  0  0  0  0  0  0  0
  188.0950  177.0420  141.0360 N   0  0  0  0  0  2  0  0  0  0  0  0
  189.0310  177.6800  136.0150 C   0  0  0  0  0  0  0  0  0  0  0  0
  189.7350  177.6310  138.3280 C   0  0  0  0  0  3  0  0  0  0  0  0
  186.1720  178.6420  138.1250 O   0  0  0  0  0  1  0  0  0  0  0  0
  189.3230  177.5030  134.6350 N   0  0  0  0  0  1  0  0  0  0  0  0
  190.0230  177.4590  136.9720 C   0  0  0  0  0  3  0  0  0  0  0  0
  187.4570  178.2490  137.7710 C   0  0  0  0  0  0  0  0  0  0  0  0
  188.4550  178.0280  138.7470 C   0  0  0  0  0  0  0  0  0  0  0  0
  187.7530  178.0740  136.4150 C   0  0  0  0  0  3  0  0  0  0  0  0
  1  9  2  0  0  0  0
  2  5  1  0  0  0  0
  2  3  1  0  0  0  0
  3  7  1  0  0  0  0
  4 11  1  0  0  0  0
  5 14  1  0  0  0  0
  6  1  1  0  0  0  0
  7  4  2  0  0  0  0
  8 23  1  6  0  0  0
  8 12  1  0  0  0  0
  8 13  1  0  0  0  0
 10 18  1  0  0  0  0
 12 16  1  0  0  0  0
 13 18  1  1  0  0  0
 13  2  1  0  0  0  0
 14  1  1  0  0  0  0
 15  4  1  0  0  0  0
 16 17  1  0  0  0  0
 16  5  2  0  0  0  0
 17  6  2  0  0  0  0
 18 19  1  0  0  0  0
 19 20  1  0  0  0  0
 19  3  2  0  0  0  0
 20 15  2  0  0  0  0
 22 21  2  0  0  0  0
 22 23  1  0  0  0  0
 24 31  2  0  0  0  0
 24 28  1  0  0  0  0
 25 30  1  0  0  0  0
 27 24  1  0  0  0  0
 28 25  2  0  0  0  0
 29 26  1  0  0  0  0
 29 30  2  0  0  0  0
 30 22  1  0  0  0  0
 31 29  1  0  0  0  0
M  END
>  <MODEL>
9

>  <REMARK>
 VINA RESULT:      -8.2      3.625      8.987
  Name = 
  2 active torsions:
  status: ('A' for Active; 'I' for Inactive)
    1  A    between atoms: C_9  and  C_22
    2  A    between atoms: C_15  and  N_23
                            x       y       z     vdW  Elec       q    Type
                         _______ _______ _______ _____ _____    ______ ____

>  <TORSDO>
F 2

$$$$
