=
 OpenBabel11052413543D

 27 30  0  0  1  0  0  0  0  0999 V2000
  187.1190  178.4810  142.2550 C   0  0  2  0  0  3  0  0  0  0  0  0
  187.9520  178.8890  141.0350 C   0  0  0  0  0  2  0  0  0  0  0  0
  189.3590  177.9330  142.5840 C   0  0  2  0  0  3  0  0  0  0  0  0
  189.2010  177.6930  145.2670 C   0  0  1  0  0  3  0  0  0  0  0  0
  190.2960  175.7050  142.5300 O   0  0  0  0  0  1  0  0  0  0  0  0
  189.0850  177.4360  146.7590 C   0  0  0  0  0  1  0  0  0  0  0  0
  187.9850  177.5160  143.0120 C   0  0  1  0  0  3  0  0  0  0  0  0
  189.3270  178.3730  141.1810 N   0  0  1  0  0  0  0  0  0  0  0  0
  190.2940  176.8040  144.6360 C   0  0  0  0  0  2  0  0  0  0  0  0
  187.1100  176.4940  144.9800 O   0  0  0  0  0  1  0  0  0  0  0  0
  187.8350  177.6040  144.5380 C   0  0  1  0  0  3  0  0  0  0  0  0
  190.4370  176.9690  143.1080 C   0  0  2  0  0  3  0  0  0  0  0  0
  189.1320  176.1490  138.0080 C   0  0  0  0  0  2  0  0  0  0  0  0
  190.6020  175.7480  138.1910 C   0  0  0  0  0  2  0  0  0  0  0  0
  191.3640  176.8690  138.5610 O   0  0  0  0  0  0  0  0  0  0  0  0
  189.5740  177.2600  140.2370 C   0  0  2  0  0  3  0  0  0  0  0  0
  191.0890  177.1410  139.9200 C   0  0  0  0  0  2  0  0  0  0  0  0
  188.7510  177.3180  138.9250 C   0  0  1  0  0  3  0  0  0  0  0  0
  187.7810  178.9720  137.4920 O   0  0  0  0  0  1  0  0  0  0  0  0
  188.9430  178.6430  138.1920 C   0  0  0  0  0  2  0  0  0  0  0  0
  185.7650  177.8710  141.8720 C   0  0  0  0  0  2  0  0  0  0  0  0
  182.4560  179.2950  144.2160 C   0  0  0  0  0  3  0  0  0  0  0  0
  184.6180  178.3750  142.6930 C   0  0  0  0  0  0  0  0  0  0  0  0
  183.3540  178.5130  142.1070 C   0  0  0  0  0  3  0  0  0  0  0  0
  182.2750  178.9740  142.8670 C   0  0  0  0  0  3  0  0  0  0  0  0
  183.7180  179.1590  144.8040 C   0  0  0  0  0  3  0  0  0  0  0  0
  184.7980  178.7020  144.0430 C   0  0  0  0  0  3  0  0  0  0  0  0
  1 21  1  6  0  0  0
  1  7  1  0  0  0  0
  2  8  1  0  0  0  0
  2  1  1  0  0  0  0
  3  7  1  0  0  0  0
  3 12  1  0  0  0  0
  4  6  1  0  0  0  0
  5 12  1  0  0  0  0
  7 11  1  0  0  0  0
  8  3  1  0  0  0  0
  9  4  1  0  0  0  0
 11 10  1  0  0  0  0
 11  4  1  0  0  0  0
 12  9  1  0  0  0  0
 13 14  1  0  0  0  0
 13 18  1  0  0  0  0
 14 15  1  0  0  0  0
 15 17  1  0  0  0  0
 16  8  1  0  0  0  0
 17 16  1  0  0  0  0
 18 16  1  0  0  0  0
 19 20  1  0  0  0  0
 20 18  1  0  0  0  0
 21 23  1  0  0  0  0
 22 26  1  0  0  0  0
 23 27  1  0  0  0  0
 24 23  2  0  0  0  0
 24 25  1  0  0  0  0
 25 22  2  0  0  0  0
 27 26  2  0  0  0  0
M  END
>  <MODEL>
1

>  <REMARK>
 VINA RESULT:      -8.5      0.000      0.000
  Name = 
  4 active torsions:
  status: ('A' for Active; 'I' for Inactive)
    1  A    between atoms: C_1  and  C_15
    2  A    between atoms: C_9  and  C_15
    3  A    between atoms: C_14  and  N_19
    4  A    between atoms: C_17  and  C_21
                            x       y       z     vdW  Elec       q    Type
                         _______ _______ _______ _____ _____    ______ ____

>  <TORSDO>
F 4

$$$$
=
 OpenBabel11052413543D

 27 30  0  0  1  0  0  0  0  0999 V2000
  187.5530  178.1030  142.5910 C   0  0  2  0  0  3  0  0  0  0  0  0
  186.4060  178.9440  142.0200 C   0  0  0  0  0  2  0  0  0  0  0  0
  187.8490  178.4320  140.3030 C   0  0  2  0  0  3  0  0  0  0  0  0
  190.4790  177.8320  140.2680 C   0  0  1  0  0  3  0  0  0  0  0  0
  187.5380  176.7660  138.5800 O   0  0  0  0  0  1  0  0  0  0  0  0
  191.9260  177.3750  140.2270 C   0  0  0  0  0  1  0  0  0  0  0  0
  188.2000  177.4670  141.3940 C   0  0  1  0  0  3  0  0  0  0  0  0
  186.5100  178.9890  140.5490 N   0  0  1  0  0  0  0  0  0  0  0  0
  189.7620  177.5190  138.9380 C   0  0  0  0  0  2  0  0  0  0  0  0
  190.0140  175.9590  141.7410 O   0  0  0  0  0  1  0  0  0  0  0  0
  189.7230  177.3070  141.5170 C   0  0  1  0  0  3  0  0  0  0  0  0
  188.2690  177.9080  138.9200 C   0  0  2  0  0  3  0  0  0  0  0  0
  183.1970  177.0230  140.0840 C   0  0  0  0  0  2  0  0  0  0  0  0
  183.1420  177.4510  138.6120 C   0  0  0  0  0  2  0  0  0  0  0  0
  183.5100  178.8020  138.4900 O   0  0  0  0  0  0  0  0  0  0  0  0
  185.4410  178.1800  139.9210 C   0  0  2  0  0  3  0  0  0  0  0  0
  184.9130  178.8770  138.6390 C   0  0  0  0  0  2  0  0  0  0  0  0
  184.2630  177.8100  140.8580 C   0  0  1  0  0  3  0  0  0  0  0  0
  182.3440  178.7530  141.9330 O   0  0  0  0  0  1  0  0  0  0  0  0
  183.6390  179.0450  141.5010 C   0  0  0  0  0  2  0  0  0  0  0  0
  187.0760  177.0650  143.6150 C   0  0  0  0  0  2  0  0  0  0  0  0
  188.6510  177.7000  147.5630 C   0  0  0  0  0  3  0  0  0  0  0  0
  187.6170  177.2810  144.9950 C   0  0  0  0  0  0  0  0  0  0  0  0
  188.9880  177.1250  145.2340 C   0  0  0  0  0  3  0  0  0  0  0  0
  189.5040  177.3340  146.5170 C   0  0  0  0  0  3  0  0  0  0  0  0
  187.2810  177.8540  147.3270 C   0  0  0  0  0  3  0  0  0  0  0  0
  186.7640  177.6430  146.0450 C   0  0  0  0  0  3  0  0  0  0  0  0
  1 21  1  1  0  0  0
  2  1  1  0  0  0  0
  3  8  1  0  0  0  0
  3  7  1  0  0  0  0
  4 11  1  0  0  0  0
  5 12  1  0  0  0  0
  6  4  1  0  0  0  0
  7 11  1  0  0  0  0
  7  1  1  0  0  0  0
  8  2  1  0  0  0  0
  9  4  1  0  0  0  0
 11 10  1  0  0  0  0
 12  9  1  0  0  0  0
 12  3  1  0  0  0  0
 13 18  1  0  0  0  0
 14 13  1  0  0  0  0
 15 14  1  0  0  0  0
 15 17  1  0  0  0  0
 16  8  1  0  0  0  0
 16 18  1  0  0  0  0
 17 16  1  0  0  0  0
 18 20  1  0  0  0  0
 20 19  1  0  0  0  0
 21 23  1  0  0  0  0
 23 24  2  0  0  0  0
 23 27  1  0  0  0  0
 24 25  1  0  0  0  0
 25 22  2  0  0  0  0
 26 22  1  0  0  0  0
 27 26  2  0  0  0  0
M  END
>  <MODEL>
2

>  <REMARK>
 VINA RESULT:      -8.0      2.205      5.325
  Name = 
  4 active torsions:
  status: ('A' for Active; 'I' for Inactive)
    1  A    between atoms: C_1  and  C_15
    2  A    between atoms: C_9  and  C_15
    3  A    between atoms: C_14  and  N_19
    4  A    between atoms: C_17  and  C_21
                            x       y       z     vdW  Elec       q    Type
                         _______ _______ _______ _____ _____    ______ ____

>  <TORSDO>
F 4

$$$$
=
 OpenBabel11052413543D

 27 30  0  0  1  0  0  0  0  0999 V2000
  187.4550  177.7700  141.2550 C   0  0  2  0  0  3  0  0  0  0  0  0
  187.8300  176.9060  142.4640 C   0  0  0  0  0  2  0  0  0  0  0  0
  189.5030  176.7200  140.8960 C   0  0  2  0  0  3  0  0  0  0  0  0
  189.5130  177.0260  138.2150 C   0  0  1  0  0  3  0  0  0  0  0  0
  191.6710  177.7880  140.9350 O   0  0  0  0  0  1  0  0  0  0  0  0
  189.5780  177.3080  136.7250 C   0  0  0  0  0  1  0  0  0  0  0  0
  188.7340  177.9380  140.4850 C   0  0  1  0  0  3  0  0  0  0  0  0
  189.2050  176.3970  142.2990 N   0  0  1  0  0  0  0  0  0  0  0  0
  190.9270  176.9760  138.8300 C   0  0  0  0  0  2  0  0  0  0  0  0
  188.7220  179.3000  138.5290 O   0  0  0  0  0  1  0  0  0  0  0  0
  188.5470  177.9830  138.9620 C   0  0  1  0  0  3  0  0  0  0  0  0
  190.9430  176.7450  140.3570 C   0  0  2  0  0  3  0  0  0  0  0  0
  190.5010  178.4740  145.3090 C   0  0  0  0  0  2  0  0  0  0  0  0
  191.7460  177.5820  145.3970 C   0  0  0  0  0  2  0  0  0  0  0  0
  191.3870  176.2360  145.2130 O   0  0  0  0  0  0  0  0  0  0  0  0
  190.1310  177.0670  143.2390 C   0  0  2  0  0  3  0  0  0  0  0  0
  191.1360  176.0460  143.8350 C   0  0  0  0  0  2  0  0  0  0  0  0
  189.4450  177.8740  144.3710 C   0  0  1  0  0  3  0  0  0  0  0  0
  188.0190  177.7180  146.2870 O   0  0  0  0  0  1  0  0  0  0  0  0
  188.4660  177.0160  145.1670 C   0  0  0  0  0  2  0  0  0  0  0  0
  186.8360  179.1160  141.6550 C   0  0  0  0  0  2  0  0  0  0  0  0
  182.9330  178.8060  143.4260 C   0  0  0  0  0  3  0  0  0  0  0  0
  185.4740  178.9990  142.2670 C   0  0  0  0  0  0  0  0  0  0  0  0
  185.3200  179.1510  143.6500 C   0  0  0  0  0  3  0  0  0  0  0  0
  184.0510  179.0530  144.2290 C   0  0  0  0  0  3  0  0  0  0  0  0
  183.0840  178.6520  142.0440 C   0  0  0  0  0  3  0  0  0  0  0  0
  184.3540  178.7460  141.4660 C   0  0  0  0  0  3  0  0  0  0  0  0
  1 21  1  1  0  0  0
  1  2  1  0  0  0  0
  3  8  1  0  0  0  0
  4  9  1  0  0  0  0
  4 11  1  0  0  0  0
  6  4  1  0  0  0  0
  7  3  1  0  0  0  0
  7  1  1  0  0  0  0
  8  2  1  0  0  0  0
  8 16  1  0  0  0  0
  9 12  1  0  0  0  0
 10 11  1  0  0  0  0
 11  7  1  0  0  0  0
 12  3  1  0  0  0  0
 12  5  1  0  0  0  0
 13 14  1  0  0  0  0
 15 14  1  0  0  0  0
 16 17  1  0  0  0  0
 16 18  1  0  0  0  0
 17 15  1  0  0  0  0
 18 20  1  0  0  0  0
 18 13  1  0  0  0  0
 20 19  1  0  0  0  0
 21 23  1  0  0  0  0
 22 25  1  0  0  0  0
 23 24  1  0  0  0  0
 24 25  2  0  0  0  0
 26 22  2  0  0  0  0
 27 26  1  0  0  0  0
 27 23  2  0  0  0  0
M  END
>  <MODEL>
3

>  <REMARK>
 VINA RESULT:      -7.9      1.388      5.058
  Name = 
  4 active torsions:
  status: ('A' for Active; 'I' for Inactive)
    1  A    between atoms: C_1  and  C_15
    2  A    between atoms: C_9  and  C_15
    3  A    between atoms: C_14  and  N_19
    4  A    between atoms: C_17  and  C_21
                            x       y       z     vdW  Elec       q    Type
                         _______ _______ _______ _____ _____    ______ ____

>  <TORSDO>
F 4

$$$$
=
 OpenBabel11052413543D

 27 30  0  0  1  0  0  0  0  0999 V2000
  186.5930  177.7680  142.8570 C   0  0  2  0  0  3  0  0  0  0  0  0
  186.3740  177.1190  144.2280 C   0  0  0  0  0  2  0  0  0  0  0  0
  188.5860  176.8600  143.6520 C   0  0  2  0  0  3  0  0  0  0  0  0
  189.8370  176.7850  141.2630 C   0  0  1  0  0  3  0  0  0  0  0  0
  190.4740  178.1090  144.5000 O   0  0  0  0  0  1  0  0  0  0  0  0
  190.5840  176.8590  139.9430 C   0  0  0  0  0  1  0  0  0  0  0  0
  188.0810  177.9360  142.7410 C   0  0  1  0  0  3  0  0  0  0  0  0
  187.6740  176.7130  144.7960 N   0  0  1  0  0  0  0  0  0  0  0  0
  190.8040  176.9470  142.4550 C   0  0  0  0  0  2  0  0  0  0  0  0
  188.9640  179.0030  140.8000 O   0  0  0  0  0  1  0  0  0  0  0  0
  188.6230  177.7500  141.3160 C   0  0  1  0  0  3  0  0  0  0  0  0
  190.1110  176.9350  143.8340 C   0  0  2  0  0  3  0  0  0  0  0  0
  187.3980  179.3020  147.6730 C   0  0  0  0  0  2  0  0  0  0  0  0
  188.4670  178.5420  148.4680 C   0  0  0  0  0  2  0  0  0  0  0  0
  188.2480  177.1580  148.3670 O   0  0  0  0  0  0  0  0  0  0  0  0
  188.0480  177.5880  145.9300 C   0  0  2  0  0  3  0  0  0  0  0  0
  188.6700  176.7530  147.0800 C   0  0  0  0  0  2  0  0  0  0  0  0
  186.9070  178.4860  146.4700 C   0  0  1  0  0  3  0  0  0  0  0  0
  184.5660  178.5060  146.9690 O   0  0  0  0  0  1  0  0  0  0  0  0
  185.6770  177.6700  146.8590 C   0  0  0  0  0  2  0  0  0  0  0  0
  185.8430  179.0970  142.7020 C   0  0  0  0  0  2  0  0  0  0  0  0
  181.5790  178.6860  142.3620 C   0  0  0  0  0  3  0  0  0  0  0  0
  184.3580  178.9450  142.5780 C   0  0  0  0  0  0  0  0  0  0  0  0
  183.5460  179.1330  143.7030 C   0  0  0  0  0  3  0  0  0  0  0  0
  182.1580  179.0030  143.5950 C   0  0  0  0  0  3  0  0  0  0  0  0
  182.3880  178.4960  141.2380 C   0  0  0  0  0  3  0  0  0  0  0  0
  183.7760  178.6220  141.3460 C   0  0  0  0  0  3  0  0  0  0  0  0
  1 21  1  1  0  0  0
  1  2  1  0  0  0  0
  2  8  1  0  0  0  0
  3 12  1  0  0  0  0
  3  8  1  0  0  0  0
  4 11  1  0  0  0  0
  4  9  1  0  0  0  0
  6  4  1  0  0  0  0
  7  1  1  0  0  0  0
  7  3  1  0  0  0  0
  8 16  1  0  0  0  0
  9 12  1  0  0  0  0
 10 11  1  0  0  0  0
 11  7  1  0  0  0  0
 12  5  1  0  0  0  0
 13 14  1  0  0  0  0
 15 14  1  0  0  0  0
 16 18  1  0  0  0  0
 16 17  1  0  0  0  0
 17 15  1  0  0  0  0
 18 20  1  0  0  0  0
 18 13  1  0  0  0  0
 20 19  1  0  0  0  0
 22 25  1  0  0  0  0
 23 21  1  0  0  0  0
 23 24  1  0  0  0  0
 25 24  2  0  0  0  0
 26 27  1  0  0  0  0
 26 22  2  0  0  0  0
 27 23  2  0  0  0  0
M  END
>  <MODEL>
4

>  <REMARK>
 VINA RESULT:      -7.8      2.063      5.656
  Name = 
  4 active torsions:
  status: ('A' for Active; 'I' for Inactive)
    1  A    between atoms: C_1  and  C_15
    2  A    between atoms: C_9  and  C_15
    3  A    between atoms: C_14  and  N_19
    4  A    between atoms: C_17  and  C_21
                            x       y       z     vdW  Elec       q    Type
                         _______ _______ _______ _____ _____    ______ ____

>  <TORSDO>
F 4

$$$$
=
 OpenBabel11052413543D

 27 30  0  0  1  0  0  0  0  0999 V2000
  187.5050  178.3160  141.9040 C   0  0  2  0  0  3  0  0  0  0  0  0
  187.4830  178.7310  140.4280 C   0  0  0  0  0  2  0  0  0  0  0  0
  189.6340  178.1260  140.9760 C   0  0  2  0  0  3  0  0  0  0  0  0
  190.9650  178.1010  143.3220 C   0  0  1  0  0  3  0  0  0  0  0  0
  190.7590  176.0610  140.4190 O   0  0  0  0  0  1  0  0  0  0  0  0
  191.7030  177.9620  144.6420 C   0  0  0  0  0  1  0  0  0  0  0  0
  188.7890  177.5560  142.0730 C   0  0  1  0  0  3  0  0  0  0  0  0
  188.7900  178.4340  139.8120 N   0  0  1  0  0  0  0  0  0  0  0  0
  191.6890  177.3280  142.2000 C   0  0  0  0  0  2  0  0  0  0  0  0
  189.2760  176.5930  144.1990 O   0  0  0  0  0  1  0  0  0  0  0  0
  189.4580  177.7530  143.4420 C   0  0  1  0  0  3  0  0  0  0  0  0
  190.9700  177.3780  140.8350 C   0  0  2  0  0  3  0  0  0  0  0  0
  187.2820  175.8550  137.3350 C   0  0  0  0  0  2  0  0  0  0  0  0
  188.6180  175.7860  136.5840 C   0  0  0  0  0  2  0  0  0  0  0  0
  189.1640  177.0740  136.4520 O   0  0  0  0  0  0  0  0  0  0  0  0
  188.6820  177.2900  138.8780 C   0  0  2  0  0  3  0  0  0  0  0  0
  189.6920  177.4440  137.7090 C   0  0  0  0  0  2  0  0  0  0  0  0
  187.2580  177.0230  138.3290 C   0  0  1  0  0  3  0  0  0  0  0  0
  185.2700  178.2170  137.7360 O   0  0  0  0  0  1  0  0  0  0  0  0
  186.6630  178.2620  137.6660 C   0  0  0  0  0  2  0  0  0  0  0  0
  186.2800  177.4860  142.3050 C   0  0  0  0  0  2  0  0  0  0  0  0
  184.2210  178.9460  145.7840 C   0  0  0  0  0  3  0  0  0  0  0  0
  185.5710  177.9990  143.5210 C   0  0  0  0  0  0  0  0  0  0  0  0
  184.3040  178.5800  143.3910 C   0  0  0  0  0  3  0  0  0  0  0  0
  183.6300  179.0530  144.5210 C   0  0  0  0  0  3  0  0  0  0  0  0
  185.4880  178.3670  145.9170 C   0  0  0  0  0  3  0  0  0  0  0  0
  186.1630  177.8970  144.7860 C   0  0  0  0  0  3  0  0  0  0  0  0
  1  7  1  0  0  0  0
  1 21  1  6  0  0  0
  2  1  1  0  0  0  0
  3  7  1  0  0  0  0
  4 11  1  0  0  0  0
  4  6  1  0  0  0  0
  5 12  1  0  0  0  0
  7 11  1  0  0  0  0
  8  2  1  0  0  0  0
  8  3  1  0  0  0  0
  9  4  1  0  0  0  0
 11 10  1  0  0  0  0
 12  3  1  0  0  0  0
 12  9  1  0  0  0  0
 13 18  1  0  0  0  0
 14 13  1  0  0  0  0
 15 14  1  0  0  0  0
 15 17  1  0  0  0  0
 16  8  1  0  0  0  0
 17 16  1  0  0  0  0
 18 16  1  0  0  0  0
 20 19  1  0  0  0  0
 20 18  1  0  0  0  0
 21 23  1  0  0  0  0
 22 26  1  0  0  0  0
 23 27  1  0  0  0  0
 24 23  2  0  0  0  0
 24 25  1  0  0  0  0
 25 22  2  0  0  0  0
 27 26  2  0  0  0  0
M  END
>  <MODEL>
5

>  <REMARK>
 VINA RESULT:      -7.8      1.606      2.122
  Name = 
  4 active torsions:
  status: ('A' for Active; 'I' for Inactive)
    1  A    between atoms: C_1  and  C_15
    2  A    between atoms: C_9  and  C_15
    3  A    between atoms: C_14  and  N_19
    4  A    between atoms: C_17  and  C_21
                            x       y       z     vdW  Elec       q    Type
                         _______ _______ _______ _____ _____    ______ ____

>  <TORSDO>
F 4

$$$$
=
 OpenBabel11052413543D

 27 30  0  0  1  0  0  0  0  0999 V2000
  187.1340  178.3320  142.2080 C   0  0  2  0  0  3  0  0  0  0  0  0
  186.3550  179.0540  141.1040 C   0  0  0  0  0  2  0  0  0  0  0  0
  188.2940  178.2200  140.1900 C   0  0  2  0  0  3  0  0  0  0  0  0
  190.6900  177.6140  141.2740 C   0  0  1  0  0  3  0  0  0  0  0  0
  188.5290  176.2600  138.7970 O   0  0  0  0  0  1  0  0  0  0  0  0
  192.0060  177.1510  141.8720 C   0  0  0  0  0  1  0  0  0  0  0  0
  188.1340  177.4780  141.4820 C   0  0  1  0  0  3  0  0  0  0  0  0
  187.0090  178.8190  139.8020 N   0  0  1  0  0  0  0  0  0  0  0  0
  190.5050  177.0580  139.8460 C   0  0  0  0  0  2  0  0  0  0  0  0
  189.5620  176.0550  142.7540 O   0  0  0  0  0  1  0  0  0  0  0  0
  189.4810  177.3380  142.2060 C   0  0  1  0  0  3  0  0  0  0  0  0
  189.1630  177.4420  139.1880 C   0  0  2  0  0  3  0  0  0  0  0  0
  183.9320  177.0410  138.2450 C   0  0  0  0  0  2  0  0  0  0  0  0
  184.6740  176.9130  136.9090 C   0  0  0  0  0  2  0  0  0  0  0  0
  185.3690  178.1010  136.6290 O   0  0  0  0  0  0  0  0  0  0  0  0
  186.1960  177.9110  138.9620 C   0  0  2  0  0  3  0  0  0  0  0  0
  186.5120  178.1320  137.4580 C   0  0  0  0  0  2  0  0  0  0  0  0
  184.6680  177.9820  139.2080 C   0  0  1  0  0  3  0  0  0  0  0  0
  182.8650  179.4970  139.6360 O   0  0  0  0  0  1  0  0  0  0  0  0
  184.1340  179.4040  139.0620 C   0  0  0  0  0  2  0  0  0  0  0  0
  186.2290  177.5080  143.1320 C   0  0  0  0  0  2  0  0  0  0  0  0
  186.7740  178.3910  147.3030 C   0  0  0  0  0  3  0  0  0  0  0  0
  186.4090  177.8130  144.5880 C   0  0  0  0  0  0  0  0  0  0  0  0
  187.5720  177.3940  145.2450 C   0  0  0  0  0  3  0  0  0  0  0  0
  187.7540  177.6830  146.6010 C   0  0  0  0  0  3  0  0  0  0  0  0
  185.6100  178.8090  146.6500 C   0  0  0  0  0  3  0  0  0  0  0  0
  185.4270  178.5180  145.2940 C   0  0  0  0  0  3  0  0  0  0  0  0
  1 21  1  6  0  0  0
  2  1  1  0  0  0  0
  3  7  1  0  0  0  0
  4  6  1  0  0  0  0
  4 11  1  0  0  0  0
  5 12  1  0  0  0  0
  7 11  1  0  0  0  0
  7  1  1  0  0  0  0
  8  3  1  0  0  0  0
  8  2  1  0  0  0  0
  9  4  1  0  0  0  0
 11 10  1  0  0  0  0
 12  9  1  0  0  0  0
 12  3  1  0  0  0  0
 13 18  1  0  0  0  0
 14 13  1  0  0  0  0
 15 14  1  0  0  0  0
 15 17  1  0  0  0  0
 16 18  1  0  0  0  0
 16  8  1  0  0  0  0
 17 16  1  0  0  0  0
 20 18  1  0  0  0  0
 20 19  1  0  0  0  0
 21 23  1  0  0  0  0
 23 24  2  0  0  0  0
 23 27  1  0  0  0  0
 24 25  1  0  0  0  0
 25 22  2  0  0  0  0
 26 22  1  0  0  0  0
 27 26  2  0  0  0  0
M  END
>  <MODEL>
6

>  <REMARK>
 VINA RESULT:      -7.6      2.426      4.252
  Name = 
  4 active torsions:
  status: ('A' for Active; 'I' for Inactive)
    1  A    between atoms: C_1  and  C_15
    2  A    between atoms: C_9  and  C_15
    3  A    between atoms: C_14  and  N_19
    4  A    between atoms: C_17  and  C_21
                            x       y       z     vdW  Elec       q    Type
                         _______ _______ _______ _____ _____    ______ ____

>  <TORSDO>
F 4

$$$$
=
 OpenBabel11052413543D

 27 30  0  0  1  0  0  0  0  0999 V2000
  189.1870  177.1440  143.1950 C   0  0  2  0  0  3  0  0  0  0  0  0
  187.6800  176.8690  143.1420 C   0  0  0  0  0  2  0  0  0  0  0  0
  188.3370  176.8730  145.3470 C   0  0  2  0  0  3  0  0  0  0  0  0
  190.7100  176.3740  146.5290 C   0  0  1  0  0  3  0  0  0  0  0  0
  188.0000  178.6330  146.9700 O   0  0  0  0  0  1  0  0  0  0  0  0
  192.0560  176.2170  147.2140 C   0  0  0  0  0  1  0  0  0  0  0  0
  189.4590  177.5440  144.6170 C   0  0  1  0  0  3  0  0  0  0  0  0
  187.1280  176.8830  144.5100 N   0  0  1  0  0  0  0  0  0  0  0  0
  189.6830  177.0330  147.4740 C   0  0  0  0  0  2  0  0  0  0  0  0
  191.6760  178.1780  145.2220 O   0  0  0  0  0  1  0  0  0  0  0  0
  190.8210  177.0750  145.1500 C   0  0  1  0  0  3  0  0  0  0  0  0
  188.3000  177.2750  146.8310 C   0  0  2  0  0  3  0  0  0  0  0  0
  184.9310  180.0000  143.7960 C   0  0  0  0  0  2  0  0  0  0  0  0
  184.1470  179.7530  145.0920 C   0  0  0  0  0  2  0  0  0  0  0  0
  183.8880  178.3800  145.2420 O   0  0  0  0  0  0  0  0  0  0  0  0
  186.3000  178.0900  144.7310 C   0  0  2  0  0  3  0  0  0  0  0  0
  185.0910  177.7610  145.6480 C   0  0  0  0  0  2  0  0  0  0  0  0
  185.8210  178.8020  143.4410 C   0  0  1  0  0  3  0  0  0  0  0  0
  184.1890  178.5700  141.7050 O   0  0  0  0  0  1  0  0  0  0  0  0
  185.0730  177.8510  142.5110 C   0  0  0  0  0  2  0  0  0  0  0  0
  189.6310  178.2170  142.1930 C   0  0  0  0  0  2  0  0  0  0  0  0
  189.6020  176.8720  138.1110 C   0  0  0  0  0  3  0  0  0  0  0  0
  189.6190  177.7570  140.7670 C   0  0  0  0  0  0  0  0  0  0  0  0
  190.5640  176.8200  140.3340 C   0  0  0  0  0  3  0  0  0  0  0  0
  190.5550  176.3780  139.0070 C   0  0  0  0  0  3  0  0  0  0  0  0
  188.6590  177.8100  138.5410 C   0  0  0  0  0  3  0  0  0  0  0  0
  188.6690  178.2550  139.8670 C   0  0  0  0  0  3  0  0  0  0  0  0
  1 21  1  6  0  0  0
  1  7  1  0  0  0  0
  2  1  1  0  0  0  0
  2  8  1  0  0  0  0
  3 12  1  0  0  0  0
  4  6  1  0  0  0  0
  4  9  1  0  0  0  0
  7 11  1  0  0  0  0
  7  3  1  0  0  0  0
  8 16  1  0  0  0  0
  8  3  1  0  0  0  0
 11 10  1  0  0  0  0
 11  4  1  0  0  0  0
 12  5  1  0  0  0  0
 12  9  1  0  0  0  0
 13 14  1  0  0  0  0
 14 15  1  0  0  0  0
 15 17  1  0  0  0  0
 16 17  1  0  0  0  0
 18 13  1  0  0  0  0
 18 16  1  0  0  0  0
 19 20  1  0  0  0  0
 20 18  1  0  0  0  0
 22 26  2  0  0  0  0
 22 25  1  0  0  0  0
 23 21  1  0  0  0  0
 24 23  1  0  0  0  0
 25 24  2  0  0  0  0
 26 27  1  0  0  0  0
 27 23  2  0  0  0  0
M  END
>  <MODEL>
7

>  <REMARK>
 VINA RESULT:      -7.4      2.395      6.129
  Name = 
  4 active torsions:
  status: ('A' for Active; 'I' for Inactive)
    1  A    between atoms: C_1  and  C_15
    2  A    between atoms: C_9  and  C_15
    3  A    between atoms: C_14  and  N_19
    4  A    between atoms: C_17  and  C_21
                            x       y       z     vdW  Elec       q    Type
                         _______ _______ _______ _____ _____    ______ ____

>  <TORSDO>
F 4

$$$$
=
 OpenBabel11052413543D

 27 30  0  0  1  0  0  0  0  0999 V2000
  189.2880  177.5810  141.1250 C   0  0  2  0  0  3  0  0  0  0  0  0
  188.2490  178.6660  141.4310 C   0  0  0  0  0  2  0  0  0  0  0  0
  188.2690  178.3070  139.1580 C   0  0  2  0  0  3  0  0  0  0  0  0
  190.1740  177.3730  137.4920 C   0  0  1  0  0  3  0  0  0  0  0  0
  186.6520  177.0670  137.8590 O   0  0  0  0  0  1  0  0  0  0  0  0
  191.1810  176.7400  136.5480 C   0  0  0  0  0  1  0  0  0  0  0  0
  188.9580  177.1090  139.7370 C   0  0  1  0  0  3  0  0  0  0  0  0
  187.4890  178.9820  140.2060 N   0  0  1  0  0  0  0  0  0  0  0  0
  188.7720  177.4260  136.8500 C   0  0  0  0  0  2  0  0  0  0  0  0
  190.2390  175.3290  138.8010 O   0  0  0  0  0  1  0  0  0  0  0  0
  190.1860  176.7220  138.9000 C   0  0  1  0  0  3  0  0  0  0  0  0
  187.6790  178.0100  137.7700 C   0  0  2  0  0  3  0  0  0  0  0  0
  184.0810  177.8770  141.6970 C   0  0  0  0  0  2  0  0  0  0  0  0
  183.3670  178.3320  140.4180 C   0  0  0  0  0  2  0  0  0  0  0  0
  183.8980  179.5560  139.9790 O   0  0  0  0  0  0  0  0  0  0  0  0
  186.1050  178.4650  140.2970 C   0  0  2  0  0  3  0  0  0  0  0  0
  185.1540  179.2890  139.3900 C   0  0  0  0  0  2  0  0  0  0  0  0
  185.5340  178.3710  141.7350 C   0  0  1  0  0  3  0  0  0  0  0  0
  184.9090  179.6360  143.6690 O   0  0  0  0  0  1  0  0  0  0  0  0
  185.6120  179.7090  142.4650 C   0  0  0  0  0  2  0  0  0  0  0  0
  189.2720  176.4390  142.1470 C   0  0  0  0  0  2  0  0  0  0  0  0
  188.1130  177.6780  146.0950 C   0  0  0  0  0  3  0  0  0  0  0  0
  188.8620  176.8620  143.5250 C   0  0  0  0  0  0  0  0  0  0  0  0
  189.8180  177.3910  144.4000 C   0  0  0  0  0  3  0  0  0  0  0  0
  189.4440  177.7980  145.6840 C   0  0  0  0  0  3  0  0  0  0  0  0
  187.1560  177.1480  145.2240 C   0  0  0  0  0  3  0  0  0  0  0  0
  187.5310  176.7380  143.9410 C   0  0  0  0  0  3  0  0  0  0  0  0
  1  2  1  0  0  0  0
  1 21  1  1  0  0  0
  3  7  1  0  0  0  0
  3  8  1  0  0  0  0
  4 11  1  0  0  0  0
  6  4  1  0  0  0  0
  7  1  1  0  0  0  0
  8 16  1  0  0  0  0
  8  2  1  0  0  0  0
  9  4  1  0  0  0  0
  9 12  1  0  0  0  0
 10 11  1  0  0  0  0
 11  7  1  0  0  0  0
 12  5  1  0  0  0  0
 12  3  1  0  0  0  0
 13 18  1  0  0  0  0
 14 13  1  0  0  0  0
 15 14  1  0  0  0  0
 16 18  1  0  0  0  0
 17 15  1  0  0  0  0
 17 16  1  0  0  0  0
 18 20  1  0  0  0  0
 20 19  1  0  0  0  0
 21 23  1  0  0  0  0
 23 27  2  0  0  0  0
 23 24  1  0  0  0  0
 24 25  2  0  0  0  0
 25 22  1  0  0  0  0
 26 22  2  0  0  0  0
 27 26  1  0  0  0  0
M  END
>  <MODEL>
8

>  <REMARK>
 VINA RESULT:      -7.3      1.902      5.974
  Name = 
  4 active torsions:
  status: ('A' for Active; 'I' for Inactive)
    1  A    between atoms: C_1  and  C_15
    2  A    between atoms: C_9  and  C_15
    3  A    between atoms: C_14  and  N_19
    4  A    between atoms: C_17  and  C_21
                            x       y       z     vdW  Elec       q    Type
                         _______ _______ _______ _____ _____    ______ ____

>  <TORSDO>
F 4

$$$$
=
 OpenBabel11052413543D

 27 30  0  0  1  0  0  0  0  0999 V2000
  186.9890  177.3810  145.1070 C   0  0  2  0  0  3  0  0  0  0  0  0
  187.8630  176.4450  144.2640 C   0  0  0  0  0  2  0  0  0  0  0  0
  186.3610  177.4850  142.8650 C   0  0  2  0  0  3  0  0  0  0  0  0
  183.9250  178.5580  143.3030 C   0  0  1  0  0  3  0  0  0  0  0  0
  186.7990  179.3200  141.3550 O   0  0  0  0  0  1  0  0  0  0  0  0
  182.6080  179.2760  143.5390 C   0  0  0  0  0  1  0  0  0  0  0  0
  186.3470  178.3100  144.1160 C   0  0  1  0  0  3  0  0  0  0  0  0
  187.5770  176.6580  142.8320 N   0  0  1  0  0  0  0  0  0  0  0  0
  184.5260  178.9440  141.9350 C   0  0  0  0  0  2  0  0  0  0  0  0
  184.9370  180.0510  144.9280 O   0  0  0  0  0  1  0  0  0  0  0  0
  184.9160  178.7270  144.4840 C   0  0  1  0  0  3  0  0  0  0  0  0
  185.8960  178.2940  141.6430 C   0  0  2  0  0  3  0  0  0  0  0  0
  191.1910  177.7800  141.9770 C   0  0  0  0  0  2  0  0  0  0  0  0
  190.8110  177.8970  140.4950 C   0  0  0  0  0  2  0  0  0  0  0  0
  190.0030  176.8110  140.1190 O   0  0  0  0  0  0  0  0  0  0  0  0
  188.7060  177.3450  142.1670 C   0  0  2  0  0  3  0  0  0  0  0  0
  188.7120  177.0370  140.6460 C   0  0  0  0  0  2  0  0  0  0  0  0
  190.1000  177.0600  142.7810 C   0  0  1  0  0  3  0  0  0  0  0  0
  191.5660  175.3430  143.5770 O   0  0  0  0  0  1  0  0  0  0  0  0
  190.3980  175.5650  142.8450 C   0  0  0  0  0  2  0  0  0  0  0  0
  187.7870  178.1340  146.1780 C   0  0  0  0  0  2  0  0  0  0  0  0
  191.7300  176.5510  146.8190 C   0  0  0  0  0  3  0  0  0  0  0  0
  189.1660  177.5920  146.4010 C   0  0  0  0  0  0  0  0  0  0  0  0
  189.3680  176.5840  147.3510 C   0  0  0  0  0  3  0  0  0  0  0  0
  190.6500  176.0640  147.5600 C   0  0  0  0  0  3  0  0  0  0  0  0
  191.5310  177.5590  145.8710 C   0  0  0  0  0  3  0  0  0  0  0  0
  190.2510  178.0810  145.6640 C   0  0  0  0  0  3  0  0  0  0  0  0
  1 21  1  1  0  0  0
  2  1  1  0  0  0  0
  3  7  1  0  0  0  0
  4  6  1  0  0  0  0
  4 11  1  0  0  0  0
  5 12  1  0  0  0  0
  7 11  1  0  0  0  0
  7  1  1  0  0  0  0
  8  3  1  0  0  0  0
  8  2  1  0  0  0  0
  9  4  1  0  0  0  0
 11 10  1  0  0  0  0
 12  9  1  0  0  0  0
 12  3  1  0  0  0  0
 13 18  1  0  0  0  0
 14 13  1  0  0  0  0
 15 14  1  0  0  0  0
 15 17  1  0  0  0  0
 16 18  1  0  0  0  0
 16  8  1  0  0  0  0
 17 16  1  0  0  0  0
 18 20  1  0  0  0  0
 20 19  1  0  0  0  0
 21 23  1  0  0  0  0
 22 25  1  0  0  0  0
 23 24  1  0  0  0  0
 24 25  2  0  0  0  0
 26 22  2  0  0  0  0
 27 26  1  0  0  0  0
 27 23  2  0  0  0  0
M  END
>  <MODEL>
9

>  <REMARK>
 VINA RESULT:      -7.2      1.927      5.596
  Name = 
  4 active torsions:
  status: ('A' for Active; 'I' for Inactive)
    1  A    between atoms: C_1  and  C_15
    2  A    between atoms: C_9  and  C_15
    3  A    between atoms: C_14  and  N_19
    4  A    between atoms: C_17  and  C_21
                            x       y       z     vdW  Elec       q    Type
                         _______ _______ _______ _____ _____    ______ ____

>  <TORSDO>
F 4

$$$$
