=
 OpenBabel11052412313D

 30 33  0  0  1  0  0  0  0  0999 V2000
  185.9560  178.5330  142.1400 C   0  0  0  0  0  2  0  0  0  0  0  0
  183.4410  178.7190  141.9810 C   0  0  0  0  0  0  0  0  0  0  0  0
  185.6230  178.5220  146.4130 C   0  0  0  0  0  3  0  0  0  0  0  0
  186.9530  177.6830  142.9350 C   0  0  2  0  0  3  0  0  0  0  0  0
  186.7550  178.3090  147.2040 C   0  0  0  0  0  3  0  0  0  0  0  0
  182.1870  178.8370  142.5860 C   0  0  0  0  0  3  0  0  0  0  0  0
  183.5210  178.7730  140.4930 C   0  0  0  0  0  1  0  0  0  0  0  0
  185.6820  178.3440  145.0220 C   0  0  0  0  0  0  0  0  0  0  0  0
  182.0700  178.8080  143.9770 C   0  0  0  0  0  3  0  0  0  0  0  0
  184.5930  178.5600  142.7750 C   0  0  0  0  0  0  0  0  0  0  0  0
  186.9010  177.9610  144.4220 C   0  0  0  0  0  0  0  0  0  0  0  0
  187.9520  177.9020  146.6140 C   0  0  0  0  0  3  0  0  0  0  0  0
  188.0210  177.7180  145.2320 C   0  0  0  0  0  3  0  0  0  0  0  0
  183.2080  178.6590  144.7700 C   0  0  0  0  0  3  0  0  0  0  0  0
  184.4750  178.5360  144.1820 C   0  0  0  0  0  0  0  0  0  0  0  0
  188.3040  177.8140  142.3770 N   0  0  0  0  0  0  0  0  0  0  0  0
  191.6060  177.2120  144.1090 C   0  0  0  0  0  3  0  0  0  0  0  0
  190.5030  179.2740  143.5850 O   0  0  0  0  0  1  0  0  0  0  0  0
  189.4560  177.1540  142.9610 C   0  0  0  0  0  0  0  0  0  0  0  0
  189.5500  175.7520  142.9210 C   0  0  0  0  0  3  0  0  0  0  0  0
  190.5110  177.8840  143.5560 C   0  0  0  0  0  0  0  0  0  0  0  0
  191.6740  175.8190  144.0700 C   0  0  0  0  0  3  0  0  0  0  0  0
  190.6470  175.0880  143.4730 C   0  0  0  0  0  3  0  0  0  0  0  0
  188.4260  178.6600  141.1960 C   0  0  0  0  0  2  0  0  0  0  0  0
  188.6540  177.8040  139.9610 C   0  0  0  0  0  2  0  0  0  0  0  0
  190.1380  177.6770  139.6780 C   0  0  0  0  0  2  0  0  0  0  0  0
  190.4760  176.2890  139.4040 N   0  0  0  0  0  2  0  0  0  0  0  0
  190.5120  176.5730  137.0850 O   0  0  0  0  0  0  0  0  0  0  0  0
  190.6480  175.8030  138.0730 C   0  0  0  0  0  0  0  0  0  0  0  0
  190.9770  174.4360  137.8600 N   0  0  0  0  0  1  0  0  0  0  0  0
  1 10  1  0  0  0  0
  1  4  1  0  0  0  0
  2  6  2  0  0  0  0
  2 10  1  0  0  0  0
  3  5  1  0  0  0  0
  4 16  1  6  0  0  0
  4 11  1  0  0  0  0
  6  9  1  0  0  0  0
  7  2  1  0  0  0  0
  8  3  2  0  0  0  0
  9 14  2  0  0  0  0
 10 15  2  0  0  0  0
 11  8  1  0  0  0  0
 11 13  2  0  0  0  0
 12  5  2  0  0  0  0
 13 12  1  0  0  0  0
 15 14  1  0  0  0  0
 15  8  1  0  0  0  0
 16 19  1  0  0  0  0
 19 21  1  0  0  0  0
 20 19  2  0  0  0  0
 20 23  1  0  0  0  0
 21 18  1  0  0  0  0
 21 17  2  0  0  0  0
 22 17  1  0  0  0  0
 23 22  2  0  0  0  0
 24 16  1  0  0  0  0
 25 24  1  0  0  0  0
 26 25  1  0  0  0  0
 27 26  1  0  0  0  0
 28 29  2  0  0  0  0
 29 27  1  0  0  0  0
 30 29  1  0  0  0  0
M  END
>  <MODEL>
1

>  <REMARK>
 VINA RESULT:      -9.9      0.000      0.000
  Name = 
  6 active torsions:
  status: ('A' for Active; 'I' for Inactive)
    1  A    between atoms: C_4  and  N_13
    2  A    between atoms: N_7  and  C_16
    3  A    between atoms: C_8  and  N_13
    4  A    between atoms: N_13  and  C_27
    5  A    between atoms: C_16  and  C_30
    6  A    between atoms: C_27  and  C_30
                            x       y       z     vdW  Elec       q    Type
                         _______ _______ _______ _____ _____    ______ ____

>  <TORSDO>
F 6

$$$$
=
 OpenBabel11052412313D

 30 33  0  0  1  0  0  0  0  0999 V2000
  185.9390  178.5390  142.1440 C   0  0  0  0  0  2  0  0  0  0  0  0
  183.4220  178.7220  142.0020 C   0  0  0  0  0  0  0  0  0  0  0  0
  185.6320  178.5290  146.4200 C   0  0  0  0  0  3  0  0  0  0  0  0
  186.9410  177.6890  142.9340 C   0  0  2  0  0  3  0  0  0  0  0  0
  186.7680  178.3170  147.2040 C   0  0  0  0  0  3  0  0  0  0  0  0
  182.1720  178.8400  142.6140 C   0  0  0  0  0  3  0  0  0  0  0  0
  183.4930  178.7760  140.5120 C   0  0  0  0  0  1  0  0  0  0  0  0
  185.6820  178.3500  145.0280 C   0  0  0  0  0  0  0  0  0  0  0  0
  182.0630  178.8110  144.0050 C   0  0  0  0  0  3  0  0  0  0  0  0
  184.5790  178.5640  142.7880 C   0  0  0  0  0  0  0  0  0  0  0  0
  186.8980  177.9680  144.4220 C   0  0  0  0  0  0  0  0  0  0  0  0
  187.9620  177.9110  146.6070 C   0  0  0  0  0  3  0  0  0  0  0  0
  188.0230  177.7260  145.2250 C   0  0  0  0  0  3  0  0  0  0  0  0
  183.2060  178.6630  144.7920 C   0  0  0  0  0  3  0  0  0  0  0  0
  184.4700  178.5410  144.1960 C   0  0  0  0  0  0  0  0  0  0  0  0
  188.2880  177.8210  142.3680 N   0  0  0  0  0  0  0  0  0  0  0  0
  191.5990  177.2320  144.0860 C   0  0  0  0  0  3  0  0  0  0  0  0
  190.4870  179.2890  143.5640 O   0  0  0  0  0  1  0  0  0  0  0  0
  189.4450  177.1650  142.9480 C   0  0  0  0  0  0  0  0  0  0  0  0
  189.5430  175.7640  142.9090 C   0  0  0  0  0  3  0  0  0  0  0  0
  190.5000  177.9000  143.5370 C   0  0  0  0  0  0  0  0  0  0  0  0
  191.6720  175.8390  144.0490 C   0  0  0  0  0  3  0  0  0  0  0  0
  190.6450  175.1050  143.4560 C   0  0  0  0  0  3  0  0  0  0  0  0
  188.4010  178.6620  141.1830 C   0  0  0  0  0  2  0  0  0  0  0  0
  189.1000  177.9030  140.0670 C   0  0  0  0  0  2  0  0  0  0  0  0
  189.0160  178.6840  138.7690 C   0  0  0  0  0  2  0  0  0  0  0  0
  188.2960  177.9120  137.7700 N   0  0  0  0  0  2  0  0  0  0  0  0
  186.2130  178.8150  138.3170 O   0  0  0  0  0  0  0  0  0  0  0  0
  186.8840  178.0280  137.5970 C   0  0  0  0  0  0  0  0  0  0  0  0
  186.2290  177.2490  136.6050 N   0  0  0  0  0  1  0  0  0  0  0  0
  1 10  1  0  0  0  0
  1  4  1  0  0  0  0
  2  6  2  0  0  0  0
  2 10  1  0  0  0  0
  3  5  1  0  0  0  0
  4 16  1  6  0  0  0
  4 11  1  0  0  0  0
  6  9  1  0  0  0  0
  7  2  1  0  0  0  0
  8  3  2  0  0  0  0
  9 14  2  0  0  0  0
 10 15  2  0  0  0  0
 11  8  1  0  0  0  0
 11 13  2  0  0  0  0
 12  5  2  0  0  0  0
 13 12  1  0  0  0  0
 15 14  1  0  0  0  0
 15  8  1  0  0  0  0
 16 19  1  0  0  0  0
 19 21  1  0  0  0  0
 20 19  2  0  0  0  0
 20 23  1  0  0  0  0
 21 18  1  0  0  0  0
 21 17  2  0  0  0  0
 22 17  1  0  0  0  0
 23 22  2  0  0  0  0
 24 16  1  0  0  0  0
 25 24  1  0  0  0  0
 26 25  1  0  0  0  0
 27 26  1  0  0  0  0
 29 27  1  0  0  0  0
 29 28  2  0  0  0  0
 30 29  1  0  0  0  0
M  END
>  <MODEL>
2

>  <REMARK>
 VINA RESULT:      -9.9      1.562      1.730
  Name = 
  6 active torsions:
  status: ('A' for Active; 'I' for Inactive)
    1  A    between atoms: C_4  and  N_13
    2  A    between atoms: N_7  and  C_16
    3  A    between atoms: C_8  and  N_13
    4  A    between atoms: N_13  and  C_27
    5  A    between atoms: C_16  and  C_30
    6  A    between atoms: C_27  and  C_30
                            x       y       z     vdW  Elec       q    Type
                         _______ _______ _______ _____ _____    ______ ____

>  <TORSDO>
F 6

$$$$
=
 OpenBabel11052412313D

 30 33  0  0  1  0  0  0  0  0999 V2000
  186.1040  178.2770  142.2390 C   0  0  0  0  0  2  0  0  0  0  0  0
  183.6850  178.5140  141.5460 C   0  0  0  0  0  0  0  0  0  0  0  0
  184.9160  178.7850  146.3270 C   0  0  0  0  0  3  0  0  0  0  0  0
  186.8740  177.4990  143.3120 C   0  0  2  0  0  3  0  0  0  0  0  0
  185.8520  178.6350  147.3520 C   0  0  0  0  0  3  0  0  0  0  0  0
  182.3430  178.7400  141.8620 C   0  0  0  0  0  3  0  0  0  0  0  0
  184.0670  178.3880  140.1090 C   0  0  0  0  0  1  0  0  0  0  0  0
  185.2450  178.4400  145.0050 C   0  0  0  0  0  0  0  0  0  0  0  0
  181.9470  178.8790  143.1930 C   0  0  0  0  0  3  0  0  0  0  0  0
  184.6440  178.4180  142.5720 C   0  0  0  0  0  0  0  0  0  0  0  0
  186.5380  177.9530  144.7170 C   0  0  0  0  0  0  0  0  0  0  0  0
  187.1200  178.1260  147.0710 C   0  0  0  0  0  3  0  0  0  0  0  0
  187.4570  177.7770  145.7620 C   0  0  0  0  0  3  0  0  0  0  0  0
  182.8920  178.7930  144.2150 C   0  0  0  0  0  3  0  0  0  0  0  0
  184.2440  178.5650  143.9180 C   0  0  0  0  0  0  0  0  0  0  0  0
  188.3140  177.5240  143.0340 N   0  0  0  0  0  0  0  0  0  0  0  0
  190.3340  176.6760  139.9570 C   0  0  0  0  0  3  0  0  0  0  0  0
  190.3750  175.6860  142.1390 O   0  0  0  0  0  1  0  0  0  0  0  0
  188.8480  177.5410  141.6850 C   0  0  0  0  0  0  0  0  0  0  0  0
  188.3890  178.5010  140.7670 C   0  0  0  0  0  3  0  0  0  0  0  0
  189.8440  176.6280  141.2670 C   0  0  0  0  0  0  0  0  0  0  0  0
  189.8560  177.6280  139.0570 C   0  0  0  0  0  3  0  0  0  0  0  0
  188.8860  178.5440  139.4630 C   0  0  0  0  0  3  0  0  0  0  0  0
  189.1880  177.5220  144.2010 C   0  0  0  0  0  2  0  0  0  0  0  0
  190.2460  178.6050  144.0650 C   0  0  0  0  0  2  0  0  0  0  0  0
  191.6190  178.0350  144.3640 C   0  0  0  0  0  2  0  0  0  0  0  0
  191.6730  177.5620  145.7380 N   0  0  0  0  0  2  0  0  0  0  0  0
  192.0680  175.3380  145.1430 O   0  0  0  0  0  0  0  0  0  0  0  0
  191.9030  176.1900  146.0570 C   0  0  0  0  0  0  0  0  0  0  0  0
  191.9450  175.7800  147.4180 N   0  0  0  0  0  1  0  0  0  0  0  0
  1 10  1  0  0  0  0
  1  4  1  0  0  0  0
  2  6  2  0  0  0  0
  2 10  1  0  0  0  0
  3  5  1  0  0  0  0
  4 16  1  6  0  0  0
  4 11  1  0  0  0  0
  6  9  1  0  0  0  0
  7  2  1  0  0  0  0
  8  3  2  0  0  0  0
  9 14  2  0  0  0  0
 10 15  2  0  0  0  0
 11  8  1  0  0  0  0
 11 13  2  0  0  0  0
 12  5  2  0  0  0  0
 13 12  1  0  0  0  0
 15 14  1  0  0  0  0
 15  8  1  0  0  0  0
 16 24  1  0  0  0  0
 17 21  1  0  0  0  0
 19 16  1  0  0  0  0
 20 19  1  0  0  0  0
 21 19  2  0  0  0  0
 21 18  1  0  0  0  0
 22 23  1  0  0  0  0
 22 17  2  0  0  0  0
 23 20  2  0  0  0  0
 25 24  1  0  0  0  0
 25 26  1  0  0  0  0
 26 27  1  0  0  0  0
 27 29  1  0  0  0  0
 28 29  2  0  0  0  0
 29 30  1  0  0  0  0
M  END
>  <MODEL>
3

>  <REMARK>
 VINA RESULT:      -9.4      2.122      3.889
  Name = 
  6 active torsions:
  status: ('A' for Active; 'I' for Inactive)
    1  A    between atoms: C_4  and  N_13
    2  A    between atoms: N_7  and  C_16
    3  A    between atoms: C_8  and  N_13
    4  A    between atoms: N_13  and  C_27
    5  A    between atoms: C_16  and  C_30
    6  A    between atoms: C_27  and  C_30
                            x       y       z     vdW  Elec       q    Type
                         _______ _______ _______ _____ _____    ______ ____

>  <TORSDO>
F 6

$$$$
=
 OpenBabel11052412313D

 30 33  0  0  1  0  0  0  0  0999 V2000
  187.4280  178.1710  141.0330 C   0  0  0  0  0  2  0  0  0  0  0  0
  185.5720  178.2070  142.7480 C   0  0  0  0  0  0  0  0  0  0  0  0
  190.2720  177.7410  144.2120 C   0  0  0  0  0  3  0  0  0  0  0  0
  188.6730  177.3170  140.7710 C   0  0  2  0  0  3  0  0  0  0  0  0
  191.6210  177.5290  143.9210 C   0  0  0  0  0  3  0  0  0  0  0  0
  185.1390  178.1870  144.0770 C   0  0  0  0  0  3  0  0  0  0  0  0
  184.5580  178.4050  141.6720 C   0  0  0  0  0  1  0  0  0  0  0  0
  189.3070  177.6970  143.1920 C   0  0  0  0  0  0  0  0  0  0  0  0
  186.0580  178.0210  145.1150 C   0  0  0  0  0  3  0  0  0  0  0  0
  186.9390  178.0500  142.4500 C   0  0  0  0  0  0  0  0  0  0  0  0
  189.7140  177.4510  141.8630 C   0  0  0  0  0  0  0  0  0  0  0  0
  192.0180  177.2570  142.6120 C   0  0  0  0  0  3  0  0  0  0  0  0
  191.0680  177.2070  141.5900 C   0  0  0  0  0  3  0  0  0  0  0  0
  187.4150  177.8730  144.8280 C   0  0  0  0  0  3  0  0  0  0  0  0
  187.8690  177.8880  143.5010 C   0  0  0  0  0  0  0  0  0  0  0  0
  189.2120  177.5860  139.4340 N   0  0  0  0  0  0  0  0  0  0  0  0
  190.0750  174.6820  137.1790 C   0  0  0  0  0  3  0  0  0  0  0  0
  187.9320  175.5410  137.8200 O   0  0  0  0  0  1  0  0  0  0  0  0
  189.9620  176.5980  138.6810 C   0  0  0  0  0  0  0  0  0  0  0  0
  191.3650  176.5890  138.7490 C   0  0  0  0  0  3  0  0  0  0  0  0
  189.3180  175.6180  137.8910 C   0  0  0  0  0  0  0  0  0  0  0  0
  191.4680  174.6970  137.2500 C   0  0  0  0  0  3  0  0  0  0  0  0
  192.1140  175.6490  138.0380 C   0  0  0  0  0  3  0  0  0  0  0  0
  188.9560  178.9190  138.9010 C   0  0  0  0  0  2  0  0  0  0  0  0
  189.2020  178.9390  137.4010 C   0  0  0  0  0  2  0  0  0  0  0  0
  187.8840  178.8770  136.6530 C   0  0  0  0  0  2  0  0  0  0  0  0
  186.7830  178.7590  137.5950 N   0  0  0  0  0  2  0  0  0  0  0  0
  185.5430  177.3190  136.2360 O   0  0  0  0  0  0  0  0  0  0  0  0
  185.6350  177.9560  137.3190 C   0  0  0  0  0  0  0  0  0  0  0  0
  184.5860  177.8750  138.2750 N   0  0  0  0  0  1  0  0  0  0  0  0
  1 10  1  0  0  0  0
  2  6  1  0  0  0  0
  4 16  1  6  0  0  0
  4  1  1  0  0  0  0
  4 11  1  0  0  0  0
  5  3  1  0  0  0  0
  6  9  2  0  0  0  0
  7  2  1  0  0  0  0
  8 15  1  0  0  0  0
  8  3  2  0  0  0  0
 10  2  2  0  0  0  0
 10 15  1  0  0  0  0
 11  8  1  0  0  0  0
 12  5  2  0  0  0  0
 13 11  2  0  0  0  0
 13 12  1  0  0  0  0
 14  9  1  0  0  0  0
 15 14  2  0  0  0  0
 17 22  2  0  0  0  0
 17 21  1  0  0  0  0
 18 21  1  0  0  0  0
 19 20  1  0  0  0  0
 19 16  1  0  0  0  0
 21 19  2  0  0  0  0
 22 23  1  0  0  0  0
 23 20  2  0  0  0  0
 24 16  1  0  0  0  0
 25 24  1  0  0  0  0
 26 25  1  0  0  0  0
 26 27  1  0  0  0  0
 28 29  2  0  0  0  0
 29 27  1  0  0  0  0
 29 30  1  0  0  0  0
M  END
>  <MODEL>
4

>  <REMARK>
 VINA RESULT:      -8.4      2.290      4.744
  Name = 
  6 active torsions:
  status: ('A' for Active; 'I' for Inactive)
    1  A    between atoms: C_4  and  N_13
    2  A    between atoms: N_7  and  C_16
    3  A    between atoms: C_8  and  N_13
    4  A    between atoms: N_13  and  C_27
    5  A    between atoms: C_16  and  C_30
    6  A    between atoms: C_27  and  C_30
                            x       y       z     vdW  Elec       q    Type
                         _______ _______ _______ _____ _____    ______ ____

>  <TORSDO>
F 6

$$$$
=
 OpenBabel11052412313D

 30 33  0  0  1  0  0  0  0  0999 V2000
  186.9390  177.9060  143.1520 C   0  0  0  0  0  2  0  0  0  0  0  0
  184.9640  178.5140  144.6070 C   0  0  0  0  0  0  0  0  0  0  0  0
  184.4600  178.4020  139.6900 C   0  0  0  0  0  3  0  0  0  0  0  0
  187.5860  178.4640  141.8800 C   0  0  2  0  0  3  0  0  0  0  0  0
  185.0160  178.3160  138.4120 C   0  0  0  0  0  3  0  0  0  0  0  0
  183.6160  178.8540  144.7540 C   0  0  0  0  0  3  0  0  0  0  0  0
  185.7830  178.3060  145.8360 C   0  0  0  0  0  1  0  0  0  0  0  0
  185.2850  178.4290  140.8260 C   0  0  0  0  0  0  0  0  0  0  0  0
  182.8110  179.0430  143.6290 C   0  0  0  0  0  3  0  0  0  0  0  0
  185.5180  178.3700  143.3210 C   0  0  0  0  0  0  0  0  0  0  0  0
  186.6860  178.3500  140.6680 C   0  0  0  0  0  0  0  0  0  0  0  0
  186.4010  178.2680  138.2550 C   0  0  0  0  0  3  0  0  0  0  0  0
  187.2320  178.2970  139.3760 C   0  0  0  0  0  3  0  0  0  0  0  0
  183.3500  178.8930  142.3510 C   0  0  0  0  0  3  0  0  0  0  0  0
  184.7020  178.5550  142.1830 C   0  0  0  0  0  0  0  0  0  0  0  0
  188.9070  177.8630  141.6660 N   0  0  0  0  0  0  0  0  0  0  0  0
  191.1770  176.4020  144.3080 C   0  0  0  0  0  3  0  0  0  0  0  0
  189.6130  175.3110  142.8580 O   0  0  0  0  0  1  0  0  0  0  0  0
  189.8880  177.7380  142.7280 C   0  0  0  0  0  0  0  0  0  0  0  0
  190.5100  178.8890  143.2400 C   0  0  0  0  0  3  0  0  0  0  0  0
  190.2260  176.4830  143.2860 C   0  0  0  0  0  0  0  0  0  0  0  0
  191.7920  177.5560  144.7950 C   0  0  0  0  0  3  0  0  0  0  0  0
  191.4560  178.8010  144.2630 C   0  0  0  0  0  3  0  0  0  0  0  0
  189.1850  177.4000  140.3120 C   0  0  0  0  0  2  0  0  0  0  0  0
  190.6840  177.2510  140.1070 C   0  0  0  0  0  2  0  0  0  0  0  0
  190.9840  176.9310  138.6550 C   0  0  0  0  0  2  0  0  0  0  0  0
  190.8620  175.5000  138.4260 N   0  0  0  0  0  2  0  0  0  0  0  0
  189.2230  175.7250  136.7770 O   0  0  0  0  0  0  0  0  0  0  0  0
  189.9540  174.9630  137.4640 C   0  0  0  0  0  0  0  0  0  0  0  0
  189.8740  173.5560  137.2790 N   0  0  0  0  0  1  0  0  0  0  0  0
  1 10  1  0  0  0  0
  2  6  1  0  0  0  0
  2  7  1  0  0  0  0
  3  8  1  0  0  0  0
  4 16  1  6  0  0  0
  4  1  1  0  0  0  0
  5  3  2  0  0  0  0
  8 15  1  0  0  0  0
  9  6  2  0  0  0  0
 10  2  2  0  0  0  0
 11  8  2  0  0  0  0
 11  4  1  0  0  0  0
 12  5  1  0  0  0  0
 12 13  2  0  0  0  0
 13 11  1  0  0  0  0
 14  9  1  0  0  0  0
 15 14  2  0  0  0  0
 15 10  1  0  0  0  0
 16 19  1  0  0  0  0
 17 22  1  0  0  0  0
 18 21  1  0  0  0  0
 19 20  2  0  0  0  0
 19 21  1  0  0  0  0
 20 23  1  0  0  0  0
 21 17  2  0  0  0  0
 23 22  2  0  0  0  0
 24 16  1  0  0  0  0
 25 24  1  0  0  0  0
 26 25  1  0  0  0  0
 27 26  1  0  0  0  0
 28 29  2  0  0  0  0
 29 27  1  0  0  0  0
 30 29  1  0  0  0  0
M  END
>  <MODEL>
5

>  <REMARK>
 VINA RESULT:      -8.3      1.460      3.659
  Name = 
  6 active torsions:
  status: ('A' for Active; 'I' for Inactive)
    1  A    between atoms: C_4  and  N_13
    2  A    between atoms: N_7  and  C_16
    3  A    between atoms: C_8  and  N_13
    4  A    between atoms: N_13  and  C_27
    5  A    between atoms: C_16  and  C_30
    6  A    between atoms: C_27  and  C_30
                            x       y       z     vdW  Elec       q    Type
                         _______ _______ _______ _____ _____    ______ ____

>  <TORSDO>
F 6

$$$$
=
 OpenBabel11052412313D

 30 33  0  0  1  0  0  0  0  0999 V2000
  184.3440  178.2860  141.5070 C   0  0  0  0  0  2  0  0  0  0  0  0
  185.8410  178.2360  143.5420 C   0  0  0  0  0  0  0  0  0  0  0  0
  180.9680  178.8730  144.0830 C   0  0  0  0  0  3  0  0  0  0  0  0
  183.1990  179.1690  140.9990 C   0  0  2  0  0  3  0  0  0  0  0  0
  179.7060  179.1180  143.5390 C   0  0  0  0  0  3  0  0  0  0  0  0
  186.0170  178.2750  144.9280 C   0  0  0  0  0  3  0  0  0  0  0  0
  187.0330  177.9840  142.6810 C   0  0  0  0  0  1  0  0  0  0  0  0
  182.1090  178.8650  143.2630 C   0  0  0  0  0  0  0  0  0  0  0  0
  184.9250  178.4920  145.7700 C   0  0  0  0  0  3  0  0  0  0  0  0
  184.5610  178.4260  142.9890 C   0  0  0  0  0  0  0  0  0  0  0  0
  181.9680  179.0910  141.8770 C   0  0  0  0  0  0  0  0  0  0  0  0
  179.5710  179.3700  142.1740 C   0  0  0  0  0  3  0  0  0  0  0  0
  180.6970  179.3680  141.3490 C   0  0  0  0  0  3  0  0  0  0  0  0
  183.6520  178.6730  145.2300 C   0  0  0  0  0  3  0  0  0  0  0  0
  183.4550  178.6400  143.8410 C   0  0  0  0  0  0  0  0  0  0  0  0
  182.9130  178.8840  139.5890 N   0  0  0  0  0  0  0  0  0  0  0  0
  183.7080  175.6910  137.7360 C   0  0  0  0  0  3  0  0  0  0  0  0
  184.9200  177.7570  137.8210 O   0  0  0  0  0  1  0  0  0  0  0  0
  182.8280  177.5330  139.0680 C   0  0  0  0  0  0  0  0  0  0  0  0
  181.7210  176.7300  139.3910 C   0  0  0  0  0  3  0  0  0  0  0  0
  183.8250  176.9990  138.2170 C   0  0  0  0  0  0  0  0  0  0  0  0
  182.6070  174.9060  138.0780 C   0  0  0  0  0  3  0  0  0  0  0  0
  181.6110  175.4270  138.9030 C   0  0  0  0  0  3  0  0  0  0  0  0
  182.7240  180.0470  138.7300 C   0  0  0  0  0  2  0  0  0  0  0  0
  181.4580  179.8870  137.9040 C   0  0  0  0  0  2  0  0  0  0  0  0
  180.6080  181.1400  137.9990 C   0  0  0  0  0  2  0  0  0  0  0  0
  181.4610  182.3170  138.0340 N   0  0  0  0  0  2  0  0  0  0  0  0
  180.0460  183.5970  136.6860 O   0  0  0  0  0  0  0  0  0  0  0  0
  181.1150  183.5210  137.3490 C   0  0  0  0  0  0  0  0  0  0  0  0
  181.9850  184.6430  137.4140 N   0  0  0  0  0  1  0  0  0  0  0  0
  1 10  1  0  0  0  0
  2  6  1  0  0  0  0
  4 16  1  6  0  0  0
  4  1  1  0  0  0  0
  4 11  1  0  0  0  0
  5  3  1  0  0  0  0
  6  9  2  0  0  0  0
  7  2  1  0  0  0  0
  8 15  1  0  0  0  0
  8  3  2  0  0  0  0
 10  2  2  0  0  0  0
 10 15  1  0  0  0  0
 11  8  1  0  0  0  0
 12  5  2  0  0  0  0
 13 11  2  0  0  0  0
 13 12  1  0  0  0  0
 14  9  1  0  0  0  0
 15 14  2  0  0  0  0
 17 22  2  0  0  0  0
 17 21  1  0  0  0  0
 18 21  1  0  0  0  0
 19 20  1  0  0  0  0
 19 16  1  0  0  0  0
 21 19  2  0  0  0  0
 22 23  1  0  0  0  0
 23 20  2  0  0  0  0
 24 16  1  0  0  0  0
 25 26  1  0  0  0  0
 25 24  1  0  0  0  0
 26 27  1  0  0  0  0
 28 29  2  0  0  0  0
 29 30  1  0  0  0  0
 29 27  1  0  0  0  0
M  END
>  <MODEL>
6

>  <REMARK>
 VINA RESULT:      -8.3      4.496      7.845
  Name = 
  6 active torsions:
  status: ('A' for Active; 'I' for Inactive)
    1  A    between atoms: C_4  and  N_13
    2  A    between atoms: N_7  and  C_16
    3  A    between atoms: C_8  and  N_13
    4  A    between atoms: N_13  and  C_27
    5  A    between atoms: C_16  and  C_30
    6  A    between atoms: C_27  and  C_30
                            x       y       z     vdW  Elec       q    Type
                         _______ _______ _______ _____ _____    ______ ____

>  <TORSDO>
F 6

$$$$
=
 OpenBabel11052412313D

 30 33  0  0  1  0  0  0  0  0999 V2000
  184.2000  178.1000  141.6070 C   0  0  0  0  0  2  0  0  0  0  0  0
  185.7380  178.3070  143.6020 C   0  0  0  0  0  0  0  0  0  0  0  0
  180.8510  178.7640  144.1990 C   0  0  0  0  0  3  0  0  0  0  0  0
  183.0050  178.8800  141.0490 C   0  0  2  0  0  3  0  0  0  0  0  0
  179.5680  178.8990  143.6650 C   0  0  0  0  0  3  0  0  0  0  0  0
  185.9380  178.4800  144.9740 C   0  0  0  0  0  3  0  0  0  0  0  0
  186.9230  178.0320  142.7390 C   0  0  0  0  0  1  0  0  0  0  0  0
  181.9750  178.7340  143.3560 C   0  0  0  0  0  0  0  0  0  0  0  0
  184.8540  178.7230  145.8190 C   0  0  0  0  0  3  0  0  0  0  0  0
  184.4390  178.3860  143.0640 C   0  0  0  0  0  0  0  0  0  0  0  0
  181.7960  178.8250  141.9590 C   0  0  0  0  0  0  0  0  0  0  0  0
  179.3950  179.0190  142.2860 C   0  0  0  0  0  3  0  0  0  0  0  0
  180.5030  178.9940  141.4390 C   0  0  0  0  0  3  0  0  0  0  0  0
  183.5630  178.7940  145.2950 C   0  0  0  0  0  3  0  0  0  0  0  0
  183.3420  178.6250  143.9200 C   0  0  0  0  0  0  0  0  0  0  0  0
  182.7050  178.4540  139.6770 N   0  0  0  0  0  0  0  0  0  0  0  0
  179.9430  179.4090  137.2840 C   0  0  0  0  0  3  0  0  0  0  0  0
  180.4420  177.2880  138.2820 O   0  0  0  0  0  1  0  0  0  0  0  0
  181.8510  179.2210  138.7910 C   0  0  0  0  0  0  0  0  0  0  0  0
  182.1310  180.5780  138.5560 C   0  0  0  0  0  3  0  0  0  0  0  0
  180.7450  178.6360  138.1310 C   0  0  0  0  0  0  0  0  0  0  0  0
  180.2320  180.7580  137.0740 C   0  0  0  0  0  3  0  0  0  0  0  0
  181.3280  181.3420  137.7070 C   0  0  0  0  0  3  0  0  0  0  0  0
  183.3140  177.1990  139.2530 C   0  0  0  0  0  2  0  0  0  0  0  0
  184.0570  177.3950  137.9420 C   0  0  0  0  0  2  0  0  0  0  0  0
  185.2980  178.2380  138.1640 C   0  0  0  0  0  2  0  0  0  0  0  0
  186.4840  177.4910  137.7770 N   0  0  0  0  0  2  0  0  0  0  0  0
  187.8790  178.5700  139.3090 O   0  0  0  0  0  0  0  0  0  0  0  0
  187.7510  177.7100  138.3970 C   0  0  0  0  0  0  0  0  0  0  0  0
  188.8790  176.9510  137.9800 N   0  0  0  0  0  1  0  0  0  0  0  0
  1 10  1  0  0  0  0
  2  6  1  0  0  0  0
  4 16  1  6  0  0  0
  4  1  1  0  0  0  0
  4 11  1  0  0  0  0
  5  3  1  0  0  0  0
  6  9  2  0  0  0  0
  7  2  1  0  0  0  0
  8 15  1  0  0  0  0
  8  3  2  0  0  0  0
 10  2  2  0  0  0  0
 10 15  1  0  0  0  0
 11  8  1  0  0  0  0
 12  5  2  0  0  0  0
 13 11  2  0  0  0  0
 13 12  1  0  0  0  0
 14  9  1  0  0  0  0
 15 14  2  0  0  0  0
 17 21  1  0  0  0  0
 19 16  1  0  0  0  0
 20 19  1  0  0  0  0
 21 18  1  0  0  0  0
 21 19  2  0  0  0  0
 22 17  2  0  0  0  0
 22 23  1  0  0  0  0
 23 20  2  0  0  0  0
 24 16  1  0  0  0  0
 25 26  1  0  0  0  0
 25 24  1  0  0  0  0
 27 26  1  0  0  0  0
 27 29  1  0  0  0  0
 29 28  2  0  0  0  0
 30 29  1  0  0  0  0
M  END
>  <MODEL>
7

>  <REMARK>
 VINA RESULT:      -8.0      3.329      7.206
  Name = 
  6 active torsions:
  status: ('A' for Active; 'I' for Inactive)
    1  A    between atoms: C_4  and  N_13
    2  A    between atoms: N_7  and  C_16
    3  A    between atoms: C_8  and  N_13
    4  A    between atoms: N_13  and  C_27
    5  A    between atoms: C_16  and  C_30
    6  A    between atoms: C_27  and  C_30
                            x       y       z     vdW  Elec       q    Type
                         _______ _______ _______ _____ _____    ______ ____

>  <TORSDO>
F 6

$$$$
=
 OpenBabel11052412313D

 30 33  0  0  1  0  0  0  0  0999 V2000
  184.9130  177.9920  141.9050 C   0  0  0  0  0  2  0  0  0  0  0  0
  186.1490  178.0670  144.1090 C   0  0  0  0  0  0  0  0  0  0  0  0
  181.2990  179.0200  143.9690 C   0  0  0  0  0  3  0  0  0  0  0  0
  183.9000  178.8810  141.1770 C   0  0  2  0  0  3  0  0  0  0  0  0
  180.1300  179.2770  143.2490 C   0  0  0  0  0  3  0  0  0  0  0  0
  186.1580  178.2350  145.4960 C   0  0  0  0  0  3  0  0  0  0  0  0
  187.4160  177.6640  143.4320 C   0  0  0  0  0  1  0  0  0  0  0  0
  182.5270  178.8670  143.3040 C   0  0  0  0  0  0  0  0  0  0  0  0
  184.9900  178.5960  146.1700 C   0  0  0  0  0  3  0  0  0  0  0  0
  184.9590  178.2690  143.3830 C   0  0  0  0  0  0  0  0  0  0  0  0
  182.5690  178.9590  141.8960 C   0  0  0  0  0  0  0  0  0  0  0  0
  180.1780  179.3960  141.8600 C   0  0  0  0  0  3  0  0  0  0  0  0
  181.3930  179.2500  141.1880 C   0  0  0  0  0  3  0  0  0  0  0  0
  183.8060  178.7900  145.4590 C   0  0  0  0  0  3  0  0  0  0  0  0
  183.7760  178.6280  144.0650 C   0  0  0  0  0  0  0  0  0  0  0  0
  183.7670  178.4710  139.7750 N   0  0  0  0  0  0  0  0  0  0  0  0
  180.7320  177.1890  137.9270 C   0  0  0  0  0  3  0  0  0  0  0  0
  181.8000  179.3310  137.8200 O   0  0  0  0  0  1  0  0  0  0  0  0
  182.6930  177.6120  139.3120 C   0  0  0  0  0  0  0  0  0  0  0  0
  182.5590  176.3180  139.8430 C   0  0  0  0  0  3  0  0  0  0  0  0
  181.7530  178.0470  138.3490 C   0  0  0  0  0  0  0  0  0  0  0  0
  180.6240  175.9030  138.4580 C   0  0  0  0  0  3  0  0  0  0  0  0
  181.5350  175.4680  139.4190 C   0  0  0  0  0  3  0  0  0  0  0  0
  184.7880  178.9740  138.8650 C   0  0  0  0  0  2  0  0  0  0  0  0
  185.2190  177.8780  137.9040 C   0  0  0  0  0  2  0  0  0  0  0  0
  186.6740  178.0630  137.5180 C   0  0  0  0  0  2  0  0  0  0  0  0
  187.5360  177.6230  138.6040 N   0  0  0  0  0  2  0  0  0  0  0  0
  189.0560  179.3780  138.3440 O   0  0  0  0  0  0  0  0  0  0  0  0
  188.7200  178.3340  138.9650 C   0  0  0  0  0  0  0  0  0  0  0  0
  189.5280  177.8600  140.0340 N   0  0  0  0  0  1  0  0  0  0  0  0
  1 10  1  0  0  0  0
  2  6  1  0  0  0  0
  4 16  1  6  0  0  0
  4 11  1  0  0  0  0
  4  1  1  0  0  0  0
  5  3  2  0  0  0  0
  6  9  2  0  0  0  0
  7  2  1  0  0  0  0
  8  3  1  0  0  0  0
  8 15  1  0  0  0  0
 10 15  1  0  0  0  0
 10  2  2  0  0  0  0
 11  8  2  0  0  0  0
 12  5  1  0  0  0  0
 13 12  2  0  0  0  0
 13 11  1  0  0  0  0
 14  9  1  0  0  0  0
 15 14  2  0  0  0  0
 17 21  2  0  0  0  0
 17 22  1  0  0  0  0
 18 21  1  0  0  0  0
 19 16  1  0  0  0  0
 19 20  2  0  0  0  0
 21 19  1  0  0  0  0
 22 23  2  0  0  0  0
 23 20  1  0  0  0  0
 24 16  1  0  0  0  0
 25 24  1  0  0  0  0
 26 25  1  0  0  0  0
 26 27  1  0  0  0  0
 27 29  1  0  0  0  0
 28 29  2  0  0  0  0
 29 30  1  0  0  0  0
M  END
>  <MODEL>
8

>  <REMARK>
 VINA RESULT:      -8.0      2.925      6.422
  Name = 
  6 active torsions:
  status: ('A' for Active; 'I' for Inactive)
    1  A    between atoms: C_4  and  N_13
    2  A    between atoms: N_7  and  C_16
    3  A    between atoms: C_8  and  N_13
    4  A    between atoms: N_13  and  C_27
    5  A    between atoms: C_16  and  C_30
    6  A    between atoms: C_27  and  C_30
                            x       y       z     vdW  Elec       q    Type
                         _______ _______ _______ _____ _____    ______ ____

>  <TORSDO>
F 6

$$$$
=
 OpenBabel11052412313D

 30 33  0  0  1  0  0  0  0  0999 V2000
  186.7970  178.2000  139.3710 C   0  0  0  0  0  2  0  0  0  0  0  0
  188.6170  178.0070  137.6290 C   0  0  0  0  0  0  0  0  0  0  0  0
  189.4560  176.4670  142.2520 C   0  0  0  0  0  3  0  0  0  0  0  0
  186.7020  178.6900  140.8200 C   0  0  2  0  0  3  0  0  0  0  0  0
  189.0770  176.3810  143.5930 C   0  0  0  0  0  3  0  0  0  0  0  0
  189.9010  177.6090  137.2470 C   0  0  0  0  0  3  0  0  0  0  0  0
  187.7050  178.5630  136.5880 C   0  0  0  0  0  1  0  0  0  0  0  0
  188.6790  177.1960  141.3370 C   0  0  0  0  0  0  0  0  0  0  0  0
  190.7800  177.0690  138.1860 C   0  0  0  0  0  3  0  0  0  0  0  0
  188.2080  177.8710  138.9700 C   0  0  0  0  0  0  0  0  0  0  0  0
  187.5000  177.8320  141.7800 C   0  0  0  0  0  0  0  0  0  0  0  0
  187.9260  177.0340  144.0360 C   0  0  0  0  0  3  0  0  0  0  0  0
  187.1480  177.7650  143.1370 C   0  0  0  0  0  3  0  0  0  0  0  0
  190.3800  176.9230  139.5140 C   0  0  0  0  0  3  0  0  0  0  0  0
  189.0950  177.3180  139.9190 C   0  0  0  0  0  0  0  0  0  0  0  0
  185.3000  178.8440  141.2240 N   0  0  0  0  0  0  0  0  0  0  0  0
  182.6340  178.8040  138.5490 C   0  0  0  0  0  3  0  0  0  0  0  0
  184.2340  180.5030  139.0930 O   0  0  0  0  0  1  0  0  0  0  0  0
  184.1960  178.4240  140.3810 C   0  0  0  0  0  0  0  0  0  0  0  0
  183.5790  177.1830  140.6100 C   0  0  0  0  0  3  0  0  0  0  0  0
  183.7000  179.2440  139.3400 C   0  0  0  0  0  0  0  0  0  0  0  0
  182.0430  177.5620  138.7840 C   0  0  0  0  0  3  0  0  0  0  0  0
  182.5130  176.7530  139.8170 C   0  0  0  0  0  3  0  0  0  0  0  0
  185.0760  179.4550  142.5280 C   0  0  0  0  0  2  0  0  0  0  0  0
  183.7410  179.0030  143.0950 C   0  0  0  0  0  2  0  0  0  0  0  0
  183.6660  179.3210  144.5760 C   0  0  0  0  0  2  0  0  0  0  0  0
  185.0050  179.3730  145.1420 N   0  0  0  0  0  2  0  0  0  0  0  0
  184.4110  178.2530  147.1030 O   0  0  0  0  0  0  0  0  0  0  0  0
  185.3080  178.8140  146.4200 C   0  0  0  0  0  0  0  0  0  0  0  0
  186.6340  178.8930  146.9260 N   0  0  0  0  0  1  0  0  0  0  0  0
  1  4  1  0  0  0  0
  2 10  1  0  0  0  0
  3  5  1  0  0  0  0
  4 16  1  1  0  0  0
  4 11  1  0  0  0  0
  5 12  2  0  0  0  0
  6  2  2  0  0  0  0
  6  9  1  0  0  0  0
  7  2  1  0  0  0  0
  8 11  1  0  0  0  0
  8  3  2  0  0  0  0
  9 14  2  0  0  0  0
 10  1  1  0  0  0  0
 10 15  2  0  0  0  0
 11 13  2  0  0  0  0
 13 12  1  0  0  0  0
 14 15  1  0  0  0  0
 15  8  1  0  0  0  0
 16 24  1  0  0  0  0
 17 22  2  0  0  0  0
 17 21  1  0  0  0  0
 18 21  1  0  0  0  0
 19 20  1  0  0  0  0
 19 16  1  0  0  0  0
 21 19  2  0  0  0  0
 22 23  1  0  0  0  0
 23 20  2  0  0  0  0
 24 25  1  0  0  0  0
 25 26  1  0  0  0  0
 26 27  1  0  0  0  0
 27 29  1  0  0  0  0
 29 30  1  0  0  0  0
 29 28  2  0  0  0  0
M  END
>  <MODEL>
9

>  <REMARK>
 VINA RESULT:      -7.8      3.052      7.403
  Name = 
  6 active torsions:
  status: ('A' for Active; 'I' for Inactive)
    1  A    between atoms: C_4  and  N_13
    2  A    between atoms: N_7  and  C_16
    3  A    between atoms: C_8  and  N_13
    4  A    between atoms: N_13  and  C_27
    5  A    between atoms: C_16  and  C_30
    6  A    between atoms: C_27  and  C_30
                            x       y       z     vdW  Elec       q    Type
                         _______ _______ _______ _____ _____    ______ ____

>  <TORSDO>
F 6

$$$$
