=
 OpenBabel11052415583D

 34 40  0  0  1  0  0  0  0  0999 V2000
  182.0470  174.9280  136.5370 C   0  0  2  0  0  0  0  0  0  0  0  0
  182.3680  178.3670  137.4390 C   0  0  0  0  0  3  0  0  0  0  0  0
  180.8770  176.9370  135.9680 N   0  0  0  0  0  0  0  0  0  0  0  0
  183.2490  174.3540  135.7840 C   0  0  2  0  0  3  0  0  0  0  0  0
  182.3500  173.4490  136.6280 C   0  0  0  0  0  2  0  0  0  0  0  0
  181.0110  175.5160  135.6060 C   0  0  2  0  0  3  0  0  0  0  0  0
  182.9900  178.7110  138.5680 C   0  0  0  0  0  3  0  0  0  0  0  0
  183.0210  177.9340  139.8300 C   0  0  0  0  0  0  0  0  0  0  0  0
  183.0120  176.5910  139.8970 C   0  0  0  0  0  3  0  0  0  0  0  0
  181.5290  177.1290  137.2980 C   0  0  1  0  0  3  0  0  0  0  0  0
  182.8450  175.6260  138.7960 C   0  0  0  0  0  3  0  0  0  0  0  0
  182.2870  175.9000  137.6170 C   0  0  0  0  0  0  0  0  0  0  0  0
  187.9900  174.4920  136.6980 C   0  0  0  0  0  2  0  0  0  0  0  0
  185.4230  175.5240  135.7160 C   0  0  1  0  0  3  0  0  0  0  0  0
  187.8570  177.8900  138.3830 C   0  0  0  0  0  0  0  0  0  0  0  0
  188.2920  176.6120  137.9900 C   0  0  0  0  0  3  0  0  0  0  0  0
  187.5090  175.8330  137.1340 C   0  0  0  0  0  0  0  0  0  0  0  0
  184.5730  174.5540  136.5080 C   0  0  2  0  0  3  0  0  0  0  0  0
  185.8580  177.6050  137.0380 C   0  0  0  0  0  3  0  0  0  0  0  0
  186.2860  176.3310  136.6510 C   0  0  0  0  0  0  0  0  0  0  0  0
  186.6390  178.3800  137.8990 C   0  0  0  0  0  3  0  0  0  0  0  0
  185.7210  174.0130  135.6760 C   0  0  2  0  0  3  0  0  0  0  0  0
  186.8150  173.5240  136.6350 C   0  0  0  0  0  2  0  0  0  0  0  0
  188.6220  178.6930  139.2340 O   0  0  0  0  0  0  0  0  0  0  0  0
  188.3650  178.0540  141.5300 C   0  0  0  0  0  1  0  0  0  0  0  0
  189.3160  178.1730  140.3600 C   0  0  0  0  0  2  0  0  0  0  0  0
  183.3260  178.6860  141.0900 C   0  0  0  0  0  3  0  0  0  0  0  0
  184.2690  177.8840  141.9720 C   0  0  0  0  0  2  0  0  0  0  0  0
  184.8030  179.0420  141.1600 C   0  0  0  0  0  2  0  0  0  0  0  0
  179.2410  173.8140  134.7100 C   0  0  0  0  0  1  0  0  0  0  0  0
  179.6830  174.8210  135.7210 C   0  0  0  0  0  0  0  0  0  0  0  0
  178.9620  175.0690  136.6740 O   0  0  0  0  0  0  0  0  0  0  0  0
  181.5310  177.6850  134.8960 C   0  0  0  0  0  2  0  0  0  0  0  0
  180.7820  178.8230  134.5990 O   0  0  0  0  0  1  0  0  0  0  0  0
  1  5  1  1  0  0  0
  1 12  1  0  0  0  0
  2  7  2  0  0  0  0
  3 10  1  0  0  0  0
  4  1  1  0  0  0  0
  4  5  1  1  0  0  0
  6 31  1  1  0  0  0
  6  3  1  0  0  0  0
  6  1  1  0  0  0  0
  7  8  1  0  0  0  0
  8  9  2  0  0  0  0
  8 27  1  0  0  0  0
 10  2  1  6  0  0  0
 10 12  1  0  0  0  0
 11  9  1  0  0  0  0
 12 11  2  0  0  0  0
 13 17  1  0  0  0  0
 14 18  1  0  0  0  0
 14 20  1  1  0  0  0
 15 24  1  0  0  0  0
 16 15  1  0  0  0  0
 17 16  2  0  0  0  0
 18  4  1  6  0  0  0
 19 21  1  0  0  0  0
 20 19  2  0  0  0  0
 20 17  1  0  0  0  0
 21 15  2  0  0  0  0
 22 14  1  0  0  0  0
 22 18  1  0  0  0  0
 22 23  1  1  0  0  0
 23 13  1  0  0  0  0
 24 26  1  0  0  0  0
 26 25  1  0  0  0  0
 27 29  1  0  0  0  0
 27 28  1  0  0  0  0
 29 28  1  0  0  0  0
 30 31  1  0  0  0  0
 31 32  2  0  0  0  0
 33  3  1  0  0  0  0
 34 33  1  0  0  0  0
M  END
>  <MODEL>
1

>  <REMARK>
 VINA RESULT:      -5.0      0.000      0.000
  Name = 
  6 active torsions:
  status: ('A' for Active; 'I' for Inactive)
    1  A    between atoms: C_3  and  C_25
    2  A    between atoms: N_5  and  C_19
    3  A    between atoms: C_7  and  O_11
    4  A    between atoms: C_8  and  C_18
    5  A    between atoms: O_11  and  C_21
    6  A    between atoms: C_12  and  C_20
                            x       y       z     vdW  Elec       q    Type
                         _______ _______ _______ _____ _____    ______ ____

>  <TORSDO>
F 6

$$$$
=
 OpenBabel11052415583D

 34 40  0  0  1  0  0  0  0  0999 V2000
  186.7100  176.7130  136.8530 C   0  0  2  0  0  0  0  0  0  0  0  0
  183.5420  178.0180  137.8560 C   0  0  0  0  0  3  0  0  0  0  0  0
  185.9910  178.3950  138.3960 N   0  0  0  0  0  0  0  0  0  0  0  0
  186.9210  175.2340  137.1830 C   0  0  2  0  0  3  0  0  0  0  0  0
  187.6490  175.8840  136.0040 C   0  0  0  0  0  2  0  0  0  0  0  0
  187.1700  177.6230  137.9680 C   0  0  2  0  0  3  0  0  0  0  0  0
  182.4800  177.8910  137.0600 C   0  0  0  0  0  3  0  0  0  0  0  0
  182.4860  177.8770  135.5770 C   0  0  0  0  0  0  0  0  0  0  0  0
  183.4780  177.3710  134.8250 C   0  0  0  0  0  3  0  0  0  0  0  0
  184.9400  178.2330  137.3480 C   0  0  1  0  0  3  0  0  0  0  0  0
  184.7860  176.8580  135.2700 C   0  0  0  0  0  3  0  0  0  0  0  0
  185.3720  177.1590  136.4270 C   0  0  0  0  0  0  0  0  0  0  0  0
  184.1890  171.3300  136.3890 C   0  0  0  0  0  2  0  0  0  0  0  0
  185.0530  173.7460  137.8150 C   0  0  1  0  0  3  0  0  0  0  0  0
  180.9060  173.2010  136.7480 C   0  0  0  0  0  0  0  0  0  0  0  0
  181.8510  172.2200  136.4010 C   0  0  0  0  0  3  0  0  0  0  0  0
  183.1980  172.3890  136.7340 C   0  0  0  0  0  0  0  0  0  0  0  0
  185.8210  174.3280  136.6470 C   0  0  2  0  0  3  0  0  0  0  0  0
  182.6700  174.5110  137.7790 C   0  0  0  0  0  3  0  0  0  0  0  0
  183.6120  173.5380  137.4290 C   0  0  0  0  0  0  0  0  0  0  0  0
  181.3240  174.3440  137.4400 C   0  0  0  0  0  3  0  0  0  0  0  0
  186.0760  172.8870  137.0490 C   0  0  2  0  0  3  0  0  0  0  0  0
  185.4970  171.9780  135.9560 C   0  0  0  0  0  2  0  0  0  0  0  0
  179.5520  173.0570  136.4330 O   0  0  0  0  0  0  0  0  0  0  0  0
  179.2940  174.5760  134.5980 C   0  0  0  0  0  1  0  0  0  0  0  0
  179.0570  173.1720  135.1060 C   0  0  0  0  0  2  0  0  0  0  0  0
  181.2030  178.2250  134.8840 C   0  0  0  0  0  3  0  0  0  0  0  0
  180.1750  178.7210  135.8880 C   0  0  0  0  0  2  0  0  0  0  0  0
  180.9090  179.7120  135.0140 C   0  0  0  0  0  2  0  0  0  0  0  0
  189.6960  178.2920  137.8890 C   0  0  0  0  0  1  0  0  0  0  0  0
  188.2700  178.5510  137.5280 C   0  0  0  0  0  0  0  0  0  0  0  0
  187.9910  179.5210  136.8430 O   0  0  0  0  0  0  0  0  0  0  0  0
  185.6010  177.8410  139.6910 C   0  0  0  0  0  2  0  0  0  0  0  0
  185.7400  178.8180  140.6750 O   0  0  0  0  0  1  0  0  0  0  0  0
  1  5  1  6  0  0  0
  1  4  1  0  0  0  0
  1  6  1  0  0  0  0
  3 33  1  0  0  0  0
  4  5  1  6  0  0  0
  6 31  1  6  0  0  0
  6  3  1  0  0  0  0
  7  2  2  0  0  0  0
  8  7  1  0  0  0  0
  9 11  1  0  0  0  0
  9  8  2  0  0  0  0
 10  2  1  1  0  0  0
 10  3  1  0  0  0  0
 11 12  2  0  0  0  0
 12  1  1  0  0  0  0
 12 10  1  0  0  0  0
 13 17  1  0  0  0  0
 14 20  1  6  0  0  0
 15 21  1  0  0  0  0
 16 17  1  0  0  0  0
 16 15  2  0  0  0  0
 17 20  2  0  0  0  0
 18 22  1  0  0  0  0
 18  4  1  1  0  0  0
 18 14  1  0  0  0  0
 20 19  1  0  0  0  0
 21 19  2  0  0  0  0
 22 23  1  6  0  0  0
 22 14  1  0  0  0  0
 23 13  1  0  0  0  0
 24 15  1  0  0  0  0
 25 26  1  0  0  0  0
 26 24  1  0  0  0  0
 27 29  1  0  0  0  0
 27  8  1  0  0  0  0
 27 28  1  0  0  0  0
 29 28  1  0  0  0  0
 31 30  1  0  0  0  0
 32 31  2  0  0  0  0
 33 34  1  0  0  0  0
M  END
>  <MODEL>
2

>  <REMARK>
 VINA RESULT:      -4.3      2.212      6.743
  Name = 
  6 active torsions:
  status: ('A' for Active; 'I' for Inactive)
    1  A    between atoms: C_3  and  C_25
    2  A    between atoms: N_5  and  C_19
    3  A    between atoms: C_7  and  O_11
    4  A    between atoms: C_8  and  C_18
    5  A    between atoms: O_11  and  C_21
    6  A    between atoms: C_12  and  C_20
                            x       y       z     vdW  Elec       q    Type
                         _______ _______ _______ _____ _____    ______ ____

>  <TORSDO>
F 6

$$$$
=
 OpenBabel11052415583D

 34 40  0  0  1  0  0  0  0  0999 V2000
  189.4990  177.5800  140.6600 C   0  0  2  0  0  0  0  0  0  0  0  0
  187.1360  176.8350  143.2300 C   0  0  0  0  0  3  0  0  0  0  0  0
  189.6490  176.7410  142.8970 N   0  0  0  0  0  0  0  0  0  0  0  0
  189.3550  176.7280  139.3980 C   0  0  2  0  0  3  0  0  0  0  0  0
  189.9520  178.1350  139.3280 C   0  0  0  0  0  2  0  0  0  0  0  0
  190.4350  176.9570  141.6710 C   0  0  2  0  0  3  0  0  0  0  0  0
  185.9310  177.4050  143.2210 C   0  0  0  0  0  3  0  0  0  0  0  0
  185.5990  178.7580  142.7150 C   0  0  0  0  0  0  0  0  0  0  0  0
  186.2130  179.3560  141.6800 C   0  0  0  0  0  3  0  0  0  0  0  0
  188.3860  177.5290  142.7690 C   0  0  1  0  0  3  0  0  0  0  0  0
  187.3890  178.8860  140.9260 C   0  0  0  0  0  3  0  0  0  0  0  0
  188.2810  178.0030  141.3720 C   0  0  0  0  0  0  0  0  0  0  0  0
  185.6780  177.5630  136.3780 C   0  0  0  0  0  2  0  0  0  0  0  0
  187.9870  176.0940  137.4410 C   0  0  1  0  0  3  0  0  0  0  0  0
  184.2580  174.0570  136.6810 C   0  0  0  0  0  0  0  0  0  0  0  0
  184.3640  175.4360  136.4270 C   0  0  0  0  0  3  0  0  0  0  0  0
  185.5640  176.1080  136.6770 C   0  0  0  0  0  0  0  0  0  0  0  0
  187.9540  176.7530  138.8040 C   0  0  2  0  0  3  0  0  0  0  0  0
  186.5680  174.0310  137.4190 C   0  0  0  0  0  3  0  0  0  0  0  0
  186.6750  175.4040  137.1730 C   0  0  0  0  0  0  0  0  0  0  0  0
  185.3670  173.3610  137.1750 C   0  0  0  0  0  3  0  0  0  0  0  0
  187.9170  177.6280  137.5640 C   0  0  2  0  0  3  0  0  0  0  0  0
  186.5140  178.2410  137.4550 C   0  0  0  0  0  2  0  0  0  0  0  0
  183.0720  173.3580  136.4360 O   0  0  0  0  0  0  0  0  0  0  0  0
  181.3930  171.8380  137.2190 C   0  0  0  0  0  1  0  0  0  0  0  0
  182.8570  172.0290  136.8920 C   0  0  0  0  0  2  0  0  0  0  0  0
  184.3440  179.3940  143.2330 C   0  0  0  0  0  3  0  0  0  0  0  0
  183.8180  178.6280  144.4360 C   0  0  0  0  0  2  0  0  0  0  0  0
  184.5550  179.9310  144.6410 C   0  0  0  0  0  2  0  0  0  0  0  0
  191.7140  178.6280  143.2240 C   0  0  0  0  0  1  0  0  0  0  0  0
  191.6230  177.8340  141.9610 C   0  0  0  0  0  0  0  0  0  0  0  0
  192.5400  177.8780  141.1580 O   0  0  0  0  0  0  0  0  0  0  0  0
  189.4190  175.2990  142.9740 C   0  0  0  0  0  2  0  0  0  0  0  0
  190.6280  174.6490  143.2180 O   0  0  0  0  0  1  0  0  0  0  0  0
  1  5  1  6  0  0  0
  1 12  1  0  0  0  0
  1  6  1  0  0  0  0
  3 33  1  0  0  0  0
  4  5  1  6  0  0  0
  4  1  1  0  0  0  0
  6 31  1  1  0  0  0
  6  3  1  0  0  0  0
  7  2  2  0  0  0  0
  8  7  1  0  0  0  0
  8 27  1  0  0  0  0
  9  8  2  0  0  0  0
 10  3  1  0  0  0  0
 10  2  1  6  0  0  0
 11 12  2  0  0  0  0
 11  9  1  0  0  0  0
 12 10  1  0  0  0  0
 13 17  1  0  0  0  0
 13 23  1  0  0  0  0
 14 20  1  6  0  0  0
 14 22  1  0  0  0  0
 14 18  1  0  0  0  0
 15 21  1  0  0  0  0
 16 17  1  0  0  0  0
 16 15  2  0  0  0  0
 17 20  2  0  0  0  0
 18  4  1  1  0  0  0
 20 19  1  0  0  0  0
 21 19  2  0  0  0  0
 22 23  1  6  0  0  0
 22 18  1  0  0  0  0
 24 15  1  0  0  0  0
 24 26  1  0  0  0  0
 26 25  1  0  0  0  0
 27 28  1  0  0  0  0
 27 29  1  0  0  0  0
 28 29  1  0  0  0  0
 31 30  1  0  0  0  0
 32 31  2  0  0  0  0
 33 34  1  0  0  0  0
M  END
>  <MODEL>
3

>  <REMARK>
 VINA RESULT:      -4.3      3.320      8.086
  Name = 
  6 active torsions:
  status: ('A' for Active; 'I' for Inactive)
    1  A    between atoms: C_3  and  C_25
    2  A    between atoms: N_5  and  C_19
    3  A    between atoms: C_7  and  O_11
    4  A    between atoms: C_8  and  C_18
    5  A    between atoms: O_11  and  C_21
    6  A    between atoms: C_12  and  C_20
                            x       y       z     vdW  Elec       q    Type
                         _______ _______ _______ _____ _____    ______ ____

>  <TORSDO>
F 6

$$$$
=
 OpenBabel11052415583D

 34 40  0  0  1  0  0  0  0  0999 V2000
  182.7470  178.0010  138.6410 C   0  0  2  0  0  0  0  0  0  0  0  0
  183.1710  174.4980  138.0980 C   0  0  0  0  0  3  0  0  0  0  0  0
  181.2750  176.1820  138.1370 N   0  0  0  0  0  0  0  0  0  0  0  0
  183.1270  178.4770  140.0450 C   0  0  2  0  0  3  0  0  0  0  0  0
  183.2110  179.4260  138.8480 C   0  0  0  0  0  2  0  0  0  0  0  0
  181.2940  177.5980  138.5430 C   0  0  2  0  0  3  0  0  0  0  0  0
  184.3570  174.0140  137.7280 C   0  0  0  0  0  3  0  0  0  0  0  0
  185.3690  174.7020  136.8890 C   0  0  0  0  0  0  0  0  0  0  0  0
  185.5800  176.0290  136.8880 C   0  0  0  0  0  3  0  0  0  0  0  0
  182.6440  175.8330  137.6530 C   0  0  1  0  0  3  0  0  0  0  0  0
  184.8090  177.0740  137.5840 C   0  0  0  0  0  3  0  0  0  0  0  0
  183.5540  176.9420  138.0100 C   0  0  0  0  0  0  0  0  0  0  0  0
  187.9000  178.6260  140.7690 C   0  0  0  0  0  2  0  0  0  0  0  0
  185.0800  179.1250  141.4110 C   0  0  1  0  0  3  0  0  0  0  0  0
  187.6930  177.2890  144.3140 C   0  0  0  0  0  0  0  0  0  0  0  0
  188.1940  177.6400  143.0490 C   0  0  0  0  0  3  0  0  0  0  0  0
  187.3550  178.2280  142.0980 C   0  0  0  0  0  0  0  0  0  0  0  0
  184.5350  178.0790  140.4630 C   0  0  2  0  0  3  0  0  0  0  0  0
  185.5130  178.1360  143.6700 C   0  0  0  0  0  3  0  0  0  0  0  0
  186.0080  178.4810  142.4070 C   0  0  0  0  0  0  0  0  0  0  0  0
  186.3510  177.5430  144.6180 C   0  0  0  0  0  3  0  0  0  0  0  0
  185.5480  179.0830  139.9440 C   0  0  2  0  0  3  0  0  0  0  0  0
  186.8660  178.3400  139.6870 C   0  0  0  0  0  2  0  0  0  0  0  0
  188.5100  176.7050  145.2870 O   0  0  0  0  0  0  0  0  0  0  0  0
  188.5210  177.1470  147.6430 C   0  0  0  0  0  1  0  0  0  0  0  0
  189.1510  177.4610  146.3050 C   0  0  0  0  0  2  0  0  0  0  0  0
  186.3750  173.8410  136.1860 C   0  0  0  0  0  3  0  0  0  0  0  0
  185.7970  172.4610  135.9160 C   0  0  0  0  0  2  0  0  0  0  0  0
  185.8860  173.4710  134.7940 C   0  0  0  0  0  2  0  0  0  0  0  0
  179.4250  179.3360  137.9760 C   0  0  0  0  0  1  0  0  0  0  0  0
  180.5370  178.4350  137.5480 C   0  0  0  0  0  0  0  0  0  0  0  0
  180.8560  178.3940  136.3710 O   0  0  0  0  0  0  0  0  0  0  0  0
  180.8800  175.4320  139.3280 C   0  0  0  0  0  2  0  0  0  0  0  0
  180.1230  176.2530  140.1630 O   0  0  0  0  0  1  0  0  0  0  0  0
  1  5  1  6  0  0  0
  1  4  1  0  0  0  0
  3  6  1  0  0  0  0
  3 33  1  0  0  0  0
  4  5  1  6  0  0  0
  6 31  1  6  0  0  0
  6  1  1  0  0  0  0
  7  2  2  0  0  0  0
  8  7  1  0  0  0  0
  9  8  2  0  0  0  0
  9 11  1  0  0  0  0
 10 12  1  0  0  0  0
 10  2  1  1  0  0  0
 10  3  1  0  0  0  0
 11 12  2  0  0  0  0
 12  1  1  0  0  0  0
 13 17  1  0  0  0  0
 14 20  1  1  0  0  0
 15 21  1  0  0  0  0
 15 24  1  0  0  0  0
 16 15  2  0  0  0  0
 17 20  2  0  0  0  0
 17 16  1  0  0  0  0
 18  4  1  6  0  0  0
 18 14  1  0  0  0  0
 19 21  2  0  0  0  0
 20 19  1  0  0  0  0
 22 23  1  1  0  0  0
 22 18  1  0  0  0  0
 22 14  1  0  0  0  0
 23 13  1  0  0  0  0
 24 26  1  0  0  0  0
 26 25  1  0  0  0  0
 27  8  1  0  0  0  0
 28 27  1  0  0  0  0
 29 28  1  0  0  0  0
 29 27  1  0  0  0  0
 31 30  1  0  0  0  0
 32 31  2  0  0  0  0
 33 34  1  0  0  0  0
M  END
>  <MODEL>
4

>  <REMARK>
 VINA RESULT:      -4.3      2.424      5.577
  Name = 
  6 active torsions:
  status: ('A' for Active; 'I' for Inactive)
    1  A    between atoms: C_3  and  C_25
    2  A    between atoms: N_5  and  C_19
    3  A    between atoms: C_7  and  O_11
    4  A    between atoms: C_8  and  C_18
    5  A    between atoms: O_11  and  C_21
    6  A    between atoms: C_12  and  C_20
                            x       y       z     vdW  Elec       q    Type
                         _______ _______ _______ _____ _____    ______ ____

>  <TORSDO>
F 6

$$$$
=
 OpenBabel11052415583D

 34 40  0  0  1  0  0  0  0  0999 V2000
  190.3250  175.5530  136.8510 C   0  0  2  0  0  0  0  0  0  0  0  0
  187.3490  176.7550  135.2880 C   0  0  0  0  0  3  0  0  0  0  0  0
  189.7780  176.3700  134.6690 N   0  0  0  0  0  0  0  0  0  0  0  0
  190.8140  176.4050  138.0240 C   0  0  2  0  0  3  0  0  0  0  0  0
  191.1330  174.9100  137.9560 C   0  0  0  0  0  2  0  0  0  0  0  0
  190.9120  175.9980  135.5310 C   0  0  2  0  0  3  0  0  0  0  0  0
  186.1520  176.4220  135.7740 C   0  0  0  0  0  3  0  0  0  0  0  0
  185.7970  175.1510  136.4480 C   0  0  0  0  0  0  0  0  0  0  0  0
  186.6350  174.4380  137.2200 C   0  0  0  0  0  3  0  0  0  0  0  0
  188.5350  175.8330  135.2990 C   0  0  1  0  0  3  0  0  0  0  0  0
  188.0700  174.6710  137.4590 C   0  0  0  0  0  3  0  0  0  0  0  0
  188.8750  175.3740  136.6630 C   0  0  0  0  0  0  0  0  0  0  0  0
  188.5420  178.1490  141.9140 C   0  0  0  0  0  2  0  0  0  0  0  0
  189.3830  178.1060  139.1010 C   0  0  1  0  0  3  0  0  0  0  0  0
  185.2180  178.5790  140.1330 C   0  0  0  0  0  0  0  0  0  0  0  0
  186.1770  178.4340  141.1510 C   0  0  0  0  0  3  0  0  0  0  0  0
  187.5280  178.2720  140.8290 C   0  0  0  0  0  0  0  0  0  0  0  0
  189.7550  176.6380  139.0910 C   0  0  2  0  0  3  0  0  0  0  0  0
  186.9790  178.4150  138.4730 C   0  0  0  0  0  3  0  0  0  0  0  0
  187.9350  178.2650  139.4830 C   0  0  0  0  0  0  0  0  0  0  0  0
  185.6290  178.5710  138.7950 C   0  0  0  0  0  3  0  0  0  0  0  0
  190.2980  177.5260  140.1960 C   0  0  2  0  0  3  0  0  0  0  0  0
  189.6030  177.1340  141.5070 C   0  0  0  0  0  2  0  0  0  0  0  0
  183.8620  178.7480  140.4260 O   0  0  0  0  0  0  0  0  0  0  0  0
  181.8900  178.6280  141.7830 C   0  0  0  0  0  1  0  0  0  0  0  0
  183.3770  178.9040  141.7530 C   0  0  0  0  0  2  0  0  0  0  0  0
  184.3470  174.7670  136.4670 C   0  0  0  0  0  3  0  0  0  0  0  0
  184.0420  173.9030  137.6790 C   0  0  0  0  0  2  0  0  0  0  0  0
  183.6500  175.3620  137.6800 C   0  0  0  0  0  2  0  0  0  0  0  0
  193.1860  175.1030  134.6010 C   0  0  0  0  0  1  0  0  0  0  0  0
  191.7290  174.9160  134.8790 C   0  0  0  0  0  0  0  0  0  0  0  0
  191.1960  173.8570  134.5940 O   0  0  0  0  0  0  0  0  0  0  0  0
  189.7980  177.8300  134.5940 C   0  0  0  0  0  2  0  0  0  0  0  0
  189.3420  178.3630  135.7990 O   0  0  0  0  0  1  0  0  0  0  0  0
  1  5  1  1  0  0  0
  1  4  1  0  0  0  0
  2  7  2  0  0  0  0
  3 10  1  0  0  0  0
  3  6  1  0  0  0  0
  4  5  1  1  0  0  0
  6 31  1  6  0  0  0
  6  1  1  0  0  0  0
  7  8  1  0  0  0  0
  8 27  1  0  0  0  0
  8  9  2  0  0  0  0
  9 11  1  0  0  0  0
 10  2  1  1  0  0  0
 10 12  1  0  0  0  0
 12  1  1  0  0  0  0
 12 11  2  0  0  0  0
 14 20  1  1  0  0  0
 14 22  1  0  0  0  0
 15 24  1  0  0  0  0
 15 16  1  0  0  0  0
 17 16  2  0  0  0  0
 17 13  1  0  0  0  0
 18  4  1  6  0  0  0
 18 14  1  0  0  0  0
 18 22  1  0  0  0  0
 19 21  1  0  0  0  0
 19 20  2  0  0  0  0
 20 17  1  0  0  0  0
 21 15  2  0  0  0  0
 22 23  1  1  0  0  0
 23 13  1  0  0  0  0
 24 26  1  0  0  0  0
 26 25  1  0  0  0  0
 27 28  1  0  0  0  0
 27 29  1  0  0  0  0
 28 29  1  0  0  0  0
 30 31  1  0  0  0  0
 32 31  2  0  0  0  0
 33  3  1  0  0  0  0
 33 34  1  0  0  0  0
M  END
>  <MODEL>
5

>  <REMARK>
 VINA RESULT:      -4.0      3.160      7.185
  Name = 
  6 active torsions:
  status: ('A' for Active; 'I' for Inactive)
    1  A    between atoms: C_3  and  C_25
    2  A    between atoms: N_5  and  C_19
    3  A    between atoms: C_7  and  O_11
    4  A    between atoms: C_8  and  C_18
    5  A    between atoms: O_11  and  C_21
    6  A    between atoms: C_12  and  C_20
                            x       y       z     vdW  Elec       q    Type
                         _______ _______ _______ _____ _____    ______ ____

>  <TORSDO>
F 6

$$$$
=
 OpenBabel11052415583D

 34 40  0  0  1  0  0  0  0  0999 V2000
  183.4090  176.5350  135.9530 C   0  0  2  0  0  0  0  0  0  0  0  0
  182.4520  175.9630  139.3450 C   0  0  0  0  0  3  0  0  0  0  0  0
  183.0420  174.5880  137.2970 N   0  0  0  0  0  0  0  0  0  0  0  0
  182.3500  177.2440  135.1060 C   0  0  2  0  0  3  0  0  0  0  0  0
  183.8370  177.3730  134.7690 C   0  0  0  0  0  2  0  0  0  0  0  0
  183.2680  175.0310  135.9100 C   0  0  2  0  0  3  0  0  0  0  0  0
  182.6330  176.9110  140.2640 C   0  0  0  0  0  3  0  0  0  0  0  0
  183.7240  177.9160  140.2920 C   0  0  0  0  0  0  0  0  0  0  0  0
  184.2910  178.4540  139.1990 C   0  0  0  0  0  3  0  0  0  0  0  0
  183.3920  175.7270  138.1970 C   0  0  1  0  0  3  0  0  0  0  0  0
  184.0650  178.0960  137.7870 C   0  0  0  0  0  3  0  0  0  0  0  0
  183.5710  176.9340  137.3620 C   0  0  0  0  0  0  0  0  0  0  0  0
  179.6690  181.1690  135.9700 C   0  0  0  0  0  2  0  0  0  0  0  0
  180.4610  178.3550  136.2460 C   0  0  1  0  0  3  0  0  0  0  0  0
  179.8440  180.8080  139.7440 C   0  0  0  0  0  0  0  0  0  0  0  0
  179.6750  181.3630  138.4640 C   0  0  0  0  0  3  0  0  0  0  0  0
  179.8800  180.5810  137.3240 C   0  0  0  0  0  0  0  0  0  0  0  0
  181.8630  178.5540  135.7100 C   0  0  2  0  0  3  0  0  0  0  0  0
  180.4080  178.6780  138.7280 C   0  0  0  0  0  3  0  0  0  0  0  0
  180.2460  179.2300  137.4530 C   0  0  0  0  0  0  0  0  0  0  0  0
  180.2090  179.4620  139.8670 C   0  0  0  0  0  3  0  0  0  0  0  0
  180.6900  179.1010  134.9180 C   0  0  2  0  0  3  0  0  0  0  0  0
  180.7250  180.6330  135.0120 C   0  0  0  0  0  2  0  0  0  0  0  0
  179.6410  181.5650  140.9020 O   0  0  0  0  0  0  0  0  0  0  0  0
  179.9050  180.2900  142.9140 C   0  0  0  0  0  1  0  0  0  0  0  0
  178.9460  181.0610  142.0350 C   0  0  0  0  0  2  0  0  0  0  0  0
  184.0430  178.5430  141.6150 C   0  0  0  0  0  3  0  0  0  0  0  0
  185.2500  177.8670  142.2460 C   0  0  0  0  0  2  0  0  0  0  0  0
  185.4080  179.2130  141.5770 C   0  0  0  0  0  2  0  0  0  0  0  0
  185.8630  174.8780  135.6280 C   0  0  0  0  0  1  0  0  0  0  0  0
  184.4900  174.3620  135.3420 C   0  0  0  0  0  0  0  0  0  0  0  0
  184.3560  173.3650  134.6520 O   0  0  0  0  0  0  0  0  0  0  0  0
  181.6310  174.2130  137.3700 C   0  0  0  0  0  2  0  0  0  0  0  0
  181.1650  173.9130  136.0910 O   0  0  0  0  0  1  0  0  0  0  0  0
  1  5  1  6  0  0  0
  1 12  1  0  0  0  0
  2  7  2  0  0  0  0
  3 33  1  0  0  0  0
  3 10  1  0  0  0  0
  4  5  1  6  0  0  0
  4  1  1  0  0  0  0
  6 31  1  1  0  0  0
  6  1  1  0  0  0  0
  6  3  1  0  0  0  0
  7  8  1  0  0  0  0
  8 27  1  0  0  0  0
  9  8  2  0  0  0  0
 10  2  1  1  0  0  0
 11  9  1  0  0  0  0
 12 11  2  0  0  0  0
 12 10  1  0  0  0  0
 13 17  1  0  0  0  0
 14 20  1  1  0  0  0
 15 21  1  0  0  0  0
 15 24  1  0  0  0  0
 16 15  2  0  0  0  0
 17 20  2  0  0  0  0
 17 16  1  0  0  0  0
 18  4  1  6  0  0  0
 18 14  1  0  0  0  0
 19 21  2  0  0  0  0
 20 19  1  0  0  0  0
 22 23  1  1  0  0  0
 22 18  1  0  0  0  0
 22 14  1  0  0  0  0
 23 13  1  0  0  0  0
 24 26  1  0  0  0  0
 26 25  1  0  0  0  0
 27 28  1  0  0  0  0
 29 27  1  0  0  0  0
 29 28  1  0  0  0  0
 31 30  1  0  0  0  0
 32 31  2  0  0  0  0
 34 33  1  0  0  0  0
M  END
>  <MODEL>
6

>  <REMARK>
 VINA RESULT:      -4.0      2.825      6.003
  Name = 
  6 active torsions:
  status: ('A' for Active; 'I' for Inactive)
    1  A    between atoms: C_3  and  C_25
    2  A    between atoms: N_5  and  C_19
    3  A    between atoms: C_7  and  O_11
    4  A    between atoms: C_8  and  C_18
    5  A    between atoms: O_11  and  C_21
    6  A    between atoms: C_12  and  C_20
                            x       y       z     vdW  Elec       q    Type
                         _______ _______ _______ _____ _____    ______ ____

>  <TORSDO>
F 6

$$$$
=
 OpenBabel11052415583D

 34 40  0  0  1  0  0  0  0  0999 V2000
  180.6770  179.2590  138.6080 C   0  0  2  0  0  0  0  0  0  0  0  0
  181.3400  178.1020  135.2970 C   0  0  0  0  0  3  0  0  0  0  0  0
  180.3700  180.1630  136.4130 N   0  0  0  0  0  0  0  0  0  0  0  0
  179.6510  178.4260  139.3790 C   0  0  2  0  0  3  0  0  0  0  0  0
  180.7360  179.2110  140.1190 C   0  0  0  0  0  2  0  0  0  0  0  0
  180.0350  180.3850  137.8300 C   0  0  2  0  0  3  0  0  0  0  0  0
  182.2490  177.1490  135.0870 C   0  0  0  0  0  3  0  0  0  0  0  0
  183.4840  176.9190  135.8750 C   0  0  0  0  0  0  0  0  0  0  0  0
  183.5980  177.1480  137.1950 C   0  0  0  0  0  3  0  0  0  0  0  0
  181.4700  179.1540  136.3620 C   0  0  1  0  0  3  0  0  0  0  0  0
  182.6150  177.7730  138.0980 C   0  0  0  0  0  3  0  0  0  0  0  0
  181.6200  178.5690  137.7120 C   0  0  0  0  0  0  0  0  0  0  0  0
  179.2900  173.6750  140.1760 C   0  0  0  0  0  2  0  0  0  0  0  0
  178.9310  176.1710  138.6730 C   0  0  1  0  0  3  0  0  0  0  0  0
  180.6820  172.7090  136.7800 C   0  0  0  0  0  0  0  0  0  0  0  0
  180.2910  172.6440  138.1290 C   0  0  0  0  0  3  0  0  0  0  0  0
  179.7300  173.7610  138.7550 C   0  0  0  0  0  0  0  0  0  0  0  0
  179.9890  176.9420  139.4320 C   0  0  2  0  0  3  0  0  0  0  0  0
  179.9290  175.0140  136.6900 C   0  0  0  0  0  3  0  0  0  0  0  0
  179.5440  174.9530  138.0340 C   0  0  0  0  0  0  0  0  0  0  0  0
  180.4950  173.8990  136.0670 C   0  0  0  0  0  3  0  0  0  0  0  0
  178.9320  176.1830  140.2130 C   0  0  2  0  0  3  0  0  0  0  0  0
  179.6090  174.9830  140.8890 C   0  0  0  0  0  2  0  0  0  0  0  0
  181.2410  171.6070  136.1270 O   0  0  0  0  0  0  0  0  0  0  0  0
  183.5190  171.4960  136.8630 C   0  0  0  0  0  1  0  0  0  0  0  0
  182.5880  171.5850  135.6740 C   0  0  0  0  0  2  0  0  0  0  0  0
  184.5900  176.1590  135.2080 C   0  0  0  0  0  3  0  0  0  0  0  0
  185.2620  175.2210  136.1980 C   0  0  0  0  0  2  0  0  0  0  0  0
  184.2820  174.6690  135.1880 C   0  0  0  0  0  2  0  0  0  0  0  0
  181.9840  182.0530  138.3370 C   0  0  0  0  0  1  0  0  0  0  0  0
  180.5250  181.7360  138.2760 C   0  0  0  0  0  0  0  0  0  0  0  0
  179.7120  182.5960  138.5710 O   0  0  0  0  0  0  0  0  0  0  0  0
  179.1360  179.6980  135.7810 C   0  0  0  0  0  2  0  0  0  0  0  0
  178.9310  180.3990  134.5940 O   0  0  0  0  0  1  0  0  0  0  0  0
  1  4  1  0  0  0  0
  1  5  1  1  0  0  0
  3  6  1  0  0  0  0
  4  5  1  1  0  0  0
  6 31  1  1  0  0  0
  6  1  1  0  0  0  0
  7  2  2  0  0  0  0
  7  8  1  0  0  0  0
  8  9  2  0  0  0  0
  9 11  1  0  0  0  0
 10  2  1  6  0  0  0
 10  3  1  0  0  0  0
 10 12  1  0  0  0  0
 12 11  2  0  0  0  0
 12  1  1  0  0  0  0
 13 23  1  0  0  0  0
 14 20  1  1  0  0  0
 14 18  1  0  0  0  0
 14 22  1  0  0  0  0
 15 16  1  0  0  0  0
 16 17  2  0  0  0  0
 17 13  1  0  0  0  0
 18  4  1  6  0  0  0
 18 22  1  0  0  0  0
 19 20  2  0  0  0  0
 20 17  1  0  0  0  0
 21 19  1  0  0  0  0
 21 15  2  0  0  0  0
 22 23  1  1  0  0  0
 24 15  1  0  0  0  0
 26 24  1  0  0  0  0
 26 25  1  0  0  0  0
 27  8  1  0  0  0  0
 27 28  1  0  0  0  0
 29 27  1  0  0  0  0
 29 28  1  0  0  0  0
 31 30  1  0  0  0  0
 31 32  2  0  0  0  0
 33  3  1  0  0  0  0
 34 33  1  0  0  0  0
M  END
>  <MODEL>
7

>  <REMARK>
 VINA RESULT:      -3.9      3.288      6.842
  Name = 
  6 active torsions:
  status: ('A' for Active; 'I' for Inactive)
    1  A    between atoms: C_3  and  C_25
    2  A    between atoms: N_5  and  C_19
    3  A    between atoms: C_7  and  O_11
    4  A    between atoms: C_8  and  C_18
    5  A    between atoms: O_11  and  C_21
    6  A    between atoms: C_12  and  C_20
                            x       y       z     vdW  Elec       q    Type
                         _______ _______ _______ _____ _____    ______ ____

>  <TORSDO>
F 6

$$$$
=
 OpenBabel11052415583D

 34 40  0  0  1  0  0  0  0  0999 V2000
  187.8910  177.0370  137.0990 C   0  0  2  0  0  0  0  0  0  0  0  0
  188.8670  173.6260  136.6960 C   0  0  0  0  0  3  0  0  0  0  0  0
  186.9610  175.1380  135.9780 N   0  0  0  0  0  0  0  0  0  0  0  0
  187.6010  177.4480  138.5440 C   0  0  2  0  0  3  0  0  0  0  0  0
  188.0750  178.4790  137.5180 C   0  0  0  0  0  2  0  0  0  0  0  0
  186.6610  176.5190  136.3890 C   0  0  2  0  0  3  0  0  0  0  0  0
  190.1430  173.2700  136.8470 C   0  0  0  0  0  3  0  0  0  0  0  0
  191.3330  174.0950  136.5290 C   0  0  0  0  0  0  0  0  0  0  0  0
  191.3860  175.4320  136.6500 C   0  0  0  0  0  3  0  0  0  0  0  0
  188.4360  174.9380  136.1050 C   0  0  1  0  0  3  0  0  0  0  0  0
  190.2910  176.3600  136.9840 C   0  0  0  0  0  3  0  0  0  0  0  0
  188.9930  176.0950  136.8400 C   0  0  0  0  0  0  0  0  0  0  0  0
  191.6870  177.8850  141.0830 C   0  0  0  0  0  2  0  0  0  0  0  0
  188.8260  178.2520  140.5330 C   0  0  1  0  0  3  0  0  0  0  0  0
  190.1380  176.6670  144.3270 C   0  0  0  0  0  0  0  0  0  0  0  0
  191.0870  177.0000  143.3450 C   0  0  0  0  0  3  0  0  0  0  0  0
  190.6740  177.5070  142.1090 C   0  0  0  0  0  0  0  0  0  0  0  0
  188.7410  177.1430  139.5050 C   0  0  2  0  0  3  0  0  0  0  0  0
  188.3640  177.3700  142.8290 C   0  0  0  0  0  3  0  0  0  0  0  0
  189.3060  177.6960  141.8480 C   0  0  0  0  0  0  0  0  0  0  0  0
  188.7770  176.8580  144.0620 C   0  0  0  0  0  3  0  0  0  0  0  0
  189.8400  178.1820  139.3740 C   0  0  2  0  0  3  0  0  0  0  0  0
  191.1780  177.5050  139.6990 C   0  0  0  0  0  2  0  0  0  0  0  0
  190.5220  176.1640  145.5740 O   0  0  0  0  0  0  0  0  0  0  0  0
  192.1050  175.7710  147.3310 C   0  0  0  0  0  1  0  0  0  0  0  0
  191.5130  176.7880  146.3800 C   0  0  0  0  0  2  0  0  0  0  0  0
  192.6250  173.3720  136.2920 C   0  0  0  0  0  3  0  0  0  0  0  0
  192.3700  172.0450  135.5940 C   0  0  0  0  0  2  0  0  0  0  0  0
  192.8920  173.2230  134.8020 C   0  0  0  0  0  2  0  0  0  0  0  0
  184.8880  177.4930  134.7330 C   0  0  0  0  0  1  0  0  0  0  0  0
  186.3040  177.3540  135.1900 C   0  0  0  0  0  0  0  0  0  0  0  0
  187.1870  177.9480  134.5940 O   0  0  0  0  0  0  0  0  0  0  0  0
  186.1880  174.2790  136.8730 C   0  0  0  0  0  2  0  0  0  0  0  0
  184.8340  174.5960  136.7660 O   0  0  0  0  0  1  0  0  0  0  0  0
  1  5  1  6  0  0  0
  1  4  1  0  0  0  0
  2  7  2  0  0  0  0
  3 10  1  0  0  0  0
  3  6  1  0  0  0  0
  3 33  1  0  0  0  0
  4  5  1  6  0  0  0
  6 31  1  6  0  0  0
  6  1  1  0  0  0  0
  8  9  2  0  0  0  0
  8  7  1  0  0  0  0
  9 11  1  0  0  0  0
 10  2  1  1  0  0  0
 10 12  1  0  0  0  0
 12 11  2  0  0  0  0
 12  1  1  0  0  0  0
 13 17  1  0  0  0  0
 14 20  1  1  0  0  0
 15 24  1  0  0  0  0
 16 15  2  0  0  0  0
 17 16  1  0  0  0  0
 18  4  1  6  0  0  0
 18 14  1  0  0  0  0
 19 21  2  0  0  0  0
 20 17  2  0  0  0  0
 20 19  1  0  0  0  0
 21 15  1  0  0  0  0
 22 18  1  0  0  0  0
 22 23  1  1  0  0  0
 22 14  1  0  0  0  0
 23 13  1  0  0  0  0
 24 26  1  0  0  0  0
 26 25  1  0  0  0  0
 27  8  1  0  0  0  0
 28 27  1  0  0  0  0
 29 28  1  0  0  0  0
 29 27  1  0  0  0  0
 30 31  1  0  0  0  0
 32 31  2  0  0  0  0
 34 33  1  0  0  0  0
M  END
>  <MODEL>
8

>  <REMARK>
 VINA RESULT:      -3.8      3.856      7.592
  Name = 
  6 active torsions:
  status: ('A' for Active; 'I' for Inactive)
    1  A    between atoms: C_3  and  C_25
    2  A    between atoms: N_5  and  C_19
    3  A    between atoms: C_7  and  O_11
    4  A    between atoms: C_8  and  C_18
    5  A    between atoms: O_11  and  C_21
    6  A    between atoms: C_12  and  C_20
                            x       y       z     vdW  Elec       q    Type
                         _______ _______ _______ _____ _____    ______ ____

>  <TORSDO>
F 6

$$$$
=
 OpenBabel11052415583D

 34 40  0  0  1  0  0  0  0  0999 V2000
  188.6210  177.0930  137.3740 C   0  0  2  0  0  0  0  0  0  0  0  0
  190.2070  173.9160  137.0020 C   0  0  0  0  0  3  0  0  0  0  0  0
  188.2980  175.2040  135.9400 N   0  0  0  0  0  0  0  0  0  0  0  0
  187.9420  177.3100  138.7270 C   0  0  2  0  0  3  0  0  0  0  0  0
  188.4660  178.4970  137.9160 C   0  0  0  0  0  2  0  0  0  0  0  0
  187.6890  176.4800  136.3540 C   0  0  2  0  0  3  0  0  0  0  0  0
  191.4540  173.7330  137.4360 C   0  0  0  0  0  3  0  0  0  0  0  0
  192.5350  174.7470  137.4710 C   0  0  0  0  0  0  0  0  0  0  0  0
  192.3390  176.0590  137.6870 C   0  0  0  0  0  3  0  0  0  0  0  0
  189.7150  175.2060  136.4090 C   0  0  1  0  0  3  0  0  0  0  0  0
  191.0600  176.7820  137.8030 C   0  0  0  0  0  3  0  0  0  0  0  0
  189.8920  176.3500  137.3300 C   0  0  0  0  0  0  0  0  0  0  0  0
  191.4060  177.9610  142.0320 C   0  0  0  0  0  2  0  0  0  0  0  0
  188.7150  178.2270  140.8870 C   0  0  1  0  0  3  0  0  0  0  0  0
  189.2420  176.8350  144.9390 C   0  0  0  0  0  0  0  0  0  0  0  0
  190.3670  177.1540  144.1590 C   0  0  0  0  0  3  0  0  0  0  0  0
  190.2100  177.5970  142.8430 C   0  0  0  0  0  0  0  0  0  0  0  0
  188.8650  177.0760  139.9160 C   0  0  2  0  0  3  0  0  0  0  0  0
  187.8030  177.4280  143.0770 C   0  0  0  0  0  3  0  0  0  0  0  0
  188.9220  177.7390  142.2970 C   0  0  0  0  0  0  0  0  0  0  0  0
  187.9620  176.9780  144.3900 C   0  0  0  0  0  3  0  0  0  0  0  0
  189.9470  178.1380  139.9670 C   0  0  2  0  0  3  0  0  0  0  0  0
  191.2010  177.5110  140.5910 C   0  0  0  0  0  2  0  0  0  0  0  0
  189.3680  176.3950  146.2600 O   0  0  0  0  0  0  0  0  0  0  0  0
  188.4190  177.6670  148.0550 C   0  0  0  0  0  1  0  0  0  0  0  0
  189.6870  177.2700  147.3330 C   0  0  0  0  0  2  0  0  0  0  0  0
  193.9460  174.2440  137.5100 C   0  0  0  0  0  3  0  0  0  0  0  0
  194.0430  172.8830  136.8400 C   0  0  0  0  0  2  0  0  0  0  0  0
  194.5100  174.1170  136.1030 C   0  0  0  0  0  2  0  0  0  0  0  0
  186.1180  177.7180  134.6710 C   0  0  0  0  0  1  0  0  0  0  0  0
  187.4860  177.3720  135.1600 C   0  0  0  0  0  0  0  0  0  0  0  0
  188.4610  177.8410  134.5940 O   0  0  0  0  0  0  0  0  0  0  0  0
  187.4890  174.1570  136.5630 C   0  0  0  0  0  2  0  0  0  0  0  0
  186.2800  174.7000  136.9950 O   0  0  0  0  0  1  0  0  0  0  0  0
  1  5  1  6  0  0  0
  1  4  1  0  0  0  0
  2  7  2  0  0  0  0
  3  6  1  0  0  0  0
  3 10  1  0  0  0  0
  3 33  1  0  0  0  0
  4  5  1  6  0  0  0
  6 31  1  6  0  0  0
  6  1  1  0  0  0  0
  7  8  1  0  0  0  0
  8 27  1  0  0  0  0
  8  9  2  0  0  0  0
  9 11  1  0  0  0  0
 10  2  1  1  0  0  0
 10 12  1  0  0  0  0
 12  1  1  0  0  0  0
 12 11  2  0  0  0  0
 13 17  1  0  0  0  0
 14 20  1  1  0  0  0
 15 24  1  0  0  0  0
 16 15  2  0  0  0  0
 17 16  1  0  0  0  0
 18  4  1  6  0  0  0
 18 22  1  0  0  0  0
 18 14  1  0  0  0  0
 19 21  2  0  0  0  0
 20 17  2  0  0  0  0
 20 19  1  0  0  0  0
 21 15  1  0  0  0  0
 22 23  1  1  0  0  0
 22 14  1  0  0  0  0
 23 13  1  0  0  0  0
 24 26  1  0  0  0  0
 26 25  1  0  0  0  0
 28 27  1  0  0  0  0
 29 28  1  0  0  0  0
 29 27  1  0  0  0  0
 30 31  1  0  0  0  0
 32 31  2  0  0  0  0
 33 34  1  0  0  0  0
M  END
>  <MODEL>
9

>  <REMARK>
 VINA RESULT:      -3.7      4.536      8.135
  Name = 
  6 active torsions:
  status: ('A' for Active; 'I' for Inactive)
    1  A    between atoms: C_3  and  C_25
    2  A    between atoms: N_5  and  C_19
    3  A    between atoms: C_7  and  O_11
    4  A    between atoms: C_8  and  C_18
    5  A    between atoms: O_11  and  C_21
    6  A    between atoms: C_12  and  C_20
                            x       y       z     vdW  Elec       q    Type
                         _______ _______ _______ _____ _____    ______ ____

>  <TORSDO>
F 6

$$$$
