=
 OpenBabel11052412303D

 30 32  0  0  0  0  0  0  0  0999 V2000
  186.4490  177.8020  142.6300 C   0  0  0  0  0  3  0  0  0  0  0  0
  184.1100  178.3900  142.3340 C   0  0  0  0  0  0  0  0  0  0  0  0
  186.1420  178.4160  146.7880 C   0  0  0  0  0  3  0  0  0  0  0  0
  187.5710  177.6120  143.4420 C   0  0  0  0  0  0  0  0  0  0  0  0
  187.2520  178.2020  147.6080 C   0  0  0  0  0  3  0  0  0  0  0  0
  182.8900  178.7950  142.8790 C   0  0  0  0  0  3  0  0  0  0  0  0
  184.2050  178.1800  140.9630 O   0  0  0  0  0  1  0  0  0  0  0  0
  186.2280  178.2210  145.3980 C   0  0  0  0  0  0  0  0  0  0  0  0
  182.7680  179.0130  144.2520 C   0  0  0  0  0  3  0  0  0  0  0  0
  185.2240  178.2010  143.1700 C   0  0  0  0  0  0  0  0  0  0  0  0
  187.4640  177.8110  144.8330 C   0  0  0  0  0  0  0  0  0  0  0  0
  188.4620  177.7900  147.0500 C   0  0  0  0  0  3  0  0  0  0  0  0
  188.5670  177.5940  145.6730 C   0  0  0  0  0  3  0  0  0  0  0  0
  183.8700  178.8250  145.0900 C   0  0  0  0  0  3  0  0  0  0  0  0
  185.1080  178.4190  144.5640 C   0  0  0  0  0  0  0  0  0  0  0  0
  190.3350  177.4390  141.0600 O   0  0  0  0  0  0  0  0  0  0  0  0
  189.2110  177.7410  141.5450 C   0  0  0  0  0  0  0  0  0  0  0  0
  188.8160  177.2290  142.8340 N   0  0  0  0  0  0  0  0  0  0  0  0
  188.2930  178.6020  140.7410 C   0  0  0  0  0  2  0  0  0  0  0  0
  188.6840  178.5500  139.2770 C   0  0  0  0  0  2  0  0  0  0  0  0
  187.7890  176.7580  137.9910 O   0  0  0  0  0  0  0  0  0  0  0  0
  187.6040  177.8960  138.4930 C   0  0  0  0  0  0  0  0  0  0  0  0
  186.3990  178.5570  138.2860 O   0  0  0  0  0  1  0  0  0  0  0  0
  189.6230  176.2010  143.4820 C   0  0  0  0  0  2  0  0  0  0  0  0
  191.0730  176.6500  143.5740 C   0  0  0  0  0  2  0  0  0  0  0  0
  191.7640  175.9560  144.7320 C   0  0  0  0  0  2  0  0  0  0  0  0
  191.7630  176.8220  145.9000 N   0  0  0  0  0  2  0  0  0  0  0  0
  192.4230  174.9640  147.4010 N   0  0  0  0  0  1  0  0  0  0  0  0
  192.0850  176.3340  147.2020 C   0  0  0  0  0  0  0  0  0  0  0  0
  192.0710  177.1220  148.1830 O   0  0  0  0  0  0  0  0  0  0  0  0
  1 10  2  0  0  0  0
  1  4  1  0  0  0  0
  2  6  2  0  0  0  0
  2 10  1  0  0  0  0
  3  5  2  0  0  0  0
  4 11  2  0  0  0  0
  6  9  1  0  0  0  0
  7  2  1  0  0  0  0
  8  3  1  0  0  0  0
  9 14  2  0  0  0  0
 10 15  1  0  0  0  0
 11  8  1  0  0  0  0
 11 13  1  0  0  0  0
 12  5  1  0  0  0  0
 13 12  2  0  0  0  0
 15 14  1  0  0  0  0
 15  8  2  0  0  0  0
 16 17  2  0  0  0  0
 17 18  1  0  0  0  0
 18  4  1  0  0  0  0
 18 24  1  0  0  0  0
 19 17  1  0  0  0  0
 20 19  1  0  0  0  0
 21 22  2  0  0  0  0
 22 20  1  0  0  0  0
 23 22  1  0  0  0  0
 24 25  1  0  0  0  0
 25 26  1  0  0  0  0
 26 27  1  0  0  0  0
 27 29  1  0  0  0  0
 29 28  1  0  0  0  0
 29 30  2  0  0  0  0
M  END
>  <MODEL>
1

>  <REMARK>
 VINA RESULT:      -9.7      0.000      0.000
  Name = 
  8 active torsions:
  status: ('A' for Active; 'I' for Inactive)
    1  A    between atoms: C_4  and  N_13
    2  A    between atoms: N_7  and  C_16
    3  A    between atoms: C_8  and  C_12
    4  A    between atoms: C_9  and  C_12
    5  A    between atoms: C_9  and  C_17
    6  A    between atoms: N_13  and  C_27
    7  A    between atoms: C_16  and  C_30
    8  A    between atoms: C_27  and  C_30
                            x       y       z     vdW  Elec       q    Type
                         _______ _______ _______ _____ _____    ______ ____

>  <TORSDO>
F 8

$$$$
=
 OpenBabel11052412303D

 30 32  0  0  0  0  0  0  0  0999 V2000
  188.3390  177.1170  143.1950 C   0  0  0  0  0  3  0  0  0  0  0  0
  190.5770  176.1800  143.3160 C   0  0  0  0  0  0  0  0  0  0  0  0
  188.3650  177.8750  147.3410 C   0  0  0  0  0  3  0  0  0  0  0  0
  187.2210  177.7010  143.7990 C   0  0  0  0  0  0  0  0  0  0  0  0
  187.2620  178.4820  147.9450 C   0  0  0  0  0  3  0  0  0  0  0  0
  191.7000  175.8290  144.0710 C   0  0  0  0  0  3  0  0  0  0  0  0
  190.5760  175.9360  141.9470 O   0  0  0  0  0  1  0  0  0  0  0  0
  188.3710  177.6090  145.9600 C   0  0  0  0  0  0  0  0  0  0  0  0
  191.7260  176.0630  145.4460 C   0  0  0  0  0  3  0  0  0  0  0  0
  189.4670  176.7700  143.9430 C   0  0  0  0  0  0  0  0  0  0  0  0
  187.2360  177.9600  145.1840 C   0  0  0  0  0  0  0  0  0  0  0  0
  186.1520  178.8340  147.1780 C   0  0  0  0  0  3  0  0  0  0  0  0
  186.1390  178.5770  145.8060 C   0  0  0  0  0  3  0  0  0  0  0  0
  190.6270  176.6510  146.0760 C   0  0  0  0  0  3  0  0  0  0  0  0
  189.4870  177.0100  145.3380 C   0  0  0  0  0  0  0  0  0  0  0  0
  185.1980  178.6880  140.9230 O   0  0  0  0  0  0  0  0  0  0  0  0
  186.2180  178.4800  141.6330 C   0  0  0  0  0  0  0  0  0  0  0  0
  186.0740  178.0130  142.9900 N   0  0  0  0  0  0  0  0  0  0  0  0
  187.5640  178.7630  141.0510 C   0  0  0  0  0  2  0  0  0  0  0  0
  187.6670  178.1550  139.6650 C   0  0  0  0  0  2  0  0  0  0  0  0
  188.9890  179.4080  138.1330 O   0  0  0  0  0  0  0  0  0  0  0  0
  188.9610  178.5400  139.0440 C   0  0  0  0  0  0  0  0  0  0  0  0
  190.1360  177.9180  139.4460 O   0  0  0  0  0  1  0  0  0  0  0  0
  184.7540  177.9800  143.6080 C   0  0  0  0  0  2  0  0  0  0  0  0
  184.0980  179.3500  143.5220 C   0  0  0  0  0  2  0  0  0  0  0  0
  182.6030  179.2300  143.7480 C   0  0  0  0  0  2  0  0  0  0  0  0
  181.9450  178.8430  142.5110 N   0  0  0  0  0  2  0  0  0  0  0  0
  180.1210  180.4860  142.8510 N   0  0  0  0  0  1  0  0  0  0  0  0
  180.7330  179.4580  142.0760 C   0  0  0  0  0  0  0  0  0  0  0  0
  180.2000  179.0900  140.9980 O   0  0  0  0  0  0  0  0  0  0  0  0
  1  4  2  0  0  0  0
  1 10  1  0  0  0  0
  2 10  2  0  0  0  0
  2  6  1  0  0  0  0
  3  5  1  0  0  0  0
  4 11  1  0  0  0  0
  6  9  2  0  0  0  0
  7  2  1  0  0  0  0
  8  3  2  0  0  0  0
  9 14  1  0  0  0  0
 10 15  1  0  0  0  0
 11 13  2  0  0  0  0
 11  8  1  0  0  0  0
 12  5  2  0  0  0  0
 13 12  1  0  0  0  0
 15  8  1  0  0  0  0
 15 14  2  0  0  0  0
 16 17  2  0  0  0  0
 17 18  1  0  0  0  0
 18 24  1  0  0  0  0
 18  4  1  0  0  0  0
 19 17  1  0  0  0  0
 20 19  1  0  0  0  0
 21 22  2  0  0  0  0
 22 23  1  0  0  0  0
 22 20  1  0  0  0  0
 25 24  1  0  0  0  0
 25 26  1  0  0  0  0
 27 26  1  0  0  0  0
 29 27  1  0  0  0  0
 29 28  1  0  0  0  0
 30 29  2  0  0  0  0
M  END
>  <MODEL>
2

>  <REMARK>
 VINA RESULT:      -9.1      2.608      6.643
  Name = 
  8 active torsions:
  status: ('A' for Active; 'I' for Inactive)
    1  A    between atoms: C_4  and  N_13
    2  A    between atoms: N_7  and  C_16
    3  A    between atoms: C_8  and  C_12
    4  A    between atoms: C_9  and  C_12
    5  A    between atoms: C_9  and  C_17
    6  A    between atoms: N_13  and  C_27
    7  A    between atoms: C_16  and  C_30
    8  A    between atoms: C_27  and  C_30
                            x       y       z     vdW  Elec       q    Type
                         _______ _______ _______ _____ _____    ______ ____

>  <TORSDO>
F 8

$$$$
=
 OpenBabel11052412303D

 30 32  0  0  0  0  0  0  0  0999 V2000
  188.9100  177.6410  143.4500 C   0  0  0  0  0  3  0  0  0  0  0  0
  190.8710  176.8630  144.6540 C   0  0  0  0  0  0  0  0  0  0  0  0
  186.7380  177.9320  147.0500 C   0  0  0  0  0  3  0  0  0  0  0  0
  187.5800  178.0700  143.4230 C   0  0  0  0  0  0  0  0  0  0  0  0
  185.4180  178.3850  147.0320 C   0  0  0  0  0  3  0  0  0  0  0  0
  191.4890  176.5140  145.8580 C   0  0  0  0  0  3  0  0  0  0  0  0
  191.5940  176.7740  143.4700 O   0  0  0  0  0  1  0  0  0  0  0  0
  187.4760  177.8230  145.8580 C   0  0  0  0  0  0  0  0  0  0  0  0
  190.7850  176.5940  147.0600 C   0  0  0  0  0  3  0  0  0  0  0  0
  189.5350  177.2960  144.6510 C   0  0  0  0  0  0  0  0  0  0  0  0
  186.8580  178.1730  144.6290 C   0  0  0  0  0  0  0  0  0  0  0  0
  184.8170  178.7380  145.8240 C   0  0  0  0  0  3  0  0  0  0  0  0
  185.5330  178.6350  144.6300 C   0  0  0  0  0  3  0  0  0  0  0  0
  189.4570  177.0260  147.0660 C   0  0  0  0  0  3  0  0  0  0  0  0
  188.8150  177.3810  145.8680 C   0  0  0  0  0  0  0  0  0  0  0  0
  187.1290  178.4640  139.8200 O   0  0  0  0  0  0  0  0  0  0  0  0
  187.7000  178.2400  140.9200 C   0  0  0  0  0  0  0  0  0  0  0  0
  186.9740  178.3860  142.1570 N   0  0  0  0  0  0  0  0  0  0  0  0
  189.1460  177.8630  140.9130 C   0  0  0  0  0  2  0  0  0  0  0  0
  189.6470  177.7640  139.4840 C   0  0  0  0  0  2  0  0  0  0  0  0
  190.7350  175.7170  138.9460 O   0  0  0  0  0  0  0  0  0  0  0  0
  190.8350  176.8740  139.4300 C   0  0  0  0  0  0  0  0  0  0  0  0
  192.0510  177.3070  139.9460 O   0  0  0  0  0  1  0  0  0  0  0  0
  185.6450  178.9880  142.1500 C   0  0  0  0  0  2  0  0  0  0  0  0
  184.6180  177.9890  141.6410 C   0  0  0  0  0  2  0  0  0  0  0  0
  183.2790  178.6720  141.4390 C   0  0  0  0  0  2  0  0  0  0  0  0
  182.7630  178.3690  140.1140 N   0  0  0  0  0  2  0  0  0  0  0  0
  184.1080  180.1700  139.0700 N   0  0  0  0  0  1  0  0  0  0  0  0
  183.1700  179.1030  138.9590 C   0  0  0  0  0  0  0  0  0  0  0  0
  182.6970  178.8030  137.8330 O   0  0  0  0  0  0  0  0  0  0  0  0
  1 10  1  0  0  0  0
  2  6  1  0  0  0  0
  4  1  2  0  0  0  0
  4 11  1  0  0  0  0
  5  3  1  0  0  0  0
  6  9  2  0  0  0  0
  7  2  1  0  0  0  0
  8 15  1  0  0  0  0
  8  3  2  0  0  0  0
  9 14  1  0  0  0  0
 10  2  2  0  0  0  0
 10 15  1  0  0  0  0
 11 13  2  0  0  0  0
 11  8  1  0  0  0  0
 12  5  2  0  0  0  0
 13 12  1  0  0  0  0
 15 14  2  0  0  0  0
 16 17  2  0  0  0  0
 17 18  1  0  0  0  0
 18  4  1  0  0  0  0
 19 17  1  0  0  0  0
 20 19  1  0  0  0  0
 21 22  2  0  0  0  0
 22 20  1  0  0  0  0
 22 23  1  0  0  0  0
 24 18  1  0  0  0  0
 25 24  1  0  0  0  0
 26 25  1  0  0  0  0
 27 26  1  0  0  0  0
 29 28  1  0  0  0  0
 29 27  1  0  0  0  0
 30 29  2  0  0  0  0
M  END
>  <MODEL>
3

>  <REMARK>
 VINA RESULT:      -9.1      2.548      6.535
  Name = 
  8 active torsions:
  status: ('A' for Active; 'I' for Inactive)
    1  A    between atoms: C_4  and  N_13
    2  A    between atoms: N_7  and  C_16
    3  A    between atoms: C_8  and  C_12
    4  A    between atoms: C_9  and  C_12
    5  A    between atoms: C_9  and  C_17
    6  A    between atoms: N_13  and  C_27
    7  A    between atoms: C_16  and  C_30
    8  A    between atoms: C_27  and  C_30
                            x       y       z     vdW  Elec       q    Type
                         _______ _______ _______ _____ _____    ______ ____

>  <TORSDO>
F 8

$$$$
=
 OpenBabel11052412303D

 30 32  0  0  0  0  0  0  0  0999 V2000
  188.1760  177.8460  144.1770 C   0  0  0  0  0  3  0  0  0  0  0  0
  187.8410  177.9820  146.5790 C   0  0  0  0  0  0  0  0  0  0  0  0
  184.0860  178.6080  143.5020 C   0  0  0  0  0  3  0  0  0  0  0  0
  187.6870  177.8930  142.8670 C   0  0  0  0  0  0  0  0  0  0  0  0
  183.5970  178.6830  142.1960 C   0  0  0  0  0  3  0  0  0  0  0  0
  186.9890  178.1690  147.6700 C   0  0  0  0  0  3  0  0  0  0  0  0
  189.1920  177.7390  146.8060 O   0  0  0  0  0  1  0  0  0  0  0  0
  185.4460  178.3490  143.7460 C   0  0  0  0  0  0  0  0  0  0  0  0
  185.6300  178.4140  147.4700 C   0  0  0  0  0  3  0  0  0  0  0  0
  187.3300  178.0380  145.2710 C   0  0  0  0  0  0  0  0  0  0  0  0
  186.3210  178.1550  142.6440 C   0  0  0  0  0  0  0  0  0  0  0  0
  184.4610  178.5020  141.1160 C   0  0  0  0  0  3  0  0  0  0  0  0
  185.8140  178.2420  141.3380 C   0  0  0  0  0  3  0  0  0  0  0  0
  185.1140  178.4740  146.1730 C   0  0  0  0  0  3  0  0  0  0  0  0
  185.9520  178.2870  145.0610 C   0  0  0  0  0  0  0  0  0  0  0  0
  190.3190  176.3820  140.8350 O   0  0  0  0  0  0  0  0  0  0  0  0
  189.5780  176.6070  141.8290 C   0  0  0  0  0  0  0  0  0  0  0  0
  188.5930  177.6590  141.7750 N   0  0  0  0  0  0  0  0  0  0  0  0
  189.7690  175.7900  143.0650 C   0  0  0  0  0  2  0  0  0  0  0  0
  191.2480  175.6760  143.3860 C   0  0  0  0  0  2  0  0  0  0  0  0
  191.8070  176.1800  145.6430 O   0  0  0  0  0  1  0  0  0  0  0  0
  191.5960  176.6160  144.4830 C   0  0  0  0  0  0  0  0  0  0  0  0
  191.6570  177.9820  144.2330 O   0  0  0  0  0  0  0  0  0  0  0  0
  188.5940  178.5950  140.6560 C   0  0  0  0  0  2  0  0  0  0  0  0
  188.3420  177.8540  139.3520 C   0  0  0  0  0  2  0  0  0  0  0  0
  189.0010  178.5850  138.1980 C   0  0  0  0  0  2  0  0  0  0  0  0
  188.0140  178.8870  137.1740 N   0  0  0  0  0  2  0  0  0  0  0  0
  188.6010  176.8630  135.8710 N   0  0  0  0  0  1  0  0  0  0  0  0
  187.8220  178.0430  136.0390 C   0  0  0  0  0  0  0  0  0  0  0  0
  186.9550  178.3450  135.1790 O   0  0  0  0  0  0  0  0  0  0  0  0
  1 10  1  0  0  0  0
  2  7  1  0  0  0  0
  2  6  1  0  0  0  0
  3  8  1  0  0  0  0
  4  1  2  0  0  0  0
  5  3  2  0  0  0  0
  8 15  1  0  0  0  0
  9  6  2  0  0  0  0
 10  2  2  0  0  0  0
 11  4  1  0  0  0  0
 11  8  2  0  0  0  0
 12 13  2  0  0  0  0
 12  5  1  0  0  0  0
 13 11  1  0  0  0  0
 14  9  1  0  0  0  0
 15 10  1  0  0  0  0
 15 14  2  0  0  0  0
 16 17  2  0  0  0  0
 17 19  1  0  0  0  0
 18 17  1  0  0  0  0
 18  4  1  0  0  0  0
 19 20  1  0  0  0  0
 20 22  1  0  0  0  0
 22 21  1  0  0  0  0
 23 22  2  0  0  0  0
 24 18  1  0  0  0  0
 25 24  1  0  0  0  0
 26 25  1  0  0  0  0
 27 26  1  0  0  0  0
 28 29  1  0  0  0  0
 29 27  1  0  0  0  0
 30 29  2  0  0  0  0
M  END
>  <MODEL>
4

>  <REMARK>
 VINA RESULT:      -9.0      2.434      6.442
  Name = 
  8 active torsions:
  status: ('A' for Active; 'I' for Inactive)
    1  A    between atoms: C_4  and  N_13
    2  A    between atoms: N_7  and  C_16
    3  A    between atoms: C_8  and  C_12
    4  A    between atoms: C_9  and  C_12
    5  A    between atoms: C_9  and  C_17
    6  A    between atoms: N_13  and  C_27
    7  A    between atoms: C_16  and  C_30
    8  A    between atoms: C_27  and  C_30
                            x       y       z     vdW  Elec       q    Type
                         _______ _______ _______ _____ _____    ______ ____

>  <TORSDO>
F 8

$$$$
=
 OpenBabel11052412303D

 30 32  0  0  0  0  0  0  0  0999 V2000
  187.1070  178.1040  144.9420 C   0  0  0  0  0  3  0  0  0  0  0  0
  186.8570  178.4400  147.3350 C   0  0  0  0  0  0  0  0  0  0  0  0
  191.0050  176.6010  145.4980 C   0  0  0  0  0  3  0  0  0  0  0  0
  187.8580  177.7010  143.8340 C   0  0  0  0  0  0  0  0  0  0  0  0
  191.7490  176.1720  144.3970 C   0  0  0  0  0  3  0  0  0  0  0  0
  187.3850  178.3650  148.6260 C   0  0  0  0  0  3  0  0  0  0  0  0
  185.5670  178.9290  147.1570 O   0  0  0  0  0  1  0  0  0  0  0  0
  189.7050  177.1100  145.3300 C   0  0  0  0  0  0  0  0  0  0  0  0
  188.6770  177.8790  148.8320 C   0  0  0  0  0  3  0  0  0  0  0  0
  187.6270  178.0260  146.2360 C   0  0  0  0  0  0  0  0  0  0  0  0
  189.1580  177.1930  144.0230 C   0  0  0  0  0  0  0  0  0  0  0  0
  191.2060  176.2450  143.1150 C   0  0  0  0  0  3  0  0  0  0  0  0
  189.9180  176.7500  142.9290 C   0  0  0  0  0  3  0  0  0  0  0  0
  189.4490  177.4640  147.7450 C   0  0  0  0  0  3  0  0  0  0  0  0
  188.9390  177.5310  146.4380 C   0  0  0  0  0  0  0  0  0  0  0  0
  185.4400  178.3520  141.1750 O   0  0  0  0  0  0  0  0  0  0  0  0
  185.9020  178.1850  142.3350 C   0  0  0  0  0  0  0  0  0  0  0  0
  187.2870  177.8290  142.5200 N   0  0  0  0  0  0  0  0  0  0  0  0
  184.9780  178.3280  143.5010 C   0  0  0  0  0  2  0  0  0  0  0  0
  183.6060  178.7620  143.0220 C   0  0  0  0  0  2  0  0  0  0  0  0
  183.1540  179.1910  145.3190 O   0  0  0  0  0  1  0  0  0  0  0  0
  182.6920  178.9040  144.1860 C   0  0  0  0  0  0  0  0  0  0  0  0
  181.3280  178.6870  144.0270 O   0  0  0  0  0  0  0  0  0  0  0  0
  188.0990  177.4590  141.3660 C   0  0  0  0  0  2  0  0  0  0  0  0
  188.4870  178.6990  140.5770 C   0  0  0  0  0  2  0  0  0  0  0  0
  189.2240  178.3050  139.3110 C   0  0  0  0  0  2  0  0  0  0  0  0
  188.5860  178.9160  138.1560 N   0  0  0  0  0  2  0  0  0  0  0  0
  187.5150  176.7820  137.4940 N   0  0  0  0  0  1  0  0  0  0  0  0
  187.7520  178.1690  137.2710 C   0  0  0  0  0  0  0  0  0  0  0  0
  187.2200  178.7420  136.2850 O   0  0  0  0  0  0  0  0  0  0  0  0
  1 10  1  0  0  0  0
  2  6  1  0  0  0  0
  4 11  1  0  0  0  0
  4  1  2  0  0  0  0
  5  3  2  0  0  0  0
  6  9  2  0  0  0  0
  7  2  1  0  0  0  0
  8  3  1  0  0  0  0
  8 15  1  0  0  0  0
 10 15  1  0  0  0  0
 10  2  2  0  0  0  0
 11  8  2  0  0  0  0
 12  5  1  0  0  0  0
 13 12  2  0  0  0  0
 13 11  1  0  0  0  0
 14  9  1  0  0  0  0
 15 14  2  0  0  0  0
 16 17  2  0  0  0  0
 17 18  1  0  0  0  0
 17 19  1  0  0  0  0
 18  4  1  0  0  0  0
 20 19  1  0  0  0  0
 20 22  1  0  0  0  0
 22 21  1  0  0  0  0
 23 22  2  0  0  0  0
 24 18  1  0  0  0  0
 25 24  1  0  0  0  0
 26 25  1  0  0  0  0
 27 26  1  0  0  0  0
 29 28  1  0  0  0  0
 29 27  1  0  0  0  0
 30 29  2  0  0  0  0
M  END
>  <MODEL>
5

>  <REMARK>
 VINA RESULT:      -8.6      2.561      6.412
  Name = 
  8 active torsions:
  status: ('A' for Active; 'I' for Inactive)
    1  A    between atoms: C_4  and  N_13
    2  A    between atoms: N_7  and  C_16
    3  A    between atoms: C_8  and  C_12
    4  A    between atoms: C_9  and  C_12
    5  A    between atoms: C_9  and  C_17
    6  A    between atoms: N_13  and  C_27
    7  A    between atoms: C_16  and  C_30
    8  A    between atoms: C_27  and  C_30
                            x       y       z     vdW  Elec       q    Type
                         _______ _______ _______ _____ _____    ______ ____

>  <TORSDO>
F 8

$$$$
=
 OpenBabel11052412303D

 30 32  0  0  0  0  0  0  0  0999 V2000
  186.9130  177.9390  143.0950 C   0  0  0  0  0  3  0  0  0  0  0  0
  185.0700  178.4220  144.6030 C   0  0  0  0  0  0  0  0  0  0  0  0
  189.4880  177.2580  146.3610 C   0  0  0  0  0  3  0  0  0  0  0  0
  188.2480  177.5950  142.8640 C   0  0  0  0  0  0  0  0  0  0  0  0
  190.8150  176.8880  146.1360 C   0  0  0  0  0  3  0  0  0  0  0  0
  184.5790  178.5590  145.9040 C   0  0  0  0  0  3  0  0  0  0  0  0
  184.2150  178.6400  143.5280 O   0  0  0  0  0  1  0  0  0  0  0  0
  188.6160  177.4940  145.2830 C   0  0  0  0  0  0  0  0  0  0  0  0
  185.4160  178.3460  146.9990 C   0  0  0  0  0  3  0  0  0  0  0  0
  186.4140  178.0710  144.3930 C   0  0  0  0  0  0  0  0  0  0  0  0
  189.1050  177.3610  143.9570 C   0  0  0  0  0  0  0  0  0  0  0  0
  191.2900  176.7470  144.8320 C   0  0  0  0  0  3  0  0  0  0  0  0
  190.4400  176.9800  143.7500 C   0  0  0  0  0  3  0  0  0  0  0  0
  186.7530  177.9950  146.8000 C   0  0  0  0  0  3  0  0  0  0  0  0
  187.2700  177.8530  145.5010 C   0  0  0  0  0  0  0  0  0  0  0  0
  188.4200  177.9990  139.2380 O   0  0  0  0  0  0  0  0  0  0  0  0
  187.9570  178.0390  140.4090 C   0  0  0  0  0  0  0  0  0  0  0  0
  188.7190  177.5000  141.5080 N   0  0  0  0  0  0  0  0  0  0  0  0
  186.5970  178.6180  140.6220 C   0  0  0  0  0  2  0  0  0  0  0  0
  185.8600  178.7080  139.2990 C   0  0  0  0  0  2  0  0  0  0  0  0
  183.6340  178.5540  140.1270 O   0  0  0  0  0  1  0  0  0  0  0  0
  184.4930  179.2460  139.5230 C   0  0  0  0  0  0  0  0  0  0  0  0
  184.1540  180.5030  139.0350 O   0  0  0  0  0  0  0  0  0  0  0  0
  189.9270  176.7260  141.2410 C   0  0  0  0  0  2  0  0  0  0  0  0
  190.9700  177.5980  140.5610 C   0  0  0  0  0  2  0  0  0  0  0  0
  191.7140  176.7990  139.5080 C   0  0  0  0  0  2  0  0  0  0  0  0
  190.8390  175.7830  138.9470 N   0  0  0  0  0  2  0  0  0  0  0  0
  192.6270  174.9170  137.4660 N   0  0  0  0  0  1  0  0  0  0  0  0
  191.2880  174.8660  137.9500 C   0  0  0  0  0  0  0  0  0  0  0  0
  190.4940  174.0030  137.4960 O   0  0  0  0  0  0  0  0  0  0  0  0
  1 10  1  0  0  0  0
  2  6  1  0  0  0  0
  4  1  2  0  0  0  0
  4 11  1  0  0  0  0
  5  3  1  0  0  0  0
  6  9  2  0  0  0  0
  7  2  1  0  0  0  0
  8 15  1  0  0  0  0
  8  3  2  0  0  0  0
 10  2  2  0  0  0  0
 10 15  1  0  0  0  0
 11  8  1  0  0  0  0
 12  5  2  0  0  0  0
 13 11  2  0  0  0  0
 13 12  1  0  0  0  0
 14  9  1  0  0  0  0
 15 14  2  0  0  0  0
 16 17  2  0  0  0  0
 17 19  1  0  0  0  0
 17 18  1  0  0  0  0
 18  4  1  0  0  0  0
 20 22  1  0  0  0  0
 20 19  1  0  0  0  0
 22 21  1  0  0  0  0
 23 22  2  0  0  0  0
 24 18  1  0  0  0  0
 25 24  1  0  0  0  0
 26 25  1  0  0  0  0
 27 26  1  0  0  0  0
 28 29  1  0  0  0  0
 29 27  1  0  0  0  0
 30 29  2  0  0  0  0
M  END
>  <MODEL>
6

>  <REMARK>
 VINA RESULT:      -8.6      2.779      4.472
  Name = 
  8 active torsions:
  status: ('A' for Active; 'I' for Inactive)
    1  A    between atoms: C_4  and  N_13
    2  A    between atoms: N_7  and  C_16
    3  A    between atoms: C_8  and  C_12
    4  A    between atoms: C_9  and  C_12
    5  A    between atoms: C_9  and  C_17
    6  A    between atoms: N_13  and  C_27
    7  A    between atoms: C_16  and  C_30
    8  A    between atoms: C_27  and  C_30
                            x       y       z     vdW  Elec       q    Type
                         _______ _______ _______ _____ _____    ______ ____

>  <TORSDO>
F 8

$$$$
=
 OpenBabel11052412303D

 30 32  0  0  0  0  0  0  0  0999 V2000
  187.9560  177.4830  144.6730 C   0  0  0  0  0  3  0  0  0  0  0  0
  186.2310  177.9350  146.3240 C   0  0  0  0  0  0  0  0  0  0  0  0
  185.4140  178.7790  141.5710 C   0  0  0  0  0  3  0  0  0  0  0  0
  188.4090  177.4580  143.3510 C   0  0  0  0  0  0  0  0  0  0  0  0
  185.8700  178.7820  140.2520 C   0  0  0  0  0  3  0  0  0  0  0  0
  184.9400  178.3700  146.6320 C   0  0  0  0  0  3  0  0  0  0  0  0
  187.0700  177.5160  147.3510 O   0  0  0  0  0  1  0  0  0  0  0  0
  186.2460  178.3450  142.6180 C   0  0  0  0  0  0  0  0  0  0  0  0
  184.0790  178.7960  145.6190 C   0  0  0  0  0  3  0  0  0  0  0  0
  186.6680  177.9230  144.9880 C   0  0  0  0  0  0  0  0  0  0  0  0
  187.5590  177.8980  142.3160 C   0  0  0  0  0  0  0  0  0  0  0  0
  187.1650  178.3520  139.9600 C   0  0  0  0  0  3  0  0  0  0  0  0
  188.0050  177.9150  140.9850 C   0  0  0  0  0  3  0  0  0  0  0  0
  184.5060  178.7880  144.2900 C   0  0  0  0  0  3  0  0  0  0  0  0
  185.7990  178.3530  143.9560 C   0  0  0  0  0  0  0  0  0  0  0  0
  191.9030  176.5120  143.8350 O   0  0  0  0  0  0  0  0  0  0  0  0
  190.7680  177.0030  144.0790 C   0  0  0  0  0  0  0  0  0  0  0  0
  189.7330  176.9690  143.0760 N   0  0  0  0  0  0  0  0  0  0  0  0
  190.5380  177.6490  145.4060 C   0  0  0  0  0  2  0  0  0  0  0  0
  190.3700  176.5870  146.4760 C   0  0  0  0  0  2  0  0  0  0  0  0
  191.9830  177.1900  148.1190 O   0  0  0  0  0  1  0  0  0  0  0  0
  191.6540  176.3970  147.2000 C   0  0  0  0  0  0  0  0  0  0  0  0
  192.5070  175.3610  146.8390 O   0  0  0  0  0  0  0  0  0  0  0  0
  190.0570  176.5560  141.7150 C   0  0  0  0  0  2  0  0  0  0  0  0
  191.2080  177.3890  141.1730 C   0  0  0  0  0  2  0  0  0  0  0  0
  191.4800  177.0270  139.7250 C   0  0  0  0  0  2  0  0  0  0  0  0
  190.4600  176.1090  139.2440 N   0  0  0  0  0  2  0  0  0  0  0  0
  189.9510  177.5420  137.2880 N   0  0  0  0  0  1  0  0  0  0  0  0
  189.7150  176.3640  138.0540 C   0  0  0  0  0  0  0  0  0  0  0  0
  188.8430  175.5400  137.6770 O   0  0  0  0  0  0  0  0  0  0  0  0
  1 10  1  0  0  0  0
  2  6  1  0  0  0  0
  2  7  1  0  0  0  0
  3  8  1  0  0  0  0
  4  1  2  0  0  0  0
  5  3  2  0  0  0  0
  8 15  1  0  0  0  0
  9  6  2  0  0  0  0
 10  2  2  0  0  0  0
 11  8  2  0  0  0  0
 11  4  1  0  0  0  0
 12  5  1  0  0  0  0
 12 13  2  0  0  0  0
 13 11  1  0  0  0  0
 14  9  1  0  0  0  0
 15 14  2  0  0  0  0
 15 10  1  0  0  0  0
 16 17  2  0  0  0  0
 17 19  1  0  0  0  0
 18  4  1  0  0  0  0
 18 17  1  0  0  0  0
 19 20  1  0  0  0  0
 20 22  1  0  0  0  0
 22 21  1  0  0  0  0
 23 22  2  0  0  0  0
 24 18  1  0  0  0  0
 25 24  1  0  0  0  0
 26 25  1  0  0  0  0
 27 26  1  0  0  0  0
 28 29  1  0  0  0  0
 29 27  1  0  0  0  0
 30 29  2  0  0  0  0
M  END
>  <MODEL>
7

>  <REMARK>
 VINA RESULT:      -8.5      2.226      6.146
  Name = 
  8 active torsions:
  status: ('A' for Active; 'I' for Inactive)
    1  A    between atoms: C_4  and  N_13
    2  A    between atoms: N_7  and  C_16
    3  A    between atoms: C_8  and  C_12
    4  A    between atoms: C_9  and  C_12
    5  A    between atoms: C_9  and  C_17
    6  A    between atoms: N_13  and  C_27
    7  A    between atoms: C_16  and  C_30
    8  A    between atoms: C_27  and  C_30
                            x       y       z     vdW  Elec       q    Type
                         _______ _______ _______ _____ _____    ______ ____

>  <TORSDO>
F 8

$$$$
=
 OpenBabel11052412303D

 30 32  0  0  0  0  0  0  0  0999 V2000
  183.6970  178.6120  141.4000 C   0  0  0  0  0  3  0  0  0  0  0  0
  185.3940  178.5190  143.1360 C   0  0  0  0  0  0  0  0  0  0  0  0
  180.6630  178.9980  144.3000 C   0  0  0  0  0  3  0  0  0  0  0  0
  182.3620  178.7130  140.9960 C   0  0  0  0  0  0  0  0  0  0  0  0
  179.3310  179.1260  143.9020 C   0  0  0  0  0  3  0  0  0  0  0  0
  185.7370  178.5290  144.4910 C   0  0  0  0  0  3  0  0  0  0  0  0
  186.3980  178.4000  142.1820 O   0  0  0  0  0  1  0  0  0  0  0  0
  181.6870  178.8620  143.3470 C   0  0  0  0  0  0  0  0  0  0  0  0
  184.7470  178.6480  145.4670 C   0  0  0  0  0  3  0  0  0  0  0  0
  184.0460  178.6270  142.7520 C   0  0  0  0  0  0  0  0  0  0  0  0
  181.3500  178.8490  141.9680 C   0  0  0  0  0  0  0  0  0  0  0  0
  179.0040  179.1230  142.5460 C   0  0  0  0  0  3  0  0  0  0  0  0
  180.0070  178.9870  141.5850 C   0  0  0  0  0  3  0  0  0  0  0  0
  183.4060  178.7570  145.0940 C   0  0  0  0  0  3  0  0  0  0  0  0
  183.0370  178.7480  143.7390 C   0  0  0  0  0  0  0  0  0  0  0  0
  181.3040  177.4320  137.7440 O   0  0  0  0  0  0  0  0  0  0  0  0
  181.6300  177.4370  138.9610 C   0  0  0  0  0  0  0  0  0  0  0  0
  182.0520  178.6630  139.5930 N   0  0  0  0  0  0  0  0  0  0  0  0
  181.6060  176.1470  139.7140 C   0  0  0  0  0  2  0  0  0  0  0  0
  180.3620  175.3590  139.3510 C   0  0  0  0  0  2  0  0  0  0  0  0
  178.9310  175.8730  141.1820 O   0  0  0  0  0  1  0  0  0  0  0  0
  179.6170  175.0030  140.5860 C   0  0  0  0  0  0  0  0  0  0  0  0
  179.7040  173.7150  141.1020 O   0  0  0  0  0  0  0  0  0  0  0  0
  182.2990  179.8490  138.7810 C   0  0  0  0  0  2  0  0  0  0  0  0
  181.0990  180.7810  138.8330 C   0  0  0  0  0  2  0  0  0  0  0  0
  181.0210  181.6070  137.5630 C   0  0  0  0  0  2  0  0  0  0  0  0
  180.1370  182.7430  137.7640 N   0  0  0  0  0  2  0  0  0  0  0  0
  181.9300  184.3630  137.2180 N   0  0  0  0  0  1  0  0  0  0  0  0
  180.5840  184.0880  137.5950 C   0  0  0  0  0  0  0  0  0  0  0  0
  179.7810  185.0380  137.7800 O   0  0  0  0  0  0  0  0  0  0  0  0
  1 10  1  0  0  0  0
  2  6  1  0  0  0  0
  4  1  2  0  0  0  0
  4 11  1  0  0  0  0
  5  3  1  0  0  0  0
  6  9  2  0  0  0  0
  7  2  1  0  0  0  0
  8 15  1  0  0  0  0
  8  3  2  0  0  0  0
 10  2  2  0  0  0  0
 10 15  1  0  0  0  0
 11  8  1  0  0  0  0
 12  5  2  0  0  0  0
 13 11  2  0  0  0  0
 13 12  1  0  0  0  0
 14  9  1  0  0  0  0
 15 14  2  0  0  0  0
 16 17  2  0  0  0  0
 17 18  1  0  0  0  0
 17 19  1  0  0  0  0
 18  4  1  0  0  0  0
 20 19  1  0  0  0  0
 20 22  1  0  0  0  0
 22 23  2  0  0  0  0
 22 21  1  0  0  0  0
 24 25  1  0  0  0  0
 24 18  1  0  0  0  0
 26 27  1  0  0  0  0
 26 25  1  0  0  0  0
 28 29  1  0  0  0  0
 29 27  1  0  0  0  0
 29 30  2  0  0  0  0
M  END
>  <MODEL>
8

>  <REMARK>
 VINA RESULT:      -8.5      5.147      9.356
  Name = 
  8 active torsions:
  status: ('A' for Active; 'I' for Inactive)
    1  A    between atoms: C_4  and  N_13
    2  A    between atoms: N_7  and  C_16
    3  A    between atoms: C_8  and  C_12
    4  A    between atoms: C_9  and  C_12
    5  A    between atoms: C_9  and  C_17
    6  A    between atoms: N_13  and  C_27
    7  A    between atoms: C_16  and  C_30
    8  A    between atoms: C_27  and  C_30
                            x       y       z     vdW  Elec       q    Type
                         _______ _______ _______ _____ _____    ______ ____

>  <TORSDO>
F 8

$$$$
=
 OpenBabel11052412303D

 30 32  0  0  0  0  0  0  0  0999 V2000
  184.5750  177.9240  141.6160 C   0  0  0  0  0  3  0  0  0  0  0  0
  185.7530  177.9580  143.7410 C   0  0  0  0  0  0  0  0  0  0  0  0
  181.1280  179.5320  143.4320 C   0  0  0  0  0  3  0  0  0  0  0  0
  183.4320  178.1580  140.8460 C   0  0  0  0  0  0  0  0  0  0  0  0
  179.9930  179.7930  142.6620 C   0  0  0  0  0  3  0  0  0  0  0  0
  185.7660  178.2360  145.1100 C   0  0  0  0  0  3  0  0  0  0  0  0
  186.8960  177.4350  143.1440 O   0  0  0  0  0  1  0  0  0  0  0  0
  182.2850  178.9910  142.8440 C   0  0  0  0  0  0  0  0  0  0  0  0
  184.6320  178.7610  145.7330 C   0  0  0  0  0  3  0  0  0  0  0  0
  184.5950  178.2050  142.9840 C   0  0  0  0  0  0  0  0  0  0  0  0
  182.2830  178.7020  141.4540 C   0  0  0  0  0  0  0  0  0  0  0  0
  179.9980  179.5180  141.2950 C   0  0  0  0  0  3  0  0  0  0  0  0
  181.1360  178.9780  140.6940 C   0  0  0  0  0  3  0  0  0  0  0  0
  183.4780  179.0110  144.9880 C   0  0  0  0  0  3  0  0  0  0  0  0
  183.4420  178.7380  143.6100 C   0  0  0  0  0  0  0  0  0  0  0  0
  182.7060  176.4550  137.6970 O   0  0  0  0  0  0  0  0  0  0  0  0
  182.7230  176.6910  138.9350 C   0  0  0  0  0  0  0  0  0  0  0  0
  183.4530  177.8240  139.4470 N   0  0  0  0  0  0  0  0  0  0  0  0
  182.0080  175.7540  139.8520 C   0  0  0  0  0  2  0  0  0  0  0  0
  180.5670  175.5910  139.4050 C   0  0  0  0  0  2  0  0  0  0  0  0
  179.4740  173.9110  140.6870 O   0  0  0  0  0  0  0  0  0  0  0  0
  179.7360  175.1330  140.5480 C   0  0  0  0  0  0  0  0  0  0  0  0
  179.2200  176.0600  141.4460 O   0  0  0  0  0  1  0  0  0  0  0  0
  184.3380  178.5750  138.5630 C   0  0  0  0  0  2  0  0  0  0  0  0
  185.2560  177.6260  137.8090 C   0  0  0  0  0  2  0  0  0  0  0  0
  186.6550  178.2060  137.7260 C   0  0  0  0  0  2  0  0  0  0  0  0
  187.1130  178.5850  139.0530 N   0  0  0  0  0  2  0  0  0  0  0  0
  189.1500  177.1880  138.8590 N   0  0  0  0  0  1  0  0  0  0  0  0
  188.3310  178.0860  139.6030 C   0  0  0  0  0  0  0  0  0  0  0  0
  188.6860  178.4440  140.7560 O   0  0  0  0  0  0  0  0  0  0  0  0
  1 10  1  0  0  0  0
  2  6  1  0  0  0  0
  4 11  1  0  0  0  0
  4  1  2  0  0  0  0
  5  3  2  0  0  0  0
  6  9  2  0  0  0  0
  7  2  1  0  0  0  0
  8  3  1  0  0  0  0
  8 15  1  0  0  0  0
 10 15  1  0  0  0  0
 10  2  2  0  0  0  0
 11  8  2  0  0  0  0
 12  5  1  0  0  0  0
 13 12  2  0  0  0  0
 13 11  1  0  0  0  0
 14  9  1  0  0  0  0
 15 14  2  0  0  0  0
 16 17  2  0  0  0  0
 17 18  1  0  0  0  0
 17 19  1  0  0  0  0
 18  4  1  0  0  0  0
 20 19  1  0  0  0  0
 20 22  1  0  0  0  0
 22 21  2  0  0  0  0
 22 23  1  0  0  0  0
 24 18  1  0  0  0  0
 25 24  1  0  0  0  0
 26 25  1  0  0  0  0
 26 27  1  0  0  0  0
 27 29  1  0  0  0  0
 28 29  1  0  0  0  0
 29 30  2  0  0  0  0
M  END
>  <MODEL>
9

>  <REMARK>
 VINA RESULT:      -8.4      3.815      6.972
  Name = 
  8 active torsions:
  status: ('A' for Active; 'I' for Inactive)
    1  A    between atoms: C_4  and  N_13
    2  A    between atoms: N_7  and  C_16
    3  A    between atoms: C_8  and  C_12
    4  A    between atoms: C_9  and  C_12
    5  A    between atoms: C_9  and  C_17
    6  A    between atoms: N_13  and  C_27
    7  A    between atoms: C_16  and  C_30
    8  A    between atoms: C_27  and  C_30
                            x       y       z     vdW  Elec       q    Type
                         _______ _______ _______ _____ _____    ______ ____

>  <TORSDO>
F 8

$$$$
