=
 OpenBabel11052413163D

 31 34  0  0  1  0  0  0  0  0999 V2000
  189.4650  176.7630  147.3190 C   0  0  0  0  0  3  0  0  0  0  0  0
  187.6730  177.7450  144.0480 C   0  0  0  0  0  0  0  0  0  0  0  0
  186.3970  178.0380  144.5200 C   0  0  0  0  0  0  0  0  0  0  0  0
  184.8380  178.3850  146.3940 C   0  0  0  0  0  3  0  0  0  0  0  0
  188.8100  177.3860  144.8900 C   0  0  0  0  0  0  0  0  0  0  0  0
  191.6880  176.7020  146.2100 C   0  0  0  0  0  3  0  0  0  0  0  0
  186.0910  178.0400  145.8970 C   0  0  0  0  0  3  0  0  0  0  0  0
  189.1820  177.6930  142.1010 C   0  0  0  0  0  0  0  0  0  0  0  0
  190.7730  176.5740  147.3340 C   0  0  0  0  0  3  0  0  0  0  0  0
  185.5050  178.4380  142.3180 C   0  0  0  0  0  3  0  0  0  0  0  0
  183.8290  178.7560  145.5190 C   0  0  0  0  0  3  0  0  0  0  0  0
  190.2510  177.4300  142.9290 C   0  0  0  0  0  3  0  0  0  0  0  0
  187.8980  177.8390  142.6390 C   0  0  0  0  0  0  0  0  0  0  0  0
  188.6040  177.1460  146.1970 C   0  0  0  0  0  3  0  0  0  0  0  0
  182.7320  179.2620  143.1020 Cl  0  0  0  0  0  0  0  0  0  0  0  0
  190.1010  177.2650  144.2970 C   0  0  0  0  0  0  0  0  0  0  0  0
  191.3910  176.9880  144.9500 C   0  0  0  0  0  3  0  0  0  0  0  0
  186.7660  178.0100  141.6670 C   0  0  0  0  0  3  0  0  0  0  0  0
  185.3330  178.4150  143.6370 C   0  0  0  0  0  0  0  0  0  0  0  0
  184.0660  178.7790  144.1490 C   0  0  2  0  0  3  0  0  0  0  0  0
  189.4490  177.8320  140.6320 C   0  0  0  0  0  2  0  0  0  0  0  0
  191.8590  177.4570  140.0510 C   0  0  0  0  0  1  0  0  0  0  0  0
  190.4880  176.8130  140.1660 C   0  0  2  0  0  3  0  0  0  0  0  0
  190.9030  175.0510  138.5770 O   0  0  0  0  0  1  0  0  0  0  0  0
  190.0960  176.1630  138.8380 C   0  0  2  0  0  3  0  0  0  0  0  0
  191.1220  176.7400  136.7370 O   0  0  0  0  0  1  0  0  0  0  0  0
  190.1740  177.1570  137.6750 C   0  0  1  0  0  3  0  0  0  0  0  0
  188.8190  177.3740  136.9970 C   0  0  0  0  0  2  0  0  0  0  0  0
  188.2440  178.7230  137.2830 C   0  0  0  0  0  0  0  0  0  0  0  0
  189.0030  179.6840  137.5710 O   0  0  0  0  0  1  0  0  0  0  0  0
  186.8730  178.9240  137.2030 O   0  0  0  0  0  0  0  0  0  0  0  0
  1  9  1  0  0  0  0
  2  3  1  0  0  0  0
  2  5  2  0  0  0  0
  3  7  2  0  0  0  0
  5 14  1  0  0  0  0
  6  9  2  0  0  0  0
  7  4  1  0  0  0  0
  8 13  1  0  0  0  0
  8 12  2  0  0  0  0
 10 19  2  0  0  0  0
 11  4  2  0  0  0  0
 12 16  1  0  0  0  0
 13  2  1  0  0  0  0
 14  1  2  0  0  0  0
 16  5  1  0  0  0  0
 16 17  2  0  0  0  0
 17  6  1  0  0  0  0
 18 10  1  0  0  0  0
 18 13  2  0  0  0  0
 19 20  1  0  0  0  0
 19  3  1  0  0  0  0
 20 15  1  6  0  0  0
 20 11  1  0  0  0  0
 21  8  1  0  0  0  0
 23 22  1  6  0  0  0
 23 21  1  0  0  0  0
 25 24  1  6  0  0  0
 25 23  1  0  0  0  0
 27 26  1  6  0  0  0
 27 25  1  0  0  0  0
 28 29  1  0  0  0  0
 28 27  1  0  0  0  0
 29 30  1  0  0  0  0
 31 29  2  0  0  0  0
M  END
>  <MODEL>
1

>  <REMARK>
 VINA RESULT:     -10.8      0.000      0.000
  Name = 
  6 active torsions:
  status: ('A' for Active; 'I' for Inactive)
    1  A    between atoms: C_1  and  C_24
    2  A    between atoms: C_9  and  C_22
    3  A    between atoms: C_9  and  C_23
    4  A    between atoms: C_15  and  C_23
    5  A    between atoms: C_19  and  C_22
    6  A    between atoms: C_19  and  C_24
                            x       y       z     vdW  Elec       q    Type
                         _______ _______ _______ _____ _____    ______ ____

>  <TORSDO>
F 6

$$$$
=
 OpenBabel11052413163D

 31 34  0  0  1  0  0  0  0  0999 V2000
  184.0640  178.6010  145.3720 C   0  0  0  0  0  3  0  0  0  0  0  0
  187.6430  178.0410  144.0490 C   0  0  0  0  0  0  0  0  0  0  0  0
  188.2960  177.6350  145.2080 C   0  0  0  0  0  0  0  0  0  0  0  0
  188.2280  176.9570  147.5740 C   0  0  0  0  0  3  0  0  0  0  0  0
  186.2130  178.3170  143.9520 C   0  0  0  0  0  0  0  0  0  0  0  0
  183.1490  178.9090  143.0830 C   0  0  0  0  0  3  0  0  0  0  0  0
  187.6060  177.4180  146.4190 C   0  0  0  0  0  3  0  0  0  0  0  0
  187.8170  178.4360  141.6230 C   0  0  0  0  0  0  0  0  0  0  0  0
  183.0700  178.8360  144.5340 C   0  0  0  0  0  3  0  0  0  0  0  0
  190.4540  177.5270  144.1410 C   0  0  0  0  0  3  0  0  0  0  0  0
  189.5870  176.6800  147.5600 C   0  0  0  0  0  3  0  0  0  0  0  0
  186.4530  178.6160  141.5480 C   0  0  0  0  0  3  0  0  0  0  0  0
  188.4220  178.1640  142.8550 C   0  0  0  0  0  0  0  0  0  0  0  0
  185.4780  178.3550  145.0770 C   0  0  0  0  0  3  0  0  0  0  0  0
  192.0470  176.4920  146.4590 Cl  0  0  0  0  0  0  0  0  0  0  0  0
  185.6420  178.5720  142.6700 C   0  0  0  0  0  0  0  0  0  0  0  0
  184.2290  178.8000  142.3230 C   0  0  0  0  0  3  0  0  0  0  0  0
  189.9220  178.0940  142.8800 C   0  0  0  0  0  2  0  0  0  0  0  0
  189.7010  177.3500  145.2250 C   0  0  0  0  0  0  0  0  0  0  0  0
  190.3250  176.8670  146.3970 C   0  0  0  0  0  0  0  0  0  0  0  0
  188.6070  178.5240  140.3520 C   0  0  0  0  0  2  0  0  0  0  0  0
  190.0470  176.5840  139.6810 C   0  0  0  0  0  1  0  0  0  0  0  0
  188.6480  177.1740  139.6380 C   0  0  2  0  0  3  0  0  0  0  0  0
  189.2330  177.5420  137.3300 O   0  0  0  0  0  1  0  0  0  0  0  0
  188.1620  177.2770  138.1910 C   0  0  2  0  0  3  0  0  0  0  0  0
  187.3830  179.1990  136.9670 O   0  0  0  0  0  1  0  0  0  0  0  0
  187.0780  178.3470  138.0320 C   0  0  1  0  0  3  0  0  0  0  0  0
  185.6830  177.7450  137.8440 C   0  0  0  0  0  2  0  0  0  0  0  0
  184.6260  178.5080  138.5750 C   0  0  0  0  0  0  0  0  0  0  0  0
  183.5660  177.9310  138.9320 O   0  0  0  0  0  1  0  0  0  0  0  0
  184.8250  179.8450  138.8860 O   0  0  0  0  0  0  0  0  0  0  0  0
  2  3  2  0  0  0  0
  3 19  1  0  0  0  0
  3  7  1  0  0  0  0
  5  2  1  0  0  0  0
  5 14  2  0  0  0  0
  6  9  1  0  0  0  0
  7  4  2  0  0  0  0
  8 13  2  0  0  0  0
  9  1  2  0  0  0  0
 10 19  2  0  0  0  0
 11  4  1  0  0  0  0
 12  8  1  0  0  0  0
 12 16  2  0  0  0  0
 13 18  1  0  0  0  0
 13  2  1  0  0  0  0
 14  1  1  0  0  0  0
 16  5  1  0  0  0  0
 17 16  1  0  0  0  0
 17  6  2  0  0  0  0
 18 10  1  0  0  0  0
 19 20  1  0  0  0  0
 20 15  1  0  0  0  0
 20 11  2  0  0  0  0
 21  8  1  0  0  0  0
 23 22  1  6  0  0  0
 23 21  1  0  0  0  0
 25 24  1  6  0  0  0
 25 23  1  0  0  0  0
 27 26  1  6  0  0  0
 27 25  1  0  0  0  0
 28 27  1  0  0  0  0
 28 29  1  0  0  0  0
 29 31  2  0  0  0  0
 29 30  1  0  0  0  0
M  END
>  <MODEL>
2

>  <REMARK>
 VINA RESULT:     -10.6      2.400      4.847
  Name = 
  6 active torsions:
  status: ('A' for Active; 'I' for Inactive)
    1  A    between atoms: C_1  and  C_24
    2  A    between atoms: C_9  and  C_22
    3  A    between atoms: C_9  and  C_23
    4  A    between atoms: C_15  and  C_23
    5  A    between atoms: C_19  and  C_22
    6  A    between atoms: C_19  and  C_24
                            x       y       z     vdW  Elec       q    Type
                         _______ _______ _______ _____ _____    ______ ____

>  <TORSDO>
F 6

$$$$
=
 OpenBabel11052413163D

 31 34  0  0  1  0  0  0  0  0999 V2000
  189.5350  176.7500  147.3590 C   0  0  0  0  0  3  0  0  0  0  0  0
  187.6300  177.7620  144.1620 C   0  0  0  0  0  0  0  0  0  0  0  0
  186.3700  178.0460  144.6810 C   0  0  0  0  0  0  0  0  0  0  0  0
  184.8750  178.3700  146.6100 C   0  0  0  0  0  3  0  0  0  0  0  0
  188.7960  177.3970  144.9610 C   0  0  0  0  0  0  0  0  0  0  0  0
  191.7190  176.7070  146.1750 C   0  0  0  0  0  3  0  0  0  0  0  0
  186.1110  178.0330  146.0670 C   0  0  0  0  0  3  0  0  0  0  0  0
  189.0710  177.7350  142.1650 C   0  0  0  0  0  0  0  0  0  0  0  0
  190.8430  176.5640  147.3280 C   0  0  0  0  0  3  0  0  0  0  0  0
  185.4030  178.4680  142.5150 C   0  0  0  0  0  3  0  0  0  0  0  0
  183.8360  178.7470  145.7750 C   0  0  0  0  0  3  0  0  0  0  0  0
  190.1690  177.4660  142.9530 C   0  0  0  0  0  3  0  0  0  0  0  0
  187.8070  177.8710  142.7480 C   0  0  0  0  0  0  0  0  0  0  0  0
  188.6350  177.1420  146.2720 C   0  0  0  0  0  3  0  0  0  0  0  0
  182.6560  179.2770  143.4020 Cl  0  0  0  0  0  0  0  0  0  0  0  0
  190.0660  177.2860  144.3230 C   0  0  0  0  0  0  0  0  0  0  0  0
  191.3780  177.0050  144.9300 C   0  0  0  0  0  3  0  0  0  0  0  0
  186.6410  178.0500  141.8170 C   0  0  0  0  0  3  0  0  0  0  0  0
  185.2750  178.4300  143.8390 C   0  0  0  0  0  0  0  0  0  0  0  0
  184.0260  178.7860  144.3980 C   0  0  2  0  0  3  0  0  0  0  0  0
  189.2880  177.8900  140.6900 C   0  0  0  0  0  2  0  0  0  0  0  0
  191.7540  177.4680  140.5300 C   0  0  0  0  0  1  0  0  0  0  0  0
  190.3730  176.9360  140.1920 C   0  0  2  0  0  3  0  0  0  0  0  0
  188.9740  176.2340  138.3600 O   0  0  0  0  0  1  0  0  0  0  0  0
  190.2600  176.6760  138.6890 C   0  0  2  0  0  3  0  0  0  0  0  0
  190.7100  174.4260  137.9570 O   0  0  0  0  0  1  0  0  0  0  0  0
  191.3050  175.6650  138.2080 C   0  0  1  0  0  3  0  0  0  0  0  0
  192.0620  176.1470  136.9680 C   0  0  0  0  0  2  0  0  0  0  0  0
  193.5320  176.2730  137.2060 C   0  0  0  0  0  0  0  0  0  0  0  0
  194.2830  176.7050  136.2930 O   0  0  0  0  0  0  0  0  0  0  0  0
  194.0670  175.9400  138.4420 O   0  0  0  0  0  1  0  0  0  0  0  0
  2  3  1  0  0  0  0
  2  5  2  0  0  0  0
  3  7  2  0  0  0  0
  5 14  1  0  0  0  0
  6  9  2  0  0  0  0
  7  4  1  0  0  0  0
  8 13  1  0  0  0  0
  8 12  2  0  0  0  0
  9  1  1  0  0  0  0
 10 19  2  0  0  0  0
 11  4  2  0  0  0  0
 12 16  1  0  0  0  0
 13  2  1  0  0  0  0
 14  1  2  0  0  0  0
 16 17  2  0  0  0  0
 16  5  1  0  0  0  0
 17  6  1  0  0  0  0
 18 10  1  0  0  0  0
 18 13  2  0  0  0  0
 19 20  1  0  0  0  0
 19  3  1  0  0  0  0
 20 15  1  6  0  0  0
 20 11  1  0  0  0  0
 21  8  1  0  0  0  0
 23 22  1  6  0  0  0
 23 21  1  0  0  0  0
 25 24  1  1  0  0  0
 25 23  1  0  0  0  0
 27 26  1  6  0  0  0
 27 25  1  0  0  0  0
 28 29  1  0  0  0  0
 28 27  1  0  0  0  0
 29 31  1  0  0  0  0
 30 29  2  0  0  0  0
M  END
>  <MODEL>
3

>  <REMARK>
 VINA RESULT:     -10.5      1.288      2.298
  Name = 
  6 active torsions:
  status: ('A' for Active; 'I' for Inactive)
    1  A    between atoms: C_1  and  C_24
    2  A    between atoms: C_9  and  C_22
    3  A    between atoms: C_9  and  C_23
    4  A    between atoms: C_15  and  C_23
    5  A    between atoms: C_19  and  C_22
    6  A    between atoms: C_19  and  C_24
                            x       y       z     vdW  Elec       q    Type
                         _______ _______ _______ _____ _____    ______ ____

>  <TORSDO>
F 6

$$$$
=
 OpenBabel11052413163D

 31 34  0  0  1  0  0  0  0  0999 V2000
  184.1280  178.6600  144.5370 C   0  0  0  0  0  3  0  0  0  0  0  0
  187.8630  177.9930  143.8430 C   0  0  0  0  0  0  0  0  0  0  0  0
  188.3190  177.6730  145.1180 C   0  0  0  0  0  0  0  0  0  0  0  0
  187.8690  177.1760  147.4870 C   0  0  0  0  0  3  0  0  0  0  0  0
  186.4700  178.2640  143.5000 C   0  0  0  0  0  0  0  0  0  0  0  0
  183.5900  178.7960  142.1160 C   0  0  0  0  0  3  0  0  0  0  0  0
  187.4430  177.5510  146.2170 C   0  0  0  0  0  3  0  0  0  0  0  0
  188.4230  178.2030  141.4530 C   0  0  0  0  0  0  0  0  0  0  0  0
  183.2820  178.8320  143.5370 C   0  0  0  0  0  3  0  0  0  0  0  0
  190.6160  177.4810  144.4180 C   0  0  0  0  0  3  0  0  0  0  0  0
  189.2080  176.8960  147.7090 C   0  0  0  0  0  3  0  0  0  0  0  0
  187.0910  178.3800  141.1500 C   0  0  0  0  0  3  0  0  0  0  0  0
  188.8220  178.0240  142.7830 C   0  0  0  0  0  0  0  0  0  0  0  0
  185.5670  178.3880  144.4890 C   0  0  0  0  0  3  0  0  0  0  0  0
  191.8090  176.6200  147.0290 Cl  0  0  0  0  0  0  0  0  0  0  0  0
  186.1120  178.4230  142.1300 C   0  0  0  0  0  0  0  0  0  0  0  0
  184.7750  178.6270  141.5460 C   0  0  0  0  0  3  0  0  0  0  0  0
  190.2990  177.9530  143.0490 C   0  0  0  0  0  2  0  0  0  0  0  0
  189.6990  177.3880  145.3780 C   0  0  0  0  0  0  0  0  0  0  0  0
  190.1240  176.9930  146.6670 C   0  0  0  0  0  0  0  0  0  0  0  0
  189.4060  178.1930  140.3210 C   0  0  0  0  0  2  0  0  0  0  0  0
  190.0580  176.2240  138.9120 C   0  0  0  0  0  1  0  0  0  0  0  0
  188.9630  177.2300  139.2200 C   0  0  2  0  0  3  0  0  0  0  0  0
  188.7990  179.3390  138.0680 O   0  0  0  0  0  1  0  0  0  0  0  0
  188.5500  177.9680  137.9450 C   0  0  2  0  0  3  0  0  0  0  0  0
  186.3380  178.9030  137.7620 O   0  0  0  0  0  1  0  0  0  0  0  0
  187.0770  177.7270  137.6020 C   0  0  1  0  0  3  0  0  0  0  0  0
  186.8870  177.1720  136.1880 C   0  0  0  0  0  2  0  0  0  0  0  0
  186.5390  175.7190  136.1840 C   0  0  0  0  0  0  0  0  0  0  0  0
  185.9160  175.2230  135.2090 O   0  0  0  0  0  0  0  0  0  0  0  0
  186.9260  174.9090  137.2420 O   0  0  0  0  0  1  0  0  0  0  0  0
  2  3  2  0  0  0  0
  3 19  1  0  0  0  0
  3  7  1  0  0  0  0
  4 11  1  0  0  0  0
  5  2  1  0  0  0  0
  5 14  2  0  0  0  0
  6  9  1  0  0  0  0
  7  4  2  0  0  0  0
  8 13  2  0  0  0  0
  9  1  2  0  0  0  0
 10 19  2  0  0  0  0
 12  8  1  0  0  0  0
 12 16  2  0  0  0  0
 13 18  1  0  0  0  0
 13  2  1  0  0  0  0
 14  1  1  0  0  0  0
 16  5  1  0  0  0  0
 17  6  2  0  0  0  0
 17 16  1  0  0  0  0
 18 10  1  0  0  0  0
 19 20  1  0  0  0  0
 20 15  1  0  0  0  0
 20 11  2  0  0  0  0
 21  8  1  0  0  0  0
 23 22  1  6  0  0  0
 23 21  1  0  0  0  0
 25 24  1  1  0  0  0
 25 23  1  0  0  0  0
 27 26  1  6  0  0  0
 27 25  1  0  0  0  0
 28 27  1  0  0  0  0
 29 28  1  0  0  0  0
 29 31  1  0  0  0  0
 30 29  2  0  0  0  0
M  END
>  <MODEL>
4

>  <REMARK>
 VINA RESULT:     -10.0      2.395      4.893
  Name = 
  6 active torsions:
  status: ('A' for Active; 'I' for Inactive)
    1  A    between atoms: C_1  and  C_24
    2  A    between atoms: C_9  and  C_22
    3  A    between atoms: C_9  and  C_23
    4  A    between atoms: C_15  and  C_23
    5  A    between atoms: C_19  and  C_22
    6  A    between atoms: C_19  and  C_24
                            x       y       z     vdW  Elec       q    Type
                         _______ _______ _______ _____ _____    ______ ____

>  <TORSDO>
F 6

$$$$
=
 OpenBabel11052413163D

 31 34  0  0  1  0  0  0  0  0999 V2000
  189.5560  176.7650  146.9610 C   0  0  0  0  0  3  0  0  0  0  0  0
  187.4720  177.9680  143.9460 C   0  0  0  0  0  0  0  0  0  0  0  0
  186.2310  178.1700  144.5430 C   0  0  0  0  0  0  0  0  0  0  0  0
  184.8220  178.2910  146.5580 C   0  0  0  0  0  3  0  0  0  0  0  0
  188.6850  177.5770  144.6590 C   0  0  0  0  0  0  0  0  0  0  0  0
  191.6800  176.8850  145.6790 C   0  0  0  0  0  3  0  0  0  0  0  0
  186.0390  178.0380  145.9340 C   0  0  0  0  0  3  0  0  0  0  0  0
  188.8160  178.1460  141.8890 C   0  0  0  0  0  0  0  0  0  0  0  0
  190.8650  176.6240  146.8550 C   0  0  0  0  0  3  0  0  0  0  0  0
  185.1500  178.7320  142.4640 C   0  0  0  0  0  3  0  0  0  0  0  0
  183.7340  178.7000  145.8040 C   0  0  0  0  0  3  0  0  0  0  0  0
  189.9570  177.8490  142.6030 C   0  0  0  0  0  3  0  0  0  0  0  0
  187.5780  178.1950  142.5380 C   0  0  0  0  0  0  0  0  0  0  0  0
  188.5940  177.2140  145.9500 C   0  0  0  0  0  3  0  0  0  0  0  0
  182.4270  179.3790  143.5380 Cl  0  0  0  0  0  0  0  0  0  0  0  0
  189.9250  177.5580  143.9570 C   0  0  0  0  0  0  0  0  0  0  0  0
  191.2720  177.2710  144.4780 C   0  0  0  0  0  3  0  0  0  0  0  0
  186.3640  178.4100  141.6790 C   0  0  0  0  0  3  0  0  0  0  0  0
  185.0870  178.5840  143.7860 C   0  0  0  0  0  0  0  0  0  0  0  0
  183.8560  178.8550  144.4270 C   0  0  2  0  0  3  0  0  0  0  0  0
  188.9580  178.4250  140.4230 C   0  0  0  0  0  2  0  0  0  0  0  0
  190.5700  176.6500  139.6890 C   0  0  0  0  0  1  0  0  0  0  0  0
  189.1290  177.1280  139.6330 C   0  0  2  0  0  3  0  0  0  0  0  0
  187.8320  178.3850  138.0390 O   0  0  0  0  0  1  0  0  0  0  0  0
  188.6800  177.2810  138.1790 C   0  0  2  0  0  3  0  0  0  0  0  0
  186.7120  176.3150  137.1800 O   0  0  0  0  0  1  0  0  0  0  0  0
  187.9890  176.0150  137.6630 C   0  0  1  0  0  3  0  0  0  0  0  0
  188.8060  175.2980  136.5850 C   0  0  0  0  0  2  0  0  0  0  0  0
  189.3280  173.9760  137.0450 C   0  0  0  0  0  0  0  0  0  0  0  0
  190.4740  173.8950  137.5590 O   0  0  0  0  0  1  0  0  0  0  0  0
  188.5390  172.8400  136.9320 O   0  0  0  0  0  0  0  0  0  0  0  0
  2  3  1  0  0  0  0
  2  5  2  0  0  0  0
  3  7  2  0  0  0  0
  5 14  1  0  0  0  0
  6  9  2  0  0  0  0
  7  4  1  0  0  0  0
  8 13  1  0  0  0  0
  8 12  2  0  0  0  0
  9  1  1  0  0  0  0
 10 19  2  0  0  0  0
 11  4  2  0  0  0  0
 12 16  1  0  0  0  0
 13  2  1  0  0  0  0
 14  1  2  0  0  0  0
 16 17  2  0  0  0  0
 16  5  1  0  0  0  0
 17  6  1  0  0  0  0
 18 10  1  0  0  0  0
 18 13  2  0  0  0  0
 19 20  1  0  0  0  0
 19  3  1  0  0  0  0
 20 15  1  6  0  0  0
 20 11  1  0  0  0  0
 21  8  1  0  0  0  0
 23 22  1  6  0  0  0
 23 21  1  0  0  0  0
 25 24  1  1  0  0  0
 25 23  1  0  0  0  0
 27 26  1  6  0  0  0
 27 25  1  0  0  0  0
 28 29  1  0  0  0  0
 28 27  1  0  0  0  0
 29 30  1  0  0  0  0
 31 29  2  0  0  0  0
M  END
>  <MODEL>
5

>  <REMARK>
 VINA RESULT:     -10.0      1.247      2.295
  Name = 
  6 active torsions:
  status: ('A' for Active; 'I' for Inactive)
    1  A    between atoms: C_1  and  C_24
    2  A    between atoms: C_9  and  C_22
    3  A    between atoms: C_9  and  C_23
    4  A    between atoms: C_15  and  C_23
    5  A    between atoms: C_19  and  C_22
    6  A    between atoms: C_19  and  C_24
                            x       y       z     vdW  Elec       q    Type
                         _______ _______ _______ _____ _____    ______ ____

>  <TORSDO>
F 6

$$$$
=
 OpenBabel11052413163D

 31 34  0  0  1  0  0  0  0  0999 V2000
  184.1880  178.8340  145.0330 C   0  0  0  0  0  3  0  0  0  0  0  0
  187.7920  177.8550  144.0710 C   0  0  0  0  0  0  0  0  0  0  0  0
  188.3400  177.5890  145.3220 C   0  0  0  0  0  0  0  0  0  0  0  0
  188.0750  177.2860  147.7510 C   0  0  0  0  0  3  0  0  0  0  0  0
  186.3940  178.2020  143.8300 C   0  0  0  0  0  0  0  0  0  0  0  0
  183.4420  178.8460  142.6630 C   0  0  0  0  0  3  0  0  0  0  0  0
  187.5610  177.6040  146.4980 C   0  0  0  0  0  3  0  0  0  0  0  0
  188.1450  177.8630  141.6330 C   0  0  0  0  0  0  0  0  0  0  0  0
  183.2680  179.0000  144.0990 C   0  0  0  0  0  3  0  0  0  0  0  0
  190.5460  177.1850  144.4420 C   0  0  0  0  0  3  0  0  0  0  0  0
  189.4070  176.9250  147.8770 C   0  0  0  0  0  3  0  0  0  0  0  0
  186.8050  178.1150  141.4330 C   0  0  0  0  0  3  0  0  0  0  0  0
  188.6500  177.7450  142.9320 C   0  0  0  0  0  0  0  0  0  0  0  0
  185.5950  178.4570  144.8810 C   0  0  0  0  0  3  0  0  0  0  0  0
  191.9120  176.4160  146.9980 Cl  0  0  0  0  0  0  0  0  0  0  0  0
  185.9240  178.2940  142.4870 C   0  0  0  0  0  0  0  0  0  0  0  0
  184.5570  178.5550  142.0080 C   0  0  0  0  0  3  0  0  0  0  0  0
  190.1370  177.5850  143.0760 C   0  0  0  0  0  2  0  0  0  0  0  0
  189.7160  177.2230  145.4820 C   0  0  0  0  0  0  0  0  0  0  0  0
  190.2290  176.8850  146.7560 C   0  0  0  0  0  0  0  0  0  0  0  0
  189.0170  177.7060  140.4230 C   0  0  0  0  0  2  0  0  0  0  0  0
  187.3600  177.0590  138.6570 C   0  0  0  0  0  1  0  0  0  0  0  0
  188.2860  178.1530  139.1590 C   0  0  2  0  0  3  0  0  0  0  0  0
  188.8690  179.7930  137.4930 O   0  0  0  0  0  1  0  0  0  0  0  0
  189.2570  178.5720  138.0530 C   0  0  2  0  0  3  0  0  0  0  0  0
  189.1570  178.0640  135.7010 O   0  0  0  0  0  1  0  0  0  0  0  0
  189.3700  177.5020  136.9630 C   0  0  1  0  0  3  0  0  0  0  0  0
  190.7150  176.7720  136.9950 C   0  0  0  0  0  2  0  0  0  0  0  0
  190.7020  175.5820  137.8990 C   0  0  0  0  0  0  0  0  0  0  0  0
  191.3240  175.6150  138.9930 O   0  0  0  0  0  1  0  0  0  0  0  0
  189.9800  174.4510  137.5480 O   0  0  0  0  0  0  0  0  0  0  0  0
  2  3  2  0  0  0  0
  3 19  1  0  0  0  0
  3  7  1  0  0  0  0
  4 11  1  0  0  0  0
  5  2  1  0  0  0  0
  5 14  2  0  0  0  0
  6  9  1  0  0  0  0
  7  4  2  0  0  0  0
  8 13  2  0  0  0  0
  9  1  2  0  0  0  0
 10 19  2  0  0  0  0
 12  8  1  0  0  0  0
 12 16  2  0  0  0  0
 13 18  1  0  0  0  0
 13  2  1  0  0  0  0
 14  1  1  0  0  0  0
 16  5  1  0  0  0  0
 17 16  1  0  0  0  0
 17  6  2  0  0  0  0
 18 10  1  0  0  0  0
 19 20  1  0  0  0  0
 20 15  1  0  0  0  0
 20 11  2  0  0  0  0
 21  8  1  0  0  0  0
 23 22  1  6  0  0  0
 23 21  1  0  0  0  0
 25 24  1  6  0  0  0
 25 23  1  0  0  0  0
 27 26  1  6  0  0  0
 27 28  1  0  0  0  0
 27 25  1  0  0  0  0
 28 29  1  0  0  0  0
 29 30  1  0  0  0  0
 31 29  2  0  0  0  0
M  END
>  <MODEL>
6

>  <REMARK>
 VINA RESULT:     -10.0      2.203      4.901
  Name = 
  6 active torsions:
  status: ('A' for Active; 'I' for Inactive)
    1  A    between atoms: C_1  and  C_24
    2  A    between atoms: C_9  and  C_22
    3  A    between atoms: C_9  and  C_23
    4  A    between atoms: C_15  and  C_23
    5  A    between atoms: C_19  and  C_22
    6  A    between atoms: C_19  and  C_24
                            x       y       z     vdW  Elec       q    Type
                         _______ _______ _______ _____ _____    ______ ____

>  <TORSDO>
F 6

$$$$
=
 OpenBabel11052413163D

 31 34  0  0  1  0  0  0  0  0999 V2000
  183.4680  178.8390  143.7830 C   0  0  0  0  0  3  0  0  0  0  0  0
  186.7590  178.0290  141.9420 C   0  0  0  0  0  0  0  0  0  0  0  0
  186.3940  178.2770  140.6220 C   0  0  0  0  0  0  0  0  0  0  0  0
  184.7700  179.1200  138.9750 C   0  0  0  0  0  3  0  0  0  0  0  0
  185.8980  178.2550  143.1000 C   0  0  0  0  0  0  0  0  0  0  0  0
  184.5510  178.6860  146.0140 C   0  0  0  0  0  3  0  0  0  0  0  0
  185.1340  178.8110  140.2820 C   0  0  0  0  0  3  0  0  0  0  0  0
  188.5710  177.4100  143.4920 C   0  0  0  0  0  0  0  0  0  0  0  0
  183.4360  178.8950  145.1030 C   0  0  0  0  0  3  0  0  0  0  0  0
  188.5150  177.5520  139.7380 C   0  0  0  0  0  3  0  0  0  0  0  0
  185.6710  178.9100  137.9420 C   0  0  0  0  0  3  0  0  0  0  0  0
  187.7610  177.7050  144.5670 C   0  0  0  0  0  3  0  0  0  0  0  0
  188.0850  177.5530  142.1880 C   0  0  0  0  0  0  0  0  0  0  0  0
  184.6040  178.5610  142.9010 C   0  0  0  0  0  3  0  0  0  0  0  0
  188.0210  178.1550  136.8430 Cl  0  0  0  0  0  0  0  0  0  0  0  0
  186.4460  178.1120  144.4090 C   0  0  0  0  0  0  0  0  0  0  0  0
  185.7980  178.3570  145.7080 C   0  0  0  0  0  3  0  0  0  0  0  0
  188.9830  177.1050  141.0710 C   0  0  0  0  0  3  0  0  0  0  0  0
  187.3020  178.0610  139.5350 C   0  0  0  0  0  0  0  0  0  0  0  0
  186.9320  178.3910  138.2100 C   0  0  2  0  0  3  0  0  0  0  0  0
  189.9720  176.9570  143.7730 C   0  0  0  0  0  2  0  0  0  0  0  0
  191.3870  179.0010  144.0960 C   0  0  0  0  0  1  0  0  0  0  0  0
  190.6500  177.8710  144.7930 C   0  0  2  0  0  3  0  0  0  0  0  0
  191.9520  175.8730  145.1320 O   0  0  0  0  0  1  0  0  0  0  0  0
  191.6050  177.1010  145.7060 C   0  0  2  0  0  3  0  0  0  0  0  0
  192.0170  176.7860  148.0580 O   0  0  0  0  0  1  0  0  0  0  0  0
  191.0050  176.8830  147.0990 C   0  0  1  0  0  3  0  0  0  0  0  0
  190.0120  177.9800  147.4880 C   0  0  0  0  0  2  0  0  0  0  0  0
  188.7490  177.4310  148.0690 C   0  0  0  0  0  0  0  0  0  0  0  0
  188.3610  176.2760  147.7540 O   0  0  0  0  0  0  0  0  0  0  0  0
  188.0180  178.1840  148.9780 O   0  0  0  0  0  1  0  0  0  0  0  0
  1  9  1  0  0  0  0
  2 13  1  0  0  0  0
  2  5  2  0  0  0  0
  3  2  1  0  0  0  0
  4  7  1  0  0  0  0
  5 16  1  0  0  0  0
  7  3  2  0  0  0  0
  8 21  1  0  0  0  0
  8 12  2  0  0  0  0
  9  6  2  0  0  0  0
 10 18  1  0  0  0  0
 11 20  1  0  0  0  0
 11  4  2  0  0  0  0
 13  8  1  0  0  0  0
 14  5  1  0  0  0  0
 14  1  2  0  0  0  0
 16 12  1  0  0  0  0
 16 17  2  0  0  0  0
 17  6  1  0  0  0  0
 18 13  2  0  0  0  0
 19 10  2  0  0  0  0
 19  3  1  0  0  0  0
 20 15  1  6  0  0  0
 20 19  1  0  0  0  0
 21 23  1  0  0  0  0
 23 22  1  6  0  0  0
 23 25  1  0  0  0  0
 25 24  1  6  0  0  0
 25 27  1  0  0  0  0
 27 28  1  0  0  0  0
 27 26  1  1  0  0  0
 28 29  1  0  0  0  0
 29 31  1  0  0  0  0
 30 29  2  0  0  0  0
M  END
>  <MODEL>
7

>  <REMARK>
 VINA RESULT:      -9.9      3.918      6.840
  Name = 
  6 active torsions:
  status: ('A' for Active; 'I' for Inactive)
    1  A    between atoms: C_1  and  C_24
    2  A    between atoms: C_9  and  C_22
    3  A    between atoms: C_9  and  C_23
    4  A    between atoms: C_15  and  C_23
    5  A    between atoms: C_19  and  C_22
    6  A    between atoms: C_19  and  C_24
                            x       y       z     vdW  Elec       q    Type
                         _______ _______ _______ _____ _____    ______ ____

>  <TORSDO>
F 6

$$$$
=
 OpenBabel11052413163D

 31 34  0  0  1  0  0  0  0  0999 V2000
  187.0870  177.4930  146.8070 C   0  0  0  0  0  3  0  0  0  0  0  0
  186.4080  178.1920  143.0750 C   0  0  0  0  0  0  0  0  0  0  0  0
  185.0350  178.4170  143.0910 C   0  0  0  0  0  0  0  0  0  0  0  0
  182.9360  178.7450  144.3370 C   0  0  0  0  0  3  0  0  0  0  0  0
  187.2260  177.9520  144.2600 C   0  0  0  0  0  0  0  0  0  0  0  0
  189.5500  177.5330  146.4780 C   0  0  0  0  0  3  0  0  0  0  0  0
  184.2980  178.4640  144.2930 C   0  0  0  0  0  3  0  0  0  0  0  0
  188.4680  178.1520  141.7240 C   0  0  0  0  0  0  0  0  0  0  0  0
  188.3270  177.3960  147.2540 C   0  0  0  0  0  3  0  0  0  0  0  0
  184.8880  178.6500  140.6980 C   0  0  0  0  0  3  0  0  0  0  0  0
  182.2490  179.0030  143.1610 C   0  0  0  0  0  3  0  0  0  0  0  0
  189.2220  178.0030  142.8680 C   0  0  0  0  0  3  0  0  0  0  0  0
  187.0730  178.2330  141.8100 C   0  0  0  0  0  0  0  0  0  0  0  0
  186.6190  177.7610  145.4440 C   0  0  0  0  0  3  0  0  0  0  0  0
  181.9730  179.3170  140.4920 Cl  0  0  0  0  0  0  0  0  0  0  0  0
  188.6440  177.8930  144.1220 C   0  0  0  0  0  0  0  0  0  0  0  0
  189.6640  177.7370  145.1730 C   0  0  0  0  0  3  0  0  0  0  0  0
  186.3110  178.2790  140.5160 C   0  0  0  0  0  3  0  0  0  0  0  0
  184.2970  178.6770  141.8900 C   0  0  0  0  0  0  0  0  0  0  0  0
  182.9170  178.9770  141.9420 C   0  0  2  0  0  3  0  0  0  0  0  0
  189.1900  178.2390  140.4140 C   0  0  0  0  0  2  0  0  0  0  0  0
  191.5790  177.5020  140.2250 C   0  0  0  0  0  1  0  0  0  0  0  0
  190.1300  177.0480  140.2260 C   0  0  2  0  0  3  0  0  0  0  0  0
  190.9000  175.4580  138.5880 O   0  0  0  0  0  1  0  0  0  0  0  0
  189.8180  176.2690  138.9470 C   0  0  2  0  0  3  0  0  0  0  0  0
  190.2930  176.9840  136.6970 O   0  0  0  0  0  1  0  0  0  0  0  0
  189.4510  177.2030  137.7900 C   0  0  1  0  0  3  0  0  0  0  0  0
  187.9870  177.0620  137.3640 C   0  0  0  0  0  2  0  0  0  0  0  0
  187.5670  178.1200  136.3950 C   0  0  0  0  0  0  0  0  0  0  0  0
  187.5330  177.8680  135.1630 O   0  0  0  0  0  0  0  0  0  0  0  0
  187.1860  179.3720  136.8560 O   0  0  0  0  0  1  0  0  0  0  0  0
  1  9  1  0  0  0  0
  2  3  1  0  0  0  0
  2  5  2  0  0  0  0
  3  7  2  0  0  0  0
  5 14  1  0  0  0  0
  6  9  2  0  0  0  0
  7  4  1  0  0  0  0
  8 13  1  0  0  0  0
  8 12  2  0  0  0  0
 10 19  2  0  0  0  0
 11  4  2  0  0  0  0
 12 16  1  0  0  0  0
 13  2  1  0  0  0  0
 14  1  2  0  0  0  0
 16  5  1  0  0  0  0
 16 17  2  0  0  0  0
 17  6  1  0  0  0  0
 18 10  1  0  0  0  0
 18 13  2  0  0  0  0
 19 20  1  0  0  0  0
 19  3  1  0  0  0  0
 20 15  1  6  0  0  0
 20 11  1  0  0  0  0
 21  8  1  0  0  0  0
 23 22  1  6  0  0  0
 23 21  1  0  0  0  0
 25 24  1  6  0  0  0
 25 23  1  0  0  0  0
 27 26  1  6  0  0  0
 27 25  1  0  0  0  0
 28 27  1  0  0  0  0
 29 31  1  0  0  0  0
 29 28  1  0  0  0  0
 30 29  2  0  0  0  0
M  END
>  <MODEL>
8

>  <REMARK>
 VINA RESULT:      -9.5      1.235      1.833
  Name = 
  6 active torsions:
  status: ('A' for Active; 'I' for Inactive)
    1  A    between atoms: C_1  and  C_24
    2  A    between atoms: C_9  and  C_22
    3  A    between atoms: C_9  and  C_23
    4  A    between atoms: C_15  and  C_23
    5  A    between atoms: C_19  and  C_22
    6  A    between atoms: C_19  and  C_24
                            x       y       z     vdW  Elec       q    Type
                         _______ _______ _______ _____ _____    ______ ____

>  <TORSDO>
F 6

$$$$
=
 OpenBabel11052413163D

 31 34  0  0  1  0  0  0  0  0999 V2000
  186.5580  178.0670  146.4440 C   0  0  0  0  0  3  0  0  0  0  0  0
  187.0540  178.0460  142.6200 C   0  0  0  0  0  0  0  0  0  0  0  0
  188.3430  177.5320  142.5200 C   0  0  0  0  0  0  0  0  0  0  0  0
  190.3200  176.5020  143.5650 C   0  0  0  0  0  3  0  0  0  0  0  0
  186.3130  178.2000  143.8680 C   0  0  0  0  0  0  0  0  0  0  0  0
  184.1470  178.6300  146.2380 C   0  0  0  0  0  3  0  0  0  0  0  0
  189.0550  177.0730  143.6480 C   0  0  0  0  0  3  0  0  0  0  0  0
  185.0500  178.8160  141.4110 C   0  0  0  0  0  0  0  0  0  0  0  0
  185.3720  178.3320  146.9640 C   0  0  0  0  0  3  0  0  0  0  0  0
  188.4270  177.7860  140.1260 C   0  0  0  0  0  3  0  0  0  0  0  0
  190.9300  176.3570  142.3290 C   0  0  0  0  0  3  0  0  0  0  0  0
  184.3510  178.8780  142.5970 C   0  0  0  0  0  3  0  0  0  0  0  0
  186.3920  178.4190  141.4080 C   0  0  0  0  0  0  0  0  0  0  0  0
  186.9510  177.9990  145.0340 C   0  0  0  0  0  3  0  0  0  0  0  0
  191.1220  176.5650  139.6410 Cl  0  0  0  0  0  0  0  0  0  0  0  0
  184.9430  178.5910  143.8170 C   0  0  0  0  0  0  0  0  0  0  0  0
  183.9860  178.7370  144.9260 C   0  0  0  0  0  3  0  0  0  0  0  0
  187.1210  178.4850  140.0960 C   0  0  0  0  0  3  0  0  0  0  0  0
  189.0010  177.3790  141.2560 C   0  0  0  0  0  0  0  0  0  0  0  0
  190.2810  176.7840  141.1760 C   0  0  2  0  0  3  0  0  0  0  0  0
  184.3220  179.1670  140.1480 C   0  0  0  0  0  2  0  0  0  0  0  0
  183.1650  177.1020  139.3220 C   0  0  0  0  0  1  0  0  0  0  0  0
  182.9920  178.4200  140.0570 C   0  0  2  0  0  3  0  0  0  0  0  0
  182.4640  180.4050  138.8000 O   0  0  0  0  0  1  0  0  0  0  0  0
  181.9080  179.2620  139.3830 C   0  0  2  0  0  3  0  0  0  0  0  0
  179.5660  179.7140  139.7190 O   0  0  0  0  0  1  0  0  0  0  0  0
  180.8020  179.6560  140.3680 C   0  0  1  0  0  3  0  0  0  0  0  0
  180.7230  178.7110  141.5700 C   0  0  0  0  0  2  0  0  0  0  0  0
  180.4860  179.4370  142.8550 C   0  0  0  0  0  0  0  0  0  0  0  0
  180.1680  180.6540  142.8420 O   0  0  0  0  0  0  0  0  0  0  0  0
  180.5870  178.7610  144.0630 O   0  0  0  0  0  1  0  0  0  0  0  0
  1  9  1  0  0  0  0
  2  5  2  0  0  0  0
  3  2  1  0  0  0  0
  3  7  2  0  0  0  0
  4  7  1  0  0  0  0
  5 14  1  0  0  0  0
  6  9  2  0  0  0  0
  8 12  2  0  0  0  0
 10 19  2  0  0  0  0
 11  4  2  0  0  0  0
 12 16  1  0  0  0  0
 13  8  1  0  0  0  0
 13  2  1  0  0  0  0
 14  1  2  0  0  0  0
 16  5  1  0  0  0  0
 16 17  2  0  0  0  0
 17  6  1  0  0  0  0
 18 10  1  0  0  0  0
 18 13  2  0  0  0  0
 19  3  1  0  0  0  0
 20 15  1  1  0  0  0
 20 19  1  0  0  0  0
 20 11  1  0  0  0  0
 21  8  1  0  0  0  0
 23 22  1  6  0  0  0
 23 21  1  0  0  0  0
 25 24  1  1  0  0  0
 25 23  1  0  0  0  0
 25 27  1  0  0  0  0
 27 26  1  6  0  0  0
 27 28  1  0  0  0  0
 28 29  1  0  0  0  0
 29 31  1  0  0  0  0
 30 29  2  0  0  0  0
M  END
>  <MODEL>
9

>  <REMARK>
 VINA RESULT:      -9.4      3.909      7.049
  Name = 
  6 active torsions:
  status: ('A' for Active; 'I' for Inactive)
    1  A    between atoms: C_1  and  C_24
    2  A    between atoms: C_9  and  C_22
    3  A    between atoms: C_9  and  C_23
    4  A    between atoms: C_15  and  C_23
    5  A    between atoms: C_19  and  C_22
    6  A    between atoms: C_19  and  C_24
                            x       y       z     vdW  Elec       q    Type
                         _______ _______ _______ _____ _____    ______ ____

>  <TORSDO>
F 6

$$$$
