=
 OpenBabel11052414073D

 34 40  0  0  1  0  0  0  0  0999 V2000
  184.1890  178.6260  142.0710 C   0  0  0  0  0  0  0  0  0  0  0  0
  185.3710  178.7310  139.9350 C   0  0  0  0  0  0  0  0  0  0  0  0
  186.5600  178.1360  141.9570 C   0  0  0  0  0  0  0  0  0  0  0  0
  188.9200  177.6450  141.8570 C   0  0  0  0  0  0  0  0  0  0  0  0
  182.9990  179.2230  140.0460 C   0  0  0  0  0  3  0  0  0  0  0  0
  184.1800  179.0950  139.3000 C   0  0  0  0  0  3  0  0  0  0  0  0
  187.7010  178.2430  139.8290 C   0  0  0  0  0  0  0  0  0  0  0  0
  185.3700  178.4990  141.3230 C   0  0  0  0  0  0  0  0  0  0  0  0
  188.9400  178.0750  139.0490 C   0  0  0  0  0  0  0  0  0  0  0  0
  190.2100  177.5310  141.0890 C   0  0  0  0  0  2  0  0  0  0  0  0
  183.0020  178.9910  141.4290 C   0  0  0  0  0  3  0  0  0  0  0  0
  186.5660  177.9000  143.3410 C   0  0  0  0  0  0  0  0  0  0  0  0
  184.2310  178.3840  143.4490 C   0  0  0  0  0  3  0  0  0  0  0  0
  186.5280  178.5970  139.2260 N   0  0  0  0  0  0  0  0  0  0  0  0
  188.9110  177.4230  143.2010 N   0  0  0  0  0  0  0  0  0  0  0  0
  187.7810  177.5340  143.9580 C   0  0  0  0  0  0  0  0  0  0  0  0
  190.0490  177.7350  139.6400 N   0  0  0  0  0  0  0  0  0  0  0  0
  187.7350  178.0080  141.2090 C   0  0  0  0  0  0  0  0  0  0  0  0
  185.4050  178.0300  144.0480 N   0  0  0  0  0  0  0  0  0  0  0  0
  189.4390  176.8150  147.3720 C   0  0  1  0  0  3  0  0  0  0  0  0
  188.2500  177.2830  148.2260 C   0  0  0  0  0  2  0  0  0  0  0  0
  187.8840  177.2630  145.4290 C   0  0  1  0  0  3  0  0  0  0  0  0
  187.5890  178.5270  147.6400 C   0  0  0  0  0  2  0  0  0  0  0  0
  189.3400  177.2220  145.8970 C   0  0  0  0  0  2  0  0  0  0  0  0
  187.0240  178.2420  146.2450 C   0  0  0  0  0  2  0  0  0  0  0  0
  190.6270  177.3090  147.9100 O   0  0  0  0  0  1  0  0  0  0  0  0
  188.9250  178.2400  137.5630 C   0  0  0  0  0  2  0  0  0  0  0  0
  189.6000  177.8750  134.7050 N   0  0  0  0  0  1  0  0  0  0  0  0
  188.9260  176.8840  136.8560 C   0  0  2  0  0  3  0  0  0  0  0  0
  188.6110  177.0370  135.3600 C   0  0  1  0  0  3  0  0  0  0  0  0
  186.2410  177.0670  136.0560 C   0  0  0  0  0  2  0  0  0  0  0  0
  186.6370  175.7480  136.7190 C   0  0  0  0  0  2  0  0  0  0  0  0
  187.9280  175.9240  137.5220 C   0  0  0  0  0  2  0  0  0  0  0  0
  187.2600  177.5690  135.1160 N   0  0  0  0  0  2  0  0  0  0  0  0
  1 13  1  0  0  0  0
  2  8  1  0  0  0  0
  3 12  1  0  0  0  0
  4 15  2  0  0  0  0
  5 11  1  0  0  0  0
  6  2  1  0  0  0  0
  6  5  2  0  0  0  0
  7 18  2  0  0  0  0
  8  3  2  0  0  0  0
  8  1  1  0  0  0  0
  9 17  2  0  0  0  0
  9  7  1  0  0  0  0
 10  4  1  0  0  0  0
 11  1  2  0  0  0  0
 12 16  2  0  0  0  0
 12 19  1  0  0  0  0
 13 19  2  0  0  0  0
 14  7  1  0  0  0  0
 14  2  2  0  0  0  0
 15 16  1  0  0  0  0
 17 10  1  0  0  0  0
 18  4  1  0  0  0  0
 18  3  1  0  0  0  0
 20 26  1  1  0  0  0
 20 21  1  0  0  0  0
 22 16  1  6  0  0  0
 22 24  1  0  0  0  0
 22 25  1  0  0  0  0
 23 21  1  0  0  0  0
 24 20  1  0  0  0  0
 25 23  1  0  0  0  0
 27  9  1  0  0  0  0
 29 33  1  0  0  0  0
 29 27  1  1  0  0  0
 30 28  1  1  0  0  0
 30 29  1  0  0  0  0
 31 32  1  0  0  0  0
 32 33  1  0  0  0  0
 34 30  1  0  0  0  0
 34 31  1  0  0  0  0
M  END
>  <MODEL>
1

>  <REMARK>
 VINA RESULT:     -10.2      0.000      0.000
  Name = 
  3 active torsions:
  status: ('A' for Active; 'I' for Inactive)
    1  A    between atoms: C_3  and  C_13
    2  A    between atoms: C_3  and  C_17
    3  A    between atoms: C_12  and  C_28
                            x       y       z     vdW  Elec       q    Type
                         _______ _______ _______ _____ _____    ______ ____

>  <TORSDO>
F 3

$$$$
=
 OpenBabel11052414073D

 34 40  0  0  1  0  0  0  0  0999 V2000
  186.7180  178.2210  138.7860 C   0  0  0  0  0  0  0  0  0  0  0  0
  186.7680  178.4950  141.2140 C   0  0  0  0  0  0  0  0  0  0  0  0
  188.7100  177.6520  140.0430 C   0  0  0  0  0  0  0  0  0  0  0  0
  190.7000  177.0810  141.2820 C   0  0  0  0  0  0  0  0  0  0  0  0
  184.7720  179.0650  139.9600 C   0  0  0  0  0  3  0  0  0  0  0  0
  185.4520  178.9670  141.1820 C   0  0  0  0  0  3  0  0  0  0  0  0
  188.7320  177.9380  142.4430 C   0  0  0  0  0  0  0  0  0  0  0  0
  187.3960  178.1220  140.0110 C   0  0  0  0  0  0  0  0  0  0  0  0
  189.4650  177.8600  143.7190 C   0  0  0  0  0  0  0  0  0  0  0  0
  191.4450  176.9330  142.5830 C   0  0  0  0  0  3  0  0  0  0  0  0
  185.4020  178.6930  138.7630 C   0  0  0  0  0  3  0  0  0  0  0  0
  189.3440  177.2810  138.8470 C   0  0  0  0  0  0  0  0  0  0  0  0
  187.3800  177.8420  137.6130 C   0  0  0  0  0  3  0  0  0  0  0  0
  187.4460  178.3960  142.3930 N   0  0  0  0  0  0  0  0  0  0  0  0
  191.3020  176.7210  140.1140 N   0  0  0  0  0  2  0  0  0  0  0  0
  190.6730  176.8080  138.9060 C   0  0  0  0  0  0  0  0  0  0  0  0
  190.6910  177.4220  143.7480 N   0  0  0  0  0  0  0  0  0  0  0  0
  189.3840  177.5550  141.2650 C   0  0  0  0  0  0  0  0  0  0  0  0
  188.6640  177.3860  137.6670 N   0  0  0  0  0  0  0  0  0  0  0  0
  193.6940  176.2530  136.5630 C   0  0  1  0  0  3  0  0  0  0  0  0
  193.0250  175.1750  135.6970 C   0  0  0  0  0  2  0  0  0  0  0  0
  191.4300  176.3880  137.6820 C   0  0  1  0  0  3  0  0  0  0  0  0
  192.1800  174.2210  136.5360 C   0  0  0  0  0  2  0  0  0  0  0  0
  192.9400  176.5590  137.8620 C   0  0  0  0  0  2  0  0  0  0  0  0
  191.0400  174.9690  137.2360 C   0  0  0  0  0  2  0  0  0  0  0  0
  195.0000  175.8700  136.8650 O   0  0  0  0  0  1  0  0  0  0  0  0
  188.8280  178.3340  144.9860 C   0  0  0  0  0  2  0  0  0  0  0  0
  185.9310  177.7300  145.0370 N   0  0  0  0  0  1  0  0  0  0  0  0
  188.2160  177.1700  145.7650 C   0  0  2  0  0  3  0  0  0  0  0  0
  186.7740  177.4840  146.1950 C   0  0  1  0  0  3  0  0  0  0  0  0
  187.8020  178.6780  148.0970 C   0  0  0  0  0  2  0  0  0  0  0  0
  188.4830  177.3260  148.3060 C   0  0  0  0  0  2  0  0  0  0  0  0
  189.0790  176.8230  146.9890 C   0  0  0  0  0  2  0  0  0  0  0  0
  186.6940  178.6230  147.1250 N   0  0  0  0  0  2  0  0  0  0  0  0
  1  8  2  0  0  0  0
  2 14  1  0  0  0  0
  3 18  2  0  0  0  0
  4 10  2  0  0  0  0
  5  6  1  0  0  0  0
  6  2  2  0  0  0  0
  7  9  1  0  0  0  0
  8  3  1  0  0  0  0
  8  2  1  0  0  0  0
  9 17  2  0  0  0  0
  9 27  1  0  0  0  0
 10 17  1  0  0  0  0
 11  1  1  0  0  0  0
 11  5  2  0  0  0  0
 12 16  2  0  0  0  0
 12  3  1  0  0  0  0
 13 19  2  0  0  0  0
 13  1  1  0  0  0  0
 14  7  2  0  0  0  0
 15  4  1  0  0  0  0
 16 15  1  0  0  0  0
 18  4  1  0  0  0  0
 18  7  1  0  0  0  0
 19 12  1  0  0  0  0
 20 26  1  1  0  0  0
 20 24  1  0  0  0  0
 21 23  1  0  0  0  0
 21 20  1  0  0  0  0
 22 24  1  0  0  0  0
 22 16  1  1  0  0  0
 23 25  1  0  0  0  0
 25 22  1  0  0  0  0
 29 27  1  1  0  0  0
 29 30  1  0  0  0  0
 29 33  1  0  0  0  0
 30 28  1  6  0  0  0
 30 34  1  0  0  0  0
 31 32  1  0  0  0  0
 33 32  1  0  0  0  0
 34 31  1  0  0  0  0
M  END
>  <MODEL>
2

>  <REMARK>
 VINA RESULT:     -10.2      2.937      7.839
  Name = 
  3 active torsions:
  status: ('A' for Active; 'I' for Inactive)
    1  A    between atoms: C_3  and  C_13
    2  A    between atoms: C_3  and  C_17
    3  A    between atoms: C_12  and  C_28
                            x       y       z     vdW  Elec       q    Type
                         _______ _______ _______ _____ _____    ______ ____

>  <TORSDO>
F 3

$$$$
=
 OpenBabel11052414073D

 34 40  0  0  1  0  0  0  0  0999 V2000
  186.3500  178.0500  146.2010 C   0  0  0  0  0  0  0  0  0  0  0  0
  187.9840  177.8810  144.3920 C   0  0  0  0  0  0  0  0  0  0  0  0
  185.6760  178.4170  143.9010 C   0  0  0  0  0  0  0  0  0  0  0  0
  184.9930  178.7850  141.6180 C   0  0  0  0  0  0  0  0  0  0  0  0
  188.6610  177.5120  146.6920 C   0  0  0  0  0  3  0  0  0  0  0  0
  188.9790  177.5790  145.3270 C   0  0  0  0  0  3  0  0  0  0  0  0
  187.3160  178.2490  142.1340 C   0  0  0  0  0  0  0  0  0  0  0  0
  186.6690  178.1150  144.8350 C   0  0  0  0  0  0  0  0  0  0  0  0
  187.6470  178.3520  140.7020 C   0  0  0  0  0  0  0  0  0  0  0  0
  185.2960  178.8320  140.1430 C   0  0  0  0  0  2  0  0  0  0  0  0
  187.3490  177.7460  147.1290 C   0  0  0  0  0  3  0  0  0  0  0  0
  184.3630  178.6540  144.3360 C   0  0  0  0  0  0  0  0  0  0  0  0
  185.0290  178.2910  146.5990 C   0  0  0  0  0  3  0  0  0  0  0  0
  188.2750  177.9540  143.0620 N   0  0  0  0  0  0  0  0  0  0  0  0
  183.7220  179.0090  142.0540 N   0  0  0  0  0  0  0  0  0  0  0  0
  183.3770  178.9580  143.3730 C   0  0  0  0  0  0  0  0  0  0  0  0
  186.7200  178.6340  139.8320 N   0  0  0  0  0  0  0  0  0  0  0  0
  185.9970  178.4830  142.5420 C   0  0  0  0  0  0  0  0  0  0  0  0
  184.0750  178.5850  145.6700 N   0  0  0  0  0  0  0  0  0  0  0  0
  179.7570  180.2630  143.0240 C   0  0  1  0  0  3  0  0  0  0  0  0
  179.1490  179.3210  144.0750 C   0  0  0  0  0  2  0  0  0  0  0  0
  181.9490  179.2250  143.7430 C   0  0  1  0  0  3  0  0  0  0  0  0
  179.7550  177.9230  143.9990 C   0  0  0  0  0  2  0  0  0  0  0  0
  181.1770  179.8740  142.5930 C   0  0  0  0  0  2  0  0  0  0  0  0
  181.2600  177.9610  144.2840 C   0  0  0  0  0  2  0  0  0  0  0  0
  178.9310  180.3130  141.9030 O   0  0  0  0  0  1  0  0  0  0  0  0
  189.0580  178.1860  140.2390 C   0  0  0  0  0  2  0  0  0  0  0  0
  190.8680  176.7040  142.0510 N   0  0  0  0  0  1  0  0  0  0  0  0
  189.4130  176.7080  140.0650 C   0  0  2  0  0  3  0  0  0  0  0  0
  190.8080  176.4010  140.6320 C   0  0  1  0  0  3  0  0  0  0  0  0
  191.6620  177.2230  138.4650 C   0  0  0  0  0  2  0  0  0  0  0  0
  190.7040  176.1630  137.9230 C   0  0  0  0  0  2  0  0  0  0  0  0
  189.3310  176.3010  138.5860 C   0  0  0  0  0  2  0  0  0  0  0  0
  191.8800  177.1150  139.9190 N   0  0  0  0  0  2  0  0  0  0  0  0
  1 13  1  0  0  0  0
  1 11  2  0  0  0  0
  2  8  1  0  0  0  0
  2  6  1  0  0  0  0
  3 12  1  0  0  0  0
  3  8  2  0  0  0  0
  4 15  2  0  0  0  0
  4 18  1  0  0  0  0
  5 11  1  0  0  0  0
  6  5  2  0  0  0  0
  7 18  2  0  0  0  0
  7 14  1  0  0  0  0
  8  1  1  0  0  0  0
  9  7  1  0  0  0  0
 10  4  1  0  0  0  0
 12 19  1  0  0  0  0
 14  2  2  0  0  0  0
 15 16  1  0  0  0  0
 16 12  2  0  0  0  0
 17 10  1  0  0  0  0
 17  9  2  0  0  0  0
 18  3  1  0  0  0  0
 19 13  2  0  0  0  0
 20 26  1  6  0  0  0
 20 21  1  0  0  0  0
 22 16  1  6  0  0  0
 22 25  1  0  0  0  0
 23 21  1  0  0  0  0
 23 25  1  0  0  0  0
 24 20  1  0  0  0  0
 24 22  1  0  0  0  0
 27  9  1  0  0  0  0
 29 27  1  6  0  0  0
 29 30  1  0  0  0  0
 30 28  1  1  0  0  0
 31 34  1  0  0  0  0
 32 31  1  0  0  0  0
 32 33  1  0  0  0  0
 33 29  1  0  0  0  0
 34 30  1  0  0  0  0
M  END
>  <MODEL>
3

>  <REMARK>
 VINA RESULT:     -10.1      3.111      6.143
  Name = 
  3 active torsions:
  status: ('A' for Active; 'I' for Inactive)
    1  A    between atoms: C_3  and  C_13
    2  A    between atoms: C_3  and  C_17
    3  A    between atoms: C_12  and  C_28
                            x       y       z     vdW  Elec       q    Type
                         _______ _______ _______ _____ _____    ______ ____

>  <TORSDO>
F 3

$$$$
=
 OpenBabel11052414073D

 34 40  0  0  1  0  0  0  0  0999 V2000
  182.4200  178.9400  142.9520 C   0  0  0  0  0  0  0  0  0  0  0  0
  184.8410  178.7060  143.1930 C   0  0  0  0  0  0  0  0  0  0  0  0
  183.8320  178.7270  140.9940 C   0  0  0  0  0  0  0  0  0  0  0  0
  185.2260  178.5150  139.0370 C   0  0  0  0  0  0  0  0  0  0  0  0
  183.4310  178.9190  145.1550 C   0  0  0  0  0  3  0  0  0  0  0  0
  184.7030  178.7710  144.5840 C   0  0  0  0  0  3  0  0  0  0  0  0
  186.2230  178.5030  141.2630 C   0  0  0  0  0  0  0  0  0  0  0  0
  183.6940  178.7910  142.3820 C   0  0  0  0  0  0  0  0  0  0  0  0
  187.5580  178.3780  140.6520 C   0  0  0  0  0  0  0  0  0  0  0  0
  186.5750  178.3240  138.3940 C   0  0  0  0  0  3  0  0  0  0  0  0
  182.2900  179.0030  144.3430 C   0  0  0  0  0  3  0  0  0  0  0  0
  182.6930  178.8130  140.1780 C   0  0  0  0  0  0  0  0  0  0  0  0
  181.3060  179.0220  142.1090 C   0  0  0  0  0  3  0  0  0  0  0  0
  186.0690  178.5670  142.6200 N   0  0  0  0  0  0  0  0  0  0  0  0
  184.1110  178.5970  138.2570 N   0  0  0  0  0  2  0  0  0  0  0  0
  182.8590  178.7460  138.7780 C   0  0  0  0  0  0  0  0  0  0  0  0
  187.6870  178.3200  139.3570 N   0  0  0  0  0  0  0  0  0  0  0  0
  185.1020  178.5800  140.4280 C   0  0  0  0  0  0  0  0  0  0  0  0
  181.4640  178.9590  140.7550 N   0  0  0  0  0  0  0  0  0  0  0  0
  180.0940  180.3570  136.6130 C   0  0  1  0  0  3  0  0  0  0  0  0
  179.9090  179.1550  135.6750 C   0  0  0  0  0  2  0  0  0  0  0  0
  181.7020  178.8290  137.8280 C   0  0  1  0  0  3  0  0  0  0  0  0
  181.2420  178.4990  135.3270 C   0  0  0  0  0  2  0  0  0  0  0  0
  181.3570  180.2780  137.4780 C   0  0  0  0  0  2  0  0  0  0  0  0
  181.9290  177.9540  136.5840 C   0  0  0  0  0  2  0  0  0  0  0  0
  180.1160  181.5360  135.8690 O   0  0  0  0  0  1  0  0  0  0  0  0
  188.7830  178.3720  141.5080 C   0  0  0  0  0  2  0  0  0  0  0  0
  188.3100  176.0030  143.2180 N   0  0  0  0  0  1  0  0  0  0  0  0
  189.5490  177.0560  141.3690 C   0  0  2  0  0  3  0  0  0  0  0  0
  189.6360  176.3170  142.7140 C   0  0  1  0  0  3  0  0  0  0  0  0
  191.5590  177.7920  143.1850 C   0  0  0  0  0  2  0  0  0  0  0  0
  192.0560  177.2200  141.8580 C   0  0  0  0  0  2  0  0  0  0  0  0
  190.9540  177.3030  140.7990 C   0  0  0  0  0  2  0  0  0  0  0  0
  190.3940  177.0690  143.7270 N   0  0  0  0  0  2  0  0  0  0  0  0
  1 11  1  0  0  0  0
  2  6  2  0  0  0  0
  3  8  1  0  0  0  0
  4 18  1  0  0  0  0
  6  5  1  0  0  0  0
  7 14  2  0  0  0  0
  8  1  2  0  0  0  0
  8  2  1  0  0  0  0
  9  7  1  0  0  0  0
  9 27  1  0  0  0  0
 10  4  2  0  0  0  0
 10 17  1  0  0  0  0
 11  5  2  0  0  0  0
 12 19  1  0  0  0  0
 12  3  1  0  0  0  0
 13  1  1  0  0  0  0
 14  2  1  0  0  0  0
 15 16  1  0  0  0  0
 15  4  1  0  0  0  0
 16 12  2  0  0  0  0
 17  9  2  0  0  0  0
 18  3  2  0  0  0  0
 18  7  1  0  0  0  0
 19 13  2  0  0  0  0
 20 26  1  6  0  0  0
 20 24  1  0  0  0  0
 21 20  1  0  0  0  0
 22 16  1  1  0  0  0
 23 21  1  0  0  0  0
 23 25  1  0  0  0  0
 24 22  1  0  0  0  0
 25 22  1  0  0  0  0
 29 27  1  1  0  0  0
 29 30  1  0  0  0  0
 30 28  1  1  0  0  0
 30 34  1  0  0  0  0
 31 34  1  0  0  0  0
 32 31  1  0  0  0  0
 33 29  1  0  0  0  0
 33 32  1  0  0  0  0
M  END
>  <MODEL>
4

>  <REMARK>
 VINA RESULT:      -9.9      3.864      7.710
  Name = 
  3 active torsions:
  status: ('A' for Active; 'I' for Inactive)
    1  A    between atoms: C_3  and  C_13
    2  A    between atoms: C_3  and  C_17
    3  A    between atoms: C_12  and  C_28
                            x       y       z     vdW  Elec       q    Type
                         _______ _______ _______ _____ _____    ______ ____

>  <TORSDO>
F 3

$$$$
=
 OpenBabel11052414073D

 34 40  0  0  1  0  0  0  0  0999 V2000
  187.9950  178.1320  138.0150 C   0  0  0  0  0  0  0  0  0  0  0  0
  189.0440  177.6200  140.1620 C   0  0  0  0  0  0  0  0  0  0  0  0
  186.7090  178.2490  140.0660 C   0  0  0  0  0  0  0  0  0  0  0  0
  185.4180  178.3690  142.1000 C   0  0  0  0  0  0  0  0  0  0  0  0
  190.3330  177.5030  138.1110 C   0  0  0  0  0  3  0  0  0  0  0  0
  190.2530  177.3710  139.5050 C   0  0  0  0  0  3  0  0  0  0  0  0
  187.7710  177.7310  142.1740 C   0  0  0  0  0  0  0  0  0  0  0  0
  187.9170  178.0020  139.4110 C   0  0  0  0  0  0  0  0  0  0  0  0
  187.6690  177.5650  143.6340 C   0  0  0  0  0  0  0  0  0  0  0  0
  185.3080  178.2680  143.5990 C   0  0  0  0  0  3  0  0  0  0  0  0
  189.2080  177.8830  137.3660 C   0  0  0  0  0  3  0  0  0  0  0  0
  185.5800  178.6280  139.3230 C   0  0  0  0  0  0  0  0  0  0  0  0
  186.8500  178.5130  137.3050 C   0  0  0  0  0  3  0  0  0  0  0  0
  188.9450  177.4930  141.5150 N   0  0  0  0  0  0  0  0  0  0  0  0
  184.3310  178.7390  141.3670 N   0  0  0  0  0  2  0  0  0  0  0  0
  184.3710  178.8720  140.0090 C   0  0  0  0  0  0  0  0  0  0  0  0
  186.5430  177.7950  144.2460 N   0  0  0  0  0  0  0  0  0  0  0  0
  186.6330  178.1160  141.4560 C   0  0  0  0  0  0  0  0  0  0  0  0
  185.6800  178.7490  137.9660 N   0  0  0  0  0  0  0  0  0  0  0  0
  180.5890  179.3620  139.3920 C   0  0  1  0  0  3  0  0  0  0  0  0
  180.7430  180.4670  138.3380 C   0  0  0  0  0  2  0  0  0  0  0  0
  183.1150  179.2820  139.3000 C   0  0  1  0  0  3  0  0  0  0  0  0
  181.8650  181.4380  138.6960 C   0  0  0  0  0  2  0  0  0  0  0  0
  181.8760  179.0650  140.1710 C   0  0  0  0  0  2  0  0  0  0  0  0
  183.2160  180.7160  138.7560 C   0  0  0  0  0  2  0  0  0  0  0  0
  179.5750  179.7030  140.2870 O   0  0  0  0  0  1  0  0  0  0  0  0
  188.8420  177.0800  144.4240 C   0  0  0  0  0  2  0  0  0  0  0  0
  190.9260  179.1270  143.9460 N   0  0  0  0  0  1  0  0  0  0  0  0
  189.2740  178.1130  145.4650 C   0  0  2  0  0  3  0  0  0  0  0  0
  190.7380  178.5330  145.2590 C   0  0  1  0  0  3  0  0  0  0  0  0
  191.3050  176.4940  146.5320 C   0  0  0  0  0  2  0  0  0  0  0  0
  190.3670  177.1280  147.5590 C   0  0  0  0  0  2  0  0  0  0  0  0
  189.0650  177.5690  146.8870 C   0  0  0  0  0  2  0  0  0  0  0  0
  191.6810  177.4180  145.4460 N   0  0  0  0  0  2  0  0  0  0  0  0
  1  8  2  0  0  0  0
  2 14  1  0  0  0  0
  3 18  2  0  0  0  0
  4 10  2  0  0  0  0
  5  6  1  0  0  0  0
  6  2  2  0  0  0  0
  7  9  1  0  0  0  0
  8  3  1  0  0  0  0
  8  2  1  0  0  0  0
  9 17  2  0  0  0  0
  9 27  1  0  0  0  0
 10 17  1  0  0  0  0
 11  1  1  0  0  0  0
 11  5  2  0  0  0  0
 12 16  2  0  0  0  0
 12  3  1  0  0  0  0
 13 19  2  0  0  0  0
 13  1  1  0  0  0  0
 14  7  2  0  0  0  0
 15  4  1  0  0  0  0
 16 15  1  0  0  0  0
 18  4  1  0  0  0  0
 18  7  1  0  0  0  0
 19 12  1  0  0  0  0
 20 24  1  0  0  0  0
 20 26  1  1  0  0  0
 21 23  1  0  0  0  0
 21 20  1  0  0  0  0
 22 16  1  1  0  0  0
 22 24  1  0  0  0  0
 23 25  1  0  0  0  0
 25 22  1  0  0  0  0
 29 27  1  6  0  0  0
 29 33  1  0  0  0  0
 30 28  1  6  0  0  0
 30 34  1  0  0  0  0
 30 29  1  0  0  0  0
 31 32  1  0  0  0  0
 33 32  1  0  0  0  0
 34 31  1  0  0  0  0
M  END
>  <MODEL>
5

>  <REMARK>
 VINA RESULT:      -9.6      2.925      7.949
  Name = 
  3 active torsions:
  status: ('A' for Active; 'I' for Inactive)
    1  A    between atoms: C_3  and  C_13
    2  A    between atoms: C_3  and  C_17
    3  A    between atoms: C_12  and  C_28
                            x       y       z     vdW  Elec       q    Type
                         _______ _______ _______ _____ _____    ______ ____

>  <TORSDO>
F 3

$$$$
=
 OpenBabel11052414073D

 34 40  0  0  1  0  0  0  0  0999 V2000
  189.6650  177.5040  140.2540 C   0  0  0  0  0  0  0  0  0  0  0  0
  187.6190  178.2560  139.1500 C   0  0  0  0  0  0  0  0  0  0  0  0
  187.6460  177.8780  141.5400 C   0  0  0  0  0  0  0  0  0  0  0  0
  185.6420  178.2460  142.8320 C   0  0  0  0  0  0  0  0  0  0  0  0
  189.6380  177.8820  137.8600 C   0  0  0  0  0  3  0  0  0  0  0  0
  188.2880  178.2560  137.9220 C   0  0  0  0  0  3  0  0  0  0  0  0
  185.6380  178.6270  140.4230 C   0  0  0  0  0  0  0  0  0  0  0  0
  188.3130  177.8770  140.3140 C   0  0  0  0  0  0  0  0  0  0  0  0
  184.2290  179.0480  140.5030 C   0  0  0  0  0  0  0  0  0  0  0  0
  184.1840  178.6120  142.9270 C   0  0  0  0  0  3  0  0  0  0  0  0
  190.3270  177.5050  139.0220 C   0  0  0  0  0  3  0  0  0  0  0  0
  188.3330  177.5040  142.7060 C   0  0  0  0  0  0  0  0  0  0  0  0
  190.3200  177.1360  141.4350 C   0  0  0  0  0  3  0  0  0  0  0  0
  186.3080  178.6210  139.2310 N   0  0  0  0  0  0  0  0  0  0  0  0
  186.3210  177.8780  143.9550 N   0  0  0  0  0  0  0  0  0  0  0  0
  187.6350  177.5120  143.9330 C   0  0  0  0  0  0  0  0  0  0  0  0
  183.6060  179.0500  141.6470 N   0  0  0  0  0  0  0  0  0  0  0  0
  186.2990  178.2520  141.5980 C   0  0  1  0  0  3  0  0  0  0  0  0
  189.6480  177.1440  142.6220 N   0  0  0  0  0  0  0  0  0  0  0  0
  190.4700  176.8130  146.4630 C   0  0  1  0  0  3  0  0  0  0  0  0
  189.5980  176.9530  147.7190 C   0  0  0  0  0  2  0  0  0  0  0  0
  188.2860  177.1280  145.2280 C   0  0  1  0  0  3  0  0  0  0  0  0
  188.5910  178.0920  147.5840 C   0  0  0  0  0  2  0  0  0  0  0  0
  189.8020  177.3320  145.1840 C   0  0  0  0  0  2  0  0  0  0  0  0
  187.6250  177.8350  146.4230 C   0  0  0  0  0  2  0  0  0  0  0  0
  191.6800  177.4790  146.6540 O   0  0  0  0  0  1  0  0  0  0  0  0
  183.5130  179.5300  139.2820 C   0  0  0  0  0  2  0  0  0  0  0  0
  181.9870  176.9940  139.3000 N   0  0  0  0  0  1  0  0  0  0  0  0
  181.9970  179.4510  139.4620 C   0  0  2  0  0  3  0  0  0  0  0  0
  181.4160  178.2150  138.7580 C   0  0  1  0  0  3  0  0  0  0  0  0
  181.4550  179.5970  136.7110 C   0  0  0  0  0  2  0  0  0  0  0  0
  180.6400  180.5460  137.5880 C   0  0  0  0  0  2  0  0  0  0  0  0
  181.3220  180.7320  138.9450 C   0  0  0  0  0  2  0  0  0  0  0  0
  181.6040  178.2530  137.2980 N   0  0  0  0  0  2  0  0  0  0  0  0
  1  8  1  0  0  0  0
  1 13  1  0  0  0  0
  2 14  2  0  0  0  0
  2  8  1  0  0  0  0
  3 18  1  0  0  0  0
  3 12  1  0  0  0  0
  4 10  1  0  0  0  0
  4 15  2  0  0  0  0
  5  6  2  0  0  0  0
  5 11  1  0  0  0  0
  6  2  1  0  0  0  0
  7  9  2  0  0  0  0
  8  3  2  0  0  0  0
  9 17  1  0  0  0  0
 11  1  2  0  0  0  0
 12 16  2  0  0  0  0
 13 19  2  0  0  0  0
 14  7  1  0  0  0  0
 16 15  1  0  0  0  0
 17 10  2  0  0  0  0
 18  7  1  1  0  0  0
 18  4  1  0  0  0  0
 19 12  1  0  0  0  0
 20 26  1  1  0  0  0
 20 21  1  0  0  0  0
 22 16  1  6  0  0  0
 22 25  1  0  0  0  0
 23 21  1  0  0  0  0
 24 22  1  0  0  0  0
 24 20  1  0  0  0  0
 25 23  1  0  0  0  0
 27  9  1  0  0  0  0
 29 27  1  6  0  0  0
 30 28  1  1  0  0  0
 30 29  1  0  0  0  0
 31 34  1  0  0  0  0
 31 32  1  0  0  0  0
 32 33  1  0  0  0  0
 33 29  1  0  0  0  0
 34 30  1  0  0  0  0
M  END
>  <MODEL>
6

>  <REMARK>
 VINA RESULT:      -9.5      1.893      4.958
  Name = 
  3 active torsions:
  status: ('A' for Active; 'I' for Inactive)
    1  A    between atoms: C_3  and  C_13
    2  A    between atoms: C_3  and  C_17
    3  A    between atoms: C_12  and  C_28
                            x       y       z     vdW  Elec       q    Type
                         _______ _______ _______ _____ _____    ______ ____

>  <TORSDO>
F 3

$$$$
=
 OpenBabel11052414073D

 34 40  0  0  1  0  0  0  0  0999 V2000
  184.1720  178.5730  144.3710 C   0  0  0  0  0  0  0  0  0  0  0  0
  183.3750  178.7400  142.0660 C   0  0  0  0  0  0  0  0  0  0  0  0
  185.7230  178.3680  142.5200 C   0  0  0  0  0  0  0  0  0  0  0  0
  187.2770  178.1610  140.6870 C   0  0  0  0  0  0  0  0  0  0  0  0
  181.8200  178.9470  143.9160 C   0  0  0  0  0  3  0  0  0  0  0  0
  182.0720  178.9330  142.5370 C   0  0  0  0  0  3  0  0  0  0  0  0
  184.9050  178.5310  140.2520 C   0  0  0  0  0  0  0  0  0  0  0  0
  184.4220  178.5610  142.9900 C   0  0  0  0  0  0  0  0  0  0  0  0
  185.1750  178.4840  138.8040 C   0  0  0  0  0  0  0  0  0  0  0  0
  187.5850  178.1740  139.2120 C   0  0  0  0  0  2  0  0  0  0  0  0
  182.8670  178.7680  144.8330 C   0  0  0  0  0  3  0  0  0  0  0  0
  186.7720  178.1860  143.4350 C   0  0  0  0  0  0  0  0  0  0  0  0
  185.2420  178.3900  145.2550 C   0  0  0  0  0  3  0  0  0  0  0  0
  183.6390  178.7200  140.7290 N   0  0  0  0  0  0  0  0  0  0  0  0
  188.2860  177.9900  141.5860 N   0  0  0  0  0  0  0  0  0  0  0  0
  188.0770  177.9920  142.9350 C   0  0  0  0  0  0  0  0  0  0  0  0
  186.3880  178.3030  138.3660 N   0  0  0  0  0  0  0  0  0  0  0  0
  185.9700  178.3540  141.1440 C   0  0  0  0  0  0  0  0  0  0  0  0
  186.5040  178.2020  144.7740 N   0  0  0  0  0  0  0  0  0  0  0  0
  191.0760  176.1980  144.5820 C   0  0  1  0  0  3  0  0  0  0  0  0
  191.7800  177.4760  145.0610 C   0  0  0  0  0  2  0  0  0  0  0  0
  189.2600  177.7910  143.8350 C   0  0  1  0  0  3  0  0  0  0  0  0
  191.6870  178.5940  144.0260 C   0  0  0  0  0  2  0  0  0  0  0  0
  189.9520  176.4520  143.5710 C   0  0  0  0  0  2  0  0  0  0  0  0
  190.2270  178.9850  143.7710 C   0  0  0  0  0  2  0  0  0  0  0  0
  192.0110  175.3270  144.0250 O   0  0  0  0  0  1  0  0  0  0  0  0
  184.0530  178.5910  137.8220 C   0  0  0  0  0  2  0  0  0  0  0  0
  184.7760  177.1090  135.3640 N   0  0  0  0  0  1  0  0  0  0  0  0
  183.4970  177.2120  137.4660 C   0  0  2  0  0  3  0  0  0  0  0  0
  183.4480  177.0080  135.9440 C   0  0  1  0  0  3  0  0  0  0  0  0
  181.3060  178.2350  136.0380 C   0  0  0  0  0  2  0  0  0  0  0  0
  180.9710  177.1490  137.0600 C   0  0  0  0  0  2  0  0  0  0  0  0
  182.1030  177.0130  138.0810 C   0  0  0  0  0  2  0  0  0  0  0  0
  182.5340  177.9480  135.2740 N   0  0  0  0  0  2  0  0  0  0  0  0
  1 11  2  0  0  0  0
  1 13  1  0  0  0  0
  2  6  1  0  0  0  0
  2  8  1  0  0  0  0
  3  8  2  0  0  0  0
  3 12  1  0  0  0  0
  4 18  1  0  0  0  0
  4 15  2  0  0  0  0
  5 11  1  0  0  0  0
  6  5  2  0  0  0  0
  7 14  1  0  0  0  0
  7 18  2  0  0  0  0
  8  1  1  0  0  0  0
  9  7  1  0  0  0  0
 10  4  1  0  0  0  0
 12 19  1  0  0  0  0
 14  2  2  0  0  0  0
 15 16  1  0  0  0  0
 16 12  2  0  0  0  0
 17  9  2  0  0  0  0
 17 10  1  0  0  0  0
 18  3  1  0  0  0  0
 19 13  2  0  0  0  0
 20 26  1  6  0  0  0
 20 21  1  0  0  0  0
 22 16  1  6  0  0  0
 23 21  1  0  0  0  0
 24 22  1  0  0  0  0
 24 20  1  0  0  0  0
 25 22  1  0  0  0  0
 25 23  1  0  0  0  0
 27  9  1  0  0  0  0
 29 27  1  6  0  0  0
 29 33  1  0  0  0  0
 30 28  1  6  0  0  0
 30 29  1  0  0  0  0
 31 32  1  0  0  0  0
 32 33  1  0  0  0  0
 34 30  1  0  0  0  0
 34 31  1  0  0  0  0
M  END
>  <MODEL>
7

>  <REMARK>
 VINA RESULT:      -9.5      2.429      3.736
  Name = 
  3 active torsions:
  status: ('A' for Active; 'I' for Inactive)
    1  A    between atoms: C_3  and  C_13
    2  A    between atoms: C_3  and  C_17
    3  A    between atoms: C_12  and  C_28
                            x       y       z     vdW  Elec       q    Type
                         _______ _______ _______ _____ _____    ______ ____

>  <TORSDO>
F 3

$$$$
=
 OpenBabel11052414073D

 34 40  0  0  1  0  0  0  0  0999 V2000
  184.5300  178.6380  144.6370 C   0  0  0  0  0  0  0  0  0  0  0  0
  183.9200  178.7310  142.2730 C   0  0  0  0  0  0  0  0  0  0  0  0
  186.2230  178.3740  142.9230 C   0  0  0  0  0  0  0  0  0  0  0  0
  187.9180  178.1090  141.2270 C   0  0  0  0  0  0  0  0  0  0  0  0
  182.2230  178.9970  143.9860 C   0  0  0  0  0  3  0  0  0  0  0  0
  182.5840  178.9400  142.6320 C   0  0  0  0  0  3  0  0  0  0  0  0
  185.5890  178.4640  140.5930 C   0  0  0  0  0  0  0  0  0  0  0  0
  184.8900  178.5820  143.2810 C   0  0  0  0  0  0  0  0  0  0  0  0
  185.9730  178.3710  139.1740 C   0  0  0  0  0  0  0  0  0  0  0  0
  188.3420  178.0740  139.7820 C   0  0  0  0  0  2  0  0  0  0  0  0
  183.1930  178.8480  144.9880 C   0  0  0  0  0  3  0  0  0  0  0  0
  187.1960  178.2210  143.9240 C   0  0  0  0  0  0  0  0  0  0  0  0
  185.5260  178.4830  145.6090 C   0  0  0  0  0  3  0  0  0  0  0  0
  184.2890  178.6680  140.9620 N   0  0  0  0  0  0  0  0  0  0  0  0
  188.8520  177.9660  142.2090 N   0  0  0  0  0  0  0  0  0  0  0  0
  188.5360  178.0120  143.5360 C   0  0  0  0  0  0  0  0  0  0  0  0
  187.2160  178.1760  138.8390 N   0  0  0  0  0  0  0  0  0  0  0  0
  186.5790  178.3160  141.5720 C   0  0  0  0  0  0  0  0  0  0  0  0
  186.8220  178.2800  145.2360 N   0  0  0  0  0  0  0  0  0  0  0  0
  190.2630  177.0740  146.8630 C   0  0  1  0  0  3  0  0  0  0  0  0
  191.6800  176.9740  146.2810 C   0  0  0  0  0  2  0  0  0  0  0  0
  189.6430  177.8390  144.5330 C   0  0  1  0  0  3  0  0  0  0  0  0
  191.6800  176.3260  144.8990 C   0  0  0  0  0  2  0  0  0  0  0  0
  189.1590  177.1280  145.7990 C   0  0  0  0  0  2  0  0  0  0  0  0
  190.8710  177.1620  143.9020 C   0  0  0  0  0  2  0  0  0  0  0  0
  190.0280  175.9990  147.7180 O   0  0  0  0  0  1  0  0  0  0  0  0
  184.9330  178.4470  138.1030 C   0  0  0  0  0  2  0  0  0  0  0  0
  185.5800  177.3340  135.4380 N   0  0  0  0  0  1  0  0  0  0  0  0
  184.5140  177.0510  137.6390 C   0  0  2  0  0  3  0  0  0  0  0  0
  184.3380  177.0010  136.1140 C   0  0  1  0  0  3  0  0  0  0  0  0
  182.0850  177.9200  136.5330 C   0  0  0  0  0  2  0  0  0  0  0  0
  181.9860  176.7010  137.4490 C   0  0  0  0  0  2  0  0  0  0  0  0
  183.2230  176.6090  138.3460 C   0  0  0  0  0  2  0  0  0  0  0  0
  183.2550  177.8780  135.6380 N   0  0  0  0  0  2  0  0  0  0  0  0
  1 11  2  0  0  0  0
  1 13  1  0  0  0  0
  2  6  1  0  0  0  0
  2  8  1  0  0  0  0
  3  8  2  0  0  0  0
  3 12  1  0  0  0  0
  4 18  1  0  0  0  0
  4 15  2  0  0  0  0
  5 11  1  0  0  0  0
  6  5  2  0  0  0  0
  7 14  1  0  0  0  0
  7 18  2  0  0  0  0
  8  1  1  0  0  0  0
  9  7  1  0  0  0  0
 10  4  1  0  0  0  0
 12 19  1  0  0  0  0
 14  2  2  0  0  0  0
 15 16  1  0  0  0  0
 16 12  2  0  0  0  0
 17  9  2  0  0  0  0
 17 10  1  0  0  0  0
 18  3  1  0  0  0  0
 19 13  2  0  0  0  0
 20 26  1  1  0  0  0
 21 20  1  0  0  0  0
 22 16  1  6  0  0  0
 22 24  1  0  0  0  0
 23 21  1  0  0  0  0
 24 20  1  0  0  0  0
 25 22  1  0  0  0  0
 25 23  1  0  0  0  0
 27  9  1  0  0  0  0
 29 27  1  1  0  0  0
 29 33  1  0  0  0  0
 30 28  1  6  0  0  0
 30 29  1  0  0  0  0
 31 32  1  0  0  0  0
 32 33  1  0  0  0  0
 34 30  1  0  0  0  0
 34 31  1  0  0  0  0
M  END
>  <MODEL>
8

>  <REMARK>
 VINA RESULT:      -9.5      1.970      3.168
  Name = 
  3 active torsions:
  status: ('A' for Active; 'I' for Inactive)
    1  A    between atoms: C_3  and  C_13
    2  A    between atoms: C_3  and  C_17
    3  A    between atoms: C_12  and  C_28
                            x       y       z     vdW  Elec       q    Type
                         _______ _______ _______ _____ _____    ______ ____

>  <TORSDO>
F 3

$$$$
=
 OpenBabel11052414073D

 34 40  0  0  1  0  0  0  0  0999 V2000
  188.7730  177.4940  144.6350 C   0  0  0  0  0  0  0  0  0  0  0  0
  190.3300  177.1130  142.7920 C   0  0  0  0  0  0  0  0  0  0  0  0
  188.0770  177.8720  142.3450 C   0  0  0  0  0  0  0  0  0  0  0  0
  187.3720  178.2530  140.0700 C   0  0  0  0  0  0  0  0  0  0  0  0
  191.0300  176.7320  145.0830 C   0  0  0  0  0  3  0  0  0  0  0  0
  191.3150  176.7320  143.7090 C   0  0  0  0  0  3  0  0  0  0  0  0
  189.6410  177.4920  140.5420 C   0  0  0  0  0  0  0  0  0  0  0  0
  189.0590  177.4920  143.2610 C   0  0  0  0  0  0  0  0  0  0  0  0
  189.9400  177.5250  139.1000 C   0  0  0  0  0  0  0  0  0  0  0  0
  187.6360  178.2320  138.5870 C   0  0  0  0  0  2  0  0  0  0  0  0
  189.7610  177.1120  145.5470 C   0  0  0  0  0  3  0  0  0  0  0  0
  186.8070  178.2550  142.8060 C   0  0  0  0  0  0  0  0  0  0  0  0
  187.4960  177.8800  145.0600 C   0  0  0  0  0  3  0  0  0  0  0  0
  190.5900  177.1230  141.4540 N   0  0  0  0  0  0  0  0  0  0  0  0
  186.1430  178.6180  140.5310 N   0  0  0  0  0  0  0  0  0  0  0  0
  185.8320  178.6350  141.8600 C   0  0  0  0  0  0  0  0  0  0  0  0
  189.0240  177.8800  138.2460 N   0  0  0  0  0  0  0  0  0  0  0  0
  188.3650  177.8710  140.9770 C   0  0  0  0  0  0  0  0  0  0  0  0
  186.5520  178.2490  144.1480 N   0  0  0  0  0  0  0  0  0  0  0  0
  181.9760  178.8620  141.7670 C   0  0  1  0  0  3  0  0  0  0  0  0
  181.8120  179.3370  143.2190 C   0  0  0  0  0  2  0  0  0  0  0  0
  184.4490  179.0570  142.2580 C   0  0  1  0  0  3  0  0  0  0  0  0
  182.7820  178.6280  144.1590 C   0  0  0  0  0  2  0  0  0  0  0  0
  183.3770  178.3290  141.4450 C   0  0  0  0  0  2  0  0  0  0  0  0
  184.2350  178.9290  143.7760 C   0  0  0  0  0  2  0  0  0  0  0  0
  181.0300  177.8780  141.4850 O   0  0  0  0  0  1  0  0  0  0  0  0
  191.3140  177.2020  138.6060 C   0  0  0  0  0  2  0  0  0  0  0  0
  193.9300  175.8460  138.3350 N   0  0  0  0  0  1  0  0  0  0  0  0
  191.4720  175.7030  138.3520 C   0  0  2  0  0  3  0  0  0  0  0  0
  192.7680  175.4030  137.5840 C   0  0  1  0  0  3  0  0  0  0  0  0
  191.4750  175.9660  135.5570 C   0  0  0  0  0  2  0  0  0  0  0  0
  190.5380  174.8930  136.1110 C   0  0  0  0  0  2  0  0  0  0  0  0
  190.2560  175.1500  137.5940 C   0  0  0  0  0  2  0  0  0  0  0  0
  192.7820  175.9990  136.2370 N   0  0  0  0  0  2  0  0  0  0  0  0
  1 13  1  0  0  0  0
  1 11  2  0  0  0  0
  2  8  1  0  0  0  0
  2  6  1  0  0  0  0
  3 12  1  0  0  0  0
  3  8  2  0  0  0  0
  4 15  2  0  0  0  0
  4 18  1  0  0  0  0
  5 11  1  0  0  0  0
  6  5  2  0  0  0  0
  7 18  2  0  0  0  0
  7 14  1  0  0  0  0
  8  1  1  0  0  0  0
  9  7  1  0  0  0  0
 10  4  1  0  0  0  0
 12 19  1  0  0  0  0
 14  2  2  0  0  0  0
 15 16  1  0  0  0  0
 16 12  2  0  0  0  0
 17 10  1  0  0  0  0
 17  9  2  0  0  0  0
 18  3  1  0  0  0  0
 19 13  2  0  0  0  0
 20 26  1  1  0  0  0
 20 21  1  0  0  0  0
 21 23  1  0  0  0  0
 22 16  1  1  0  0  0
 22 25  1  0  0  0  0
 24 20  1  0  0  0  0
 24 22  1  0  0  0  0
 25 23  1  0  0  0  0
 27  9  1  0  0  0  0
 29 27  1  6  0  0  0
 30 28  1  1  0  0  0
 30 29  1  0  0  0  0
 31 32  1  0  0  0  0
 31 34  1  0  0  0  0
 32 33  1  0  0  0  0
 33 29  1  0  0  0  0
 34 30  1  0  0  0  0
M  END
>  <MODEL>
9

>  <REMARK>
 VINA RESULT:      -9.5      2.828      5.446
  Name = 
  3 active torsions:
  status: ('A' for Active; 'I' for Inactive)
    1  A    between atoms: C_3  and  C_13
    2  A    between atoms: C_3  and  C_17
    3  A    between atoms: C_12  and  C_28
                            x       y       z     vdW  Elec       q    Type
                         _______ _______ _______ _____ _____    ______ ____

>  <TORSDO>
F 3

$$$$
