=
 OpenBabel11052413403D

 27 30  0  0  1  0  0  0  0  0999 V2000
  187.8300  177.7640  146.3450 O   0  0  0  0  0  1  0  0  0  0  0  0
  187.9420  178.5380  142.7350 N   0  0  0  0  0  2  0  0  0  0  0  0
  190.3530  178.2740  142.5550 N   0  0  0  0  0  2  0  0  0  0  0  0
  187.4770  177.8960  143.9590 C   0  0  1  0  0  3  0  0  0  0  0  0
  188.3110  178.3490  145.1700 C   0  0  2  0  0  3  0  0  0  0  0  0
  189.0330  177.7180  142.2220 C   0  0  2  0  0  3  0  0  0  0  0  0
  191.8330  179.3170  144.1920 C   0  0  0  0  0  1  0  0  0  0  0  0
  189.8150  178.0680  145.0190 C   0  0  2  0  0  3  0  0  0  0  0  0
  190.4050  178.9150  143.8760 C   0  0  2  0  0  3  0  0  0  0  0  0
  188.6900  177.1360  137.9680 C   0  0  0  0  0  3  0  0  0  0  0  0
  186.7760  178.5460  137.9190 F   0  0  0  0  0  0  0  0  0  0  0  0
  190.8490  176.0810  140.7620 O   0  0  0  0  0  1  0  0  0  0  0  0
  187.8660  178.1510  140.0100 C   0  0  0  0  0  0  0  0  0  0  0  0
  186.9380  178.9650  140.6510 O   0  0  0  0  0  1  0  0  0  0  0  0
  188.9000  177.5290  140.7390 C   0  0  0  0  0  0  0  0  0  0  0  0
  187.7670  177.9520  138.6270 C   0  0  0  0  0  0  0  0  0  0  0  0
  189.7140  176.5160  138.6870 C   0  0  0  0  0  3  0  0  0  0  0  0
  189.8220  176.7090  140.0670 C   0  0  0  0  0  0  0  0  0  0  0  0
  183.2890  178.7090  144.4750 C   0  0  0  0  0  3  0  0  0  0  0  0
  186.0200  178.1810  144.1540 C   0  0  0  0  0  0  0  0  0  0  0  0
  185.5020  178.4730  145.4250 C   0  0  0  0  0  3  0  0  0  0  0  0
  184.1390  178.7360  145.5840 C   0  0  0  0  0  3  0  0  0  0  0  0
  183.8010  178.4180  143.2080 C   0  0  0  0  0  3  0  0  0  0  0  0
  185.1650  178.1550  143.0470 C   0  0  0  0  0  3  0  0  0  0  0  0
  190.8460  176.1150  146.1810 C   0  0  0  0  0  2  0  0  0  0  0  0
  191.6490  176.3700  144.9250 C   0  0  0  0  0  2  0  0  0  0  0  0
  190.1450  176.5740  144.9160 C   0  0  0  0  0  3  0  0  0  0  0  0
  2  4  1  0  0  0  0
  3  9  1  0  0  0  0
  4 20  1  1  0  0  0
  4  5  1  0  0  0  0
  5  1  1  1  0  0  0
  6 15  1  6  0  0  0
  6  3  1  0  0  0  0
  6  2  1  0  0  0  0
  8 27  1  6  0  0  0
  8  5  1  0  0  0  0
  9  7  1  1  0  0  0
  9  8  1  0  0  0  0
 10 16  2  0  0  0  0
 10 17  1  0  0  0  0
 11 16  1  0  0  0  0
 13 14  1  0  0  0  0
 13 15  2  0  0  0  0
 16 13  1  0  0  0  0
 17 18  2  0  0  0  0
 18 15  1  0  0  0  0
 18 12  1  0  0  0  0
 19 22  1  0  0  0  0
 20 21  1  0  0  0  0
 21 22  2  0  0  0  0
 23 19  2  0  0  0  0
 24 23  1  0  0  0  0
 24 20  2  0  0  0  0
 26 25  1  0  0  0  0
 27 26  1  0  0  0  0
 27 25  1  0  0  0  0
M  END
>  <MODEL>
1

>  <REMARK>
 VINA RESULT:      -8.6      0.000      0.000
  Name = 
  3 active torsions:
  status: ('A' for Active; 'I' for Inactive)
    1  A    between atoms: C_9  and  C_15
    2  A    between atoms: C_14  and  C_19
    3  A    between atoms: C_22  and  C_24
                            x       y       z     vdW  Elec       q    Type
                         _______ _______ _______ _____ _____    ______ ____

>  <TORSDO>
F 3

$$$$
=
 OpenBabel11052413403D

 27 30  0  0  1  0  0  0  0  0999 V2000
  191.5660  176.6450  140.2110 O   0  0  0  0  0  1  0  0  0  0  0  0
  188.5770  178.5370  141.2720 N   0  0  0  0  0  2  0  0  0  0  0  0
  187.6040  178.6260  139.0450 N   0  0  0  0  0  2  0  0  0  0  0  0
  189.5900  177.4890  141.3140 C   0  0  1  0  0  3  0  0  0  0  0  0
  190.5730  177.6250  140.1370 C   0  0  2  0  0  3  0  0  0  0  0  0
  187.5140  178.0560  140.3970 C   0  0  2  0  0  3  0  0  0  0  0  0
  188.9730  179.2560  137.1250 C   0  0  0  0  0  1  0  0  0  0  0  0
  189.8920  177.5840  138.7600 C   0  0  2  0  0  3  0  0  0  0  0  0
  188.9840  178.8140  138.5750 C   0  0  2  0  0  3  0  0  0  0  0  0
  183.6290  178.8660  142.0710 C   0  0  0  0  0  3  0  0  0  0  0  0
  184.3960  178.1740  144.2130 F   0  0  0  0  0  0  0  0  0  0  0  0
  185.3570  179.0440  138.8210 O   0  0  0  0  0  1  0  0  0  0  0  0
  185.9150  178.1150  142.3680 C   0  0  0  0  0  0  0  0  0  0  0  0
  186.9180  177.6330  143.2040 O   0  0  0  0  0  1  0  0  0  0  0  0
  186.1680  178.3360  140.9980 C   0  0  0  0  0  0  0  0  0  0  0  0
  184.6470  178.3830  142.8980 C   0  0  0  0  0  0  0  0  0  0  0  0
  183.8740  179.0840  140.7150 C   0  0  0  0  0  3  0  0  0  0  0  0
  185.1370  178.8210  140.1760 C   0  0  0  0  0  0  0  0  0  0  0  0
  191.6100  177.5510  145.1060 C   0  0  0  0  0  3  0  0  0  0  0  0
  190.2980  177.5250  142.6320 C   0  0  0  0  0  0  0  0  0  0  0  0
  190.9220  178.6960  143.0880 C   0  0  0  0  0  3  0  0  0  0  0  0
  191.5770  178.7070  144.3220 C   0  0  0  0  0  3  0  0  0  0  0  0
  190.9890  176.3830  144.6550 C   0  0  0  0  0  3  0  0  0  0  0  0
  190.3330  176.3700  143.4200 C   0  0  0  0  0  3  0  0  0  0  0  0
  190.0950  175.3750  137.6160 C   0  0  0  0  0  2  0  0  0  0  0  0
  188.9350  176.1100  136.9810 C   0  0  0  0  0  2  0  0  0  0  0  0
  189.1940  176.2490  138.4690 C   0  0  0  0  0  3  0  0  0  0  0  0
  2  4  1  0  0  0  0
  3  6  1  0  0  0  0
  4 20  1  1  0  0  0
  5  1  1  6  0  0  0
  5  4  1  0  0  0  0
  6 15  1  1  0  0  0
  6  2  1  0  0  0  0
  8 27  1  1  0  0  0
  8  5  1  0  0  0  0
  9  7  1  6  0  0  0
  9  8  1  0  0  0  0
  9  3  1  0  0  0  0
 10 16  1  0  0  0  0
 12 18  1  0  0  0  0
 13 16  2  0  0  0  0
 13 14  1  0  0  0  0
 15 13  1  0  0  0  0
 16 11  1  0  0  0  0
 17 10  2  0  0  0  0
 18 17  1  0  0  0  0
 18 15  2  0  0  0  0
 20 21  2  0  0  0  0
 20 24  1  0  0  0  0
 21 22  1  0  0  0  0
 22 19  2  0  0  0  0
 23 19  1  0  0  0  0
 24 23  2  0  0  0  0
 25 27  1  0  0  0  0
 26 25  1  0  0  0  0
 26 27  1  0  0  0  0
M  END
>  <MODEL>
2

>  <REMARK>
 VINA RESULT:      -8.4      2.163      5.992
  Name = 
  3 active torsions:
  status: ('A' for Active; 'I' for Inactive)
    1  A    between atoms: C_9  and  C_15
    2  A    between atoms: C_14  and  C_19
    3  A    between atoms: C_22  and  C_24
                            x       y       z     vdW  Elec       q    Type
                         _______ _______ _______ _____ _____    ______ ____

>  <TORSDO>
F 3

$$$$
=
 OpenBabel11052413403D

 27 30  0  0  1  0  0  0  0  0999 V2000
  187.8180  177.7360  146.3920 O   0  0  0  0  0  1  0  0  0  0  0  0
  188.0110  178.5180  142.7870 N   0  0  0  0  0  2  0  0  0  0  0  0
  190.4290  178.2830  142.6680 N   0  0  0  0  0  2  0  0  0  0  0  0
  187.5230  177.8670  143.9990 C   0  0  1  0  0  3  0  0  0  0  0  0
  188.3210  178.3280  145.2310 C   0  0  2  0  0  3  0  0  0  0  0  0
  189.1240  177.7120  142.3010 C   0  0  2  0  0  3  0  0  0  0  0  0
  191.8540  179.3410  144.3430 C   0  0  0  0  0  1  0  0  0  0  0  0
  189.8320  178.0660  145.1180 C   0  0  2  0  0  3  0  0  0  0  0  0
  190.4400  178.9230  143.9910 C   0  0  2  0  0  3  0  0  0  0  0  0
  188.8210  177.2140  138.0340 C   0  0  0  0  0  3  0  0  0  0  0  0
  190.6790  175.7300  138.0640 F   0  0  0  0  0  0  0  0  0  0  0  0
  187.1350  179.0400  140.7540 O   0  0  0  0  0  1  0  0  0  0  0  0
  189.9300  176.6850  140.1240 C   0  0  0  0  0  0  0  0  0  0  0  0
  190.9310  176.0030  140.8080 O   0  0  0  0  0  1  0  0  0  0  0  0
  189.0310  177.5240  140.8150 C   0  0  0  0  0  0  0  0  0  0  0  0
  189.8190  176.5340  138.7360 C   0  0  0  0  0  0  0  0  0  0  0  0
  187.9300  178.0460  138.7140 C   0  0  0  0  0  3  0  0  0  0  0  0
  188.0320  178.2040  140.0990 C   0  0  0  0  0  0  0  0  0  0  0  0
  183.3140  178.6280  144.4100 C   0  0  0  0  0  3  0  0  0  0  0  0
  186.0590  178.1340  144.1570 C   0  0  0  0  0  0  0  0  0  0  0  0
  185.5000  178.3840  145.4200 C   0  0  0  0  0  3  0  0  0  0  0  0
  184.1300  178.6300  145.5440 C   0  0  0  0  0  3  0  0  0  0  0  0
  183.8670  178.3800  143.1510 C   0  0  0  0  0  3  0  0  0  0  0  0
  185.2380  178.1330  143.0240 C   0  0  0  0  0  3  0  0  0  0  0  0
  190.7660  176.1000  146.3380 C   0  0  0  0  0  2  0  0  0  0  0  0
  191.6800  176.3830  145.1670 C   0  0  0  0  0  2  0  0  0  0  0  0
  190.1830  176.5760  145.0210 C   0  0  0  0  0  3  0  0  0  0  0  0
  2  4  1  0  0  0  0
  3  9  1  0  0  0  0
  4 20  1  1  0  0  0
  4  5  1  0  0  0  0
  5  1  1  1  0  0  0
  6 15  1  6  0  0  0
  6  3  1  0  0  0  0
  6  2  1  0  0  0  0
  8 27  1  6  0  0  0
  8  5  1  0  0  0  0
  9  7  1  1  0  0  0
  9  8  1  0  0  0  0
 10 17  2  0  0  0  0
 10 16  1  0  0  0  0
 11 16  1  0  0  0  0
 13 14  1  0  0  0  0
 13 15  1  0  0  0  0
 16 13  2  0  0  0  0
 17 18  1  0  0  0  0
 18 12  1  0  0  0  0
 18 15  2  0  0  0  0
 19 22  1  0  0  0  0
 20 21  1  0  0  0  0
 21 22  2  0  0  0  0
 23 19  2  0  0  0  0
 24 23  1  0  0  0  0
 24 20  2  0  0  0  0
 26 25  1  0  0  0  0
 27 26  1  0  0  0  0
 27 25  1  0  0  0  0
M  END
>  <MODEL>
3

>  <REMARK>
 VINA RESULT:      -8.3      0.936      1.870
  Name = 
  3 active torsions:
  status: ('A' for Active; 'I' for Inactive)
    1  A    between atoms: C_9  and  C_15
    2  A    between atoms: C_14  and  C_19
    3  A    between atoms: C_22  and  C_24
                            x       y       z     vdW  Elec       q    Type
                         _______ _______ _______ _____ _____    ______ ____

>  <TORSDO>
F 3

$$$$
=
 OpenBabel11052413403D

 27 30  0  0  1  0  0  0  0  0999 V2000
  181.0070  179.8590  143.1330 O   0  0  0  0  0  1  0  0  0  0  0  0
  182.9940  177.6240  140.9670 N   0  0  0  0  0  2  0  0  0  0  0  0
  181.3750  177.6250  139.1520 N   0  0  0  0  0  2  0  0  0  0  0  0
  182.7280  178.7540  141.8500 C   0  0  1  0  0  3  0  0  0  0  0  0
  181.2430  178.8020  142.2510 C   0  0  2  0  0  3  0  0  0  0  0  0
  182.6980  178.0740  139.6120 C   0  0  2  0  0  3  0  0  0  0  0  0
  179.0040  177.2760  139.6140 C   0  0  0  0  0  1  0  0  0  0  0  0
  180.2850  178.8900  141.0520 C   0  0  2  0  0  3  0  0  0  0  0  0
  180.3590  177.6010  140.2120 C   0  0  2  0  0  3  0  0  0  0  0  0
  185.7990  176.8310  136.8940 C   0  0  0  0  0  3  0  0  0  0  0  0
  184.6720  174.7680  136.5360 F   0  0  0  0  0  0  0  0  0  0  0  0
  184.9420  179.7220  139.0120 O   0  0  0  0  0  1  0  0  0  0  0  0
  183.7070  176.3670  138.0280 C   0  0  0  0  0  0  0  0  0  0  0  0
  182.6430  175.5030  138.2700 O   0  0  0  0  0  1  0  0  0  0  0  0
  183.7680  177.6260  138.6600 C   0  0  0  0  0  0  0  0  0  0  0  0
  184.7230  175.9760  137.1470 C   0  0  0  0  0  0  0  0  0  0  0  0
  185.8640  178.0770  137.5190 C   0  0  0  0  0  3  0  0  0  0  0  0
  184.8550  178.4770  138.4000 C   0  0  0  0  0  0  0  0  0  0  0  0
  185.3290  178.5220  145.2620 C   0  0  0  0  0  3  0  0  0  0  0  0
  183.6220  178.6770  143.0480 C   0  0  0  0  0  0  0  0  0  0  0  0
  183.1260  178.9100  144.3390 C   0  0  0  0  0  3  0  0  0  0  0  0
  183.9790  178.8330  145.4430 C   0  0  0  0  0  3  0  0  0  0  0  0
  185.8270  178.2890  143.9770 C   0  0  0  0  0  3  0  0  0  0  0  0
  184.9750  178.3660  142.8720 C   0  0  0  0  0  3  0  0  0  0  0  0
  179.4310  181.2030  140.6660 C   0  0  0  0  0  2  0  0  0  0  0  0
  179.2240  180.4240  139.3860 C   0  0  0  0  0  2  0  0  0  0  0  0
  180.4590  180.1740  140.2320 C   0  0  0  0  0  3  0  0  0  0  0  0
  2  4  1  0  0  0  0
  3  6  1  0  0  0  0
  3  9  1  0  0  0  0
  4  5  1  0  0  0  0
  4 20  1  1  0  0  0
  5  1  1  1  0  0  0
  6 15  1  6  0  0  0
  6  2  1  0  0  0  0
  8 27  1  6  0  0  0
  8  5  1  0  0  0  0
  9  7  1  6  0  0  0
  9  8  1  0  0  0  0
 10 16  2  0  0  0  0
 10 17  1  0  0  0  0
 11 16  1  0  0  0  0
 13 14  1  0  0  0  0
 13 15  2  0  0  0  0
 16 13  1  0  0  0  0
 17 18  2  0  0  0  0
 18 15  1  0  0  0  0
 18 12  1  0  0  0  0
 19 22  1  0  0  0  0
 20 21  1  0  0  0  0
 21 22  2  0  0  0  0
 23 19  2  0  0  0  0
 24 20  2  0  0  0  0
 24 23  1  0  0  0  0
 26 27  1  0  0  0  0
 26 25  1  0  0  0  0
 27 25  1  0  0  0  0
M  END
>  <MODEL>
4

>  <REMARK>
 VINA RESULT:      -8.3      4.340      7.470
  Name = 
  3 active torsions:
  status: ('A' for Active; 'I' for Inactive)
    1  A    between atoms: C_9  and  C_15
    2  A    between atoms: C_14  and  C_19
    3  A    between atoms: C_22  and  C_24
                            x       y       z     vdW  Elec       q    Type
                         _______ _______ _______ _____ _____    ______ ____

>  <TORSDO>
F 3

$$$$
=
 OpenBabel11052413403D

 27 30  0  0  1  0  0  0  0  0999 V2000
  191.6070  176.6530  140.2390 O   0  0  0  0  0  1  0  0  0  0  0  0
  188.6020  178.5310  141.2810 N   0  0  0  0  0  2  0  0  0  0  0  0
  187.6350  178.6010  139.0500 N   0  0  0  0  0  2  0  0  0  0  0  0
  189.6210  177.4890  141.3310 C   0  0  1  0  0  3  0  0  0  0  0  0
  190.6080  177.6260  140.1570 C   0  0  2  0  0  3  0  0  0  0  0  0
  187.5440  178.0380  140.4060 C   0  0  2  0  0  3  0  0  0  0  0  0
  189.0060  179.2300  137.1310 C   0  0  0  0  0  1  0  0  0  0  0  0
  189.9310  177.5730  138.7780 C   0  0  2  0  0  3  0  0  0  0  0  0
  189.0150  178.7960  138.5840 C   0  0  2  0  0  3  0  0  0  0  0  0
  183.6910  178.8160  142.1650 C   0  0  0  0  0  3  0  0  0  0  0  0
  182.8690  179.5610  140.0610 F   0  0  0  0  0  0  0  0  0  0  0  0
  187.0100  177.5620  143.1630 O   0  0  0  0  0  1  0  0  0  0  0  0
  185.1380  178.8220  140.2190 C   0  0  0  0  0  0  0  0  0  0  0  0
  185.3200  179.0820  138.8650 O   0  0  0  0  0  1  0  0  0  0  0  0
  186.1950  178.3120  141.0010 C   0  0  0  0  0  0  0  0  0  0  0  0
  183.8900  179.0710  140.8060 C   0  0  0  0  0  0  0  0  0  0  0  0
  184.7350  178.3140  142.9430 C   0  0  0  0  0  3  0  0  0  0  0  0
  185.9840  178.0620  142.3670 C   0  0  0  0  0  0  0  0  0  0  0  0
  191.6320  177.5850  145.1280 C   0  0  0  0  0  3  0  0  0  0  0  0
  190.3250  177.5380  142.6520 C   0  0  0  0  0  0  0  0  0  0  0  0
  190.8720  178.7350  143.1380 C   0  0  0  0  0  3  0  0  0  0  0  0
  191.5240  178.7570  144.3740 C   0  0  0  0  0  3  0  0  0  0  0  0
  191.0880  176.3910  144.6460 C   0  0  0  0  0  3  0  0  0  0  0  0
  190.4350  176.3670  143.4100 C   0  0  0  0  0  3  0  0  0  0  0  0
  190.1400  175.3700  137.6230 C   0  0  0  0  0  2  0  0  0  0  0  0
  188.9650  176.0950  137.0070 C   0  0  0  0  0  2  0  0  0  0  0  0
  189.2430  176.2320  138.4920 C   0  0  0  0  0  3  0  0  0  0  0  0
  2  4  1  0  0  0  0
  3  6  1  0  0  0  0
  4 20  1  1  0  0  0
  5  1  1  6  0  0  0
  5  4  1  0  0  0  0
  6 15  1  1  0  0  0
  6  2  1  0  0  0  0
  8 27  1  1  0  0  0
  8  5  1  0  0  0  0
  9  7  1  6  0  0  0
  9  8  1  0  0  0  0
  9  3  1  0  0  0  0
 10 17  1  0  0  0  0
 11 16  1  0  0  0  0
 13 16  1  0  0  0  0
 13 15  2  0  0  0  0
 14 13  1  0  0  0  0
 15 18  1  0  0  0  0
 16 10  2  0  0  0  0
 18 17  2  0  0  0  0
 18 12  1  0  0  0  0
 20 21  2  0  0  0  0
 20 24  1  0  0  0  0
 21 22  1  0  0  0  0
 22 19  2  0  0  0  0
 23 19  1  0  0  0  0
 24 23  2  0  0  0  0
 25 27  1  0  0  0  0
 26 25  1  0  0  0  0
 26 27  1  0  0  0  0
M  END
>  <MODEL>
5

>  <REMARK>
 VINA RESULT:      -8.2      1.937      5.804
  Name = 
  3 active torsions:
  status: ('A' for Active; 'I' for Inactive)
    1  A    between atoms: C_9  and  C_15
    2  A    between atoms: C_14  and  C_19
    3  A    between atoms: C_22  and  C_24
                            x       y       z     vdW  Elec       q    Type
                         _______ _______ _______ _____ _____    ______ ____

>  <TORSDO>
F 3

$$$$
=
 OpenBabel11052413403D

 27 30  0  0  1  0  0  0  0  0999 V2000
  191.7930  177.7870  140.6740 O   0  0  0  0  0  1  0  0  0  0  0  0
  188.1760  177.2290  141.1750 N   0  0  0  0  0  2  0  0  0  0  0  0
  188.2960  177.3520  143.6010 N   0  0  0  0  0  2  0  0  0  0  0  0
  189.3790  177.8240  140.6030 C   0  0  1  0  0  3  0  0  0  0  0  0
  190.6460  177.2460  141.2600 C   0  0  2  0  0  3  0  0  0  0  0  0
  187.8500  178.0090  142.3630 C   0  0  2  0  0  3  0  0  0  0  0  0
  190.0190  176.1210  144.8140 C   0  0  0  0  0  1  0  0  0  0  0  0
  190.6900  177.4410  142.7840 C   0  0  2  0  0  3  0  0  0  0  0  0
  189.5680  176.6290  143.4590 C   0  0  2  0  0  3  0  0  0  0  0  0
  183.6250  178.8340  142.4700 C   0  0  0  0  0  3  0  0  0  0  0  0
  183.5780  178.3510  144.7980 F   0  0  0  0  0  0  0  0  0  0  0  0
  186.3960  178.7900  140.0420 O   0  0  0  0  0  1  0  0  0  0  0  0
  185.6550  178.1840  143.6250 C   0  0  0  0  0  0  0  0  0  0  0  0
  186.2940  177.8060  144.8020 O   0  0  0  0  0  1  0  0  0  0  0  0
  186.3780  178.2960  142.4200 C   0  0  0  0  0  0  0  0  0  0  0  0
  184.2810  178.4560  143.6440 C   0  0  0  0  0  0  0  0  0  0  0  0
  184.3370  178.9440  141.2750 C   0  0  0  0  0  3  0  0  0  0  0  0
  185.7080  178.6760  141.2450 C   0  0  0  0  0  0  0  0  0  0  0  0
  189.3860  177.2810  136.3400 C   0  0  0  0  0  3  0  0  0  0  0  0
  189.3840  177.6190  139.1200 C   0  0  0  0  0  0  0  0  0  0  0  0
  189.5840  176.3470  138.5640 C   0  0  0  0  0  3  0  0  0  0  0  0
  189.5850  176.1790  137.1770 C   0  0  0  0  0  3  0  0  0  0  0  0
  189.1860  178.5500  136.8900 C   0  0  0  0  0  3  0  0  0  0  0  0
  189.1850  178.7190  138.2780 C   0  0  0  0  0  3  0  0  0  0  0  0
  192.0040  179.1950  143.9770 C   0  0  0  0  0  2  0  0  0  0  0  0
  190.6970  179.0250  144.7190 C   0  0  0  0  0  2  0  0  0  0  0  0
  190.7270  178.9150  143.2060 C   0  0  0  0  0  3  0  0  0  0  0  0
  2  6  1  0  0  0  0
  4 20  1  6  0  0  0
  4  2  1  0  0  0  0
  4  5  1  0  0  0  0
  5  1  1  6  0  0  0
  5  8  1  0  0  0  0
  6 15  1  1  0  0  0
  6  3  1  0  0  0  0
  8 27  1  6  0  0  0
  8  9  1  0  0  0  0
  9  3  1  0  0  0  0
  9  7  1  1  0  0  0
 10 16  1  0  0  0  0
 12 18  1  0  0  0  0
 13 16  2  0  0  0  0
 13 14  1  0  0  0  0
 15 13  1  0  0  0  0
 16 11  1  0  0  0  0
 17 10  2  0  0  0  0
 18 17  1  0  0  0  0
 18 15  2  0  0  0  0
 19 23  2  0  0  0  0
 19 22  1  0  0  0  0
 21 20  1  0  0  0  0
 22 21  2  0  0  0  0
 23 24  1  0  0  0  0
 24 20  2  0  0  0  0
 25 26  1  0  0  0  0
 27 25  1  0  0  0  0
 27 26  1  0  0  0  0
M  END
>  <MODEL>
6

>  <REMARK>
 VINA RESULT:      -7.8      2.050      5.653
  Name = 
  3 active torsions:
  status: ('A' for Active; 'I' for Inactive)
    1  A    between atoms: C_9  and  C_15
    2  A    between atoms: C_14  and  C_19
    3  A    between atoms: C_22  and  C_24
                            x       y       z     vdW  Elec       q    Type
                         _______ _______ _______ _____ _____    ______ ____

>  <TORSDO>
F 3

$$$$
=
 OpenBabel11052413403D

 27 30  0  0  1  0  0  0  0  0999 V2000
  188.2760  178.6470  140.2870 O   0  0  0  0  0  1  0  0  0  0  0  0
  190.4830  175.8000  139.4680 N   0  0  0  0  0  2  0  0  0  0  0  0
  189.7980  175.6890  137.1380 N   0  0  0  0  0  2  0  0  0  0  0  0
  190.1110  177.0990  140.0180 C   0  0  1  0  0  3  0  0  0  0  0  0
  188.6360  177.4230  139.7180 C   0  0  2  0  0  3  0  0  0  0  0  0
  190.8720  176.0300  138.0820 C   0  0  2  0  0  3  0  0  0  0  0  0
  187.4310  175.7590  136.5440 C   0  0  0  0  0  1  0  0  0  0  0  0
  188.3000  177.4190  138.2170 C   0  0  2  0  0  3  0  0  0  0  0  0
  188.4520  176.0000  137.6390 C   0  0  2  0  0  3  0  0  0  0  0  0
  194.4960  173.8930  137.1610 C   0  0  0  0  0  3  0  0  0  0  0  0
  193.2200  172.0600  136.3440 F   0  0  0  0  0  0  0  0  0  0  0  0
  193.4520  177.1280  138.5840 O   0  0  0  0  0  1  0  0  0  0  0  0
  192.0730  173.9830  137.1830 C   0  0  0  0  0  0  0  0  0  0  0  0
  190.8510  173.3780  136.9090 O   0  0  0  0  0  1  0  0  0  0  0  0
  192.1240  175.2720  137.7510 C   0  0  0  0  0  0  0  0  0  0  0  0
  193.2610  173.3000  136.8900 C   0  0  0  0  0  0  0  0  0  0  0  0
  194.5510  175.1690  137.7250 C   0  0  0  0  0  3  0  0  0  0  0  0
  193.3720  175.8590  138.0210 C   0  0  0  0  0  0  0  0  0  0  0  0
  190.8860  177.1390  144.2450 C   0  0  0  0  0  3  0  0  0  0  0  0
  190.3930  177.1230  141.4880 C   0  0  0  0  0  0  0  0  0  0  0  0
  191.4540  177.8780  142.0110 C   0  0  0  0  0  3  0  0  0  0  0  0
  191.6980  177.8850  143.3870 C   0  0  0  0  0  3  0  0  0  0  0  0
  189.8280  176.3850  143.7270 C   0  0  0  0  0  3  0  0  0  0  0  0
  189.5820  176.3770  142.3510 C   0  0  0  0  0  3  0  0  0  0  0  0
  188.0680  179.4900  136.8440 C   0  0  0  0  0  2  0  0  0  0  0  0
  188.6740  178.4240  135.9580 C   0  0  0  0  0  2  0  0  0  0  0  0
  189.0550  178.4950  137.4260 C   0  0  0  0  0  3  0  0  0  0  0  0
  2  4  1  0  0  0  0
  3  9  1  0  0  0  0
  3  6  1  0  0  0  0
  4 20  1  1  0  0  0
  5  4  1  0  0  0  0
  5  1  1  6  0  0  0
  6 15  1  6  0  0  0
  6  2  1  0  0  0  0
  8 27  1  6  0  0  0
  8  5  1  0  0  0  0
  9  7  1  6  0  0  0
  9  8  1  0  0  0  0
 10 17  1  0  0  0  0
 11 16  1  0  0  0  0
 13 15  2  0  0  0  0
 14 13  1  0  0  0  0
 15 18  1  0  0  0  0
 16 10  2  0  0  0  0
 16 13  1  0  0  0  0
 17 18  2  0  0  0  0
 18 12  1  0  0  0  0
 20 21  2  0  0  0  0
 20 24  1  0  0  0  0
 21 22  1  0  0  0  0
 22 19  2  0  0  0  0
 23 19  1  0  0  0  0
 24 23  2  0  0  0  0
 25 27  1  0  0  0  0
 26 25  1  0  0  0  0
 26 27  1  0  0  0  0
M  END
>  <MODEL>
7

>  <REMARK>
 VINA RESULT:      -7.8      3.907      6.828
  Name = 
  3 active torsions:
  status: ('A' for Active; 'I' for Inactive)
    1  A    between atoms: C_9  and  C_15
    2  A    between atoms: C_14  and  C_19
    3  A    between atoms: C_22  and  C_24
                            x       y       z     vdW  Elec       q    Type
                         _______ _______ _______ _____ _____    ______ ____

>  <TORSDO>
F 3

$$$$
=
 OpenBabel11052413403D

 27 30  0  0  1  0  0  0  0  0999 V2000
  190.6460  176.5730  140.5980 O   0  0  0  0  0  1  0  0  0  0  0  0
  187.5210  178.5300  140.3800 N   0  0  0  0  0  2  0  0  0  0  0  0
  187.4350  178.4860  137.9500 N   0  0  0  0  0  2  0  0  0  0  0  0
  188.4240  177.4840  140.8490 C   0  0  1  0  0  3  0  0  0  0  0  0
  189.7730  177.5490  140.1110 C   0  0  2  0  0  3  0  0  0  0  0  0
  186.8420  177.9990  139.2040 C   0  0  2  0  0  3  0  0  0  0  0  0
  189.4270  178.9990  136.6360 C   0  0  0  0  0  1  0  0  0  0  0  0
  189.6440  177.4260  138.5840 C   0  0  2  0  0  3  0  0  0  0  0  0
  188.8950  178.6440  138.0110 C   0  0  2  0  0  3  0  0  0  0  0  0
  182.6440  178.9420  139.3840 C   0  0  0  0  0  3  0  0  0  0  0  0
  182.2900  177.8060  137.3250 F   0  0  0  0  0  0  0  0  0  0  0  0
  185.7110  179.4860  141.3530 O   0  0  0  0  0  1  0  0  0  0  0  0
  184.5010  177.8930  138.2310 C   0  0  0  0  0  0  0  0  0  0  0  0
  184.9770  177.1630  137.1460 O   0  0  0  0  0  1  0  0  0  0  0  0
  185.3760  178.3160  139.2520 C   0  0  0  0  0  0  0  0  0  0  0  0
  183.1380  178.2090  138.3030 C   0  0  0  0  0  0  0  0  0  0  0  0
  183.5070  179.3640  140.3960 C   0  0  0  0  0  3  0  0  0  0  0  0
  184.8690  179.0540  140.3340 C   0  0  0  0  0  0  0  0  0  0  0  0
  188.8880  177.7920  145.1100 C   0  0  0  0  0  3  0  0  0  0  0  0
  188.5990  177.5990  142.3310 C   0  0  0  0  0  0  0  0  0  0  0  0
  189.7110  178.2540  142.8810 C   0  0  0  0  0  3  0  0  0  0  0  0
  189.8540  178.3490  144.2680 C   0  0  0  0  0  3  0  0  0  0  0  0
  187.7790  177.1380  144.5660 C   0  0  0  0  0  3  0  0  0  0  0  0
  187.6340  177.0420  143.1780 C   0  0  0  0  0  3  0  0  0  0  0  0
  190.1860  175.2000  137.5930 C   0  0  0  0  0  2  0  0  0  0  0  0
  189.2550  175.9090  136.6350 C   0  0  0  0  0  2  0  0  0  0  0  0
  189.0700  176.0770  138.1310 C   0  0  0  0  0  3  0  0  0  0  0  0
  2  4  1  0  0  0  0
  3  9  1  0  0  0  0
  3  6  1  0  0  0  0
  4 20  1  1  0  0  0
  5  1  1  1  0  0  0
  5  4  1  0  0  0  0
  6 15  1  1  0  0  0
  6  2  1  0  0  0  0
  8 27  1  1  0  0  0
  8  5  1  0  0  0  0
  9  7  1  6  0  0  0
  9  8  1  0  0  0  0
 10 17  1  0  0  0  0
 11 16  1  0  0  0  0
 13 16  1  0  0  0  0
 13 15  2  0  0  0  0
 14 13  1  0  0  0  0
 15 18  1  0  0  0  0
 16 10  2  0  0  0  0
 18 17  2  0  0  0  0
 18 12  1  0  0  0  0
 20 21  2  0  0  0  0
 20 24  1  0  0  0  0
 21 22  1  0  0  0  0
 22 19  2  0  0  0  0
 23 19  1  0  0  0  0
 24 23  2  0  0  0  0
 25 27  1  0  0  0  0
 26 25  1  0  0  0  0
 26 27  1  0  0  0  0
M  END
>  <MODEL>
8

>  <REMARK>
 VINA RESULT:      -7.8      2.503      5.610
  Name = 
  3 active torsions:
  status: ('A' for Active; 'I' for Inactive)
    1  A    between atoms: C_9  and  C_15
    2  A    between atoms: C_14  and  C_19
    3  A    between atoms: C_22  and  C_24
                            x       y       z     vdW  Elec       q    Type
                         _______ _______ _______ _____ _____    ______ ____

>  <TORSDO>
F 3

$$$$
=
 OpenBabel11052413403D

 27 30  0  0  1  0  0  0  0  0999 V2000
  191.8430  177.8100  140.6590 O   0  0  0  0  0  1  0  0  0  0  0  0
  188.2420  177.1950  141.2030 N   0  0  0  0  0  2  0  0  0  0  0  0
  188.3920  177.3020  143.6280 N   0  0  0  0  0  2  0  0  0  0  0  0
  189.4280  177.8110  140.6190 C   0  0  1  0  0  3  0  0  0  0  0  0
  190.7120  177.2480  141.2560 C   0  0  2  0  0  3  0  0  0  0  0  0
  187.9200  177.9610  142.4010 C   0  0  2  0  0  3  0  0  0  0  0  0
  190.1490  176.0880  144.8100 C   0  0  0  0  0  1  0  0  0  0  0  0
  190.7730  177.4330  142.7810 C   0  0  2  0  0  3  0  0  0  0  0  0
  189.6720  176.6000  143.4650 C   0  0  2  0  0  3  0  0  0  0  0  0
  183.6890  178.7150  142.6790 C   0  0  0  0  0  3  0  0  0  0  0  0
  183.6470  179.3800  140.3960 F   0  0  0  0  0  0  0  0  0  0  0  0
  186.4610  177.5560  144.8130 O   0  0  0  0  0  1  0  0  0  0  0  0
  185.7230  178.6920  141.3600 C   0  0  0  0  0  0  0  0  0  0  0  0
  186.3650  178.9150  140.1460 O   0  0  0  0  0  1  0  0  0  0  0  0
  186.4450  178.2260  142.4790 C   0  0  0  0  0  0  0  0  0  0  0  0
  184.3480  178.9330  141.4670 C   0  0  0  0  0  0  0  0  0  0  0  0
  184.4000  178.2550  143.7890 C   0  0  0  0  0  3  0  0  0  0  0  0
  185.7730  178.0110  143.6930 C   0  0  0  0  0  0  0  0  0  0  0  0
  189.3830  177.2980  136.3530 C   0  0  0  0  0  3  0  0  0  0  0  0
  189.4170  177.6170  139.1350 C   0  0  0  0  0  0  0  0  0  0  0  0
  189.7440  176.3790  138.5630 C   0  0  0  0  0  3  0  0  0  0  0  0
  189.7270  176.2210  137.1750 C   0  0  0  0  0  3  0  0  0  0  0  0
  189.0560  178.5330  136.9200 C   0  0  0  0  0  3  0  0  0  0  0  0
  189.0730  178.6930  138.3090 C   0  0  0  0  0  3  0  0  0  0  0  0
  192.0560  179.1870  144.0070 C   0  0  0  0  0  2  0  0  0  0  0  0
  190.7370  179.0040  144.7260 C   0  0  0  0  0  2  0  0  0  0  0  0
  190.7940  178.9040  143.2130 C   0  0  0  0  0  3  0  0  0  0  0  0
  2  6  1  0  0  0  0
  4 20  1  6  0  0  0
  4  2  1  0  0  0  0
  4  5  1  0  0  0  0
  5  1  1  6  0  0  0
  5  8  1  0  0  0  0
  6 15  1  1  0  0  0
  6  3  1  0  0  0  0
  8 27  1  6  0  0  0
  8  9  1  0  0  0  0
  9  3  1  0  0  0  0
  9  7  1  1  0  0  0
 10 17  1  0  0  0  0
 11 16  1  0  0  0  0
 13 16  1  0  0  0  0
 13 15  2  0  0  0  0
 14 13  1  0  0  0  0
 15 18  1  0  0  0  0
 16 10  2  0  0  0  0
 18 17  2  0  0  0  0
 18 12  1  0  0  0  0
 19 23  2  0  0  0  0
 19 22  1  0  0  0  0
 21 20  1  0  0  0  0
 22 21  2  0  0  0  0
 23 24  1  0  0  0  0
 24 20  2  0  0  0  0
 25 26  1  0  0  0  0
 27 25  1  0  0  0  0
 27 26  1  0  0  0  0
M  END
>  <MODEL>
9

>  <REMARK>
 VINA RESULT:      -7.7      1.627      5.480
  Name = 
  3 active torsions:
  status: ('A' for Active; 'I' for Inactive)
    1  A    between atoms: C_9  and  C_15
    2  A    between atoms: C_14  and  C_19
    3  A    between atoms: C_22  and  C_24
                            x       y       z     vdW  Elec       q    Type
                         _______ _______ _______ _____ _____    ______ ____

>  <TORSDO>
F 3

$$$$
