=
 OpenBabel11052412383D

 30 31  0  0  1  0  0  0  0  0999 V2000
  189.7090  176.2680  143.4690 C   0  0  1  0  0  3  0  0  0  0  0  0
  188.4770  177.6650  145.7200 C   0  0  0  0  0  2  0  0  0  0  0  0
  187.3510  177.4160  144.7370 C   0  0  0  0  0  0  0  0  0  0  0  0
  190.4850  175.2740  142.8520 O   0  0  0  0  0  1  0  0  0  0  0  0
  189.7770  178.2060  145.0630 C   0  0  0  0  0  2  0  0  0  0  0  0
  190.4480  177.2430  144.2010 N   0  0  0  0  0  0  0  0  0  0  0  0
  187.5840  177.6510  143.2640 C   0  0  2  0  0  3  0  0  0  0  0  0
  186.3750  176.8490  145.1260 O   0  0  0  0  0  0  0  0  0  0  0  0
  188.6280  176.8170  142.4480 C   0  0  1  0  0  3  0  0  0  0  0  0
  191.4280  178.0460  143.2980 C   0  0  0  0  0  2  0  0  0  0  0  0
  191.9590  179.1130  143.9770 O   0  0  0  0  0  1  0  0  0  0  0  0
  186.9780  178.8940  142.6340 C   0  0  0  0  0  2  0  0  0  0  0  0
  185.6450  178.4760  141.9310 C   0  0  0  0  0  2  0  0  0  0  0  0
  184.4880  179.2610  142.5080 N   0  0  0  0  0  2  0  0  0  0  0  0
  183.7780  178.3740  143.5260 C   0  0  0  0  0  3  0  0  0  0  0  0
  183.6000  179.0750  144.8610 C   0  0  0  0  0  2  0  0  0  0  0  0
  182.4320  179.0690  143.8790 C   0  0  0  0  0  2  0  0  0  0  0  0
  189.2070  177.5990  141.2440 C   0  0  0  0  0  2  0  0  0  0  0  0
  188.6620  178.0320  139.8590 C   0  0  0  0  0  2  0  0  0  0  0  0
  189.1740  177.2990  138.6090 C   0  0  2  0  0  0  0  0  0  0  0  0
  189.4070  178.4710  137.5950 C   0  0  0  0  0  1  0  0  0  0  0  0
  188.1180  176.4320  138.1630 O   0  0  0  0  0  0  0  0  0  0  0  0
  187.2050  177.0210  137.2380 C   0  0  0  0  0  2  0  0  0  0  0  0
  185.7660  177.6020  137.6190 C   0  0  0  0  0  2  0  0  0  0  0  0
  185.6890  178.7810  138.2940 O   0  0  0  0  0  1  0  0  0  0  0  0
  190.5400  176.3670  138.8700 C   0  0  0  0  0  2  0  0  0  0  0  0
  191.6630  174.4070  137.8880 O   0  0  0  0  0  1  0  0  0  0  0  0
  191.5770  175.8160  137.8160 C   0  0  2  0  0  3  0  0  0  0  0  0
  193.7020  176.8460  137.2650 O   0  0  0  0  0  1  0  0  0  0  0  0
  192.8890  176.3790  138.2930 C   0  0  0  0  0  2  0  0  0  0  0  0
  1  4  1  6  0  0  0
  1  6  1  0  0  0  0
  3  8  2  0  0  0  0
  3  2  1  0  0  0  0
  5  2  1  0  0  0  0
  6  5  1  0  0  0  0
  7 12  1  1  0  0  0
  7  3  1  0  0  0  0
  9 18  1  6  0  0  0
  9  7  1  0  0  0  0
  9  1  1  0  0  0  0
 10 11  1  0  0  0  0
 10  6  1  0  0  0  0
 13 14  1  0  0  0  0
 13 12  1  0  0  0  0
 14 15  1  0  0  0  0
 15 17  1  0  0  0  0
 15 16  1  0  0  0  0
 17 16  1  0  0  0  0
 19 18  1  0  0  0  0
 20 21  1  6  0  0  0
 20 26  1  0  0  0  0
 20 19  1  0  0  0  0
 22 20  1  0  0  0  0
 23 24  1  0  0  0  0
 23 22  1  0  0  0  0
 24 25  1  0  0  0  0
 28 27  1  1  0  0  0
 28 30  1  0  0  0  0
 28 26  1  0  0  0  0
 29 30  1  0  0  0  0
M  END
>  <MODEL>
1

>  <REMARK>
 VINA RESULT:      -6.5      0.000      0.000
  Name = 
  14 active torsions:
  status: ('A' for Active; 'I' for Inactive)
    1  A    between atoms: C_1  and  C_4
    2  A    between atoms: C_1  and  C_22
    3  A    between atoms: C_4  and  O_8
    4  A    between atoms: C_4  and  C_12
    5  A    between atoms: C_7  and  C_23
    6  A    between atoms: C_7  and  C_25
    7  A    between atoms: O_8  and  C_27
    8  A    between atoms: C_10  and  N_15
    9  A    between atoms: C_12  and  C_21
   10  A    between atoms: C_13  and  C_27
   11  A    between atoms: C_14  and  N_20
   12  A    between atoms: N_15  and  C_25
   13  A    between atoms: C_17  and  C_21
   14  A    between atoms: C_22  and  C_29
                            x       y       z     vdW  Elec       q    Type
                         _______ _______ _______ _____ _____    ______ ____

>  <TORSDO>
F 14

$$$$
=
 OpenBabel11052412383D

 30 31  0  0  1  0  0  0  0  0999 V2000
  189.5950  176.3370  143.3910 C   0  0  1  0  0  3  0  0  0  0  0  0
  188.4610  177.5390  145.8010 C   0  0  0  0  0  2  0  0  0  0  0  0
  187.2890  177.3390  144.8620 C   0  0  0  0  0  0  0  0  0  0  0  0
  190.3530  175.4080  142.6620 O   0  0  0  0  0  1  0  0  0  0  0  0
  189.7150  178.1530  145.1190 C   0  0  0  0  0  2  0  0  0  0  0  0
  190.3550  177.2710  144.1540 N   0  0  0  0  0  0  0  0  0  0  0  0
  187.4390  177.6870  143.4000 C   0  0  2  0  0  3  0  0  0  0  0  0
  186.3440  176.7250  145.2580 O   0  0  0  0  0  0  0  0  0  0  0  0
  188.4520  176.9370  142.4710 C   0  0  1  0  0  3  0  0  0  0  0  0
  191.2720  178.1580  143.2640 C   0  0  0  0  0  2  0  0  0  0  0  0
  191.3410  179.4380  143.7520 O   0  0  0  0  0  1  0  0  0  0  0  0
  186.7790  178.9600  142.8970 C   0  0  0  0  0  2  0  0  0  0  0  0
  185.5170  178.5530  142.0670 C   0  0  0  0  0  2  0  0  0  0  0  0
  184.4200  178.0800  142.9940 N   0  0  0  0  0  2  0  0  0  0  0  0
  183.8490  179.3000  143.7100 C   0  0  0  0  0  3  0  0  0  0  0  0
  182.4620  179.0310  144.2680 C   0  0  0  0  0  2  0  0  0  0  0  0
  183.6620  178.9070  145.2040 C   0  0  0  0  0  2  0  0  0  0  0  0
  188.9520  177.8180  141.3000 C   0  0  0  0  0  2  0  0  0  0  0  0
  189.4740  177.5380  139.8680 C   0  0  0  0  0  2  0  0  0  0  0  0
  188.5130  177.7370  138.6860 C   0  0  2  0  0  0  0  0  0  0  0  0
  189.2400  178.8320  137.8340 C   0  0  0  0  0  1  0  0  0  0  0  0
  187.2770  178.2370  139.2230 O   0  0  0  0  0  0  0  0  0  0  0  0
  186.1850  178.2590  138.3040 C   0  0  0  0  0  2  0  0  0  0  0  0
  184.7020  178.7380  138.6570 C   0  0  0  0  0  2  0  0  0  0  0  0
  184.5010  180.0250  139.0470 O   0  0  0  0  0  1  0  0  0  0  0  0
  188.1810  176.3390  137.8270 C   0  0  0  0  0  2  0  0  0  0  0  0
  188.1200  174.7050  135.9850 O   0  0  0  0  0  1  0  0  0  0  0  0
  188.8040  175.8460  136.4640 C   0  0  2  0  0  3  0  0  0  0  0  0
  190.2180  174.3310  137.7220 O   0  0  0  0  0  1  0  0  0  0  0  0
  190.1930  175.4160  136.8520 C   0  0  0  0  0  2  0  0  0  0  0  0
  1  4  1  6  0  0  0
  1  6  1  0  0  0  0
  3  8  2  0  0  0  0
  3  2  1  0  0  0  0
  5  2  1  0  0  0  0
  6  5  1  0  0  0  0
  7 12  1  1  0  0  0
  7  3  1  0  0  0  0
  9 18  1  6  0  0  0
  9  1  1  0  0  0  0
  9  7  1  0  0  0  0
 10 11  1  0  0  0  0
 10  6  1  0  0  0  0
 13 12  1  0  0  0  0
 13 14  1  0  0  0  0
 14 15  1  0  0  0  0
 15 16  1  0  0  0  0
 15 17  1  0  0  0  0
 16 17  1  0  0  0  0
 19 18  1  0  0  0  0
 20 21  1  6  0  0  0
 20 22  1  0  0  0  0
 20 19  1  0  0  0  0
 23 24  1  0  0  0  0
 23 22  1  0  0  0  0
 24 25  1  0  0  0  0
 26 20  1  0  0  0  0
 28 27  1  1  0  0  0
 28 30  1  0  0  0  0
 28 26  1  0  0  0  0
 30 29  1  0  0  0  0
M  END
>  <MODEL>
2

>  <REMARK>
 VINA RESULT:      -6.4      1.351      1.708
  Name = 
  14 active torsions:
  status: ('A' for Active; 'I' for Inactive)
    1  A    between atoms: C_1  and  C_4
    2  A    between atoms: C_1  and  C_22
    3  A    between atoms: C_4  and  O_8
    4  A    between atoms: C_4  and  C_12
    5  A    between atoms: C_7  and  C_23
    6  A    between atoms: C_7  and  C_25
    7  A    between atoms: O_8  and  C_27
    8  A    between atoms: C_10  and  N_15
    9  A    between atoms: C_12  and  C_21
   10  A    between atoms: C_13  and  C_27
   11  A    between atoms: C_14  and  N_20
   12  A    between atoms: N_15  and  C_25
   13  A    between atoms: C_17  and  C_21
   14  A    between atoms: C_22  and  C_29
                            x       y       z     vdW  Elec       q    Type
                         _______ _______ _______ _____ _____    ______ ____

>  <TORSDO>
F 14

$$$$
=
 OpenBabel11052412383D

 30 31  0  0  1  0  0  0  0  0999 V2000
  190.2210  176.0000  143.9330 C   0  0  1  0  0  3  0  0  0  0  0  0
  191.3460  176.8820  146.4820 C   0  0  0  0  0  2  0  0  0  0  0  0
  189.8630  176.7010  146.7380 C   0  0  0  0  0  0  0  0  0  0  0  0
  190.1320  175.1990  142.7850 O   0  0  0  0  0  1  0  0  0  0  0  0
  191.6670  177.6400  145.1640 C   0  0  0  0  0  2  0  0  0  0  0  0
  191.3250  176.9010  143.9580 N   0  0  0  0  0  0  0  0  0  0  0  0
  188.8660  177.2000  145.7200 C   0  0  2  0  0  3  0  0  0  0  0  0
  189.5260  175.9910  147.6370 O   0  0  0  0  0  0  0  0  0  0  0  0
  188.7990  176.6130  144.2700 C   0  0  1  0  0  3  0  0  0  0  0  0
  191.2790  177.9290  142.7910 C   0  0  0  0  0  2  0  0  0  0  0  0
  191.9850  177.4740  141.7070 O   0  0  0  0  0  1  0  0  0  0  0  0
  188.0960  178.4720  146.0380 C   0  0  0  0  0  2  0  0  0  0  0  0
  186.9350  178.1000  147.0180 C   0  0  0  0  0  2  0  0  0  0  0  0
  185.6770  177.7960  146.2360 N   0  0  0  0  0  2  0  0  0  0  0  0
  185.3050  179.0430  145.4400 C   0  0  0  0  0  3  0  0  0  0  0  0
  184.7090  178.6930  144.0870 C   0  0  0  0  0  2  0  0  0  0  0  0
  183.7620  179.0140  145.2410 C   0  0  0  0  0  2  0  0  0  0  0  0
  188.2670  177.6360  143.2370 C   0  0  0  0  0  2  0  0  0  0  0  0
  187.4070  177.5430  141.9510 C   0  0  0  0  0  2  0  0  0  0  0  0
  187.9570  178.1600  140.6550 C   0  0  2  0  0  0  0  0  0  0  0  0
  188.7520  179.4040  141.1770 C   0  0  0  0  0  1  0  0  0  0  0  0
  186.8270  178.5630  139.8640 O   0  0  0  0  0  0  0  0  0  0  0  0
  185.6540  178.8860  140.6100 C   0  0  0  0  0  2  0  0  0  0  0  0
  184.2250  179.2110  139.9720 C   0  0  0  0  0  2  0  0  0  0  0  0
  184.1010  180.2860  139.1480 O   0  0  0  0  0  1  0  0  0  0  0  0
  188.8890  177.1140  139.7390 C   0  0  0  0  0  2  0  0  0  0  0  0
  189.7310  175.8350  137.8100 O   0  0  0  0  0  1  0  0  0  0  0  0
  188.9240  176.9370  138.1710 C   0  0  2  0  0  3  0  0  0  0  0  0
  188.7420  179.2070  137.3380 O   0  0  0  0  0  1  0  0  0  0  0  0
  189.6170  178.1860  137.6970 C   0  0  0  0  0  2  0  0  0  0  0  0
  1  4  1  6  0  0  0
  1  6  1  0  0  0  0
  1  9  1  0  0  0  0
  2  3  1  0  0  0  0
  3  8  2  0  0  0  0
  5  2  1  0  0  0  0
  6  5  1  0  0  0  0
  7 12  1  6  0  0  0
  7  3  1  0  0  0  0
  9 18  1  6  0  0  0
  9  7  1  0  0  0  0
 10  6  1  0  0  0  0
 11 10  1  0  0  0  0
 12 13  1  0  0  0  0
 14 13  1  0  0  0  0
 15 14  1  0  0  0  0
 16 17  1  0  0  0  0
 16 15  1  0  0  0  0
 17 15  1  0  0  0  0
 19 18  1  0  0  0  0
 20 21  1  1  0  0  0
 20 19  1  0  0  0  0
 22 23  1  0  0  0  0
 22 20  1  0  0  0  0
 24 23  1  0  0  0  0
 25 24  1  0  0  0  0
 26 20  1  0  0  0  0
 28 27  1  1  0  0  0
 28 26  1  0  0  0  0
 29 30  1  0  0  0  0
 30 28  1  0  0  0  0
M  END
>  <MODEL>
3

>  <REMARK>
 VINA RESULT:      -6.1      2.122      2.995
  Name = 
  14 active torsions:
  status: ('A' for Active; 'I' for Inactive)
    1  A    between atoms: C_1  and  C_4
    2  A    between atoms: C_1  and  C_22
    3  A    between atoms: C_4  and  O_8
    4  A    between atoms: C_4  and  C_12
    5  A    between atoms: C_7  and  C_23
    6  A    between atoms: C_7  and  C_25
    7  A    between atoms: O_8  and  C_27
    8  A    between atoms: C_10  and  N_15
    9  A    between atoms: C_12  and  C_21
   10  A    between atoms: C_13  and  C_27
   11  A    between atoms: C_14  and  N_20
   12  A    between atoms: N_15  and  C_25
   13  A    between atoms: C_17  and  C_21
   14  A    between atoms: C_22  and  C_29
                            x       y       z     vdW  Elec       q    Type
                         _______ _______ _______ _____ _____    ______ ____

>  <TORSDO>
F 14

$$$$
=
 OpenBabel11052412383D

 30 31  0  0  1  0  0  0  0  0999 V2000
  189.5790  176.2480  143.4560 C   0  0  1  0  0  3  0  0  0  0  0  0
  188.4080  177.5860  145.7750 C   0  0  0  0  0  2  0  0  0  0  0  0
  187.2550  177.3560  144.8180 C   0  0  0  0  0  0  0  0  0  0  0  0
  190.3390  175.2730  142.7920 O   0  0  0  0  0  1  0  0  0  0  0  0
  189.6870  178.1470  145.0940 C   0  0  0  0  0  2  0  0  0  0  0  0
  190.3350  177.2080  144.1900 N   0  0  0  0  0  0  0  0  0  0  0  0
  187.4450  177.6280  143.3450 C   0  0  2  0  0  3  0  0  0  0  0  0
  186.2920  176.7760  145.2210 O   0  0  0  0  0  0  0  0  0  0  0  0
  188.4680  176.8180  142.4800 C   0  0  1  0  0  3  0  0  0  0  0  0
  191.2870  178.0360  143.2790 C   0  0  0  0  0  2  0  0  0  0  0  0
  191.6270  179.2240  143.8750 O   0  0  0  0  0  1  0  0  0  0  0  0
  186.8170  178.8840  142.7630 C   0  0  0  0  0  2  0  0  0  0  0  0
  185.5860  178.4520  141.9010 C   0  0  0  0  0  2  0  0  0  0  0  0
  184.4260  178.0910  142.8010 N   0  0  0  0  0  2  0  0  0  0  0  0
  184.0320  179.3390  143.5850 C   0  0  0  0  0  3  0  0  0  0  0  0
  182.5600  179.3320  143.9590 C   0  0  0  0  0  2  0  0  0  0  0  0
  183.5790  178.8690  144.9970 C   0  0  0  0  0  2  0  0  0  0  0  0
  189.0090  177.6310  141.2790 C   0  0  0  0  0  2  0  0  0  0  0  0
  188.4660  178.0000  139.8750 C   0  0  0  0  0  2  0  0  0  0  0  0
  189.2710  177.5660  138.6400 C   0  0  2  0  0  0  0  0  0  0  0  0
  188.7320  176.1210  138.3690 C   0  0  0  0  0  1  0  0  0  0  0  0
  190.6560  177.5370  139.0250 O   0  0  0  0  0  0  0  0  0  0  0  0
  191.4540  176.5780  138.3320 C   0  0  0  0  0  2  0  0  0  0  0  0
  193.0490  176.5020  138.3920 C   0  0  0  0  0  2  0  0  0  0  0  0
  193.7620  176.7500  137.2610 O   0  0  0  0  0  1  0  0  0  0  0  0
  189.1160  178.5900  137.3250 C   0  0  0  0  0  2  0  0  0  0  0  0
  186.6630  178.8010  137.3060 O   0  0  0  0  0  1  0  0  0  0  0  0
  187.8180  178.9610  136.5080 C   0  0  2  0  0  3  0  0  0  0  0  0
  189.0340  177.4470  135.0550 O   0  0  0  0  0  1  0  0  0  0  0  0
  187.7770  177.9130  135.4290 C   0  0  0  0  0  2  0  0  0  0  0  0
  1  4  1  6  0  0  0
  1  6  1  0  0  0  0
  3  8  2  0  0  0  0
  3  2  1  0  0  0  0
  5  2  1  0  0  0  0
  6  5  1  0  0  0  0
  7 12  1  1  0  0  0
  7  3  1  0  0  0  0
  9 18  1  6  0  0  0
  9  7  1  0  0  0  0
  9  1  1  0  0  0  0
 10 11  1  0  0  0  0
 10  6  1  0  0  0  0
 13 12  1  0  0  0  0
 13 14  1  0  0  0  0
 14 15  1  0  0  0  0
 15 16  1  0  0  0  0
 15 17  1  0  0  0  0
 16 17  1  0  0  0  0
 19 18  1  0  0  0  0
 20 21  1  6  0  0  0
 20 22  1  0  0  0  0
 20 19  1  0  0  0  0
 23 24  1  0  0  0  0
 23 22  1  0  0  0  0
 25 24  1  0  0  0  0
 26 20  1  0  0  0  0
 28 27  1  1  0  0  0
 28 26  1  0  0  0  0
 29 30  1  0  0  0  0
 30 28  1  0  0  0  0
M  END
>  <MODEL>
4

>  <REMARK>
 VINA RESULT:      -6.0      1.121      3.218
  Name = 
  14 active torsions:
  status: ('A' for Active; 'I' for Inactive)
    1  A    between atoms: C_1  and  C_4
    2  A    between atoms: C_1  and  C_22
    3  A    between atoms: C_4  and  O_8
    4  A    between atoms: C_4  and  C_12
    5  A    between atoms: C_7  and  C_23
    6  A    between atoms: C_7  and  C_25
    7  A    between atoms: O_8  and  C_27
    8  A    between atoms: C_10  and  N_15
    9  A    between atoms: C_12  and  C_21
   10  A    between atoms: C_13  and  C_27
   11  A    between atoms: C_14  and  N_20
   12  A    between atoms: N_15  and  C_25
   13  A    between atoms: C_17  and  C_21
   14  A    between atoms: C_22  and  C_29
                            x       y       z     vdW  Elec       q    Type
                         _______ _______ _______ _____ _____    ______ ____

>  <TORSDO>
F 14

$$$$
=
 OpenBabel11052412383D

 30 31  0  0  1  0  0  0  0  0999 V2000
  189.6160  176.2200  143.4090 C   0  0  1  0  0  3  0  0  0  0  0  0
  188.2980  177.8250  145.4650 C   0  0  0  0  0  2  0  0  0  0  0  0
  187.2300  177.5440  144.4280 C   0  0  0  0  0  0  0  0  0  0  0  0
  190.3880  175.1550  142.9190 O   0  0  0  0  0  1  0  0  0  0  0  0
  189.6600  178.2670  144.8600 C   0  0  0  0  0  2  0  0  0  0  0  0
  190.3450  177.2190  144.1180 N   0  0  0  0  0  0  0  0  0  0  0  0
  187.5680  177.6600  142.9610 C   0  0  2  0  0  3  0  0  0  0  0  0
  186.2080  177.0440  144.7890 O   0  0  0  0  0  0  0  0  0  0  0  0
  188.6280  176.7300  142.2800 C   0  0  1  0  0  3  0  0  0  0  0  0
  191.4150  177.9160  143.2280 C   0  0  0  0  0  2  0  0  0  0  0  0
  191.9400  179.0140  143.8610 O   0  0  0  0  0  1  0  0  0  0  0  0
  187.0560  178.8750  142.2030 C   0  0  0  0  0  2  0  0  0  0  0  0
  185.5880  178.5780  141.7530 C   0  0  0  0  0  2  0  0  0  0  0  0
  185.2670  179.3520  140.4950 N   0  0  0  0  0  2  0  0  0  0  0  0
  183.8330  179.0250  140.0930 C   0  0  0  0  0  3  0  0  0  0  0  0
  183.3340  179.9350  138.9840 C   0  0  0  0  0  2  0  0  0  0  0  0
  183.8690  178.5540  138.6100 C   0  0  0  0  0  2  0  0  0  0  0  0
  189.3150  177.3990  141.0640 C   0  0  0  0  0  2  0  0  0  0  0  0
  190.0240  176.8800  139.7880 C   0  0  0  0  0  2  0  0  0  0  0  0
  189.4340  177.2540  138.4190 C   0  0  2  0  0  0  0  0  0  0  0  0
  189.1300  178.7820  138.5820 C   0  0  0  0  0  1  0  0  0  0  0  0
  188.2200  176.5000  138.2600 O   0  0  0  0  0  0  0  0  0  0  0  0
  187.1330  177.2230  137.6840 C   0  0  0  0  0  2  0  0  0  0  0  0
  186.7830  177.2600  136.1250 C   0  0  0  0  0  2  0  0  0  0  0  0
  187.3390  178.2270  135.3480 O   0  0  0  0  0  1  0  0  0  0  0  0
  190.4350  176.9110  137.1220 C   0  0  0  0  0  2  0  0  0  0  0  0
  192.1020  175.4700  136.0230 O   0  0  0  0  0  1  0  0  0  0  0  0
  190.7630  175.5120  136.4700 C   0  0  2  0  0  3  0  0  0  0  0  0
  189.1130  174.3190  135.1530 O   0  0  0  0  0  1  0  0  0  0  0  0
  189.8740  175.4790  135.2560 C   0  0  0  0  0  2  0  0  0  0  0  0
  1  4  1  6  0  0  0
  1  6  1  0  0  0  0
  3  8  2  0  0  0  0
  3  2  1  0  0  0  0
  5  2  1  0  0  0  0
  6  5  1  0  0  0  0
  7 12  1  1  0  0  0
  7  3  1  0  0  0  0
  9 18  1  6  0  0  0
  9  7  1  0  0  0  0
  9  1  1  0  0  0  0
 10 11  1  0  0  0  0
 10  6  1  0  0  0  0
 13 12  1  0  0  0  0
 14 13  1  0  0  0  0
 15 14  1  0  0  0  0
 16 15  1  0  0  0  0
 17 16  1  0  0  0  0
 17 15  1  0  0  0  0
 19 18  1  0  0  0  0
 20 21  1  6  0  0  0
 20 19  1  0  0  0  0
 22 20  1  0  0  0  0
 23 22  1  0  0  0  0
 24 23  1  0  0  0  0
 25 24  1  0  0  0  0
 26 20  1  0  0  0  0
 28 27  1  6  0  0  0
 28 26  1  0  0  0  0
 29 30  1  0  0  0  0
 30 28  1  0  0  0  0
M  END
>  <MODEL>
5

>  <REMARK>
 VINA RESULT:      -5.7      1.647      2.345
  Name = 
  14 active torsions:
  status: ('A' for Active; 'I' for Inactive)
    1  A    between atoms: C_1  and  C_4
    2  A    between atoms: C_1  and  C_22
    3  A    between atoms: C_4  and  O_8
    4  A    between atoms: C_4  and  C_12
    5  A    between atoms: C_7  and  C_23
    6  A    between atoms: C_7  and  C_25
    7  A    between atoms: O_8  and  C_27
    8  A    between atoms: C_10  and  N_15
    9  A    between atoms: C_12  and  C_21
   10  A    between atoms: C_13  and  C_27
   11  A    between atoms: C_14  and  N_20
   12  A    between atoms: N_15  and  C_25
   13  A    between atoms: C_17  and  C_21
   14  A    between atoms: C_22  and  C_29
                            x       y       z     vdW  Elec       q    Type
                         _______ _______ _______ _____ _____    ______ ____

>  <TORSDO>
F 14

$$$$
=
 OpenBabel11052412383D

 30 31  0  0  1  0  0  0  0  0999 V2000
  185.4570  177.5370  144.8540 C   0  0  1  0  0  3  0  0  0  0  0  0
  183.5410  178.9900  143.1950 C   0  0  0  0  0  2  0  0  0  0  0  0
  184.4150  178.2250  142.2220 C   0  0  0  0  0  0  0  0  0  0  0  0
  185.8580  176.6910  145.9000 O   0  0  0  0  0  1  0  0  0  0  0  0
  184.3340  179.7160  144.3160 C   0  0  0  0  0  2  0  0  0  0  0  0
  184.9780  178.8170  145.2620 N   0  0  0  0  0  0  0  0  0  0  0  0
  185.9090  178.1870  142.4370 C   0  0  2  0  0  3  0  0  0  0  0  0
  183.8860  177.5060  141.4290 O   0  0  0  0  0  0  0  0  0  0  0  0
  186.5460  177.5220  143.7030 C   0  0  1  0  0  3  0  0  0  0  0  0
  186.0610  179.6440  146.0130 C   0  0  0  0  0  2  0  0  0  0  0  0
  185.8120  179.6690  147.3620 O   0  0  0  0  0  1  0  0  0  0  0  0
  186.7830  179.0400  141.5320 C   0  0  0  0  0  2  0  0  0  0  0  0
  186.7900  178.3830  140.1120 C   0  0  0  0  0  2  0  0  0  0  0  0
  188.1120  178.6490  139.4270 N   0  0  0  0  0  2  0  0  0  0  0  0
  188.1110  177.9050  138.0960 C   0  0  0  0  0  3  0  0  0  0  0  0
  188.3600  178.8390  136.9240 C   0  0  0  0  0  2  0  0  0  0  0  0
  189.5370  178.0480  137.4900 C   0  0  0  0  0  2  0  0  0  0  0  0
  187.9080  178.1510  144.0860 C   0  0  0  0  0  2  0  0  0  0  0  0
  189.0330  177.7940  145.0900 C   0  0  0  0  0  2  0  0  0  0  0  0
  190.4790  177.7150  144.5740 C   0  0  2  0  0  0  0  0  0  0  0  0
  190.8470  179.2210  144.3510 C   0  0  0  0  0  1  0  0  0  0  0  0
  190.4450  177.0010  143.3260 O   0  0  0  0  0  0  0  0  0  0  0  0
  191.3000  177.5240  142.3100 C   0  0  0  0  0  3  0  0  0  0  0  0
  191.1900  177.1760  140.7540 C   0  0  0  0  0  3  0  0  0  0  0  0
  190.3360  176.1940  140.3580 O   0  0  0  0  0  1  0  0  0  0  0  0
  191.5330  176.9190  145.6020 C   0  0  0  0  0  2  0  0  0  0  0  0
  191.3260  177.4950  147.9870 O   0  0  0  0  0  1  0  0  0  0  0  0
  191.2830  176.4160  147.0760 C   0  0  2  0  0  3  0  0  0  0  0  0
  193.2230  175.9430  148.4520 O   0  0  0  0  0  1  0  0  0  0  0  0
  192.4760  175.5390  147.3500 C   0  0  0  0  0  2  0  0  0  0  0  0
  1  6  1  0  0  0  0
  1  4  1  1  0  0  0
  2  5  1  0  0  0  0
  3  7  1  0  0  0  0
  3  2  1  0  0  0  0
  5  6  1  0  0  0  0
  6 10  1  0  0  0  0
  7 12  1  1  0  0  0
  7  9  1  0  0  0  0
  8  3  2  0  0  0  0
  9 18  1  1  0  0  0
  9  1  1  0  0  0  0
 10 11  1  0  0  0  0
 13 12  1  0  0  0  0
 14 13  1  0  0  0  0
 15 14  1  0  0  0  0
 16 17  1  0  0  0  0
 16 15  1  0  0  0  0
 17 15  1  0  0  0  0
 18 19  1  0  0  0  0
 20 21  1  6  0  0  0
 20 19  1  0  0  0  0
 20 26  1  0  0  0  0
 22 20  1  0  0  0  0
 23 22  1  0  0  0  0
 24 23  2  0  0  0  0
 25 24  1  0  0  0  0
 26 28  1  0  0  0  0
 28 30  1  0  0  0  0
 28 27  1  1  0  0  0
 30 29  1  0  0  0  0
M  END
>  <MODEL>
6

>  <REMARK>
 VINA RESULT:      -5.7      2.525      6.498
  Name = 
  14 active torsions:
  status: ('A' for Active; 'I' for Inactive)
    1  A    between atoms: C_1  and  C_4
    2  A    between atoms: C_1  and  C_22
    3  A    between atoms: C_4  and  O_8
    4  A    between atoms: C_4  and  C_12
    5  A    between atoms: C_7  and  C_23
    6  A    between atoms: C_7  and  C_25
    7  A    between atoms: O_8  and  C_27
    8  A    between atoms: C_10  and  N_15
    9  A    between atoms: C_12  and  C_21
   10  A    between atoms: C_13  and  C_27
   11  A    between atoms: C_14  and  N_20
   12  A    between atoms: N_15  and  C_25
   13  A    between atoms: C_17  and  C_21
   14  A    between atoms: C_22  and  C_29
                            x       y       z     vdW  Elec       q    Type
                         _______ _______ _______ _____ _____    ______ ____

>  <TORSDO>
F 14

$$$$
=
 OpenBabel11052412383D

 30 31  0  0  1  0  0  0  0  0999 V2000
  191.2020  177.2840  138.2440 C   0  0  1  0  0  3  0  0  0  0  0  0
  189.2140  178.0450  136.2430 C   0  0  0  0  0  2  0  0  0  0  0  0
  188.9720  178.9660  137.4210 C   0  0  0  0  0  0  0  0  0  0  0  0
  192.4900  176.9940  138.7200 O   0  0  0  0  0  1  0  0  0  0  0  0
  189.4140  176.5560  136.6400 C   0  0  0  0  0  2  0  0  0  0  0  0
  190.6450  176.3010  137.3750 N   0  0  0  0  0  0  0  0  0  0  0  0
  188.9930  178.4040  138.8220 C   0  0  2  0  0  3  0  0  0  0  0  0
  188.9710  180.1450  137.2280 O   0  0  0  0  0  0  0  0  0  0  0  0
  190.2860  177.7730  139.4410 C   0  0  1  0  0  3  0  0  0  0  0  0
  190.4810  174.9180  138.0690 C   0  0  0  0  0  2  0  0  0  0  0  0
  191.4860  174.0610  137.6980 O   0  0  0  0  0  1  0  0  0  0  0  0
  187.6650  178.2160  139.5370 C   0  0  0  0  0  2  0  0  0  0  0  0
  186.5840  177.8680  138.4610 C   0  0  0  0  0  2  0  0  0  0  0  0
  185.5920  179.0030  138.3390 N   0  0  0  0  0  2  0  0  0  0  0  0
  184.2450  178.5090  138.8570 C   0  0  0  0  0  3  0  0  0  0  0  0
  183.9690  178.9950  140.2700 C   0  0  0  0  0  2  0  0  0  0  0  0
  183.3600  179.7660  139.1010 C   0  0  0  0  0  2  0  0  0  0  0  0
  189.9720  176.6940  140.5060 C   0  0  0  0  0  2  0  0  0  0  0  0
  190.5740  176.3090  141.8810 C   0  0  0  0  0  2  0  0  0  0  0  0
  190.2550  177.1960  143.0950 C   0  0  2  0  0  0  0  0  0  0  0  0
  191.3730  178.2910  143.0230 C   0  0  0  0  0  1  0  0  0  0  0  0
  190.4060  176.3790  144.2690 O   0  0  0  0  0  0  0  0  0  0  0  0
  191.3450  176.8680  145.2260 C   0  0  0  0  0  2  0  0  0  0  0  0
  191.1740  176.7620  146.8110 C   0  0  0  0  0  2  0  0  0  0  0  0
  191.9690  175.9030  147.5030 O   0  0  0  0  0  1  0  0  0  0  0  0
  188.7050  177.8290  143.0960 C   0  0  0  0  0  2  0  0  0  0  0  0
  186.2460  177.7190  143.1720 O   0  0  0  0  0  1  0  0  0  0  0  0
  187.4190  177.2920  143.8350 C   0  0  2  0  0  3  0  0  0  0  0  0
  187.3240  177.1270  146.2520 O   0  0  0  0  0  1  0  0  0  0  0  0
  187.4700  177.9880  145.1690 C   0  0  0  0  0  2  0  0  0  0  0  0
  1  4  1  1  0  0  0
  1  9  1  0  0  0  0
  2  5  1  0  0  0  0
  2  3  1  0  0  0  0
  3  7  1  0  0  0  0
  5  6  1  0  0  0  0
  6 10  1  0  0  0  0
  6  1  1  0  0  0  0
  7  9  1  0  0  0  0
  7 12  1  6  0  0  0
  8  3  2  0  0  0  0
  9 18  1  1  0  0  0
 11 10  1  0  0  0  0
 13 12  1  0  0  0  0
 14 13  1  0  0  0  0
 14 15  1  0  0  0  0
 15 17  1  0  0  0  0
 15 16  1  0  0  0  0
 17 16  1  0  0  0  0
 18 19  1  0  0  0  0
 19 20  1  0  0  0  0
 20 21  1  1  0  0  0
 20 26  1  0  0  0  0
 20 22  1  0  0  0  0
 22 23  1  0  0  0  0
 23 24  1  0  0  0  0
 24 25  1  0  0  0  0
 26 28  1  0  0  0  0
 28 27  1  6  0  0  0
 28 30  1  0  0  0  0
 30 29  1  0  0  0  0
M  END
>  <MODEL>
7

>  <REMARK>
 VINA RESULT:      -5.3      2.538      6.926
  Name = 
  14 active torsions:
  status: ('A' for Active; 'I' for Inactive)
    1  A    between atoms: C_1  and  C_4
    2  A    between atoms: C_1  and  C_22
    3  A    between atoms: C_4  and  O_8
    4  A    between atoms: C_4  and  C_12
    5  A    between atoms: C_7  and  C_23
    6  A    between atoms: C_7  and  C_25
    7  A    between atoms: O_8  and  C_27
    8  A    between atoms: C_10  and  N_15
    9  A    between atoms: C_12  and  C_21
   10  A    between atoms: C_13  and  C_27
   11  A    between atoms: C_14  and  N_20
   12  A    between atoms: N_15  and  C_25
   13  A    between atoms: C_17  and  C_21
   14  A    between atoms: C_22  and  C_29
                            x       y       z     vdW  Elec       q    Type
                         _______ _______ _______ _____ _____    ______ ____

>  <TORSDO>
F 14

$$$$
=
 OpenBabel11052412383D

 30 31  0  0  1  0  0  0  0  0999 V2000
  183.2460  179.5500  138.8090 C   0  0  1  0  0  3  0  0  0  0  0  0
  181.0920  178.4420  137.1750 C   0  0  0  0  0  2  0  0  0  0  0  0
  180.4650  178.7340  138.5230 C   0  0  0  0  0  0  0  0  0  0  0  0
  184.3110  180.4160  139.1030 O   0  0  0  0  0  1  0  0  0  0  0  0
  182.4710  177.7300  137.2640 C   0  0  0  0  0  2  0  0  0  0  0  0
  183.5290  178.5590  137.8240 N   0  0  0  0  0  0  0  0  0  0  0  0
  181.2120  178.3760  139.7850 C   0  0  2  0  0  3  0  0  0  0  0  0
  179.4890  179.4210  138.5560 O   0  0  0  0  0  0  0  0  0  0  0  0
  182.5800  179.0420  140.1540 C   0  0  1  0  0  3  0  0  0  0  0  0
  184.6760  177.6020  138.2560 C   0  0  0  0  0  2  0  0  0  0  0  0
  184.8650  176.6090  137.3280 O   0  0  0  0  0  1  0  0  0  0  0  0
  180.7490  177.1580  140.5680 C   0  0  0  0  0  2  0  0  0  0  0  0
  179.2110  177.3000  140.8130 C   0  0  0  0  0  2  0  0  0  0  0  0
  178.9560  178.2510  141.9600 N   0  0  0  0  0  2  0  0  0  0  0  0
  180.0620  178.0520  142.9920 C   0  0  0  0  0  3  0  0  0  0  0  0
  180.5830  179.3750  143.5260 C   0  0  0  0  0  2  0  0  0  0  0  0
  179.5370  178.6200  144.3420 C   0  0  0  0  0  2  0  0  0  0  0  0
  183.4760  178.1240  141.0210 C   0  0  0  0  0  2  0  0  0  0  0  0
  183.8650  178.0770  142.5200 C   0  0  0  0  0  2  0  0  0  0  0  0
  185.1570  178.7790  142.9650 C   0  0  2  0  0  0  0  0  0  0  0  0
  184.6220  180.0760  143.6610 C   0  0  0  0  0  1  0  0  0  0  0  0
  185.8980  179.0990  141.7750 O   0  0  0  0  0  0  0  0  0  0  0  0
  187.1840  178.4880  141.6830 C   0  0  0  0  0  3  0  0  0  0  0  0
  187.9860  178.2450  140.3220 C   0  0  0  0  0  3  0  0  0  0  0  0
  189.0800  177.4380  140.3380 O   0  0  0  0  0  1  0  0  0  0  0  0
  186.1370  177.8510  143.9550 C   0  0  0  0  0  2  0  0  0  0  0  0
  188.0570  177.5010  145.4580 O   0  0  0  0  0  1  0  0  0  0  0  0
  186.8860  178.2720  145.2790 C   0  0  2  0  0  3  0  0  0  0  0  0
  185.2080  178.9670  146.8850 O   0  0  0  0  0  1  0  0  0  0  0  0
  185.9160  177.8890  146.3640 C   0  0  0  0  0  2  0  0  0  0  0  0
  1  4  1  1  0  0  0
  1  9  1  0  0  0  0
  2  5  1  0  0  0  0
  2  3  1  0  0  0  0
  3  8  2  0  0  0  0
  3  7  1  0  0  0  0
  5  6  1  0  0  0  0
  6 10  1  0  0  0  0
  6  1  1  0  0  0  0
  7  9  1  0  0  0  0
  7 12  1  6  0  0  0
  9 18  1  6  0  0  0
 11 10  1  0  0  0  0
 12 13  1  0  0  0  0
 13 14  1  0  0  0  0
 14 15  1  0  0  0  0
 15 16  1  0  0  0  0
 15 17  1  0  0  0  0
 16 17  1  0  0  0  0
 18 19  1  0  0  0  0
 19 20  1  0  0  0  0
 20 21  1  1  0  0  0
 20 26  1  0  0  0  0
 22 20  1  0  0  0  0
 23 22  1  0  0  0  0
 24 25  1  0  0  0  0
 24 23  2  0  0  0  0
 26 28  1  0  0  0  0
 28 27  1  1  0  0  0
 28 30  1  0  0  0  0
 30 29  1  0  0  0  0
M  END
>  <MODEL>
8

>  <REMARK>
 VINA RESULT:      -5.3      3.550      7.821
  Name = 
  14 active torsions:
  status: ('A' for Active; 'I' for Inactive)
    1  A    between atoms: C_1  and  C_4
    2  A    between atoms: C_1  and  C_22
    3  A    between atoms: C_4  and  O_8
    4  A    between atoms: C_4  and  C_12
    5  A    between atoms: C_7  and  C_23
    6  A    between atoms: C_7  and  C_25
    7  A    between atoms: O_8  and  C_27
    8  A    between atoms: C_10  and  N_15
    9  A    between atoms: C_12  and  C_21
   10  A    between atoms: C_13  and  C_27
   11  A    between atoms: C_14  and  N_20
   12  A    between atoms: N_15  and  C_25
   13  A    between atoms: C_17  and  C_21
   14  A    between atoms: C_22  and  C_29
                            x       y       z     vdW  Elec       q    Type
                         _______ _______ _______ _____ _____    ______ ____

>  <TORSDO>
F 14

$$$$
=
 OpenBabel11052412383D

 30 31  0  0  1  0  0  0  0  0999 V2000
  184.2270  179.4690  140.3230 C   0  0  1  0  0  3  0  0  0  0  0  0
  182.9900  178.6410  142.8370 C   0  0  0  0  0  2  0  0  0  0  0  0
  184.3620  179.1620  143.2160 C   0  0  0  0  0  0  0  0  0  0  0  0
  184.2970  180.1450  139.0940 O   0  0  0  0  0  1  0  0  0  0  0  0
  182.9960  177.6960  141.6030 C   0  0  0  0  0  2  0  0  0  0  0  0
  183.3320  178.3600  140.3520 N   0  0  0  0  0  0  0  0  0  0  0  0
  185.5590  178.7840  142.3780 C   0  0  2  0  0  3  0  0  0  0  0  0
  184.4330  180.0190  144.0440 O   0  0  0  0  0  0  0  0  0  0  0  0
  185.6890  179.2150  140.8780 C   0  0  1  0  0  3  0  0  0  0  0  0
  183.7310  177.2480  139.3390 C   0  0  0  0  0  2  0  0  0  0  0  0
  182.9500  176.1330  139.5010 O   0  0  0  0  0  1  0  0  0  0  0  0
  186.5220  177.7480  142.9340 C   0  0  0  0  0  2  0  0  0  0  0  0
  186.1550  177.5070  144.4350 C   0  0  0  0  0  2  0  0  0  0  0  0
  187.2790  177.9890  145.3250 N   0  0  0  0  0  2  0  0  0  0  0  0
  188.5680  177.3190  144.8620 C   0  0  0  0  0  3  0  0  0  0  0  0
  189.7770  178.2170  145.0630 C   0  0  0  0  0  2  0  0  0  0  0  0
  189.4750  177.1540  146.1160 C   0  0  0  0  0  2  0  0  0  0  0  0
  186.5420  178.2270  140.0450 C   0  0  0  0  0  2  0  0  0  0  0  0
  187.1090  178.2200  138.6030 C   0  0  0  0  0  2  0  0  0  0  0  0
  188.5810  177.8300  138.3970 C   0  0  2  0  0  0  0  0  0  0  0  0
  189.0530  178.8390  137.2960 C   0  0  0  0  0  1  0  0  0  0  0  0
  188.5970  176.4800  137.9020 O   0  0  0  0  0  0  0  0  0  0  0  0
  187.8990  176.2810  136.6730 C   0  0  0  0  0  2  0  0  0  0  0  0
  186.8990  175.0710  136.3770 C   0  0  0  0  0  2  0  0  0  0  0  0
  185.8360  174.8770  137.2030 O   0  0  0  0  0  1  0  0  0  0  0  0
  189.5090  177.8860  139.7900 C   0  0  0  0  0  2  0  0  0  0  0  0
  190.4990  176.8780  141.8060 O   0  0  0  0  0  1  0  0  0  0  0  0
  190.4450  176.7720  140.3980 C   0  0  2  0  0  3  0  0  0  0  0  0
  192.0000  176.7460  138.5370 O   0  0  0  0  0  1  0  0  0  0  0  0
  191.8050  177.1300  139.8610 C   0  0  0  0  0  2  0  0  0  0  0  0
  1  4  1  6  0  0  0
  1  6  1  0  0  0  0
  1  9  1  0  0  0  0
  2  3  1  0  0  0  0
  3  8  2  0  0  0  0
  5  2  1  0  0  0  0
  6  5  1  0  0  0  0
  7 12  1  6  0  0  0
  7  3  1  0  0  0  0
  9 18  1  6  0  0  0
  9  7  1  0  0  0  0
 10 11  1  0  0  0  0
 10  6  1  0  0  0  0
 12 13  1  0  0  0  0
 13 14  1  0  0  0  0
 15 16  1  0  0  0  0
 15 14  1  0  0  0  0
 15 17  1  0  0  0  0
 16 17  1  0  0  0  0
 19 18  1  0  0  0  0
 20 21  1  6  0  0  0
 20 19  1  0  0  0  0
 20 26  1  0  0  0  0
 22 20  1  0  0  0  0
 23 22  1  0  0  0  0
 24 23  1  0  0  0  0
 24 25  1  0  0  0  0
 26 28  1  0  0  0  0
 28 27  1  1  0  0  0
 29 30  1  0  0  0  0
 30 28  1  0  0  0  0
M  END
>  <MODEL>
9

>  <REMARK>
 VINA RESULT:      -5.2      1.991      5.046
  Name = 
  14 active torsions:
  status: ('A' for Active; 'I' for Inactive)
    1  A    between atoms: C_1  and  C_4
    2  A    between atoms: C_1  and  C_22
    3  A    between atoms: C_4  and  O_8
    4  A    between atoms: C_4  and  C_12
    5  A    between atoms: C_7  and  C_23
    6  A    between atoms: C_7  and  C_25
    7  A    between atoms: O_8  and  C_27
    8  A    between atoms: C_10  and  N_15
    9  A    between atoms: C_12  and  C_21
   10  A    between atoms: C_13  and  C_27
   11  A    between atoms: C_14  and  N_20
   12  A    between atoms: N_15  and  C_25
   13  A    between atoms: C_17  and  C_21
   14  A    between atoms: C_22  and  C_29
                            x       y       z     vdW  Elec       q    Type
                         _______ _______ _______ _____ _____    ______ ____

>  <TORSDO>
F 14

$$$$
