=
 OpenBabel11052414183D

 34 39  0  0  1  0  0  0  0  0999 V2000
  186.3890  178.3250  140.1980 C   0  0  0  0  0  0  0  0  0  0  0  0
  188.1960  178.5620  141.8010 C   0  0  0  0  0  3  0  0  0  0  0  0
  188.6310  177.5960  145.9890 C   0  0  2  0  0  3  0  0  0  0  0  0
  185.9180  178.5040  142.5530 C   0  0  0  0  0  0  0  0  0  0  0  0
  185.3000  179.4380  144.8290 C   0  0  2  0  0  3  0  0  0  0  0  0
  188.6930  178.3310  139.4470 C   0  0  0  0  0  3  0  0  0  0  0  0
  189.1260  178.4940  140.7630 C   0  0  0  0  0  3  0  0  0  0  0  0
  186.6020  177.4240  144.7410 C   0  0  1  0  0  3  0  0  0  0  0  0
  186.8160  178.4620  141.5430 C   0  0  0  0  0  0  0  0  0  0  0  0
  187.4480  177.6200  146.9350 C   0  0  0  0  0  2  0  0  0  0  0  0
  185.6810  179.0050  146.2250 C   0  0  0  0  0  2  0  0  0  0  0  0
  187.3280  178.2530  139.1650 C   0  0  0  0  0  3  0  0  0  0  0  0
  184.4520  178.2540  142.2770 C   0  0  1  0  0  3  0  0  0  0  0  0
  185.0930  178.3260  139.8900 C   0  0  0  0  0  3  0  0  0  0  0  0
  188.0730  177.0680  144.6970 C   0  0  0  0  0  2  0  0  0  0  0  0
  183.9440  178.9480  144.5600 N   0  0  0  0  0  2  0  0  0  0  0  0
  183.6050  179.1700  143.1570 C   0  0  2  0  0  3  0  0  0  0  0  0
  186.2220  177.6480  146.1410 N   0  0  1  0  0  0  0  0  0  0  0  0
  186.3420  178.7170  143.9880 C   0  0  1  0  0  3  0  0  0  0  0  0
  184.1290  178.4340  140.8950 O   0  0  0  0  0  0  0  0  0  0  0  0
  179.9570  178.4360  143.8710 C   0  0  0  0  0  0  0  0  0  0  0  0
  179.3970  178.5010  142.5910 C   0  0  0  0  0  3  0  0  0  0  0  0
  182.1420  178.9320  142.9440 C   0  0  0  0  0  0  0  0  0  0  0  0
  180.2060  178.7830  141.4870 C   0  0  0  0  0  3  0  0  0  0  0  0
  181.3270  178.6510  144.0460 C   0  0  0  0  0  3  0  0  0  0  0  0
  181.5760  179.0000  141.6620 C   0  0  0  0  0  3  0  0  0  0  0  0
  179.1700  178.1680  144.9400 F   0  0  0  0  0  0  0  0  0  0  0  0
  191.8680  175.9840  146.5300 O   0  0  0  0  0  0  0  0  0  0  0  0
  189.6600  176.6960  146.4860 N   0  0  0  0  0  2  0  0  0  0  0  0
  191.0180  176.7830  146.0550 C   0  0  0  0  0  0  0  0  0  0  0  0
  191.3950  177.7500  145.1180 O   0  0  0  0  0  0  0  0  0  0  0  0
  191.6230  177.4390  143.7490 C   0  0  0  0  0  2  0  0  0  0  0  0
  191.2990  176.0070  143.4760 C   0  0  0  0  0  3  0  0  0  0  0  0
  190.5550  175.7040  142.5590 O   0  0  0  0  0  0  0  0  0  0  0  0
  1  9  1  0  0  0  0
  3 29  1  1  0  0  0
  3 10  1  0  0  0  0
  5 11  1  1  0  0  0
  6  7  1  0  0  0  0
  7  2  2  0  0  0  0
  8 15  1  1  0  0  0
  8 18  1  0  0  0  0
  9  2  1  0  0  0  0
  9  4  2  0  0  0  0
 12  6  2  0  0  0  0
 12  1  1  0  0  0  0
 13 20  1  6  0  0  0
 13  4  1  0  0  0  0
 13 17  1  0  0  0  0
 14  1  2  0  0  0  0
 14 20  1  0  0  0  0
 15  3  1  0  0  0  0
 16  5  1  0  0  0  0
 17 23  1  1  0  0  0
 17 16  1  0  0  0  0
 18 11  1  6  0  0  0
 18 10  1  0  0  0  0
 19  4  1  6  0  0  0
 19  8  1  0  0  0  0
 19  5  1  0  0  0  0
 21 25  1  0  0  0  0
 21 27  1  0  0  0  0
 22 21  2  0  0  0  0
 23 25  2  0  0  0  0
 24 26  2  0  0  0  0
 24 22  1  0  0  0  0
 26 23  1  0  0  0  0
 30 29  1  0  0  0  0
 30 28  2  0  0  0  0
 31 30  1  0  0  0  0
 32 31  1  0  0  0  0
 33 32  1  0  0  0  0
 34 33  2  0  0  0  0
M  END
>  <MODEL>
1

>  <REMARK>
 VINA RESULT:      -9.4      0.000      0.000
  Name = 
  5 active torsions:
  status: ('A' for Active; 'I' for Inactive)
    1  A    between atoms: C_3  and  N_13
    2  A    between atoms: C_12  and  C_28
    3  A    between atoms: C_14  and  O_33
    4  A    between atoms: C_20  and  C_22
    5  A    between atoms: C_22  and  O_33
                            x       y       z     vdW  Elec       q    Type
                         _______ _______ _______ _____ _____    ______ ____

>  <TORSDO>
F 5

$$$$
=
 OpenBabel11052414183D

 34 39  0  0  1  0  0  0  0  0999 V2000
  185.4110  178.9140  142.9380 C   0  0  0  0  0  0  0  0  0  0  0  0
  186.7070  177.7710  144.6440 C   0  0  0  0  0  3  0  0  0  0  0  0
  190.9130  176.9220  145.1430 C   0  0  2  0  0  3  0  0  0  0  0  0
  187.5270  177.9000  142.3920 C   0  0  0  0  0  0  0  0  0  0  0  0
  189.2800  176.2590  141.5760 C   0  0  2  0  0  3  0  0  0  0  0  0
  184.6120  178.8280  145.2250 C   0  0  0  0  0  3  0  0  0  0  0  0
  185.7370  178.0910  145.5950 C   0  0  0  0  0  3  0  0  0  0  0  0
  189.9280  177.9010  143.2000 C   0  0  1  0  0  3  0  0  0  0  0  0
  186.5740  178.1900  143.3070 C   0  0  0  0  0  0  0  0  0  0  0  0
  191.8270  176.7200  143.9530 C   0  0  0  0  0  2  0  0  0  0  0  0
  190.7150  176.0370  141.9940 C   0  0  0  0  0  2  0  0  0  0  0  0
  184.4470  179.2330  143.8990 C   0  0  0  0  0  3  0  0  0  0  0  0
  187.4400  178.4740  140.9960 C   0  0  1  0  0  3  0  0  0  0  0  0
  185.1880  179.2460  141.6680 C   0  0  0  0  0  3  0  0  0  0  0  0
  189.9590  178.0000  144.7110 C   0  0  0  0  0  2  0  0  0  0  0  0
  189.2880  177.0290  140.3280 N   0  0  0  0  0  2  0  0  0  0  0  0
  187.9280  177.4370  139.9870 C   0  0  2  0  0  3  0  0  0  0  0  0
  191.1440  177.2090  142.7570 N   0  0  1  0  0  0  0  0  0  0  0  0
  188.7420  177.0710  142.7430 C   0  0  1  0  0  3  0  0  0  0  0  0
  186.1150  178.9090  140.6780 O   0  0  0  0  0  0  0  0  0  0  0  0
  186.7750  178.1290  136.4450 C   0  0  0  0  0  0  0  0  0  0  0  0
  187.7820  178.9790  135.9780 C   0  0  0  0  0  3  0  0  0  0  0  0
  187.8940  177.9760  138.5910 C   0  0  0  0  0  0  0  0  0  0  0  0
  188.8450  179.3310  136.8140 C   0  0  0  0  0  3  0  0  0  0  0  0
  186.8320  177.6290  137.7490 C   0  0  0  0  0  3  0  0  0  0  0  0
  188.9010  178.8320  138.1190 C   0  0  0  0  0  3  0  0  0  0  0  0
  185.7440  177.7920  135.6340 F   0  0  0  0  0  0  0  0  0  0  0  0
  192.0030  177.4450  148.5940 O   0  0  0  0  0  0  0  0  0  0  0  0
  191.6750  177.3710  146.2980 N   0  0  0  0  0  2  0  0  0  0  0  0
  191.2970  177.0370  147.6330 C   0  0  0  0  0  0  0  0  0  0  0  0
  190.1570  176.2620  147.8660 O   0  0  0  0  0  0  0  0  0  0  0  0
  188.8390  176.7860  147.7470 C   0  0  0  0  0  2  0  0  0  0  0  0
  188.7410  178.1160  148.4210 C   0  0  0  0  0  3  0  0  0  0  0  0
  187.6770  178.7100  148.4650 O   0  0  0  0  0  0  0  0  0  0  0  0
  1  9  1  0  0  0  0
  1 12  1  0  0  0  0
  2  7  2  0  0  0  0
  3 29  1  1  0  0  0
  4  9  2  0  0  0  0
  5 11  1  1  0  0  0
  5 19  1  0  0  0  0
  6  7  1  0  0  0  0
  8 15  1  1  0  0  0
  9  2  1  0  0  0  0
 10  3  1  0  0  0  0
 12  6  2  0  0  0  0
 13 20  1  6  0  0  0
 13  4  1  0  0  0  0
 14  1  2  0  0  0  0
 15  3  1  0  0  0  0
 16  5  1  0  0  0  0
 17 23  1  6  0  0  0
 17 16  1  0  0  0  0
 17 13  1  0  0  0  0
 18 11  1  6  0  0  0
 18  8  1  0  0  0  0
 18 10  1  0  0  0  0
 19  4  1  6  0  0  0
 19  8  1  0  0  0  0
 20 14  1  0  0  0  0
 21 25  1  0  0  0  0
 22 21  2  0  0  0  0
 22 24  1  0  0  0  0
 24 26  2  0  0  0  0
 25 23  2  0  0  0  0
 26 23  1  0  0  0  0
 27 21  1  0  0  0  0
 29 30  1  0  0  0  0
 30 31  1  0  0  0  0
 30 28  2  0  0  0  0
 32 31  1  0  0  0  0
 32 33  1  0  0  0  0
 33 34  2  0  0  0  0
M  END
>  <MODEL>
2

>  <REMARK>
 VINA RESULT:      -9.3      3.416      5.944
  Name = 
  5 active torsions:
  status: ('A' for Active; 'I' for Inactive)
    1  A    between atoms: C_3  and  N_13
    2  A    between atoms: C_12  and  C_28
    3  A    between atoms: C_14  and  O_33
    4  A    between atoms: C_20  and  C_22
    5  A    between atoms: C_22  and  O_33
                            x       y       z     vdW  Elec       q    Type
                         _______ _______ _______ _____ _____    ______ ____

>  <TORSDO>
F 5

$$$$
=
 OpenBabel11052414183D

 34 39  0  0  1  0  0  0  0  0999 V2000
  186.2320  178.3430  140.2480 C   0  0  0  0  0  0  0  0  0  0  0  0
  188.0710  178.5940  141.8130 C   0  0  0  0  0  3  0  0  0  0  0  0
  188.6020  177.6320  145.9910 C   0  0  2  0  0  3  0  0  0  0  0  0
  185.8100  178.5200  142.6130 C   0  0  0  0  0  0  0  0  0  0  0  0
  185.2350  179.4510  144.9010 C   0  0  2  0  0  3  0  0  0  0  0  0
  188.5200  178.3660  139.4480 C   0  0  0  0  0  3  0  0  0  0  0  0
  188.9800  178.5310  140.7550 C   0  0  0  0  0  3  0  0  0  0  0  0
  186.5480  177.4460  144.7860 C   0  0  1  0  0  3  0  0  0  0  0  0
  186.6880  178.4840  141.5840 C   0  0  0  0  0  0  0  0  0  0  0  0
  187.4400  177.6490  146.9610 C   0  0  0  0  0  2  0  0  0  0  0  0
  185.6480  179.0210  146.2890 C   0  0  0  0  0  2  0  0  0  0  0  0
  187.1500  178.2770  139.1960 C   0  0  0  0  0  3  0  0  0  0  0  0
  184.3410  178.2600  142.3680 C   0  0  1  0  0  3  0  0  0  0  0  0
  184.9300  178.3360  139.9680 C   0  0  0  0  0  3  0  0  0  0  0  0
  188.0210  177.1000  144.7110 C   0  0  0  0  0  2  0  0  0  0  0  0
  183.8770  178.9520  144.6620 N   0  0  0  0  0  2  0  0  0  0  0  0
  183.5060  179.1700  143.2660 C   0  0  2  0  0  3  0  0  0  0  0  0
  186.1970  177.6680  146.1940 N   0  0  1  0  0  0  0  0  0  0  0  0
  186.2640  178.7370  144.0390 C   0  0  1  0  0  3  0  0  0  0  0  0
  183.9870  178.4370  140.9940 O   0  0  0  0  0  0  0  0  0  0  0  0
  180.1240  178.7610  141.6090 C   0  0  0  0  0  0  0  0  0  0  0  0
  179.3080  178.4440  142.6990 C   0  0  0  0  0  3  0  0  0  0  0  0
  182.0410  178.9220  143.0850 C   0  0  0  0  0  0  0  0  0  0  0  0
  179.8550  178.3630  143.9830 C   0  0  0  0  0  3  0  0  0  0  0  0
  181.4880  178.9990  141.8020 C   0  0  0  0  0  3  0  0  0  0  0  0
  181.2200  178.5990  144.1760 C   0  0  0  0  0  3  0  0  0  0  0  0
  179.5920  178.8340  140.3650 F   0  0  0  0  0  0  0  0  0  0  0  0
  191.8520  176.0140  146.4300 O   0  0  0  0  0  0  0  0  0  0  0  0
  189.6480  176.7400  146.4660 N   0  0  0  0  0  2  0  0  0  0  0  0
  190.9850  176.8060  145.9710 C   0  0  0  0  0  0  0  0  0  0  0  0
  191.3250  177.7430  144.9900 O   0  0  0  0  0  0  0  0  0  0  0  0
  191.5770  177.3780  143.6390 C   0  0  0  0  0  2  0  0  0  0  0  0
  191.1950  175.9530  143.4020 C   0  0  0  0  0  3  0  0  0  0  0  0
  190.3860  175.6650  142.5360 O   0  0  0  0  0  0  0  0  0  0  0  0
  1  9  1  0  0  0  0
  3 29  1  1  0  0  0
  3 10  1  0  0  0  0
  5 11  1  1  0  0  0
  6  7  1  0  0  0  0
  7  2  2  0  0  0  0
  8 15  1  1  0  0  0
  8 18  1  0  0  0  0
  9  2  1  0  0  0  0
  9  4  2  0  0  0  0
 12  6  2  0  0  0  0
 12  1  1  0  0  0  0
 13 20  1  6  0  0  0
 13  4  1  0  0  0  0
 13 17  1  0  0  0  0
 14  1  2  0  0  0  0
 14 20  1  0  0  0  0
 15  3  1  0  0  0  0
 16  5  1  0  0  0  0
 17 23  1  1  0  0  0
 17 16  1  0  0  0  0
 18 11  1  6  0  0  0
 18 10  1  0  0  0  0
 19  4  1  6  0  0  0
 19  8  1  0  0  0  0
 19  5  1  0  0  0  0
 21 25  2  0  0  0  0
 21 22  1  0  0  0  0
 22 24  2  0  0  0  0
 23 26  2  0  0  0  0
 24 26  1  0  0  0  0
 25 23  1  0  0  0  0
 27 21  1  0  0  0  0
 30 28  2  0  0  0  0
 30 29  1  0  0  0  0
 31 30  1  0  0  0  0
 32 31  1  0  0  0  0
 33 32  1  0  0  0  0
 34 33  2  0  0  0  0
M  END
>  <MODEL>
3

>  <REMARK>
 VINA RESULT:      -9.3      0.807      1.158
  Name = 
  5 active torsions:
  status: ('A' for Active; 'I' for Inactive)
    1  A    between atoms: C_3  and  N_13
    2  A    between atoms: C_12  and  C_28
    3  A    between atoms: C_14  and  O_33
    4  A    between atoms: C_20  and  C_22
    5  A    between atoms: C_22  and  O_33
                            x       y       z     vdW  Elec       q    Type
                         _______ _______ _______ _____ _____    ______ ____

>  <TORSDO>
F 5

$$$$
=
 OpenBabel11052414183D

 34 39  0  0  1  0  0  0  0  0999 V2000
  188.2220  177.5010  145.2920 C   0  0  0  0  0  0  0  0  0  0  0  0
  186.0980  178.6460  145.5570 C   0  0  0  0  0  3  0  0  0  0  0  0
  182.5300  178.9370  143.1390 C   0  0  2  0  0  3  0  0  0  0  0  0
  186.9210  178.1260  143.3640 C   0  0  0  0  0  0  0  0  0  0  0  0
  186.0510  179.3850  141.3420 C   0  0  2  0  0  3  0  0  0  0  0  0
  187.3620  177.9820  147.5070 C   0  0  0  0  0  3  0  0  0  0  0  0
  186.2400  178.5890  146.9440 C   0  0  0  0  0  3  0  0  0  0  0  0
  184.5640  177.8780  142.4690 C   0  0  1  0  0  3  0  0  0  0  0  0
  187.0720  178.0910  144.7070 C   0  0  0  0  0  0  0  0  0  0  0  0
  182.5880  178.8570  141.6280 C   0  0  0  0  0  2  0  0  0  0  0  0
  184.6770  179.4480  140.7160 C   0  0  0  0  0  2  0  0  0  0  0  0
  188.3530  177.4450  146.6830 C   0  0  0  0  0  3  0  0  0  0  0  0
  187.9030  177.4030  142.4700 C   0  0  1  0  0  3  0  0  0  0  0  0
  189.2190  177.0510  144.5330 C   0  0  0  0  0  3  0  0  0  0  0  0
  183.5720  177.9620  143.6110 C   0  0  0  0  0  2  0  0  0  0  0  0
  186.8710  178.4750  140.5360 N   0  0  0  0  0  2  0  0  0  0  0  0
  188.1440  178.2270  141.2070 C   0  0  2  0  0  3  0  0  0  0  0  0
  183.8950  178.3290  141.2430 N   0  0  1  0  0  0  0  0  0  0  0  0
  185.7390  178.8080  142.7130 C   0  0  1  0  0  3  0  0  0  0  0  0
  189.1360  177.1270  143.1400 O   0  0  0  0  0  0  0  0  0  0  0  0
  189.4740  176.4350  138.1450 C   0  0  0  0  0  0  0  0  0  0  0  0
  190.8170  176.2450  138.4860 C   0  0  0  0  0  3  0  0  0  0  0  0
  189.0840  177.5320  140.2720 C   0  0  0  0  0  0  0  0  0  0  0  0
  191.2970  176.6990  139.7180 C   0  0  0  0  0  3  0  0  0  0  0  0
  188.6100  177.0770  139.0370 C   0  0  0  0  0  3  0  0  0  0  0  0
  190.4340  177.3430  140.6090 C   0  0  0  0  0  3  0  0  0  0  0  0
  189.0120  175.9980  136.9490 F   0  0  0  0  0  0  0  0  0  0  0  0
  178.9310  178.8790  143.7840 O   0  0  0  0  0  0  0  0  0  0  0  0
  181.2190  178.5280  143.6190 N   0  0  0  0  0  2  0  0  0  0  0  0
  180.0410  179.2900  143.3530 C   0  0  0  0  0  0  0  0  0  0  0  0
  180.1250  180.4760  142.6170 O   0  0  0  0  0  0  0  0  0  0  0  0
  179.1300  180.8630  141.6760 C   0  0  0  0  0  2  0  0  0  0  0  0
  179.6990  180.8920  140.2950 C   0  0  0  0  0  3  0  0  0  0  0  0
  179.6970  181.9250  139.6460 O   0  0  0  0  0  0  0  0  0  0  0  0
  1 12  1  0  0  0  0
  2  7  2  0  0  0  0
  3 15  1  0  0  0  0
  3 29  1  1  0  0  0
  4  9  2  0  0  0  0
  5 11  1  6  0  0  0
  5 19  1  0  0  0  0
  7  6  1  0  0  0  0
  8 19  1  0  0  0  0
  8 15  1  1  0  0  0
  9  1  1  0  0  0  0
  9  2  1  0  0  0  0
 10  3  1  0  0  0  0
 12  6  2  0  0  0  0
 13 20  1  1  0  0  0
 13  4  1  0  0  0  0
 14  1  2  0  0  0  0
 16 17  1  0  0  0  0
 16  5  1  0  0  0  0
 17 23  1  6  0  0  0
 17 13  1  0  0  0  0
 18 11  1  1  0  0  0
 18 10  1  0  0  0  0
 18  8  1  0  0  0  0
 19  4  1  6  0  0  0
 20 14  1  0  0  0  0
 21 22  2  0  0  0  0
 21 25  1  0  0  0  0
 22 24  1  0  0  0  0
 23 26  1  0  0  0  0
 24 26  2  0  0  0  0
 25 23  2  0  0  0  0
 27 21  1  0  0  0  0
 30 29  1  0  0  0  0
 30 28  2  0  0  0  0
 31 30  1  0  0  0  0
 32 31  1  0  0  0  0
 33 32  1  0  0  0  0
 34 33  2  0  0  0  0
M  END
>  <MODEL>
4

>  <REMARK>
 VINA RESULT:      -8.7      3.280      8.433
  Name = 
  5 active torsions:
  status: ('A' for Active; 'I' for Inactive)
    1  A    between atoms: C_3  and  N_13
    2  A    between atoms: C_12  and  C_28
    3  A    between atoms: C_14  and  O_33
    4  A    between atoms: C_20  and  C_22
    5  A    between atoms: C_22  and  O_33
                            x       y       z     vdW  Elec       q    Type
                         _______ _______ _______ _____ _____    ______ ____

>  <TORSDO>
F 5

$$$$
=
 OpenBabel11052414183D

 34 39  0  0  1  0  0  0  0  0999 V2000
  185.9710  178.1890  142.5950 C   0  0  0  0  0  0  0  0  0  0  0  0
  186.6760  178.5080  140.2940 C   0  0  0  0  0  3  0  0  0  0  0  0
  189.8890  176.9010  137.8950 C   0  0  2  0  0  3  0  0  0  0  0  0
  188.2650  177.8250  141.9570 C   0  0  0  0  0  0  0  0  0  0  0  0
  190.7470  178.1670  141.5690 C   0  0  2  0  0  3  0  0  0  0  0  0
  184.3580  178.8290  140.9020 C   0  0  0  0  0  3  0  0  0  0  0  0
  185.3660  178.8340  139.9380 C   0  0  0  0  0  3  0  0  0  0  0  0
  189.6030  176.5320  140.2380 C   0  0  1  0  0  3  0  0  0  0  0  0
  187.0000  178.1630  141.6190 C   0  0  0  0  0  0  0  0  0  0  0  0
  191.2120  176.4960  138.5120 C   0  0  0  0  0  2  0  0  0  0  0  0
  191.6920  177.5760  140.5480 C   0  0  0  0  0  2  0  0  0  0  0  0
  184.6610  178.5120  142.2270 C   0  0  0  0  0  3  0  0  0  0  0  0
  188.5700  177.3210  143.3500 C   0  0  1  0  0  3  0  0  0  0  0  0
  186.2430  177.9690  143.8800 C   0  0  0  0  0  3  0  0  0  0  0  0
  188.8590  176.5140  138.9190 C   0  0  0  0  0  2  0  0  0  0  0  0
  190.9510  177.4570  142.8350 N   0  0  0  0  0  2  0  0  0  0  0  0
  189.9280  177.8550  143.7980 C   0  0  2  0  0  3  0  0  0  0  0  0
  191.0390  176.4060  139.9600 N   0  0  1  0  0  0  0  0  0  0  0  0
  189.3930  177.8550  140.9520 C   0  0  1  0  0  3  0  0  0  0  0  0
  187.5480  177.6800  144.2850 O   0  0  0  0  0  0  0  0  0  0  0  0
  191.7830  176.0720  146.5790 C   0  0  0  0  0  0  0  0  0  0  0  0
  191.0140  176.4090  147.6970 C   0  0  0  0  0  3  0  0  0  0  0  0
  190.2900  177.3530  145.1610 C   0  0  0  0  0  0  0  0  0  0  0  0
  189.8840  177.2180  147.5510 C   0  0  0  0  0  3  0  0  0  0  0  0
  191.4210  176.5430  145.3140 C   0  0  0  0  0  3  0  0  0  0  0  0
  189.5230  177.6920  146.2860 C   0  0  0  0  0  3  0  0  0  0  0  0
  192.8800  175.2910  146.7240 F   0  0  0  0  0  0  0  0  0  0  0  0
  188.6180  175.9680  134.5960 O   0  0  0  0  0  0  0  0  0  0  0  0
  189.6590  176.1670  136.6610 N   0  0  0  0  0  2  0  0  0  0  0  0
  188.7680  176.6410  135.6510 C   0  0  0  0  0  0  0  0  0  0  0  0
  188.0770  177.8430  135.8330 O   0  0  0  0  0  0  0  0  0  0  0  0
  186.6850  177.9700  135.5690 C   0  0  0  0  0  2  0  0  0  0  0  0
  185.8860  177.2610  136.6130 C   0  0  0  0  0  3  0  0  0  0  0  0
  184.6740  177.3920  136.6610 O   0  0  0  0  0  0  0  0  0  0  0  0
  1 14  2  0  0  0  0
  2  9  1  0  0  0  0
  3 29  1  6  0  0  0
  3 10  1  0  0  0  0
  3 15  1  0  0  0  0
  5 11  1  6  0  0  0
  5 16  1  0  0  0  0
  6 12  2  0  0  0  0
  7  2  2  0  0  0  0
  7  6  1  0  0  0  0
  8 15  1  6  0  0  0
  8 19  1  0  0  0  0
  9  4  2  0  0  0  0
  9  1  1  0  0  0  0
 12  1  1  0  0  0  0
 13  4  1  6  0  0  0
 13 17  1  0  0  0  0
 13 20  1  0  0  0  0
 14 20  1  0  0  0  0
 16 17  1  0  0  0  0
 17 23  1  1  0  0  0
 18 10  1  6  0  0  0
 18  8  1  0  0  0  0
 18 11  1  0  0  0  0
 19  5  1  0  0  0  0
 19  4  1  1  0  0  0
 21 27  1  0  0  0  0
 21 22  1  0  0  0  0
 23 25  1  0  0  0  0
 23 26  2  0  0  0  0
 24 22  2  0  0  0  0
 25 21  2  0  0  0  0
 26 24  1  0  0  0  0
 28 30  2  0  0  0  0
 30 31  1  0  0  0  0
 30 29  1  0  0  0  0
 32 31  1  0  0  0  0
 32 33  1  0  0  0  0
 33 34  2  0  0  0  0
M  END
>  <MODEL>
5

>  <REMARK>
 VINA RESULT:      -8.4      4.182      8.152
  Name = 
  5 active torsions:
  status: ('A' for Active; 'I' for Inactive)
    1  A    between atoms: C_3  and  N_13
    2  A    between atoms: C_12  and  C_28
    3  A    between atoms: C_14  and  O_33
    4  A    between atoms: C_20  and  C_22
    5  A    between atoms: C_22  and  O_33
                            x       y       z     vdW  Elec       q    Type
                         _______ _______ _______ _____ _____    ______ ____

>  <TORSDO>
F 5

$$$$
=
 OpenBabel11052414183D

 34 39  0  0  1  0  0  0  0  0999 V2000
  184.7380  178.6520  145.0470 C   0  0  0  0  0  0  0  0  0  0  0  0
  186.5420  177.5260  143.8770 C   0  0  0  0  0  3  0  0  0  0  0  0
  188.1320  177.7820  139.8690 C   0  0  2  0  0  3  0  0  0  0  0  0
  184.6920  178.4370  142.6490 C   0  0  0  0  0  0  0  0  0  0  0  0
  184.1810  177.6060  140.3080 C   0  0  2  0  0  3  0  0  0  0  0  0
  186.6330  177.7780  146.2800 C   0  0  0  0  0  3  0  0  0  0  0  0
  187.1970  177.3140  145.0910 C   0  0  0  0  0  3  0  0  0  0  0  0
  186.1710  178.9030  140.6450 C   0  0  1  0  0  3  0  0  0  0  0  0
  185.3140  178.2110  143.8280 C   0  0  0  0  0  0  0  0  0  0  0  0
  187.2540  178.1470  138.6900 C   0  0  0  0  0  2  0  0  0  0  0  0
  184.9670  177.6950  139.0200 C   0  0  0  0  0  2  0  0  0  0  0  0
  185.4040  178.4400  146.2580 C   0  0  0  0  0  3  0  0  0  0  0  0
  183.4480  179.2950  142.5970 C   0  0  1  0  0  3  0  0  0  0  0  0
  183.5310  179.2170  145.0670 C   0  0  0  0  0  3  0  0  0  0  0  0
  187.6160  178.6250  141.0010 C   0  0  0  0  0  2  0  0  0  0  0  0
  183.1370  178.6350  140.2690 N   0  0  0  0  0  2  0  0  0  0  0  0
  182.4760  178.7220  141.5680 C   0  0  2  0  0  3  0  0  0  0  0  0
  186.0060  178.7090  139.2000 N   0  0  1  0  0  0  0  0  0  0  0  0
  185.2500  177.9180  141.3430 C   0  0  1  0  0  3  0  0  0  0  0  0
  182.8230  179.4100  143.8790 O   0  0  0  0  0  0  0  0  0  0  0  0
  179.7890  180.9570  140.1070 C   0  0  0  0  0  0  0  0  0  0  0  0
  178.9310  181.1230  141.1980 C   0  0  0  0  0  3  0  0  0  0  0  0
  181.2420  179.5610  141.4560 C   0  0  0  0  0  0  0  0  0  0  0  0
  179.2230  180.5070  142.4180 C   0  0  0  0  0  3  0  0  0  0  0  0
  180.9420  180.1780  140.2360 C   0  0  0  0  0  3  0  0  0  0  0  0
  180.3750  179.7260  142.5480 C   0  0  0  0  0  3  0  0  0  0  0  0
  179.5010  181.5510  138.9240 F   0  0  0  0  0  0  0  0  0  0  0  0
  191.7870  177.6930  139.8340 O   0  0  0  0  0  0  0  0  0  0  0  0
  189.5190  178.1210  139.5930 N   0  0  0  0  0  2  0  0  0  0  0  0
  190.6060  177.3590  140.1170 C   0  0  0  0  0  0  0  0  0  0  0  0
  190.3560  176.2500  140.9320 O   0  0  0  0  0  0  0  0  0  0  0  0
  190.1520  176.3650  142.3360 C   0  0  0  0  0  2  0  0  0  0  0  0
  191.4540  176.5740  143.0390 C   0  0  0  0  0  3  0  0  0  0  0  0
  191.6850  177.6250  143.6130 O   0  0  0  0  0  0  0  0  0  0  0  0
  1 14  2  0  0  0  0
  1 12  1  0  0  0  0
  2  7  2  0  0  0  0
  3 29  1  6  0  0  0
  3 15  1  0  0  0  0
  4  9  2  0  0  0  0
  5 11  1  6  0  0  0
  5 19  1  0  0  0  0
  7  6  1  0  0  0  0
  8 15  1  1  0  0  0
  8 19  1  0  0  0  0
  9  2  1  0  0  0  0
  9  1  1  0  0  0  0
 10  3  1  0  0  0  0
 11 18  1  0  0  0  0
 12  6  2  0  0  0  0
 13  4  1  1  0  0  0
 13 20  1  0  0  0  0
 16  5  1  0  0  0  0
 16 17  1  0  0  0  0
 17 23  1  6  0  0  0
 17 13  1  0  0  0  0
 18 10  1  1  0  0  0
 18  8  1  0  0  0  0
 19  4  1  1  0  0  0
 20 14  1  0  0  0  0
 21 25  2  0  0  0  0
 21 22  1  0  0  0  0
 22 24  2  0  0  0  0
 23 26  2  0  0  0  0
 24 26  1  0  0  0  0
 25 23  1  0  0  0  0
 27 21  1  0  0  0  0
 28 30  2  0  0  0  0
 29 30  1  0  0  0  0
 30 31  1  0  0  0  0
 31 32  1  0  0  0  0
 32 33  1  0  0  0  0
 33 34  2  0  0  0  0
M  END
>  <MODEL>
6

>  <REMARK>
 VINA RESULT:      -8.3      2.615      4.819
  Name = 
  5 active torsions:
  status: ('A' for Active; 'I' for Inactive)
    1  A    between atoms: C_3  and  N_13
    2  A    between atoms: C_12  and  C_28
    3  A    between atoms: C_14  and  O_33
    4  A    between atoms: C_20  and  C_22
    5  A    between atoms: C_22  and  O_33
                            x       y       z     vdW  Elec       q    Type
                         _______ _______ _______ _____ _____    ______ ____

>  <TORSDO>
F 5

$$$$
=
 OpenBabel11052414183D

 34 39  0  0  1  0  0  0  0  0999 V2000
  190.4880  177.3080  140.2730 C   0  0  0  0  0  0  0  0  0  0  0  0
  190.1250  178.1250  142.5300 C   0  0  0  0  0  3  0  0  0  0  0  0
  186.7080  178.2100  145.1720 C   0  0  2  0  0  3  0  0  0  0  0  0
  188.2870  177.9670  140.9960 C   0  0  0  0  0  0  0  0  0  0  0  0
  186.1770  179.3200  141.3880 C   0  0  2  0  0  3  0  0  0  0  0  0
  192.3320  177.4180  141.8420 C   0  0  0  0  0  3  0  0  0  0  0  0
  191.4770  177.9310  142.8180 C   0  0  0  0  0  3  0  0  0  0  0  0
  186.6650  177.5120  142.8880 C   0  0  1  0  0  3  0  0  0  0  0  0
  189.6020  177.8020  141.2650 C   0  0  0  0  0  0  0  0  0  0  0  0
  185.2950  178.3090  144.6370 C   0  0  0  0  0  2  0  0  0  0  0  0
  185.1470  179.2700  142.4920 C   0  0  0  0  0  2  0  0  0  0  0  0
  191.8400  177.1130  140.5720 C   0  0  0  0  0  3  0  0  0  0  0  0
  187.7130  177.4860  139.6820 C   0  0  1  0  0  3  0  0  0  0  0  0
  190.0640  177.0820  139.0310 C   0  0  0  0  0  3  0  0  0  0  0  0
  187.4280  177.3360  144.1840 C   0  0  0  0  0  2  0  0  0  0  0  0
  185.6230  178.6220  140.2230 N   0  0  0  0  0  2  0  0  0  0  0  0
  186.6520  178.4710  139.1980 C   0  0  2  0  0  3  0  0  0  0  0  0
  185.3200  178.0060  143.2080 N   0  0  1  0  0  0  0  0  0  0  0  0
  187.3340  178.5560  142.0120 C   0  0  1  0  0  3  0  0  0  0  0  0
  188.7270  177.3020  138.6900 O   0  0  0  0  0  0  0  0  0  0  0  0
  184.1010  177.1420  136.7320 C   0  0  0  0  0  0  0  0  0  0  0  0
  184.8190  177.1750  135.5330 C   0  0  0  0  0  3  0  0  0  0  0  0
  186.0290  178.0160  137.9150 C   0  0  0  0  0  0  0  0  0  0  0  0
  186.1400  177.6310  135.5210 C   0  0  0  0  0  3  0  0  0  0  0  0
  184.7050  177.5610  137.9210 C   0  0  0  0  0  3  0  0  0  0  0  0
  186.7440  178.0520  136.7090 C   0  0  0  0  0  3  0  0  0  0  0  0
  182.8190  176.7040  136.7410 F   0  0  0  0  0  0  0  0  0  0  0  0
  187.8340  176.9290  148.4060 O   0  0  0  0  0  0  0  0  0  0  0  0
  186.7110  177.5800  146.4830 N   0  0  0  0  0  2  0  0  0  0  0  0
  187.8960  177.4750  147.2720 C   0  0  0  0  0  0  0  0  0  0  0  0
  189.1080  177.9780  146.7880 O   0  0  0  0  0  0  0  0  0  0  0  0
  190.1600  177.1320  146.3390 C   0  0  0  0  0  2  0  0  0  0  0  0
  191.1570  176.9120  147.4310 C   0  0  0  0  0  3  0  0  0  0  0  0
  192.2080  176.3380  147.2030 O   0  0  0  0  0  0  0  0  0  0  0  0
  1 12  1  0  0  0  0
  1  9  1  0  0  0  0
  2  7  2  0  0  0  0
  3 29  1  1  0  0  0
  4  9  2  0  0  0  0
  5 19  1  0  0  0  0
  5 11  1  1  0  0  0
  6  7  1  0  0  0  0
  8 18  1  0  0  0  0
  8 15  1  1  0  0  0
  9  2  1  0  0  0  0
 10  3  1  0  0  0  0
 12  6  2  0  0  0  0
 13 20  1  6  0  0  0
 13  4  1  0  0  0  0
 14  1  2  0  0  0  0
 15  3  1  0  0  0  0
 16  5  1  0  0  0  0
 17 23  1  6  0  0  0
 17 13  1  0  0  0  0
 17 16  1  0  0  0  0
 18 11  1  6  0  0  0
 18 10  1  0  0  0  0
 19  4  1  6  0  0  0
 19  8  1  0  0  0  0
 20 14  1  0  0  0  0
 21 27  1  0  0  0  0
 21 25  1  0  0  0  0
 22 21  2  0  0  0  0
 23 25  2  0  0  0  0
 24 22  1  0  0  0  0
 24 26  2  0  0  0  0
 26 23  1  0  0  0  0
 29 30  1  0  0  0  0
 30 28  2  0  0  0  0
 31 30  1  0  0  0  0
 32 31  1  0  0  0  0
 32 33  1  0  0  0  0
 34 33  2  0  0  0  0
M  END
>  <MODEL>
7

>  <REMARK>
 VINA RESULT:      -8.2      3.023      4.916
  Name = 
  5 active torsions:
  status: ('A' for Active; 'I' for Inactive)
    1  A    between atoms: C_3  and  N_13
    2  A    between atoms: C_12  and  C_28
    3  A    between atoms: C_14  and  O_33
    4  A    between atoms: C_20  and  C_22
    5  A    between atoms: C_22  and  O_33
                            x       y       z     vdW  Elec       q    Type
                         _______ _______ _______ _____ _____    ______ ____

>  <TORSDO>
F 5

$$$$
=
 OpenBabel11052414183D

 34 39  0  0  1  0  0  0  0  0999 V2000
  190.6930  177.3470  141.7490 C   0  0  0  0  0  0  0  0  0  0  0  0
  189.3200  178.5360  143.3600 C   0  0  0  0  0  3  0  0  0  0  0  0
  185.0610  178.8570  144.0080 C   0  0  2  0  0  3  0  0  0  0  0  0
  188.4300  177.9660  141.2060 C   0  0  0  0  0  0  0  0  0  0  0  0
  186.4200  179.2100  140.2850 C   0  0  2  0  0  3  0  0  0  0  0  0
  191.5720  177.8780  143.9440 C   0  0  0  0  0  3  0  0  0  0  0  0
  190.3680  178.4980  144.2810 C   0  0  0  0  0  3  0  0  0  0  0  0
  186.0930  177.7500  142.1600 C   0  0  1  0  0  3  0  0  0  0  0  0
  189.4540  177.9490  142.0880 C   0  0  0  0  0  0  0  0  0  0  0  0
  184.0760  178.7530  142.8630 C   0  0  0  0  0  2  0  0  0  0  0  0
  184.9880  179.2890  140.7600 C   0  0  0  0  0  2  0  0  0  0  0  0
  191.7350  177.3100  142.6800 C   0  0  0  0  0  3  0  0  0  0  0  0
  188.5380  177.2110  139.9000 C   0  0  1  0  0  3  0  0  0  0  0  0
  190.9060  176.8660  140.5250 C   0  0  0  0  0  3  0  0  0  0  0  0
  186.1430  177.8710  143.6680 C   0  0  0  0  0  2  0  0  0  0  0  0
  186.4700  178.2720  139.1590 N   0  0  0  0  0  2  0  0  0  0  0  0
  187.8580  178.0100  138.7910 C   0  0  2  0  0  3  0  0  0  0  0  0
  184.7690  178.1940  141.7050 N   0  0  1  0  0  0  0  0  0  0  0  0
  187.1230  178.6600  141.5160 C   0  0  1  0  0  3  0  0  0  0  0  0
  189.8970  176.9220  139.5600 O   0  0  0  0  0  0  0  0  0  0  0  0
  187.2830  175.3600  136.1450 C   0  0  0  0  0  0  0  0  0  0  0  0
  187.9630  175.8990  135.0480 C   0  0  0  0  0  3  0  0  0  0  0  0
  187.9090  177.2830  137.4840 C   0  0  0  0  0  0  0  0  0  0  0  0
  188.6140  177.1300  135.1650 C   0  0  0  0  0  3  0  0  0  0  0  0
  187.2570  176.0510  137.3600 C   0  0  0  0  0  3  0  0  0  0  0  0
  188.5870  177.8230  136.3790 C   0  0  0  0  0  3  0  0  0  0  0  0
  186.6490  174.1690  136.0280 F   0  0  0  0  0  0  0  0  0  0  0  0
  184.5310  178.1370  147.5530 O   0  0  0  0  0  0  0  0  0  0  0  0
  184.4260  178.4810  145.2610 N   0  0  0  0  0  2  0  0  0  0  0  0
  185.1380  178.4600  146.4970 C   0  0  0  0  0  0  0  0  0  0  0  0
  186.4950  178.7980  146.5310 O   0  0  0  0  0  0  0  0  0  0  0  0
  187.4930  177.9070  147.0140 C   0  0  0  0  0  2  0  0  0  0  0  0
  187.9740  178.3390  148.3610 C   0  0  0  0  0  3  0  0  0  0  0  0
  189.1160  178.1010  148.7160 O   0  0  0  0  0  0  0  0  0  0  0  0
  1  9  1  0  0  0  0
  1 12  1  0  0  0  0
  2  7  2  0  0  0  0
  3 29  1  1  0  0  0
  4  9  2  0  0  0  0
  5 11  1  1  0  0  0
  5 19  1  0  0  0  0
  6  7  1  0  0  0  0
  8 15  1  1  0  0  0
  9  2  1  0  0  0  0
 10  3  1  0  0  0  0
 12  6  2  0  0  0  0
 13 20  1  6  0  0  0
 13  4  1  0  0  0  0
 14  1  2  0  0  0  0
 15  3  1  0  0  0  0
 16  5  1  0  0  0  0
 17 23  1  6  0  0  0
 17 16  1  0  0  0  0
 17 13  1  0  0  0  0
 18 11  1  6  0  0  0
 18  8  1  0  0  0  0
 18 10  1  0  0  0  0
 19  4  1  6  0  0  0
 19  8  1  0  0  0  0
 20 14  1  0  0  0  0
 21 25  1  0  0  0  0
 22 24  1  0  0  0  0
 22 21  2  0  0  0  0
 24 26  2  0  0  0  0
 25 23  2  0  0  0  0
 26 23  1  0  0  0  0
 27 21  1  0  0  0  0
 29 30  1  0  0  0  0
 30 31  1  0  0  0  0
 30 28  2  0  0  0  0
 31 32  1  0  0  0  0
 32 33  1  0  0  0  0
 33 34  2  0  0  0  0
M  END
>  <MODEL>
8

>  <REMARK>
 VINA RESULT:      -8.1      3.477      6.542
  Name = 
  5 active torsions:
  status: ('A' for Active; 'I' for Inactive)
    1  A    between atoms: C_3  and  N_13
    2  A    between atoms: C_12  and  C_28
    3  A    between atoms: C_14  and  O_33
    4  A    between atoms: C_20  and  C_22
    5  A    between atoms: C_22  and  O_33
                            x       y       z     vdW  Elec       q    Type
                         _______ _______ _______ _____ _____    ______ ____

>  <TORSDO>
F 5

$$$$
=
 OpenBabel11052414183D

 34 39  0  0  1  0  0  0  0  0999 V2000
  186.5260  177.9350  145.0680 C   0  0  0  0  0  0  0  0  0  0  0  0
  186.5820  178.6060  142.7360 C   0  0  0  0  0  3  0  0  0  0  0  0
  189.0110  177.4690  139.3490 C   0  0  2  0  0  3  0  0  0  0  0  0
  188.5570  177.7420  143.7890 C   0  0  0  0  0  0  0  0  0  0  0  0
  190.8440  178.2180  142.8000 C   0  0  2  0  0  3  0  0  0  0  0  0
  184.5190  178.7590  143.9870 C   0  0  0  0  0  3  0  0  0  0  0  0
  185.2270  178.9370  142.7990 C   0  0  0  0  0  3  0  0  0  0  0  0
  189.3680  176.7560  141.6010 C   0  0  1  0  0  3  0  0  0  0  0  0
  187.2510  178.0840  143.8590 C   0  0  0  0  0  0  0  0  0  0  0  0
  190.4480  177.0220  139.5190 C   0  0  0  0  0  2  0  0  0  0  0  0
  191.4710  177.8120  141.4870 C   0  0  0  0  0  2  0  0  0  0  0  0
  185.1680  178.2650  145.1200 C   0  0  0  0  0  3  0  0  0  0  0  0
  189.2260  177.0530  144.9580 C   0  0  1  0  0  3  0  0  0  0  0  0
  187.1350  177.5410  146.1850 C   0  0  0  0  0  3  0  0  0  0  0  0
  188.2940  176.9040  140.5440 C   0  0  0  0  0  2  0  0  0  0  0  0
  191.3780  177.3390  143.8450 N   0  0  0  0  0  2  0  0  0  0  0  0
  190.6590  177.5610  145.0970 C   0  0  2  0  0  3  0  0  0  0  0  0
  190.6740  176.7190  140.9300 N   0  0  1  0  0  0  0  0  0  0  0  0
  189.3710  177.9550  142.5330 C   0  0  1  0  0  3  0  0  0  0  0  0
  188.4990  177.2390  146.1760 O   0  0  0  0  0  0  0  0  0  0  0  0
  192.2960  176.9700  148.4620 C   0  0  0  0  0  0  0  0  0  0  0  0
  192.6900  175.6320  148.3570 C   0  0  0  0  0  3  0  0  0  0  0  0
  191.3740  176.8780  146.2210 C   0  0  0  0  0  0  0  0  0  0  0  0
  192.4260  174.9150  147.1870 C   0  0  0  0  0  3  0  0  0  0  0  0
  191.6390  177.5910  147.3960 C   0  0  0  0  0  3  0  0  0  0  0  0
  191.7670  175.5350  146.1210 C   0  0  0  0  0  3  0  0  0  0  0  0
  192.5490  177.6620  149.5990 F   0  0  0  0  0  0  0  0  0  0  0  0
  186.7740  176.8580  136.5220 O   0  0  0  0  0  0  0  0  0  0  0  0
  188.4480  176.9140  138.1280 N   0  0  0  0  0  2  0  0  0  0  0  0
  187.2060  177.3680  137.5900 C   0  0  0  0  0  0  0  0  0  0  0  0
  186.4840  178.3720  138.2430 O   0  0  0  0  0  0  0  0  0  0  0  0
  185.0640  178.3580  138.3300 C   0  0  0  0  0  2  0  0  0  0  0  0
  184.5950  179.2950  139.3950 C   0  0  0  0  0  3  0  0  0  0  0  0
  184.1770  180.4030  139.1050 O   0  0  0  0  0  0  0  0  0  0  0  0
  1 12  1  0  0  0  0
  1 14  2  0  0  0  0
  2  7  2  0  0  0  0
  2  9  1  0  0  0  0
  3 29  1  6  0  0  0
  3 10  1  0  0  0  0
  3 15  1  0  0  0  0
  4  9  2  0  0  0  0
  5 11  1  6  0  0  0
  5 16  1  0  0  0  0
  6 12  2  0  0  0  0
  7  6  1  0  0  0  0
  8 15  1  6  0  0  0
  8 19  1  0  0  0  0
  9  1  1  0  0  0  0
 13  4  1  6  0  0  0
 13 17  1  0  0  0  0
 13 20  1  0  0  0  0
 16 17  1  0  0  0  0
 17 23  1  1  0  0  0
 18 10  1  6  0  0  0
 18 11  1  0  0  0  0
 18  8  1  0  0  0  0
 19  5  1  0  0  0  0
 19  4  1  1  0  0  0
 20 14  1  0  0  0  0
 21 27  1  0  0  0  0
 22 21  1  0  0  0  0
 23 25  1  0  0  0  0
 24 22  2  0  0  0  0
 25 21  2  0  0  0  0
 26 23  2  0  0  0  0
 26 24  1  0  0  0  0
 28 30  2  0  0  0  0
 30 29  1  0  0  0  0
 30 31  1  0  0  0  0
 31 32  1  0  0  0  0
 32 33  1  0  0  0  0
 34 33  2  0  0  0  0
M  END
>  <MODEL>
9

>  <REMARK>
 VINA RESULT:      -8.1      3.807      8.400
  Name = 
  5 active torsions:
  status: ('A' for Active; 'I' for Inactive)
    1  A    between atoms: C_3  and  N_13
    2  A    between atoms: C_12  and  C_28
    3  A    between atoms: C_14  and  O_33
    4  A    between atoms: C_20  and  C_22
    5  A    between atoms: C_22  and  O_33
                            x       y       z     vdW  Elec       q    Type
                         _______ _______ _______ _____ _____    ______ ____

>  <TORSDO>
F 5

$$$$
