=
 OpenBabel11052414313D

 32 35  0  0  1  0  0  0  0  0999 V2000
  190.6020  176.6250  145.8950 O   0  0  0  0  0  0  0  0  0  0  0  0
  188.2750  177.2200  147.2280 O   0  0  0  0  0  0  0  0  0  0  0  0
  189.2600  177.1410  141.3840 C   0  0  1  0  0  3  0  0  0  0  0  0
  191.6620  176.7880  144.9690 C   0  0  0  0  0  2  0  0  0  0  0  0
  189.0750  178.4750  141.0100 O   0  0  0  0  0  1  0  0  0  0  0  0
  188.3150  177.4420  145.9890 C   0  0  0  0  0  0  0  0  0  0  0  0
  190.7440  176.7030  141.2050 C   0  0  2  0  0  3  0  0  0  0  0  0
  191.0050  176.7470  143.6190 C   0  0  2  0  0  3  0  0  0  0  0  0
  191.6890  177.1590  142.3330 C   0  0  0  0  0  2  0  0  0  0  0  0
  188.7320  176.9170  142.8260 C   0  0  0  0  0  2  0  0  0  0  0  0
  189.8650  178.9820  143.7750 C   0  0  0  0  0  1  0  0  0  0  0  0
  189.4850  177.0740  145.2400 N   0  0  0  0  0  0  0  0  0  0  0  0
  189.7260  177.4570  143.8590 C   0  0  2  0  0  0  0  0  0  0  0  0
  191.6780  176.5080  137.4740 C   0  0  0  0  0  1  0  0  0  0  0  0
  191.3000  176.9910  139.8400 C   0  0  0  0  0  3  0  0  0  0  0  0
  191.1050  176.1730  138.8060 C   0  0  0  0  0  3  0  0  0  0  0  0
  187.1250  178.0610  145.3250 C   0  0  0  0  0  2  0  0  0  0  0  0
  185.9000  177.9870  146.2250 C   0  0  0  0  0  2  0  0  0  0  0  0
  184.8710  179.0360  145.8380 C   0  0  0  0  0  2  0  0  0  0  0  0
  183.7650  178.4220  145.2430 O   0  0  0  0  0  0  0  0  0  0  0  0
  182.1110  179.3140  143.7850 C   0  0  0  0  0  1  0  0  0  0  0  0
  183.5900  179.0940  144.0310 C   0  0  2  0  0  3  0  0  0  0  0  0
  184.1650  178.2710  142.8910 C   0  0  0  0  0  2  0  0  0  0  0  0
  183.4180  178.8490  140.1890 C   0  0  2  0  0  3  0  0  0  0  0  0
  185.1550  179.1000  142.0770 C   0  0  2  0  0  3  0  0  0  0  0  0
  184.8410  179.3730  140.5770 C   0  0  1  0  0  0  0  0  0  0  0  0
  183.1190  177.3500  140.3430 C   0  0  0  0  0  1  0  0  0  0  0  0
  185.8170  178.2660  141.0360 C   0  0  0  0  0  2  0  0  0  0  0  0
  184.4340  179.1210  139.1010 C   0  0  1  0  0  3  0  0  0  0  0  0
  185.0490  177.9000  138.3980 C   0  0  0  0  0  2  0  0  0  0  0  0
  186.1700  178.3510  137.4850 C   0  0  0  0  0  2  0  0  0  0  0  0
  187.4620  177.6820  137.9030 C   0  0  0  0  0  1  0  0  0  0  0  0
  3  5  1  1  0  0  0
  3 10  1  0  0  0  0
  4  1  1  0  0  0  0
  6  2  2  0  0  0  0
  7 15  1  6  0  0  0
  7  3  1  0  0  0  0
  7  9  1  0  0  0  0
  8  9  1  6  0  0  0
  8 13  1  0  0  0  0
  8  4  1  0  0  0  0
 10 13  1  0  0  0  0
 12  1  1  0  0  0  0
 12  6  1  0  0  0  0
 13 11  1  6  0  0  0
 13 12  1  0  0  0  0
 14 16  1  0  0  0  0
 16 15  2  0  0  0  0
 17  6  1  0  0  0  0
 17 18  1  0  0  0  0
 19 18  1  0  0  0  0
 20 19  1  0  0  0  0
 22 21  1  6  0  0  0
 22 20  1  0  0  0  0
 23 22  1  0  0  0  0
 24 27  1  1  0  0  0
 24 26  1  0  0  0  0
 25 23  1  1  0  0  0
 26 28  1  6  0  0  0
 26 25  1  0  0  0  0
 28 25  1  0  0  0  0
 29 30  1  1  0  0  0
 29 24  1  0  0  0  0
 29 26  1  0  0  0  0
 31 32  1  0  0  0  0
 31 30  1  0  0  0  0
M  END
>  <MODEL>
1

>  <REMARK>
 VINA RESULT:      -7.4      0.000      0.000
  Name = 
  10 active torsions:
  status: ('A' for Active; 'I' for Inactive)
    1  A    between atoms: C_6  and  C_17
    2  A    between atoms: C_9  and  O_31
    3  A    between atoms: C_9  and  C_32
    4  A    between atoms: C_10  and  C_28
    5  A    between atoms: C_12  and  C_17
    6  A    between atoms: C_12  and  O_31
    7  A    between atoms: C_14  and  C_21
    8  A    between atoms: C_14  and  C_29
    9  A    between atoms: C_15  and  C_19
   10  A    between atoms: C_28  and  C_32
                            x       y       z     vdW  Elec       q    Type
                         _______ _______ _______ _____ _____    ______ ____

>  <TORSDO>
F 10

$$$$
=
 OpenBabel11052414313D

 32 35  0  0  1  0  0  0  0  0999 V2000
  192.0830  177.7180  142.9420 O   0  0  0  0  0  0  0  0  0  0  0  0
  192.2880  177.4220  140.2190 O   0  0  0  0  0  0  0  0  0  0  0  0
  187.3880  177.9120  143.5160 C   0  0  1  0  0  3  0  0  0  0  0  0
  191.6290  177.4600  144.2590 C   0  0  0  0  0  2  0  0  0  0  0  0
  186.7550  176.6780  143.3360 O   0  0  0  0  0  1  0  0  0  0  0  0
  191.1440  177.3230  140.7360 C   0  0  0  0  0  0  0  0  0  0  0  0
  187.8750  178.0900  144.9850 C   0  0  2  0  0  3  0  0  0  0  0  0
  190.1570  177.7560  144.2250 C   0  0  2  0  0  3  0  0  0  0  0  0
  189.1890  177.3580  145.3190 C   0  0  0  0  0  2  0  0  0  0  0  0
  188.5260  178.0810  142.4750 C   0  0  0  0  0  2  0  0  0  0  0  0
  189.4850  175.7590  142.8520 C   0  0  0  0  0  1  0  0  0  0  0  0
  190.9810  177.5470  142.1460 N   0  0  0  0  0  0  0  0  0  0  0  0
  189.7600  177.2680  142.8830 C   0  0  2  0  0  0  0  0  0  0  0  0
  184.6420  178.2570  147.0730 C   0  0  0  0  0  1  0  0  0  0  0  0
  186.8060  177.8450  146.0120 C   0  0  0  0  0  3  0  0  0  0  0  0
  185.6690  178.5410  146.0330 C   0  0  0  0  0  3  0  0  0  0  0  0
  189.9780  176.9990  139.8560 C   0  0  0  0  0  2  0  0  0  0  0  0
  189.5010  178.2360  139.1080 C   0  0  0  0  0  2  0  0  0  0  0  0
  188.4330  177.8810  138.0870 C   0  0  0  0  0  2  0  0  0  0  0  0
  187.1690  178.2070  138.5860 O   0  0  0  0  0  0  0  0  0  0  0  0
  186.5400  177.9130  136.3110 C   0  0  0  0  0  1  0  0  0  0  0  0
  186.2700  177.5350  137.7530 C   0  0  2  0  0  3  0  0  0  0  0  0
  184.8440  177.9210  138.1080 C   0  0  0  0  0  2  0  0  0  0  0  0
  183.8450  177.5250  140.7620 C   0  0  2  0  0  3  0  0  0  0  0  0
  184.8300  179.1470  139.0170 C   0  0  2  0  0  3  0  0  0  0  0  0
  184.2200  179.0110  140.4420 C   0  0  1  0  0  0  0  0  0  0  0  0
  182.8140  176.8190  139.8690 C   0  0  0  0  0  1  0  0  0  0  0  0
  183.4380  179.6170  139.2540 C   0  0  0  0  0  2  0  0  0  0  0  0
  183.2280  178.6410  141.5760 C   0  0  1  0  0  3  0  0  0  0  0  0
  181.7390  178.9400  141.3380 C   0  0  0  0  0  2  0  0  0  0  0  0
  180.9780  178.8050  142.6400 C   0  0  0  0  0  2  0  0  0  0  0  0
  181.9440  178.9020  143.8020 C   0  0  0  0  0  1  0  0  0  0  0  0
  1  4  1  0  0  0  0
  2  6  2  0  0  0  0
  3  5  1  1  0  0  0
  3  7  1  0  0  0  0
  6 12  1  0  0  0  0
  7  9  1  0  0  0  0
  7 15  1  1  0  0  0
  8  4  1  1  0  0  0
  8  9  1  0  0  0  0
 10 13  1  0  0  0  0
 10  3  1  0  0  0  0
 12 13  1  0  0  0  0
 12  1  1  0  0  0  0
 13 11  1  1  0  0  0
 13  8  1  0  0  0  0
 15 16  2  0  0  0  0
 16 14  1  0  0  0  0
 17  6  1  0  0  0  0
 18 17  1  0  0  0  0
 19 20  1  0  0  0  0
 19 18  1  0  0  0  0
 22 21  1  6  0  0  0
 22 23  1  0  0  0  0
 22 20  1  0  0  0  0
 24 27  1  6  0  0  0
 24 29  1  0  0  0  0
 25 23  1  6  0  0  0
 25 28  1  0  0  0  0
 25 26  1  0  0  0  0
 26 28  1  6  0  0  0
 26 24  1  0  0  0  0
 26 29  1  0  0  0  0
 29 30  1  6  0  0  0
 30 31  1  0  0  0  0
 31 32  1  0  0  0  0
M  END
>  <MODEL>
2

>  <REMARK>
 VINA RESULT:      -7.2      1.867      5.730
  Name = 
  10 active torsions:
  status: ('A' for Active; 'I' for Inactive)
    1  A    between atoms: C_6  and  C_17
    2  A    between atoms: C_9  and  O_31
    3  A    between atoms: C_9  and  C_32
    4  A    between atoms: C_10  and  C_28
    5  A    between atoms: C_12  and  C_17
    6  A    between atoms: C_12  and  O_31
    7  A    between atoms: C_14  and  C_21
    8  A    between atoms: C_14  and  C_29
    9  A    between atoms: C_15  and  C_19
   10  A    between atoms: C_28  and  C_32
                            x       y       z     vdW  Elec       q    Type
                         _______ _______ _______ _____ _____    ______ ____

>  <TORSDO>
F 10

$$$$
=
 OpenBabel11052414313D

 32 35  0  0  1  0  0  0  0  0999 V2000
  190.7140  177.8130  139.9180 O   0  0  0  0  0  0  0  0  0  0  0  0
  188.3270  178.4420  138.7130 O   0  0  0  0  0  0  0  0  0  0  0  0
  189.5690  178.1320  144.5000 C   0  0  1  0  0  3  0  0  0  0  0  0
  191.6030  177.1570  140.8050 C   0  0  0  0  0  2  0  0  0  0  0  0
  188.7630  177.0800  144.9450 O   0  0  0  0  0  1  0  0  0  0  0  0
  188.3250  178.2550  139.9590 C   0  0  0  0  0  0  0  0  0  0  0  0
  191.0810  177.7670  144.5950 C   0  0  2  0  0  3  0  0  0  0  0  0
  191.1380  177.5500  142.1780 C   0  0  2  0  0  3  0  0  0  0  0  0
  191.6000  176.8750  143.4520 C   0  0  0  0  0  2  0  0  0  0  0  0
  189.1380  178.5620  143.0730 C   0  0  0  0  0  2  0  0  0  0  0  0
  189.0250  176.1890  142.1760 C   0  0  0  0  0  1  0  0  0  0  0  0
  189.5650  178.0000  140.6400 N   0  0  0  0  0  0  0  0  0  0  0  0
  189.6640  177.5750  142.0260 C   0  0  2  0  0  0  0  0  0  0  0  0
  192.3090  175.5670  147.5090 C   0  0  0  0  0  1  0  0  0  0  0  0
  191.4980  177.2660  145.9480 C   0  0  0  0  0  3  0  0  0  0  0  0
  191.9060  176.0120  146.1470 C   0  0  0  0  0  3  0  0  0  0  0  0
  187.0270  178.3320  140.7010 C   0  0  0  0  0  2  0  0  0  0  0  0
  185.9790  179.0780  139.8880 C   0  0  0  0  0  2  0  0  0  0  0  0
  184.6550  178.3320  139.8840 C   0  0  0  0  0  2  0  0  0  0  0  0
  183.6140  179.2060  140.2110 O   0  0  0  0  0  0  0  0  0  0  0  0
  181.4110  179.2080  141.1050 C   0  0  0  0  0  1  0  0  0  0  0  0
  182.6890  178.4200  140.9010 C   0  0  2  0  0  3  0  0  0  0  0  0
  183.2490  178.0240  142.2560 C   0  0  0  0  0  2  0  0  0  0  0  0
  185.4160  179.0630  143.8130 C   0  0  2  0  0  3  0  0  0  0  0  0
  182.8870  179.0660  143.3110 C   0  0  2  0  0  3  0  0  0  0  0  0
  184.0110  179.6040  144.2440 C   0  0  1  0  0  0  0  0  0  0  0  0
  185.6510  177.5450  143.8160 C   0  0  0  0  0  1  0  0  0  0  0  0
  183.0190  178.5030  144.6820 C   0  0  0  0  0  2  0  0  0  0  0  0
  185.2270  179.6150  145.2090 C   0  0  1  0  0  3  0  0  0  0  0  0
  185.2190  178.6040  146.3660 C   0  0  0  0  0  2  0  0  0  0  0  0
  186.0820  179.1210  147.4980 C   0  0  0  0  0  2  0  0  0  0  0  0
  187.2870  178.2190  147.6670 C   0  0  0  0  0  1  0  0  0  0  0  0
  1 12  1  0  0  0  0
  1  4  1  0  0  0  0
  2  6  2  0  0  0  0
  3  7  1  0  0  0  0
  3  5  1  6  0  0  0
  6 12  1  0  0  0  0
  6 17  1  0  0  0  0
  7 15  1  1  0  0  0
  8  4  1  6  0  0  0
  8  9  1  0  0  0  0
  9  7  1  0  0  0  0
 10  3  1  0  0  0  0
 12 13  1  0  0  0  0
 13 11  1  1  0  0  0
 13  8  1  0  0  0  0
 13 10  1  0  0  0  0
 15 16  2  0  0  0  0
 16 14  1  0  0  0  0
 18 17  1  0  0  0  0
 19 18  1  0  0  0  0
 19 20  1  0  0  0  0
 20 22  1  0  0  0  0
 22 21  1  1  0  0  0
 22 23  1  0  0  0  0
 24 27  1  1  0  0  0
 24 26  1  0  0  0  0
 24 29  1  0  0  0  0
 25 23  1  6  0  0  0
 25 26  1  0  0  0  0
 25 28  1  0  0  0  0
 26 28  1  1  0  0  0
 26 29  1  0  0  0  0
 29 30  1  1  0  0  0
 30 31  1  0  0  0  0
 31 32  1  0  0  0  0
M  END
>  <MODEL>
3

>  <REMARK>
 VINA RESULT:      -7.2      1.975      5.493
  Name = 
  10 active torsions:
  status: ('A' for Active; 'I' for Inactive)
    1  A    between atoms: C_6  and  C_17
    2  A    between atoms: C_9  and  O_31
    3  A    between atoms: C_9  and  C_32
    4  A    between atoms: C_10  and  C_28
    5  A    between atoms: C_12  and  C_17
    6  A    between atoms: C_12  and  O_31
    7  A    between atoms: C_14  and  C_21
    8  A    between atoms: C_14  and  C_29
    9  A    between atoms: C_15  and  C_19
   10  A    between atoms: C_28  and  C_32
                            x       y       z     vdW  Elec       q    Type
                         _______ _______ _______ _____ _____    ______ ____

>  <TORSDO>
F 10

$$$$
=
 OpenBabel11052414313D

 32 35  0  0  1  0  0  0  0  0999 V2000
  189.3750  178.1210  141.1730 O   0  0  0  0  0  0  0  0  0  0  0  0
  186.7950  178.6820  140.4140 O   0  0  0  0  0  0  0  0  0  0  0  0
  188.9220  177.7970  145.8740 C   0  0  1  0  0  3  0  0  0  0  0  0
  190.4300  177.4430  141.8320 C   0  0  0  0  0  2  0  0  0  0  0  0
  188.2660  176.6350  146.2900 O   0  0  0  0  0  1  0  0  0  0  0  0
  186.9950  178.3490  141.6120 C   0  0  0  0  0  0  0  0  0  0  0  0
  190.4520  177.5540  145.7050 C   0  0  2  0  0  3  0  0  0  0  0  0
  190.1550  177.6310  143.2960 C   0  0  2  0  0  3  0  0  0  0  0  0
  190.8490  176.8520  144.3930 C   0  0  0  0  0  2  0  0  0  0  0  0
  188.2510  178.3550  144.5910 C   0  0  0  0  0  2  0  0  0  0  0  0
  188.1620  176.1030  143.4200 C   0  0  0  0  0  1  0  0  0  0  0  0
  188.3390  178.1230  142.0700 N   0  0  0  0  0  0  0  0  0  0  0  0
  188.6760  177.5470  143.3600 C   0  0  2  0  0  0  0  0  0  0  0  0
  192.6540  175.4110  148.0270 C   0  0  0  0  0  1  0  0  0  0  0  0
  191.1030  176.9340  146.9080 C   0  0  0  0  0  3  0  0  0  0  0  0
  192.0410  175.9920  146.8020 C   0  0  0  0  0  3  0  0  0  0  0  0
  185.8240  178.2270  142.5350 C   0  0  0  0  0  2  0  0  0  0  0  0
  185.2010  179.5880  142.8080 C   0  0  0  0  0  2  0  0  0  0  0  0
  184.0320  179.4720  143.7710 C   0  0  0  0  0  2  0  0  0  0  0  0
  183.1610  178.4650  143.3460 O   0  0  0  0  0  0  0  0  0  0  0  0
  180.8410  178.6620  143.8300 C   0  0  0  0  0  1  0  0  0  0  0  0
  181.9950  179.1350  142.9680 C   0  0  2  0  0  3  0  0  0  0  0  0
  181.6770  178.8450  141.5110 C   0  0  0  0  0  2  0  0  0  0  0  0
  183.3990  179.3260  139.2760 C   0  0  2  0  0  3  0  0  0  0  0  0
  182.4880  177.6520  141.0120 C   0  0  2  0  0  3  0  0  0  0  0  0
  183.3780  177.8340  139.7480 C   0  0  1  0  0  0  0  0  0  0  0  0
  182.0730  179.9880  138.8710 C   0  0  0  0  0  1  0  0  0  0  0  0
  181.9800  177.1760  139.6970 C   0  0  0  0  0  2  0  0  0  0  0  0
  183.8110  178.2350  138.3120 C   0  0  1  0  0  3  0  0  0  0  0  0
  182.8400  177.9100  137.1660 C   0  0  0  0  0  2  0  0  0  0  0  0
  183.4960  176.9440  136.2020 C   0  0  0  0  0  2  0  0  0  0  0  0
  184.9910  176.9330  136.4370 C   0  0  0  0  0  1  0  0  0  0  0  0
  1  4  1  0  0  0  0
  1 12  1  0  0  0  0
  2  6  2  0  0  0  0
  3  5  1  6  0  0  0
  6 12  1  0  0  0  0
  6 17  1  0  0  0  0
  7  3  1  0  0  0  0
  7 15  1  1  0  0  0
  8  4  1  6  0  0  0
  8 13  1  0  0  0  0
  8  9  1  0  0  0  0
  9  7  1  0  0  0  0
 10  3  1  0  0  0  0
 12 13  1  0  0  0  0
 13 11  1  1  0  0  0
 13 10  1  0  0  0  0
 16 15  2  0  0  0  0
 16 14  1  0  0  0  0
 17 18  1  0  0  0  0
 18 19  1  0  0  0  0
 20 19  1  0  0  0  0
 22 20  1  0  0  0  0
 22 21  1  1  0  0  0
 23 22  1  0  0  0  0
 24 27  1  6  0  0  0
 24 26  1  0  0  0  0
 25 23  1  6  0  0  0
 26 28  1  6  0  0  0
 26 25  1  0  0  0  0
 28 25  1  0  0  0  0
 29 30  1  6  0  0  0
 29 24  1  0  0  0  0
 29 26  1  0  0  0  0
 31 32  1  0  0  0  0
 31 30  1  0  0  0  0
M  END
>  <MODEL>
4

>  <REMARK>
 VINA RESULT:      -7.1      1.888      4.218
  Name = 
  10 active torsions:
  status: ('A' for Active; 'I' for Inactive)
    1  A    between atoms: C_6  and  C_17
    2  A    between atoms: C_9  and  O_31
    3  A    between atoms: C_9  and  C_32
    4  A    between atoms: C_10  and  C_28
    5  A    between atoms: C_12  and  C_17
    6  A    between atoms: C_12  and  O_31
    7  A    between atoms: C_14  and  C_21
    8  A    between atoms: C_14  and  C_29
    9  A    between atoms: C_15  and  C_19
   10  A    between atoms: C_28  and  C_32
                            x       y       z     vdW  Elec       q    Type
                         _______ _______ _______ _____ _____    ______ ____

>  <TORSDO>
F 10

$$$$
=
 OpenBabel11052414313D

 32 35  0  0  1  0  0  0  0  0999 V2000
  192.1580  177.9190  143.0000 O   0  0  0  0  0  0  0  0  0  0  0  0
  192.4570  177.5040  140.3010 O   0  0  0  0  0  0  0  0  0  0  0  0
  187.4460  177.8460  143.4480 C   0  0  1  0  0  3  0  0  0  0  0  0
  191.6850  177.6980  144.3170 C   0  0  0  0  0  2  0  0  0  0  0  0
  186.8960  176.5670  143.3150 O   0  0  0  0  0  1  0  0  0  0  0  0
  191.3070  177.3590  140.7940 C   0  0  0  0  0  0  0  0  0  0  0  0
  187.8810  178.1260  144.9180 C   0  0  2  0  0  3  0  0  0  0  0  0
  190.1990  177.8990  144.2310 C   0  0  2  0  0  3  0  0  0  0  0  0
  189.2280  177.4950  145.3200 C   0  0  0  0  0  2  0  0  0  0  0  0
  188.6000  178.0350  142.4280 C   0  0  0  0  0  2  0  0  0  0  0  0
  189.6900  175.7990  142.9450 C   0  0  0  0  0  1  0  0  0  0  0  0
  191.0910  177.6410  142.1860 N   0  0  0  0  0  0  0  0  0  0  0  0
  189.8700  177.3220  142.9060 C   0  0  2  0  0  0  0  0  0  0  0  0
  184.6230  178.2540  146.9680 C   0  0  0  0  0  1  0  0  0  0  0  0
  186.8010  177.8650  145.9290 C   0  0  0  0  0  3  0  0  0  0  0  0
  185.6600  178.5540  145.9440 C   0  0  0  0  0  3  0  0  0  0  0  0
  190.1870  176.9200  139.9030 C   0  0  0  0  0  2  0  0  0  0  0  0
  189.6720  178.0810  139.0650 C   0  0  0  0  0  2  0  0  0  0  0  0
  188.8990  177.5830  137.8550 C   0  0  0  0  0  2  0  0  0  0  0  0
  189.7440  177.5160  136.7440 O   0  0  0  0  0  0  0  0  0  0  0  0
  188.2630  175.6570  136.8370 C   0  0  0  0  0  1  0  0  0  0  0  0
  189.3070  176.4000  136.0270 C   0  0  2  0  0  3  0  0  0  0  0  0
  190.4760  175.4680  135.7510 C   0  0  0  0  0  2  0  0  0  0  0  0
  192.9160  176.0300  137.1380 C   0  0  2  0  0  3  0  0  0  0  0  0
  190.7730  174.6050  136.9740 C   0  0  2  0  0  3  0  0  0  0  0  0
  192.1260  174.8090  137.7170 C   0  0  1  0  0  0  0  0  0  0  0  0
  193.3280  176.0040  135.6580 C   0  0  0  0  0  1  0  0  0  0  0  0
  191.8970  173.6670  136.7010 C   0  0  0  0  0  2  0  0  0  0  0  0
  193.6490  174.9890  137.9550 C   0  0  1  0  0  3  0  0  0  0  0  0
  194.5980  174.0460  137.1970 C   0  0  0  0  0  2  0  0  0  0  0  0
  195.5080  173.3430  138.1820 C   0  0  0  0  0  2  0  0  0  0  0  0
  195.4220  171.8460  137.9690 C   0  0  0  0  0  1  0  0  0  0  0  0
  1  4  1  0  0  0  0
  2  6  2  0  0  0  0
  3  5  1  1  0  0  0
  3  7  1  0  0  0  0
  6 12  1  0  0  0  0
  7  9  1  0  0  0  0
  7 15  1  1  0  0  0
  8  4  1  1  0  0  0
  8  9  1  0  0  0  0
 10 13  1  0  0  0  0
 10  3  1  0  0  0  0
 12 13  1  0  0  0  0
 12  1  1  0  0  0  0
 13 11  1  1  0  0  0
 13  8  1  0  0  0  0
 15 16  2  0  0  0  0
 16 14  1  0  0  0  0
 17  6  1  0  0  0  0
 18 17  1  0  0  0  0
 19 18  1  0  0  0  0
 20 19  1  0  0  0  0
 22 20  1  0  0  0  0
 22 21  1  1  0  0  0
 23 22  1  0  0  0  0
 24 27  1  6  0  0  0
 24 26  1  0  0  0  0
 24 29  1  0  0  0  0
 25 23  1  6  0  0  0
 25 26  1  0  0  0  0
 26 28  1  6  0  0  0
 26 29  1  0  0  0  0
 28 25  1  0  0  0  0
 29 30  1  6  0  0  0
 30 31  1  0  0  0  0
 32 31  1  0  0  0  0
M  END
>  <MODEL>
5

>  <REMARK>
 VINA RESULT:      -6.8      2.909      7.872
  Name = 
  10 active torsions:
  status: ('A' for Active; 'I' for Inactive)
    1  A    between atoms: C_6  and  C_17
    2  A    between atoms: C_9  and  O_31
    3  A    between atoms: C_9  and  C_32
    4  A    between atoms: C_10  and  C_28
    5  A    between atoms: C_12  and  C_17
    6  A    between atoms: C_12  and  O_31
    7  A    between atoms: C_14  and  C_21
    8  A    between atoms: C_14  and  C_29
    9  A    between atoms: C_15  and  C_19
   10  A    between atoms: C_28  and  C_32
                            x       y       z     vdW  Elec       q    Type
                         _______ _______ _______ _____ _____    ______ ____

>  <TORSDO>
F 10

$$$$
=
 OpenBabel11052414313D

 32 35  0  0  1  0  0  0  0  0999 V2000
  184.8680  179.7360  139.4410 O   0  0  0  0  0  0  0  0  0  0  0  0
  185.6840  179.7650  142.0640 O   0  0  0  0  0  0  0  0  0  0  0  0
  181.7990  176.1310  139.4510 C   0  0  1  0  0  3  0  0  0  0  0  0
  183.9670  179.7130  138.3480 C   0  0  0  0  0  2  0  0  0  0  0  0
  180.5960  176.4280  140.0980 O   0  0  0  0  0  1  0  0  0  0  0  0
  184.7110  179.0250  141.7600 C   0  0  0  0  0  0  0  0  0  0  0  0
  181.7560  176.5560  137.9520 C   0  0  2  0  0  3  0  0  0  0  0  0
  183.2380  178.4060  138.4760 C   0  0  2  0  0  3  0  0  0  0  0  0
  181.9830  178.0590  137.7030 C   0  0  0  0  0  2  0  0  0  0  0  0
  182.9880  176.7610  140.2240 C   0  0  0  0  0  2  0  0  0  0  0  0
  181.8710  179.0260  140.4930 C   0  0  0  0  0  1  0  0  0  0  0  0
  184.3020  178.9210  140.3860 N   0  0  0  0  0  0  0  0  0  0  0  0
  183.0830  178.2650  139.9430 C   0  0  2  0  0  0  0  0  0  0  0  0
  179.4600  174.5990  135.5560 C   0  0  0  0  0  1  0  0  0  0  0  0
  180.5640  176.0250  137.2070 C   0  0  0  0  0  3  0  0  0  0  0  0
  180.6750  175.0900  136.2640 C   0  0  0  0  0  3  0  0  0  0  0  0
  184.0250  178.2500  142.8400 C   0  0  0  0  0  2  0  0  0  0  0  0
  183.6380  179.1570  143.9990 C   0  0  0  0  0  2  0  0  0  0  0  0
  184.5430  178.9310  145.1990 C   0  0  0  0  0  2  0  0  0  0  0  0
  185.2740  177.7510  145.0290 O   0  0  0  0  0  0  0  0  0  0  0  0
  186.0430  179.0180  146.8890 C   0  0  0  0  0  1  0  0  0  0  0  0
  186.2080  177.7550  146.0680 C   0  0  2  0  0  3  0  0  0  0  0  0
  187.6170  177.7120  145.5010 C   0  0  0  0  0  2  0  0  0  0  0  0
  190.1600  176.7340  144.6230 C   0  0  2  0  0  3  0  0  0  0  0  0
  187.6350  176.9780  144.1630 C   0  0  2  0  0  3  0  0  0  0  0  0
  189.0020  176.4990  143.5950 C   0  0  1  0  0  0  0  0  0  0  0  0
  190.4540  178.1700  145.0820 C   0  0  0  0  0  1  0  0  0  0  0  0
  188.3100  177.7950  143.1180 C   0  0  0  0  0  2  0  0  0  0  0  0
  190.4920  176.5210  143.1620 C   0  0  1  0  0  3  0  0  0  0  0  0
  190.9780  177.7460  142.3700 C   0  0  0  0  0  2  0  0  0  0  0  0
  191.4240  177.3130  140.9890 C   0  0  0  0  0  2  0  0  0  0  0  0
  190.2140  177.1630  140.0910 C   0  0  0  0  0  1  0  0  0  0  0  0
  1 12  1  0  0  0  0
  3  5  1  1  0  0  0
  3 10  1  0  0  0  0
  4  8  1  0  0  0  0
  4  1  1  0  0  0  0
  6  2  2  0  0  0  0
  6 17  1  0  0  0  0
  7 15  1  1  0  0  0
  7  3  1  0  0  0  0
  8  9  1  6  0  0  0
  8 13  1  0  0  0  0
  9  7  1  0  0  0  0
 12  6  1  0  0  0  0
 13 10  1  0  0  0  0
 13 12  1  0  0  0  0
 13 11  1  1  0  0  0
 14 16  1  0  0  0  0
 16 15  2  0  0  0  0
 17 18  1  0  0  0  0
 18 19  1  0  0  0  0
 20 19  1  0  0  0  0
 20 22  1  0  0  0  0
 22 21  1  6  0  0  0
 23 22  1  0  0  0  0
 24 27  1  6  0  0  0
 25 23  1  1  0  0  0
 26 28  1  6  0  0  0
 26 25  1  0  0  0  0
 26 24  1  0  0  0  0
 28 25  1  0  0  0  0
 29 30  1  6  0  0  0
 29 26  1  0  0  0  0
 29 24  1  0  0  0  0
 31 30  1  0  0  0  0
 32 31  1  0  0  0  0
M  END
>  <MODEL>
6

>  <REMARK>
 VINA RESULT:      -6.8      2.881      7.474
  Name = 
  10 active torsions:
  status: ('A' for Active; 'I' for Inactive)
    1  A    between atoms: C_6  and  C_17
    2  A    between atoms: C_9  and  O_31
    3  A    between atoms: C_9  and  C_32
    4  A    between atoms: C_10  and  C_28
    5  A    between atoms: C_12  and  C_17
    6  A    between atoms: C_12  and  O_31
    7  A    between atoms: C_14  and  C_21
    8  A    between atoms: C_14  and  C_29
    9  A    between atoms: C_15  and  C_19
   10  A    between atoms: C_28  and  C_32
                            x       y       z     vdW  Elec       q    Type
                         _______ _______ _______ _____ _____    ______ ____

>  <TORSDO>
F 10

$$$$
=
 OpenBabel11052414313D

 32 35  0  0  1  0  0  0  0  0999 V2000
  190.2010  177.3830  145.3210 O   0  0  0  0  0  0  0  0  0  0  0  0
  192.0540  177.0400  143.3200 O   0  0  0  0  0  0  0  0  0  0  0  0
  186.3490  178.5730  142.8400 C   0  0  1  0  0  3  0  0  0  0  0  0
  188.9740  177.2320  146.0110 C   0  0  0  0  0  2  0  0  0  0  0  0
  185.7860  177.5010  142.1410 O   0  0  0  0  0  1  0  0  0  0  0  0
  190.8480  177.1880  142.9860 C   0  0  0  0  0  0  0  0  0  0  0  0
  185.8010  178.6490  144.2970 C   0  0  2  0  0  3  0  0  0  0  0  0
  187.9420  177.8350  145.1010 C   0  0  2  0  0  3  0  0  0  0  0  0
  186.4500  177.6560  145.2800 C   0  0  0  0  0  2  0  0  0  0  0  0
  187.8970  178.4920  142.7790 C   0  0  0  0  0  2  0  0  0  0  0  0
  187.9890  176.0210  143.3600 C   0  0  0  0  0  1  0  0  0  0  0  0
  189.8590  177.4480  143.9950 N   0  0  0  0  0  0  0  0  0  0  0  0
  188.4250  177.4370  143.7570 C   0  0  2  0  0  0  0  0  0  0  0  0
  182.0520  179.1720  143.5820 C   0  0  0  0  0  1  0  0  0  0  0  0
  184.3010  178.6410  144.3810 C   0  0  0  0  0  3  0  0  0  0  0  0
  183.5340  179.2090  143.4500 C   0  0  0  0  0  3  0  0  0  0  0  0
  190.4860  177.1170  141.5360 C   0  0  0  0  0  2  0  0  0  0  0  0
  191.6290  177.6150  140.6630 C   0  0  0  0  0  2  0  0  0  0  0  0
  191.7980  176.7430  139.4310 C   0  0  0  0  0  2  0  0  0  0  0  0
  190.6850  175.9110  139.2790 O   0  0  0  0  0  0  0  0  0  0  0  0
  192.2070  175.1140  137.6340 C   0  0  0  0  0  1  0  0  0  0  0  0
  190.7650  175.4410  137.9660 C   0  0  2  0  0  3  0  0  0  0  0  0
  190.2620  176.5020  137.0020 C   0  0  0  0  0  2  0  0  0  0  0  0
  188.3470  178.6280  136.9140 C   0  0  2  0  0  3  0  0  0  0  0  0
  188.8720  176.1410  136.4840 C   0  0  2  0  0  3  0  0  0  0  0  0
  187.7670  177.2360  136.4930 C   0  0  1  0  0  0  0  0  0  0  0  0
  188.9910  178.7670  138.3020 C   0  0  0  0  0  1  0  0  0  0  0  0
  187.8750  176.1510  137.5890 C   0  0  0  0  0  2  0  0  0  0  0  0
  186.8560  178.3880  136.9970 C   0  0  1  0  0  3  0  0  0  0  0  0
  186.2470  178.2430  138.4020 C   0  0  0  0  0  2  0  0  0  0  0  0
  184.7370  178.3010  138.3090 C   0  0  0  0  0  2  0  0  0  0  0  0
  184.2050  179.2810  139.3330 C   0  0  0  0  0  1  0  0  0  0  0  0
  1  4  1  0  0  0  0
  3  5  1  1  0  0  0
  3  7  1  0  0  0  0
  6  2  2  0  0  0  0
  6 12  1  0  0  0  0
  7 15  1  6  0  0  0
  7  9  1  0  0  0  0
  8  9  1  1  0  0  0
  8  4  1  0  0  0  0
 10  3  1  0  0  0  0
 10 13  1  0  0  0  0
 12  1  1  0  0  0  0
 13 11  1  6  0  0  0
 13 12  1  0  0  0  0
 13  8  1  0  0  0  0
 16 14  1  0  0  0  0
 16 15  2  0  0  0  0
 17  6  1  0  0  0  0
 18 17  1  0  0  0  0
 19 18  1  0  0  0  0
 20 19  1  0  0  0  0
 22 21  1  6  0  0  0
 22 20  1  0  0  0  0
 23 22  1  0  0  0  0
 24 29  1  0  0  0  0
 24 27  1  1  0  0  0
 25 26  1  0  0  0  0
 25 23  1  1  0  0  0
 25 28  1  0  0  0  0
 26 24  1  0  0  0  0
 26 29  1  0  0  0  0
 26 28  1  1  0  0  0
 29 30  1  1  0  0  0
 31 30  1  0  0  0  0
 31 32  1  0  0  0  0
M  END
>  <MODEL>
7

>  <REMARK>
 VINA RESULT:      -6.7      1.599      6.380
  Name = 
  10 active torsions:
  status: ('A' for Active; 'I' for Inactive)
    1  A    between atoms: C_6  and  C_17
    2  A    between atoms: C_9  and  O_31
    3  A    between atoms: C_9  and  C_32
    4  A    between atoms: C_10  and  C_28
    5  A    between atoms: C_12  and  C_17
    6  A    between atoms: C_12  and  O_31
    7  A    between atoms: C_14  and  C_21
    8  A    between atoms: C_14  and  C_29
    9  A    between atoms: C_15  and  C_19
   10  A    between atoms: C_28  and  C_32
                            x       y       z     vdW  Elec       q    Type
                         _______ _______ _______ _____ _____    ______ ____

>  <TORSDO>
F 10

$$$$
=
 OpenBabel11052414313D

 32 35  0  0  1  0  0  0  0  0999 V2000
  189.6910  173.9050  137.1790 O   0  0  0  0  0  0  0  0  0  0  0  0
  191.9130  174.9420  138.4190 O   0  0  0  0  0  0  0  0  0  0  0  0
  186.6250  177.4890  137.5940 C   0  0  1  0  0  3  0  0  0  0  0  0
  188.5870  173.8560  136.2930 C   0  0  0  0  0  2  0  0  0  0  0  0
  186.9160  178.5680  136.7550 O   0  0  0  0  0  1  0  0  0  0  0  0
  190.9510  175.7220  138.1900 C   0  0  0  0  0  0  0  0  0  0  0  0
  185.7460  176.4260  136.8680 C   0  0  2  0  0  3  0  0  0  0  0  0
  187.6860  174.9720  136.7350 C   0  0  2  0  0  3  0  0  0  0  0  0
  186.5210  175.4910  135.9200 C   0  0  0  0  0  2  0  0  0  0  0  0
  187.9380  176.8960  138.1710 C   0  0  0  0  0  2  0  0  0  0  0  0
  189.1390  176.8610  135.9330 C   0  0  0  0  0  1  0  0  0  0  0  0
  189.7400  175.2040  137.6140 N   0  0  0  0  0  0  0  0  0  0  0  0
  188.6490  176.0290  137.1250 C   0  0  2  0  0  0  0  0  0  0  0  0
  182.2210  177.8480  136.2460 C   0  0  0  0  0  1  0  0  0  0  0  0
  184.5130  176.9970  136.2280 C   0  0  0  0  0  3  0  0  0  0  0  0
  183.4160  177.2830  136.9300 C   0  0  0  0  0  3  0  0  0  0  0  0
  191.0880  177.1670  138.5540 C   0  0  0  0  0  2  0  0  0  0  0  0
  191.5170  177.3250  140.0050 C   0  0  0  0  0  2  0  0  0  0  0  0
  190.3380  177.1510  140.9480 C   0  0  0  0  0  2  0  0  0  0  0  0
  190.5770  176.0820  141.8170 O   0  0  0  0  0  0  0  0  0  0  0  0
  191.5010  175.5780  143.9490 C   0  0  0  0  0  1  0  0  0  0  0  0
  191.1760  176.6600  142.9390 C   0  0  2  0  0  3  0  0  0  0  0  0
  190.2310  177.6650  143.5750 C   0  0  0  0  0  2  0  0  0  0  0  0
  187.4620  177.0390  143.9430 C   0  0  2  0  0  3  0  0  0  0  0  0
  189.8210  177.2050  144.9710 C   0  0  2  0  0  3  0  0  0  0  0  0
  188.3140  176.9330  145.2520 C   0  0  1  0  0  0  0  0  0  0  0  0
  187.4430  178.3750  143.1850 C   0  0  0  0  0  1  0  0  0  0  0  0
  189.0130  178.2500  145.6580 C   0  0  0  0  0  2  0  0  0  0  0  0
  186.7760  177.1340  145.2880 C   0  0  1  0  0  3  0  0  0  0  0  0
  186.2540  178.5160  145.7110 C   0  0  0  0  0  2  0  0  0  0  0  0
  184.7540  178.4560  145.9050 C   0  0  0  0  0  2  0  0  0  0  0  0
  184.0620  178.9770  144.6630 C   0  0  0  0  0  1  0  0  0  0  0  0
  1 12  1  0  0  0  0
  3  5  1  6  0  0  0
  3 10  1  0  0  0  0
  4  8  1  0  0  0  0
  4  1  1  0  0  0  0
  6  2  2  0  0  0  0
  6 17  1  0  0  0  0
  7 15  1  6  0  0  0
  7  3  1  0  0  0  0
  8  9  1  6  0  0  0
  8 13  1  0  0  0  0
  9  7  1  0  0  0  0
 12  6  1  0  0  0  0
 13 11  1  6  0  0  0
 13 12  1  0  0  0  0
 13 10  1  0  0  0  0
 14 16  1  0  0  0  0
 15 16  2  0  0  0  0
 17 18  1  0  0  0  0
 18 19  1  0  0  0  0
 19 20  1  0  0  0  0
 20 22  1  0  0  0  0
 22 23  1  0  0  0  0
 22 21  1  1  0  0  0
 24 27  1  6  0  0  0
 24 26  1  0  0  0  0
 24 29  1  0  0  0  0
 25 23  1  6  0  0  0
 25 26  1  0  0  0  0
 25 28  1  0  0  0  0
 26 29  1  0  0  0  0
 26 28  1  6  0  0  0
 29 30  1  6  0  0  0
 30 31  1  0  0  0  0
 32 31  1  0  0  0  0
M  END
>  <MODEL>
8

>  <REMARK>
 VINA RESULT:      -6.6      2.957      7.582
  Name = 
  10 active torsions:
  status: ('A' for Active; 'I' for Inactive)
    1  A    between atoms: C_6  and  C_17
    2  A    between atoms: C_9  and  O_31
    3  A    between atoms: C_9  and  C_32
    4  A    between atoms: C_10  and  C_28
    5  A    between atoms: C_12  and  C_17
    6  A    between atoms: C_12  and  O_31
    7  A    between atoms: C_14  and  C_21
    8  A    between atoms: C_14  and  C_29
    9  A    between atoms: C_15  and  C_19
   10  A    between atoms: C_28  and  C_32
                            x       y       z     vdW  Elec       q    Type
                         _______ _______ _______ _____ _____    ______ ____

>  <TORSDO>
F 10

$$$$
=
 OpenBabel11052414313D

 32 35  0  0  1  0  0  0  0  0999 V2000
  190.8160  176.3660  145.8160 O   0  0  0  0  0  0  0  0  0  0  0  0
  188.9290  177.1720  147.6440 O   0  0  0  0  0  0  0  0  0  0  0  0
  188.7020  177.4800  141.7290 C   0  0  1  0  0  3  0  0  0  0  0  0
  191.6810  176.4560  144.6980 C   0  0  0  0  0  2  0  0  0  0  0  0
  188.6650  178.8550  141.4810 O   0  0  0  0  0  1  0  0  0  0  0  0
  188.7570  177.4980  146.4390 C   0  0  0  0  0  0  0  0  0  0  0  0
  190.0300  176.8470  141.2160 C   0  0  2  0  0  3  0  0  0  0  0  0
  190.7710  176.6330  143.5180 C   0  0  2  0  0  3  0  0  0  0  0  0
  191.2420  177.0560  142.1430 C   0  0  0  0  0  2  0  0  0  0  0  0
  188.4430  177.2060  143.2340 C   0  0  0  0  0  2  0  0  0  0  0  0
  190.0630  178.9880  144.0420 C   0  0  0  0  0  1  0  0  0  0  0  0
  189.6780  177.0310  145.4400 N   0  0  0  0  0  0  0  0  0  0  0  0
  189.6980  177.4990  144.0640 C   0  0  2  0  0  0  0  0  0  0  0  0
  189.7700  177.4950  137.4270 C   0  0  0  0  0  1  0  0  0  0  0  0
  190.3410  177.1740  139.7830 C   0  0  0  0  0  3  0  0  0  0  0  0
  189.4070  177.1630  138.8320 C   0  0  0  0  0  3  0  0  0  0  0  0
  187.5750  178.3420  146.0790 C   0  0  0  0  0  2  0  0  0  0  0  0
  186.2980  177.5140  146.0660 C   0  0  0  0  0  2  0  0  0  0  0  0
  185.1880  178.2310  145.3160 C   0  0  0  0  0  2  0  0  0  0  0  0
  185.2390  177.9010  143.9580 O   0  0  0  0  0  0  0  0  0  0  0  0
  184.3540  180.1090  143.9540 C   0  0  0  0  0  1  0  0  0  0  0  0
  185.3020  179.1280  143.2930 C   0  0  2  0  0  3  0  0  0  0  0  0
  184.9000  178.9530  141.8380 C   0  0  0  0  0  2  0  0  0  0  0  0
  184.1600  178.2190  139.1720 C   0  0  2  0  0  3  0  0  0  0  0  0
  183.8210  177.8820  141.7060 C   0  0  2  0  0  3  0  0  0  0  0  0
  183.3180  177.5050  140.2820 C   0  0  1  0  0  0  0  0  0  0  0  0
  184.1820  179.7550  139.1420 C   0  0  0  0  0  1  0  0  0  0  0  0
  182.5470  178.4710  141.2090 C   0  0  0  0  0  2  0  0  0  0  0  0
  182.7970  177.6600  138.8280 C   0  0  1  0  0  3  0  0  0  0  0  0
  181.6650  178.6720  138.5890 C   0  0  0  0  0  2  0  0  0  0  0  0
  181.4140  178.8110  137.1020 C   0  0  0  0  0  2  0  0  0  0  0  0
  181.8540  177.5470  136.3950 C   0  0  0  0  0  1  0  0  0  0  0  0
  3  5  1  1  0  0  0
  3 10  1  0  0  0  0
  4  1  1  0  0  0  0
  6  2  2  0  0  0  0
  7 15  1  6  0  0  0
  7  3  1  0  0  0  0
  7  9  1  0  0  0  0
  8  9  1  6  0  0  0
  8 13  1  0  0  0  0
  8  4  1  0  0  0  0
 10 13  1  0  0  0  0
 12  1  1  0  0  0  0
 12  6  1  0  0  0  0
 13 11  1  6  0  0  0
 13 12  1  0  0  0  0
 14 16  1  0  0  0  0
 16 15  2  0  0  0  0
 17  6  1  0  0  0  0
 18 17  1  0  0  0  0
 19 18  1  0  0  0  0
 20 19  1  0  0  0  0
 22 21  1  1  0  0  0
 22 20  1  0  0  0  0
 23 22  1  0  0  0  0
 24 27  1  1  0  0  0
 24 26  1  0  0  0  0
 25 23  1  6  0  0  0
 26 28  1  1  0  0  0
 26 25  1  0  0  0  0
 28 25  1  0  0  0  0
 29 30  1  1  0  0  0
 29 24  1  0  0  0  0
 29 26  1  0  0  0  0
 31 30  1  0  0  0  0
 32 31  1  0  0  0  0
M  END
>  <MODEL>
9

>  <REMARK>
 VINA RESULT:      -6.6      1.410      2.054
  Name = 
  10 active torsions:
  status: ('A' for Active; 'I' for Inactive)
    1  A    between atoms: C_6  and  C_17
    2  A    between atoms: C_9  and  O_31
    3  A    between atoms: C_9  and  C_32
    4  A    between atoms: C_10  and  C_28
    5  A    between atoms: C_12  and  C_17
    6  A    between atoms: C_12  and  O_31
    7  A    between atoms: C_14  and  C_21
    8  A    between atoms: C_14  and  C_29
    9  A    between atoms: C_15  and  C_19
   10  A    between atoms: C_28  and  C_32
                            x       y       z     vdW  Elec       q    Type
                         _______ _______ _______ _____ _____    ______ ____

>  <TORSDO>
F 10

$$$$
