=
 OpenBabel11052412493D

 25 28  0  0  1  0  0  0  0  0999 V2000
  186.9480  177.7650  145.4200 C   0  0  0  0  0  0  0  0  0  0  0  0
  188.2420  177.4130  145.0350 C   0  0  0  0  0  0  0  0  0  0  0  0
  187.5990  177.8800  147.7280 C   0  0  0  0  0  3  0  0  0  0  0  0
  185.6930  177.8650  144.6290 C   0  0  1  0  0  3  0  0  0  0  0  0
  190.4400  176.7590  142.1160 C   0  0  0  0  0  0  0  0  0  0  0  0
  183.4300  179.5970  144.2160 C   0  0  0  0  0  3  0  0  0  0  0  0
  188.8720  177.5540  147.3600 N   0  0  0  0  0  0  0  0  0  0  0  0
  184.7420  178.2740  145.7250 C   0  0  0  0  0  0  0  0  0  0  0  0
  183.4860  178.9460  145.3850 C   0  0  0  0  0  3  0  0  0  0  0  0
  190.6160  176.9690  145.7160 C   0  0  0  0  0  0  0  0  0  0  0  0
  191.6440  176.8320  146.7840 C   0  0  0  0  0  1  0  0  0  0  0  0
  190.8510  176.6050  140.8880 C   0  0  0  0  0  3  0  0  0  0  0  0
  188.5560  177.1020  143.5960 C   0  0  0  0  0  2  0  0  0  0  0  0
  184.6200  179.6750  143.3270 C   0  0  0  0  0  3  0  0  0  0  0  0
  186.6290  177.9680  146.7370 C   0  0  0  0  0  0  0  0  0  0  0  0
  185.2680  178.3240  146.9110 N   0  0  0  0  0  0  0  0  0  0  0  0
  190.9860  176.7910  144.4470 C   0  0  0  0  0  3  0  0  0  0  0  0
  185.7060  178.9160  143.5500 C   0  0  0  0  0  3  0  0  0  0  0  0
  190.0240  176.9130  143.3410 C   0  0  0  0  0  0  0  0  0  0  0  0
  189.2200  177.3170  146.0550 C   0  0  0  0  0  0  0  0  0  0  0  0
  190.1110  177.2320  139.7540 C   0  0  2  0  0  3  0  0  0  0  0  0
  188.7410  177.2540  140.0240 O   0  0  0  0  0  1  0  0  0  0  0  0
  190.3710  176.4790  138.4920 C   0  0  0  0  0  0  0  0  0  0  0  0
  190.9140  175.2020  138.5540 O   0  0  0  0  0  1  0  0  0  0  0  0
  190.0830  176.9820  137.3740 O   0  0  0  0  0  0  0  0  0  0  0  0
  1 15  1  0  0  0  0
  2  1  2  0  0  0  0
  2 20  1  0  0  0  0
  4 18  1  6  0  0  0
  4  1  1  0  0  0  0
  4  8  1  0  0  0  0
  5 19  2  0  0  0  0
  6  9  2  0  0  0  0
  7  3  1  0  0  0  0
  8 16  2  0  0  0  0
  9  8  1  0  0  0  0
 10 20  1  0  0  0  0
 10 11  1  0  0  0  0
 12  5  2  0  0  0  0
 13  2  1  0  0  0  0
 14 18  2  0  0  0  0
 14  6  1  0  0  0  0
 15 16  1  0  0  0  0
 15  3  2  0  0  0  0
 17 10  2  0  0  0  0
 19 13  1  0  0  0  0
 19 17  1  0  0  0  0
 20  7  2  0  0  0  0
 21 22  1  1  0  0  0
 21 12  1  0  0  0  0
 23 24  1  0  0  0  0
 23 21  1  0  0  0  0
 25 23  2  0  0  0  0
M  END
>  <MODEL>
1

>  <REMARK>
 VINA RESULT:     -10.1      0.000      0.000
  Name = 
  2 active torsions:
  status: ('A' for Active; 'I' for Inactive)
    1  A    between atoms: C_2  and  C_21
    2  A    between atoms: C_15  and  C_21
                            x       y       z     vdW  Elec       q    Type
                         _______ _______ _______ _____ _____    ______ ____

>  <TORSDO>
F 2

$$$$
=
 OpenBabel11052412493D

 25 28  0  0  1  0  0  0  0  0999 V2000
  185.5090  178.1350  144.3720 C   0  0  0  0  0  0  0  0  0  0  0  0
  186.6410  177.9350  145.1640 C   0  0  0  0  0  0  0  0  0  0  0  0
  184.2310  178.8520  146.2730 C   0  0  0  0  0  3  0  0  0  0  0  0
  185.2670  177.8460  142.9340 C   0  0  1  0  0  3  0  0  0  0  0  0
  190.2460  177.0530  145.0900 C   0  0  0  0  0  0  0  0  0  0  0  0
  184.1510  179.0380  140.5610 C   0  0  0  0  0  3  0  0  0  0  0  0
  185.3360  178.6770  147.0530 N   0  0  0  0  0  0  0  0  0  0  0  0
  183.8370  178.3130  142.8260 C   0  0  0  0  0  0  0  0  0  0  0  0
  183.2870  178.6720  141.5170 C   0  0  0  0  0  3  0  0  0  0  0  0
  187.6940  178.0590  147.4380 C   0  0  0  0  0  0  0  0  0  0  0  0
  187.5760  178.3310  148.8970 C   0  0  0  0  0  1  0  0  0  0  0  0
  191.4270  176.7120  144.6540 C   0  0  0  0  0  3  0  0  0  0  0  0
  187.9060  177.3800  144.5660 C   0  0  0  0  0  2  0  0  0  0  0  0
  185.6090  179.1240  140.8420 C   0  0  0  0  0  3  0  0  0  0  0  0
  184.3260  178.5590  144.9180 C   0  0  0  0  0  0  0  0  0  0  0  0
  183.3080  178.7060  143.9430 N   0  0  0  0  0  0  0  0  0  0  0  0
  188.8760  177.6780  146.9520 C   0  0  0  0  0  3  0  0  0  0  0  0
  186.1300  178.6280  141.9770 C   0  0  0  0  0  3  0  0  0  0  0  0
  189.0640  177.3930  145.5210 C   0  0  0  0  0  0  0  0  0  0  0  0
  186.5280  178.2280  146.5440 C   0  0  0  0  0  0  0  0  0  0  0  0
  191.8080  176.9440  143.2310 C   0  0  2  0  0  3  0  0  0  0  0  0
  191.9480  178.3120  142.9840 O   0  0  0  0  0  1  0  0  0  0  0  0
  190.7760  176.3650  142.3220 C   0  0  0  0  0  0  0  0  0  0  0  0
  190.4050  177.0550  141.1750 O   0  0  0  0  0  0  0  0  0  0  0  0
  190.2530  175.2470  142.5750 O   0  0  0  0  0  1  0  0  0  0  0  0
  1 15  2  0  0  0  0
  1  2  1  0  0  0  0
  2 20  2  0  0  0  0
  3  7  2  0  0  0  0
  4 18  1  6  0  0  0
  4  1  1  0  0  0  0
  5 19  2  0  0  0  0
  6 14  1  0  0  0  0
  6  9  2  0  0  0  0
  8  4  1  0  0  0  0
  8 16  2  0  0  0  0
  9  8  1  0  0  0  0
 10 11  1  0  0  0  0
 12  5  2  0  0  0  0
 13  2  1  0  0  0  0
 13 19  1  0  0  0  0
 14 18  2  0  0  0  0
 15  3  1  0  0  0  0
 16 15  1  0  0  0  0
 17 10  2  0  0  0  0
 19 17  1  0  0  0  0
 20  7  1  0  0  0  0
 20 10  1  0  0  0  0
 21 22  1  1  0  0  0
 21 12  1  0  0  0  0
 23 25  1  0  0  0  0
 23 21  1  0  0  0  0
 24 23  2  0  0  0  0
M  END
>  <MODEL>
2

>  <REMARK>
 VINA RESULT:     -10.0      1.875      3.378
  Name = 
  2 active torsions:
  status: ('A' for Active; 'I' for Inactive)
    1  A    between atoms: C_2  and  C_21
    2  A    between atoms: C_15  and  C_21
                            x       y       z     vdW  Elec       q    Type
                         _______ _______ _______ _____ _____    ______ ____

>  <TORSDO>
F 2

$$$$
=
 OpenBabel11052412493D

 25 28  0  0  1  0  0  0  0  0999 V2000
  188.6980  177.5870  145.5380 C   0  0  0  0  0  0  0  0  0  0  0  0
  187.8040  177.8830  144.5080 C   0  0  0  0  0  0  0  0  0  0  0  0
  186.9350  177.6390  147.1660 C   0  0  0  0  0  3  0  0  0  0  0  0
  190.1780  177.4500  145.5290 C   0  0  1  0  0  3  0  0  0  0  0  0
  187.4720  178.2680  140.8310 C   0  0  0  0  0  0  0  0  0  0  0  0
  192.2810  175.7330  146.4920 C   0  0  0  0  0  3  0  0  0  0  0  0
  186.0500  177.9110  146.1640 N   0  0  0  0  0  0  0  0  0  0  0  0
  190.4070  177.1450  146.9880 C   0  0  0  0  0  0  0  0  0  0  0  0
  191.6380  176.4720  147.4060 C   0  0  0  0  0  3  0  0  0  0  0  0
  185.4370  178.3340  143.8120 C   0  0  0  0  0  0  0  0  0  0  0  0
  184.0050  178.5350  144.1720 C   0  0  0  0  0  1  0  0  0  0  0  0
  187.7670  178.3180  139.5610 C   0  0  0  0  0  3  0  0  0  0  0  0
  188.2960  178.0760  143.0980 C   0  0  0  0  0  2  0  0  0  0  0  0
  191.7290  175.5650  145.1210 C   0  0  0  0  0  3  0  0  0  0  0  0
  188.2770  177.4920  146.8390 C   0  0  0  0  0  0  0  0  0  0  0  0
  189.3380  177.1770  147.7240 N   0  0  0  0  0  0  0  0  0  0  0  0
  185.7880  178.4070  142.5280 C   0  0  0  0  0  3  0  0  0  0  0  0
  190.7050  176.3180  144.6850 C   0  0  0  0  0  3  0  0  0  0  0  0
  187.1830  178.2180  142.1000 C   0  0  0  0  0  0  0  0  0  0  0  0
  186.4410  178.0400  144.8560 C   0  0  0  0  0  0  0  0  0  0  0  0
  188.9740  177.6200  139.0330 C   0  0  2  0  0  3  0  0  0  0  0  0
  190.0370  177.7460  139.9300 O   0  0  0  0  0  1  0  0  0  0  0  0
  189.3560  178.1870  137.7060 C   0  0  0  0  0  0  0  0  0  0  0  0
  189.0790  179.5180  137.4230 O   0  0  0  0  0  1  0  0  0  0  0  0
  189.9450  177.4750  136.8500 O   0  0  0  0  0  0  0  0  0  0  0  0
  1 15  1  0  0  0  0
  2 20  1  0  0  0  0
  2  1  2  0  0  0  0
  4 18  1  6  0  0  0
  4  1  1  0  0  0  0
  4  8  1  0  0  0  0
  5 19  2  0  0  0  0
  6  9  2  0  0  0  0
  7  3  1  0  0  0  0
  8  9  1  0  0  0  0
  8 16  2  0  0  0  0
 10 11  1  0  0  0  0
 10 20  1  0  0  0  0
 12  5  2  0  0  0  0
 13  2  1  0  0  0  0
 14  6  1  0  0  0  0
 15  3  2  0  0  0  0
 15 16  1  0  0  0  0
 17 10  2  0  0  0  0
 18 14  2  0  0  0  0
 19 17  1  0  0  0  0
 19 13  1  0  0  0  0
 20  7  2  0  0  0  0
 21 12  1  0  0  0  0
 21 22  1  1  0  0  0
 23 21  1  0  0  0  0
 24 23  1  0  0  0  0
 25 23  2  0  0  0  0
M  END
>  <MODEL>
3

>  <REMARK>
 VINA RESULT:      -9.7      1.474      4.840
  Name = 
  2 active torsions:
  status: ('A' for Active; 'I' for Inactive)
    1  A    between atoms: C_2  and  C_21
    2  A    between atoms: C_15  and  C_21
                            x       y       z     vdW  Elec       q    Type
                         _______ _______ _______ _____ _____    ______ ____

>  <TORSDO>
F 2

$$$$
=
 OpenBabel11052412493D

 25 28  0  0  1  0  0  0  0  0999 V2000
  189.6380  177.8080  144.0950 C   0  0  0  0  0  0  0  0  0  0  0  0
  188.5630  177.9390  144.9760 C   0  0  0  0  0  0  0  0  0  0  0  0
  191.1100  177.1900  145.8880 C   0  0  0  0  0  3  0  0  0  0  0  0
  189.7430  178.1010  142.6420 C   0  0  1  0  0  3  0  0  0  0  0  0
  184.9140  178.5820  145.1930 C   0  0  0  0  0  0  0  0  0  0  0  0
  190.7410  176.9680  140.1890 C   0  0  0  0  0  3  0  0  0  0  0  0
  190.0620  177.2980  146.7540 N   0  0  0  0  0  0  0  0  0  0  0  0
  191.1870  177.7280  142.4190 C   0  0  0  0  0  0  0  0  0  0  0  0
  191.6530  177.3960  141.0710 C   0  0  0  0  0  3  0  0  0  0  0  0
  187.7070  177.7630  147.3280 C   0  0  0  0  0  0  0  0  0  0  0  0
  187.9600  177.5100  148.7740 C   0  0  0  0  0  1  0  0  0  0  0  0
  183.6810  178.8420  144.8540 C   0  0  0  0  0  3  0  0  0  0  0  0
  187.2200  178.4060  144.4810 C   0  0  0  0  0  2  0  0  0  0  0  0
  189.3190  176.7880  140.5870 C   0  0  0  0  0  3  0  0  0  0  0  0
  190.8870  177.4660  144.5450 C   0  0  0  0  0  0  0  0  0  0  0  0
  191.8300  177.3790  143.4910 N   0  0  0  0  0  0  0  0  0  0  0  0
  186.4680  178.0620  146.9390 C   0  0  0  0  0  3  0  0  0  0  0  0
  188.8590  177.2570  141.7600 C   0  0  0  0  0  3  0  0  0  0  0  0
  186.1460  178.3230  145.5280 C   0  0  0  0  0  0  0  0  0  0  0  0
  188.8060  177.6640  146.3440 C   0  0  0  0  0  0  0  0  0  0  0  0
  183.2030  178.5750  143.4660 C   0  0  2  0  0  3  0  0  0  0  0  0
  183.9550  179.3070  142.5450 O   0  0  0  0  0  1  0  0  0  0  0  0
  181.7590  178.9310  143.3430 C   0  0  0  0  0  0  0  0  0  0  0  0
  181.2960  179.5290  142.1790 O   0  0  0  0  0  0  0  0  0  0  0  0
  180.9540  178.6750  144.2770 O   0  0  0  0  0  1  0  0  0  0  0  0
  1 15  2  0  0  0  0
  1  2  1  0  0  0  0
  2 20  2  0  0  0  0
  3  7  2  0  0  0  0
  4 18  1  6  0  0  0
  4  1  1  0  0  0  0
  5 19  2  0  0  0  0
  6 14  1  0  0  0  0
  6  9  2  0  0  0  0
  8  4  1  0  0  0  0
  8 16  2  0  0  0  0
  9  8  1  0  0  0  0
 10 11  1  0  0  0  0
 12  5  2  0  0  0  0
 13  2  1  0  0  0  0
 13 19  1  0  0  0  0
 14 18  2  0  0  0  0
 15  3  1  0  0  0  0
 16 15  1  0  0  0  0
 17 10  2  0  0  0  0
 19 17  1  0  0  0  0
 20  7  1  0  0  0  0
 20 10  1  0  0  0  0
 21 22  1  6  0  0  0
 21 12  1  0  0  0  0
 23 21  1  0  0  0  0
 23 25  1  0  0  0  0
 24 23  2  0  0  0  0
M  END
>  <MODEL>
4

>  <REMARK>
 VINA RESULT:      -9.6      3.056      6.500
  Name = 
  2 active torsions:
  status: ('A' for Active; 'I' for Inactive)
    1  A    between atoms: C_2  and  C_21
    2  A    between atoms: C_15  and  C_21
                            x       y       z     vdW  Elec       q    Type
                         _______ _______ _______ _____ _____    ______ ____

>  <TORSDO>
F 2

$$$$
=
 OpenBabel11052412493D

 25 28  0  0  1  0  0  0  0  0999 V2000
  187.9570  177.7690  144.4530 C   0  0  0  0  0  0  0  0  0  0  0  0
  186.7620  178.1250  143.8270 C   0  0  0  0  0  0  0  0  0  0  0  0
  186.9060  177.7900  146.6110 C   0  0  0  0  0  3  0  0  0  0  0  0
  189.3280  177.6020  143.9030 C   0  0  1  0  0  3  0  0  0  0  0  0
  185.1340  178.6670  140.5350 C   0  0  0  0  0  0  0  0  0  0  0  0
  191.5780  175.8050  143.9850 C   0  0  0  0  0  3  0  0  0  0  0  0
  185.7280  178.1220  146.0070 N   0  0  0  0  0  0  0  0  0  0  0  0
  190.0590  177.2330  145.1700 C   0  0  0  0  0  0  0  0  0  0  0  0
  191.3350  176.5190  145.0920 C   0  0  0  0  0  3  0  0  0  0  0  0
  184.3190  178.6530  144.0520 C   0  0  0  0  0  0  0  0  0  0  0  0
  183.1230  178.8680  144.9130 C   0  0  0  0  0  1  0  0  0  0  0  0
  184.9510  178.7630  139.2470 C   0  0  0  0  0  3  0  0  0  0  0  0
  186.7160  178.3660  142.3420 C   0  0  0  0  0  2  0  0  0  0  0  0
  190.5610  175.7040  142.9030 C   0  0  0  0  0  3  0  0  0  0  0  0
  188.0330  177.6300  145.8140 C   0  0  0  0  0  0  0  0  0  0  0  0
  189.3310  177.2570  146.2440 N   0  0  0  0  0  0  0  0  0  0  0  0
  184.1850  178.7700  142.7310 C   0  0  0  0  0  3  0  0  0  0  0  0
  189.4750  176.4950  142.8920 C   0  0  0  0  0  3  0  0  0  0  0  0
  185.3230  178.5710  141.8210 C   0  0  0  0  0  0  0  0  0  0  0  0
  185.6230  178.2960  144.6510 C   0  0  0  0  0  0  0  0  0  0  0  0
  185.8610  178.0630  138.2960 C   0  0  2  0  0  3  0  0  0  0  0  0
  186.6560  178.9880  137.6160 O   0  0  0  0  0  1  0  0  0  0  0  0
  185.0660  177.2600  137.3210 C   0  0  0  0  0  0  0  0  0  0  0  0
  183.9150  176.6090  137.7450 O   0  0  0  0  0  1  0  0  0  0  0  0
  185.4180  177.1840  136.1140 O   0  0  0  0  0  0  0  0  0  0  0  0
  1 15  1  0  0  0  0
  2  1  2  0  0  0  0
  2 20  1  0  0  0  0
  4 18  1  6  0  0  0
  4  1  1  0  0  0  0
  4  8  1  0  0  0  0
  5 19  2  0  0  0  0
  6  9  2  0  0  0  0
  7  3  1  0  0  0  0
  8 16  2  0  0  0  0
  9  8  1  0  0  0  0
 10 20  1  0  0  0  0
 10 11  1  0  0  0  0
 12  5  2  0  0  0  0
 13  2  1  0  0  0  0
 14  6  1  0  0  0  0
 15 16  1  0  0  0  0
 15  3  2  0  0  0  0
 17 10  2  0  0  0  0
 18 14  2  0  0  0  0
 19 13  1  0  0  0  0
 19 17  1  0  0  0  0
 20  7  2  0  0  0  0
 21 22  1  6  0  0  0
 21 12  1  0  0  0  0
 23 24  1  0  0  0  0
 23 21  1  0  0  0  0
 25 23  2  0  0  0  0
M  END
>  <MODEL>
5

>  <REMARK>
 VINA RESULT:      -9.6      2.567      5.471
  Name = 
  2 active torsions:
  status: ('A' for Active; 'I' for Inactive)
    1  A    between atoms: C_2  and  C_21
    2  A    between atoms: C_15  and  C_21
                            x       y       z     vdW  Elec       q    Type
                         _______ _______ _______ _____ _____    ______ ____

>  <TORSDO>
F 2

$$$$
=
 OpenBabel11052412493D

 25 28  0  0  1  0  0  0  0  0999 V2000
  188.2210  177.5880  144.5840 C   0  0  0  0  0  0  0  0  0  0  0  0
  187.4990  177.8470  143.4180 C   0  0  0  0  0  0  0  0  0  0  0  0
  190.3000  177.6640  143.3860 C   0  0  0  0  0  3  0  0  0  0  0  0
  187.7600  177.2670  145.9600 C   0  0  1  0  0  3  0  0  0  0  0  0
  184.1090  178.5230  142.0670 C   0  0  0  0  0  0  0  0  0  0  0  0
  188.2480  177.9620  148.7120 C   0  0  0  0  0  3  0  0  0  0  0  0
  189.6050  177.9350  142.2440 N   0  0  0  0  0  0  0  0  0  0  0  0
  189.0980  177.1090  146.6380 C   0  0  0  0  0  0  0  0  0  0  0  0
  189.1970  177.2470  148.0930 C   0  0  0  0  0  3  0  0  0  0  0  0
  187.5380  178.3270  140.9560 C   0  0  0  0  0  0  0  0  0  0  0  0
  188.3020  178.4870  139.6870 C   0  0  0  0  0  1  0  0  0  0  0  0
  182.8190  178.7090  141.9980 C   0  0  0  0  0  3  0  0  0  0  0  0
  185.9940  177.8770  143.4390 C   0  0  0  0  0  2  0  0  0  0  0  0
  187.1680  178.6310  147.9380 C   0  0  0  0  0  3  0  0  0  0  0  0
  189.5870  177.4740  144.5630 C   0  0  0  0  0  0  0  0  0  0  0  0
  190.1230  177.2180  145.8500 N   0  0  0  0  0  0  0  0  0  0  0  0
  186.2140  178.4790  140.9270 C   0  0  0  0  0  3  0  0  0  0  0  0
  186.9740  178.3600  146.6360 C   0  0  0  0  0  3  0  0  0  0  0  0
  185.3960  178.3370  142.1410 C   0  0  0  0  0  0  0  0  0  0  0  0
  188.2380  178.0290  142.2230 C   0  0  0  0  0  0  0  0  0  0  0  0
  182.0440  179.1170  143.2050 C   0  0  2  0  0  3  0  0  0  0  0  0
  182.6560  178.6280  144.3620 O   0  0  0  0  0  1  0  0  0  0  0  0
  180.6440  178.6080  143.1140 C   0  0  0  0  0  0  0  0  0  0  0  0
  179.9530  178.2900  144.2750 O   0  0  0  0  0  1  0  0  0  0  0  0
  180.0790  178.4850  141.9950 O   0  0  0  0  0  0  0  0  0  0  0  0
  1  4  1  0  0  0  0
  2 13  1  0  0  0  0
  2  1  2  0  0  0  0
  3 15  2  0  0  0  0
  4 18  1  1  0  0  0
  4  8  1  0  0  0  0
  5 19  2  0  0  0  0
  7  3  1  0  0  0  0
  8  9  1  0  0  0  0
  9  6  2  0  0  0  0
 10 20  1  0  0  0  0
 11 10  1  0  0  0  0
 12  5  2  0  0  0  0
 12 21  1  0  0  0  0
 14  6  1  0  0  0  0
 15  1  1  0  0  0  0
 15 16  1  0  0  0  0
 16  8  2  0  0  0  0
 17 10  2  0  0  0  0
 17 19  1  0  0  0  0
 18 14  2  0  0  0  0
 19 13  1  0  0  0  0
 20  7  2  0  0  0  0
 20  2  1  0  0  0  0
 21 22  1  1  0  0  0
 23 21  1  0  0  0  0
 23 24  1  0  0  0  0
 25 23  2  0  0  0  0
M  END
>  <MODEL>
6

>  <REMARK>
 VINA RESULT:      -9.6      3.851      6.627
  Name = 
  2 active torsions:
  status: ('A' for Active; 'I' for Inactive)
    1  A    between atoms: C_2  and  C_21
    2  A    between atoms: C_15  and  C_21
                            x       y       z     vdW  Elec       q    Type
                         _______ _______ _______ _____ _____    ______ ____

>  <TORSDO>
F 2

$$$$
=
 OpenBabel11052412493D

 25 28  0  0  1  0  0  0  0  0999 V2000
  187.9670  177.8100  144.3270 C   0  0  0  0  0  0  0  0  0  0  0  0
  186.8410  178.1330  143.5690 C   0  0  0  0  0  0  0  0  0  0  0  0
  186.6860  177.8380  146.3560 C   0  0  0  0  0  3  0  0  0  0  0  0
  189.3930  177.6660  143.9330 C   0  0  1  0  0  3  0  0  0  0  0  0
  185.5730  178.5960  140.1110 C   0  0  0  0  0  0  0  0  0  0  0  0
  191.6550  175.9180  144.2870 C   0  0  0  0  0  3  0  0  0  0  0  0
  185.5750  178.1360  145.6230 N   0  0  0  0  0  0  0  0  0  0  0  0
  189.9880  177.3290  145.2770 C   0  0  0  0  0  0  0  0  0  0  0  0
  191.2790  176.6410  145.3500 C   0  0  0  0  0  3  0  0  0  0  0  0
  184.3780  178.6110  143.5180 C   0  0  0  0  0  0  0  0  0  0  0  0
  183.0910  178.8120  144.2400 C   0  0  0  0  0  1  0  0  0  0  0  0
  185.5290  178.6700  138.8090 C   0  0  0  0  0  3  0  0  0  0  0  0
  186.9530  178.3520  142.0840 C   0  0  0  0  0  2  0  0  0  0  0  0
  190.7660  175.7810  143.1030 C   0  0  0  0  0  3  0  0  0  0  0  0
  187.8960  177.6910  145.6900 C   0  0  0  0  0  0  0  0  0  0  0  0
  189.1470  177.3520  146.2650 N   0  0  0  0  0  0  0  0  0  0  0  0
  184.3870  178.7080  142.1880 C   0  0  0  0  0  3  0  0  0  0  0  0
  189.6720  176.5480  142.9610 C   0  0  0  0  0  3  0  0  0  0  0  0
  185.6210  178.5200  141.4110 C   0  0  0  0  0  0  0  0  0  0  0  0
  185.6150  178.2900  144.2610 C   0  0  0  0  0  0  0  0  0  0  0  0
  186.5520  177.9770  137.9740 C   0  0  2  0  0  3  0  0  0  0  0  0
  186.2370  176.6220  137.8490 O   0  0  0  0  0  1  0  0  0  0  0  0
  187.9050  178.1330  138.5830 C   0  0  0  0  0  0  0  0  0  0  0  0
  188.4760  177.0690  139.2690 O   0  0  0  0  0  1  0  0  0  0  0  0
  188.5410  179.2130  138.4640 O   0  0  0  0  0  0  0  0  0  0  0  0
  1 15  1  0  0  0  0
  2 20  1  0  0  0  0
  2  1  2  0  0  0  0
  4 18  1  6  0  0  0
  4  1  1  0  0  0  0
  4  8  1  0  0  0  0
  5 19  2  0  0  0  0
  6  9  2  0  0  0  0
  7  3  1  0  0  0  0
  8  9  1  0  0  0  0
  8 16  2  0  0  0  0
 10 11  1  0  0  0  0
 10 20  1  0  0  0  0
 12  5  2  0  0  0  0
 13  2  1  0  0  0  0
 14  6  1  0  0  0  0
 15 16  1  0  0  0  0
 15  3  2  0  0  0  0
 17 10  2  0  0  0  0
 18 14  2  0  0  0  0
 19 13  1  0  0  0  0
 19 17  1  0  0  0  0
 20  7  2  0  0  0  0
 21 22  1  1  0  0  0
 21 23  1  0  0  0  0
 21 12  1  0  0  0  0
 23 24  1  0  0  0  0
 25 23  2  0  0  0  0
M  END
>  <MODEL>
7

>  <REMARK>
 VINA RESULT:      -9.4      2.019      5.147
  Name = 
  2 active torsions:
  status: ('A' for Active; 'I' for Inactive)
    1  A    between atoms: C_2  and  C_21
    2  A    between atoms: C_15  and  C_21
                            x       y       z     vdW  Elec       q    Type
                         _______ _______ _______ _____ _____    ______ ____

>  <TORSDO>
F 2

$$$$
=
 OpenBabel11052412493D

 25 28  0  0  1  0  0  0  0  0999 V2000
  184.0590  178.8640  143.2420 C   0  0  0  0  0  0  0  0  0  0  0  0
  183.8240  178.7930  141.8680 C   0  0  0  0  0  0  0  0  0  0  0  0
  181.7040  178.9120  143.7040 C   0  0  0  0  0  3  0  0  0  0  0  0
  185.3280  178.9950  144.0050 C   0  0  1  0  0  3  0  0  0  0  0  0
  185.4510  178.3980  138.5550 C   0  0  0  0  0  0  0  0  0  0  0  0
  186.6990  177.8990  146.2880 C   0  0  0  0  0  3  0  0  0  0  0  0
  181.4630  178.8240  142.3640 N   0  0  0  0  0  0  0  0  0  0  0  0
  184.7720  179.0220  145.4060 C   0  0  0  0  0  0  0  0  0  0  0  0
  185.6350  178.6730  146.5370 C   0  0  0  0  0  3  0  0  0  0  0  0
  182.1540  178.6710  140.0000 C   0  0  0  0  0  0  0  0  0  0  0  0
  180.7380  178.6780  139.5370 C   0  0  0  0  0  1  0  0  0  0  0  0
  186.3650  178.2550  137.6350 C   0  0  0  0  0  3  0  0  0  0  0  0
  184.9710  178.7950  140.8940 C   0  0  0  0  0  2  0  0  0  0  0  0
  186.9590  177.3750  144.9200 C   0  0  0  0  0  3  0  0  0  0  0  0
  183.0230  178.9480  144.1360 C   0  0  0  0  0  0  0  0  0  0  0  0
  183.4770  179.0030  145.4780 N   0  0  0  0  0  0  0  0  0  0  0  0
  183.1230  178.5570  139.0910 C   0  0  0  0  0  3  0  0  0  0  0  0
  186.2780  177.8340  143.8570 C   0  0  0  0  0  3  0  0  0  0  0  0
  184.5420  178.5410  139.4770 C   0  0  0  0  0  0  0  0  0  0  0  0
  182.4750  178.7670  141.4400 C   0  0  0  0  0  0  0  0  0  0  0  0
  187.7050  177.6960  137.9760 C   0  0  2  0  0  3  0  0  0  0  0  0
  187.9270  177.7740  139.3530 O   0  0  0  0  0  1  0  0  0  0  0  0
  188.7730  178.4380  137.2440 C   0  0  0  0  0  0  0  0  0  0  0  0
  189.0560  179.7530  137.5900 O   0  0  0  0  0  1  0  0  0  0  0  0
  189.4320  177.8760  136.3300 O   0  0  0  0  0  0  0  0  0  0  0  0
  1  4  1  0  0  0  0
  1 15  1  0  0  0  0
  2  1  2  0  0  0  0
  3 15  2  0  0  0  0
  4 18  1  1  0  0  0
  4  8  1  0  0  0  0
  5 19  2  0  0  0  0
  6  9  2  0  0  0  0
  7  3  1  0  0  0  0
  8 16  2  0  0  0  0
  8  9  1  0  0  0  0
 10 20  1  0  0  0  0
 11 10  1  0  0  0  0
 12 21  1  0  0  0  0
 12  5  2  0  0  0  0
 13  2  1  0  0  0  0
 14  6  1  0  0  0  0
 15 16  1  0  0  0  0
 17 19  1  0  0  0  0
 17 10  2  0  0  0  0
 18 14  2  0  0  0  0
 19 13  1  0  0  0  0
 20  2  1  0  0  0  0
 20  7  2  0  0  0  0
 21 22  1  1  0  0  0
 23 24  1  0  0  0  0
 23 21  1  0  0  0  0
 25 23  2  0  0  0  0
M  END
>  <MODEL>
8

>  <REMARK>
 VINA RESULT:      -9.4      3.026      5.939
  Name = 
  2 active torsions:
  status: ('A' for Active; 'I' for Inactive)
    1  A    between atoms: C_2  and  C_21
    2  A    between atoms: C_15  and  C_21
                            x       y       z     vdW  Elec       q    Type
                         _______ _______ _______ _____ _____    ______ ____

>  <TORSDO>
F 2

$$$$
=
 OpenBabel11052412493D

 25 28  0  0  1  0  0  0  0  0999 V2000
  186.3360  178.2510  140.6790 C   0  0  0  0  0  0  0  0  0  0  0  0
  186.3020  178.1850  142.0730 C   0  0  0  0  0  0  0  0  0  0  0  0
  184.0970  179.1110  140.6030 C   0  0  0  0  0  3  0  0  0  0  0  0
  187.3710  177.8000  139.7120 C   0  0  1  0  0  3  0  0  0  0  0  0
  188.3210  177.4580  145.1020 C   0  0  0  0  0  0  0  0  0  0  0  0
  188.7850  178.6820  137.3620 C   0  0  0  0  0  3  0  0  0  0  0  0
  184.0590  179.0680  141.9660 N   0  0  0  0  0  0  0  0  0  0  0  0
  186.6910  178.1900  138.4240 C   0  0  0  0  0  0  0  0  0  0  0  0
  187.4880  178.3830  137.2100 C   0  0  0  0  0  3  0  0  0  0  0  0
  185.0190  178.5970  144.1890 C   0  0  0  0  0  0  0  0  0  0  0  0
  183.7650  179.0190  144.8730 C   0  0  0  0  0  1  0  0  0  0  0  0
  189.3200  177.1230  145.8710 C   0  0  0  0  0  3  0  0  0  0  0  0
  187.4680  177.6250  142.8430 C   0  0  0  0  0  2  0  0  0  0  0  0
  189.3740  178.8600  138.7170 C   0  0  0  0  0  3  0  0  0  0  0  0
  185.2510  178.6790  139.9610 C   0  0  0  0  0  0  0  0  0  0  0  0
  185.4970  178.6770  138.5650 N   0  0  0  0  0  0  0  0  0  0  0  0
  186.0560  178.2180  144.9360 C   0  0  0  0  0  3  0  0  0  0  0  0
  188.6950  178.5120  139.8230 C   0  0  0  0  0  3  0  0  0  0  0  0
  187.3260  177.7910  144.3290 C   0  0  0  0  0  0  0  0  0  0  0  0
  185.1160  178.6190  142.7150 C   0  0  0  0  0  0  0  0  0  0  0  0
  190.7240  177.2180  145.3780 C   0  0  2  0  0  3  0  0  0  0  0  0
  190.8220  176.6870  144.0900 O   0  0  0  0  0  1  0  0  0  0  0  0
  191.6440  176.4910  146.3010 C   0  0  0  0  0  0  0  0  0  0  0  0
  191.8800  176.9960  147.5730 O   0  0  0  0  0  1  0  0  0  0  0  0
  192.1900  175.4140  145.9450 O   0  0  0  0  0  0  0  0  0  0  0  0
  1  2  1  0  0  0  0
  2 20  2  0  0  0  0
  2 13  1  0  0  0  0
  3  7  2  0  0  0  0
  4 18  1  1  0  0  0
  4  1  1  0  0  0  0
  5 12  2  0  0  0  0
  6 14  1  0  0  0  0
  7 20  1  0  0  0  0
  8 16  2  0  0  0  0
  8  4  1  0  0  0  0
  9  6  2  0  0  0  0
  9  8  1  0  0  0  0
 10 11  1  0  0  0  0
 10 17  2  0  0  0  0
 13 19  1  0  0  0  0
 14 18  2  0  0  0  0
 15  3  1  0  0  0  0
 15  1  2  0  0  0  0
 16 15  1  0  0  0  0
 19 17  1  0  0  0  0
 19  5  2  0  0  0  0
 20 10  1  0  0  0  0
 21 22  1  6  0  0  0
 21 12  1  0  0  0  0
 21 23  1  0  0  0  0
 23 24  1  0  0  0  0
 25 23  2  0  0  0  0
M  END
>  <MODEL>
9

>  <REMARK>
 VINA RESULT:      -9.1      3.615      6.578
  Name = 
  2 active torsions:
  status: ('A' for Active; 'I' for Inactive)
    1  A    between atoms: C_2  and  C_21
    2  A    between atoms: C_15  and  C_21
                            x       y       z     vdW  Elec       q    Type
                         _______ _______ _______ _____ _____    ______ ____

>  <TORSDO>
F 2

$$$$
