=
 OpenBabel11052414573D

 55 60  0  0  1  0  0  0  0  0999 V2000
  185.2420  178.8680  143.7700 C   0  0  0  0  0  3  0  0  0  0  0  0
  183.2570  178.5460  141.8210 C   0  0  0  0  0  0  0  0  0  0  0  0
  184.6080  178.4780  141.4630 C   0  0  0  0  0  3  0  0  0  0  0  0
  183.8930  178.9330  144.1270 C   0  0  0  0  0  3  0  0  0  0  0  0
  185.6040  178.6350  142.4400 C   0  0  0  0  0  0  0  0  0  0  0  0
  182.9010  178.7650  143.1540 C   0  0  0  0  0  3  0  0  0  0  0  0
  187.0480  178.5520  142.0830 C   0  0  0  0  0  2  0  0  0  0  0  0
  189.3200  176.1050  136.7860 C   0  0  0  0  0  3  0  0  0  0  0  0
  190.3760  175.3320  136.2900 C   0  0  0  0  0  3  0  0  0  0  0  0
  190.5300  176.4220  138.8650 C   0  0  0  0  0  0  0  0  0  0  0  0
  191.5860  175.6530  138.3620 C   0  0  0  0  0  3  0  0  0  0  0  0
  191.5110  175.1090  137.0770 C   0  0  0  0  0  3  0  0  0  0  0  0
  189.3920  176.6560  138.0720 C   0  0  0  0  0  0  0  0  0  0  0  0
  187.2140  178.2030  140.6390 C   0  0  0  0  0  3  0  0  0  0  0  0
  189.6350  177.5790  140.7780 C   0  0  0  0  0  0  0  0  0  0  0  0
  190.6070  176.9370  140.1980 N   0  0  0  0  0  0  0  0  0  0  0  0
  188.2710  177.5260  138.5720 C   0  0  1  0  0  3  0  0  0  0  0  0
  188.3480  177.7980  140.0520 C   0  0  0  0  0  0  0  0  0  0  0  0
  189.8020  178.0300  142.1280 N   0  0  0  0  0  2  0  0  0  0  0  0
  191.5820  178.6240  143.7070 C   0  0  0  0  0  2  0  0  0  0  0  0
  191.2370  177.0270  145.2770 C   0  0  1  0  0  3  0  0  0  0  0  0
  190.8350  177.5120  143.0180 C   0  0  1  0  0  3  0  0  0  0  0  0
  190.2140  176.8090  144.1720 C   0  0  0  0  0  2  0  0  0  0  0  0
  192.0410  178.1420  144.9460 O   0  0  0  0  0  0  0  0  0  0  0  0
  190.5950  177.2360  146.5780 N   0  0  0  0  0  0  0  0  0  0  0  0
  189.1600  177.0360  146.4250 C   0  0  0  0  0  1  0  0  0  0  0  0
  191.0390  176.2060  147.4230 N   0  0  0  0  0  1  0  0  0  0  0  0
  188.2510  178.7380  137.8670 O   0  0  0  0  0  0  0  0  0  0  0  0
  186.1260  177.6460  137.6910 C   0  0  0  0  0  1  0  0  0  0  0  0
  187.0460  178.7270  137.1500 C   0  0  2  0  0  3  0  0  0  0  0  0
  187.2960  178.5440  135.6510 C   0  0  0  0  0  2  0  0  0  0  0  0
  186.3680  177.5030  135.0370 C   0  0  0  0  0  1  0  0  0  0  0  0
  182.1900  178.3140  140.8060 C   0  0  0  0  0  2  0  0  0  0  0  0
  181.2470  179.3470  140.8370 O   0  0  0  0  0  0  0  0  0  0  0  0
  180.5600  179.2230  139.6320 C   0  0  0  0  0  2  0  0  0  0  0  0
  181.5480  179.2320  138.4790 C   0  0  0  0  0  2  0  0  0  0  0  0
  181.0030  178.4090  137.3260 C   0  0  0  0  0  2  0  0  0  0  0  0
  180.4170  177.2350  137.8260 O   0  0  0  0  0  0  0  0  0  0  0  0
  179.6330  175.5270  136.4990 F   0  0  0  0  0  0  0  0  0  0  0  0
  180.7760  176.1590  136.9850 C   0  0  0  0  0  0  0  0  0  0  0  0
  181.5150  176.6270  135.9070 F   0  0  0  0  0  0  0  0  0  0  0  0
  181.8770  173.1000  136.2390 C   0  0  0  0  0  0  0  0  0  0  0  0
  183.4960  176.4830  138.3850 F   0  0  0  0  0  0  0  0  0  0  0  0
  181.5980  175.1290  137.7990 C   0  0  1  0  0  0  0  0  0  0  0  0
  186.1360  174.0530  137.3640 C   0  0  0  0  0  2  0  0  0  0  0  0
  183.4740  175.5960  136.3330 F   0  0  0  0  0  0  0  0  0  0  0  0
  183.1370  175.3540  137.6640 C   0  0  0  0  0  0  0  0  0  0  0  0
  181.4600  173.2890  135.1070 O   0  0  0  0  0  0  0  0  0  0  0  0
  185.6890  172.8570  137.9700 O   0  0  0  0  0  0  0  0  0  0  0  0
  184.7210  173.6410  137.3240 C   0  0  1  0  0  0  0  0  0  0  0  0
  183.1100  172.2860  136.4650 C   0  0  0  0  0  2  0  0  0  0  0  0
  183.8230  174.2450  138.2360 O   0  0  0  0  0  0  0  0  0  0  0  0
  181.2630  175.2930  139.1480 O   0  0  0  0  0  1  0  0  0  0  0  0
  184.2450  173.0430  136.1380 O   0  0  0  0  0  0  0  0  0  0  0  0
  181.1690  173.6910  137.4190 C   0  0  0  0  0  2  0  0  0  0  0  0
  1  4  1  0  0  0  0
  2  6  1  0  0  0  0
  3  2  2  0  0  0  0
  3  5  1  0  0  0  0
  5  1  2  0  0  0  0
  6  4  2  0  0  0  0
  7  5  1  0  0  0  0
  8 13  1  0  0  0  0
  9  8  2  0  0  0  0
  9 12  1  0  0  0  0
 10 16  1  0  0  0  0
 11 10  1  0  0  0  0
 12 11  2  0  0  0  0
 13 17  1  0  0  0  0
 13 10  2  0  0  0  0
 14  7  1  0  0  0  0
 15 19  1  0  0  0  0
 16 15  2  0  0  0  0
 17 28  1  6  0  0  0
 17 18  1  0  0  0  0
 18 14  2  0  0  0  0
 18 15  1  0  0  0  0
 20 24  1  0  0  0  0
 21 25  1  1  0  0  0
 22 19  1  6  0  0  0
 22 20  1  0  0  0  0
 22 23  1  0  0  0  0
 23 21  1  0  0  0  0
 24 21  1  0  0  0  0
 25 27  1  0  0  0  0
 26 25  1  0  0  0  0
 30 29  1  1  0  0  0
 30 28  1  0  0  0  0
 31 30  1  0  0  0  0
 32 31  1  0  0  0  0
 33 34  1  0  0  0  0
 33  2  1  0  0  0  0
 35 34  1  0  0  0  0
 36 35  1  0  0  0  0
 37 38  1  0  0  0  0
 37 36  1  0  0  0  0
 39 40  1  0  0  0  0
 40 44  1  0  0  0  0
 40 38  1  0  0  0  0
 41 40  1  0  0  0  0
 42 51  1  0  0  0  0
 42 55  1  0  0  0  0
 44 53  1  1  0  0  0
 45 49  1  0  0  0  0
 46 47  1  0  0  0  0
 47 44  1  0  0  0  0
 47 52  1  0  0  0  0
 47 43  1  0  0  0  0
 48 42  2  0  0  0  0
 50 45  1  6  0  0  0
 50 49  1  0  0  0  0
 50 52  1  0  0  0  0
 54 51  1  0  0  0  0
 54 50  1  0  0  0  0
 55 44  1  0  0  0  0
M  END
>  <MODEL>
1

>  <REMARK>
 VINA RESULT:      -7.9      0.000      0.000
  Name = 
  15 active torsions:
  status: ('A' for Active; 'I' for Inactive)
    1  A    between atoms: C_2  and  C_28
    2  A    between atoms: C_2  and  C_44
    3  A    between atoms: C_4  and  C_40
    4  A    between atoms: C_6  and  C_20
    5  A    between atoms: C_8  and  O_22
    6  A    between atoms: C_8  and  C_35
    7  A    between atoms: N_10  and  C_32
    8  A    between atoms: O_19  and  C_40
    9  A    between atoms: O_19  and  C_45
   10  A    between atoms: C_20  and  O_22
   11  A    between atoms: C_27  and  C_54
   12  A    between atoms: C_34  and  N_52
   13  A    between atoms: C_35  and  C_43
   14  A    between atoms: C_43  and  O_51
   15  A    between atoms: O_51  and  C_54
                            x       y       z     vdW  Elec       q    Type
                         _______ _______ _______ _____ _____    ______ ____

>  <TORSDO>
F 15

$$$$
=
 OpenBabel11052414573D

 55 60  0  0  1  0  0  0  0  0999 V2000
  185.4080  178.4800  144.4830 C   0  0  0  0  0  3  0  0  0  0  0  0
  183.4340  178.6400  142.5020 C   0  0  0  0  0  0  0  0  0  0  0  0
  184.7510  178.3140  142.1550 C   0  0  0  0  0  3  0  0  0  0  0  0
  184.0940  178.8020  144.8280 C   0  0  0  0  0  3  0  0  0  0  0  0
  185.7390  178.2290  143.1480 C   0  0  0  0  0  0  0  0  0  0  0  0
  183.1060  178.8750  143.8390 C   0  0  0  0  0  3  0  0  0  0  0  0
  187.1440  177.8700  142.8020 C   0  0  0  0  0  2  0  0  0  0  0  0
  189.5320  176.2960  137.2320 C   0  0  0  0  0  3  0  0  0  0  0  0
  190.6970  175.8120  136.6260 C   0  0  0  0  0  3  0  0  0  0  0  0
  190.7810  176.7670  139.2570 C   0  0  0  0  0  0  0  0  0  0  0  0
  191.9450  176.2880  138.6440 C   0  0  0  0  0  3  0  0  0  0  0  0
  191.9050  175.8120  137.3310 C   0  0  0  0  0  3  0  0  0  0  0  0
  189.5670  176.7780  138.5470 C   0  0  0  0  0  0  0  0  0  0  0  0
  187.2830  177.6460  141.3310 C   0  0  0  0  0  3  0  0  0  0  0  0
  189.7860  177.5840  141.2920 C   0  0  0  0  0  0  0  0  0  0  0  0
  190.8340  177.2140  140.6150 N   0  0  0  0  0  0  0  0  0  0  0  0
  188.3180  177.3420  139.1660 C   0  0  1  0  0  3  0  0  0  0  0  0
  188.4350  177.5440  140.6550 C   0  0  0  0  0  0  0  0  0  0  0  0
  189.9410  177.9870  142.6580 N   0  0  0  0  0  2  0  0  0  0  0  0
  191.3300  178.6690  144.5610 C   0  0  0  0  0  2  0  0  0  0  0  0
  191.7660  176.6330  145.4530 C   0  0  1  0  0  3  0  0  0  0  0  0
  191.1240  177.6710  143.4510 C   0  0  1  0  0  3  0  0  0  0  0  0
  190.9080  176.4140  144.2160 C   0  0  0  0  0  2  0  0  0  0  0  0
  191.9910  178.0190  145.6180 O   0  0  0  0  0  0  0  0  0  0  0  0
  191.1380  176.0770  146.6550 N   0  0  0  0  0  0  0  0  0  0  0  0
  192.1610  175.9090  147.6790 C   0  0  0  0  0  1  0  0  0  0  0  0
  190.2590  177.0560  147.1470 N   0  0  0  0  0  1  0  0  0  0  0  0
  187.9770  178.5530  138.5490 O   0  0  0  0  0  0  0  0  0  0  0  0
  187.1500  179.3440  136.4450 C   0  0  0  0  0  1  0  0  0  0  0  0
  187.2020  178.1950  137.4370 C   0  0  2  0  0  3  0  0  0  0  0  0
  185.7950  177.7640  137.8600 C   0  0  0  0  0  2  0  0  0  0  0  0
  185.0420  178.8790  138.5750 C   0  0  0  0  0  1  0  0  0  0  0  0
  182.3610  178.6670  141.4670 C   0  0  0  0  0  2  0  0  0  0  0  0
  181.1230  178.9540  142.0500 O   0  0  0  0  0  0  0  0  0  0  0  0
  180.2600  179.1130  140.9680 C   0  0  0  0  0  2  0  0  0  0  0  0
  180.9440  179.9320  139.8870 C   0  0  0  0  0  2  0  0  0  0  0  0
  180.5120  179.4440  138.5170 C   0  0  0  0  0  2  0  0  0  0  0  0
  181.4670  178.5440  138.0190 O   0  0  0  0  0  0  0  0  0  0  0  0
  179.4370  177.5990  137.4920 F   0  0  0  0  0  0  0  0  0  0  0  0
  180.8060  177.5710  137.2390 C   0  0  0  0  0  0  0  0  0  0  0  0
  181.0120  177.8260  135.8900 F   0  0  0  0  0  0  0  0  0  0  0  0
  179.8690  175.3720  139.5660 C   0  0  0  0  0  0  0  0  0  0  0  0
  181.2100  175.0870  135.4690 F   0  0  0  0  0  0  0  0  0  0  0  0
  181.3450  176.1670  137.6120 C   0  0  1  0  0  0  0  0  0  0  0  0
  179.4780  171.9890  136.6140 C   0  0  0  0  0  2  0  0  0  0  0  0
  179.3220  175.2300  136.6560 F   0  0  0  0  0  0  0  0  0  0  0  0
  180.6990  175.0330  136.7560 C   0  0  0  0  0  0  0  0  0  0  0  0
  178.9320  176.1170  139.8090 O   0  0  0  0  0  0  0  0  0  0  0  0
  180.2490  171.6170  137.7390 O   0  0  0  0  0  0  0  0  0  0  0  0
  179.9260  172.9760  137.6130 C   0  0  1  0  0  0  0  0  0  0  0  0
  179.7090  173.8910  139.6830 C   0  0  0  0  0  2  0  0  0  0  0  0
  181.0570  173.7700  137.3070 O   0  0  0  0  0  0  0  0  0  0  0  0
  182.7200  176.1600  137.3540 O   0  0  0  0  0  1  0  0  0  0  0  0
  178.9920  173.4030  138.5810 O   0  0  0  0  0  0  0  0  0  0  0  0
  181.1910  175.9290  139.1340 C   0  0  0  0  0  2  0  0  0  0  0  0
  1  4  1  0  0  0  0
  2  6  1  0  0  0  0
  3  2  2  0  0  0  0
  3  5  1  0  0  0  0
  5  1  2  0  0  0  0
  6  4  2  0  0  0  0
  7  5  1  0  0  0  0
  8 13  1  0  0  0  0
  9  8  2  0  0  0  0
  9 12  1  0  0  0  0
 10 16  1  0  0  0  0
 11 10  1  0  0  0  0
 12 11  2  0  0  0  0
 13 17  1  0  0  0  0
 13 10  2  0  0  0  0
 14  7  1  0  0  0  0
 15 19  1  0  0  0  0
 16 15  2  0  0  0  0
 17 28  1  6  0  0  0
 17 18  1  0  0  0  0
 18 15  1  0  0  0  0
 18 14  2  0  0  0  0
 20 24  1  0  0  0  0
 21 24  1  0  0  0  0
 21 25  1  1  0  0  0
 22 19  1  1  0  0  0
 22 23  1  0  0  0  0
 22 20  1  0  0  0  0
 23 21  1  0  0  0  0
 25 27  1  0  0  0  0
 25 26  1  0  0  0  0
 30 29  1  6  0  0  0
 30 31  1  0  0  0  0
 30 28  1  0  0  0  0
 31 32  1  0  0  0  0
 33 34  1  0  0  0  0
 33  2  1  0  0  0  0
 35 34  1  0  0  0  0
 36 35  1  0  0  0  0
 37 36  1  0  0  0  0
 38 37  1  0  0  0  0
 40 39  1  0  0  0  0
 40 44  1  0  0  0  0
 40 38  1  0  0  0  0
 41 40  1  0  0  0  0
 42 51  1  0  0  0  0
 42 48  2  0  0  0  0
 43 47  1  0  0  0  0
 44 53  1  6  0  0  0
 44 55  1  0  0  0  0
 45 49  1  0  0  0  0
 46 47  1  0  0  0  0
 47 52  1  0  0  0  0
 47 44  1  0  0  0  0
 50 45  1  6  0  0  0
 50 49  1  0  0  0  0
 50 54  1  0  0  0  0
 52 50  1  0  0  0  0
 54 51  1  0  0  0  0
 55 42  1  0  0  0  0
M  END
>  <MODEL>
2

>  <REMARK>
 VINA RESULT:      -7.6      1.735      2.565
  Name = 
  15 active torsions:
  status: ('A' for Active; 'I' for Inactive)
    1  A    between atoms: C_2  and  C_28
    2  A    between atoms: C_2  and  C_44
    3  A    between atoms: C_4  and  C_40
    4  A    between atoms: C_6  and  C_20
    5  A    between atoms: C_8  and  O_22
    6  A    between atoms: C_8  and  C_35
    7  A    between atoms: N_10  and  C_32
    8  A    between atoms: O_19  and  C_40
    9  A    between atoms: O_19  and  C_45
   10  A    between atoms: C_20  and  O_22
   11  A    between atoms: C_27  and  C_54
   12  A    between atoms: C_34  and  N_52
   13  A    between atoms: C_35  and  C_43
   14  A    between atoms: C_43  and  O_51
   15  A    between atoms: O_51  and  C_54
                            x       y       z     vdW  Elec       q    Type
                         _______ _______ _______ _____ _____    ______ ____

>  <TORSDO>
F 15

$$$$
=
 OpenBabel11052414573D

 55 60  0  0  1  0  0  0  0  0999 V2000
  187.3280  178.4020  135.9590 C   0  0  0  0  0  3  0  0  0  0  0  0
  186.7230  175.7370  136.5730 C   0  0  0  0  0  0  0  0  0  0  0  0
  187.7220  176.4110  137.2850 C   0  0  0  0  0  3  0  0  0  0  0  0
  186.3290  177.7300  135.2510 C   0  0  0  0  0  3  0  0  0  0  0  0
  188.0230  177.7480  136.9810 C   0  0  0  0  0  0  0  0  0  0  0  0
  186.0220  176.4000  135.5630 C   0  0  0  0  0  3  0  0  0  0  0  0
  189.0740  178.4880  137.7360 C   0  0  0  0  0  2  0  0  0  0  0  0
  189.3520  178.0190  143.9730 C   0  0  0  0  0  3  0  0  0  0  0  0
  190.1560  177.5320  145.0100 C   0  0  0  0  0  3  0  0  0  0  0  0
  190.6410  176.7340  142.3700 C   0  0  0  0  0  0  0  0  0  0  0  0
  191.4390  176.2450  143.4110 C   0  0  0  0  0  3  0  0  0  0  0  0
  191.1970  176.6420  144.7290 C   0  0  0  0  0  3  0  0  0  0  0  0
  189.5870  177.6220  142.6510 C   0  0  0  0  0  0  0  0  0  0  0  0
  188.7120  178.5860  139.1830 C   0  0  0  0  0  3  0  0  0  0  0  0
  190.3010  176.8260  139.9880 C   0  0  0  0  0  0  0  0  0  0  0  0
  190.9280  176.3480  141.0230 N   0  0  0  0  0  0  0  0  0  0  0  0
  188.6820  178.1140  141.5540 C   0  0  1  0  0  3  0  0  0  0  0  0
  189.2260  177.8470  140.1740 C   0  0  0  0  0  0  0  0  0  0  0  0
  190.6850  176.3960  138.6770 N   0  0  0  0  0  2  0  0  0  0  0  0
  191.7720  174.5210  137.5270 C   0  0  0  0  0  2  0  0  0  0  0  0
  193.6130  175.5830  136.7420 C   0  0  1  0  0  3  0  0  0  0  0  0
  191.9570  175.7400  138.3940 C   0  0  1  0  0  3  0  0  0  0  0  0
  192.7970  176.6030  137.5220 C   0  0  0  0  0  2  0  0  0  0  0  0
  192.9460  174.3370  136.7750 O   0  0  0  0  0  0  0  0  0  0  0  0
  193.8270  176.0040  135.3550 N   0  0  0  0  0  0  0  0  0  0  0  0
  195.0740  176.7550  135.2840 C   0  0  0  0  0  1  0  0  0  0  0  0
  194.0370  174.8380  134.6010 N   0  0  0  0  0  1  0  0  0  0  0  0
  187.4110  177.5380  141.6830 O   0  0  0  0  0  0  0  0  0  0  0  0
  185.8110  177.7850  143.4480 C   0  0  0  0  0  1  0  0  0  0  0  0
  186.6490  178.4790  142.3890 C   0  0  2  0  0  3  0  0  0  0  0  0
  185.7740  179.3050  141.4420 C   0  0  0  0  0  2  0  0  0  0  0  0
  185.3840  178.5250  140.1920 C   0  0  0  0  0  1  0  0  0  0  0  0
  186.3470  174.3400  136.9310 C   0  0  0  0  0  2  0  0  0  0  0  0
  185.3280  173.8740  136.0940 O   0  0  0  0  0  0  0  0  0  0  0  0
  185.0220  172.6100  136.5920 C   0  0  0  0  0  2  0  0  0  0  0  0
  183.6140  172.6140  137.1610 C   0  0  0  0  0  2  0  0  0  0  0  0
  182.7590  173.6240  136.4160 C   0  0  0  0  0  2  0  0  0  0  0  0
  182.1800  174.5130  137.3350 O   0  0  0  0  0  0  0  0  0  0  0  0
  183.6970  176.2060  137.6890 F   0  0  0  0  0  0  0  0  0  0  0  0
  182.5550  175.8290  136.9860 C   0  0  0  0  0  0  0  0  0  0  0  0
  182.8290  175.8980  135.6270 F   0  0  0  0  0  0  0  0  0  0  0  0
  181.5920  177.1260  139.9040 C   0  0  0  0  0  0  0  0  0  0  0  0
  181.8990  178.6150  135.8600 F   0  0  0  0  0  0  0  0  0  0  0  0
  181.4070  176.8000  137.3570 C   0  0  1  0  0  0  0  0  0  0  0  0
  181.6900  181.3640  138.3730 C   0  0  0  0  0  2  0  0  0  0  0  0
  183.0900  178.5040  137.7490 F   0  0  0  0  0  0  0  0  0  0  0  0
  181.8210  178.2980  137.2070 C   0  0  0  0  0  0  0  0  0  0  0  0
  182.5790  176.6040  140.3970 O   0  0  0  0  0  0  0  0  0  0  0  0
  180.4730  181.0730  139.0310 O   0  0  0  0  0  0  0  0  0  0  0  0
  181.3300  179.9910  138.7730 C   0  0  1  0  0  0  0  0  0  0  0  0
  181.0940  178.4400  140.4170 C   0  0  0  0  0  2  0  0  0  0  0  0
  180.8130  179.1210  137.7840 O   0  0  0  0  0  0  0  0  0  0  0  0
  180.3500  176.5630  136.4710 O   0  0  0  0  0  1  0  0  0  0  0  0
  181.9170  179.4740  139.9470 O   0  0  0  0  0  0  0  0  0  0  0  0
  180.8680  176.4670  138.7700 C   0  0  0  0  0  2  0  0  0  0  0  0
  1  5  1  0  0  0  0
  2 33  1  0  0  0  0
  2  3  1  0  0  0  0
  4  6  1  0  0  0  0
  4  1  2  0  0  0  0
  5  3  2  0  0  0  0
  5  7  1  0  0  0  0
  6  2  2  0  0  0  0
  7 14  1  0  0  0  0
  8  9  1  0  0  0  0
 10 13  1  0  0  0  0
 10 11  2  0  0  0  0
 11 12  1  0  0  0  0
 12  9  2  0  0  0  0
 13  8  2  0  0  0  0
 14 18  2  0  0  0  0
 15 18  1  0  0  0  0
 15 16  2  0  0  0  0
 16 10  1  0  0  0  0
 17 28  1  6  0  0  0
 17 13  1  0  0  0  0
 18 17  1  0  0  0  0
 19 15  1  0  0  0  0
 20 22  1  0  0  0  0
 21 25  1  6  0  0  0
 21 24  1  0  0  0  0
 21 23  1  0  0  0  0
 22 19  1  6  0  0  0
 23 22  1  0  0  0  0
 24 20  1  0  0  0  0
 26 25  1  0  0  0  0
 27 25  1  0  0  0  0
 28 30  1  0  0  0  0
 30 29  1  1  0  0  0
 31 30  1  0  0  0  0
 32 31  1  0  0  0  0
 34 35  1  0  0  0  0
 34 33  1  0  0  0  0
 35 36  1  0  0  0  0
 37 36  1  0  0  0  0
 37 38  1  0  0  0  0
 40 38  1  0  0  0  0
 40 44  1  0  0  0  0
 40 39  1  0  0  0  0
 41 40  1  0  0  0  0
 42 48  2  0  0  0  0
 42 51  1  0  0  0  0
 43 47  1  0  0  0  0
 44 53  1  6  0  0  0
 44 55  1  0  0  0  0
 45 49  1  0  0  0  0
 47 44  1  0  0  0  0
 47 46  1  0  0  0  0
 47 52  1  0  0  0  0
 50 45  1  6  0  0  0
 50 49  1  0  0  0  0
 50 54  1  0  0  0  0
 52 50  1  0  0  0  0
 54 51  1  0  0  0  0
 55 42  1  0  0  0  0
M  END
>  <MODEL>
3

>  <REMARK>
 VINA RESULT:      -7.6      2.170      6.560
  Name = 
  15 active torsions:
  status: ('A' for Active; 'I' for Inactive)
    1  A    between atoms: C_2  and  C_28
    2  A    between atoms: C_2  and  C_44
    3  A    between atoms: C_4  and  C_40
    4  A    between atoms: C_6  and  C_20
    5  A    between atoms: C_8  and  O_22
    6  A    between atoms: C_8  and  C_35
    7  A    between atoms: N_10  and  C_32
    8  A    between atoms: O_19  and  C_40
    9  A    between atoms: O_19  and  C_45
   10  A    between atoms: C_20  and  O_22
   11  A    between atoms: C_27  and  C_54
   12  A    between atoms: C_34  and  N_52
   13  A    between atoms: C_35  and  C_43
   14  A    between atoms: C_43  and  O_51
   15  A    between atoms: O_51  and  C_54
                            x       y       z     vdW  Elec       q    Type
                         _______ _______ _______ _____ _____    ______ ____

>  <TORSDO>
F 15

$$$$
=
 OpenBabel11052414573D

 55 60  0  0  1  0  0  0  0  0999 V2000
  186.0380  178.0340  143.6090 C   0  0  0  0  0  3  0  0  0  0  0  0
  188.4900  177.1190  142.6110 C   0  0  0  0  0  0  0  0  0  0  0  0
  187.6520  177.8980  141.8050 C   0  0  0  0  0  3  0  0  0  0  0  0
  186.8760  177.2590  144.4140 C   0  0  0  0  0  3  0  0  0  0  0  0
  186.4240  178.3600  142.3060 C   0  0  0  0  0  0  0  0  0  0  0  0
  188.1050  176.8080  143.9170 C   0  0  0  0  0  3  0  0  0  0  0  0
  185.5230  179.2020  141.4690 C   0  0  0  0  0  2  0  0  0  0  0  0
  180.5830  175.8470  139.5850 C   0  0  0  0  0  3  0  0  0  0  0  0
  180.1550  174.9860  138.5680 C   0  0  0  0  0  3  0  0  0  0  0  0
  182.4850  176.5010  138.2290 C   0  0  0  0  0  0  0  0  0  0  0  0
  182.0490  175.6430  137.2120 C   0  0  0  0  0  3  0  0  0  0  0  0
  180.8860  174.8870  137.3800 C   0  0  0  0  0  3  0  0  0  0  0  0
  181.7460  176.6100  139.4210 C   0  0  0  0  0  0  0  0  0  0  0  0
  184.1530  178.6060  141.4070 C   0  0  0  0  0  3  0  0  0  0  0  0
  184.2270  177.9830  138.9830 C   0  0  0  0  0  0  0  0  0  0  0  0
  183.7000  177.2380  138.0560 N   0  0  0  0  0  0  0  0  0  0  0  0
  182.1650  177.5690  140.5020 C   0  0  1  0  0  3  0  0  0  0  0  0
  183.5660  178.0910  140.3190 C   0  0  0  0  0  0  0  0  0  0  0  0
  185.4630  178.6580  138.7190 N   0  0  0  0  0  2  0  0  0  0  0  0
  187.7920  178.2420  138.0730 C   0  0  0  0  0  2  0  0  0  0  0  0
  187.4920  176.4430  136.7300 C   0  0  1  0  0  3  0  0  0  0  0  0
  186.3550  178.2870  137.6260 C   0  0  1  0  0  3  0  0  0  0  0  0
  186.1210  176.8740  137.2280 C   0  0  0  0  0  2  0  0  0  0  0  0
  188.4720  177.3050  137.2740 O   0  0  0  0  0  0  0  0  0  0  0  0
  187.7890  175.0530  137.0880 N   0  0  0  0  0  0  0  0  0  0  0  0
  187.4340  174.1970  135.9630 C   0  0  0  0  0  1  0  0  0  0  0  0
  189.1830  174.9530  137.2220 N   0  0  0  0  0  1  0  0  0  0  0  0
  181.2650  178.6410  140.5720 O   0  0  0  0  0  0  0  0  0  0  0  0
  179.0650  178.5530  141.5160 C   0  0  0  0  0  1  0  0  0  0  0  0
  180.5600  178.4530  141.7690 C   0  0  2  0  0  3  0  0  0  0  0  0
  181.0090  179.4530  142.8380 C   0  0  0  0  0  2  0  0  0  0  0  0
  181.6590  178.7640  144.0320 C   0  0  0  0  0  1  0  0  0  0  0  0
  189.8250  176.6800  142.1150 C   0  0  0  0  0  2  0  0  0  0  0  0
  190.2800  177.5320  141.1040 O   0  0  0  0  0  0  0  0  0  0  0  0
  190.7050  176.6740  140.0930 C   0  0  0  0  0  2  0  0  0  0  0  0
  192.1160  177.0430  139.6700 C   0  0  0  0  0  2  0  0  0  0  0  0
  192.3130  176.7320  138.1980 C   0  0  0  0  0  2  0  0  0  0  0  0
  193.3310  175.7770  138.0540 O   0  0  0  0  0  0  0  0  0  0  0  0
  192.1630  173.8310  137.6740 F   0  0  0  0  0  0  0  0  0  0  0  0
  192.9290  174.8330  137.0840 C   0  0  0  0  0  0  0  0  0  0  0  0
  192.1650  175.4560  136.1060 F   0  0  0  0  0  0  0  0  0  0  0  0
  195.5070  176.1340  135.4130 C   0  0  0  0  0  0  0  0  0  0  0  0
  195.0530  173.0160  138.3690 F   0  0  0  0  0  0  0  0  0  0  0  0
  194.1880  174.1840  136.4540 C   0  0  1  0  0  0  0  0  0  0  0  0
  198.5780  174.2020  138.0860 C   0  0  0  0  0  2  0  0  0  0  0  0
  195.4940  175.2030  138.2270 F   0  0  0  0  0  0  0  0  0  0  0  0
  195.3560  174.0340  137.4790 C   0  0  0  0  0  0  0  0  0  0  0  0
  195.0420  177.2340  135.6670 O   0  0  0  0  0  0  0  0  0  0  0  0
  198.8580  173.9770  136.7190 O   0  0  0  0  0  0  0  0  0  0  0  0
  197.6130  174.5470  137.0260 C   0  0  1  0  0  0  0  0  0  0  0  0
  196.9870  175.9350  135.3380 C   0  0  0  0  0  2  0  0  0  0  0  0
  196.5400  173.6570  136.7840 O   0  0  0  0  0  0  0  0  0  0  0  0
  193.8320  172.9000  136.0290 O   0  0  0  0  0  1  0  0  0  0  0  0
  197.5250  175.9000  136.6330 O   0  0  0  0  0  0  0  0  0  0  0  0
  194.6030  174.9610  135.1820 C   0  0  0  0  0  2  0  0  0  0  0  0
  1  4  1  0  0  0  0
  2  6  1  0  0  0  0
  3  5  1  0  0  0  0
  3  2  2  0  0  0  0
  5  1  2  0  0  0  0
  6  4  2  0  0  0  0
  7  5  1  0  0  0  0
  9  8  2  0  0  0  0
 10 13  2  0  0  0  0
 11 12  2  0  0  0  0
 11 10  1  0  0  0  0
 12  9  1  0  0  0  0
 13  8  1  0  0  0  0
 13 17  1  0  0  0  0
 14  7  1  0  0  0  0
 15 18  1  0  0  0  0
 16 10  1  0  0  0  0
 16 15  2  0  0  0  0
 17 28  1  6  0  0  0
 18 17  1  0  0  0  0
 18 14  2  0  0  0  0
 19 15  1  0  0  0  0
 21 25  1  1  0  0  0
 21 23  1  0  0  0  0
 21 24  1  0  0  0  0
 22 20  1  0  0  0  0
 22 19  1  1  0  0  0
 23 22  1  0  0  0  0
 24 20  1  0  0  0  0
 25 27  1  0  0  0  0
 26 25  1  0  0  0  0
 28 30  1  0  0  0  0
 30 29  1  6  0  0  0
 30 31  1  0  0  0  0
 31 32  1  0  0  0  0
 33  2  1  0  0  0  0
 34 33  1  0  0  0  0
 35 34  1  0  0  0  0
 36 35  1  0  0  0  0
 37 36  1  0  0  0  0
 38 37  1  0  0  0  0
 40 39  1  0  0  0  0
 40 38  1  0  0  0  0
 41 40  1  0  0  0  0
 42 48  2  0  0  0  0
 44 53  1  6  0  0  0
 44 40  1  0  0  0  0
 44 47  1  0  0  0  0
 47 46  1  0  0  0  0
 47 43  1  0  0  0  0
 49 50  1  0  0  0  0
 49 45  1  0  0  0  0
 50 45  1  1  0  0  0
 51 42  1  0  0  0  0
 51 54  1  0  0  0  0
 52 50  1  0  0  0  0
 52 47  1  0  0  0  0
 54 50  1  0  0  0  0
 55 42  1  0  0  0  0
 55 44  1  0  0  0  0
M  END
>  <MODEL>
4

>  <REMARK>
 VINA RESULT:      -7.4      4.906      9.868
  Name = 
  15 active torsions:
  status: ('A' for Active; 'I' for Inactive)
    1  A    between atoms: C_2  and  C_28
    2  A    between atoms: C_2  and  C_44
    3  A    between atoms: C_4  and  C_40
    4  A    between atoms: C_6  and  C_20
    5  A    between atoms: C_8  and  O_22
    6  A    between atoms: C_8  and  C_35
    7  A    between atoms: N_10  and  C_32
    8  A    between atoms: O_19  and  C_40
    9  A    between atoms: O_19  and  C_45
   10  A    between atoms: C_20  and  O_22
   11  A    between atoms: C_27  and  C_54
   12  A    between atoms: C_34  and  N_52
   13  A    between atoms: C_35  and  C_43
   14  A    between atoms: C_43  and  O_51
   15  A    between atoms: O_51  and  C_54
                            x       y       z     vdW  Elec       q    Type
                         _______ _______ _______ _____ _____    ______ ____

>  <TORSDO>
F 15

$$$$
=
 OpenBabel11052414573D

 55 60  0  0  1  0  0  0  0  0999 V2000
  186.1120  178.6280  140.3130 C   0  0  0  0  0  3  0  0  0  0  0  0
  184.3480  178.6690  142.4890 C   0  0  0  0  0  0  0  0  0  0  0  0
  183.8480  178.6470  141.1810 C   0  0  0  0  0  3  0  0  0  0  0  0
  186.6100  178.6470  141.6180 C   0  0  0  0  0  3  0  0  0  0  0  0
  184.7320  178.6230  140.0900 C   0  0  0  0  0  0  0  0  0  0  0  0
  185.7280  178.6600  142.7050 C   0  0  0  0  0  3  0  0  0  0  0  0
  184.2200  178.5860  138.6910 C   0  0  0  0  0  2  0  0  0  0  0  0
  183.1690  172.6330  137.0570 C   0  0  0  0  0  3  0  0  0  0  0  0
  183.8100  171.4950  136.5550 C   0  0  0  0  0  3  0  0  0  0  0  0
  185.0770  173.9890  136.4210 C   0  0  0  0  0  0  0  0  0  0  0  0
  185.7120  172.8490  135.9150 C   0  0  0  0  0  3  0  0  0  0  0  0
  185.0810  171.6040  135.9810 C   0  0  0  0  0  3  0  0  0  0  0  0
  183.7950  173.8850  136.9910 C   0  0  0  0  0  0  0  0  0  0  0  0
  183.5240  177.2920  138.4190 C   0  0  0  0  0  3  0  0  0  0  0  0
  185.2820  176.3380  136.9120 C   0  0  0  0  0  0  0  0  0  0  0  0
  185.7550  175.2480  136.3810 N   0  0  0  0  0  0  0  0  0  0  0  0
  183.0710  175.1060  137.4880 C   0  0  1  0  0  3  0  0  0  0  0  0
  183.9670  176.3100  137.6230 C   0  0  0  0  0  0  0  0  0  0  0  0
  186.0530  177.5430  136.8430 N   0  0  0  0  0  2  0  0  0  0  0  0
  188.0720  178.9300  136.7320 C   0  0  0  0  0  2  0  0  0  0  0  0
  189.5770  177.4690  137.5880 C   0  0  1  0  0  3  0  0  0  0  0  0
  187.4800  177.5580  136.5420 C   0  0  1  0  0  3  0  0  0  0  0  0
  188.2280  176.7680  137.5560 C   0  0  0  0  0  2  0  0  0  0  0  0
  189.4270  178.7800  137.0790 O   0  0  0  0  0  0  0  0  0  0  0  0
  190.1340  177.5160  138.9430 N   0  0  0  0  0  0  0  0  0  0  0  0
  189.2270  176.8130  139.8420 C   0  0  0  0  0  1  0  0  0  0  0  0
  191.3180  176.7610  138.9250 N   0  0  0  0  0  1  0  0  0  0  0  0
  181.9960  175.4080  136.6410 O   0  0  0  0  0  0  0  0  0  0  0  0
  180.1300  174.4150  137.7670 C   0  0  0  0  0  1  0  0  0  0  0  0
  180.9200  175.6840  137.4960 C   0  0  2  0  0  3  0  0  0  0  0  0
  180.0230  176.7830  136.9200 C   0  0  0  0  0  2  0  0  0  0  0  0
  180.8130  177.8040  136.1100 C   0  0  0  0  0  1  0  0  0  0  0  0
  183.4220  178.6270  143.6560 C   0  0  0  0  0  2  0  0  0  0  0  0
  183.8390  179.5210  144.6480 O   0  0  0  0  0  0  0  0  0  0  0  0
  184.1330  178.7100  145.7410 C   0  0  0  0  0  2  0  0  0  0  0  0
  185.4460  179.1520  146.3650 C   0  0  0  0  0  2  0  0  0  0  0  0
  185.8550  178.1760  147.4530 C   0  0  0  0  0  2  0  0  0  0  0  0
  186.7730  177.2520  146.9310 O   0  0  0  0  0  0  0  0  0  0  0  0
  187.5950  177.8130  149.0060 F   0  0  0  0  0  0  0  0  0  0  0  0
  187.8860  177.1830  147.7980 C   0  0  0  0  0  0  0  0  0  0  0  0
  188.2040  175.8570  148.0550 F   0  0  0  0  0  0  0  0  0  0  0  0
  191.0480  176.2490  147.2950 C   0  0  0  0  0  0  0  0  0  0  0  0
  188.1250  178.4630  145.0100 F   0  0  0  0  0  0  0  0  0  0  0  0
  189.0870  177.9100  147.1420 C   0  0  1  0  0  0  0  0  0  0  0  0
  190.9270  177.2090  142.8930 C   0  0  0  0  0  2  0  0  0  0  0  0
  188.8840  176.3770  145.2720 F   0  0  0  0  0  0  0  0  0  0  0  0
  189.1320  177.7110  145.5940 C   0  0  0  0  0  0  0  0  0  0  0  0
  190.7290  175.1490  147.7160 O   0  0  0  0  0  0  0  0  0  0  0  0
  192.0550  177.7820  143.5230 O   0  0  0  0  0  0  0  0  0  0  0  0
  191.0790  177.2180  144.3590 C   0  0  1  0  0  0  0  0  0  0  0  0
  192.0790  176.3790  146.2200 C   0  0  0  0  0  2  0  0  0  0  0  0
  190.3740  178.1980  145.0970 O   0  0  0  0  0  0  0  0  0  0  0  0
  188.9370  179.2790  147.3880 O   0  0  0  0  0  1  0  0  0  0  0  0
  191.5200  176.0310  144.9820 O   0  0  0  0  0  0  0  0  0  0  0  0
  190.4030  177.4880  147.8380 C   0  0  0  0  0  2  0  0  0  0  0  0
  1  4  1  0  0  0  0
  2  6  1  0  0  0  0
  2 33  1  0  0  0  0
  3  2  2  0  0  0  0
  4  6  2  0  0  0  0
  5  1  2  0  0  0  0
  5  3  1  0  0  0  0
  7  5  1  0  0  0  0
  9  8  2  0  0  0  0
 10 13  2  0  0  0  0
 11 12  2  0  0  0  0
 11 10  1  0  0  0  0
 12  9  1  0  0  0  0
 13  8  1  0  0  0  0
 13 17  1  0  0  0  0
 14  7  1  0  0  0  0
 15 18  1  0  0  0  0
 16 10  1  0  0  0  0
 16 15  2  0  0  0  0
 17 28  1  6  0  0  0
 17 18  1  0  0  0  0
 18 14  2  0  0  0  0
 19 15  1  0  0  0  0
 20 24  1  0  0  0  0
 21 25  1  1  0  0  0
 22 20  1  0  0  0  0
 22 19  1  1  0  0  0
 22 23  1  0  0  0  0
 23 21  1  0  0  0  0
 24 21  1  0  0  0  0
 25 26  1  0  0  0  0
 27 25  1  0  0  0  0
 28 30  1  0  0  0  0
 30 29  1  6  0  0  0
 31 30  1  0  0  0  0
 32 31  1  0  0  0  0
 33 34  1  0  0  0  0
 34 35  1  0  0  0  0
 35 36  1  0  0  0  0
 36 37  1  0  0  0  0
 38 37  1  0  0  0  0
 38 40  1  0  0  0  0
 40 41  1  0  0  0  0
 40 39  1  0  0  0  0
 42 48  2  0  0  0  0
 42 55  1  0  0  0  0
 43 47  1  0  0  0  0
 44 53  1  1  0  0  0
 44 40  1  0  0  0  0
 44 55  1  0  0  0  0
 45 49  1  0  0  0  0
 46 47  1  0  0  0  0
 47 44  1  0  0  0  0
 49 50  1  0  0  0  0
 50 45  1  6  0  0  0
 50 54  1  0  0  0  0
 50 52  1  0  0  0  0
 51 42  1  0  0  0  0
 52 47  1  0  0  0  0
 54 51  1  0  0  0  0
M  END
>  <MODEL>
5

>  <REMARK>
 VINA RESULT:      -7.1      3.766      8.741
  Name = 
  15 active torsions:
  status: ('A' for Active; 'I' for Inactive)
    1  A    between atoms: C_2  and  C_28
    2  A    between atoms: C_2  and  C_44
    3  A    between atoms: C_4  and  C_40
    4  A    between atoms: C_6  and  C_20
    5  A    between atoms: C_8  and  O_22
    6  A    between atoms: C_8  and  C_35
    7  A    between atoms: N_10  and  C_32
    8  A    between atoms: O_19  and  C_40
    9  A    between atoms: O_19  and  C_45
   10  A    between atoms: C_20  and  O_22
   11  A    between atoms: C_27  and  C_54
   12  A    between atoms: C_34  and  N_52
   13  A    between atoms: C_35  and  C_43
   14  A    between atoms: C_43  and  O_51
   15  A    between atoms: O_51  and  C_54
                            x       y       z     vdW  Elec       q    Type
                         _______ _______ _______ _____ _____    ______ ____

>  <TORSDO>
F 15

$$$$
=
 OpenBabel11052414573D

 55 60  0  0  1  0  0  0  0  0999 V2000
  184.5170  178.7850  140.2080 C   0  0  0  0  0  3  0  0  0  0  0  0
  187.0190  178.1250  139.1380 C   0  0  0  0  0  0  0  0  0  0  0  0
  185.8600  177.9380  138.3760 C   0  0  0  0  0  3  0  0  0  0  0  0
  185.6740  178.9740  140.9670 C   0  0  0  0  0  3  0  0  0  0  0  0
  184.6060  178.2720  138.9110 C   0  0  0  0  0  0  0  0  0  0  0  0
  186.9250  178.6510  140.4290 C   0  0  0  0  0  3  0  0  0  0  0  0
  183.3600  178.0940  138.1120 C   0  0  0  0  0  2  0  0  0  0  0  0
  181.2390  172.5060  136.2440 C   0  0  0  0  0  3  0  0  0  0  0  0
  180.0970  171.6970  136.2570 C   0  0  0  0  0  3  0  0  0  0  0  0
  180.2420  173.9400  137.9270 C   0  0  0  0  0  0  0  0  0  0  0  0
  179.1040  173.1240  137.9410 C   0  0  0  0  0  3  0  0  0  0  0  0
  179.0310  172.0040  137.1090 C   0  0  0  0  0  3  0  0  0  0  0  0
  181.3190  173.6280  137.0790 C   0  0  0  0  0  0  0  0  0  0  0  0
  183.3070  176.7230  137.5180 C   0  0  0  0  0  3  0  0  0  0  0  0
  181.2550  175.9680  138.7390 C   0  0  0  0  0  0  0  0  0  0  0  0
  180.2820  175.1040  138.7580 N   0  0  0  0  0  0  0  0  0  0  0  0
  182.5740  174.4590  137.0910 C   0  0  1  0  0  3  0  0  0  0  0  0
  182.4050  175.7760  137.8030 C   0  0  0  0  0  0  0  0  0  0  0  0
  181.1870  177.1180  139.5900 N   0  0  0  0  0  2  0  0  0  0  0  0
  179.6710  176.8570  141.5010 C   0  0  0  0  0  2  0  0  0  0  0  0
  179.1560  179.0320  141.8690 C   0  0  1  0  0  3  0  0  0  0  0  0
  179.9480  177.5790  140.2080 C   0  0  1  0  0  3  0  0  0  0  0  0
  180.0980  178.9820  140.6750 C   0  0  0  0  0  2  0  0  0  0  0  0
  178.9310  177.7150  142.3330 O   0  0  0  0  0  0  0  0  0  0  0  0
  179.6920  179.8640  142.9500 N   0  0  0  0  0  0  0  0  0  0  0  0
  179.3360  179.2540  144.2250 C   0  0  0  0  0  1  0  0  0  0  0  0
  181.0920  179.7900  142.8670 N   0  0  0  0  0  1  0  0  0  0  0  0
  183.6250  173.7370  137.6720 O   0  0  0  0  0  0  0  0  0  0  0  0
  184.8600  172.1370  136.3870 C   0  0  0  0  0  1  0  0  0  0  0  0
  184.5860  173.6060  136.6600 C   0  0  2  0  0  3  0  0  0  0  0  0
  185.8730  174.3530  137.0190 C   0  0  0  0  0  2  0  0  0  0  0  0
  186.4000  175.1840  135.8540 C   0  0  0  0  0  1  0  0  0  0  0  0
  188.3620  177.8380  138.5590 C   0  0  0  0  0  2  0  0  0  0  0  0
  189.3590  178.5180  139.2660 O   0  0  0  0  0  0  0  0  0  0  0  0
  190.5470  177.9210  138.8500 C   0  0  0  0  0  2  0  0  0  0  0  0
  190.7210  176.5880  139.5560 C   0  0  0  0  0  2  0  0  0  0  0  0
  191.7250  176.7290  140.6860 C   0  0  0  0  0  2  0  0  0  0  0  0
  191.2400  177.6490  141.6290 O   0  0  0  0  0  0  0  0  0  0  0  0
  189.9250  175.9900  142.5310 F   0  0  0  0  0  0  0  0  0  0  0  0
  190.8970  176.9480  142.8060 C   0  0  0  0  0  0  0  0  0  0  0  0
  192.0170  176.3080  143.3190 F   0  0  0  0  0  0  0  0  0  0  0  0
  187.7750  177.5780  143.7980 C   0  0  0  0  0  0  0  0  0  0  0  0
  191.6070  177.3210  145.7760 F   0  0  0  0  0  0  0  0  0  0  0  0
  190.3230  177.9460  143.8430 C   0  0  1  0  0  0  0  0  0  0  0  0
  188.7560  177.0490  148.1650 C   0  0  0  0  0  2  0  0  0  0  0  0
  189.8400  176.0480  145.2750 F   0  0  0  0  0  0  0  0  0  0  0  0
  190.3100  177.3610  145.2900 C   0  0  0  0  0  0  0  0  0  0  0  0
  187.4270  176.6350  143.1050 O   0  0  0  0  0  0  0  0  0  0  0  0
  188.0540  178.2530  147.9280 O   0  0  0  0  0  0  0  0  0  0  0  0
  188.5090  177.5510  146.8010 C   0  0  1  0  0  0  0  0  0  0  0  0
  187.0640  177.8810  145.0770 C   0  0  0  0  0  2  0  0  0  0  0  0
  189.5610  178.2260  146.1370 O   0  0  0  0  0  0  0  0  0  0  0  0
  191.1530  179.0730  143.8500 O   0  0  0  0  0  1  0  0  0  0  0  0
  187.4570  176.9660  146.0660 O   0  0  0  0  0  0  0  0  0  0  0  0
  188.9290  178.4400  143.3850 C   0  0  0  0  0  2  0  0  0  0  0  0
  1  4  1  0  0  0  0
  2  6  1  0  0  0  0
  3  5  1  0  0  0  0
  3  2  2  0  0  0  0
  5  1  2  0  0  0  0
  6  4  2  0  0  0  0
  7  5  1  0  0  0  0
  8  9  2  0  0  0  0
  8 13  1  0  0  0  0
  9 12  1  0  0  0  0
 10 11  1  0  0  0  0
 10 16  1  0  0  0  0
 12 11  2  0  0  0  0
 13 17  1  0  0  0  0
 13 10  2  0  0  0  0
 14 18  2  0  0  0  0
 14  7  1  0  0  0  0
 15 16  2  0  0  0  0
 15 19  1  0  0  0  0
 17 28  1  1  0  0  0
 17 18  1  0  0  0  0
 18 15  1  0  0  0  0
 20 24  1  0  0  0  0
 21 24  1  0  0  0  0
 21 25  1  1  0  0  0
 22 19  1  1  0  0  0
 22 23  1  0  0  0  0
 22 20  1  0  0  0  0
 23 21  1  0  0  0  0
 25 26  1  0  0  0  0
 27 25  1  0  0  0  0
 30 29  1  1  0  0  0
 30 31  1  0  0  0  0
 30 28  1  0  0  0  0
 32 31  1  0  0  0  0
 33  2  1  0  0  0  0
 33 34  1  0  0  0  0
 35 34  1  0  0  0  0
 35 36  1  0  0  0  0
 36 37  1  0  0  0  0
 37 38  1  0  0  0  0
 38 40  1  0  0  0  0
 39 40  1  0  0  0  0
 40 41  1  0  0  0  0
 40 44  1  0  0  0  0
 42 51  1  0  0  0  0
 44 53  1  1  0  0  0
 44 47  1  0  0  0  0
 46 47  1  0  0  0  0
 47 43  1  0  0  0  0
 47 52  1  0  0  0  0
 48 42  2  0  0  0  0
 49 45  1  0  0  0  0
 50 49  1  0  0  0  0
 50 45  1  1  0  0  0
 51 54  1  0  0  0  0
 52 50  1  0  0  0  0
 54 50  1  0  0  0  0
 55 42  1  0  0  0  0
 55 44  1  0  0  0  0
M  END
>  <MODEL>
6

>  <REMARK>
 VINA RESULT:      -7.0      4.289      9.710
  Name = 
  15 active torsions:
  status: ('A' for Active; 'I' for Inactive)
    1  A    between atoms: C_2  and  C_28
    2  A    between atoms: C_2  and  C_44
    3  A    between atoms: C_4  and  C_40
    4  A    between atoms: C_6  and  C_20
    5  A    between atoms: C_8  and  O_22
    6  A    between atoms: C_8  and  C_35
    7  A    between atoms: N_10  and  C_32
    8  A    between atoms: O_19  and  C_40
    9  A    between atoms: O_19  and  C_45
   10  A    between atoms: C_20  and  O_22
   11  A    between atoms: C_27  and  C_54
   12  A    between atoms: C_34  and  N_52
   13  A    between atoms: C_35  and  C_43
   14  A    between atoms: C_43  and  O_51
   15  A    between atoms: O_51  and  C_54
                            x       y       z     vdW  Elec       q    Type
                         _______ _______ _______ _____ _____    ______ ____

>  <TORSDO>
F 15

$$$$
=
 OpenBabel11052414573D

 55 60  0  0  1  0  0  0  0  0999 V2000
  184.4520  178.2610  138.4130 C   0  0  0  0  0  3  0  0  0  0  0  0
  187.0110  177.4890  137.5780 C   0  0  0  0  0  0  0  0  0  0  0  0
  185.8900  177.1340  136.8190 C   0  0  0  0  0  3  0  0  0  0  0  0
  185.5710  178.6170  139.1680 C   0  0  0  0  0  3  0  0  0  0  0  0
  184.6070  177.5240  137.2350 C   0  0  0  0  0  0  0  0  0  0  0  0
  186.8510  178.2380  138.7460 C   0  0  0  0  0  3  0  0  0  0  0  0
  183.4000  177.1680  136.4350 C   0  0  0  0  0  2  0  0  0  0  0  0
  181.6240  171.2390  135.4870 C   0  0  0  0  0  3  0  0  0  0  0  0
  180.5400  170.3700  135.6540 C   0  0  0  0  0  3  0  0  0  0  0  0
  180.5650  172.8440  136.9650 C   0  0  0  0  0  0  0  0  0  0  0  0
  179.4850  171.9690  137.1340 C   0  0  0  0  0  3  0  0  0  0  0  0
  179.4720  170.7340  136.4810 C   0  0  0  0  0  3  0  0  0  0  0  0
  181.6450  172.4770  136.1420 C   0  0  0  0  0  0  0  0  0  0  0  0
  183.4280  175.7220  136.0560 C   0  0  0  0  0  3  0  0  0  0  0  0
  181.4550  175.0320  137.4340 C   0  0  0  0  0  0  0  0  0  0  0  0
  180.5430  174.1210  137.6100 N   0  0  0  0  0  0  0  0  0  0  0  0
  182.8410  173.3770  135.9930 C   0  0  1  0  0  3  0  0  0  0  0  0
  182.5970  174.7740  136.5050 C   0  0  0  0  0  0  0  0  0  0  0  0
  181.3260  176.2910  138.1050 N   0  0  0  0  0  2  0  0  0  0  0  0
  179.8390  176.1780  140.0520 C   0  0  0  0  0  2  0  0  0  0  0  0
  179.2220  178.3550  140.1770 C   0  0  1  0  0  3  0  0  0  0  0  0
  180.0710  176.7600  138.6820 C   0  0  1  0  0  3  0  0  0  0  0  0
  180.1570  178.2140  138.9850 C   0  0  0  0  0  2  0  0  0  0  0  0
  179.0640  177.0900  140.7910 O   0  0  0  0  0  0  0  0  0  0  0  0
  179.7250  179.3280  141.1500 N   0  0  0  0  0  0  0  0  0  0  0  0
  180.3230  178.6050  142.2650 C   0  0  0  0  0  1  0  0  0  0  0  0
  180.7800  180.0190  140.5300 N   0  0  0  0  0  1  0  0  0  0  0  0
  183.9490  172.8200  136.6460 O   0  0  0  0  0  0  0  0  0  0  0  0
  185.1750  171.0410  135.6120 C   0  0  0  0  0  1  0  0  0  0  0  0
  184.8680  172.5280  135.6280 C   0  0  2  0  0  3  0  0  0  0  0  0
  186.1450  173.3580  135.7810 C   0  0  0  0  0  2  0  0  0  0  0  0
  186.5070  173.5910  137.2430 C   0  0  0  0  0  1  0  0  0  0  0  0
  188.3840  177.1400  137.1120 C   0  0  0  0  0  2  0  0  0  0  0  0
  189.3400  177.5570  138.0430 O   0  0  0  0  0  0  0  0  0  0  0  0
  189.8410  176.3730  138.5790 C   0  0  0  0  0  2  0  0  0  0  0  0
  191.1700  176.6440  139.2620 C   0  0  0  0  0  2  0  0  0  0  0  0
  190.9530  177.5160  140.4860 C   0  0  0  0  0  2  0  0  0  0  0  0
  190.5020  176.7210  141.5510 O   0  0  0  0  0  0  0  0  0  0  0  0
  190.2240  178.6540  142.7670 F   0  0  0  0  0  0  0  0  0  0  0  0
  189.6080  177.4820  142.3350 C   0  0  0  0  0  0  0  0  0  0  0  0
  188.4900  177.8210  141.5840 F   0  0  0  0  0  0  0  0  0  0  0  0
  191.1790  176.8450  145.2080 C   0  0  0  0  0  0  0  0  0  0  0  0
  187.0950  177.7110  144.0950 F   0  0  0  0  0  0  0  0  0  0  0  0
  189.1930  176.6580  143.5800 C   0  0  1  0  0  0  0  0  0  0  0  0
  187.7160  178.2340  147.7360 C   0  0  0  0  0  2  0  0  0  0  0  0
  188.9510  178.7530  144.7800 F   0  0  0  0  0  0  0  0  0  0  0  0
  188.3670  177.4990  144.6030 C   0  0  0  0  0  0  0  0  0  0  0  0
  192.0480  177.6180  144.8370 O   0  0  0  0  0  0  0  0  0  0  0  0
  188.1850  176.9640  148.1420 O   0  0  0  0  0  0  0  0  0  0  0  0
  188.6950  177.4730  146.9380 C   0  0  1  0  0  0  0  0  0  0  0  0
  190.8280  176.7380  146.6570 C   0  0  0  0  0  2  0  0  0  0  0  0
  188.2270  176.7570  145.8110 O   0  0  0  0  0  0  0  0  0  0  0  0
  188.3790  175.6090  143.1390 O   0  0  0  0  0  1  0  0  0  0  0  0
  190.0540  177.8430  147.0400 O   0  0  0  0  0  0  0  0  0  0  0  0
  190.4410  175.9980  144.2160 C   0  0  0  0  0  2  0  0  0  0  0  0
  1  4  1  0  0  0  0
  2  6  1  0  0  0  0
  3  5  1  0  0  0  0
  3  2  2  0  0  0  0
  5  1  2  0  0  0  0
  6  4  2  0  0  0  0
  7  5  1  0  0  0  0
  8  9  2  0  0  0  0
  8 13  1  0  0  0  0
  9 12  1  0  0  0  0
 10 11  1  0  0  0  0
 10 16  1  0  0  0  0
 12 11  2  0  0  0  0
 13 10  2  0  0  0  0
 14  7  1  0  0  0  0
 14 18  2  0  0  0  0
 15 16  2  0  0  0  0
 15 19  1  0  0  0  0
 17 13  1  0  0  0  0
 17 18  1  0  0  0  0
 17 28  1  1  0  0  0
 18 15  1  0  0  0  0
 20 24  1  0  0  0  0
 21 24  1  0  0  0  0
 21 25  1  1  0  0  0
 22 19  1  1  0  0  0
 22 23  1  0  0  0  0
 22 20  1  0  0  0  0
 23 21  1  0  0  0  0
 25 26  1  0  0  0  0
 27 25  1  0  0  0  0
 30 29  1  1  0  0  0
 30 31  1  0  0  0  0
 30 28  1  0  0  0  0
 31 32  1  0  0  0  0
 33  2  1  0  0  0  0
 33 34  1  0  0  0  0
 34 35  1  0  0  0  0
 35 36  1  0  0  0  0
 36 37  1  0  0  0  0
 37 38  1  0  0  0  0
 38 40  1  0  0  0  0
 40 39  1  0  0  0  0
 40 44  1  0  0  0  0
 41 40  1  0  0  0  0
 42 51  1  0  0  0  0
 43 47  1  0  0  0  0
 44 53  1  6  0  0  0
 44 55  1  0  0  0  0
 44 47  1  0  0  0  0
 45 49  1  0  0  0  0
 47 46  1  0  0  0  0
 47 52  1  0  0  0  0
 48 42  2  0  0  0  0
 50 54  1  0  0  0  0
 50 45  1  6  0  0  0
 50 49  1  0  0  0  0
 51 54  1  0  0  0  0
 52 50  1  0  0  0  0
 55 42  1  0  0  0  0
M  END
>  <MODEL>
7

>  <REMARK>
 VINA RESULT:      -6.8      4.201      9.962
  Name = 
  15 active torsions:
  status: ('A' for Active; 'I' for Inactive)
    1  A    between atoms: C_2  and  C_28
    2  A    between atoms: C_2  and  C_44
    3  A    between atoms: C_4  and  C_40
    4  A    between atoms: C_6  and  C_20
    5  A    between atoms: C_8  and  O_22
    6  A    between atoms: C_8  and  C_35
    7  A    between atoms: N_10  and  C_32
    8  A    between atoms: O_19  and  C_40
    9  A    between atoms: O_19  and  C_45
   10  A    between atoms: C_20  and  O_22
   11  A    between atoms: C_27  and  C_54
   12  A    between atoms: C_34  and  N_52
   13  A    between atoms: C_35  and  C_43
   14  A    between atoms: C_43  and  O_51
   15  A    between atoms: O_51  and  C_54
                            x       y       z     vdW  Elec       q    Type
                         _______ _______ _______ _____ _____    ______ ____

>  <TORSDO>
F 15

$$$$
=
 OpenBabel11052414573D

 55 60  0  0  1  0  0  0  0  0999 V2000
  185.1340  177.9880  137.2660 C   0  0  0  0  0  3  0  0  0  0  0  0
  187.4800  176.4590  137.2170 C   0  0  0  0  0  0  0  0  0  0  0  0
  186.4270  176.1560  136.3450 C   0  0  0  0  0  3  0  0  0  0  0  0
  186.1860  178.2910  138.1330 C   0  0  0  0  0  3  0  0  0  0  0  0
  185.2530  176.9240  136.3670 C   0  0  0  0  0  0  0  0  0  0  0  0
  187.3610  177.5320  138.1030 C   0  0  0  0  0  3  0  0  0  0  0  0
  184.1250  176.6270  135.4380 C   0  0  0  0  0  2  0  0  0  0  0  0
  181.4350  170.9770  135.6640 C   0  0  0  0  0  3  0  0  0  0  0  0
  180.2530  170.3310  136.0410 C   0  0  0  0  0  3  0  0  0  0  0  0
  180.7410  172.9570  136.8820 C   0  0  0  0  0  0  0  0  0  0  0  0
  179.5620  172.3040  137.2610 C   0  0  0  0  0  3  0  0  0  0  0  0
  179.3180  170.9930  136.8430 C   0  0  0  0  0  3  0  0  0  0  0  0
  181.6870  172.2900  136.0840 C   0  0  0  0  0  0  0  0  0  0  0  0
  183.9120  175.1520  135.3230 C   0  0  0  0  0  3  0  0  0  0  0  0
  181.9740  175.0250  136.9040 C   0  0  0  0  0  0  0  0  0  0  0  0
  180.9560  174.3120  137.2880 N   0  0  0  0  0  0  0  0  0  0  0  0
  182.9860  172.9530  135.7140 C   0  0  1  0  0  3  0  0  0  0  0  0
  182.9900  174.4360  135.9780 C   0  0  0  0  0  0  0  0  0  0  0  0
  182.0830  176.3840  137.3430 N   0  0  0  0  0  2  0  0  0  0  0  0
  180.8980  177.0250  139.3920 C   0  0  0  0  0  2  0  0  0  0  0  0
  180.4420  179.1890  138.8980 C   0  0  1  0  0  3  0  0  0  0  0  0
  180.9600  177.1350  137.8910 C   0  0  1  0  0  3  0  0  0  0  0  0
  181.1790  178.5950  137.7070 C   0  0  0  0  0  2  0  0  0  0  0  0
  180.2990  178.1950  139.8940 O   0  0  0  0  0  0  0  0  0  0  0  0
  181.1430  180.3540  139.4450 N   0  0  0  0  0  0  0  0  0  0  0  0
  182.5670  180.2130  139.1650 C   0  0  0  0  0  1  0  0  0  0  0  0
  180.7160  181.4710  138.7090 N   0  0  0  0  0  1  0  0  0  0  0  0
  184.0500  172.3470  136.3970 O   0  0  0  0  0  0  0  0  0  0  0  0
  185.0160  171.0370  134.6400 C   0  0  0  0  0  1  0  0  0  0  0  0
  185.1040  172.3030  135.4750 C   0  0  2  0  0  3  0  0  0  0  0  0
  186.4600  172.4110  136.1780 C   0  0  0  0  0  2  0  0  0  0  0  0
  187.6220  172.3760  135.1930 C   0  0  0  0  0  1  0  0  0  0  0  0
  188.7580  175.6940  137.1580 C   0  0  0  0  0  2  0  0  0  0  0  0
  189.8530  176.5560  137.2670 O   0  0  0  0  0  0  0  0  0  0  0  0
  190.6780  175.9490  138.2110 C   0  0  0  0  0  2  0  0  0  0  0  0
  191.1930  176.9950  139.1850 C   0  0  0  0  0  2  0  0  0  0  0  0
  190.1630  177.2380  140.2740 C   0  0  0  0  0  2  0  0  0  0  0  0
  190.7230  176.9300  141.5230 O   0  0  0  0  0  0  0  0  0  0  0  0
  188.7930  178.0660  142.0520 F   0  0  0  0  0  0  0  0  0  0  0  0
  189.7570  177.1780  142.5230 C   0  0  0  0  0  0  0  0  0  0  0  0
  189.1300  175.9920  142.8800 F   0  0  0  0  0  0  0  0  0  0  0  0
  188.6990  177.7250  145.6390 C   0  0  0  0  0  0  0  0  0  0  0  0
  192.4280  176.4520  143.8670 F   0  0  0  0  0  0  0  0  0  0  0  0
  190.4510  177.8140  143.7540 C   0  0  1  0  0  0  0  0  0  0  0  0
  192.2410  175.6560  147.5050 C   0  0  0  0  0  2  0  0  0  0  0  0
  190.5540  175.5970  144.7340 F   0  0  0  0  0  0  0  0  0  0  0  0
  191.2800  176.7760  144.5730 C   0  0  0  0  0  0  0  0  0  0  0  0
  187.6870  177.1120  145.3410 O   0  0  0  0  0  0  0  0  0  0  0  0
  192.0170  176.9290  148.0770 O   0  0  0  0  0  0  0  0  0  0  0  0
  191.2800  176.6120  146.9260 C   0  0  1  0  0  0  0  0  0  0  0  0
  189.2560  177.6420  147.0240 C   0  0  0  0  0  2  0  0  0  0  0  0
  191.6880  177.3700  145.8020 O   0  0  0  0  0  0  0  0  0  0  0  0
  191.3380  178.7880  143.2820 O   0  0  0  0  0  1  0  0  0  0  0  0
  189.9100  176.4130  147.1980 O   0  0  0  0  0  0  0  0  0  0  0  0
  189.4080  178.5630  144.6190 C   0  0  0  0  0  2  0  0  0  0  0  0
  1  4  1  0  0  0  0
  2  6  1  0  0  0  0
  3  5  1  0  0  0  0
  3  2  2  0  0  0  0
  5  1  2  0  0  0  0
  6  4  2  0  0  0  0
  7  5  1  0  0  0  0
  8  9  2  0  0  0  0
  8 13  1  0  0  0  0
  9 12  1  0  0  0  0
 10 11  1  0  0  0  0
 10 16  1  0  0  0  0
 12 11  2  0  0  0  0
 13 10  2  0  0  0  0
 14  7  1  0  0  0  0
 14 18  2  0  0  0  0
 15 16  2  0  0  0  0
 15 19  1  0  0  0  0
 17 18  1  0  0  0  0
 17 13  1  0  0  0  0
 17 28  1  1  0  0  0
 18 15  1  0  0  0  0
 20 24  1  0  0  0  0
 21 25  1  1  0  0  0
 21 24  1  0  0  0  0
 22 19  1  1  0  0  0
 22 20  1  0  0  0  0
 23 22  1  0  0  0  0
 23 21  1  0  0  0  0
 26 25  1  0  0  0  0
 27 25  1  0  0  0  0
 30 29  1  1  0  0  0
 30 31  1  0  0  0  0
 30 28  1  0  0  0  0
 32 31  1  0  0  0  0
 33  2  1  0  0  0  0
 33 34  1  0  0  0  0
 34 35  1  0  0  0  0
 35 36  1  0  0  0  0
 36 37  1  0  0  0  0
 37 38  1  0  0  0  0
 38 40  1  0  0  0  0
 39 40  1  0  0  0  0
 40 41  1  0  0  0  0
 40 44  1  0  0  0  0
 42 51  1  0  0  0  0
 43 47  1  0  0  0  0
 44 53  1  6  0  0  0
 44 47  1  0  0  0  0
 44 55  1  0  0  0  0
 45 49  1  0  0  0  0
 47 46  1  0  0  0  0
 47 52  1  0  0  0  0
 48 42  2  0  0  0  0
 50 54  1  0  0  0  0
 50 45  1  6  0  0  0
 50 49  1  0  0  0  0
 51 54  1  0  0  0  0
 52 50  1  0  0  0  0
 55 42  1  0  0  0  0
M  END
>  <MODEL>
8

>  <REMARK>
 VINA RESULT:      -6.6      4.365     10.255
  Name = 
  15 active torsions:
  status: ('A' for Active; 'I' for Inactive)
    1  A    between atoms: C_2  and  C_28
    2  A    between atoms: C_2  and  C_44
    3  A    between atoms: C_4  and  C_40
    4  A    between atoms: C_6  and  C_20
    5  A    between atoms: C_8  and  O_22
    6  A    between atoms: C_8  and  C_35
    7  A    between atoms: N_10  and  C_32
    8  A    between atoms: O_19  and  C_40
    9  A    between atoms: O_19  and  C_45
   10  A    between atoms: C_20  and  O_22
   11  A    between atoms: C_27  and  C_54
   12  A    between atoms: C_34  and  N_52
   13  A    between atoms: C_35  and  C_43
   14  A    between atoms: C_43  and  O_51
   15  A    between atoms: O_51  and  C_54
                            x       y       z     vdW  Elec       q    Type
                         _______ _______ _______ _____ _____    ______ ____

>  <TORSDO>
F 15

$$$$
=
 OpenBabel11052414573D

 55 60  0  0  1  0  0  0  0  0999 V2000
  192.0340  177.7330  142.1670 C   0  0  0  0  0  3  0  0  0  0  0  0
  189.2870  177.6050  142.6990 C   0  0  0  0  0  0  0  0  0  0  0  0
  189.7890  177.1210  141.4850 C   0  0  0  0  0  3  0  0  0  0  0  0
  191.5330  178.2120  143.3790 C   0  0  0  0  0  3  0  0  0  0  0  0
  191.1670  177.1810  141.2190 C   0  0  0  0  0  0  0  0  0  0  0  0
  190.1610  178.1420  143.6470 C   0  0  0  0  0  3  0  0  0  0  0  0
  191.7240  176.6600  139.9390 C   0  0  0  0  0  2  0  0  0  0  0  0
  188.5530  173.2130  135.7820 C   0  0  0  0  0  3  0  0  0  0  0  0
  188.6910  172.1220  134.9180 C   0  0  0  0  0  3  0  0  0  0  0  0
  190.9640  173.3250  136.0250 C   0  0  0  0  0  0  0  0  0  0  0  0
  191.0970  172.2360  135.1550 C   0  0  0  0  0  3  0  0  0  0  0  0
  189.9640  171.6350  134.6010 C   0  0  0  0  0  3  0  0  0  0  0  0
  189.6860  173.8220  136.3380 C   0  0  0  0  0  0  0  0  0  0  0  0
  190.6280  176.1570  139.0540 C   0  0  0  0  0  3  0  0  0  0  0  0
  192.0980  174.8510  137.5030 C   0  0  0  0  0  0  0  0  0  0  0  0
  192.1340  173.9020  136.6140 N   0  0  0  0  0  0  0  0  0  0  0  0
  189.5240  175.0270  137.2240 C   0  0  1  0  0  3  0  0  0  0  0  0
  190.7830  175.3850  137.9710 C   0  0  0  0  0  0  0  0  0  0  0  0
  193.3260  175.3420  138.0540 N   0  0  0  0  0  2  0  0  0  0  0  0
  195.5020  175.2200  136.9280 C   0  0  0  0  0  2  0  0  0  0  0  0
  196.8100  174.6930  138.7010 C   0  0  1  0  0  3  0  0  0  0  0  0
  194.5870  174.6140  137.9600 C   0  0  1  0  0  3  0  0  0  0  0  0
  195.3790  174.7960  139.2050 C   0  0  0  0  0  2  0  0  0  0  0  0
  196.8290  174.9610  137.3120 O   0  0  0  0  0  0  0  0  0  0  0  0
  197.7030  175.6170  139.4050 N   0  0  0  0  0  0  0  0  0  0  0  0
  197.5330  175.4250  140.8400 C   0  0  0  0  0  1  0  0  0  0  0  0
  199.0180  175.2150  139.1170 N   0  0  0  0  0  1  0  0  0  0  0  0
  189.0910  176.1260  136.4700 O   0  0  0  0  0  0  0  0  0  0  0  0
  186.7360  176.3290  136.8580 C   0  0  0  0  0  1  0  0  0  0  0  0
  188.1320  176.7660  137.2680 C   0  0  2  0  0  3  0  0  0  0  0  0
  188.2800  178.2880  137.1990 C   0  0  0  0  0  2  0  0  0  0  0  0
  189.1130  178.8380  138.3500 C   0  0  0  0  0  1  0  0  0  0  0  0
  187.8370  177.4860  143.0210 C   0  0  0  0  0  2  0  0  0  0  0  0
  187.0640  177.5940  141.8600 O   0  0  0  0  0  0  0  0  0  0  0  0
  186.8960  178.9650  141.6830 C   0  0  0  0  0  2  0  0  0  0  0  0
  185.5360  179.3840  142.2150 C   0  0  0  0  0  2  0  0  0  0  0  0
  184.4810  178.3800  141.7840 C   0  0  0  0  0  2  0  0  0  0  0  0
  183.3990  179.0600  141.2040 O   0  0  0  0  0  0  0  0  0  0  0  0
  183.9250  179.9760  139.1600 F   0  0  0  0  0  0  0  0  0  0  0  0
  183.4290  178.8470  139.8090 C   0  0  0  0  0  0  0  0  0  0  0  0
  184.2500  177.7690  139.5120 F   0  0  0  0  0  0  0  0  0  0  0  0
  182.2700  177.5130  136.9800 C   0  0  0  0  0  0  0  0  0  0  0  0
  181.1320  177.2940  141.1420 F   0  0  0  0  0  0  0  0  0  0  0  0
  181.9870  178.5850  139.3030 C   0  0  1  0  0  0  0  0  0  0  0  0
  179.6790  174.5130  139.1260 C   0  0  0  0  0  2  0  0  0  0  0  0
  182.3930  176.2160  139.6430 F   0  0  0  0  0  0  0  0  0  0  0  0
  181.4260  177.2110  139.7900 C   0  0  0  0  0  0  0  0  0  0  0  0
  183.4290  177.2620  136.6910 O   0  0  0  0  0  0  0  0  0  0  0  0
  178.9580  175.2130  138.1320 O   0  0  0  0  0  0  0  0  0  0  0  0
  180.2430  175.6870  138.4350 C   0  0  1  0  0  0  0  0  0  0  0  0
  181.1690  176.5890  136.5650 C   0  0  0  0  0  2  0  0  0  0  0  0
  180.2100  176.9340  139.1030 O   0  0  0  0  0  0  0  0  0  0  0  0
  181.1660  179.5880  139.8300 O   0  0  0  0  0  1  0  0  0  0  0  0
  181.1650  175.4560  137.3920 O   0  0  0  0  0  0  0  0  0  0  0  0
  181.9300  178.7430  137.7650 C   0  0  0  0  0  2  0  0  0  0  0  0
  1  4  1  0  0  0  0
  2 33  1  0  0  0  0
  2  6  1  0  0  0  0
  3  2  2  0  0  0  0
  4  6  2  0  0  0  0
  5  3  1  0  0  0  0
  5  1  2  0  0  0  0
  7  5  1  0  0  0  0
  8 13  1  0  0  0  0
  9  8  2  0  0  0  0
 10 13  2  0  0  0  0
 10 16  1  0  0  0  0
 11 10  1  0  0  0  0
 12  9  1  0  0  0  0
 12 11  2  0  0  0  0
 13 17  1  0  0  0  0
 14  7  1  0  0  0  0
 15 18  1  0  0  0  0
 15 19  1  0  0  0  0
 16 15  2  0  0  0  0
 17 28  1  6  0  0  0
 17 18  1  0  0  0  0
 18 14  2  0  0  0  0
 20 24  1  0  0  0  0
 20 22  1  0  0  0  0
 21 23  1  0  0  0  0
 21 25  1  1  0  0  0
 22 19  1  1  0  0  0
 22 23  1  0  0  0  0
 24 21  1  0  0  0  0
 25 26  1  0  0  0  0
 27 25  1  0  0  0  0
 28 30  1  0  0  0  0
 30 29  1  6  0  0  0
 31 30  1  0  0  0  0
 31 32  1  0  0  0  0
 34 33  1  0  0  0  0
 35 34  1  0  0  0  0
 35 36  1  0  0  0  0
 37 36  1  0  0  0  0
 38 37  1  0  0  0  0
 39 40  1  0  0  0  0
 40 38  1  0  0  0  0
 41 40  1  0  0  0  0
 42 55  1  0  0  0  0
 44 47  1  0  0  0  0
 44 40  1  0  0  0  0
 44 53  1  1  0  0  0
 46 47  1  0  0  0  0
 47 43  1  0  0  0  0
 48 42  2  0  0  0  0
 49 50  1  0  0  0  0
 49 45  1  0  0  0  0
 50 52  1  0  0  0  0
 50 45  1  1  0  0  0
 51 42  1  0  0  0  0
 51 54  1  0  0  0  0
 52 47  1  0  0  0  0
 54 50  1  0  0  0  0
 55 44  1  0  0  0  0
M  END
>  <MODEL>
9

>  <REMARK>
 VINA RESULT:      -6.5      3.194      5.824
  Name = 
  15 active torsions:
  status: ('A' for Active; 'I' for Inactive)
    1  A    between atoms: C_2  and  C_28
    2  A    between atoms: C_2  and  C_44
    3  A    between atoms: C_4  and  C_40
    4  A    between atoms: C_6  and  C_20
    5  A    between atoms: C_8  and  O_22
    6  A    between atoms: C_8  and  C_35
    7  A    between atoms: N_10  and  C_32
    8  A    between atoms: O_19  and  C_40
    9  A    between atoms: O_19  and  C_45
   10  A    between atoms: C_20  and  O_22
   11  A    between atoms: C_27  and  C_54
   12  A    between atoms: C_34  and  N_52
   13  A    between atoms: C_35  and  C_43
   14  A    between atoms: C_43  and  O_51
   15  A    between atoms: O_51  and  C_54
                            x       y       z     vdW  Elec       q    Type
                         _______ _______ _______ _____ _____    ______ ____

>  <TORSDO>
F 15

$$$$
