=
 OpenBabel11052416203D

 43 49  0  0  1  0  0  0  0  0999 V2000
  191.1570  176.5710  146.8280 C   0  0  0  0  0  0  0  0  0  0  0  0
  189.1740  177.8030  142.3570 C   0  0  0  0  0  0  0  0  0  0  0  0
  186.4090  178.1720  142.7310 C   0  0  0  0  0  0  0  0  0  0  0  0
  190.8230  177.1030  144.4890 C   0  0  0  0  0  0  0  0  0  0  0  0
  189.7890  176.7400  147.0640 C   0  0  0  0  0  3  0  0  0  0  0  0
  192.0630  176.1960  147.9440 C   0  0  0  0  0  1  0  0  0  0  0  0
  189.4390  177.2780  144.7190 C   0  0  0  0  0  0  0  0  0  0  0  0
  191.6730  176.7530  145.5410 C   0  0  0  0  0  3  0  0  0  0  0  0
  188.9340  177.0920  146.0170 C   0  0  0  0  0  3  0  0  0  0  0  0
  187.2250  177.8220  143.8130 C   0  0  0  0  0  3  0  0  0  0  0  0
  188.6030  177.6330  143.6430 C   0  0  0  0  0  0  0  0  0  0  0  0
  190.5120  177.6220  142.1810 N   0  0  0  0  0  0  0  0  0  0  0  0
  188.3660  178.1600  141.2660 C   0  0  0  0  0  0  0  0  0  0  0  0
  186.9890  178.3350  141.4670 C   0  0  0  0  0  3  0  0  0  0  0  0
  191.3350  177.2800  143.2060 C   0  0  0  0  0  3  0  0  0  0  0  0
  184.9970  178.3640  142.9150 N   0  0  0  0  0  0  0  0  0  0  0  0
  184.0450  178.3900  141.8220 C   0  0  0  0  0  2  0  0  0  0  0  0
  184.3790  178.5680  144.2100 C   0  0  0  0  0  2  0  0  0  0  0  0
  182.6790  178.5030  142.4680 C   0  0  1  0  0  3  0  0  0  0  0  0
  182.9210  178.8760  143.9270 C   0  0  0  0  0  2  0  0  0  0  0  0
  181.8700  179.5810  141.7680 C   0  0  0  0  0  2  0  0  0  0  0  0
  180.5730  179.0120  141.1930 C   0  0  2  0  0  3  0  0  0  0  0  0
  179.0100  178.8960  139.3530 C   0  0  0  0  0  2  0  0  0  0  0  0
  180.7780  177.2840  140.6540 S   0  0  0  0  0  0  0  0  0  0  0  0
  179.9960  179.8240  140.0370 C   0  0  1  0  0  0  0  0  0  0  0  0
  179.2540  181.0280  140.5900 C   0  0  0  0  0  1  0  0  0  0  0  0
  179.6480  177.5230  139.2460 C   0  0  0  0  0  2  0  0  0  0  0  0
  181.0850  180.2720  139.0460 C   0  0  0  0  0  2  0  0  0  0  0  0
  180.5720  181.2420  138.0900 N   0  0  0  0  0  0  0  0  0  0  0  0
  180.3850  181.6360  135.6880 C   0  0  0  0  0  3  0  0  0  0  0  0
  180.9650  183.4590  137.1630 C   0  0  0  0  0  2  0  0  0  0  0  0
  180.5670  182.8990  135.8820 N   0  0  0  0  0  0  0  0  0  0  0  0
  181.4830  182.3820  138.1160 C   0  0  0  0  0  2  0  0  0  0  0  0
  180.6770  180.6280  136.7690 C   0  0  0  0  0  2  0  0  0  0  0  0
  188.9640  178.3040  140.0010 O   0  0  0  0  0  0  0  0  0  0  0  0
  190.2030  175.5710  137.7770 C   0  0  0  0  0  3  0  0  0  0  0  0
  189.0880  175.4030  136.9500 C   0  0  0  0  0  0  0  0  0  0  0  0
  187.9360  177.1620  138.1490 C   0  0  0  0  0  3  0  0  0  0  0  0
  190.1800  176.5320  138.7910 C   0  0  0  0  0  3  0  0  0  0  0  0
  189.0460  177.3390  138.9840 C   0  0  0  0  0  0  0  0  0  0  0  0
  187.9570  176.2020  137.1330 C   0  0  0  0  0  3  0  0  0  0  0  0
  187.8990  174.3970  135.1780 O   0  0  0  0  0  1  0  0  0  0  0  0
  189.1180  174.3950  135.8550 C   0  0  0  0  0  2  0  0  0  0  0  0
  1  5  1  0  0  0  0
  1  6  1  0  0  0  0
  2 11  1  0  0  0  0
  3 16  1  0  0  0  0
  3 10  1  0  0  0  0
  4  7  2  0  0  0  0
  4  8  1  0  0  0  0
  7  9  1  0  0  0  0
  8  1  2  0  0  0  0
  9  5  2  0  0  0  0
 11 10  2  0  0  0  0
 11  7  1  0  0  0  0
 12  2  1  0  0  0  0
 12 15  2  0  0  0  0
 13 14  1  0  0  0  0
 13  2  2  0  0  0  0
 14  3  2  0  0  0  0
 15  4  1  0  0  0  0
 16 18  1  0  0  0  0
 17 19  1  0  0  0  0
 17 16  1  0  0  0  0
 19 21  1  6  0  0  0
 19 20  1  0  0  0  0
 20 18  1  0  0  0  0
 22 21  1  6  0  0  0
 23 25  1  0  0  0  0
 24 22  1  0  0  0  0
 25 26  1  1  0  0  0
 25 22  1  0  0  0  0
 27 23  1  0  0  0  0
 27 24  1  0  0  0  0
 28 25  1  0  0  0  0
 29 33  1  0  0  0  0
 29 28  1  0  0  0  0
 30 32  2  0  0  0  0
 30 34  1  0  0  0  0
 31 33  1  0  0  0  0
 32 31  1  0  0  0  0
 34 29  1  0  0  0  0
 35 13  1  0  0  0  0
 36 39  1  0  0  0  0
 37 41  1  0  0  0  0
 37 36  2  0  0  0  0
 38 40  1  0  0  0  0
 39 40  2  0  0  0  0
 40 35  1  0  0  0  0
 41 38  2  0  0  0  0
 42 43  1  0  0  0  0
 43 37  1  0  0  0  0
M  END
>  <MODEL>
1

>  <REMARK>
 VINA RESULT:      -9.5      0.000      0.000
  Name = 
  8 active torsions:
  status: ('A' for Active; 'I' for Inactive)
    1  A    between atoms: O_1  and  C_34
    2  A    between atoms: O_1  and  C_35
    3  A    between atoms: N_2  and  C_13
    4  A    between atoms: C_3  and  C_4
    5  A    between atoms: C_3  and  C_12
    6  A    between atoms: N_11  and  C_14
    7  A    between atoms: C_14  and  C_22
    8  A    between atoms: C_19  and  C_37
                            x       y       z     vdW  Elec       q    Type
                         _______ _______ _______ _____ _____    ______ ____

>  <TORSDO>
F 8

$$$$
=
 OpenBabel11052416203D

 43 49  0  0  1  0  0  0  0  0999 V2000
  191.6240  176.2850  147.1970 C   0  0  0  0  0  0  0  0  0  0  0  0
  187.6990  177.7910  144.4120 C   0  0  0  0  0  0  0  0  0  0  0  0
  188.4710  177.6390  141.7090 C   0  0  0  0  0  0  0  0  0  0  0  0
  189.4630  177.0780  146.4440 C   0  0  0  0  0  0  0  0  0  0  0  0
  192.0560  176.1950  145.8710 C   0  0  0  0  0  3  0  0  0  0  0  0
  192.5420  175.9130  148.3050 C   0  0  0  0  0  1  0  0  0  0  0  0
  189.8910  176.9890  145.0990 C   0  0  0  0  0  0  0  0  0  0  0  0
  190.3280  176.7260  147.4840 C   0  0  0  0  0  3  0  0  0  0  0  0
  191.1960  176.5430  144.8270 C   0  0  0  0  0  3  0  0  0  0  0  0
  189.3690  177.2760  142.7200 C   0  0  0  0  0  3  0  0  0  0  0  0
  189.0000  177.3480  144.0690 C   0  0  0  0  0  0  0  0  0  0  0  0
  187.3310  177.8650  145.7200 N   0  0  0  0  0  0  0  0  0  0  0  0
  186.7880  178.1530  143.4070 C   0  0  0  0  0  0  0  0  0  0  0  0
  187.1890  178.0770  142.0640 C   0  0  0  0  0  3  0  0  0  0  0  0
  188.1740  177.5220  146.7280 C   0  0  0  0  0  3  0  0  0  0  0  0
  188.8580  177.5620  140.3280 N   0  0  0  0  0  0  0  0  0  0  0  0
  189.7020  176.5130  139.7910 C   0  0  0  0  0  2  0  0  0  0  0  0
  188.4570  178.5340  139.3290 C   0  0  0  0  0  2  0  0  0  0  0  0
  189.7610  176.7550  138.2960 C   0  0  1  0  0  3  0  0  0  0  0  0
  189.2030  178.1560  138.0640 C   0  0  0  0  0  2  0  0  0  0  0  0
  191.2000  176.6670  137.8200 C   0  0  0  0  0  2  0  0  0  0  0  0
  191.2930  175.9480  136.4740 C   0  0  2  0  0  3  0  0  0  0  0  0
  192.3710  174.2770  135.1010 C   0  0  0  0  0  2  0  0  0  0  0  0
  189.9540  174.7320  136.2680 S   0  0  0  0  0  0  0  0  0  0  0  0
  192.6310  175.2540  136.2310 C   0  0  1  0  0  0  0  0  0  0  0  0
  193.6550  176.2830  135.7830 C   0  0  0  0  0  1  0  0  0  0  0  0
  191.0460  173.5880  135.3650 C   0  0  0  0  0  2  0  0  0  0  0  0
  193.1290  174.5070  137.4810 C   0  0  0  0  0  2  0  0  0  0  0  0
  194.5390  174.1630  137.3710 N   0  0  0  0  0  0  0  0  0  0  0  0
  196.0310  172.2320  137.3070 C   0  0  0  0  0  3  0  0  0  0  0  0
  196.6500  174.1870  138.5850 C   0  0  0  0  0  2  0  0  0  0  0  0
  196.9150  172.8950  137.9750 N   0  0  0  0  0  0  0  0  0  0  0  0
  195.1520  174.4820  138.6570 C   0  0  0  0  0  2  0  0  0  0  0  0
  194.6080  172.7140  137.2010 C   0  0  0  0  0  2  0  0  0  0  0  0
  185.5100  178.6040  143.7820 O   0  0  0  0  0  0  0  0  0  0  0  0
  183.1280  178.1530  140.9410 C   0  0  0  0  0  3  0  0  0  0  0  0
  181.9340  178.5380  141.5570 C   0  0  0  0  0  0  0  0  0  0  0  0
  183.1380  178.9710  143.6130 C   0  0  0  0  0  3  0  0  0  0  0  0
  184.3230  178.1730  141.6630 C   0  0  0  0  0  3  0  0  0  0  0  0
  184.3390  178.5860  143.0060 C   0  0  0  0  0  0  0  0  0  0  0  0
  181.9410  178.9530  142.8920 C   0  0  0  0  0  3  0  0  0  0  0  0
  179.7590  177.6460  141.3590 O   0  0  0  0  0  1  0  0  0  0  0  0
  180.6620  178.5390  140.7840 C   0  0  0  0  0  2  0  0  0  0  0  0
  1  8  1  0  0  0  0
  1  6  1  0  0  0  0
  2 12  1  0  0  0  0
  3 14  2  0  0  0  0
  3 10  1  0  0  0  0
  4 15  1  0  0  0  0
  4  8  2  0  0  0  0
  5  1  2  0  0  0  0
  7  4  1  0  0  0  0
  9  7  2  0  0  0  0
  9  5  1  0  0  0  0
 10 11  2  0  0  0  0
 11  2  1  0  0  0  0
 11  7  1  0  0  0  0
 12 15  2  0  0  0  0
 13 35  1  0  0  0  0
 13  2  2  0  0  0  0
 14 13  1  0  0  0  0
 16  3  1  0  0  0  0
 17 16  1  0  0  0  0
 18 16  1  0  0  0  0
 19 21  1  1  0  0  0
 19 17  1  0  0  0  0
 20 19  1  0  0  0  0
 20 18  1  0  0  0  0
 22 21  1  1  0  0  0
 23 27  1  0  0  0  0
 23 25  1  0  0  0  0
 24 22  1  0  0  0  0
 25 26  1  6  0  0  0
 25 22  1  0  0  0  0
 25 28  1  0  0  0  0
 27 24  1  0  0  0  0
 29 28  1  0  0  0  0
 29 33  1  0  0  0  0
 30 32  2  0  0  0  0
 31 33  1  0  0  0  0
 32 31  1  0  0  0  0
 34 30  1  0  0  0  0
 34 29  1  0  0  0  0
 36 37  2  0  0  0  0
 36 39  1  0  0  0  0
 37 41  1  0  0  0  0
 39 40  2  0  0  0  0
 40 38  1  0  0  0  0
 40 35  1  0  0  0  0
 41 38  2  0  0  0  0
 43 42  1  0  0  0  0
 43 37  1  0  0  0  0
M  END
>  <MODEL>
2

>  <REMARK>
 VINA RESULT:      -9.5      3.839      9.806
  Name = 
  8 active torsions:
  status: ('A' for Active; 'I' for Inactive)
    1  A    between atoms: O_1  and  C_34
    2  A    between atoms: O_1  and  C_35
    3  A    between atoms: N_2  and  C_13
    4  A    between atoms: C_3  and  C_4
    5  A    between atoms: C_3  and  C_12
    6  A    between atoms: N_11  and  C_14
    7  A    between atoms: C_14  and  C_22
    8  A    between atoms: C_19  and  C_37
                            x       y       z     vdW  Elec       q    Type
                         _______ _______ _______ _____ _____    ______ ____

>  <TORSDO>
F 8

$$$$
=
 OpenBabel11052416203D

 43 49  0  0  1  0  0  0  0  0999 V2000
  191.0320  176.5880  146.6650 C   0  0  0  0  0  0  0  0  0  0  0  0
  188.6910  178.0140  142.4330 C   0  0  0  0  0  0  0  0  0  0  0  0
  185.9620  178.3370  143.0430 C   0  0  0  0  0  0  0  0  0  0  0  0
  190.5090  177.2290  144.3900 C   0  0  0  0  0  0  0  0  0  0  0  0
  189.6870  176.7320  147.0180 C   0  0  0  0  0  3  0  0  0  0  0  0
  192.0270  176.1680  147.6860 C   0  0  0  0  0  1  0  0  0  0  0  0
  189.1470  177.3790  144.7370 C   0  0  0  0  0  0  0  0  0  0  0  0
  191.4430  176.8370  145.3520 C   0  0  0  0  0  3  0  0  0  0  0  0
  188.7480  177.1260  146.0610 C   0  0  0  0  0  3  0  0  0  0  0  0
  186.8640  177.9430  144.0380 C   0  0  0  0  0  3  0  0  0  0  0  0
  188.2250  177.7770  143.7500 C   0  0  0  0  0  0  0  0  0  0  0  0
  190.0110  177.8550  142.1420 N   0  0  0  0  0  0  0  0  0  0  0  0
  187.7960  178.4150  141.4280 C   0  0  0  0  0  0  0  0  0  0  0  0
  186.4380  178.5670  141.7460 C   0  0  0  0  0  3  0  0  0  0  0  0
  190.9160  177.4730  143.0800 C   0  0  0  0  0  3  0  0  0  0  0  0
  184.5690  178.5060  143.3470 N   0  0  0  0  0  0  0  0  0  0  0  0
  183.5350  178.6050  142.3360 C   0  0  0  0  0  2  0  0  0  0  0  0
  184.0520  178.6120  144.6980 C   0  0  0  0  0  2  0  0  0  0  0  0
  182.2230  178.6620  143.0910 C   0  0  1  0  0  3  0  0  0  0  0  0
  182.5760  178.9300  144.5500 C   0  0  0  0  0  2  0  0  0  0  0  0
  181.3610  179.7830  142.5350 C   0  0  0  0  0  2  0  0  0  0  0  0
  180.1090  179.2300  141.8540 C   0  0  2  0  0  3  0  0  0  0  0  0
  178.9310  178.7240  139.8060 C   0  0  0  0  0  2  0  0  0  0  0  0
  180.0640  177.4100  141.9040 S   0  0  0  0  0  0  0  0  0  0  0  0
  179.9340  179.6880  140.4080 C   0  0  1  0  0  0  0  0  0  0  0  0
  179.3560  181.0920  140.3930 C   0  0  0  0  0  1  0  0  0  0  0  0
  179.2900  177.3210  140.2580 C   0  0  0  0  0  2  0  0  0  0  0  0
  181.2580  179.6420  139.6250 C   0  0  0  0  0  2  0  0  0  0  0  0
  181.0690  179.0960  138.2880 N   0  0  0  0  0  0  0  0  0  0  0  0
  182.2360  177.8090  136.5730 C   0  0  0  0  0  3  0  0  0  0  0  0
  180.8880  179.7120  135.9400 C   0  0  0  0  0  2  0  0  0  0  0  0
  181.6650  178.5170  135.6570 N   0  0  0  0  0  0  0  0  0  0  0  0
  181.1300  180.2210  137.3610 C   0  0  0  0  0  2  0  0  0  0  0  0
  182.2210  178.2410  138.0170 C   0  0  0  0  0  2  0  0  0  0  0  0
  188.2890  178.6270  140.1280 O   0  0  0  0  0  0  0  0  0  0  0  0
  186.4540  177.3120  137.1520 C   0  0  0  0  0  3  0  0  0  0  0  0
  187.4260  176.4600  136.6200 C   0  0  0  0  0  0  0  0  0  0  0  0
  188.9270  177.0510  138.4250 C   0  0  0  0  0  3  0  0  0  0  0  0
  186.7220  178.0350  138.3170 C   0  0  0  0  0  3  0  0  0  0  0  0
  187.9620  177.9080  138.9670 C   0  0  0  0  0  0  0  0  0  0  0  0
  188.6610  176.3260  137.2600 C   0  0  0  0  0  3  0  0  0  0  0  0
  185.7890  175.3050  135.3750 O   0  0  0  0  0  1  0  0  0  0  0  0
  187.1340  175.6730  135.3910 C   0  0  0  0  0  2  0  0  0  0  0  0
  1  5  1  0  0  0  0
  1  6  1  0  0  0  0
  2 11  1  0  0  0  0
  3 16  1  0  0  0  0
  3 10  1  0  0  0  0
  4  7  2  0  0  0  0
  4  8  1  0  0  0  0
  7  9  1  0  0  0  0
  8  1  2  0  0  0  0
  9  5  2  0  0  0  0
 11 10  2  0  0  0  0
 11  7  1  0  0  0  0
 12  2  1  0  0  0  0
 12 15  2  0  0  0  0
 13 14  1  0  0  0  0
 13  2  2  0  0  0  0
 14  3  2  0  0  0  0
 15  4  1  0  0  0  0
 16 18  1  0  0  0  0
 17 19  1  0  0  0  0
 17 16  1  0  0  0  0
 19 21  1  6  0  0  0
 19 20  1  0  0  0  0
 20 18  1  0  0  0  0
 22 24  1  0  0  0  0
 22 21  1  6  0  0  0
 23 27  1  0  0  0  0
 23 25  1  0  0  0  0
 25 26  1  6  0  0  0
 25 22  1  0  0  0  0
 27 24  1  0  0  0  0
 28 25  1  0  0  0  0
 29 28  1  0  0  0  0
 30 34  1  0  0  0  0
 31 33  1  0  0  0  0
 32 31  1  0  0  0  0
 32 30  2  0  0  0  0
 33 29  1  0  0  0  0
 34 29  1  0  0  0  0
 35 13  1  0  0  0  0
 36 39  1  0  0  0  0
 37 36  2  0  0  0  0
 37 41  1  0  0  0  0
 38 40  1  0  0  0  0
 39 40  2  0  0  0  0
 40 35  1  0  0  0  0
 41 38  2  0  0  0  0
 42 43  1  0  0  0  0
 43 37  1  0  0  0  0
M  END
>  <MODEL>
3

>  <REMARK>
 VINA RESULT:      -9.4      1.341      1.784
  Name = 
  8 active torsions:
  status: ('A' for Active; 'I' for Inactive)
    1  A    between atoms: O_1  and  C_34
    2  A    between atoms: O_1  and  C_35
    3  A    between atoms: N_2  and  C_13
    4  A    between atoms: C_3  and  C_4
    5  A    between atoms: C_3  and  C_12
    6  A    between atoms: N_11  and  C_14
    7  A    between atoms: C_14  and  C_22
    8  A    between atoms: C_19  and  C_37
                            x       y       z     vdW  Elec       q    Type
                         _______ _______ _______ _____ _____    ______ ____

>  <TORSDO>
F 8

$$$$
=
 OpenBabel11052416203D

 43 49  0  0  1  0  0  0  0  0999 V2000
  181.6070  178.9860  142.3040 C   0  0  0  0  0  0  0  0  0  0  0  0
  186.2820  178.3450  144.0810 C   0  0  0  0  0  0  0  0  0  0  0  0
  187.9600  177.8270  141.8820 C   0  0  0  0  0  0  0  0  0  0  0  0
  183.5560  178.7890  143.7260 C   0  0  0  0  0  0  0  0  0  0  0  0
  182.3970  178.7310  141.1800 C   0  0  0  0  0  3  0  0  0  0  0  0
  180.1480  179.2260  142.1480 C   0  0  0  0  0  1  0  0  0  0  0  0
  184.3640  178.5310  142.5940 C   0  0  0  0  0  0  0  0  0  0  0  0
  182.1860  179.0170  143.5760 C   0  0  0  0  0  3  0  0  0  0  0  0
  183.7680  178.5050  141.3220 C   0  0  0  0  0  3  0  0  0  0  0  0
  186.5920  178.0500  141.6870 C   0  0  0  0  0  3  0  0  0  0  0  0
  185.7440  178.3070  142.7710 C   0  0  0  0  0  0  0  0  0  0  0  0
  185.4660  178.5940  145.1420 N   0  0  0  0  0  0  0  0  0  0  0  0
  187.6530  178.1290  144.2880 C   0  0  0  0  0  0  0  0  0  0  0  0
  188.4760  177.8670  143.1830 C   0  0  0  0  0  3  0  0  0  0  0  0
  184.1340  178.8140  144.9930 C   0  0  0  0  0  3  0  0  0  0  0  0
  188.8230  177.5650  140.7640 N   0  0  0  0  0  0  0  0  0  0  0  0
  188.3370  177.3180  139.4200 C   0  0  0  0  0  2  0  0  0  0  0  0
  190.2670  177.5030  140.8640 C   0  0  0  0  0  2  0  0  0  0  0  0
  189.5730  177.2020  138.5500 C   0  0  1  0  0  3  0  0  0  0  0  0
  190.7570  177.0570  139.5010 C   0  0  0  0  0  2  0  0  0  0  0  0
  189.4550  175.9810  137.6530 C   0  0  0  0  0  2  0  0  0  0  0  0
  188.8020  176.3390  136.3180 C   0  0  2  0  0  3  0  0  0  0  0  0
  186.8660  176.2280  134.8760 C   0  0  0  0  0  2  0  0  0  0  0  0
  188.2920  178.0860  136.2660 S   0  0  0  0  0  0  0  0  0  0  0  0
  187.6040  175.4640  135.9580 C   0  0  1  0  0  0  0  0  0  0  0  0
  188.0990  174.1430  135.3940 C   0  0  0  0  0  1  0  0  0  0  0  0
  186.8120  177.6900  135.2810 C   0  0  0  0  0  2  0  0  0  0  0  0
  186.6820  175.2220  137.1660 C   0  0  0  0  0  2  0  0  0  0  0  0
  185.4750  174.5050  136.7820 N   0  0  0  0  0  0  0  0  0  0  0  0
  183.0530  174.5530  137.0820 C   0  0  0  0  0  3  0  0  0  0  0  0
  184.2320  172.4450  137.1550 C   0  0  0  0  0  2  0  0  0  0  0  0
  183.0310  173.2620  137.0980 N   0  0  0  0  0  0  0  0  0  0  0  0
  185.4570  173.2660  137.5540 C   0  0  0  0  0  2  0  0  0  0  0  0
  184.3440  175.3150  137.2280 C   0  0  0  0  0  2  0  0  0  0  0  0
  188.1520  178.1570  145.6030 O   0  0  0  0  0  0  0  0  0  0  0  0
  191.6010  176.7420  145.8310 C   0  0  0  0  0  3  0  0  0  0  0  0
  191.6070  176.3200  147.1630 C   0  0  0  0  0  0  0  0  0  0  0  0
  189.3320  177.1070  147.4180 C   0  0  0  0  0  3  0  0  0  0  0  0
  190.4630  177.3500  145.2960 C   0  0  0  0  0  3  0  0  0  0  0  0
  189.3150  177.5340  146.0860 C   0  0  0  0  0  0  0  0  0  0  0  0
  190.4700  176.4980  147.9550 C   0  0  0  0  0  3  0  0  0  0  0  0
  193.2410  176.3380  148.8650 O   0  0  0  0  0  1  0  0  0  0  0  0
  192.8120  175.6530  147.7280 C   0  0  0  0  0  2  0  0  0  0  0  0
  1  8  1  0  0  0  0
  2 13  1  0  0  0  0
  2 12  1  0  0  0  0
  3 14  1  0  0  0  0
  4 15  1  0  0  0  0
  5  9  1  0  0  0  0
  5  1  2  0  0  0  0
  6  1  1  0  0  0  0
  7 11  1  0  0  0  0
  7  4  1  0  0  0  0
  8  4  2  0  0  0  0
  9  7  2  0  0  0  0
 10  3  2  0  0  0  0
 10 11  1  0  0  0  0
 11  2  2  0  0  0  0
 13 35  1  0  0  0  0
 14 13  2  0  0  0  0
 15 12  2  0  0  0  0
 16 18  1  0  0  0  0
 16  3  1  0  0  0  0
 17 16  1  0  0  0  0
 19 21  1  6  0  0  0
 19 17  1  0  0  0  0
 19 20  1  0  0  0  0
 20 18  1  0  0  0  0
 22 21  1  1  0  0  0
 23 27  1  0  0  0  0
 23 25  1  0  0  0  0
 24 22  1  0  0  0  0
 25 26  1  6  0  0  0
 25 22  1  0  0  0  0
 25 28  1  0  0  0  0
 27 24  1  0  0  0  0
 29 28  1  0  0  0  0
 29 34  1  0  0  0  0
 29 33  1  0  0  0  0
 30 32  2  0  0  0  0
 30 34  1  0  0  0  0
 31 33  1  0  0  0  0
 32 31  1  0  0  0  0
 35 40  1  0  0  0  0
 36 37  1  0  0  0  0
 37 43  1  0  0  0  0
 37 41  2  0  0  0  0
 38 41  1  0  0  0  0
 39 36  2  0  0  0  0
 39 40  1  0  0  0  0
 40 38  2  0  0  0  0
 43 42  1  0  0  0  0
M  END
>  <MODEL>
4

>  <REMARK>
 VINA RESULT:      -9.2      3.755      8.535
  Name = 
  8 active torsions:
  status: ('A' for Active; 'I' for Inactive)
    1  A    between atoms: O_1  and  C_34
    2  A    between atoms: O_1  and  C_35
    3  A    between atoms: N_2  and  C_13
    4  A    between atoms: C_3  and  C_4
    5  A    between atoms: C_3  and  C_12
    6  A    between atoms: N_11  and  C_14
    7  A    between atoms: C_14  and  C_22
    8  A    between atoms: C_19  and  C_37
                            x       y       z     vdW  Elec       q    Type
                         _______ _______ _______ _____ _____    ______ ____

>  <TORSDO>
F 8

$$$$
=
 OpenBabel11052416203D

 43 49  0  0  1  0  0  0  0  0999 V2000
  187.9180  177.7820  147.1970 C   0  0  0  0  0  0  0  0  0  0  0  0
  185.5240  178.5850  142.8320 C   0  0  0  0  0  0  0  0  0  0  0  0
  187.3880  178.1950  140.7590 C   0  0  0  0  0  0  0  0  0  0  0  0
  186.2660  178.2780  145.4980 C   0  0  0  0  0  0  0  0  0  0  0  0
  188.8820  177.5800  146.2040 C   0  0  0  0  0  3  0  0  0  0  0  0
  188.2820  177.6280  148.6290 C   0  0  0  0  0  1  0  0  0  0  0  0
  187.2330  178.0750  144.4870 C   0  0  0  0  0  0  0  0  0  0  0  0
  186.6110  178.1300  146.8430 C   0  0  0  0  0  3  0  0  0  0  0  0
  188.5430  177.7240  144.8570 C   0  0  0  0  0  3  0  0  0  0  0  0
  187.7760  178.0360  142.0950 C   0  0  0  0  0  3  0  0  0  0  0  0
  186.8600  178.2280  143.1370 C   0  0  0  0  0  0  0  0  0  0  0  0
  184.6260  178.7740  143.8370 N   0  0  0  0  0  0  0  0  0  0  0  0
  185.1220  178.7420  141.4960 C   0  0  0  0  0  0  0  0  0  0  0  0
  186.0640  178.5490  140.4740 C   0  0  0  0  0  3  0  0  0  0  0  0
  184.9650  178.6300  145.1440 C   0  0  0  0  0  3  0  0  0  0  0  0
  188.3340  177.9960  139.6970 N   0  0  0  0  0  0  0  0  0  0  0  0
  188.1230  178.4640  138.3410 C   0  0  0  0  0  2  0  0  0  0  0  0
  189.5900  177.2920  139.8650 C   0  0  0  0  0  2  0  0  0  0  0  0
  189.4000  178.1410  137.5910 C   0  0  1  0  0  3  0  0  0  0  0  0
  190.1910  177.1840  138.4770 C   0  0  0  0  0  2  0  0  0  0  0  0
  189.0610  177.4840  136.2630 C   0  0  0  0  0  2  0  0  0  0  0  0
  189.5100  176.0230  136.2390 C   0  0  2  0  0  3  0  0  0  0  0  0
  189.0650  173.7410  135.5820 C   0  0  0  0  0  2  0  0  0  0  0  0
  190.8200  175.7420  135.0050 S   0  0  0  0  0  0  0  0  0  0  0  0
  188.3790  175.0290  135.9940 C   0  0  1  0  0  0  0  0  0  0  0  0
  187.6190  174.8030  137.2900 C   0  0  0  0  0  1  0  0  0  0  0  0
  190.1750  174.0860  134.6060 C   0  0  0  0  0  2  0  0  0  0  0  0
  187.4230  175.5050  134.8850 C   0  0  0  0  0  2  0  0  0  0  0  0
  186.0490  175.5810  135.3600 N   0  0  0  0  0  0  0  0  0  0  0  0
  183.8070  174.7620  134.8490 C   0  0  0  0  0  3  0  0  0  0  0  0
  184.1230  177.0610  135.5190 C   0  0  0  0  0  2  0  0  0  0  0  0
  183.3110  175.8930  135.2210 N   0  0  0  0  0  0  0  0  0  0  0  0
  185.5520  176.9050  135.0000 C   0  0  0  0  0  2  0  0  0  0  0  0
  185.2840  174.6010  134.5940 C   0  0  0  0  0  2  0  0  0  0  0  0
  183.7920  179.1130  141.2280 O   0  0  0  0  0  0  0  0  0  0  0  0
  180.3850  177.6230  140.8710 C   0  0  0  0  0  3  0  0  0  0  0  0
  180.6740  176.5490  140.0250 C   0  0  0  0  0  0  0  0  0  0  0  0
  183.0090  177.1900  140.0130 C   0  0  0  0  0  3  0  0  0  0  0  0
  181.4080  178.4810  141.2830 C   0  0  0  0  0  3  0  0  0  0  0  0
  182.7310  178.2690  140.8600 C   0  0  0  0  0  0  0  0  0  0  0  0
  181.9870  176.3290  139.6000 C   0  0  0  0  0  3  0  0  0  0  0  0
  179.9980  174.3010  139.7910 O   0  0  0  0  0  1  0  0  0  0  0  0
  179.5900  175.6210  139.6020 C   0  0  0  0  0  2  0  0  0  0  0  0
  1  6  1  0  0  0  0
  2 11  1  0  0  0  0
  2 12  1  0  0  0  0
  3 10  1  0  0  0  0
  4  8  2  0  0  0  0
  5  1  2  0  0  0  0
  7  9  2  0  0  0  0
  7  4  1  0  0  0  0
  8  1  1  0  0  0  0
  9  5  1  0  0  0  0
 10 11  2  0  0  0  0
 11  7  1  0  0  0  0
 12 15  2  0  0  0  0
 13  2  2  0  0  0  0
 14  3  2  0  0  0  0
 14 13  1  0  0  0  0
 15  4  1  0  0  0  0
 16 18  1  0  0  0  0
 16  3  1  0  0  0  0
 17 16  1  0  0  0  0
 19 21  1  6  0  0  0
 19 17  1  0  0  0  0
 19 20  1  0  0  0  0
 20 18  1  0  0  0  0
 22 21  1  6  0  0  0
 23 25  1  0  0  0  0
 24 22  1  0  0  0  0
 25 22  1  0  0  0  0
 25 26  1  1  0  0  0
 27 24  1  0  0  0  0
 27 23  1  0  0  0  0
 28 29  1  0  0  0  0
 28 25  1  0  0  0  0
 30 32  2  0  0  0  0
 32 31  1  0  0  0  0
 33 29  1  0  0  0  0
 33 31  1  0  0  0  0
 34 30  1  0  0  0  0
 34 29  1  0  0  0  0
 35 13  1  0  0  0  0
 36 39  1  0  0  0  0
 37 36  2  0  0  0  0
 38 40  1  0  0  0  0
 40 35  1  0  0  0  0
 40 39  2  0  0  0  0
 41 38  2  0  0  0  0
 41 37  1  0  0  0  0
 43 42  1  0  0  0  0
 43 37  1  0  0  0  0
M  END
>  <MODEL>
5

>  <REMARK>
 VINA RESULT:      -9.2      3.720      7.420
  Name = 
  8 active torsions:
  status: ('A' for Active; 'I' for Inactive)
    1  A    between atoms: O_1  and  C_34
    2  A    between atoms: O_1  and  C_35
    3  A    between atoms: N_2  and  C_13
    4  A    between atoms: C_3  and  C_4
    5  A    between atoms: C_3  and  C_12
    6  A    between atoms: N_11  and  C_14
    7  A    between atoms: C_14  and  C_22
    8  A    between atoms: C_19  and  C_37
                            x       y       z     vdW  Elec       q    Type
                         _______ _______ _______ _____ _____    ______ ____

>  <TORSDO>
F 8

$$$$
=
 OpenBabel11052416203D

 43 49  0  0  1  0  0  0  0  0999 V2000
  189.3720  177.2760  146.5140 C   0  0  0  0  0  0  0  0  0  0  0  0
  187.7160  178.2740  141.8570 C   0  0  0  0  0  0  0  0  0  0  0  0
  184.9060  178.3860  141.9640 C   0  0  0  0  0  0  0  0  0  0  0  0
  189.2140  177.7530  144.1460 C   0  0  0  0  0  0  0  0  0  0  0  0
  187.9790  177.3180  146.6190 C   0  0  0  0  0  3  0  0  0  0  0  0
  190.2000  176.9980  147.7170 C   0  0  0  0  0  1  0  0  0  0  0  0
  187.8030  177.7990  144.2420 C   0  0  0  0  0  0  0  0  0  0  0  0
  189.9890  177.4940  145.2780 C   0  0  0  0  0  3  0  0  0  0  0  0
  187.1970  177.5790  145.4910 C   0  0  0  0  0  3  0  0  0  0  0  0
  185.6450  178.1240  143.1230 C   0  0  0  0  0  3  0  0  0  0  0  0
  187.0440  178.0640  143.0860 C   0  0  0  0  0  0  0  0  0  0  0  0
  189.0750  178.2180  141.8100 N   0  0  0  0  0  0  0  0  0  0  0  0
  186.9860  178.5430  140.6890 C   0  0  0  0  0  0  0  0  0  0  0  0
  185.5850  178.5910  140.7560 C   0  0  0  0  0  3  0  0  0  0  0  0
  189.8260  177.9650  142.9130 C   0  0  0  0  0  3  0  0  0  0  0  0
  183.4710  178.4470  142.0120 N   0  0  0  0  0  0  0  0  0  0  0  0
  182.6130  177.8930  140.9830 C   0  0  0  0  0  2  0  0  0  0  0  0
  182.7320  179.0820  143.0850 C   0  0  0  0  0  2  0  0  0  0  0  0
  181.1950  178.0790  141.4850 C   0  0  1  0  0  3  0  0  0  0  0  0
  181.2770  179.0480  142.6590 C   0  0  0  0  0  2  0  0  0  0  0  0
  180.3310  178.6540  140.3750 C   0  0  0  0  0  2  0  0  0  0  0  0
  180.6640  180.1240  140.1230 C   0  0  2  0  0  3  0  0  0  0  0  0
  181.0970  181.8960  138.5380 C   0  0  0  0  0  2  0  0  0  0  0  0
  179.2120  181.1950  140.3740 S   0  0  0  0  0  0  0  0  0  0  0  0
  181.2480  180.4010  138.7410 C   0  0  1  0  0  0  0  0  0  0  0  0
  182.7230  180.0380  138.7370 C   0  0  0  0  0  1  0  0  0  0  0  0
  179.7160  182.3030  139.0200 C   0  0  0  0  0  2  0  0  0  0  0  0
  180.5020  179.6330  137.6350 C   0  0  0  0  0  2  0  0  0  0  0  0
  181.4060  178.7890  136.8670 N   0  0  0  0  0  0  0  0  0  0  0  0
  181.7930  177.9810  134.5960 C   0  0  0  0  0  3  0  0  0  0  0  0
  182.0400  176.4730  136.4670 C   0  0  0  0  0  2  0  0  0  0  0  0
  182.1770  176.8430  135.0680 N   0  0  0  0  0  0  0  0  0  0  0  0
  181.0850  177.4080  137.2100 C   0  0  0  0  0  2  0  0  0  0  0  0
  181.0680  178.9820  135.4590 C   0  0  0  0  0  2  0  0  0  0  0  0
  187.6840  178.7320  139.4820 O   0  0  0  0  0  0  0  0  0  0  0  0
  186.9110  177.3590  136.0950 C   0  0  0  0  0  3  0  0  0  0  0  0
  187.7120  176.2130  136.1060 C   0  0  0  0  0  0  0  0  0  0  0  0
  188.4530  176.7560  138.3460 C   0  0  0  0  0  3  0  0  0  0  0  0
  186.8870  178.2030  137.2080 C   0  0  0  0  0  3  0  0  0  0  0  0
  187.6560  177.9060  138.3460 C   0  0  0  0  0  0  0  0  0  0  0  0
  188.4780  175.9090  137.2340 C   0  0  0  0  0  3  0  0  0  0  0  0
  187.8270  173.9780  135.3590 O   0  0  0  0  0  1  0  0  0  0  0  0
  187.7220  175.3010  134.9300 C   0  0  0  0  0  2  0  0  0  0  0  0
  1  5  1  0  0  0  0
  1  6  1  0  0  0  0
  2 11  1  0  0  0  0
  3 16  1  0  0  0  0
  3 10  1  0  0  0  0
  4  7  2  0  0  0  0
  4  8  1  0  0  0  0
  7  9  1  0  0  0  0
  8  1  2  0  0  0  0
  9  5  2  0  0  0  0
 11 10  2  0  0  0  0
 11  7  1  0  0  0  0
 12  2  1  0  0  0  0
 12 15  2  0  0  0  0
 13 14  1  0  0  0  0
 13  2  2  0  0  0  0
 14  3  2  0  0  0  0
 15  4  1  0  0  0  0
 16 18  1  0  0  0  0
 17 19  1  0  0  0  0
 17 16  1  0  0  0  0
 19 21  1  6  0  0  0
 19 20  1  0  0  0  0
 20 18  1  0  0  0  0
 22 24  1  0  0  0  0
 22 21  1  6  0  0  0
 23 25  1  0  0  0  0
 23 27  1  0  0  0  0
 25 26  1  6  0  0  0
 25 22  1  0  0  0  0
 27 24  1  0  0  0  0
 28 25  1  0  0  0  0
 29 33  1  0  0  0  0
 29 28  1  0  0  0  0
 30 32  2  0  0  0  0
 30 34  1  0  0  0  0
 31 33  1  0  0  0  0
 32 31  1  0  0  0  0
 34 29  1  0  0  0  0
 35 13  1  0  0  0  0
 36 37  2  0  0  0  0
 36 39  1  0  0  0  0
 37 41  1  0  0  0  0
 38 40  1  0  0  0  0
 39 40  2  0  0  0  0
 40 35  1  0  0  0  0
 41 38  2  0  0  0  0
 43 42  1  0  0  0  0
 43 37  1  0  0  0  0
M  END
>  <MODEL>
6

>  <REMARK>
 VINA RESULT:      -9.2      1.847      2.816
  Name = 
  8 active torsions:
  status: ('A' for Active; 'I' for Inactive)
    1  A    between atoms: O_1  and  C_34
    2  A    between atoms: O_1  and  C_35
    3  A    between atoms: N_2  and  C_13
    4  A    between atoms: C_3  and  C_4
    5  A    between atoms: C_3  and  C_12
    6  A    between atoms: N_11  and  C_14
    7  A    between atoms: C_14  and  C_22
    8  A    between atoms: C_19  and  C_37
                            x       y       z     vdW  Elec       q    Type
                         _______ _______ _______ _____ _____    ______ ____

>  <TORSDO>
F 8

$$$$
=
 OpenBabel11052416203D

 43 49  0  0  1  0  0  0  0  0999 V2000
  187.7970  177.5020  146.7980 C   0  0  0  0  0  0  0  0  0  0  0  0
  188.3840  178.1780  141.8350 C   0  0  0  0  0  0  0  0  0  0  0  0
  185.8180  178.4470  140.7090 C   0  0  0  0  0  0  0  0  0  0  0  0
  188.7080  177.7780  144.5710 C   0  0  0  0  0  0  0  0  0  0  0  0
  186.5020  177.6270  146.2860 C   0  0  0  0  0  3  0  0  0  0  0  0
  188.0040  177.2860  148.2530 C   0  0  0  0  0  1  0  0  0  0  0  0
  187.4020  177.9080  144.0450 C   0  0  0  0  0  0  0  0  0  0  0  0
  188.9000  177.5780  145.9410 C   0  0  0  0  0  3  0  0  0  0  0  0
  186.3040  177.8290  144.9190 C   0  0  0  0  0  3  0  0  0  0  0  0
  185.9650  178.2480  142.0860 C   0  0  0  0  0  3  0  0  0  0  0  0
  187.2350  178.1110  142.6610 C   0  0  0  0  0  0  0  0  0  0  0  0
  189.6220  178.0450  142.3840 N   0  0  0  0  0  0  0  0  0  0  0  0
  188.2490  178.3830  140.4530 C   0  0  0  0  0  0  0  0  0  0  0  0
  186.9640  178.5100  139.9050 C   0  0  0  0  0  3  0  0  0  0  0  0
  189.8050  177.8500  143.7150 C   0  0  0  0  0  3  0  0  0  0  0  0
  184.5120  178.5880  140.1270 N   0  0  0  0  0  0  0  0  0  0  0  0
  183.5190  177.5320  140.1280 C   0  0  0  0  0  2  0  0  0  0  0  0
  184.0560  179.7950  139.4650 C   0  0  0  0  0  2  0  0  0  0  0  0
  182.2710  178.1400  139.5200 C   0  0  1  0  0  3  0  0  0  0  0  0
  182.7010  179.4550  138.8770 C   0  0  0  0  0  2  0  0  0  0  0  0
  181.6990  177.1960  138.4760 C   0  0  0  0  0  2  0  0  0  0  0  0
  181.9230  177.7360  137.0630 C   0  0  2  0  0  3  0  0  0  0  0  0
  182.5720  177.3110  134.7740 C   0  0  0  0  0  2  0  0  0  0  0  0
  180.3480  178.0000  136.1870 S   0  0  0  0  0  0  0  0  0  0  0  0
  182.8270  176.8600  136.2000 C   0  0  1  0  0  0  0  0  0  0  0  0
  184.2780  177.1280  136.5610 C   0  0  0  0  0  1  0  0  0  0  0  0
  181.0770  177.4950  134.5950 C   0  0  0  0  0  2  0  0  0  0  0  0
  182.5010  175.3640  136.3540 C   0  0  0  0  0  2  0  0  0  0  0  0
  183.7080  174.5510  136.3570 N   0  0  0  0  0  0  0  0  0  0  0  0
  184.7550  172.6890  135.1760 C   0  0  0  0  0  3  0  0  0  0  0  0
  184.8770  172.8050  137.5870 C   0  0  0  0  0  2  0  0  0  0  0  0
  185.2480  172.2620  136.2900 N   0  0  0  0  0  0  0  0  0  0  0  0
  183.6080  173.6530  137.5030 C   0  0  0  0  0  2  0  0  0  0  0  0
  183.6660  173.7290  135.1510 C   0  0  0  0  0  2  0  0  0  0  0  0
  189.4090  178.4280  139.6580 O   0  0  0  0  0  0  0  0  0  0  0  0
  189.8360  176.8510  136.3000 C   0  0  0  0  0  3  0  0  0  0  0  0
  190.5920  175.7280  136.6500 C   0  0  0  0  0  0  0  0  0  0  0  0
  190.5290  176.4130  138.9710 C   0  0  0  0  0  3  0  0  0  0  0  0
  189.4320  177.7540  137.2860 C   0  0  0  0  0  3  0  0  0  0  0  0
  189.7720  177.5400  138.6320 C   0  0  0  0  0  0  0  0  0  0  0  0
  190.9330  175.5070  137.9860 C   0  0  0  0  0  3  0  0  0  0  0  0
  192.3030  174.3110  135.8570 O   0  0  0  0  0  1  0  0  0  0  0  0
  191.0050  174.7530  135.6040 C   0  0  0  0  0  2  0  0  0  0  0  0
  1  6  1  0  0  0  0
  2 12  1  0  0  0  0
  2 11  1  0  0  0  0
  3 10  1  0  0  0  0
  4  8  1  0  0  0  0
  5  1  1  0  0  0  0
  7  4  2  0  0  0  0
  7  9  1  0  0  0  0
  8  1  2  0  0  0  0
  9  5  2  0  0  0  0
 10 11  2  0  0  0  0
 11  7  1  0  0  0  0
 12 15  2  0  0  0  0
 13  2  2  0  0  0  0
 14 13  1  0  0  0  0
 14  3  2  0  0  0  0
 15  4  1  0  0  0  0
 16 17  1  0  0  0  0
 16  3  1  0  0  0  0
 18 16  1  0  0  0  0
 19 21  1  6  0  0  0
 19 17  1  0  0  0  0
 20 18  1  0  0  0  0
 20 19  1  0  0  0  0
 22 21  1  1  0  0  0
 23 25  1  0  0  0  0
 24 22  1  0  0  0  0
 25 28  1  0  0  0  0
 25 26  1  1  0  0  0
 25 22  1  0  0  0  0
 27 23  1  0  0  0  0
 27 24  1  0  0  0  0
 28 29  1  0  0  0  0
 29 33  1  0  0  0  0
 30 32  2  0  0  0  0
 32 31  1  0  0  0  0
 33 31  1  0  0  0  0
 34 30  1  0  0  0  0
 34 29  1  0  0  0  0
 35 13  1  0  0  0  0
 36 37  2  0  0  0  0
 36 39  1  0  0  0  0
 37 41  1  0  0  0  0
 39 40  2  0  0  0  0
 40 38  1  0  0  0  0
 40 35  1  0  0  0  0
 41 38  2  0  0  0  0
 43 42  1  0  0  0  0
 43 37  1  0  0  0  0
M  END
>  <MODEL>
7

>  <REMARK>
 VINA RESULT:      -8.9      3.228      4.857
  Name = 
  8 active torsions:
  status: ('A' for Active; 'I' for Inactive)
    1  A    between atoms: O_1  and  C_34
    2  A    between atoms: O_1  and  C_35
    3  A    between atoms: N_2  and  C_13
    4  A    between atoms: C_3  and  C_4
    5  A    between atoms: C_3  and  C_12
    6  A    between atoms: N_11  and  C_14
    7  A    between atoms: C_14  and  C_22
    8  A    between atoms: C_19  and  C_37
                            x       y       z     vdW  Elec       q    Type
                         _______ _______ _______ _____ _____    ______ ____

>  <TORSDO>
F 8

$$$$
=
 OpenBabel11052416203D

 43 49  0  0  1  0  0  0  0  0999 V2000
  188.0740  177.5010  146.7420 C   0  0  0  0  0  0  0  0  0  0  0  0
  185.7810  178.5910  142.3850 C   0  0  0  0  0  0  0  0  0  0  0  0
  187.5810  177.9880  140.3070 C   0  0  0  0  0  0  0  0  0  0  0  0
  186.4880  178.1930  145.0490 C   0  0  0  0  0  0  0  0  0  0  0  0
  189.0050  177.1880  145.7470 C   0  0  0  0  0  3  0  0  0  0  0  0
  188.4210  177.3010  148.1730 C   0  0  0  0  0  1  0  0  0  0  0  0
  187.4220  177.8790  144.0350 C   0  0  0  0  0  0  0  0  0  0  0  0
  186.8160  178.0020  146.3930 C   0  0  0  0  0  3  0  0  0  0  0  0
  188.6820  177.3750  144.4000 C   0  0  0  0  0  3  0  0  0  0  0  0
  187.9500  177.7820  141.6410 C   0  0  0  0  0  3  0  0  0  0  0  0
  187.0660  178.0780  142.6870 C   0  0  0  0  0  0  0  0  0  0  0  0
  184.9140  178.8830  143.3940 N   0  0  0  0  0  0  0  0  0  0  0  0
  185.3970  178.7980  141.0510 C   0  0  0  0  0  0  0  0  0  0  0  0
  186.3060  178.4970  140.0260 C   0  0  0  0  0  3  0  0  0  0  0  0
  185.2370  178.6970  144.7000 C   0  0  0  0  0  3  0  0  0  0  0  0
  188.4930  177.6810  139.2410 N   0  0  0  0  0  0  0  0  0  0  0  0
  189.1500  176.3970  139.0970 C   0  0  0  0  0  2  0  0  0  0  0  0
  188.8650  178.6270  138.2080 C   0  0  0  0  0  2  0  0  0  0  0  0
  189.9240  176.4740  137.7960 C   0  0  1  0  0  3  0  0  0  0  0  0
  189.9480  177.9450  137.3950 C   0  0  0  0  0  2  0  0  0  0  0  0
  191.3360  175.9540  138.0090 C   0  0  0  0  0  2  0  0  0  0  0  0
  191.9100  175.3720  136.7170 C   0  0  2  0  0  3  0  0  0  0  0  0
  193.7390  174.2650  135.5900 C   0  0  0  0  0  2  0  0  0  0  0  0
  191.1630  173.7620  136.3140 S   0  0  0  0  0  0  0  0  0  0  0  0
  193.4290  175.2240  136.7240 C   0  0  1  0  0  0  0  0  0  0  0  0
  194.0670  176.5710  136.4340 C   0  0  0  0  0  1  0  0  0  0  0  0
  192.7330  173.1310  135.6400 C   0  0  0  0  0  2  0  0  0  0  0  0
  193.9470  174.6590  138.0590 C   0  0  0  0  0  2  0  0  0  0  0  0
  195.3140  175.0850  138.3240 N   0  0  0  0  0  0  0  0  0  0  0  0
  197.6280  174.3820  137.9900 C   0  0  0  0  0  3  0  0  0  0  0  0
  196.9600  175.3560  140.0980 C   0  0  0  0  0  2  0  0  0  0  0  0
  197.9420  174.8770  139.1400 N   0  0  0  0  0  0  0  0  0  0  0  0
  195.5500  174.8780  139.7500 C   0  0  0  0  0  2  0  0  0  0  0  0
  196.1890  174.1680  137.5980 C   0  0  0  0  0  2  0  0  0  0  0  0
  184.1190  179.3240  140.7880 O   0  0  0  0  0  0  0  0  0  0  0  0
  180.6110  178.2650  141.5080 C   0  0  0  0  0  3  0  0  0  0  0  0
  180.4870  177.1970  140.6140 C   0  0  0  0  0  0  0  0  0  0  0  0
  182.7660  177.5560  139.8770 C   0  0  0  0  0  3  0  0  0  0  0  0
  181.8090  178.9780  141.5810 C   0  0  0  0  0  3  0  0  0  0  0  0
  182.9000  178.6270  140.7680 C   0  0  0  0  0  0  0  0  0  0  0  0
  181.5670  176.8390  139.8030 C   0  0  0  0  0  3  0  0  0  0  0  0
  179.2340  175.4110  141.5110 O   0  0  0  0  0  1  0  0  0  0  0  0
  179.2190  176.4220  140.5500 C   0  0  0  0  0  2  0  0  0  0  0  0
  1  6  1  0  0  0  0
  2 11  1  0  0  0  0
  2 12  1  0  0  0  0
  3 10  1  0  0  0  0
  4  8  2  0  0  0  0
  5  1  2  0  0  0  0
  7  9  2  0  0  0  0
  7  4  1  0  0  0  0
  8  1  1  0  0  0  0
  9  5  1  0  0  0  0
 10 11  2  0  0  0  0
 11  7  1  0  0  0  0
 12 15  2  0  0  0  0
 13  2  2  0  0  0  0
 14  3  2  0  0  0  0
 14 13  1  0  0  0  0
 15  4  1  0  0  0  0
 16  3  1  0  0  0  0
 17 16  1  0  0  0  0
 18 16  1  0  0  0  0
 19 21  1  1  0  0  0
 19 17  1  0  0  0  0
 20 19  1  0  0  0  0
 20 18  1  0  0  0  0
 22 25  1  0  0  0  0
 22 21  1  1  0  0  0
 23 27  1  0  0  0  0
 23 25  1  0  0  0  0
 24 22  1  0  0  0  0
 25 26  1  6  0  0  0
 25 28  1  0  0  0  0
 27 24  1  0  0  0  0
 28 29  1  0  0  0  0
 29 33  1  0  0  0  0
 30 32  2  0  0  0  0
 32 31  1  0  0  0  0
 33 31  1  0  0  0  0
 34 30  1  0  0  0  0
 34 29  1  0  0  0  0
 35 13  1  0  0  0  0
 36 39  1  0  0  0  0
 37 36  2  0  0  0  0
 38 40  1  0  0  0  0
 40 35  1  0  0  0  0
 40 39  2  0  0  0  0
 41 38  2  0  0  0  0
 41 37  1  0  0  0  0
 43 37  1  0  0  0  0
 43 42  1  0  0  0  0
M  END
>  <MODEL>
8

>  <REMARK>
 VINA RESULT:      -8.7      4.049     10.299
  Name = 
  8 active torsions:
  status: ('A' for Active; 'I' for Inactive)
    1  A    between atoms: O_1  and  C_34
    2  A    between atoms: O_1  and  C_35
    3  A    between atoms: N_2  and  C_13
    4  A    between atoms: C_3  and  C_4
    5  A    between atoms: C_3  and  C_12
    6  A    between atoms: N_11  and  C_14
    7  A    between atoms: C_14  and  C_22
    8  A    between atoms: C_19  and  C_37
                            x       y       z     vdW  Elec       q    Type
                         _______ _______ _______ _____ _____    ______ ____

>  <TORSDO>
F 8

$$$$
=
 OpenBabel11052416203D

 43 49  0  0  1  0  0  0  0  0999 V2000
  188.4900  177.5650  146.9980 C   0  0  0  0  0  0  0  0  0  0  0  0
  190.0950  177.6100  142.2180 C   0  0  0  0  0  0  0  0  0  0  0  0
  187.8490  178.0340  140.5750 C   0  0  0  0  0  0  0  0  0  0  0  0
  189.8360  177.4870  144.9870 C   0  0  0  0  0  0  0  0  0  0  0  0
  187.3440  177.7750  146.2260 C   0  0  0  0  0  3  0  0  0  0  0  0
  188.3850  177.4930  148.4790 C   0  0  0  0  0  1  0  0  0  0  0  0
  188.6830  177.7010  144.1980 C   0  0  0  0  0  0  0  0  0  0  0  0
  189.7350  177.4220  146.3790 C   0  0  0  0  0  3  0  0  0  0  0  0
  187.4380  177.8440  144.8340 C   0  0  0  0  0  3  0  0  0  0  0  0
  187.7030  177.9760  141.9660 C   0  0  0  0  0  3  0  0  0  0  0  0
  188.8110  177.7640  142.7960 C   0  0  0  0  0  0  0  0  0  0  0  0
  191.1780  177.4030  143.0160 N   0  0  0  0  0  0  0  0  0  0  0  0
  190.2540  177.6720  140.8240 C   0  0  0  0  0  0  0  0  0  0  0  0
  189.1250  177.8790  140.0180 C   0  0  0  0  0  3  0  0  0  0  0  0
  191.0760  177.3390  144.3690 C   0  0  0  0  0  3  0  0  0  0  0  0
  186.7080  178.2530  139.7300 N   0  0  0  0  0  0  0  0  0  0  0  0
  185.4140  178.6760  140.2290 C   0  0  0  0  0  2  0  0  0  0  0  0
  186.7260  178.0580  138.2940 C   0  0  0  0  0  2  0  0  0  0  0  0
  184.5490  178.8880  139.0020 C   0  0  1  0  0  3  0  0  0  0  0  0
  185.2940  178.2490  137.8340 C   0  0  0  0  0  2  0  0  0  0  0  0
  183.2000  178.2190  139.2060 C   0  0  0  0  0  2  0  0  0  0  0  0
  182.0810  179.0210  138.5420 C   0  0  2  0  0  3  0  0  0  0  0  0
  179.9740  179.0280  137.3580 C   0  0  0  0  0  2  0  0  0  0  0  0
  180.9780  179.7840  139.7740 S   0  0  0  0  0  0  0  0  0  0  0  0
  181.2380  178.2150  137.5570 C   0  0  1  0  0  0  0  0  0  0  0  0
  181.9800  178.1030  136.2360 C   0  0  0  0  0  1  0  0  0  0  0  0
  179.5180  179.5360  138.7130 C   0  0  0  0  0  2  0  0  0  0  0  0
  180.8950  176.8170  138.1010 C   0  0  0  0  0  2  0  0  0  0  0  0
  181.2360  175.7730  137.1460 N   0  0  0  0  0  0  0  0  0  0  0  0
  180.3220  173.7540  136.1210 C   0  0  0  0  0  3  0  0  0  0  0  0
  182.6320  173.8030  136.8300 C   0  0  0  0  0  2  0  0  0  0  0  0
  181.4950  173.2170  136.1380 N   0  0  0  0  0  0  0  0  0  0  0  0
  182.1970  174.8960  137.8070 C   0  0  0  0  0  2  0  0  0  0  0  0
  180.0200  174.9970  136.9180 C   0  0  0  0  0  2  0  0  0  0  0  0
  191.5400  177.4980  140.2810 O   0  0  0  0  0  0  0  0  0  0  0  0
  193.4860  175.9520  137.4930 C   0  0  0  0  0  3  0  0  0  0  0  0
  192.5110  175.1090  136.9510 C   0  0  0  0  0  0  0  0  0  0  0  0
  190.9250  175.8810  138.6100 C   0  0  0  0  0  3  0  0  0  0  0  0
  193.1790  176.7530  138.5950 C   0  0  0  0  0  3  0  0  0  0  0  0
  191.8940  176.7280  139.1620 C   0  0  0  0  0  0  0  0  0  0  0  0
  191.2290  175.0780  137.5060 C   0  0  0  0  0  3  0  0  0  0  0  0
  194.1910  174.3510  135.4790 O   0  0  0  0  0  1  0  0  0  0  0  0
  192.8290  174.2700  135.7640 C   0  0  0  0  0  2  0  0  0  0  0  0
  1  6  1  0  0  0  0
  2 11  1  0  0  0  0
  2 12  1  0  0  0  0
  3 10  1  0  0  0  0
  4  8  2  0  0  0  0
  5  1  2  0  0  0  0
  7  9  2  0  0  0  0
  7  4  1  0  0  0  0
  8  1  1  0  0  0  0
  9  5  1  0  0  0  0
 10 11  2  0  0  0  0
 11  7  1  0  0  0  0
 12 15  2  0  0  0  0
 13  2  2  0  0  0  0
 14  3  2  0  0  0  0
 14 13  1  0  0  0  0
 15  4  1  0  0  0  0
 16 17  1  0  0  0  0
 16  3  1  0  0  0  0
 18 16  1  0  0  0  0
 19 21  1  1  0  0  0
 19 17  1  0  0  0  0
 20 18  1  0  0  0  0
 20 19  1  0  0  0  0
 22 21  1  1  0  0  0
 22 24  1  0  0  0  0
 23 25  1  0  0  0  0
 23 27  1  0  0  0  0
 25 26  1  6  0  0  0
 25 28  1  0  0  0  0
 25 22  1  0  0  0  0
 27 24  1  0  0  0  0
 29 33  1  0  0  0  0
 29 28  1  0  0  0  0
 30 32  2  0  0  0  0
 30 34  1  0  0  0  0
 31 33  1  0  0  0  0
 32 31  1  0  0  0  0
 34 29  1  0  0  0  0
 35 13  1  0  0  0  0
 36 39  1  0  0  0  0
 37 36  2  0  0  0  0
 37 41  1  0  0  0  0
 38 40  1  0  0  0  0
 39 40  2  0  0  0  0
 40 35  1  0  0  0  0
 41 38  2  0  0  0  0
 42 43  1  0  0  0  0
 43 37  1  0  0  0  0
M  END
>  <MODEL>
9

>  <REMARK>
 VINA RESULT:      -8.5      2.928      4.250
  Name = 
  8 active torsions:
  status: ('A' for Active; 'I' for Inactive)
    1  A    between atoms: O_1  and  C_34
    2  A    between atoms: O_1  and  C_35
    3  A    between atoms: N_2  and  C_13
    4  A    between atoms: C_3  and  C_4
    5  A    between atoms: C_3  and  C_12
    6  A    between atoms: N_11  and  C_14
    7  A    between atoms: C_14  and  C_22
    8  A    between atoms: C_19  and  C_37
                            x       y       z     vdW  Elec       q    Type
                         _______ _______ _______ _____ _____    ______ ____

>  <TORSDO>
F 8

$$$$
