=
 OpenBabel11052413393D

 27 31  0  0  1  0  0  0  0  0999 V2000
  187.8370  176.6680  143.5340 C   0  0  0  0  0  2  0  0  0  0  0  0
  185.9510  178.2730  143.9550 C   0  0  0  0  0  0  0  0  0  0  0  0
  186.2140  177.8300  141.5170 O   0  0  0  0  0  0  0  0  0  0  0  0
  181.8670  179.0710  143.0140 C   0  0  0  0  0  2  0  0  0  0  0  0
  181.0910  177.5980  141.2960 O   0  0  0  0  0  1  0  0  0  0  0  0
  185.0870  178.6930  144.9930 C   0  0  0  0  0  3  0  0  0  0  0  0
  183.3390  178.4010  141.1330 C   0  0  1  0  0  3  0  0  0  0  0  0
  189.4600  178.3890  139.6920 C   0  0  0  0  0  2  0  0  0  0  0  0
  183.8490  179.4740  140.1870 C   0  0  0  0  0  1  0  0  0  0  0  0
  190.2550  177.1090  139.9390 C   0  0  0  0  0  2  0  0  0  0  0  0
  184.0760  178.4600  142.4230 C   0  0  0  0  0  0  0  0  0  0  0  0
  187.3970  177.9350  144.2660 C   0  0  1  0  0  3  0  0  0  0  0  0
  181.8880  178.7200  141.5200 C   0  0  2  0  0  3  0  0  0  0  0  0
  183.2560  178.8370  143.4540 C   0  0  0  0  0  0  0  0  0  0  0  0
  188.4250  176.9860  142.1630 C   0  0  2  0  0  3  0  0  0  0  0  0
  185.4350  178.1870  142.6280 C   0  0  0  0  0  0  0  0  0  0  0  0
  187.9820  178.1090  139.9270 C   0  0  0  0  0  2  0  0  0  0  0  0
  183.7400  178.9740  144.7500 C   0  0  0  0  0  3  0  0  0  0  0  0
  190.7720  176.9960  141.3080 N   0  0  0  0  0  2  0  0  0  0  0  0
  189.8580  177.4840  142.3470 C   0  0  0  0  0  2  0  0  0  0  0  0
  187.6160  178.0570  141.4100 C   0  0  1  0  0  3  0  0  0  0  0  0
  188.3750  177.6350  148.4480 C   0  0  0  0  0  3  0  0  0  0  0  0
  187.7190  177.8320  145.7310 C   0  0  0  0  0  0  0  0  0  0  0  0
  188.8990  177.1930  146.1260 C   0  0  0  0  0  3  0  0  0  0  0  0
  189.2270  177.0930  147.4810 C   0  0  0  0  0  3  0  0  0  0  0  0
  187.1950  178.2780  148.0610 C   0  0  0  0  0  3  0  0  0  0  0  0
  186.8670  178.3780  146.7060 C   0  0  0  0  0  3  0  0  0  0  0  0
  1 12  1  0  0  0  0
  2 12  1  0  0  0  0
  2  6  1  0  0  0  0
  3 16  1  0  0  0  0
  4 14  1  0  0  0  0
  7  9  1  6  0  0  0
  7 13  1  0  0  0  0
  7 11  1  0  0  0  0
  8 17  1  0  0  0  0
  8 10  1  0  0  0  0
 10 19  1  0  0  0  0
 11 16  1  0  0  0  0
 11 14  2  0  0  0  0
 12 23  1  1  0  0  0
 13  5  1  1  0  0  0
 13  4  1  0  0  0  0
 14 18  1  0  0  0  0
 15 20  1  1  0  0  0
 15  1  1  0  0  0  0
 16  2  2  0  0  0  0
 18  6  2  0  0  0  0
 19 20  1  0  0  0  0
 21 17  1  6  0  0  0
 21  3  1  0  0  0  0
 21 15  1  0  0  0  0
 23 24  2  0  0  0  0
 23 27  1  0  0  0  0
 24 25  1  0  0  0  0
 25 22  2  0  0  0  0
 26 22  1  0  0  0  0
 27 26  2  0  0  0  0
M  END
>  <MODEL>
1

>  <REMARK>
 VINA RESULT:     -11.3      0.000      0.000
  Name = 
  1 active torsions:
  status: ('A' for Active; 'I' for Inactive)
    1  A    between atoms: C_9  and  C_15
                            x       y       z     vdW  Elec       q    Type
                         _______ _______ _______ _____ _____    ______ ____

>  <TORSDO>
F 1

$$$$
=
 OpenBabel11052413393D

 27 31  0  0  1  0  0  0  0  0999 V2000
  187.1870  179.1520  141.8220 C   0  0  0  0  0  2  0  0  0  0  0  0
  187.2780  177.6280  143.8170 C   0  0  0  0  0  0  0  0  0  0  0  0
  189.4540  177.6350  142.6040 O   0  0  0  0  0  0  0  0  0  0  0  0
  189.5940  176.6370  147.2600 C   0  0  0  0  0  2  0  0  0  0  0  0
  191.6980  177.7750  147.2190 O   0  0  0  0  0  1  0  0  0  0  0  0
  186.6060  177.3900  145.0390 C   0  0  0  0  0  3  0  0  0  0  0  0
  190.8320  176.9770  145.1360 C   0  0  1  0  0  3  0  0  0  0  0  0
  189.7420  176.7930  138.9460 C   0  0  0  0  0  2  0  0  0  0  0  0
  191.3100  175.7590  144.3660 C   0  0  0  0  0  1  0  0  0  0  0  0
  189.4210  178.1030  138.2330 C   0  0  0  0  0  2  0  0  0  0  0  0
  189.3670  177.1550  144.9610 C   0  0  0  0  0  0  0  0  0  0  0  0
  186.4860  178.0300  142.5860 C   0  0  1  0  0  3  0  0  0  0  0  0
  190.9960  176.7180  146.6410 C   0  0  2  0  0  3  0  0  0  0  0  0
  188.6910  176.9590  146.1370 C   0  0  0  0  0  0  0  0  0  0  0  0
  188.1450  178.6010  140.7690 C   0  0  2  0  0  3  0  0  0  0  0  0
  188.6940  177.4740  143.7730 C   0  0  0  0  0  0  0  0  0  0  0  0
  190.1550  177.0960  140.3800 C   0  0  0  0  0  2  0  0  0  0  0  0
  187.3060  177.0580  146.2010 C   0  0  0  0  0  3  0  0  0  0  0  0
  187.9970  178.4620  138.2790 N   0  0  0  0  0  2  0  0  0  0  0  0
  187.3340  178.1580  139.5520 C   0  0  0  0  0  2  0  0  0  0  0  0
  188.9650  177.4060  141.2870 C   0  0  1  0  0  3  0  0  0  0  0  0
  182.3610  179.0350  143.3000 C   0  0  0  0  0  3  0  0  0  0  0  0
  185.0510  178.3940  142.8500 C   0  0  0  0  0  0  0  0  0  0  0  0
  184.1070  178.2220  141.8320 C   0  0  0  0  0  3  0  0  0  0  0  0
  182.7640  178.5430  142.0560 C   0  0  0  0  0  3  0  0  0  0  0  0
  183.2990  179.2070  144.3230 C   0  0  0  0  0  3  0  0  0  0  0  0
  184.6400  178.8860  144.1000 C   0  0  0  0  0  3  0  0  0  0  0  0
  1 12  1  0  0  0  0
  2  6  1  0  0  0  0
  3 16  1  0  0  0  0
  6 18  2  0  0  0  0
  7  9  1  6  0  0  0
  7 13  1  0  0  0  0
  8 17  1  0  0  0  0
 10 19  1  0  0  0  0
 10  8  1  0  0  0  0
 11  7  1  0  0  0  0
 11 14  2  0  0  0  0
 12 23  1  1  0  0  0
 12  2  1  0  0  0  0
 13  5  1  1  0  0  0
 13  4  1  0  0  0  0
 14 18  1  0  0  0  0
 14  4  1  0  0  0  0
 15 20  1  6  0  0  0
 15 21  1  0  0  0  0
 15  1  1  0  0  0  0
 16  2  2  0  0  0  0
 16 11  1  0  0  0  0
 19 20  1  0  0  0  0
 21 17  1  6  0  0  0
 21  3  1  0  0  0  0
 22 26  1  0  0  0  0
 23 27  1  0  0  0  0
 24 25  1  0  0  0  0
 24 23  2  0  0  0  0
 25 22  2  0  0  0  0
 27 26  2  0  0  0  0
M  END
>  <MODEL>
2

>  <REMARK>
 VINA RESULT:     -11.0      2.241      5.889
  Name = 
  1 active torsions:
  status: ('A' for Active; 'I' for Inactive)
    1  A    between atoms: C_9  and  C_15
                            x       y       z     vdW  Elec       q    Type
                         _______ _______ _______ _____ _____    ______ ____

>  <TORSDO>
F 1

$$$$
=
 OpenBabel11052413393D

 27 31  0  0  1  0  0  0  0  0999 V2000
  187.3990  176.6950  144.2720 C   0  0  0  0  0  2  0  0  0  0  0  0
  187.7740  177.8830  142.0910 C   0  0  0  0  0  0  0  0  0  0  0  0
  189.8900  176.8640  142.9240 O   0  0  0  0  0  0  0  0  0  0  0  0
  189.4980  177.4450  138.2130 C   0  0  0  0  0  2  0  0  0  0  0  0
  190.7710  175.4240  138.0760 O   0  0  0  0  0  1  0  0  0  0  0  0
  187.0530  178.3620  140.9720 C   0  0  0  0  0  3  0  0  0  0  0  0
  190.8450  176.6410  140.1360 C   0  0  1  0  0  3  0  0  0  0  0  0
  191.3050  177.6270  146.3290 C   0  0  0  0  0  2  0  0  0  0  0  0
  191.9920  177.5030  140.6350 C   0  0  0  0  0  1  0  0  0  0  0  0
  190.5620  176.6780  147.2650 C   0  0  0  0  0  2  0  0  0  0  0  0
  189.5440  177.2150  140.5680 C   0  0  0  0  0  0  0  0  0  0  0  0
  187.1660  177.9790  143.4780 C   0  0  1  0  0  3  0  0  0  0  0  0
  190.7910  176.7150  138.6030 C   0  0  2  0  0  3  0  0  0  0  0  0
  188.8100  177.6610  139.5020 C   0  0  0  0  0  0  0  0  0  0  0  0
  188.7000  176.7530  145.0660 C   0  0  2  0  0  3  0  0  0  0  0  0
  189.0690  177.3230  141.8830 C   0  0  0  0  0  0  0  0  0  0  0  0
  191.2130  177.0930  144.9050 C   0  0  0  0  0  2  0  0  0  0  0  0
  187.5650  178.2530  139.6760 C   0  0  0  0  0  3  0  0  0  0  0  0
  189.1650  177.0630  147.5010 N   0  0  0  0  0  2  0  0  0  0  0  0
  188.4720  177.5940  146.3210 C   0  0  0  0  0  2  0  0  0  0  0  0
  189.8570  177.3650  144.2570 C   0  0  1  0  0  3  0  0  0  0  0  0
  183.0090  179.0910  143.5970 C   0  0  0  0  0  3  0  0  0  0  0  0
  185.7100  178.3560  143.5040 C   0  0  0  0  0  0  0  0  0  0  0  0
  185.1510  178.8310  144.6950 C   0  0  0  0  0  3  0  0  0  0  0  0
  183.8030  179.1970  144.7430 C   0  0  0  0  0  3  0  0  0  0  0  0
  183.5620  178.6190  142.4030 C   0  0  0  0  0  3  0  0  0  0  0  0
  184.9090  178.2530  142.3550 C   0  0  0  0  0  3  0  0  0  0  0  0
  2 12  1  0  0  0  0
  3 21  1  0  0  0  0
  4 13  1  0  0  0  0
  4 14  1  0  0  0  0
  6  2  2  0  0  0  0
  7 11  1  0  0  0  0
  7  9  1  1  0  0  0
  8 10  1  0  0  0  0
 10 19  1  0  0  0  0
 11 16  2  0  0  0  0
 12 23  1  6  0  0  0
 12  1  1  0  0  0  0
 13  5  1  6  0  0  0
 13  7  1  0  0  0  0
 14 18  2  0  0  0  0
 14 11  1  0  0  0  0
 15  1  1  6  0  0  0
 15 20  1  0  0  0  0
 16  2  1  0  0  0  0
 16  3  1  0  0  0  0
 17  8  1  0  0  0  0
 18  6  1  0  0  0  0
 20 19  1  0  0  0  0
 21 17  1  1  0  0  0
 21 15  1  0  0  0  0
 22 25  1  0  0  0  0
 23 24  1  0  0  0  0
 24 25  2  0  0  0  0
 26 22  2  0  0  0  0
 27 26  1  0  0  0  0
 27 23  2  0  0  0  0
M  END
>  <MODEL>
3

>  <REMARK>
 VINA RESULT:     -10.7      2.535      6.114
  Name = 
  1 active torsions:
  status: ('A' for Active; 'I' for Inactive)
    1  A    between atoms: C_9  and  C_15
                            x       y       z     vdW  Elec       q    Type
                         _______ _______ _______ _____ _____    ______ ____

>  <TORSDO>
F 1

$$$$
=
 OpenBabel11052413393D

 27 31  0  0  1  0  0  0  0  0999 V2000
  189.0980  176.2240  143.1600 C   0  0  0  0  0  2  0  0  0  0  0  0
  187.7190  177.8390  144.5020 C   0  0  0  0  0  0  0  0  0  0  0  0
  186.9510  177.7690  142.1330 O   0  0  0  0  0  0  0  0  0  0  0  0
  183.7100  178.9840  145.4040 C   0  0  0  0  0  2  0  0  0  0  0  0
  182.1630  177.8400  143.9820 O   0  0  0  0  0  1  0  0  0  0  0  0
  187.3870  178.1360  145.8450 C   0  0  0  0  0  3  0  0  0  0  0  0
  184.2400  178.5410  143.0210 C   0  0  1  0  0  3  0  0  0  0  0  0
  189.2570  178.4390  139.2320 C   0  0  0  0  0  2  0  0  0  0  0  0
  184.4500  179.7210  142.0890 C   0  0  0  0  0  1  0  0  0  0  0  0
  189.9380  177.0970  138.9770 C   0  0  0  0  0  2  0  0  0  0  0  0
  185.4260  178.3600  143.8980 C   0  0  0  0  0  0  0  0  0  0  0  0
  189.1250  177.3820  144.1570 C   0  0  1  0  0  3  0  0  0  0  0  0
  183.1020  178.8700  143.9990 C   0  0  2  0  0  3  0  0  0  0  0  0
  185.1250  178.6120  145.2100 C   0  0  0  0  0  0  0  0  0  0  0  0
  189.1300  176.7220  141.7190 C   0  0  2  0  0  3  0  0  0  0  0  0
  186.7170  177.9880  143.4990 C   0  0  0  0  0  0  0  0  0  0  0  0
  187.9690  178.2020  140.0100 C   0  0  0  0  0  2  0  0  0  0  0  0
  186.0920  178.5210  146.2050 C   0  0  0  0  0  3  0  0  0  0  0  0
  190.9370  176.7450  139.9940 N   0  0  0  0  0  2  0  0  0  0  0  0
  190.5650  177.1100  141.3650 C   0  0  0  0  0  2  0  0  0  0  0  0
  188.2140  177.9380  141.4950 C   0  0  1  0  0  3  0  0  0  0  0  0
  191.6320  176.3880  147.5120 C   0  0  0  0  0  3  0  0  0  0  0  0
  189.9840  177.0360  145.3410 C   0  0  0  0  0  0  0  0  0  0  0  0
  191.1980  176.3730  145.1300 C   0  0  0  0  0  3  0  0  0  0  0  0
  192.0200  176.0480  146.2130 C   0  0  0  0  0  3  0  0  0  0  0  0
  190.4210  177.0520  147.7300 C   0  0  0  0  0  3  0  0  0  0  0  0
  189.5990  177.3770  146.6480 C   0  0  0  0  0  3  0  0  0  0  0  0
  1 12  1  0  0  0  0
  2  6  1  0  0  0  0
  3 16  1  0  0  0  0
  6 18  2  0  0  0  0
  7  9  1  6  0  0  0
  7 11  1  0  0  0  0
  7 13  1  0  0  0  0
  8 17  1  0  0  0  0
 10  8  1  0  0  0  0
 10 19  1  0  0  0  0
 11 14  2  0  0  0  0
 12  2  1  0  0  0  0
 12 23  1  1  0  0  0
 13  5  1  1  0  0  0
 13  4  1  0  0  0  0
 14  4  1  0  0  0  0
 14 18  1  0  0  0  0
 15 20  1  1  0  0  0
 15  1  1  0  0  0  0
 16 11  1  0  0  0  0
 16  2  2  0  0  0  0
 19 20  1  0  0  0  0
 21 17  1  6  0  0  0
 21 15  1  0  0  0  0
 21  3  1  0  0  0  0
 22 26  1  0  0  0  0
 23 27  1  0  0  0  0
 24 23  2  0  0  0  0
 24 25  1  0  0  0  0
 25 22  2  0  0  0  0
 27 26  2  0  0  0  0
M  END
>  <MODEL>
4

>  <REMARK>
 VINA RESULT:     -10.5      1.401      2.223
  Name = 
  1 active torsions:
  status: ('A' for Active; 'I' for Inactive)
    1  A    between atoms: C_9  and  C_15
                            x       y       z     vdW  Elec       q    Type
                         _______ _______ _______ _____ _____    ______ ____

>  <TORSDO>
F 1

$$$$
=
 OpenBabel11052413393D

 27 31  0  0  1  0  0  0  0  0999 V2000
  184.9290  179.5320  143.4580 C   0  0  0  0  0  2  0  0  0  0  0  0
  186.7330  178.1070  142.4450 C   0  0  0  0  0  0  0  0  0  0  0  0
  185.0630  178.7840  140.7240 O   0  0  0  0  0  0  0  0  0  0  0  0
  189.4780  177.8710  139.1870 C   0  0  0  0  0  2  0  0  0  0  0  0
  189.0470  179.6000  137.5910 O   0  0  0  0  0  1  0  0  0  0  0  0
  188.0540  177.6720  142.7040 C   0  0  0  0  0  3  0  0  0  0  0  0
  187.1610  178.5770  138.6510 C   0  0  1  0  0  3  0  0  0  0  0  0
  181.3820  178.0760  141.0790 C   0  0  0  0  0  2  0  0  0  0  0  0
  186.2140  177.5660  138.0300 C   0  0  0  0  0  1  0  0  0  0  0  0
  180.8600  179.2260  141.9370 C   0  0  0  0  0  2  0  0  0  0  0  0
  187.3360  178.2960  140.1000 C   0  0  0  0  0  0  0  0  0  0  0  0
  185.7470  178.2480  143.5900 C   0  0  1  0  0  3  0  0  0  0  0  0
  188.5660  178.3790  138.0630 C   0  0  2  0  0  3  0  0  0  0  0  0
  188.6160  177.9010  140.3860 C   0  0  0  0  0  0  0  0  0  0  0  0
  183.6500  179.3040  142.6600 C   0  0  2  0  0  3  0  0  0  0  0  0
  186.3580  178.3950  141.1000 C   0  0  0  0  0  0  0  0  0  0  0  0
  182.7040  178.4890  140.4460 C   0  0  0  0  0  2  0  0  0  0  0  0
  189.0000  177.5690  141.6800 C   0  0  0  0  0  3  0  0  0  0  0  0
  181.2540  179.1300  143.3480 N   0  0  0  0  0  2  0  0  0  0  0  0
  182.6180  178.6340  143.5670 C   0  0  0  0  0  2  0  0  0  0  0  0
  183.8770  178.4180  141.4220 C   0  0  1  0  0  3  0  0  0  0  0  0
  187.4380  177.9840  147.5400 C   0  0  0  0  0  3  0  0  0  0  0  0
  186.3560  178.1520  144.9620 C   0  0  0  0  0  0  0  0  0  0  0  0
  185.7010  178.7570  146.0400 C   0  0  0  0  0  3  0  0  0  0  0  0
  186.2410  178.6740  147.3270 C   0  0  0  0  0  3  0  0  0  0  0  0
  188.0960  177.3760  146.4670 C   0  0  0  0  0  3  0  0  0  0  0  0
  187.5570  177.4580  145.1810 C   0  0  0  0  0  3  0  0  0  0  0  0
  1 12  1  0  0  0  0
  2  6  1  0  0  0  0
  2 12  1  0  0  0  0
  3 16  1  0  0  0  0
  3 21  1  0  0  0  0
  4 14  1  0  0  0  0
  7  9  1  6  0  0  0
  7 11  1  0  0  0  0
  8 10  1  0  0  0  0
 10 19  1  0  0  0  0
 11 14  2  0  0  0  0
 11 16  1  0  0  0  0
 12 23  1  1  0  0  0
 13  5  1  1  0  0  0
 13  7  1  0  0  0  0
 13  4  1  0  0  0  0
 14 18  1  0  0  0  0
 15  1  1  1  0  0  0
 15 20  1  0  0  0  0
 16  2  2  0  0  0  0
 17  8  1  0  0  0  0
 18  6  2  0  0  0  0
 19 20  1  0  0  0  0
 21 17  1  6  0  0  0
 21 15  1  0  0  0  0
 23 27  2  0  0  0  0
 23 24  1  0  0  0  0
 24 25  2  0  0  0  0
 25 22  1  0  0  0  0
 26 22  2  0  0  0  0
 27 26  1  0  0  0  0
M  END
>  <MODEL>
5

>  <REMARK>
 VINA RESULT:     -10.2      2.449      5.478
  Name = 
  1 active torsions:
  status: ('A' for Active; 'I' for Inactive)
    1  A    between atoms: C_9  and  C_15
                            x       y       z     vdW  Elec       q    Type
                         _______ _______ _______ _____ _____    ______ ____

>  <TORSDO>
F 1

$$$$
=
 OpenBabel11052413393D

 27 31  0  0  1  0  0  0  0  0999 V2000
  187.1380  176.9890  142.4250 C   0  0  0  0  0  2  0  0  0  0  0  0
  189.3810  177.5670  143.3980 C   0  0  0  0  0  0  0  0  0  0  0  0
  187.6390  177.4650  145.1770 O   0  0  0  0  0  0  0  0  0  0  0  0
  192.1210  176.5570  146.5080 C   0  0  0  0  0  2  0  0  0  0  0  0
  191.1230  175.0240  148.0500 O   0  0  0  0  0  1  0  0  0  0  0  0
  190.7580  177.4880  143.0860 C   0  0  0  0  0  3  0  0  0  0  0  0
  189.7280  176.7420  147.1390 C   0  0  1  0  0  3  0  0  0  0  0  0
  184.4900  179.5260  145.0540 C   0  0  0  0  0  2  0  0  0  0  0  0
  189.2570  177.9960  147.8540 C   0  0  0  0  0  1  0  0  0  0  0  0
  183.5420  178.7110  144.1770 C   0  0  0  0  0  2  0  0  0  0  0  0
  189.9470  177.0240  145.6960 C   0  0  0  0  0  0  0  0  0  0  0  0
  188.3760  177.8770  142.3030 C   0  0  1  0  0  3  0  0  0  0  0  0
  191.1230  176.3620  147.6580 C   0  0  2  0  0  3  0  0  0  0  0  0
  191.2710  176.9250  145.3580 C   0  0  0  0  0  0  0  0  0  0  0  0
  186.0680  177.6330  143.3000 C   0  0  2  0  0  3  0  0  0  0  0  0
  188.9710  177.3610  144.7480 C   0  0  0  0  0  0  0  0  0  0  0  0
  185.5780  178.6080  145.5950 C   0  0  0  0  0  2  0  0  0  0  0  0
  191.7070  177.1650  144.0610 C   0  0  0  0  0  3  0  0  0  0  0  0
  183.8950  178.7360  142.7520 N   0  0  0  0  0  2  0  0  0  0  0  0
  185.3360  178.6950  142.4800 C   0  0  0  0  0  2  0  0  0  0  0  0
  186.6570  178.2920  144.5600 C   0  0  1  0  0  3  0  0  0  0  0  0
  189.9700  177.6540  138.3110 C   0  0  0  0  0  3  0  0  0  0  0  0
  188.9280  177.8190  140.9060 C   0  0  0  0  0  0  0  0  0  0  0  0
  189.8660  176.8310  140.5850 C   0  0  0  0  0  3  0  0  0  0  0  0
  190.3870  176.7490  139.2910 C   0  0  0  0  0  3  0  0  0  0  0  0
  189.0320  178.6430  138.6230 C   0  0  0  0  0  3  0  0  0  0  0  0
  188.5100  178.7250  139.9170 C   0  0  0  0  0  3  0  0  0  0  0  0
  2 16  1  0  0  0  0
  4 13  1  0  0  0  0
  6  2  2  0  0  0  0
  6 18  1  0  0  0  0
  7 13  1  0  0  0  0
  7  9  1  1  0  0  0
  8 17  1  0  0  0  0
 10  8  1  0  0  0  0
 11  7  1  0  0  0  0
 12 23  1  6  0  0  0
 12  1  1  0  0  0  0
 12  2  1  0  0  0  0
 13  5  1  6  0  0  0
 14 11  1  0  0  0  0
 14  4  1  0  0  0  0
 15  1  1  6  0  0  0
 15 21  1  0  0  0  0
 16  3  1  0  0  0  0
 16 11  2  0  0  0  0
 18 14  2  0  0  0  0
 19 10  1  0  0  0  0
 20 19  1  0  0  0  0
 20 15  1  0  0  0  0
 21  3  1  0  0  0  0
 21 17  1  1  0  0  0
 22 26  2  0  0  0  0
 22 25  1  0  0  0  0
 24 23  1  0  0  0  0
 25 24  2  0  0  0  0
 26 27  1  0  0  0  0
 27 23  2  0  0  0  0
M  END
>  <MODEL>
6

>  <REMARK>
 VINA RESULT:      -9.8      2.659      7.387
  Name = 
  1 active torsions:
  status: ('A' for Active; 'I' for Inactive)
    1  A    between atoms: C_9  and  C_15
                            x       y       z     vdW  Elec       q    Type
                         _______ _______ _______ _____ _____    ______ ____

>  <TORSDO>
F 1

$$$$
=
 OpenBabel11052413393D

 27 31  0  0  1  0  0  0  0  0999 V2000
  187.3510  176.9610  143.5440 C   0  0  0  0  0  2  0  0  0  0  0  0
  186.7950  178.2450  141.4580 C   0  0  0  0  0  0  0  0  0  0  0  0
  189.1280  177.3730  141.3710 O   0  0  0  0  0  0  0  0  0  0  0  0
  186.9400  178.0740  137.1980 C   0  0  0  0  0  2  0  0  0  0  0  0
  188.1880  176.1670  136.4700 O   0  0  0  0  0  1  0  0  0  0  0  0
  185.6750  178.7020  140.7240 C   0  0  0  0  0  3  0  0  0  0  0  0
  188.9640  177.3190  138.4190 C   0  0  1  0  0  3  0  0  0  0  0  0
  191.6810  178.1370  144.0310 C   0  0  0  0  0  2  0  0  0  0  0  0
  190.1580  178.2530  138.5010 C   0  0  0  0  0  1  0  0  0  0  0  0
  191.4090  177.1010  145.1190 C   0  0  0  0  0  2  0  0  0  0  0  0
  187.8920  177.7720  139.3440 C   0  0  0  0  0  0  0  0  0  0  0  0
  186.7550  178.2480  142.9750 C   0  0  1  0  0  3  0  0  0  0  0  0
  188.3270  177.4380  137.0270 C   0  0  2  0  0  3  0  0  0  0  0  0
  186.7820  178.1920  138.6610 C   0  0  0  0  0  0  0  0  0  0  0  0
  188.8500  177.0980  143.7920 C   0  0  2  0  0  3  0  0  0  0  0  0
  187.9450  177.7990  140.7440 C   0  0  0  0  0  0  0  0  0  0  0  0
  191.0870  177.6440  142.7170 C   0  0  0  0  0  2  0  0  0  0  0  0
  185.6620  178.6760  139.3270 C   0  0  0  0  0  3  0  0  0  0  0  0
  190.1850  177.3650  145.8870 N   0  0  0  0  0  2  0  0  0  0  0  0
  189.0650  177.8760  145.0890 C   0  0  0  0  0  2  0  0  0  0  0  0
  189.5720  177.8270  142.6450 C   0  0  1  0  0  3  0  0  0  0  0  0
  182.8950  179.0120  144.7220 C   0  0  0  0  0  3  0  0  0  0  0  0
  185.3980  178.5050  143.5700 C   0  0  0  0  0  0  0  0  0  0  0  0
  185.2910  178.7400  144.9450 C   0  0  0  0  0  3  0  0  0  0  0  0
  184.0420  178.9910  145.5210 C   0  0  0  0  0  3  0  0  0  0  0  0
  182.9950  178.7800  143.3470 C   0  0  0  0  0  3  0  0  0  0  0  0
  184.2430  178.5290  142.7710 C   0  0  0  0  0  3  0  0  0  0  0  0
  2 12  1  0  0  0  0
  3 21  1  0  0  0  0
  4 14  1  0  0  0  0
  6  2  2  0  0  0  0
  7  9  1  6  0  0  0
  7 11  1  0  0  0  0
  8 10  1  0  0  0  0
 10 19  1  0  0  0  0
 11 16  2  0  0  0  0
 12  1  1  0  0  0  0
 12 23  1  6  0  0  0
 13  5  1  1  0  0  0
 13  4  1  0  0  0  0
 13  7  1  0  0  0  0
 14 18  2  0  0  0  0
 14 11  1  0  0  0  0
 15  1  1  6  0  0  0
 15 20  1  0  0  0  0
 16  3  1  0  0  0  0
 16  2  1  0  0  0  0
 17  8  1  0  0  0  0
 18  6  1  0  0  0  0
 20 19  1  0  0  0  0
 21 17  1  1  0  0  0
 21 15  1  0  0  0  0
 22 25  1  0  0  0  0
 23 24  1  0  0  0  0
 24 25  2  0  0  0  0
 26 22  2  0  0  0  0
 27 26  1  0  0  0  0
 27 23  2  0  0  0  0
M  END
>  <MODEL>
7

>  <REMARK>
 VINA RESULT:      -9.8      2.449      5.098
  Name = 
  1 active torsions:
  status: ('A' for Active; 'I' for Inactive)
    1  A    between atoms: C_9  and  C_15
                            x       y       z     vdW  Elec       q    Type
                         _______ _______ _______ _____ _____    ______ ____

>  <TORSDO>
F 1

$$$$
=
 OpenBabel11052413393D

 27 31  0  0  1  0  0  0  0  0999 V2000
  186.2630  179.1950  144.1040 C   0  0  0  0  0  2  0  0  0  0  0  0
  187.7020  177.7960  142.5930 C   0  0  0  0  0  0  0  0  0  0  0  0
  185.7690  178.7520  141.3460 O   0  0  0  0  0  0  0  0  0  0  0  0
  189.6850  177.7770  138.8160 C   0  0  0  0  0  2  0  0  0  0  0  0
  189.0680  179.6950  137.5270 O   0  0  0  0  0  1  0  0  0  0  0  0
  189.0100  177.2630  142.5190 C   0  0  0  0  0  3  0  0  0  0  0  0
  187.3690  178.6650  138.8610 C   0  0  1  0  0  3  0  0  0  0  0  0
  182.1980  178.2110  142.4110 C   0  0  0  0  0  2  0  0  0  0  0  0
  186.2390  177.7830  138.3610 C   0  0  0  0  0  1  0  0  0  0  0  0
  181.9560  179.2840  143.4690 C   0  0  0  0  0  2  0  0  0  0  0  0
  187.8180  178.2140  140.2040 C   0  0  0  0  0  0  0  0  0  0  0  0
  186.9890  177.8610  143.9310 C   0  0  1  0  0  3  0  0  0  0  0  0
  188.6010  178.4580  137.9690 C   0  0  2  0  0  3  0  0  0  0  0  0
  189.0950  177.7200  140.1680 C   0  0  0  0  0  0  0  0  0  0  0  0
  184.8320  179.1280  143.5810 C   0  0  2  0  0  3  0  0  0  0  0  0
  187.0800  178.2530  141.3950 C   0  0  0  0  0  0  0  0  0  0  0  0
  183.3880  178.6200  141.5520 C   0  0  0  0  0  2  0  0  0  0  0  0
  189.7120  177.2250  141.3110 C   0  0  0  0  0  3  0  0  0  0  0  0
  182.6260  179.0090  144.7470 N   0  0  0  0  0  2  0  0  0  0  0  0
  183.9630  178.4190  144.6180 C   0  0  0  0  0  2  0  0  0  0  0  0
  184.7290  178.3750  142.2430 C   0  0  1  0  0  3  0  0  0  0  0  0
  189.4350  177.0380  147.3770 C   0  0  0  0  0  3  0  0  0  0  0  0
  187.8600  177.5790  145.1240 C   0  0  0  0  0  0  0  0  0  0  0  0
  187.2900  177.5970  146.4020 C   0  0  0  0  0  3  0  0  0  0  0  0
  188.0760  177.3290  147.5270 C   0  0  0  0  0  3  0  0  0  0  0  0
  190.0100  177.0160  146.1030 C   0  0  0  0  0  3  0  0  0  0  0  0
  189.2250  177.2850  144.9780 C   0  0  0  0  0  3  0  0  0  0  0  0
  2 12  1  0  0  0  0
  3 16  1  0  0  0  0
  3 21  1  0  0  0  0
  4 14  1  0  0  0  0
  6  2  1  0  0  0  0
  7  9  1  6  0  0  0
  7 11  1  0  0  0  0
  8 10  1  0  0  0  0
 10 19  1  0  0  0  0
 11 16  1  0  0  0  0
 12  1  1  0  0  0  0
 12 23  1  1  0  0  0
 13  5  1  1  0  0  0
 13  4  1  0  0  0  0
 13  7  1  0  0  0  0
 14 11  2  0  0  0  0
 14 18  1  0  0  0  0
 15  1  1  1  0  0  0
 15 20  1  0  0  0  0
 16  2  2  0  0  0  0
 17  8  1  0  0  0  0
 18  6  2  0  0  0  0
 20 19  1  0  0  0  0
 21 17  1  6  0  0  0
 21 15  1  0  0  0  0
 22 25  1  0  0  0  0
 23 24  1  0  0  0  0
 24 25  2  0  0  0  0
 26 22  2  0  0  0  0
 27 23  2  0  0  0  0
 27 26  1  0  0  0  0
M  END
>  <MODEL>
8

>  <REMARK>
 VINA RESULT:      -9.3      2.263      5.324
  Name = 
  1 active torsions:
  status: ('A' for Active; 'I' for Inactive)
    1  A    between atoms: C_9  and  C_15
                            x       y       z     vdW  Elec       q    Type
                         _______ _______ _______ _____ _____    ______ ____

>  <TORSDO>
F 1

$$$$
=
 OpenBabel11052413393D

 27 31  0  0  1  0  0  0  0  0999 V2000
  186.4370  179.1510  140.4690 C   0  0  0  0  0  2  0  0  0  0  0  0
  185.0250  178.2790  142.3560 C   0  0  0  0  0  0  0  0  0  0  0  0
  187.4400  178.2640  142.9710 O   0  0  0  0  0  0  0  0  0  0  0  0
  184.3170  178.6460  146.5470 C   0  0  0  0  0  2  0  0  0  0  0  0
  185.9860  180.0210  147.5700 O   0  0  0  0  0  1  0  0  0  0  0  0
  183.6880  178.2990  142.8160 C   0  0  0  0  0  3  0  0  0  0  0  0
  186.6860  178.5520  145.8150 C   0  0  1  0  0  3  0  0  0  0  0  0
  190.0450  176.4780  140.9210 C   0  0  0  0  0  2  0  0  0  0  0  0
  187.4490  177.2500  145.9780 C   0  0  0  0  0  1  0  0  0  0  0  0
  190.4040  177.4740  139.8210 C   0  0  0  0  0  2  0  0  0  0  0  0
  185.7450  178.4570  144.6690 C   0  0  0  0  0  0  0  0  0  0  0  0
  185.3100  178.1990  140.8670 C   0  0  1  0  0  3  0  0  0  0  0  0
  185.7690  178.7540  147.0310 C   0  0  2  0  0  3  0  0  0  0  0  0
  184.4400  178.5040  145.0830 C   0  0  0  0  0  0  0  0  0  0  0  0
  187.8010  178.4730  140.5540 C   0  0  2  0  0  3  0  0  0  0  0  0
  186.0800  178.3280  143.3140 C   0  0  0  0  0  0  0  0  0  0  0  0
  189.4070  177.2290  142.0820 C   0  0  0  0  0  2  0  0  0  0  0  0
  183.3890  178.4130  144.1770 C   0  0  0  0  0  3  0  0  0  0  0  0
  189.3600  177.6200  138.7980 N   0  0  0  0  0  2  0  0  0  0  0  0
  187.9890  177.5920  139.3200 C   0  0  0  0  0  2  0  0  0  0  0  0
  187.9500  177.6050  141.8160 C   0  0  1  0  0  3  0  0  0  0  0  0
  181.9010  178.8480  138.3200 C   0  0  0  0  0  3  0  0  0  0  0  0
  184.1110  178.4080  139.9840 C   0  0  0  0  0  0  0  0  0  0  0  0
  183.8010  179.7030  139.5530 C   0  0  0  0  0  3  0  0  0  0  0  0
  182.6980  179.9230  138.7230 C   0  0  0  0  0  3  0  0  0  0  0  0
  182.2060  177.5510  138.7450 C   0  0  0  0  0  3  0  0  0  0  0  0
  183.3080  177.3310  139.5740 C   0  0  0  0  0  3  0  0  0  0  0  0
  1 15  1  0  0  0  0
  1 12  1  0  0  0  0
  2  6  2  0  0  0  0
  2 16  1  0  0  0  0
  3 16  1  0  0  0  0
  4 13  1  0  0  0  0
  6 18  1  0  0  0  0
  7  9  1  1  0  0  0
  7 13  1  0  0  0  0
  8 17  1  0  0  0  0
 10  8  1  0  0  0  0
 11 14  1  0  0  0  0
 11  7  1  0  0  0  0
 12 23  1  6  0  0  0
 12  2  1  0  0  0  0
 13  5  1  6  0  0  0
 14  4  1  0  0  0  0
 15 20  1  6  0  0  0
 15 21  1  0  0  0  0
 16 11  2  0  0  0  0
 18 14  2  0  0  0  0
 19 20  1  0  0  0  0
 19 10  1  0  0  0  0
 21 17  1  1  0  0  0
 21  3  1  0  0  0  0
 22 25  2  0  0  0  0
 22 26  1  0  0  0  0
 24 23  2  0  0  0  0
 25 24  1  0  0  0  0
 26 27  2  0  0  0  0
 27 23  1  0  0  0  0
M  END
>  <MODEL>
9

>  <REMARK>
 VINA RESULT:      -9.0      1.929      5.745
  Name = 
  1 active torsions:
  status: ('A' for Active; 'I' for Inactive)
    1  A    between atoms: C_9  and  C_15
                            x       y       z     vdW  Elec       q    Type
                         _______ _______ _______ _____ _____    ______ ____

>  <TORSDO>
F 1

$$$$
