=
 OpenBabel11052412573D

 31 33  0  0  1  0  0  0  0  0999 V2000
  189.3540  177.0340  140.4640 N   0  0  0  0  0  0  0  0  0  0  0  0
  186.9530  177.4670  143.3430 C   0  0  2  0  0  3  0  0  0  0  0  0
  187.6970  177.8490  142.0720 C   0  0  0  0  0  0  0  0  0  0  0  0
  189.1700  178.2630  139.7010 C   0  0  0  0  0  2  0  0  0  0  0  0
  184.9060  178.1090  142.1550 N   0  0  0  0  0  0  0  0  0  0  0  0
  190.7580  176.6800  140.3560 C   0  0  0  0  0  1  0  0  0  0  0  0
  185.6420  178.9780  141.2340 C   0  0  0  0  0  2  0  0  0  0  0  0
  185.5610  178.1200  143.4740 C   0  0  2  0  0  3  0  0  0  0  0  0
  189.1110  177.3570  141.8670 C   0  0  0  0  0  2  0  0  0  0  0  0
  187.0580  178.4960  141.0630 C   0  0  0  0  0  0  0  0  0  0  0  0
  187.6940  178.6580  139.7030 C   0  0  0  0  0  2  0  0  0  0  0  0
  187.7790  177.4760  144.6030 C   0  0  0  0  0  0  0  0  0  0  0  0
  190.0390  177.8550  145.5680 N   0  0  0  0  0  0  0  0  0  0  0  0
  189.0800  177.7730  144.5110 C   0  0  0  0  0  3  0  0  0  0  0  0
  189.9080  177.6610  146.9750 C   0  0  0  0  0  3  0  0  0  0  0  0
  188.7960  177.3490  147.6290 C   0  0  0  0  0  3  0  0  0  0  0  0
  187.0350  177.1830  145.8350 C   0  0  0  0  0  2  0  0  0  0  0  0
  187.4530  177.1280  147.0940 C   0  0  0  0  0  3  0  0  0  0  0  0
  184.8070  179.5560  145.3780 C   0  0  0  0  0  1  0  0  0  0  0  0
  185.6150  179.5270  144.0960 C   0  0  0  0  0  2  0  0  0  0  0  0
  183.5430  178.6110  142.2760 C   0  0  0  0  0  2  0  0  0  0  0  0
  182.8200  177.0680  140.5960 O   0  0  0  0  0  1  0  0  0  0  0  0
  182.7920  178.4140  140.9690 C   0  0  1  0  0  3  0  0  0  0  0  0
  180.6260  178.8050  140.1540 O   0  0  0  0  0  0  0  0  0  0  0  0
  181.3800  178.9220  141.1060 C   0  0  0  0  0  0  0  0  0  0  0  0
  180.0240  180.6650  142.0310 O   0  0  0  0  0  1  0  0  0  0  0  0
  180.8570  179.5910  142.3540 C   0  0  1  0  0  3  0  0  0  0  0  0
  180.1670  178.6380  143.3380 C   0  0  0  0  0  0  0  0  0  0  0  0
  181.0380  178.2510  144.3400 F   0  0  0  0  0  0  0  0  0  0  0  0
  178.9490  179.2990  143.9600 C   0  0  0  0  0  1  0  0  0  0  0  0
  179.7470  177.5100  142.6560 F   0  0  0  0  0  0  0  0  0  0  0  0
  1  9  1  0  0  0  0
  2  8  1  0  0  0  0
  2 12  1  1  0  0  0
  3  2  1  0  0  0  0
  4 11  1  0  0  0  0
  4  1  1  0  0  0  0
  5 21  1  0  0  0  0
  5  8  1  0  0  0  0
  6  1  1  0  0  0  0
  7  5  1  0  0  0  0
  8 20  1  6  0  0  0
  9  3  1  0  0  0  0
 10  7  1  0  0  0  0
 10  3  2  0  0  0  0
 11 10  1  0  0  0  0
 12 17  1  0  0  0  0
 13 15  2  0  0  0  0
 14 12  2  0  0  0  0
 14 13  1  0  0  0  0
 15 16  1  0  0  0  0
 17 18  1  0  0  0  0
 18 16  2  0  0  0  0
 20 19  1  0  0  0  0
 23 22  1  1  0  0  0
 23 25  1  0  0  0  0
 23 21  1  0  0  0  0
 24 25  2  0  0  0  0
 25 27  1  0  0  0  0
 27 26  1  6  0  0  0
 27 28  1  0  0  0  0
 28 30  1  0  0  0  0
 28 29  1  0  0  0  0
 31 28  1  0  0  0  0
M  END
>  <MODEL>
1

>  <REMARK>
 VINA RESULT:      -7.6      0.000      0.000
  Name = 
  7 active torsions:
  status: ('A' for Active; 'I' for Inactive)
    1  A    between atoms: C_1  and  C_19
    2  A    between atoms: C_4  and  C_5
    3  A    between atoms: C_9  and  C_22
    4  A    between atoms: C_9  and  C_23
    5  A    between atoms: N_15  and  C_23
    6  A    between atoms: C_19  and  C_22
    7  A    between atoms: C_21  and  C_29
                            x       y       z     vdW  Elec       q    Type
                         _______ _______ _______ _____ _____    ______ ____

>  <TORSDO>
F 7

$$$$
=
 OpenBabel11052412573D

 31 33  0  0  1  0  0  0  0  0999 V2000
  189.4610  177.0300  140.7110 N   0  0  0  0  0  0  0  0  0  0  0  0
  186.7260  177.4990  143.2680 C   0  0  2  0  0  3  0  0  0  0  0  0
  187.5990  177.8500  142.0720 C   0  0  0  0  0  0  0  0  0  0  0  0
  189.3240  178.2120  139.8680 C   0  0  0  0  0  2  0  0  0  0  0  0
  184.8100  177.9970  141.8210 N   0  0  0  0  0  0  0  0  0  0  0  0
  190.8790  176.7300  140.7830 C   0  0  0  0  0  1  0  0  0  0  0  0
  185.6170  178.8520  140.9470 C   0  0  0  0  0  2  0  0  0  0  0  0
  185.3060  178.0990  143.2040 C   0  0  2  0  0  3  0  0  0  0  0  0
  189.0440  177.4090  142.0580 C   0  0  0  0  0  2  0  0  0  0  0  0
  187.0600  178.4210  140.9650 C   0  0  0  0  0  0  0  0  0  0  0  0
  187.8440  178.5460  139.6800 C   0  0  0  0  0  2  0  0  0  0  0  0
  187.3990  177.6020  144.6130 C   0  0  0  0  0  0  0  0  0  0  0  0
  189.5530  177.9530  145.8030 N   0  0  0  0  0  0  0  0  0  0  0  0
  188.7200  177.8080  144.6510 C   0  0  0  0  0  3  0  0  0  0  0  0
  189.2450  177.9290  147.1960 C   0  0  0  0  0  3  0  0  0  0  0  0
  188.0450  177.7600  147.7370 C   0  0  0  0  0  3  0  0  0  0  0  0
  186.4980  177.4950  145.7670 C   0  0  0  0  0  2  0  0  0  0  0  0
  186.7610  177.5600  147.0670 C   0  0  0  0  0  3  0  0  0  0  0  0
  184.0580  179.6700  144.6970 C   0  0  0  0  0  1  0  0  0  0  0  0
  185.2360  179.5350  143.7540 C   0  0  0  0  0  2  0  0  0  0  0  0
  183.4250  178.4480  141.7580 C   0  0  0  0  0  2  0  0  0  0  0  0
  182.7290  176.9200  140.0530 O   0  0  0  0  0  1  0  0  0  0  0  0
  182.8800  178.2770  140.3500 C   0  0  1  0  0  3  0  0  0  0  0  0
  180.9400  179.2730  141.2160 O   0  0  0  0  0  0  0  0  0  0  0  0
  181.5800  179.0250  140.2080 C   0  0  0  0  0  0  0  0  0  0  0  0
  179.6410  179.2270  138.8170 O   0  0  0  0  0  1  0  0  0  0  0  0
  181.0170  179.4640  138.8780 C   0  0  1  0  0  3  0  0  0  0  0  0
  181.3410  180.9170  138.5040 C   0  0  0  0  0  0  0  0  0  0  0  0
  182.6990  181.1570  138.5990 F   0  0  0  0  0  0  0  0  0  0  0  0
  180.8740  181.2230  137.0920 C   0  0  0  0  0  1  0  0  0  0  0  0
  180.6780  181.7640  139.3730 F   0  0  0  0  0  0  0  0  0  0  0  0
  1  6  1  0  0  0  0
  1  9  1  0  0  0  0
  2 12  1  1  0  0  0
  3  2  1  0  0  0  0
  4  1  1  0  0  0  0
  5  8  1  0  0  0  0
  7 10  1  0  0  0  0
  7  5  1  0  0  0  0
  8  2  1  0  0  0  0
  8 20  1  6  0  0  0
  9  3  1  0  0  0  0
 10  3  2  0  0  0  0
 11  4  1  0  0  0  0
 11 10  1  0  0  0  0
 12 14  2  0  0  0  0
 12 17  1  0  0  0  0
 13 15  2  0  0  0  0
 14 13  1  0  0  0  0
 15 16  1  0  0  0  0
 17 18  1  0  0  0  0
 18 16  2  0  0  0  0
 20 19  1  0  0  0  0
 21  5  1  0  0  0  0
 23 22  1  1  0  0  0
 23 21  1  0  0  0  0
 25 23  1  0  0  0  0
 25 24  2  0  0  0  0
 27 26  1  1  0  0  0
 27 25  1  0  0  0  0
 28 29  1  0  0  0  0
 28 27  1  0  0  0  0
 28 31  1  0  0  0  0
 30 28  1  0  0  0  0
M  END
>  <MODEL>
2

>  <REMARK>
 VINA RESULT:      -7.4      1.946      2.486
  Name = 
  7 active torsions:
  status: ('A' for Active; 'I' for Inactive)
    1  A    between atoms: C_1  and  C_19
    2  A    between atoms: C_4  and  C_5
    3  A    between atoms: C_9  and  C_22
    4  A    between atoms: C_9  and  C_23
    5  A    between atoms: N_15  and  C_23
    6  A    between atoms: C_19  and  C_22
    7  A    between atoms: C_21  and  C_29
                            x       y       z     vdW  Elec       q    Type
                         _______ _______ _______ _____ _____    ______ ____

>  <TORSDO>
F 7

$$$$
=
 OpenBabel11052412573D

 31 33  0  0  1  0  0  0  0  0999 V2000
  190.7180  176.7060  145.8690 N   0  0  0  0  0  0  0  0  0  0  0  0
  187.7990  177.1320  143.5160 C   0  0  2  0  0  3  0  0  0  0  0  0
  189.1810  177.4000  144.0950 C   0  0  0  0  0  0  0  0  0  0  0  0
  191.7020  177.6420  145.3380 C   0  0  0  0  0  2  0  0  0  0  0  0
  188.9160  176.9370  141.3420 N   0  0  0  0  0  0  0  0  0  0  0  0
  190.8690  176.7140  147.3130 C   0  0  0  0  0  1  0  0  0  0  0  0
  190.0570  177.7400  141.7890 C   0  0  0  0  0  2  0  0  0  0  0  0
  187.6890  177.4130  142.0030 C   0  0  2  0  0  3  0  0  0  0  0  0
  189.3980  177.2600  145.5830 C   0  0  0  0  0  2  0  0  0  0  0  0
  190.2440  177.6160  143.2780 C   0  0  0  0  0  0  0  0  0  0  0  0
  191.6570  177.6310  143.8100 C   0  0  0  0  0  2  0  0  0  0  0  0
  186.6430  177.6380  144.3410 C   0  0  0  0  0  0  0  0  0  0  0  0
  185.8640  178.2340  146.6250 N   0  0  0  0  0  0  0  0  0  0  0  0
  186.8100  177.7640  145.6620 C   0  0  0  0  0  2  0  0  0  0  0  0
  184.5210  178.6950  146.4780 C   0  0  0  0  0  3  0  0  0  0  0  0
  183.8380  178.7890  145.3450 C   0  0  0  0  0  3  0  0  0  0  0  0
  185.4370  177.9770  143.5760 C   0  0  0  0  0  3  0  0  0  0  0  0
  184.2690  178.4550  143.9880 C   0  0  0  0  0  3  0  0  0  0  0  0
  186.1380  178.9830  140.8240 C   0  0  0  0  0  1  0  0  0  0  0  0
  187.3810  178.8880  141.6870 C   0  0  0  0  0  2  0  0  0  0  0  0
  188.7870  177.0820  139.8970 C   0  0  0  0  0  2  0  0  0  0  0  0
  190.6120  175.6340  139.3500 O   0  0  0  0  0  1  0  0  0  0  0  0
  190.1470  176.9460  139.2310 C   0  0  1  0  0  3  0  0  0  0  0  0
  191.0010  177.1330  137.0540 O   0  0  0  0  0  0  0  0  0  0  0  0
  190.0590  177.3760  137.7900 C   0  0  0  0  0  0  0  0  0  0  0  0
  189.1050  179.4900  137.1980 O   0  0  0  0  0  1  0  0  0  0  0  0
  188.8740  178.1130  137.2150 C   0  0  1  0  0  3  0  0  0  0  0  0
  188.4290  177.6130  135.8340 C   0  0  0  0  0  0  0  0  0  0  0  0
  188.4210  176.2310  135.7910 F   0  0  0  0  0  0  0  0  0  0  0  0
  187.0430  178.1340  135.4970 C   0  0  0  0  0  1  0  0  0  0  0  0
  189.3130  178.0820  134.8790 F   0  0  0  0  0  0  0  0  0  0  0  0
  1  6  1  0  0  0  0
  2  3  1  0  0  0  0
  2 12  1  1  0  0  0
  3  9  1  0  0  0  0
  4  1  1  0  0  0  0
  5  7  1  0  0  0  0
  5  8  1  0  0  0  0
  7 10  1  0  0  0  0
  8 20  1  1  0  0  0
  8  2  1  0  0  0  0
  9  1  1  0  0  0  0
 10 11  1  0  0  0  0
 10  3  2  0  0  0  0
 11  4  1  0  0  0  0
 12 14  1  0  0  0  0
 14 13  1  0  0  0  0
 15 13  2  0  0  0  0
 16 15  1  0  0  0  0
 17 18  1  0  0  0  0
 17 12  2  0  0  0  0
 18 16  2  0  0  0  0
 19 20  1  0  0  0  0
 21  5  1  0  0  0  0
 23 22  1  6  0  0  0
 23 21  1  0  0  0  0
 24 25  2  0  0  0  0
 25 23  1  0  0  0  0
 27 26  1  6  0  0  0
 27 25  1  0  0  0  0
 28 27  1  0  0  0  0
 29 28  1  0  0  0  0
 30 28  1  0  0  0  0
 31 28  1  0  0  0  0
M  END
>  <MODEL>
3

>  <REMARK>
 VINA RESULT:      -7.3      4.538      6.961
  Name = 
  7 active torsions:
  status: ('A' for Active; 'I' for Inactive)
    1  A    between atoms: C_1  and  C_19
    2  A    between atoms: C_4  and  C_5
    3  A    between atoms: C_9  and  C_22
    4  A    between atoms: C_9  and  C_23
    5  A    between atoms: N_15  and  C_23
    6  A    between atoms: C_19  and  C_22
    7  A    between atoms: C_21  and  C_29
                            x       y       z     vdW  Elec       q    Type
                         _______ _______ _______ _____ _____    ______ ____

>  <TORSDO>
F 7

$$$$
=
 OpenBabel11052412573D

 31 33  0  0  1  0  0  0  0  0999 V2000
  186.8160  176.4070  136.7160 N   0  0  0  0  0  0  0  0  0  0  0  0
  190.1580  175.8850  138.3890 C   0  0  2  0  0  3  0  0  0  0  0  0
  188.9250  176.6530  137.9340 C   0  0  0  0  0  0  0  0  0  0  0  0
  186.5190  177.8040  137.0140 C   0  0  0  0  0  2  0  0  0  0  0  0
  189.7140  176.7980  140.6210 N   0  0  0  0  0  0  0  0  0  0  0  0
  186.2910  176.1410  135.3890 C   0  0  0  0  0  1  0  0  0  0  0  0
  188.9550  177.9250  140.0740 C   0  0  0  0  0  2  0  0  0  0  0  0
  190.7910  176.4290  139.6870 C   0  0  2  0  0  3  0  0  0  0  0  0
  188.2680  176.2850  136.6240 C   0  0  0  0  0  2  0  0  0  0  0  0
  188.3300  177.5560  138.7550 C   0  0  0  0  0  0  0  0  0  0  0  0
  186.9750  178.1390  138.4340 C   0  0  0  0  0  2  0  0  0  0  0  0
  191.1410  175.5360  137.3010 C   0  0  0  0  0  0  0  0  0  0  0  0
  191.9870  176.1260  135.0390 N   0  0  0  0  0  0  0  0  0  0  0  0
  191.1390  176.2680  136.1810 C   0  0  0  0  0  3  0  0  0  0  0  0
  193.0440  175.2090  134.7590 C   0  0  0  0  0  3  0  0  0  0  0  0
  193.4840  174.2450  135.5560 C   0  0  0  0  0  3  0  0  0  0  0  0
  192.0400  174.4180  137.6130 C   0  0  0  0  0  2  0  0  0  0  0  0
  193.0160  173.8780  136.8920 C   0  0  0  0  0  3  0  0  0  0  0  0
  193.1760  177.1660  139.8410 C   0  0  0  0  0  1  0  0  0  0  0  0
  191.7770  177.5840  139.4340 C   0  0  0  0  0  2  0  0  0  0  0  0
  190.2860  177.2030  141.8990 C   0  0  0  0  0  2  0  0  0  0  0  0
  188.5100  176.1250  143.0850 O   0  0  0  0  0  1  0  0  0  0  0  0
  189.1930  177.3350  142.9470 C   0  0  1  0  0  3  0  0  0  0  0  0
  190.2470  178.9190  144.3200 O   0  0  0  0  0  0  0  0  0  0  0  0
  189.7860  177.7910  144.2540 C   0  0  0  0  0  0  0  0  0  0  0  0
  191.1750  176.8140  145.9420 O   0  0  0  0  0  1  0  0  0  0  0  0
  189.8600  176.9160  145.4820 C   0  0  1  0  0  3  0  0  0  0  0  0
  188.9130  177.3350  146.6140 C   0  0  0  0  0  0  0  0  0  0  0  0
  189.3930  178.4550  147.2670 F   0  0  0  0  0  0  0  0  0  0  0  0
  187.5250  177.6280  146.0690 C   0  0  0  0  0  1  0  0  0  0  0  0
  188.8110  176.2990  147.5240 F   0  0  0  0  0  0  0  0  0  0  0  0
  1  4  1  0  0  0  0
  2 12  1  6  0  0  0
  2  8  1  0  0  0  0
  3  2  1  0  0  0  0
  3 10  2  0  0  0  0
  4 11  1  0  0  0  0
  5 21  1  0  0  0  0
  6  1  1  0  0  0  0
  7  5  1  0  0  0  0
  8 20  1  6  0  0  0
  8  5  1  0  0  0  0
  9  1  1  0  0  0  0
  9  3  1  0  0  0  0
 10  7  1  0  0  0  0
 11 10  1  0  0  0  0
 12 17  1  0  0  0  0
 13 14  1  0  0  0  0
 14 12  2  0  0  0  0
 15 13  2  0  0  0  0
 15 16  1  0  0  0  0
 16 18  2  0  0  0  0
 18 17  1  0  0  0  0
 20 19  1  0  0  0  0
 21 23  1  0  0  0  0
 23 22  1  1  0  0  0
 23 25  1  0  0  0  0
 25 24  2  0  0  0  0
 25 27  1  0  0  0  0
 27 26  1  1  0  0  0
 27 28  1  0  0  0  0
 28 29  1  0  0  0  0
 28 31  1  0  0  0  0
 30 28  1  0  0  0  0
M  END
>  <MODEL>
4

>  <REMARK>
 VINA RESULT:      -7.1      5.088      8.454
  Name = 
  7 active torsions:
  status: ('A' for Active; 'I' for Inactive)
    1  A    between atoms: C_1  and  C_19
    2  A    between atoms: C_4  and  C_5
    3  A    between atoms: C_9  and  C_22
    4  A    between atoms: C_9  and  C_23
    5  A    between atoms: N_15  and  C_23
    6  A    between atoms: C_19  and  C_22
    7  A    between atoms: C_21  and  C_29
                            x       y       z     vdW  Elec       q    Type
                         _______ _______ _______ _____ _____    ______ ____

>  <TORSDO>
F 7

$$$$
=
 OpenBabel11052412573D

 31 33  0  0  1  0  0  0  0  0999 V2000
  189.3520  177.0700  140.8790 N   0  0  0  0  0  0  0  0  0  0  0  0
  186.4520  177.6150  143.2310 C   0  0  2  0  0  3  0  0  0  0  0  0
  187.4170  177.9400  142.1000 C   0  0  0  0  0  0  0  0  0  0  0  0
  189.3040  178.2510  140.0250 C   0  0  0  0  0  2  0  0  0  0  0  0
  184.6570  178.1500  141.6480 N   0  0  0  0  0  0  0  0  0  0  0  0
  190.7540  176.7380  141.0550 C   0  0  0  0  0  1  0  0  0  0  0  0
  185.5450  178.9820  140.8310 C   0  0  0  0  0  2  0  0  0  0  0  0
  185.0540  178.2470  143.0630 C   0  0  2  0  0  3  0  0  0  0  0  0
  188.8480  177.4650  142.1920 C   0  0  0  0  0  2  0  0  0  0  0  0
  186.9720  178.5180  140.9550 C   0  0  0  0  0  0  0  0  0  0  0  0
  187.8500  178.6180  139.7300 C   0  0  0  0  0  2  0  0  0  0  0  0
  187.0280  177.7090  144.6200 C   0  0  0  0  0  0  0  0  0  0  0  0
  189.0950  177.5680  145.9940 N   0  0  0  0  0  0  0  0  0  0  0  0
  188.3410  177.5110  144.7810 C   0  0  0  0  0  3  0  0  0  0  0  0
  188.6990  177.8440  147.3370 C   0  0  0  0  0  3  0  0  0  0  0  0
  187.4720  178.1270  147.7560 C   0  0  0  0  0  3  0  0  0  0  0  0
  186.0610  178.0520  145.6710 C   0  0  0  0  0  2  0  0  0  0  0  0
  186.2400  178.2260  146.9750 C   0  0  0  0  0  3  0  0  0  0  0  0
  183.6810  179.8880  144.3580 C   0  0  0  0  0  1  0  0  0  0  0  0
  184.9790  179.6870  143.6010 C   0  0  0  0  0  2  0  0  0  0  0  0
  183.2920  178.6320  141.4830 C   0  0  0  0  0  2  0  0  0  0  0  0
  181.2740  177.4850  140.9030 O   0  0  0  0  0  1  0  0  0  0  0  0
  182.5580  177.7930  140.4490 C   0  0  1  0  0  3  0  0  0  0  0  0
  182.4820  179.7380  139.1390 O   0  0  0  0  0  0  0  0  0  0  0  0
  182.5220  178.5190  139.1300 C   0  0  0  0  0  0  0  0  0  0  0  0
  181.9340  178.6210  136.8110 O   0  0  0  0  0  1  0  0  0  0  0  0
  182.5100  177.8140  137.7950 C   0  0  1  0  0  3  0  0  0  0  0  0
  183.8800  177.2920  137.3450 C   0  0  0  0  0  0  0  0  0  0  0  0
  184.1690  176.0820  137.9500 F   0  0  0  0  0  0  0  0  0  0  0  0
  183.9190  177.1200  135.8360 C   0  0  0  0  0  1  0  0  0  0  0  0
  184.8520  178.2090  137.7020 F   0  0  0  0  0  0  0  0  0  0  0  0
  1  6  1  0  0  0  0
  1  9  1  0  0  0  0
  2 12  1  1  0  0  0
  3  9  1  0  0  0  0
  3  2  1  0  0  0  0
  4  1  1  0  0  0  0
  5  8  1  0  0  0  0
  7 10  1  0  0  0  0
  7  5  1  0  0  0  0
  8  2  1  0  0  0  0
  8 20  1  6  0  0  0
 10  3  2  0  0  0  0
 11  4  1  0  0  0  0
 11 10  1  0  0  0  0
 12 14  2  0  0  0  0
 12 17  1  0  0  0  0
 13 15  2  0  0  0  0
 14 13  1  0  0  0  0
 15 16  1  0  0  0  0
 17 18  1  0  0  0  0
 18 16  2  0  0  0  0
 20 19  1  0  0  0  0
 21  5  1  0  0  0  0
 23 22  1  1  0  0  0
 23 21  1  0  0  0  0
 25 24  2  0  0  0  0
 25 23  1  0  0  0  0
 27 26  1  6  0  0  0
 27 25  1  0  0  0  0
 28 31  1  0  0  0  0
 28 27  1  0  0  0  0
 28 29  1  0  0  0  0
 30 28  1  0  0  0  0
M  END
>  <MODEL>
5

>  <REMARK>
 VINA RESULT:      -7.0      2.473      3.342
  Name = 
  7 active torsions:
  status: ('A' for Active; 'I' for Inactive)
    1  A    between atoms: C_1  and  C_19
    2  A    between atoms: C_4  and  C_5
    3  A    between atoms: C_9  and  C_22
    4  A    between atoms: C_9  and  C_23
    5  A    between atoms: N_15  and  C_23
    6  A    between atoms: C_19  and  C_22
    7  A    between atoms: C_21  and  C_29
                            x       y       z     vdW  Elec       q    Type
                         _______ _______ _______ _____ _____    ______ ____

>  <TORSDO>
F 7

$$$$
=
 OpenBabel11052412573D

 31 33  0  0  1  0  0  0  0  0999 V2000
  184.8720  179.3780  142.9760 N   0  0  0  0  0  0  0  0  0  0  0  0
  188.4520  178.7420  141.9660 C   0  0  2  0  0  3  0  0  0  0  0  0
  186.9410  178.5580  141.9560 C   0  0  0  0  0  0  0  0  0  0  0  0
  184.1250  178.4740  142.1090 C   0  0  0  0  0  2  0  0  0  0  0  0
  188.2920  178.9250  139.5260 N   0  0  0  0  0  0  0  0  0  0  0  0
  184.1660  179.4200  144.2430 C   0  0  0  0  0  1  0  0  0  0  0  0
  187.0240  178.1910  139.4950 C   0  0  0  0  0  2  0  0  0  0  0  0
  189.1320  178.4110  140.6210 C   0  0  2  0  0  3  0  0  0  0  0  0
  186.1660  178.7530  143.2380 C   0  0  0  0  0  2  0  0  0  0  0  0
  186.2740  178.3690  140.7890 C   0  0  0  0  0  0  0  0  0  0  0  0
  184.7670  178.4370  140.7220 C   0  0  0  0  0  2  0  0  0  0  0  0
  189.1610  178.2080  143.1840 C   0  0  0  0  0  0  0  0  0  0  0  0
  188.9710  176.7520  145.1900 N   0  0  0  0  0  0  0  0  0  0  0  0
  188.4940  177.3840  144.0000 C   0  0  0  0  0  2  0  0  0  0  0  0
  190.2410  176.8020  145.8380 C   0  0  0  0  0  3  0  0  0  0  0  0
  191.3050  177.4840  145.4380 C   0  0  0  0  0  3  0  0  0  0  0  0
  190.5570  178.6380  143.3270 C   0  0  0  0  0  3  0  0  0  0  0  0
  191.4530  178.3410  144.2620 C   0  0  0  0  0  3  0  0  0  0  0  0
  190.9490  176.7270  140.2750 C   0  0  0  0  0  1  0  0  0  0  0  0
  189.4570  176.9140  140.4660 C   0  0  0  0  0  2  0  0  0  0  0  0
  188.9690  178.7300  138.2500 C   0  0  0  0  0  2  0  0  0  0  0  0
  187.5550  179.4720  136.4680 O   0  0  0  0  0  1  0  0  0  0  0  0
  187.9670  178.3400  137.1760 C   0  0  1  0  0  3  0  0  0  0  0  0
  188.6590  177.5580  135.0750 O   0  0  0  0  0  0  0  0  0  0  0  0
  188.5670  177.3020  136.2640 C   0  0  0  0  0  0  0  0  0  0  0  0
  188.2640  174.9280  136.1980 O   0  0  0  0  0  1  0  0  0  0  0  0
  189.0420  175.9520  136.7440 C   0  0  1  0  0  3  0  0  0  0  0  0
  190.5360  175.6890  136.5140 C   0  0  0  0  0  0  0  0  0  0  0  0
  191.2960  176.7590  136.9490 F   0  0  0  0  0  0  0  0  0  0  0  0
  190.9770  174.4320  137.2420 C   0  0  0  0  0  1  0  0  0  0  0  0
  190.7590  175.5080  135.1610 F   0  0  0  0  0  0  0  0  0  0  0  0
  1  9  1  0  0  0  0
  1  6  1  0  0  0  0
  2 12  1  1  0  0  0
  3  2  1  0  0  0  0
  3  9  1  0  0  0  0
  4  1  1  0  0  0  0
  5  8  1  0  0  0  0
  7  5  1  0  0  0  0
  7 10  1  0  0  0  0
  8 20  1  6  0  0  0
  8  2  1  0  0  0  0
 10  3  2  0  0  0  0
 11 10  1  0  0  0  0
 11  4  1  0  0  0  0
 12 17  2  0  0  0  0
 12 14  1  0  0  0  0
 13 15  2  0  0  0  0
 14 13  1  0  0  0  0
 16 15  1  0  0  0  0
 17 18  1  0  0  0  0
 18 16  2  0  0  0  0
 19 20  1  0  0  0  0
 21  5  1  0  0  0  0
 23 22  1  6  0  0  0
 23 21  1  0  0  0  0
 24 25  2  0  0  0  0
 25 27  1  0  0  0  0
 25 23  1  0  0  0  0
 27 26  1  6  0  0  0
 28 27  1  0  0  0  0
 28 29  1  0  0  0  0
 28 30  1  0  0  0  0
 31 28  1  0  0  0  0
M  END
>  <MODEL>
6

>  <REMARK>
 VINA RESULT:      -6.9      4.549      7.287
  Name = 
  7 active torsions:
  status: ('A' for Active; 'I' for Inactive)
    1  A    between atoms: C_1  and  C_19
    2  A    between atoms: C_4  and  C_5
    3  A    between atoms: C_9  and  C_22
    4  A    between atoms: C_9  and  C_23
    5  A    between atoms: N_15  and  C_23
    6  A    between atoms: C_19  and  C_22
    7  A    between atoms: C_21  and  C_29
                            x       y       z     vdW  Elec       q    Type
                         _______ _______ _______ _____ _____    ______ ____

>  <TORSDO>
F 7

$$$$
=
 OpenBabel11052412573D

 31 33  0  0  1  0  0  0  0  0999 V2000
  190.7490  176.7730  145.6230 N   0  0  0  0  0  0  0  0  0  0  0  0
  187.7880  177.1900  143.3210 C   0  0  2  0  0  3  0  0  0  0  0  0
  189.1770  177.4650  143.8780 C   0  0  0  0  0  0  0  0  0  0  0  0
  191.7170  177.7190  145.0800 C   0  0  0  0  0  2  0  0  0  0  0  0
  188.8690  177.0150  141.1280 N   0  0  0  0  0  0  0  0  0  0  0  0
  190.9240  176.7750  147.0640 C   0  0  0  0  0  1  0  0  0  0  0  0
  190.0120  177.8230  141.5590 C   0  0  0  0  0  2  0  0  0  0  0  0
  187.6500  177.4780  141.8110 C   0  0  2  0  0  3  0  0  0  0  0  0
  189.4200  177.3190  145.3620 C   0  0  0  0  0  2  0  0  0  0  0  0
  190.2250  177.6930  143.0440 C   0  0  0  0  0  0  0  0  0  0  0  0
  191.6460  177.7150  143.5530 C   0  0  0  0  0  2  0  0  0  0  0  0
  186.6420  177.6830  144.1680 C   0  0  0  0  0  0  0  0  0  0  0  0
  184.2910  178.4880  144.1640 N   0  0  0  0  0  0  0  0  0  0  0  0
  185.4990  178.0180  143.5610 C   0  0  0  0  0  3  0  0  0  0  0  0
  183.9510  178.7290  145.5280 C   0  0  0  0  0  3  0  0  0  0  0  0
  184.7370  178.5480  146.5820 C   0  0  0  0  0  3  0  0  0  0  0  0
  186.9060  177.7100  145.6130 C   0  0  0  0  0  2  0  0  0  0  0  0
  186.1180  178.0680  146.6190 C   0  0  0  0  0  3  0  0  0  0  0  0
  186.0030  179.0500  140.7760 C   0  0  0  0  0  1  0  0  0  0  0  0
  187.3260  178.9520  141.5090 C   0  0  0  0  0  2  0  0  0  0  0  0
  188.7150  177.1660  139.6860 C   0  0  0  0  0  2  0  0  0  0  0  0
  190.6260  175.7690  139.3390 O   0  0  0  0  0  1  0  0  0  0  0  0
  190.0570  176.9960  138.9920 C   0  0  1  0  0  3  0  0  0  0  0  0
  189.6590  178.2330  137.0380 O   0  0  0  0  0  0  0  0  0  0  0  0
  189.8850  177.1270  137.5010 C   0  0  0  0  0  0  0  0  0  0  0  0
  188.8480  175.9360  135.7020 O   0  0  0  0  0  1  0  0  0  0  0  0
  189.9560  175.9550  136.5520 C   0  0  1  0  0  3  0  0  0  0  0  0
  191.2630  175.8690  135.7530 C   0  0  0  0  0  0  0  0  0  0  0  0
  192.3240  176.3630  136.4900 F   0  0  0  0  0  0  0  0  0  0  0  0
  191.5530  174.4320  135.3560 C   0  0  0  0  0  1  0  0  0  0  0  0
  191.1360  176.6200  134.5990 F   0  0  0  0  0  0  0  0  0  0  0  0
  1  6  1  0  0  0  0
  2  3  1  0  0  0  0
  2 12  1  1  0  0  0
  3  9  1  0  0  0  0
  4  1  1  0  0  0  0
  5  7  1  0  0  0  0
  5  8  1  0  0  0  0
  7 10  1  0  0  0  0
  8 20  1  1  0  0  0
  8  2  1  0  0  0  0
  9  1  1  0  0  0  0
 10 11  1  0  0  0  0
 10  3  2  0  0  0  0
 11  4  1  0  0  0  0
 12 17  1  0  0  0  0
 13 15  2  0  0  0  0
 14 13  1  0  0  0  0
 14 12  2  0  0  0  0
 15 16  1  0  0  0  0
 16 18  2  0  0  0  0
 17 18  1  0  0  0  0
 19 20  1  0  0  0  0
 21  5  1  0  0  0  0
 23 22  1  6  0  0  0
 23 21  1  0  0  0  0
 24 25  2  0  0  0  0
 25 23  1  0  0  0  0
 27 26  1  6  0  0  0
 27 25  1  0  0  0  0
 28 29  1  0  0  0  0
 28 27  1  0  0  0  0
 30 28  1  0  0  0  0
 31 28  1  0  0  0  0
M  END
>  <MODEL>
7

>  <REMARK>
 VINA RESULT:      -6.9      5.089      7.633
  Name = 
  7 active torsions:
  status: ('A' for Active; 'I' for Inactive)
    1  A    between atoms: C_1  and  C_19
    2  A    between atoms: C_4  and  C_5
    3  A    between atoms: C_9  and  C_22
    4  A    between atoms: C_9  and  C_23
    5  A    between atoms: N_15  and  C_23
    6  A    between atoms: C_19  and  C_22
    7  A    between atoms: C_21  and  C_29
                            x       y       z     vdW  Elec       q    Type
                         _______ _______ _______ _____ _____    ______ ____

>  <TORSDO>
F 7

$$$$
=
 OpenBabel11052412573D

 31 33  0  0  1  0  0  0  0  0999 V2000
  189.3960  177.0580  141.1760 N   0  0  0  0  0  0  0  0  0  0  0  0
  186.4400  177.5960  143.4590 C   0  0  2  0  0  3  0  0  0  0  0  0
  187.4220  177.9170  142.3420 C   0  0  0  0  0  0  0  0  0  0  0  0
  189.3450  178.2220  140.3000 C   0  0  0  0  0  2  0  0  0  0  0  0
  184.6690  178.0710  141.8310 N   0  0  0  0  0  0  0  0  0  0  0  0
  190.8000  176.7530  141.3860 C   0  0  0  0  0  1  0  0  0  0  0  0
  185.5590  178.9030  141.0170 C   0  0  0  0  0  2  0  0  0  0  0  0
  185.0360  178.2000  143.2520 C   0  0  2  0  0  3  0  0  0  0  0  0
  188.8590  177.4690  142.4710 C   0  0  0  0  0  2  0  0  0  0  0  0
  186.9910  178.4660  141.1770 C   0  0  0  0  0  0  0  0  0  0  0  0
  187.8910  178.5580  139.9690 C   0  0  0  0  0  2  0  0  0  0  0  0
  186.9860  177.7250  144.8580 C   0  0  0  0  0  0  0  0  0  0  0  0
  186.4200  178.0680  147.2540 N   0  0  0  0  0  0  0  0  0  0  0  0
  186.1270  177.9330  145.8620 C   0  0  0  0  0  2  0  0  0  0  0  0
  187.6560  178.0230  147.9650 C   0  0  0  0  0  3  0  0  0  0  0  0
  188.8600  177.8270  147.4430 C   0  0  0  0  0  3  0  0  0  0  0  0
  188.4420  177.5730  144.9720 C   0  0  0  0  0  3  0  0  0  0  0  0
  189.2260  177.6140  146.0430 C   0  0  0  0  0  3  0  0  0  0  0  0
  183.6010  179.8460  144.4720 C   0  0  0  0  0  1  0  0  0  0  0  0
  184.9250  179.6490  143.7620 C   0  0  0  0  0  2  0  0  0  0  0  0
  183.2990  178.5260  141.6310 C   0  0  0  0  0  2  0  0  0  0  0  0
  183.3070  176.6560  140.1390 O   0  0  0  0  0  1  0  0  0  0  0  0
  182.7140  177.8980  140.3760 C   0  0  1  0  0  3  0  0  0  0  0  0
  180.6990  178.1320  141.5570 O   0  0  0  0  0  0  0  0  0  0  0  0
  181.2170  177.7820  140.5100 C   0  0  0  0  0  0  0  0  0  0  0  0
  180.9410  177.3500  138.1710 O   0  0  0  0  0  1  0  0  0  0  0  0
  180.3280  177.2340  139.4200 C   0  0  1  0  0  3  0  0  0  0  0  0
  179.8440  175.7980  139.6640 C   0  0  0  0  0  0  0  0  0  0  0  0
  178.9310  175.7560  140.7010 F   0  0  0  0  0  0  0  0  0  0  0  0
  179.2050  175.2290  138.4090 C   0  0  0  0  0  1  0  0  0  0  0  0
  180.9290  175.0070  139.9950 F   0  0  0  0  0  0  0  0  0  0  0  0
  1  6  1  0  0  0  0
  1  9  1  0  0  0  0
  2 12  1  1  0  0  0
  3  9  1  0  0  0  0
  3  2  1  0  0  0  0
  4  1  1  0  0  0  0
  5  8  1  0  0  0  0
  7 10  1  0  0  0  0
  7  5  1  0  0  0  0
  8  2  1  0  0  0  0
  8 20  1  6  0  0  0
 10  3  2  0  0  0  0
 11  4  1  0  0  0  0
 11 10  1  0  0  0  0
 12 17  2  0  0  0  0
 12 14  1  0  0  0  0
 13 15  2  0  0  0  0
 14 13  1  0  0  0  0
 16 15  1  0  0  0  0
 17 18  1  0  0  0  0
 18 16  2  0  0  0  0
 20 19  1  0  0  0  0
 21  5  1  0  0  0  0
 23 22  1  1  0  0  0
 23 25  1  0  0  0  0
 23 21  1  0  0  0  0
 25 24  2  0  0  0  0
 27 26  1  6  0  0  0
 27 28  1  0  0  0  0
 27 25  1  0  0  0  0
 28 31  1  0  0  0  0
 28 29  1  0  0  0  0
 30 28  1  0  0  0  0
M  END
>  <MODEL>
8

>  <REMARK>
 VINA RESULT:      -6.9      1.878      2.555
  Name = 
  7 active torsions:
  status: ('A' for Active; 'I' for Inactive)
    1  A    between atoms: C_1  and  C_19
    2  A    between atoms: C_4  and  C_5
    3  A    between atoms: C_9  and  C_22
    4  A    between atoms: C_9  and  C_23
    5  A    between atoms: N_15  and  C_23
    6  A    between atoms: C_19  and  C_22
    7  A    between atoms: C_21  and  C_29
                            x       y       z     vdW  Elec       q    Type
                         _______ _______ _______ _____ _____    ______ ____

>  <TORSDO>
F 7

$$$$
=
 OpenBabel11052412573D

 31 33  0  0  1  0  0  0  0  0999 V2000
  184.3990  179.4190  143.3590 N   0  0  0  0  0  0  0  0  0  0  0  0
  188.0230  178.3860  143.5420 C   0  0  2  0  0  3  0  0  0  0  0  0
  186.5730  178.3280  143.0860 C   0  0  0  0  0  0  0  0  0  0  0  0
  183.8470  178.4940  142.3770 C   0  0  0  0  0  2  0  0  0  0  0  0
  188.6140  178.3200  141.1630 N   0  0  0  0  0  0  0  0  0  0  0  0
  183.3580  179.6550  144.3440 C   0  0  0  0  0  1  0  0  0  0  0  0
  187.3390  177.6950  140.8030 C   0  0  0  0  0  2  0  0  0  0  0  0
  189.0300  177.8590  142.4980 C   0  0  2  0  0  3  0  0  0  0  0  0
  185.4790  178.7210  144.0510 C   0  0  0  0  0  2  0  0  0  0  0  0
  186.2650  178.0710  141.7890 C   0  0  0  0  0  0  0  0  0  0  0  0
  184.8620  178.2570  141.2600 C   0  0  0  0  0  2  0  0  0  0  0  0
  188.2760  177.9280  144.9550 C   0  0  0  0  0  0  0  0  0  0  0  0
  187.2350  177.1160  147.0610 N   0  0  0  0  0  0  0  0  0  0  0  0
  187.2270  177.5890  145.7130 C   0  0  0  0  0  2  0  0  0  0  0  0
  188.3100  176.8680  147.9660 C   0  0  0  0  0  3  0  0  0  0  0  0
  189.6030  177.0330  147.7200 C   0  0  0  0  0  3  0  0  0  0  0  0
  189.6910  177.8700  145.3450 C   0  0  0  0  0  3  0  0  0  0  0  0
  190.2470  177.4990  146.4920 C   0  0  0  0  0  3  0  0  0  0  0  0
  190.6720  176.0020  142.8380 C   0  0  0  0  0  1  0  0  0  0  0  0
  189.2180  176.3320  142.5640 C   0  0  0  0  0  2  0  0  0  0  0  0
  189.6130  177.9360  140.1740 C   0  0  0  0  0  2  0  0  0  0  0  0
  189.0580  179.3540  138.3280 O   0  0  0  0  0  1  0  0  0  0  0  0
  189.0300  178.0310  138.7730 C   0  0  1  0  0  3  0  0  0  0  0  0
  189.6660  177.2910  136.6390 O   0  0  0  0  0  0  0  0  0  0  0  0
  189.7800  177.1160  137.8410 C   0  0  0  0  0  0  0  0  0  0  0  0
  190.1640  174.7520  137.8540 O   0  0  0  0  0  1  0  0  0  0  0  0
  190.6490  175.9770  138.3180 C   0  0  1  0  0  3  0  0  0  0  0  0
  192.1390  176.1390  137.9860 C   0  0  0  0  0  0  0  0  0  0  0  0
  192.7980  176.8100  138.9990 F   0  0  0  0  0  0  0  0  0  0  0  0
  192.7900  174.7830  137.7760 C   0  0  0  0  0  1  0  0  0  0  0  0
  192.2640  176.8660  136.8160 F   0  0  0  0  0  0  0  0  0  0  0  0
  1  9  1  0  0  0  0
  1  6  1  0  0  0  0
  2 12  1  1  0  0  0
  3  2  1  0  0  0  0
  3  9  1  0  0  0  0
  4  1  1  0  0  0  0
  5  8  1  0  0  0  0
  7  5  1  0  0  0  0
  7 10  1  0  0  0  0
  8 20  1  6  0  0  0
  8  2  1  0  0  0  0
 10  3  2  0  0  0  0
 11 10  1  0  0  0  0
 11  4  1  0  0  0  0
 12 17  2  0  0  0  0
 12 14  1  0  0  0  0
 13 15  2  0  0  0  0
 14 13  1  0  0  0  0
 16 15  1  0  0  0  0
 17 18  1  0  0  0  0
 18 16  2  0  0  0  0
 20 19  1  0  0  0  0
 21  5  1  0  0  0  0
 23 22  1  6  0  0  0
 23 21  1  0  0  0  0
 24 25  2  0  0  0  0
 25 27  1  0  0  0  0
 25 23  1  0  0  0  0
 27 26  1  6  0  0  0
 28 27  1  0  0  0  0
 28 29  1  0  0  0  0
 30 28  1  0  0  0  0
 31 28  1  0  0  0  0
M  END
>  <MODEL>
9

>  <REMARK>
 VINA RESULT:      -6.8      4.627      7.456
  Name = 
  7 active torsions:
  status: ('A' for Active; 'I' for Inactive)
    1  A    between atoms: C_1  and  C_19
    2  A    between atoms: C_4  and  C_5
    3  A    between atoms: C_9  and  C_22
    4  A    between atoms: C_9  and  C_23
    5  A    between atoms: N_15  and  C_23
    6  A    between atoms: C_19  and  C_22
    7  A    between atoms: C_21  and  C_29
                            x       y       z     vdW  Elec       q    Type
                         _______ _______ _______ _____ _____    ______ ____

>  <TORSDO>
F 7

$$$$
