=
 OpenBabel11052416523D

 32 37  0  0  1  0  0  0  0  0999 V2000
  188.1980  177.8060  146.9900 N   0  0  0  0  0  0  0  0  0  0  0  0
  184.5520  178.5150  143.4020 C   0  0  0  0  0  0  0  0  0  0  0  0
  187.2480  178.2550  139.3040 C   0  0  0  0  0  3  0  0  0  0  0  0
  185.9910  178.1410  138.4880 C   0  0  0  0  0  2  0  0  0  0  0  0
  182.0530  178.8440  142.8260 C   0  0  0  0  0  0  0  0  0  0  0  0
  181.3190  178.7140  144.0040 C   0  0  0  0  0  3  0  0  0  0  0  0
  185.6810  177.8610  145.6370 C   0  0  1  0  0  3  0  0  0  0  0  0
  187.0110  178.0450  143.5370 C   0  0  0  0  0  3  0  0  0  0  0  0
  180.0800  179.1320  141.5240 C   0  0  0  0  0  0  0  0  0  0  0  0
  188.2360  177.4580  145.5640 C   0  0  0  0  0  2  0  0  0  0  0  0
  187.1960  178.3670  140.6340 C   0  0  0  0  0  3  0  0  0  0  0  0
  185.8010  178.3540  142.7430 C   0  0  0  0  0  0  0  0  0  0  0  0
  185.8950  178.4860  141.3320 C   0  0  0  0  0  0  0  0  0  0  0  0
  183.5190  178.8680  141.2190 C   0  0  0  0  0  0  0  0  0  0  0  0
  179.2980  179.0180  142.6810 C   0  0  0  0  0  3  0  0  0  0  0  0
  187.0660  178.4520  147.5980 C   0  0  0  0  0  3  0  0  0  0  0  0
  186.9740  177.8520  144.8560 C   0  0  0  0  0  0  0  0  0  0  0  0
  179.9240  178.8100  143.9200 C   0  0  0  0  0  3  0  0  0  0  0  0
  185.8920  178.5210  146.9710 C   0  0  0  0  0  3  0  0  0  0  0  0
  184.8560  178.9840  139.0780 C   0  0  0  0  0  2  0  0  0  0  0  0
  184.7400  178.7520  140.5600 C   0  0  0  0  0  0  0  0  0  0  0  0
  182.3090  179.0550  140.6500 N   0  0  0  0  0  0  0  0  0  0  0  0
  184.5280  178.4820  144.8850 C   0  0  0  0  0  0  0  0  0  0  0  0
  183.5600  178.9720  145.5280 O   0  0  0  0  0  0  0  0  0  0  0  0
  179.4310  179.3330  140.1980 C   0  0  0  0  0  1  0  0  0  0  0  0
  183.4170  178.7390  142.5920 C   0  0  0  0  0  0  0  0  0  0  0  0
  181.4320  179.0340  141.6430 N   0  0  0  0  0  0  0  0  0  0  0  0
  189.4100  177.6050  147.7730 C   0  0  0  0  0  2  0  0  0  0  0  0
  191.6260  176.4080  147.4600 C   0  0  0  0  0  0  0  0  0  0  0  0
  190.2310  176.5590  147.1800 N   0  0  0  0  0  2  0  0  0  0  0  0
  192.3730  175.4040  146.7840 N   0  0  0  0  0  1  0  0  0  0  0  0
  192.1950  177.1410  148.3130 O   0  0  0  0  0  0  0  0  0  0  0  0
  1 16  1  0  0  0  0
  1 28  1  0  0  0  0
  2 23  1  0  0  0  0
  3 11  2  0  0  0  0
  4 20  1  0  0  0  0
  4  3  1  0  0  0  0
  5  6  1  0  0  0  0
  7 19  1  1  0  0  0
  8 17  2  0  0  0  0
  9 27  1  0  0  0  0
  9 15  2  0  0  0  0
 10  1  1  0  0  0  0
 11 13  1  0  0  0  0
 12  2  2  0  0  0  0
 12  8  1  0  0  0  0
 13 12  1  0  0  0  0
 14 26  1  0  0  0  0
 15 18  1  0  0  0  0
 17 10  1  0  0  0  0
 17  7  1  0  0  0  0
 18  6  2  0  0  0  0
 19 16  2  0  0  0  0
 20 21  1  0  0  0  0
 21 14  1  0  0  0  0
 21 13  2  0  0  0  0
 22 14  2  0  0  0  0
 22 27  1  0  0  0  0
 23 24  2  0  0  0  0
 23  7  1  0  0  0  0
 25  9  1  0  0  0  0
 26  5  2  0  0  0  0
 26  2  1  0  0  0  0
 27  5  1  0  0  0  0
 29 32  2  0  0  0  0
 30 29  1  0  0  0  0
 30 28  1  0  0  0  0
 31 29  1  0  0  0  0
M  END
>  <MODEL>
1

>  <REMARK>
 VINA RESULT:     -11.5      0.000      0.000
  Name = 
  2 active torsions:
  status: ('A' for Active; 'I' for Inactive)
    1  A    between atoms: N_2  and  C_24
    2  A    between atoms: N_10  and  C_24
                            x       y       z     vdW  Elec       q    Type
                         _______ _______ _______ _____ _____    ______ ____

>  <TORSDO>
F 2

$$$$
=
 OpenBabel11052416523D

 32 37  0  0  1  0  0  0  0  0999 V2000
  192.5730  176.7550  138.7880 N   0  0  0  0  0  0  0  0  0  0  0  0
  188.9730  177.4810  142.4180 C   0  0  0  0  0  0  0  0  0  0  0  0
  191.6000  176.6430  146.4830 C   0  0  0  0  0  3  0  0  0  0  0  0
  190.4930  177.2270  147.3150 C   0  0  0  0  0  2  0  0  0  0  0  0
  186.5470  178.1390  143.0240 C   0  0  0  0  0  0  0  0  0  0  0  0
  185.9090  178.5520  141.8550 C   0  0  0  0  0  3  0  0  0  0  0  0
  190.2440  177.6660  140.1720 C   0  0  1  0  0  3  0  0  0  0  0  0
  191.4210  176.9650  142.2550 C   0  0  0  0  0  3  0  0  0  0  0  0
  184.6290  178.6250  144.3480 C   0  0  0  0  0  0  0  0  0  0  0  0
  192.7570  177.0500  140.2150 C   0  0  0  0  0  2  0  0  0  0  0  0
  191.4950  176.5720  145.1530 C   0  0  0  0  0  3  0  0  0  0  0  0
  190.1930  177.1400  143.0620 C   0  0  0  0  0  0  0  0  0  0  0  0
  190.2430  176.9710  144.4720 C   0  0  0  0  0  0  0  0  0  0  0  0
  187.9050  177.5360  144.6120 C   0  0  0  0  0  0  0  0  0  0  0  0
  183.9400  179.0410  143.2020 C   0  0  0  0  0  3  0  0  0  0  0  0
  191.2740  176.6020  138.1910 C   0  0  0  0  0  3  0  0  0  0  0  0
  191.4480  177.1670  140.9370 C   0  0  0  0  0  0  0  0  0  0  0  0
  184.5860  179.0020  141.9560 C   0  0  0  0  0  3  0  0  0  0  0  0
  190.1710  176.9870  138.8330 C   0  0  0  0  0  3  0  0  0  0  0  0
  189.1150  176.8930  146.7360 C   0  0  0  0  0  2  0  0  0  0  0  0
  189.0820  177.1650  145.2560 C   0  0  0  0  0  0  0  0  0  0  0  0
  186.7230  177.8260  145.1960 N   0  0  0  0  0  0  0  0  0  0  0  0
  188.9490  177.5320  140.9350 C   0  0  0  0  0  0  0  0  0  0  0  0
  187.8600  177.4610  140.3030 O   0  0  0  0  0  0  0  0  0  0  0  0
  183.9650  178.6780  145.6820 C   0  0  0  0  0  1  0  0  0  0  0  0
  187.8480  177.7060  143.2410 C   0  0  0  0  0  0  0  0  0  0  0  0
  185.9120  178.1930  144.2130 N   0  0  0  0  0  0  0  0  0  0  0  0
  193.7610  176.4780  137.9910 C   0  0  0  0  0  2  0  0  0  0  0  0
  195.1430  174.5280  138.8440 C   0  0  0  0  0  0  0  0  0  0  0  0
  194.0860  175.0590  138.0400 N   0  0  0  0  0  2  0  0  0  0  0  0
  195.4440  173.1390  138.7810 N   0  0  0  0  0  1  0  0  0  0  0  0
  195.7980  175.2730  139.6220 O   0  0  0  0  0  0  0  0  0  0  0  0
  1 10  1  0  0  0  0
  2 12  2  0  0  0  0
  2 26  1  0  0  0  0
  3  4  1  0  0  0  0
  5 26  2  0  0  0  0
  5 27  1  0  0  0  0
  6 18  2  0  0  0  0
  6  5  1  0  0  0  0
  7 19  1  6  0  0  0
  7 23  1  0  0  0  0
  7 17  1  0  0  0  0
  8 12  1  0  0  0  0
  9 25  1  0  0  0  0
 10 17  1  0  0  0  0
 11  3  2  0  0  0  0
 12 13  1  0  0  0  0
 13 11  1  0  0  0  0
 13 21  2  0  0  0  0
 14 22  2  0  0  0  0
 14 21  1  0  0  0  0
 15  9  2  0  0  0  0
 16  1  1  0  0  0  0
 16 19  2  0  0  0  0
 17  8  2  0  0  0  0
 18 15  1  0  0  0  0
 20  4  1  0  0  0  0
 21 20  1  0  0  0  0
 23  2  1  0  0  0  0
 24 23  2  0  0  0  0
 26 14  1  0  0  0  0
 27  9  1  0  0  0  0
 27 22  1  0  0  0  0
 28 30  1  0  0  0  0
 28  1  1  0  0  0  0
 29 32  2  0  0  0  0
 30 29  1  0  0  0  0
 31 29  1  0  0  0  0
M  END
>  <MODEL>
2

>  <REMARK>
 VINA RESULT:     -11.4      4.549      7.315
  Name = 
  2 active torsions:
  status: ('A' for Active; 'I' for Inactive)
    1  A    between atoms: N_2  and  C_24
    2  A    between atoms: N_10  and  C_24
                            x       y       z     vdW  Elec       q    Type
                         _______ _______ _______ _____ _____    ______ ____

>  <TORSDO>
F 2

$$$$
=
 OpenBabel11052416523D

 32 37  0  0  1  0  0  0  0  0999 V2000
  183.0360  179.2170  140.1770 N   0  0  0  0  0  0  0  0  0  0  0  0
  187.1380  177.9880  143.0630 C   0  0  0  0  0  0  0  0  0  0  0  0
  190.5740  177.4850  139.5890 C   0  0  0  0  0  3  0  0  0  0  0  0
  191.6400  177.4860  140.6480 C   0  0  0  0  0  2  0  0  0  0  0  0
  188.1580  177.6200  145.4110 C   0  0  0  0  0  0  0  0  0  0  0  0
  187.1950  177.9650  146.3570 C   0  0  0  0  0  3  0  0  0  0  0  0
  184.8530  178.9870  142.3710 C   0  0  1  0  0  3  0  0  0  0  0  0
  186.5740  178.4190  140.6590 C   0  0  0  0  0  3  0  0  0  0  0  0
  189.7760  177.1580  147.0950 C   0  0  0  0  0  0  0  0  0  0  0  0
  184.4590  179.3160  139.8340 C   0  0  0  0  0  2  0  0  0  0  0  0
  189.2840  177.6030  139.9140 C   0  0  0  0  0  3  0  0  0  0  0  0
  187.5400  178.0060  141.7000 C   0  0  0  0  0  0  0  0  0  0  0  0
  188.8610  177.6330  141.3330 C   0  0  0  0  0  0  0  0  0  0  0  0
  189.4000  177.2900  143.6550 C   0  0  0  0  0  0  0  0  0  0  0  0
  188.8410  177.4840  148.0860 C   0  0  0  0  0  3  0  0  0  0  0  0
  182.5780  178.7090  141.4430 C   0  0  0  0  0  3  0  0  0  0  0  0
  185.3400  178.8350  140.9490 C   0  0  0  0  0  0  0  0  0  0  0  0
  187.5490  177.8870  147.7100 C   0  0  0  0  0  3  0  0  0  0  0  0
  183.4160  178.5610  142.4690 C   0  0  0  0  0  3  0  0  0  0  0  0
  191.1690  176.7810  141.9250 C   0  0  0  0  0  2  0  0  0  0  0  0
  189.8020  177.2650  142.3230 C   0  0  0  0  0  0  0  0  0  0  0  0
  190.1700  177.0350  144.7350 N   0  0  0  0  0  0  0  0  0  0  0  0
  185.7170  178.2730  143.3820 C   0  0  0  0  0  0  0  0  0  0  0  0
  185.2180  177.9210  144.4860 O   0  0  0  0  0  0  0  0  0  0  0  0
  191.1570  176.7480  147.4750 C   0  0  0  0  0  1  0  0  0  0  0  0
  188.1170  177.6540  144.0230 C   0  0  0  0  0  0  0  0  0  0  0  0
  189.3970  177.2450  145.7920 N   0  0  0  0  0  0  0  0  0  0  0  0
  182.0610  179.5210  139.1370 C   0  0  0  0  0  2  0  0  0  0  0  0
  180.3140  181.3400  139.4230 C   0  0  0  0  0  0  0  0  0  0  0  0
  180.8360  180.0430  139.7260 N   0  0  0  0  0  2  0  0  0  0  0  0
  179.1490  181.8040  140.0950 N   0  0  0  0  0  1  0  0  0  0  0  0
  180.8630  182.0680  138.5520 O   0  0  0  0  0  0  0  0  0  0  0  0
  1 16  1  0  0  0  0
  2 23  1  0  0  0  0
  2 26  1  0  0  0  0
  3 11  2  0  0  0  0
  3  4  1  0  0  0  0
  4 20  1  0  0  0  0
  5 27  1  0  0  0  0
  5  6  1  0  0  0  0
  6 18  2  0  0  0  0
  7 19  1  6  0  0  0
  7 23  1  0  0  0  0
  8 17  2  0  0  0  0
  8 12  1  0  0  0  0
  9 25  1  0  0  0  0
  9 15  2  0  0  0  0
 10  1  1  0  0  0  0
 10 17  1  0  0  0  0
 11 13  1  0  0  0  0
 12  2  2  0  0  0  0
 13 12  1  0  0  0  0
 13 21  2  0  0  0  0
 14 26  1  0  0  0  0
 14 22  2  0  0  0  0
 16 19  2  0  0  0  0
 17  7  1  0  0  0  0
 18 15  1  0  0  0  0
 20 21  1  0  0  0  0
 21 14  1  0  0  0  0
 22 27  1  0  0  0  0
 23 24  2  0  0  0  0
 26  5  2  0  0  0  0
 27  9  1  0  0  0  0
 28 30  1  0  0  0  0
 28  1  1  0  0  0  0
 29 30  1  0  0  0  0
 29 31  1  0  0  0  0
 32 29  2  0  0  0  0
M  END
>  <MODEL>
3

>  <REMARK>
 VINA RESULT:     -11.1      2.498      8.430
  Name = 
  2 active torsions:
  status: ('A' for Active; 'I' for Inactive)
    1  A    between atoms: N_2  and  C_24
    2  A    between atoms: N_10  and  C_24
                            x       y       z     vdW  Elec       q    Type
                         _______ _______ _______ _____ _____    ______ ____

>  <TORSDO>
F 2

$$$$
=
 OpenBabel11052416523D

 32 37  0  0  1  0  0  0  0  0999 V2000
  182.9860  179.2360  140.2110 N   0  0  0  0  0  0  0  0  0  0  0  0
  187.0930  177.9980  143.0860 C   0  0  0  0  0  0  0  0  0  0  0  0
  190.5160  177.4730  139.6020 C   0  0  0  0  0  3  0  0  0  0  0  0
  191.5860  177.4730  140.6580 C   0  0  0  0  0  2  0  0  0  0  0  0
  188.1200  177.6340  145.4310 C   0  0  0  0  0  0  0  0  0  0  0  0
  187.1610  177.9850  146.3800 C   0  0  0  0  0  3  0  0  0  0  0  0
  184.8110  179.0050  142.3990 C   0  0  1  0  0  3  0  0  0  0  0  0
  186.5230  178.4260  140.6830 C   0  0  0  0  0  3  0  0  0  0  0  0
  189.7420  177.1700  147.1120 C   0  0  0  0  0  0  0  0  0  0  0  0
  184.4090  179.3290  139.8630 C   0  0  0  0  0  2  0  0  0  0  0  0
  189.2270  177.5970  139.9310 C   0  0  0  0  0  3  0  0  0  0  0  0
  187.4910  178.0110  141.7220 C   0  0  0  0  0  0  0  0  0  0  0  0
  188.8090  177.6330  141.3510 C   0  0  0  0  0  0  0  0  0  0  0  0
  189.3550  177.2940  143.6730 C   0  0  0  0  0  0  0  0  0  0  0  0
  188.8110  177.5020  148.1050 C   0  0  0  0  0  3  0  0  0  0  0  0
  182.5320  178.7340  141.4790 C   0  0  0  0  0  3  0  0  0  0  0  0
  185.2920  178.8470  140.9760 C   0  0  0  0  0  0  0  0  0  0  0  0
  187.5200  177.9090  147.7320 C   0  0  0  0  0  3  0  0  0  0  0  0
  183.3720  178.5840  142.5030 C   0  0  0  0  0  3  0  0  0  0  0  0
  191.1160  176.7730  141.9380 C   0  0  0  0  0  2  0  0  0  0  0  0
  189.7520  177.2640  142.3390 C   0  0  0  0  0  0  0  0  0  0  0  0
  190.1270  177.0390  144.7510 N   0  0  0  0  0  0  0  0  0  0  0  0
  185.6750  178.2900  143.4090 C   0  0  0  0  0  0  0  0  0  0  0  0
  185.1790  177.9440  144.5160 O   0  0  0  0  0  0  0  0  0  0  0  0
  191.1230  176.7550  147.4880 C   0  0  0  0  0  1  0  0  0  0  0  0
  188.0750  177.6630  144.0440 C   0  0  0  0  0  0  0  0  0  0  0  0
  189.3590  177.2540  145.8090 N   0  0  0  0  0  0  0  0  0  0  0  0
  182.0100  179.5420  139.1740 C   0  0  0  0  0  2  0  0  0  0  0  0
  181.9160  177.4610  137.7230 C   0  0  0  0  0  0  0  0  0  0  0  0
  182.3220  178.8130  137.9520 N   0  0  0  0  0  2  0  0  0  0  0  0
  182.3220  176.7960  136.5330 N   0  0  0  0  0  1  0  0  0  0  0  0
  181.1850  176.8580  138.5550 O   0  0  0  0  0  0  0  0  0  0  0  0
  1 16  1  0  0  0  0
  2 23  1  0  0  0  0
  2 26  1  0  0  0  0
  3 11  2  0  0  0  0
  3  4  1  0  0  0  0
  4 20  1  0  0  0  0
  5 27  1  0  0  0  0
  5  6  1  0  0  0  0
  6 18  2  0  0  0  0
  7 19  1  6  0  0  0
  7 23  1  0  0  0  0
  8 17  2  0  0  0  0
  8 12  1  0  0  0  0
  9 25  1  0  0  0  0
  9 15  2  0  0  0  0
 10  1  1  0  0  0  0
 10 17  1  0  0  0  0
 11 13  1  0  0  0  0
 12  2  2  0  0  0  0
 13 12  1  0  0  0  0
 13 21  2  0  0  0  0
 14 26  1  0  0  0  0
 14 22  2  0  0  0  0
 16 19  2  0  0  0  0
 17  7  1  0  0  0  0
 18 15  1  0  0  0  0
 20 21  1  0  0  0  0
 21 14  1  0  0  0  0
 22 27  1  0  0  0  0
 23 24  2  0  0  0  0
 26  5  2  0  0  0  0
 27  9  1  0  0  0  0
 28  1  1  0  0  0  0
 29 30  1  0  0  0  0
 29 32  2  0  0  0  0
 30 28  1  0  0  0  0
 31 29  1  0  0  0  0
M  END
>  <MODEL>
4

>  <REMARK>
 VINA RESULT:     -10.8      2.550      8.202
  Name = 
  2 active torsions:
  status: ('A' for Active; 'I' for Inactive)
    1  A    between atoms: N_2  and  C_24
    2  A    between atoms: N_10  and  C_24
                            x       y       z     vdW  Elec       q    Type
                         _______ _______ _______ _____ _____    ______ ____

>  <TORSDO>
F 2

$$$$
=
 OpenBabel11052416523D

 32 37  0  0  1  0  0  0  0  0999 V2000
  181.8850  179.1390  142.1950 N   0  0  0  0  0  0  0  0  0  0  0  0
  186.5230  178.0790  144.2040 C   0  0  0  0  0  0  0  0  0  0  0  0
  189.1440  177.3640  140.1110 C   0  0  0  0  0  3  0  0  0  0  0  0
  190.4110  177.4270  140.9150 C   0  0  0  0  0  2  0  0  0  0  0  0
  188.0260  177.8520  146.2960 C   0  0  0  0  0  0  0  0  0  0  0  0
  187.2830  178.2540  147.4050 C   0  0  0  0  0  3  0  0  0  0  0  0
  184.1320  179.0390  143.9580 C   0  0  1  0  0  3  0  0  0  0  0  0
  185.4540  178.3660  141.9550 C   0  0  0  0  0  3  0  0  0  0  0  0
  189.9710  177.4900  147.6200 C   0  0  0  0  0  0  0  0  0  0  0  0
  183.2020  179.2150  141.5500 C   0  0  0  0  0  2  0  0  0  0  0  0
  187.9510  177.5030  140.6970 C   0  0  0  0  0  3  0  0  0  0  0  0
  186.6250  178.0150  142.7880 C   0  0  0  0  0  0  0  0  0  0  0  0
  187.8410  177.6190  142.1690 C   0  0  0  0  0  0  0  0  0  0  0  0
  188.8680  177.4150  144.3380 C   0  0  0  0  0  0  0  0  0  0  0  0
  189.2660  177.8760  148.7660 C   0  0  0  0  0  3  0  0  0  0  0  0
  181.7150  178.7080  143.5560 C   0  0  0  0  0  3  0  0  0  0  0  0
  184.3060  178.8000  142.4770 C   0  0  0  0  0  0  0  0  0  0  0  0
  187.9190  178.2580  148.6530 C   0  0  0  0  0  3  0  0  0  0  0  0
  182.7540  178.6200  144.3870 C   0  0  0  0  0  3  0  0  0  0  0  0
  190.2320  176.8010  142.3020 C   0  0  0  0  0  2  0  0  0  0  0  0
  188.9760  177.3100  142.9550 C   0  0  0  0  0  0  0  0  0  0  0  0
  189.8530  177.2250  145.2420 N   0  0  0  0  0  0  0  0  0  0  0  0
  185.2000  178.3850  144.8020 C   0  0  0  0  0  0  0  0  0  0  0  0
  184.9530  178.1010  146.0060 O   0  0  0  0  0  0  0  0  0  0  0  0
  191.4060  177.1010  147.7190 C   0  0  0  0  0  1  0  0  0  0  0  0
  187.6890  177.8020  144.9500 C   0  0  0  0  0  0  0  0  0  0  0  0
  189.3220  177.4990  146.4250 N   0  0  0  0  0  0  0  0  0  0  0  0
  180.7080  179.3810  141.3720 C   0  0  0  0  0  2  0  0  0  0  0  0
  179.8880  177.1000  140.6200 C   0  0  0  0  0  0  0  0  0  0  0  0
  180.5650  178.3350  140.3680 N   0  0  0  0  0  2  0  0  0  0  0  0
  179.8530  176.1000  139.6090 N   0  0  0  0  0  1  0  0  0  0  0  0
  179.3040  176.8970  141.7180 O   0  0  0  0  0  0  0  0  0  0  0  0
  1 16  1  0  0  0  0
  2 23  1  0  0  0  0
  2 26  1  0  0  0  0
  3 11  2  0  0  0  0
  3  4  1  0  0  0  0
  4 20  1  0  0  0  0
  5 27  1  0  0  0  0
  5  6  1  0  0  0  0
  6 18  2  0  0  0  0
  7 19  1  1  0  0  0
  7 23  1  0  0  0  0
  8 17  2  0  0  0  0
  8 12  1  0  0  0  0
  9 25  1  0  0  0  0
  9 15  2  0  0  0  0
 10  1  1  0  0  0  0
 10 17  1  0  0  0  0
 11 13  1  0  0  0  0
 12  2  2  0  0  0  0
 13 12  1  0  0  0  0
 13 21  2  0  0  0  0
 14 26  1  0  0  0  0
 14 22  2  0  0  0  0
 16 19  2  0  0  0  0
 17  7  1  0  0  0  0
 18 15  1  0  0  0  0
 20 21  1  0  0  0  0
 21 14  1  0  0  0  0
 22 27  1  0  0  0  0
 23 24  2  0  0  0  0
 26  5  2  0  0  0  0
 27  9  1  0  0  0  0
 28  1  1  0  0  0  0
 29 32  2  0  0  0  0
 30 29  1  0  0  0  0
 30 28  1  0  0  0  0
 31 29  1  0  0  0  0
M  END
>  <MODEL>
5

>  <REMARK>
 VINA RESULT:     -10.8      1.996      8.054
  Name = 
  2 active torsions:
  status: ('A' for Active; 'I' for Inactive)
    1  A    between atoms: N_2  and  C_24
    2  A    between atoms: N_10  and  C_24
                            x       y       z     vdW  Elec       q    Type
                         _______ _______ _______ _____ _____    ______ ____

>  <TORSDO>
F 2

$$$$
=
 OpenBabel11052416523D

 32 37  0  0  1  0  0  0  0  0999 V2000
  183.3110  178.8420  143.8470 N   0  0  0  0  0  0  0  0  0  0  0  0
  188.2590  177.8470  142.7560 C   0  0  0  0  0  0  0  0  0  0  0  0
  190.0510  177.0950  147.2680 C   0  0  0  0  0  3  0  0  0  0  0  0
  191.3050  176.5210  146.6700 C   0  0  0  0  0  2  0  0  0  0  0  0
  190.1030  177.5020  140.9770 C   0  0  0  0  0  0  0  0  0  0  0  0
  189.5010  177.5340  139.7200 C   0  0  0  0  0  3  0  0  0  0  0  0
  185.6920  178.0350  142.4890 C   0  0  1  0  0  3  0  0  0  0  0  0
  186.7400  177.9380  144.7480 C   0  0  0  0  0  3  0  0  0  0  0  0
  192.2410  177.0380  140.0370 C   0  0  0  0  0  0  0  0  0  0  0  0
  184.3100  178.1540  144.6730 C   0  0  0  0  0  2  0  0  0  0  0  0
  189.0570  177.5320  146.4890 C   0  0  0  0  0  3  0  0  0  0  0  0
  188.0910  177.7800  144.1660 C   0  0  0  0  0  0  0  0  0  0  0  0
  189.2080  177.5600  145.0160 C   0  0  0  0  0  0  0  0  0  0  0  0
  190.6380  177.4090  143.0840 C   0  0  0  0  0  0  0  0  0  0  0  0
  191.6860  177.0700  138.7520 C   0  0  0  0  0  3  0  0  0  0  0  0
  183.6180  179.3790  142.5490 C   0  0  0  0  0  3  0  0  0  0  0  0
  185.6480  178.0880  143.9980 C   0  0  0  0  0  0  0  0  0  0  0  0
  190.3120  177.3200  138.5990 C   0  0  0  0  0  3  0  0  0  0  0  0
  184.7390  179.0440  141.9120 C   0  0  0  0  0  3  0  0  0  0  0  0
  191.6920  177.2390  145.3730 C   0  0  0  0  0  2  0  0  0  0  0  0
  190.4990  177.3780  144.4680 C   0  0  0  0  0  0  0  0  0  0  0  0
  191.7710  177.1940  142.3810 N   0  0  0  0  0  0  0  0  0  0  0  0
  187.0820  178.1940  141.9210 C   0  0  0  0  0  0  0  0  0  0  0  0
  187.2270  178.6250  140.7450 O   0  0  0  0  0  0  0  0  0  0  0  0
  193.6930  176.7560  140.2180 C   0  0  0  0  0  1  0  0  0  0  0  0
  189.5560  177.6200  142.2470 C   0  0  0  0  0  0  0  0  0  0  0  0
  191.4230  177.2510  141.1030 N   0  0  0  0  0  0  0  0  0  0  0  0
  182.0030  179.1010  144.4350 C   0  0  0  0  0  2  0  0  0  0  0  0
  179.8640  178.2180  143.3920 C   0  0  0  0  0  0  0  0  0  0  0  0
  180.9760  179.1180  143.4020 N   0  0  0  0  0  2  0  0  0  0  0  0
  178.9430  178.2510  142.3080 N   0  0  0  0  0  1  0  0  0  0  0  0
  179.6800  177.4100  144.3420 O   0  0  0  0  0  0  0  0  0  0  0  0
  1 28  1  0  0  0  0
  1 10  1  0  0  0  0
  2 12  2  0  0  0  0
  4  3  1  0  0  0  0
  5 27  1  0  0  0  0
  5 26  2  0  0  0  0
  6  5  1  0  0  0  0
  7 19  1  6  0  0  0
  7 17  1  0  0  0  0
  9 25  1  0  0  0  0
  9 27  1  0  0  0  0
 11  3  2  0  0  0  0
 12  8  1  0  0  0  0
 12 13  1  0  0  0  0
 13 11  1  0  0  0  0
 14 21  1  0  0  0  0
 15  9  2  0  0  0  0
 16  1  1  0  0  0  0
 17 10  1  0  0  0  0
 17  8  2  0  0  0  0
 18 15  1  0  0  0  0
 18  6  2  0  0  0  0
 19 16  2  0  0  0  0
 20  4  1  0  0  0  0
 21 13  2  0  0  0  0
 21 20  1  0  0  0  0
 22 14  2  0  0  0  0
 23  7  1  0  0  0  0
 23  2  1  0  0  0  0
 24 23  2  0  0  0  0
 26  2  1  0  0  0  0
 26 14  1  0  0  0  0
 27 22  1  0  0  0  0
 29 30  1  0  0  0  0
 29 32  2  0  0  0  0
 30 28  1  0  0  0  0
 31 29  1  0  0  0  0
M  END
>  <MODEL>
6

>  <REMARK>
 VINA RESULT:     -10.5      3.063      8.696
  Name = 
  2 active torsions:
  status: ('A' for Active; 'I' for Inactive)
    1  A    between atoms: N_2  and  C_24
    2  A    between atoms: N_10  and  C_24
                            x       y       z     vdW  Elec       q    Type
                         _______ _______ _______ _____ _____    ______ ____

>  <TORSDO>
F 2

$$$$
=
 OpenBabel11052416523D

 32 37  0  0  1  0  0  0  0  0999 V2000
  181.1640  179.3880  139.9700 N   0  0  0  0  0  0  0  0  0  0  0  0
  185.8780  178.4110  141.8380 C   0  0  0  0  0  0  0  0  0  0  0  0
  184.9310  178.2530  146.6560 C   0  0  0  0  0  3  0  0  0  0  0  0
  186.2850  177.6490  146.8990 C   0  0  0  0  0  2  0  0  0  0  0  0
  188.3740  177.9090  141.3860 C   0  0  0  0  0  0  0  0  0  0  0  0
  188.5430  177.7740  140.0090 C   0  0  0  0  0  3  0  0  0  0  0  0
  183.8680  178.4930  140.2110 C   0  0  1  0  0  3  0  0  0  0  0  0
  183.5320  178.6950  142.6730 C   0  0  0  0  0  3  0  0  0  0  0  0
  190.6610  177.3980  141.8070 C   0  0  0  0  0  0  0  0  0  0  0  0
  181.5340  178.8310  141.2770 C   0  0  0  0  0  2  0  0  0  0  0  0
  184.5310  178.5660  145.4200 C   0  0  0  0  0  3  0  0  0  0  0  0
  184.9760  178.5080  142.9320 C   0  0  0  0  0  0  0  0  0  0  0  0
  185.4500  178.4220  144.2690 C   0  0  0  0  0  0  0  0  0  0  0  0
  187.6880  178.0830  143.4430 C   0  0  0  0  0  0  0  0  0  0  0  0
  190.8860  177.2610  140.4310 C   0  0  0  0  0  3  0  0  0  0  0  0
  182.1420  179.7750  138.9900 C   0  0  0  0  0  3  0  0  0  0  0  0
  183.0210  178.7240  141.4410 C   0  0  0  0  0  0  0  0  0  0  0  0
  189.8210  177.4510  139.5350 C   0  0  0  0  0  3  0  0  0  0  0  0
  183.4160  179.3980  139.1000 C   0  0  0  0  0  3  0  0  0  0  0  0
  187.3380  178.2180  145.9420 C   0  0  0  0  0  2  0  0  0  0  0  0
  186.8250  178.2130  144.5280 C   0  0  0  0  0  0  0  0  0  0  0  0
  189.0110  177.8180  143.4910 N   0  0  0  0  0  0  0  0  0  0  0  0
  185.3500  178.6220  140.4680 C   0  0  0  0  0  0  0  0  0  0  0  0
  186.1220  178.9140  139.5140 O   0  0  0  0  0  0  0  0  0  0  0  0
  191.7750  177.1800  142.7720 C   0  0  0  0  0  1  0  0  0  0  0  0
  187.2350  178.1620  142.1380 C   0  0  0  0  0  0  0  0  0  0  0  0
  189.4080  177.7130  142.2310 N   0  0  0  0  0  0  0  0  0  0  0  0
  179.7570  179.6770  139.7260 C   0  0  0  0  0  2  0  0  0  0  0  0
  179.1630  182.0730  139.1390 C   0  0  0  0  0  0  0  0  0  0  0  0
  179.6210  180.7690  138.7720 N   0  0  0  0  0  2  0  0  0  0  0  0
  178.9890  183.0650  138.1340 N   0  0  0  0  0  1  0  0  0  0  0  0
  178.9310  182.3600  140.3440 O   0  0  0  0  0  0  0  0  0  0  0  0
  1 10  1  0  0  0  0
  2 26  1  0  0  0  0
  2 12  2  0  0  0  0
  3  4  1  0  0  0  0
  5 26  2  0  0  0  0
  5 27  1  0  0  0  0
  6  5  1  0  0  0  0
  7 19  1  6  0  0  0
  7 23  1  0  0  0  0
  7 17  1  0  0  0  0
  8 12  1  0  0  0  0
  9 27  1  0  0  0  0
  9 25  1  0  0  0  0
 10 17  1  0  0  0  0
 11  3  2  0  0  0  0
 12 13  1  0  0  0  0
 13 21  2  0  0  0  0
 13 11  1  0  0  0  0
 14 22  2  0  0  0  0
 14 21  1  0  0  0  0
 15  9  2  0  0  0  0
 16 19  2  0  0  0  0
 16  1  1  0  0  0  0
 17  8  2  0  0  0  0
 18  6  2  0  0  0  0
 18 15  1  0  0  0  0
 20  4  1  0  0  0  0
 21 20  1  0  0  0  0
 23  2  1  0  0  0  0
 24 23  2  0  0  0  0
 26 14  1  0  0  0  0
 27 22  1  0  0  0  0
 28  1  1  0  0  0  0
 29 32  2  0  0  0  0
 30 29  1  0  0  0  0
 30 28  1  0  0  0  0
 31 29  1  0  0  0  0
M  END
>  <MODEL>
7

>  <REMARK>
 VINA RESULT:     -10.3      3.071      9.238
  Name = 
  2 active torsions:
  status: ('A' for Active; 'I' for Inactive)
    1  A    between atoms: N_2  and  C_24
    2  A    between atoms: N_10  and  C_24
                            x       y       z     vdW  Elec       q    Type
                         _______ _______ _______ _____ _____    ______ ____

>  <TORSDO>
F 2

$$$$
=
 OpenBabel11052416523D

 32 37  0  0  1  0  0  0  0  0999 V2000
  181.8000  179.1470  140.3830 N   0  0  0  0  0  0  0  0  0  0  0  0
  186.8130  178.1770  141.1550 C   0  0  0  0  0  0  0  0  0  0  0  0
  186.9210  177.8000  146.0510 C   0  0  0  0  0  3  0  0  0  0  0  0
  188.3010  177.2100  145.9720 C   0  0  0  0  0  2  0  0  0  0  0  0
  189.1580  177.7380  140.1570 C   0  0  0  0  0  0  0  0  0  0  0  0
  189.0290  177.6640  138.7720 C   0  0  0  0  0  3  0  0  0  0  0  0
  184.4990  178.2900  140.0000 C   0  0  1  0  0  3  0  0  0  0  0  0
  184.6970  178.3830  142.4830 C   0  0  0  0  0  3  0  0  0  0  0  0
  191.4860  177.2500  140.0560 C   0  0  0  0  0  0  0  0  0  0  0  0
  182.4460  178.5430  141.5540 C   0  0  0  0  0  2  0  0  0  0  0  0
  186.2630  178.1570  144.9450 C   0  0  0  0  0  3  0  0  0  0  0  0
  186.1650  178.2110  142.4190 C   0  0  0  0  0  0  0  0  0  0  0  0
  186.9150  178.0780  143.6180 C   0  0  0  0  0  0  0  0  0  0  0  0
  188.9260  177.8140  142.3200 C   0  0  0  0  0  0  0  0  0  0  0  0
  191.4110  177.1750  138.6590 C   0  0  0  0  0  3  0  0  0  0  0  0
  182.5420  179.5920  139.2340 C   0  0  0  0  0  3  0  0  0  0  0  0
  183.9340  178.4550  141.3920 C   0  0  0  0  0  0  0  0  0  0  0  0
  190.1780  177.3830  138.0210 C   0  0  0  0  0  3  0  0  0  0  0  0
  183.8130  179.2340  139.0530 C   0  0  0  0  0  3  0  0  0  0  0  0
  189.1190  177.8370  144.8390 C   0  0  0  0  0  2  0  0  0  0  0  0
  188.3150  177.8830  143.5680 C   0  0  0  0  0  0  0  0  0  0  0  0
  190.2310  177.5700  142.0720 N   0  0  0  0  0  0  0  0  0  0  0  0
  186.0010  178.4350  139.9400 C   0  0  0  0  0  0  0  0  0  0  0  0
  186.5480  178.7810  138.8570 O   0  0  0  0  0  0  0  0  0  0  0  0
  192.7830  177.0120  140.7510 C   0  0  0  0  0  1  0  0  0  0  0  0
  188.2040  177.9390  141.1460 C   0  0  0  0  0  0  0  0  0  0  0  0
  190.3500  177.5250  140.7520 N   0  0  0  0  0  0  0  0  0  0  0  0
  180.3710  179.4210  140.4580 C   0  0  0  0  0  2  0  0  0  0  0  0
  179.4680  179.6730  142.8170 C   0  0  0  0  0  0  0  0  0  0  0  0
  179.8110  178.8690  141.6850 N   0  0  0  0  0  2  0  0  0  0  0  0
  178.9930  179.0490  144.0040 N   0  0  0  0  0  1  0  0  0  0  0  0
  179.5620  180.9290  142.7680 O   0  0  0  0  0  0  0  0  0  0  0  0
  1 28  1  0  0  0  0
  1 10  1  0  0  0  0
  2 12  2  0  0  0  0
  4  3  1  0  0  0  0
  5 27  1  0  0  0  0
  5 26  2  0  0  0  0
  6  5  1  0  0  0  0
  7 19  1  6  0  0  0
  7 17  1  0  0  0  0
  9 25  1  0  0  0  0
  9 27  1  0  0  0  0
 11  3  2  0  0  0  0
 12  8  1  0  0  0  0
 12 13  1  0  0  0  0
 13 11  1  0  0  0  0
 14 21  1  0  0  0  0
 15  9  2  0  0  0  0
 16  1  1  0  0  0  0
 17 10  1  0  0  0  0
 17  8  2  0  0  0  0
 18 15  1  0  0  0  0
 18  6  2  0  0  0  0
 19 16  2  0  0  0  0
 20  4  1  0  0  0  0
 21 13  2  0  0  0  0
 21 20  1  0  0  0  0
 22 14  2  0  0  0  0
 23  7  1  0  0  0  0
 23  2  1  0  0  0  0
 24 23  2  0  0  0  0
 26  2  1  0  0  0  0
 26 14  1  0  0  0  0
 27 22  1  0  0  0  0
 28 30  1  0  0  0  0
 29 31  1  0  0  0  0
 30 29  1  0  0  0  0
 32 29  2  0  0  0  0
M  END
>  <MODEL>
8

>  <REMARK>
 VINA RESULT:      -9.7      3.022      8.851
  Name = 
  2 active torsions:
  status: ('A' for Active; 'I' for Inactive)
    1  A    between atoms: N_2  and  C_24
    2  A    between atoms: N_10  and  C_24
                            x       y       z     vdW  Elec       q    Type
                         _______ _______ _______ _____ _____    ______ ____

>  <TORSDO>
F 2

$$$$
=
 OpenBabel11052416523D

 32 37  0  0  1  0  0  0  0  0999 V2000
  188.7810  177.7920  138.7410 N   0  0  0  0  0  0  0  0  0  0  0  0
  184.6990  178.4980  141.8250 C   0  0  0  0  0  0  0  0  0  0  0  0
  186.8300  178.1750  146.2390 C   0  0  0  0  0  3  0  0  0  0  0  0
  185.5870  178.7300  146.8760 C   0  0  0  0  0  2  0  0  0  0  0  0
  182.1760  179.0050  142.0690 C   0  0  0  0  0  0  0  0  0  0  0  0
  181.6670  179.2780  140.8000 C   0  0  0  0  0  3  0  0  0  0  0  0
  186.2350  178.6150  139.7450 C   0  0  1  0  0  3  0  0  0  0  0  0
  187.1770  178.1660  142.0090 C   0  0  0  0  0  3  0  0  0  0  0  0
  180.0740  179.4350  143.1010 C   0  0  0  0  0  0  0  0  0  0  0  0
  188.7570  178.2050  140.1490 C   0  0  0  0  0  2  0  0  0  0  0  0
  186.9030  177.9970  144.9170 C   0  0  0  0  0  3  0  0  0  0  0  0
  185.8470  178.3030  142.6400 C   0  0  0  0  0  0  0  0  0  0  0  0
  185.7250  178.2440  144.0550 C   0  0  0  0  0  0  0  0  0  0  0  0
  183.3560  178.6310  143.8580 C   0  0  0  0  0  0  0  0  0  0  0  0
  179.5120  179.7090  141.8480 C   0  0  0  0  0  3  0  0  0  0  0  0
  187.5830  177.4920  138.0030 C   0  0  0  0  0  3  0  0  0  0  0  0
  187.3610  178.2720  140.6920 C   0  0  0  0  0  0  0  0  0  0  0  0
  180.3150  179.6290  140.6990 C   0  0  0  0  0  3  0  0  0  0  0  0
  186.3820  177.8350  138.4690 C   0  0  0  0  0  3  0  0  0  0  0  0
  184.3220  178.2460  146.1610 C   0  0  0  0  0  2  0  0  0  0  0  0
  184.4620  178.4040  144.6710 C   0  0  0  0  0  0  0  0  0  0  0  0
  182.0900  178.8690  144.2650 N   0  0  0  0  0  0  0  0  0  0  0  0
  184.8640  178.4370  140.3510 C   0  0  0  0  0  0  0  0  0  0  0  0
  183.8730  178.2320  139.5980 O   0  0  0  0  0  0  0  0  0  0  0  0
  179.2410  179.5350  144.3330 C   0  0  0  0  0  1  0  0  0  0  0  0
  183.4640  178.6930  142.4800 C   0  0  0  0  0  0  0  0  0  0  0  0
  181.3900  179.0970  143.1620 N   0  0  0  0  0  0  0  0  0  0  0  0
  190.0780  177.5510  138.1220 C   0  0  0  0  0  2  0  0  0  0  0  0
  190.2940  175.2220  137.1360 C   0  0  0  0  0  0  0  0  0  0  0  0
  190.4350  176.1420  138.2220 N   0  0  0  0  0  2  0  0  0  0  0  0
  190.5980  173.8470  137.3360 N   0  0  0  0  0  1  0  0  0  0  0  0
  189.9230  175.6200  135.9990 O   0  0  0  0  0  0  0  0  0  0  0  0
  1 10  1  0  0  0  0
  2 26  1  0  0  0  0
  2 12  2  0  0  0  0
  3  4  1  0  0  0  0
  5 26  2  0  0  0  0
  5 27  1  0  0  0  0
  6  5  1  0  0  0  0
  7 19  1  6  0  0  0
  7 23  1  0  0  0  0
  7 17  1  0  0  0  0
  8 12  1  0  0  0  0
  9 27  1  0  0  0  0
  9 25  1  0  0  0  0
 10 17  1  0  0  0  0
 11  3  2  0  0  0  0
 12 13  1  0  0  0  0
 13 21  2  0  0  0  0
 13 11  1  0  0  0  0
 14 22  2  0  0  0  0
 14 21  1  0  0  0  0
 15  9  2  0  0  0  0
 16 19  2  0  0  0  0
 16  1  1  0  0  0  0
 17  8  2  0  0  0  0
 18  6  2  0  0  0  0
 18 15  1  0  0  0  0
 20  4  1  0  0  0  0
 21 20  1  0  0  0  0
 23  2  1  0  0  0  0
 24 23  2  0  0  0  0
 26 14  1  0  0  0  0
 27 22  1  0  0  0  0
 28 30  1  0  0  0  0
 28  1  1  0  0  0  0
 29 31  1  0  0  0  0
 29 30  1  0  0  0  0
 32 29  2  0  0  0  0
M  END
>  <MODEL>
9

>  <REMARK>
 VINA RESULT:      -9.6      3.814      6.115
  Name = 
  2 active torsions:
  status: ('A' for Active; 'I' for Inactive)
    1  A    between atoms: N_2  and  C_24
    2  A    between atoms: N_10  and  C_24
                            x       y       z     vdW  Elec       q    Type
                         _______ _______ _______ _____ _____    ______ ____

>  <TORSDO>
F 2

$$$$
