=
 OpenBabel11052413443D

 27 31  0  0  1  0  0  0  0  0999 V2000
  188.2410  176.1200  143.4690 C   0  0  0  0  0  2  0  0  0  0  0  0
  186.6740  177.7540  144.5830 C   0  0  1  0  0  3  0  0  0  0  0  0
  186.8540  178.4190  142.2570 O   0  0  0  0  0  0  0  0  0  0  0  0
  182.5790  178.9190  144.3620 C   0  0  0  0  0  3  0  0  0  0  0  0
  180.5910  179.7700  143.1140 C   0  0  0  0  0  1  0  0  0  0  0  0
  185.7030  177.1920  145.6140 C   0  0  0  0  0  2  0  0  0  0  0  0
  184.0190  178.6480  141.9820 C   0  0  0  0  0  3  0  0  0  0  0  0
  188.9650  178.1320  139.4970 C   0  0  0  0  0  3  0  0  0  0  0  0
  182.7050  179.1210  141.9550 C   0  0  0  0  0  3  0  0  0  0  0  0
  189.7880  177.0920  139.3960 C   0  0  0  0  0  3  0  0  0  0  0  0
  184.6330  178.3230  143.1990 C   0  0  0  0  0  0  0  0  0  0  0  0
  187.9300  176.9940  144.5990 N   0  0  0  0  0  0  0  0  0  0  0  0
  181.9870  179.2600  143.1440 C   0  0  0  0  0  0  0  0  0  0  0  0
  183.8900  178.4320  144.3990 C   0  0  0  0  0  0  0  0  0  0  0  0
  188.7770  176.9170  142.3190 C   0  0  0  0  0  0  0  0  0  0  0  0
  186.0230  177.7340  143.1920 C   0  0  2  0  0  3  0  0  0  0  0  0
  188.7620  178.8630  140.7800 C   0  0  0  0  0  2  0  0  0  0  0  0
  184.5040  178.1250  145.7350 C   0  0  0  0  0  2  0  0  0  0  0  0
  190.5130  176.4960  140.5330 C   0  0  0  0  0  3  0  0  0  0  0  0
  190.0770  176.4330  141.7970 C   0  0  0  0  0  3  0  0  0  0  0  0
  188.1220  177.9970  141.8160 C   0  0  0  0  0  0  0  0  0  0  0  0
  190.8200  177.6510  147.6520 C   0  0  0  0  0  3  0  0  0  0  0  0
  188.9110  177.2180  145.6330 C   0  0  0  0  0  0  0  0  0  0  0  0
  190.2620  176.8920  145.4230 C   0  0  0  0  0  3  0  0  0  0  0  0
  191.2110  177.1080  146.4250 C   0  0  0  0  0  3  0  0  0  0  0  0
  189.4810  177.9800  147.8740 C   0  0  0  0  0  3  0  0  0  0  0  0
  188.5320  177.7650  146.8710 C   0  0  0  0  0  3  0  0  0  0  0  0
  1 12  1  0  0  0  0
  2 12  1  0  0  0  0
  2  6  1  1  0  0  0
  4 14  1  0  0  0  0
  5 13  1  0  0  0  0
  6 18  1  0  0  0  0
  7 11  1  0  0  0  0
  8 17  1  0  0  0  0
  9  7  2  0  0  0  0
  9 13  1  0  0  0  0
 10  8  2  0  0  0  0
 10 19  1  0  0  0  0
 11 14  2  0  0  0  0
 12 23  1  0  0  0  0
 13  4  2  0  0  0  0
 14 18  1  0  0  0  0
 15  1  1  0  0  0  0
 16  3  1  6  0  0  0
 16 11  1  0  0  0  0
 16  2  1  0  0  0  0
 17 21  1  0  0  0  0
 19 20  2  0  0  0  0
 20 15  1  0  0  0  0
 21  3  1  0  0  0  0
 21 15  2  0  0  0  0
 22 26  1  0  0  0  0
 23 27  1  0  0  0  0
 24 23  2  0  0  0  0
 24 25  1  0  0  0  0
 25 22  2  0  0  0  0
 27 26  2  0  0  0  0
M  END
>  <MODEL>
1

>  <REMARK>
 VINA RESULT:      -9.7      0.000      0.000
  Name = 
  1 active torsions:
  status: ('A' for Active; 'I' for Inactive)
    1  A    between atoms: C_9  and  N_15
                            x       y       z     vdW  Elec       q    Type
                         _______ _______ _______ _____ _____    ______ ____

>  <TORSDO>
F 1

$$$$
=
 OpenBabel11052413443D

 27 31  0  0  1  0  0  0  0  0999 V2000
  187.5070  176.3800  143.9000 C   0  0  0  0  0  2  0  0  0  0  0  0
  185.7680  178.1050  144.5040 C   0  0  1  0  0  3  0  0  0  0  0  0
  186.4240  178.5360  142.2090 O   0  0  0  0  0  0  0  0  0  0  0  0
  181.8180  179.2110  143.3430 C   0  0  0  0  0  3  0  0  0  0  0  0
  180.1360  179.9180  141.6400 C   0  0  0  0  0  1  0  0  0  0  0  0
  184.6010  177.6410  145.3680 C   0  0  0  0  0  2  0  0  0  0  0  0
  183.7070  178.7150  141.3440 C   0  0  0  0  0  3  0  0  0  0  0  0
  189.0460  177.9910  139.9770 C   0  0  0  0  0  3  0  0  0  0  0  0
  182.4310  179.1730  141.0030 C   0  0  0  0  0  3  0  0  0  0  0  0
  189.8590  176.9510  140.1490 C   0  0  0  0  0  3  0  0  0  0  0  0
  184.0570  178.5180  142.6860 C   0  0  0  0  0  0  0  0  0  0  0  0
  186.9840  177.3600  144.8500 N   0  0  0  0  0  0  0  0  0  0  0  0
  181.4900  179.4250  142.0020 C   0  0  0  0  0  0  0  0  0  0  0  0
  183.0880  178.7410  143.6930 C   0  0  0  0  0  0  0  0  0  0  0  0
  188.2750  177.0620  142.8080 C   0  0  0  0  0  0  0  0  0  0  0  0
  185.4120  177.9420  143.0190 C   0  0  2  0  0  3  0  0  0  0  0  0
  188.5970  178.8440  141.1130 C   0  0  0  0  0  2  0  0  0  0  0  0
  183.4150  178.5730  145.1500 C   0  0  0  0  0  2  0  0  0  0  0  0
  190.3310  176.4780  141.4630 C   0  0  0  0  0  3  0  0  0  0  0  0
  189.6470  176.5380  142.6120 C   0  0  0  0  0  3  0  0  0  0  0  0
  187.7500  178.0810  142.0790 C   0  0  0  0  0  0  0  0  0  0  0  0
  189.2130  178.3490  148.3380 C   0  0  0  0  0  3  0  0  0  0  0  0
  187.7390  177.6940  146.0340 C   0  0  0  0  0  0  0  0  0  0  0  0
  187.1090  178.2850  147.1430 C   0  0  0  0  0  3  0  0  0  0  0  0
  187.8420  178.6090  148.2880 C   0  0  0  0  0  3  0  0  0  0  0  0
  189.8520  177.7620  147.2420 C   0  0  0  0  0  3  0  0  0  0  0  0
  189.1190  177.4360  146.0980 C   0  0  0  0  0  3  0  0  0  0  0  0
  1 12  1  0  0  0  0
  2 12  1  0  0  0  0
  2  6  1  1  0  0  0
  4 14  1  0  0  0  0
  5 13  1  0  0  0  0
  7 11  1  0  0  0  0
  8 10  2  0  0  0  0
  8 17  1  0  0  0  0
  9  7  2  0  0  0  0
  9 13  1  0  0  0  0
 10 19  1  0  0  0  0
 11 16  1  0  0  0  0
 11 14  2  0  0  0  0
 12 23  1  0  0  0  0
 13  4  2  0  0  0  0
 14 18  1  0  0  0  0
 15  1  1  0  0  0  0
 16  3  1  6  0  0  0
 16  2  1  0  0  0  0
 17 21  1  0  0  0  0
 18  6  1  0  0  0  0
 19 20  2  0  0  0  0
 20 15  1  0  0  0  0
 21  3  1  0  0  0  0
 21 15  2  0  0  0  0
 23 27  2  0  0  0  0
 23 24  1  0  0  0  0
 24 25  2  0  0  0  0
 25 22  1  0  0  0  0
 26 22  2  0  0  0  0
 27 26  1  0  0  0  0
M  END
>  <MODEL>
2

>  <REMARK>
 VINA RESULT:      -9.5      0.911      1.466
  Name = 
  1 active torsions:
  status: ('A' for Active; 'I' for Inactive)
    1  A    between atoms: C_9  and  N_15
                            x       y       z     vdW  Elec       q    Type
                         _______ _______ _______ _____ _____    ______ ____

>  <TORSDO>
F 1

$$$$
=
 OpenBabel11052413443D

 27 31  0  0  1  0  0  0  0  0999 V2000
  189.6350  178.5680  144.5230 C   0  0  0  0  0  2  0  0  0  0  0  0
  190.2660  177.1920  142.5050 C   0  0  1  0  0  3  0  0  0  0  0  0
  187.8570  177.4750  142.4440 O   0  0  0  0  0  0  0  0  0  0  0  0
  190.1800  177.5200  138.2550 C   0  0  0  0  0  3  0  0  0  0  0  0
  188.9840  177.8800  136.0930 C   0  0  0  0  0  1  0  0  0  0  0  0
  191.5510  177.5720  141.7800 C   0  0  0  0  0  2  0  0  0  0  0  0
  187.8990  178.2500  139.6950 C   0  0  0  0  0  3  0  0  0  0  0  0
  185.1420  178.1630  144.5210 C   0  0  0  0  0  3  0  0  0  0  0  0
  187.8750  178.2530  138.2980 C   0  0  0  0  0  3  0  0  0  0  0  0
  185.3240  178.8530  145.6440 C   0  0  0  0  0  3  0  0  0  0  0  0
  189.0560  177.8660  140.3860 C   0  0  0  0  0  0  0  0  0  0  0  0
  190.3930  177.4620  143.9410 N   0  0  0  0  0  0  0  0  0  0  0  0
  189.0130  177.8840  137.5790 C   0  0  0  0  0  0  0  0  0  0  0  0
  190.2190  177.5270  139.6530 C   0  0  0  0  0  0  0  0  0  0  0  0
  188.2110  178.1660  144.7590 C   0  0  0  0  0  0  0  0  0  0  0  0
  189.0810  177.9550  141.8920 C   0  0  2  0  0  3  0  0  0  0  0  0
  186.0800  177.0870  144.0910 C   0  0  0  0  0  2  0  0  0  0  0  0
  191.4790  177.0810  140.3390 C   0  0  0  0  0  2  0  0  0  0  0  0
  186.4920  178.7020  146.5300 C   0  0  0  0  0  3  0  0  0  0  0  0
  187.7360  178.3930  146.1440 C   0  0  0  0  0  3  0  0  0  0  0  0
  187.4380  177.6260  143.7800 C   0  0  0  0  0  0  0  0  0  0  0  0
  192.5590  174.8050  146.4630 C   0  0  0  0  0  3  0  0  0  0  0  0
  191.1290  176.5610  144.7950 C   0  0  0  0  0  0  0  0  0  0  0  0
  191.6810  175.3750  144.2810 C   0  0  0  0  0  3  0  0  0  0  0  0
  192.3920  174.5030  145.1090 C   0  0  0  0  0  3  0  0  0  0  0  0
  192.0160  175.9800  146.9870 C   0  0  0  0  0  3  0  0  0  0  0  0
  191.3060  176.8530  146.1580 C   0  0  0  0  0  3  0  0  0  0  0  0
  1 15  1  0  0  0  0
  2  6  1  6  0  0  0
  2 12  1  0  0  0  0
  3 21  1  0  0  0  0
  4 14  1  0  0  0  0
  5 13  1  0  0  0  0
  7 11  1  0  0  0  0
  8 10  2  0  0  0  0
  9  7  2  0  0  0  0
 10 19  1  0  0  0  0
 12  1  1  0  0  0  0
 12 23  1  0  0  0  0
 13  4  2  0  0  0  0
 13  9  1  0  0  0  0
 14 18  1  0  0  0  0
 14 11  2  0  0  0  0
 15 20  1  0  0  0  0
 16 11  1  6  0  0  0
 16  3  1  0  0  0  0
 16  2  1  0  0  0  0
 17  8  1  0  0  0  0
 18  6  1  0  0  0  0
 20 19  2  0  0  0  0
 21 17  1  0  0  0  0
 21 15  2  0  0  0  0
 22 26  1  0  0  0  0
 23 27  1  0  0  0  0
 24 23  2  0  0  0  0
 24 25  1  0  0  0  0
 25 22  2  0  0  0  0
 27 26  2  0  0  0  0
M  END
>  <MODEL>
3

>  <REMARK>
 VINA RESULT:      -9.0      2.017      5.787
  Name = 
  1 active torsions:
  status: ('A' for Active; 'I' for Inactive)
    1  A    between atoms: C_9  and  N_15
                            x       y       z     vdW  Elec       q    Type
                         _______ _______ _______ _____ _____    ______ ____

>  <TORSDO>
F 1

$$$$
=
 OpenBabel11052413443D

 27 31  0  0  1  0  0  0  0  0999 V2000
  188.6450  179.1060  141.5020 C   0  0  0  0  0  2  0  0  0  0  0  0
  186.3610  178.1680  140.9830 C   0  0  1  0  0  3  0  0  0  0  0  0
  186.8160  177.6760  143.3150 O   0  0  0  0  0  0  0  0  0  0  0  0
  182.3070  178.7920  142.1430 C   0  0  0  0  0  3  0  0  0  0  0  0
  180.4980  178.9260  143.8580 C   0  0  0  0  0  1  0  0  0  0  0  0
  185.4640  178.9920  140.0690 C   0  0  0  0  0  2  0  0  0  0  0  0
  184.2570  178.6430  144.1390 C   0  0  0  0  0  3  0  0  0  0  0  0
  189.4620  177.2990  145.5540 C   0  0  0  0  0  3  0  0  0  0  0  0
  182.9080  178.7500  144.4860 C   0  0  0  0  0  3  0  0  0  0  0  0
  190.6170  177.9190  145.3270 C   0  0  0  0  0  3  0  0  0  0  0  0
  184.6430  178.5920  142.7930 C   0  0  0  0  0  0  0  0  0  0  0  0
  187.7690  178.3470  140.6110 N   0  0  0  0  0  0  0  0  0  0  0  0
  181.9330  178.8200  143.4880 C   0  0  0  0  0  0  0  0  0  0  0  0
  183.6560  178.6990  141.7850 C   0  0  0  0  0  0  0  0  0  0  0  0
  189.0930  178.2550  142.6520 C   0  0  0  0  0  0  0  0  0  0  0  0
  186.1120  178.5620  142.4470 C   0  0  2  0  0  3  0  0  0  0  0  0
  188.7020  176.6140  144.4700 C   0  0  0  0  0  2  0  0  0  0  0  0
  184.0080  178.6210  140.3270 C   0  0  0  0  0  2  0  0  0  0  0  0
  191.2250  178.0740  143.9930 C   0  0  0  0  0  3  0  0  0  0  0  0
  190.5620  178.2090  142.8380 C   0  0  0  0  0  3  0  0  0  0  0  0
  188.2150  177.5790  143.4390 C   0  0  0  0  0  0  0  0  0  0  0  0
  189.3920  176.3180  137.2410 C   0  0  0  0  0  3  0  0  0  0  0  0
  188.3200  177.6610  139.4670 C   0  0  0  0  0  0  0  0  0  0  0  0
  187.5910  177.5640  138.2690 C   0  0  0  0  0  3  0  0  0  0  0  0
  188.1240  176.8980  137.1630 C   0  0  0  0  0  3  0  0  0  0  0  0
  190.1280  176.4060  138.4260 C   0  0  0  0  0  3  0  0  0  0  0  0
  189.5940  177.0740  139.5310 C   0  0  0  0  0  3  0  0  0  0  0  0
  1 15  1  0  0  0  0
  2  6  1  6  0  0  0
  2 16  1  0  0  0  0
  3 21  1  0  0  0  0
  4 13  1  0  0  0  0
  6 18  1  0  0  0  0
  7  9  1  0  0  0  0
 10  8  2  0  0  0  0
 11  7  2  0  0  0  0
 12  2  1  0  0  0  0
 12  1  1  0  0  0  0
 13  5  1  0  0  0  0
 13  9  2  0  0  0  0
 14  4  2  0  0  0  0
 14 11  1  0  0  0  0
 15 20  1  0  0  0  0
 15 21  2  0  0  0  0
 16 11  1  1  0  0  0
 16  3  1  0  0  0  0
 17  8  1  0  0  0  0
 18 14  1  0  0  0  0
 19 10  1  0  0  0  0
 20 19  2  0  0  0  0
 21 17  1  0  0  0  0
 22 26  1  0  0  0  0
 23 27  1  0  0  0  0
 23 12  1  0  0  0  0
 24 23  2  0  0  0  0
 25 22  2  0  0  0  0
 25 24  1  0  0  0  0
 26 27  2  0  0  0  0
M  END
>  <MODEL>
4

>  <REMARK>
 VINA RESULT:      -8.9      1.621      5.111
  Name = 
  1 active torsions:
  status: ('A' for Active; 'I' for Inactive)
    1  A    between atoms: C_9  and  N_15
                            x       y       z     vdW  Elec       q    Type
                         _______ _______ _______ _____ _____    ______ ____

>  <TORSDO>
F 1

$$$$
=
 OpenBabel11052413443D

 27 31  0  0  1  0  0  0  0  0999 V2000
  187.1060  179.3230  140.8980 C   0  0  0  0  0  2  0  0  0  0  0  0
  186.0000  178.2840  142.9140 C   0  0  1  0  0  3  0  0  0  0  0  0
  188.2240  177.3280  142.7550 O   0  0  0  0  0  0  0  0  0  0  0  0
  186.5080  178.1830  147.1460 C   0  0  0  0  0  3  0  0  0  0  0  0
  187.8570  177.7260  149.1960 C   0  0  0  0  0  1  0  0  0  0  0  0
  185.1270  179.1920  143.7720 C   0  0  0  0  0  2  0  0  0  0  0  0
  188.7510  177.7980  145.5240 C   0  0  0  0  0  3  0  0  0  0  0  0
  190.7800  176.7430  140.4570 C   0  0  0  0  0  3  0  0  0  0  0  0
  188.8610  177.6760  146.9110 C   0  0  0  0  0  3  0  0  0  0  0  0
  190.8980  177.5210  139.3840 C   0  0  0  0  0  3  0  0  0  0  0  0
  187.5160  178.0960  144.9320 C   0  0  0  0  0  0  0  0  0  0  0  0
  185.9340  178.6960  141.5070 N   0  0  0  0  0  0  0  0  0  0  0  0
  187.7400  177.8640  147.7210 C   0  0  0  0  0  0  0  0  0  0  0  0
  186.3890  178.3210  145.7590 C   0  0  0  0  0  0  0  0  0  0  0  0
  188.1180  178.2880  140.5130 C   0  0  0  0  0  0  0  0  0  0  0  0
  187.4440  178.3060  143.4390 C   0  0  2  0  0  3  0  0  0  0  0  0
  189.4590  176.2440  140.9340 C   0  0  0  0  0  2  0  0  0  0  0  0
  185.0350  178.6150  145.1800 C   0  0  0  0  0  2  0  0  0  0  0  0
  189.7570  178.0410  138.6080 C   0  0  0  0  0  3  0  0  0  0  0  0
  188.5540  178.3610  139.0990 C   0  0  0  0  0  3  0  0  0  0  0  0
  188.5770  177.3590  141.3930 C   0  0  0  0  0  0  0  0  0  0  0  0
  182.5730  177.6760  139.1050 C   0  0  0  0  0  3  0  0  0  0  0  0
  184.7930  178.3520  140.6940 C   0  0  0  0  0  0  0  0  0  0  0  0
  183.6590  177.7490  141.2670 C   0  0  0  0  0  3  0  0  0  0  0  0
  182.5560  177.4150  140.4770 C   0  0  0  0  0  3  0  0  0  0  0  0
  183.6930  178.2740  138.5230 C   0  0  0  0  0  3  0  0  0  0  0  0
  184.7960  178.6100  139.3130 C   0  0  0  0  0  3  0  0  0  0  0  0
  1 12  1  0  0  0  0
  2 16  1  0  0  0  0
  2  6  1  1  0  0  0
  4 13  1  0  0  0  0
  6 18  1  0  0  0  0
  7  9  1  0  0  0  0
  8 17  1  0  0  0  0
  9 13  2  0  0  0  0
 10  8  2  0  0  0  0
 11  7  2  0  0  0  0
 11 14  1  0  0  0  0
 12  2  1  0  0  0  0
 13  5  1  0  0  0  0
 14  4  2  0  0  0  0
 15  1  1  0  0  0  0
 15 21  2  0  0  0  0
 16  3  1  6  0  0  0
 16 11  1  0  0  0  0
 17 21  1  0  0  0  0
 18 14  1  0  0  0  0
 19 20  2  0  0  0  0
 19 10  1  0  0  0  0
 20 15  1  0  0  0  0
 21  3  1  0  0  0  0
 22 25  1  0  0  0  0
 23 24  1  0  0  0  0
 23 12  1  0  0  0  0
 25 24  2  0  0  0  0
 26 22  2  0  0  0  0
 26 27  1  0  0  0  0
 27 23  2  0  0  0  0
M  END
>  <MODEL>
5

>  <REMARK>
 VINA RESULT:      -8.2      1.827      5.886
  Name = 
  1 active torsions:
  status: ('A' for Active; 'I' for Inactive)
    1  A    between atoms: C_9  and  N_15
                            x       y       z     vdW  Elec       q    Type
                         _______ _______ _______ _____ _____    ______ ____

>  <TORSDO>
F 1

$$$$
=
 OpenBabel11052413443D

 27 31  0  0  1  0  0  0  0  0999 V2000
  189.3220  178.2080  137.9420 C   0  0  0  0  0  2  0  0  0  0  0  0
  188.3700  177.4970  140.1680 C   0  0  1  0  0  3  0  0  0  0  0  0
  190.3960  176.2090  139.8210 O   0  0  0  0  0  0  0  0  0  0  0  0
  189.4330  177.6310  144.2940 C   0  0  0  0  0  3  0  0  0  0  0  0
  190.9740  177.1280  146.1930 C   0  0  0  0  0  1  0  0  0  0  0  0
  187.7570  178.5860  141.0400 C   0  0  0  0  0  2  0  0  0  0  0  0
  191.3570  176.7960  142.4470 C   0  0  0  0  0  3  0  0  0  0  0  0
  192.5060  175.0800  137.2860 C   0  0  0  0  0  3  0  0  0  0  0  0
  191.6390  176.7600  143.8150 C   0  0  0  0  0  3  0  0  0  0  0  0
  192.5830  175.7500  136.1390 C   0  0  0  0  0  3  0  0  0  0  0  0
  190.1070  177.2320  141.9890 C   0  0  0  0  0  0  0  0  0  0  0  0
  188.1690  177.8100  138.7480 N   0  0  0  0  0  0  0  0  0  0  0  0
  190.6760  177.1730  144.7380 C   0  0  0  0  0  0  0  0  0  0  0  0
  189.1460  177.6830  142.9260 C   0  0  0  0  0  0  0  0  0  0  0  0
  190.1180  177.0060  137.5310 C   0  0  0  0  0  0  0  0  0  0  0  0
  189.8600  177.3400  140.5040 C   0  0  2  0  0  3  0  0  0  0  0  0
  191.2070  174.8210  137.9680 C   0  0  0  0  0  2  0  0  0  0  0  0
  187.7790  178.1340  142.4960 C   0  0  0  0  0  2  0  0  0  0  0  0
  191.4310  176.3770  135.4670 C   0  0  0  0  0  3  0  0  0  0  0  0
  190.3620  176.9090  136.0730 C   0  0  0  0  0  3  0  0  0  0  0  0
  190.5600  176.0860  138.4280 C   0  0  0  0  0  0  0  0  0  0  0  0
  184.3990  177.1320  136.8950 C   0  0  0  0  0  3  0  0  0  0  0  0
  186.8910  177.5820  138.1190 C   0  0  0  0  0  0  0  0  0  0  0  0
  185.7400  178.2530  138.5680 C   0  0  0  0  0  3  0  0  0  0  0  0
  184.5030  178.0300  137.9590 C   0  0  0  0  0  3  0  0  0  0  0  0
  185.5340  176.4570  136.4380 C   0  0  0  0  0  3  0  0  0  0  0  0
  186.7730  176.6820  137.0470 C   0  0  0  0  0  3  0  0  0  0  0  0
  1 12  1  0  0  0  0
  2 16  1  0  0  0  0
  2  6  1  1  0  0  0
  4 13  1  0  0  0  0
  6 18  1  0  0  0  0
  7  9  1  0  0  0  0
  8 17  1  0  0  0  0
  9 13  2  0  0  0  0
 10  8  2  0  0  0  0
 11  7  2  0  0  0  0
 11 14  1  0  0  0  0
 12  2  1  0  0  0  0
 13  5  1  0  0  0  0
 14  4  2  0  0  0  0
 15  1  1  0  0  0  0
 15 21  2  0  0  0  0
 16  3  1  6  0  0  0
 16 11  1  0  0  0  0
 17 21  1  0  0  0  0
 18 14  1  0  0  0  0
 19 20  2  0  0  0  0
 19 10  1  0  0  0  0
 20 15  1  0  0  0  0
 21  3  1  0  0  0  0
 22 25  1  0  0  0  0
 23 24  1  0  0  0  0
 23 12  1  0  0  0  0
 25 24  2  0  0  0  0
 26 22  2  0  0  0  0
 26 27  1  0  0  0  0
 27 23  2  0  0  0  0
M  END
>  <MODEL>
6

>  <REMARK>
 VINA RESULT:      -8.1      3.377      7.425
  Name = 
  1 active torsions:
  status: ('A' for Active; 'I' for Inactive)
    1  A    between atoms: C_9  and  N_15
                            x       y       z     vdW  Elec       q    Type
                         _______ _______ _______ _____ _____    ______ ____

>  <TORSDO>
F 1

$$$$
=
 OpenBabel11052413443D

 27 31  0  0  1  0  0  0  0  0999 V2000
  189.0660  178.6280  139.9820 C   0  0  0  0  0  2  0  0  0  0  0  0
  186.6570  177.8800  139.9370 C   0  0  1  0  0  3  0  0  0  0  0  0
  187.5400  177.2920  142.1190 O   0  0  0  0  0  0  0  0  0  0  0  0
  182.9900  178.7780  141.9180 C   0  0  0  0  0  3  0  0  0  0  0  0
  181.5890  179.0030  143.9720 C   0  0  0  0  0  1  0  0  0  0  0  0
  185.6590  178.7940  139.2370 C   0  0  0  0  0  2  0  0  0  0  0  0
  185.2910  178.4280  143.4650 C   0  0  0  0  0  3  0  0  0  0  0  0
  190.5510  176.6560  143.7570 C   0  0  0  0  0  3  0  0  0  0  0  0
  184.0550  178.6280  144.0850 C   0  0  0  0  0  3  0  0  0  0  0  0
  191.6810  177.1930  143.3020 C   0  0  0  0  0  3  0  0  0  0  0  0
  185.3870  178.3840  142.0680 C   0  0  0  0  0  0  0  0  0  0  0  0
  187.9680  177.9620  139.2830 N   0  0  0  0  0  0  0  0  0  0  0  0
  182.9050  178.7980  143.3120 C   0  0  0  0  0  0  0  0  0  0  0  0
  184.2250  178.5920  141.2880 C   0  0  0  0  0  0  0  0  0  0  0  0
  189.6710  177.7150  141.0050 C   0  0  0  0  0  0  0  0  0  0  0  0
  186.7460  178.2520  141.4250 C   0  0  2  0  0  3  0  0  0  0  0  0
  189.5330  176.0600  142.8470 C   0  0  0  0  0  2  0  0  0  0  0  0
  184.2630  178.5270  139.7870 C   0  0  0  0  0  2  0  0  0  0  0  0
  192.0120  177.3380  141.8730 C   0  0  0  0  0  3  0  0  0  0  0  0
  191.1390  177.5520  140.8820 C   0  0  0  0  0  3  0  0  0  0  0  0
  188.9230  177.0860  141.9500 C   0  0  0  0  0  0  0  0  0  0  0  0
  188.6900  175.9150  135.6230 C   0  0  0  0  0  3  0  0  0  0  0  0
  188.2150  177.2670  138.0430 C   0  0  0  0  0  0  0  0  0  0  0  0
  189.3400  177.5750  137.2600 C   0  0  0  0  0  3  0  0  0  0  0  0
  189.5770  176.9020  136.0580 C   0  0  0  0  0  3  0  0  0  0  0  0
  187.5680  175.5980  136.3920 C   0  0  0  0  0  3  0  0  0  0  0  0
  187.3320  176.2700  137.5940 C   0  0  0  0  0  3  0  0  0  0  0  0
  1 15  1  0  0  0  0
  2  6  1  6  0  0  0
  2 16  1  0  0  0  0
  4 13  1  0  0  0  0
  6 18  1  0  0  0  0
  7  9  1  0  0  0  0
 10  8  2  0  0  0  0
 11  7  2  0  0  0  0
 12  2  1  0  0  0  0
 12  1  1  0  0  0  0
 13  5  1  0  0  0  0
 13  9  2  0  0  0  0
 14  4  2  0  0  0  0
 14 11  1  0  0  0  0
 15 21  2  0  0  0  0
 16 11  1  1  0  0  0
 16  3  1  0  0  0  0
 17  8  1  0  0  0  0
 18 14  1  0  0  0  0
 19 10  1  0  0  0  0
 20 15  1  0  0  0  0
 20 19  2  0  0  0  0
 21  3  1  0  0  0  0
 21 17  1  0  0  0  0
 22 25  2  0  0  0  0
 22 26  1  0  0  0  0
 23 12  1  0  0  0  0
 24 23  2  0  0  0  0
 25 24  1  0  0  0  0
 26 27  2  0  0  0  0
 27 23  1  0  0  0  0
M  END
>  <MODEL>
7

>  <REMARK>
 VINA RESULT:      -8.1      2.280      5.685
  Name = 
  1 active torsions:
  status: ('A' for Active; 'I' for Inactive)
    1  A    between atoms: C_9  and  N_15
                            x       y       z     vdW  Elec       q    Type
                         _______ _______ _______ _____ _____    ______ ____

>  <TORSDO>
F 1

$$$$
=
 OpenBabel11052413443D

 27 31  0  0  1  0  0  0  0  0999 V2000
  188.8730  176.3730  141.8500 C   0  0  0  0  0  2  0  0  0  0  0  0
  187.4100  177.9280  143.1940 C   0  0  1  0  0  3  0  0  0  0  0  0
  187.0940  178.5020  140.8590 O   0  0  0  0  0  0  0  0  0  0  0  0
  183.2620  178.7620  143.7220 C   0  0  0  0  0  3  0  0  0  0  0  0
  181.0120  179.4010  142.8510 C   0  0  0  0  0  1  0  0  0  0  0  0
  186.6990  177.3380  144.4070 C   0  0  0  0  0  2  0  0  0  0  0  0
  184.2490  178.4990  141.1210 C   0  0  0  0  0  3  0  0  0  0  0  0
  188.6680  178.2590  137.7570 C   0  0  0  0  0  3  0  0  0  0  0  0
  182.9180  178.8670  141.3300 C   0  0  0  0  0  3  0  0  0  0  0  0
  189.5430  177.2820  137.5320 C   0  0  0  0  0  3  0  0  0  0  0  0
  185.1050  178.2760  142.2080 C   0  0  0  0  0  0  0  0  0  0  0  0
  188.7050  177.2690  142.9930 N   0  0  0  0  0  0  0  0  0  0  0  0
  182.4260  179.0030  142.6290 C   0  0  0  0  0  0  0  0  0  0  0  0
  184.5930  178.3800  143.5240 C   0  0  0  0  0  0  0  0  0  0  0  0
  189.1150  177.1570  140.5960 C   0  0  0  0  0  0  0  0  0  0  0  0
  186.5130  177.7970  141.9540 C   0  0  2  0  0  3  0  0  0  0  0  0
  188.6490  179.0270  139.0340 C   0  0  0  0  0  2  0  0  0  0  0  0
  185.4700  178.1810  144.7270 C   0  0  0  0  0  2  0  0  0  0  0  0
  190.5160  176.7940  138.5270 C   0  0  0  0  0  3  0  0  0  0  0  0
  190.3300  176.7530  139.8520 C   0  0  0  0  0  3  0  0  0  0  0  0
  188.2890  178.1610  140.1970 C   0  0  0  0  0  0  0  0  0  0  0  0
  192.0550  178.2800  145.4150 C   0  0  0  0  0  3  0  0  0  0  0  0
  189.8400  177.6140  143.8150 C   0  0  0  0  0  0  0  0  0  0  0  0
  190.5950  178.7690  143.5480 C   0  0  0  0  0  3  0  0  0  0  0  0
  191.6940  179.1010  144.3440 C   0  0  0  0  0  3  0  0  0  0  0  0
  191.3140  177.1280  145.6910 C   0  0  0  0  0  3  0  0  0  0  0  0
  190.2130  176.7980  144.8960 C   0  0  0  0  0  3  0  0  0  0  0  0
  1 12  1  0  0  0  0
  2  6  1  1  0  0  0
  6 18  1  0  0  0  0
  7  9  2  0  0  0  0
  7 11  1  0  0  0  0
  8 17  1  0  0  0  0
  9 13  1  0  0  0  0
 10  8  2  0  0  0  0
 10 19  1  0  0  0  0
 11 14  2  0  0  0  0
 12  2  1  0  0  0  0
 12 23  1  0  0  0  0
 13  5  1  0  0  0  0
 13  4  2  0  0  0  0
 14  4  1  0  0  0  0
 14 18  1  0  0  0  0
 15  1  1  0  0  0  0
 16  3  1  6  0  0  0
 16 11  1  0  0  0  0
 16  2  1  0  0  0  0
 17 21  1  0  0  0  0
 19 20  2  0  0  0  0
 20 15  1  0  0  0  0
 21 15  2  0  0  0  0
 21  3  1  0  0  0  0
 22 26  1  0  0  0  0
 23 27  1  0  0  0  0
 24 23  2  0  0  0  0
 24 25  1  0  0  0  0
 25 22  2  0  0  0  0
 27 26  2  0  0  0  0
M  END
>  <MODEL>
8

>  <REMARK>
 VINA RESULT:      -8.0      1.373      1.824
  Name = 
  1 active torsions:
  status: ('A' for Active; 'I' for Inactive)
    1  A    between atoms: C_9  and  N_15
                            x       y       z     vdW  Elec       q    Type
                         _______ _______ _______ _____ _____    ______ ____

>  <TORSDO>
F 1

$$$$
=
 OpenBabel11052413443D

 27 31  0  0  1  0  0  0  0  0999 V2000
  188.1530  179.2110  141.3300 C   0  0  0  0  0  2  0  0  0  0  0  0
  187.8840  177.8060  143.4080 C   0  0  1  0  0  3  0  0  0  0  0  0
  189.6030  176.7520  142.0590 O   0  0  0  0  0  0  0  0  0  0  0  0
  190.1760  176.6590  146.8150 C   0  0  0  0  0  3  0  0  0  0  0  0
  192.1860  175.6270  147.8760 C   0  0  0  0  0  1  0  0  0  0  0  0
  187.6530  178.5450  144.7200 C   0  0  0  0  0  2  0  0  0  0  0  0
  191.3690  176.5070  144.2920 C   0  0  0  0  0  3  0  0  0  0  0  0
  190.7380  176.5430  138.7690 C   0  0  0  0  0  3  0  0  0  0  0  0
  192.0550  176.0480  145.4190 C   0  0  0  0  0  3  0  0  0  0  0  0
  190.5070  177.5440  137.9230 C   0  0  0  0  0  3  0  0  0  0  0  0
  190.0740  177.0290  144.4110 C   0  0  0  0  0  0  0  0  0  0  0  0
  187.2790  178.5460  142.2940 N   0  0  0  0  0  0  0  0  0  0  0  0
  191.4580  176.1210  146.6790 C   0  0  0  0  0  0  0  0  0  0  0  0
  189.4860  177.1330  145.6950 C   0  0  0  0  0  0  0  0  0  0  0  0
  188.6920  178.2240  140.3380 C   0  0  0  0  0  0  0  0  0  0  0  0
  189.3900  177.5940  143.1900 C   0  0  2  0  0  3  0  0  0  0  0  0
  189.6970  176.0450  139.7120 C   0  0  0  0  0  2  0  0  0  0  0  0
  188.0900  177.6580  145.8800 C   0  0  0  0  0  2  0  0  0  0  0  0
  189.2530  178.3180  137.8780 C   0  0  0  0  0  3  0  0  0  0  0  0
  188.4660  178.6000  138.9230 C   0  0  0  0  0  3  0  0  0  0  0  0
  189.3200  177.0810  140.7200 C   0  0  0  0  0  0  0  0  0  0  0  0
  183.0810  178.3920  141.6190 C   0  0  0  0  0  3  0  0  0  0  0  0
  185.8560  178.4920  142.0640 C   0  0  0  0  0  0  0  0  0  0  0  0
  185.3330  178.6340  140.7670 C   0  0  0  0  0  3  0  0  0  0  0  0
  183.9540  178.5830  140.5460 C   0  0  0  0  0  3  0  0  0  0  0  0
  183.5870  178.2500  142.9130 C   0  0  0  0  0  3  0  0  0  0  0  0
  184.9660  178.2990  143.1340 C   0  0  0  0  0  3  0  0  0  0  0  0
  1 12  1  0  0  0  0
  2  6  1  1  0  0  0
  6 18  1  0  0  0  0
  7 11  2  0  0  0  0
  7  9  1  0  0  0  0
  8 17  1  0  0  0  0
  9 13  2  0  0  0  0
 10  8  2  0  0  0  0
 11 14  1  0  0  0  0
 12  2  1  0  0  0  0
 13  4  1  0  0  0  0
 13  5  1  0  0  0  0
 14 18  1  0  0  0  0
 14  4  2  0  0  0  0
 15 21  2  0  0  0  0
 15  1  1  0  0  0  0
 16  3  1  6  0  0  0
 16  2  1  0  0  0  0
 16 11  1  0  0  0  0
 17 21  1  0  0  0  0
 19 10  1  0  0  0  0
 19 20  2  0  0  0  0
 20 15  1  0  0  0  0
 21  3  1  0  0  0  0
 22 26  1  0  0  0  0
 23 12  1  0  0  0  0
 23 27  1  0  0  0  0
 24 23  2  0  0  0  0
 25 24  1  0  0  0  0
 25 22  2  0  0  0  0
 26 27  2  0  0  0  0
M  END
>  <MODEL>
9

>  <REMARK>
 VINA RESULT:      -8.0      1.697      6.274
  Name = 
  1 active torsions:
  status: ('A' for Active; 'I' for Inactive)
    1  A    between atoms: C_9  and  N_15
                            x       y       z     vdW  Elec       q    Type
                         _______ _______ _______ _____ _____    ______ ____

>  <TORSDO>
F 1

$$$$
