=
 OpenBabel11052413313D

 28 30  0  0  1  0  0  0  0  0999 V2000
  189.4400  176.4060  144.0330 C   0  0  1  0  0  3  0  0  0  0  0  0
  184.9420  179.1080  143.0090 C   0  0  0  0  0  3  0  0  0  0  0  0
  188.4980  178.5590  148.0940 O   0  0  0  0  0  1  0  0  0  0  0  0
  184.1470  178.5310  145.2350 C   0  0  0  0  0  0  0  0  0  0  0  0
  186.6340  178.3780  144.7020 C   0  0  2  0  0  3  0  0  0  0  0  0
  182.5770  179.1920  143.5080 C   0  0  0  0  0  0  0  0  0  0  0  0
  185.2160  178.7060  144.3220 C   0  0  0  0  0  0  0  0  0  0  0  0
  185.7840  177.6450  146.9580 C   0  0  0  0  0  2  0  0  0  0  0  0
  182.8370  178.7900  144.8210 C   0  0  0  0  0  3  0  0  0  0  0  0
  189.1480  177.7820  146.0030 C   0  0  0  0  0  0  0  0  0  0  0  0
  186.9800  176.9840  144.1650 C   0  0  0  0  0  2  0  0  0  0  0  0
  184.3840  178.1970  146.6850 C   0  0  0  0  0  2  0  0  0  0  0  0
  188.2090  178.2590  146.7690 C   0  0  0  0  0  0  0  0  0  0  0  0
  189.9880  177.2830  145.1420 C   0  0  0  0  0  0  0  0  0  0  0  0
  180.9310  179.5040  143.0000 Cl  0  0  0  0  0  0  0  0  0  0  0  0
  183.6280  179.3530  142.6040 C   0  0  0  0  0  3  0  0  0  0  0  0
  186.8190  178.4980  146.2360 C   0  0  1  0  0  3  0  0  0  0  0  0
  188.2410  177.0380  143.3080 C   0  0  0  0  0  2  0  0  0  0  0  0
  190.5060  175.9150  143.0450 C   0  0  1  0  0  3  0  0  0  0  0  0
  190.7340  174.5500  143.2300 O   0  0  0  0  0  1  0  0  0  0  0  0
  190.1220  176.1910  141.5940 C   0  0  0  0  0  2  0  0  0  0  0  0
  191.6440  178.0160  141.7420 O   0  0  0  0  0  1  0  0  0  0  0  0
  191.2030  176.9990  140.8900 C   0  0  2  0  0  3  0  0  0  0  0  0
  190.6590  177.6050  139.6000 C   0  0  2  0  0  3  0  0  0  0  0  0
  189.1770  177.9070  139.7390 C   0  0  0  0  0  1  0  0  0  0  0  0
  190.8390  176.7140  138.5410 O   0  0  0  0  0  1  0  0  0  0  0  0
  191.4410  177.6020  145.2930 C   0  0  0  0  0  2  0  0  0  0  0  0
  192.0110  176.7860  146.2700 O   0  0  0  0  0  1  0  0  0  0  0  0
  1 19  1  6  0  0  0
  1 14  1  0  0  0  0
  2  7  1  0  0  0  0
  4 12  1  0  0  0  0
  5 11  1  1  0  0  0
  5 17  1  0  0  0  0
  6  9  2  0  0  0  0
  7  5  1  0  0  0  0
  7  4  2  0  0  0  0
  9  4  1  0  0  0  0
 10 13  2  0  0  0  0
 12  8  1  0  0  0  0
 13  3  1  0  0  0  0
 14 27  1  0  0  0  0
 14 10  2  0  0  0  0
 15  6  1  0  0  0  0
 16  2  2  0  0  0  0
 16  6  1  0  0  0  0
 17 13  1  0  0  0  0
 17  8  1  1  0  0  0
 18  1  1  0  0  0  0
 18 11  1  0  0  0  0
 19 20  1  6  0  0  0
 21 19  1  0  0  0  0
 23 21  1  0  0  0  0
 23 22  1  1  0  0  0
 24 25  1  1  0  0  0
 24 23  1  0  0  0  0
 26 24  1  0  0  0  0
 27 28  1  0  0  0  0
M  END
>  <MODEL>
1

>  <REMARK>
 VINA RESULT:      -8.2      0.000      0.000
  Name = 
  5 active torsions:
  status: ('A' for Active; 'I' for Inactive)
    1  A    between atoms: C_1  and  C_2
    2  A    between atoms: C_2  and  C_3
    3  A    between atoms: C_3  and  C_11
    4  A    between atoms: C_6  and  C_11
    5  A    between atoms: C_19  and  C_21
                            x       y       z     vdW  Elec       q    Type
                         _______ _______ _______ _____ _____    ______ ____

>  <TORSDO>
F 5

$$$$
=
 OpenBabel11052413313D

 28 30  0  0  1  0  0  0  0  0999 V2000
  184.2680  179.3020  140.6530 C   0  0  1  0  0  3  0  0  0  0  0  0
  187.9600  176.7950  143.5960 C   0  0  0  0  0  3  0  0  0  0  0  0
  182.1050  178.5780  144.7530 O   0  0  0  0  0  1  0  0  0  0  0  0
  187.2300  178.0880  145.5240 C   0  0  0  0  0  0  0  0  0  0  0  0
  185.7010  177.8670  143.4980 C   0  0  2  0  0  3  0  0  0  0  0  0
  189.4290  177.0630  145.4990 C   0  0  0  0  0  0  0  0  0  0  0  0
  186.9740  177.5560  144.2370 C   0  0  0  0  0  0  0  0  0  0  0  0
  185.0160  179.3210  145.4380 C   0  0  0  0  0  2  0  0  0  0  0  0
  188.4530  177.8240  146.1490 C   0  0  0  0  0  3  0  0  0  0  0  0
  183.0480  178.6230  142.6300 C   0  0  0  0  0  0  0  0  0  0  0  0
  185.9730  178.9960  142.4980 C   0  0  0  0  0  2  0  0  0  0  0  0
  186.1760  178.8290  146.3040 C   0  0  0  0  0  2  0  0  0  0  0  0
  183.2080  178.4820  143.9140 C   0  0  0  0  0  0  0  0  0  0  0  0
  183.0260  178.7640  141.3350 C   0  0  0  0  0  0  0  0  0  0  0  0
  190.9580  176.7470  146.2900 Cl  0  0  0  0  0  0  0  0  0  0  0  0
  189.1820  176.5470  144.2260 C   0  0  0  0  0  3  0  0  0  0  0  0
  184.5700  178.2060  144.5010 C   0  0  1  0  0  3  0  0  0  0  0  0
  185.5520  178.5790  141.0920 C   0  0  0  0  0  2  0  0  0  0  0  0
  184.1540  179.3770  139.1250 C   0  0  1  0  0  3  0  0  0  0  0  0
  184.1610  180.7120  138.7120 O   0  0  0  0  0  1  0  0  0  0  0  0
  185.2660  178.6050  138.4210 C   0  0  0  0  0  2  0  0  0  0  0  0
  183.8000  176.7440  138.1890 O   0  0  0  0  0  1  0  0  0  0  0  0
  184.6880  177.5560  137.4800 C   0  0  2  0  0  3  0  0  0  0  0  0
  185.8050  176.7050  136.8840 C   0  0  2  0  0  3  0  0  0  0  0  0
  187.1450  177.0890  137.4860 C   0  0  0  0  0  1  0  0  0  0  0  0
  185.8620  176.8920  135.5020 O   0  0  0  0  0  1  0  0  0  0  0  0
  181.7810  178.3870  140.5960 C   0  0  0  0  0  2  0  0  0  0  0  0
  180.6740  178.4940  141.4380 O   0  0  0  0  0  1  0  0  0  0  0  0
  1 19  1  6  0  0  0
  1 18  1  0  0  0  0
  1 14  1  0  0  0  0
  2 16  2  0  0  0  0
  2  7  1  0  0  0  0
  4  9  1  0  0  0  0
  4 12  1  0  0  0  0
  5 11  1  6  0  0  0
  5  7  1  0  0  0  0
  5 17  1  0  0  0  0
  6  9  2  0  0  0  0
  6 15  1  0  0  0  0
  7  4  2  0  0  0  0
  8 12  1  0  0  0  0
 10 13  2  0  0  0  0
 13 17  1  0  0  0  0
 13  3  1  0  0  0  0
 14 10  2  0  0  0  0
 16  6  1  0  0  0  0
 17  8  1  6  0  0  0
 18 11  1  0  0  0  0
 19 20  1  6  0  0  0
 21 19  1  0  0  0  0
 23 22  1  1  0  0  0
 23 21  1  0  0  0  0
 24 23  1  0  0  0  0
 24 25  1  1  0  0  0
 26 24  1  0  0  0  0
 27 14  1  0  0  0  0
 27 28  1  0  0  0  0
M  END
>  <MODEL>
2

>  <REMARK>
 VINA RESULT:      -8.1      4.376      6.690
  Name = 
  5 active torsions:
  status: ('A' for Active; 'I' for Inactive)
    1  A    between atoms: C_1  and  C_2
    2  A    between atoms: C_2  and  C_3
    3  A    between atoms: C_3  and  C_11
    4  A    between atoms: C_6  and  C_11
    5  A    between atoms: C_19  and  C_21
                            x       y       z     vdW  Elec       q    Type
                         _______ _______ _______ _____ _____    ______ ____

>  <TORSDO>
F 5

$$$$
=
 OpenBabel11052413313D

 28 30  0  0  1  0  0  0  0  0999 V2000
  190.6840  176.5660  140.0550 C   0  0  1  0  0  3  0  0  0  0  0  0
  186.2640  178.8020  142.0660 C   0  0  0  0  0  3  0  0  0  0  0  0
  192.0670  178.1710  144.2410 O   0  0  0  0  0  1  0  0  0  0  0  0
  186.8670  177.9120  144.2490 C   0  0  0  0  0  0  0  0  0  0  0  0
  188.6410  178.1110  142.4310 C   0  0  2  0  0  3  0  0  0  0  0  0
  184.5750  178.5520  143.7790 C   0  0  0  0  0  0  0  0  0  0  0  0
  187.2390  178.3040  142.9400 C   0  0  0  0  0  0  0  0  0  0  0  0
  189.2220  177.0580  144.6460 C   0  0  0  0  0  2  0  0  0  0  0  0
  185.5380  178.0530  144.6600 C   0  0  0  0  0  3  0  0  0  0  0  0
  191.4770  177.6920  142.0450 C   0  0  0  0  0  0  0  0  0  0  0  0
  188.6910  176.8310  141.5900 C   0  0  0  0  0  2  0  0  0  0  0  0
  187.8840  177.4640  145.2660 C   0  0  0  0  0  2  0  0  0  0  0  0
  191.1030  177.9730  143.2600 C   0  0  0  0  0  0  0  0  0  0  0  0
  191.7170  177.3860  140.8020 C   0  0  0  0  0  0  0  0  0  0  0  0
  182.9130  178.7150  144.3030 Cl  0  0  0  0  0  0  0  0  0  0  0  0
  184.9370  178.9280  142.4840 C   0  0  0  0  0  3  0  0  0  0  0  0
  189.6420  178.0980  143.6140 C   0  0  1  0  0  3  0  0  0  0  0  0
  189.2580  177.1210  140.2050 C   0  0  0  0  0  2  0  0  0  0  0  0
  191.0410  176.3090  138.5850 C   0  0  1  0  0  3  0  0  0  0  0  0
  190.7950  174.9730  138.2620 O   0  0  0  0  0  1  0  0  0  0  0  0
  190.2780  177.2270  137.6340 C   0  0  0  0  0  2  0  0  0  0  0  0
  190.1800  176.7060  135.3130 O   0  0  0  0  0  1  0  0  0  0  0  0
  189.5830  176.4220  136.5440 C   0  0  2  0  0  3  0  0  0  0  0  0
  188.0980  176.7700  136.4920 C   0  0  2  0  0  3  0  0  0  0  0  0
  187.8800  178.2240  136.8740 C   0  0  0  0  0  1  0  0  0  0  0  0
  187.3860  175.9590  137.3770 O   0  0  0  0  0  1  0  0  0  0  0  0
  192.9940  177.8600  140.1830 C   0  0  0  0  0  2  0  0  0  0  0  0
  193.9380  176.8340  140.1920 O   0  0  0  0  0  1  0  0  0  0  0  0
  1 19  1  6  0  0  0
  1 18  1  0  0  0  0
  1 14  1  0  0  0  0
  2 16  2  0  0  0  0
  2  7  1  0  0  0  0
  4  9  1  0  0  0  0
  4 12  1  0  0  0  0
  5 11  1  1  0  0  0
  5  7  1  0  0  0  0
  5 17  1  0  0  0  0
  6 15  1  0  0  0  0
  6  9  2  0  0  0  0
  7  4  2  0  0  0  0
  8 12  1  0  0  0  0
 10 13  2  0  0  0  0
 13 17  1  0  0  0  0
 13  3  1  0  0  0  0
 14 10  2  0  0  0  0
 16  6  1  0  0  0  0
 17  8  1  1  0  0  0
 18 11  1  0  0  0  0
 19 20  1  6  0  0  0
 21 19  1  0  0  0  0
 23 22  1  6  0  0  0
 23 21  1  0  0  0  0
 24 23  1  0  0  0  0
 24 25  1  1  0  0  0
 24 26  1  0  0  0  0
 27 28  1  0  0  0  0
 27 14  1  0  0  0  0
M  END
>  <MODEL>
3

>  <REMARK>
 VINA RESULT:      -8.0      2.092      4.066
  Name = 
  5 active torsions:
  status: ('A' for Active; 'I' for Inactive)
    1  A    between atoms: C_1  and  C_2
    2  A    between atoms: C_2  and  C_3
    3  A    between atoms: C_3  and  C_11
    4  A    between atoms: C_6  and  C_11
    5  A    between atoms: C_19  and  C_21
                            x       y       z     vdW  Elec       q    Type
                         _______ _______ _______ _____ _____    ______ ____

>  <TORSDO>
F 5

$$$$
=
 OpenBabel11052413313D

 28 30  0  0  1  0  0  0  0  0999 V2000
  185.4100  177.9200  143.5280 C   0  0  1  0  0  3  0  0  0  0  0  0
  189.8420  177.7560  146.5140 C   0  0  0  0  0  3  0  0  0  0  0  0
  188.8750  178.0250  140.3650 O   0  0  0  0  0  1  0  0  0  0  0  0
  190.8430  176.2790  144.8580 C   0  0  0  0  0  0  0  0  0  0  0  0
  188.8270  177.7040  144.2270 C   0  0  2  0  0  3  0  0  0  0  0  0
  191.7180  176.3540  147.1200 C   0  0  0  0  0  0  0  0  0  0  0  0
  189.8780  177.2560  145.2060 C   0  0  0  0  0  0  0  0  0  0  0  0
  189.7800  176.0660  142.5660 C   0  0  0  0  0  2  0  0  0  0  0  0
  191.7640  175.8470  145.8180 C   0  0  0  0  0  3  0  0  0  0  0  0
  187.1820  178.3230  141.9290 C   0  0  0  0  0  0  0  0  0  0  0  0
  187.5260  176.9470  144.5180 C   0  0  0  0  0  2  0  0  0  0  0  0
  190.9960  175.7770  143.4460 C   0  0  0  0  0  2  0  0  0  0  0  0
  188.4090  177.9680  141.6730 C   0  0  0  0  0  0  0  0  0  0  0  0
  185.9770  178.6310  142.3140 C   0  0  0  0  0  0  0  0  0  0  0  0
  192.8710  175.7990  148.3140 Cl  0  0  0  0  0  0  0  0  0  0  0  0
  190.7600  177.3090  147.4670 C   0  0  0  0  0  3  0  0  0  0  0  0
  189.3300  177.5070  142.7740 C   0  0  1  0  0  3  0  0  0  0  0  0
  186.3730  177.9240  144.7270 C   0  0  0  0  0  2  0  0  0  0  0  0
  184.0070  178.3940  143.9260 C   0  0  1  0  0  3  0  0  0  0  0  0
  184.0880  179.6280  144.5760 O   0  0  0  0  0  1  0  0  0  0  0  0
  183.0670  178.4950  142.7280 C   0  0  0  0  0  2  0  0  0  0  0  0
  181.1640  178.4080  144.1570 O   0  0  0  0  0  1  0  0  0  0  0  0
  181.7490  179.1460  143.1250 C   0  0  2  0  0  3  0  0  0  0  0  0
  180.8030  179.2040  141.9290 C   0  0  2  0  0  3  0  0  0  0  0  0
  181.5560  178.9140  140.6420 C   0  0  0  0  0  1  0  0  0  0  0  0
  180.2250  180.4710  141.8380 O   0  0  0  0  0  1  0  0  0  0  0  0
  185.2210  179.6640  141.5410 C   0  0  0  0  0  2  0  0  0  0  0  0
  185.3470  179.4240  140.1730 O   0  0  0  0  0  1  0  0  0  0  0  0
  1 19  1  1  0  0  0
  1 18  1  0  0  0  0
  2 16  1  0  0  0  0
  3 13  1  0  0  0  0
  4  7  1  0  0  0  0
  4  9  2  0  0  0  0
  5 11  1  6  0  0  0
  5  7  1  0  0  0  0
  6 16  2  0  0  0  0
  6 15  1  0  0  0  0
  7  2  2  0  0  0  0
  8 12  1  0  0  0  0
  9  6  1  0  0  0  0
 10 14  2  0  0  0  0
 11 18  1  0  0  0  0
 12  4  1  0  0  0  0
 13 10  2  0  0  0  0
 13 17  1  0  0  0  0
 14  1  1  0  0  0  0
 17  8  1  6  0  0  0
 17  5  1  0  0  0  0
 19 20  1  6  0  0  0
 21 23  1  0  0  0  0
 21 19  1  0  0  0  0
 23 22  1  1  0  0  0
 24 25  1  6  0  0  0
 24 23  1  0  0  0  0
 26 24  1  0  0  0  0
 27 14  1  0  0  0  0
 28 27  1  0  0  0  0
M  END
>  <MODEL>
4

>  <REMARK>
 VINA RESULT:      -8.0      4.225      7.772
  Name = 
  5 active torsions:
  status: ('A' for Active; 'I' for Inactive)
    1  A    between atoms: C_1  and  C_2
    2  A    between atoms: C_2  and  C_3
    3  A    between atoms: C_3  and  C_11
    4  A    between atoms: C_6  and  C_11
    5  A    between atoms: C_19  and  C_21
                            x       y       z     vdW  Elec       q    Type
                         _______ _______ _______ _____ _____    ______ ____

>  <TORSDO>
F 5

$$$$
=
 OpenBabel11052413313D

 28 30  0  0  1  0  0  0  0  0999 V2000
  186.6860  178.6000  139.2540 C   0  0  1  0  0  3  0  0  0  0  0  0
  187.5760  176.9950  144.2750 C   0  0  0  0  0  3  0  0  0  0  0  0
  182.3970  178.4900  141.1530 O   0  0  0  0  0  1  0  0  0  0  0  0
  185.8750  178.5650  145.0260 C   0  0  0  0  0  0  0  0  0  0  0  0
  185.9400  177.8450  142.5830 C   0  0  2  0  0  3  0  0  0  0  0  0
  187.5430  177.7320  146.5790 C   0  0  0  0  0  0  0  0  0  0  0  0
  186.4510  177.7810  143.9970 C   0  0  0  0  0  0  0  0  0  0  0  0
  184.2760  179.5790  143.3390 C   0  0  0  0  0  2  0  0  0  0  0  0
  186.4210  178.5220  146.3130 C   0  0  0  0  0  3  0  0  0  0  0  0
  184.4620  178.2090  140.1240 C   0  0  0  0  0  0  0  0  0  0  0  0
  186.8410  178.7830  141.7730 C   0  0  0  0  0  2  0  0  0  0  0  0
  184.6090  179.3530  144.8140 C   0  0  0  0  0  2  0  0  0  0  0  0
  183.7750  178.3260  141.2240 C   0  0  0  0  0  0  0  0  0  0  0  0
  185.2620  178.1020  139.1030 C   0  0  0  0  0  0  0  0  0  0  0  0
  188.2210  177.6940  148.1920 Cl  0  0  0  0  0  0  0  0  0  0  0  0
  188.1180  176.9680  145.5620 C   0  0  0  0  0  3  0  0  0  0  0  0
  184.4520  178.2750  142.5710 C   0  0  1  0  0  3  0  0  0  0  0  0
  187.3700  178.0770  140.5290 C   0  0  0  0  0  2  0  0  0  0  0  0
  187.5570  178.3760  138.0110 C   0  0  1  0  0  3  0  0  0  0  0  0
  188.5700  179.3370  137.9610 O   0  0  0  0  0  1  0  0  0  0  0  0
  188.1620  176.9760  137.9710 C   0  0  0  0  0  2  0  0  0  0  0  0
  190.0440  176.4780  136.6000 O   0  0  0  0  0  1  0  0  0  0  0  0
  189.6760  177.0420  137.8250 C   0  0  2  0  0  3  0  0  0  0  0  0
  190.3530  176.2890  138.9660 C   0  0  2  0  0  3  0  0  0  0  0  0
  191.1290  177.2490  139.8500 C   0  0  0  0  0  1  0  0  0  0  0  0
  191.2340  175.3360  138.4530 O   0  0  0  0  0  1  0  0  0  0  0  0
  184.7350  177.4950  137.8410 C   0  0  0  0  0  2  0  0  0  0  0  0
  183.4490  177.9690  137.5840 O   0  0  0  0  0  1  0  0  0  0  0  0
  1 19  1  6  0  0  0
  1 18  1  0  0  0  0
  2 16  1  0  0  0  0
  3 13  1  0  0  0  0
  4  9  2  0  0  0  0
  5 11  1  6  0  0  0
  5  7  1  0  0  0  0
  6 15  1  0  0  0  0
  7  2  2  0  0  0  0
  7  4  1  0  0  0  0
  8 12  1  0  0  0  0
  9  6  1  0  0  0  0
 10 13  2  0  0  0  0
 12  4  1  0  0  0  0
 13 17  1  0  0  0  0
 14  1  1  0  0  0  0
 14 10  2  0  0  0  0
 16  6  2  0  0  0  0
 17  5  1  0  0  0  0
 17  8  1  6  0  0  0
 18 11  1  0  0  0  0
 19 20  1  1  0  0  0
 21 19  1  0  0  0  0
 23 22  1  6  0  0  0
 23 21  1  0  0  0  0
 23 24  1  0  0  0  0
 24 25  1  1  0  0  0
 26 24  1  0  0  0  0
 27 14  1  0  0  0  0
 28 27  1  0  0  0  0
M  END
>  <MODEL>
5

>  <REMARK>
 VINA RESULT:      -7.7      3.481      5.847
  Name = 
  5 active torsions:
  status: ('A' for Active; 'I' for Inactive)
    1  A    between atoms: C_1  and  C_2
    2  A    between atoms: C_2  and  C_3
    3  A    between atoms: C_3  and  C_11
    4  A    between atoms: C_6  and  C_11
    5  A    between atoms: C_19  and  C_21
                            x       y       z     vdW  Elec       q    Type
                         _______ _______ _______ _____ _____    ______ ____

>  <TORSDO>
F 5

$$$$
=
 OpenBabel11052413313D

 28 30  0  0  1  0  0  0  0  0999 V2000
  183.4890  177.9000  140.8420 C   0  0  1  0  0  3  0  0  0  0  0  0
  185.7100  178.9630  145.5870 C   0  0  0  0  0  3  0  0  0  0  0  0
  188.0020  178.6540  139.8030 O   0  0  0  0  0  1  0  0  0  0  0  0
  187.6620  177.6790  144.9060 C   0  0  0  0  0  0  0  0  0  0  0  0
  186.0390  178.5440  143.1420 C   0  0  2  0  0  3  0  0  0  0  0  0
  187.2240  178.0850  147.2570 C   0  0  0  0  0  0  0  0  0  0  0  0
  186.5000  178.4150  144.5690 C   0  0  0  0  0  0  0  0  0  0  0  0
  187.9820  177.0930  142.4590 C   0  0  0  0  0  2  0  0  0  0  0  0
  188.0200  177.5330  146.2490 C   0  0  0  0  0  3  0  0  0  0  0  0
  185.7250  178.6260  140.2680 C   0  0  0  0  0  0  0  0  0  0  0  0
  184.9310  177.5160  142.8850 C   0  0  0  0  0  2  0  0  0  0  0  0
  188.6030  177.1510  143.8550 C   0  0  0  0  0  2  0  0  0  0  0  0
  186.9500  178.5600  140.7050 C   0  0  0  0  0  0  0  0  0  0  0  0
  184.4610  178.6580  139.9580 C   0  0  0  0  0  0  0  0  0  0  0  0
  187.6790  177.8880  148.9360 Cl  0  0  0  0  0  0  0  0  0  0  0  0
  186.0720  178.8020  146.9260 C   0  0  0  0  0  3  0  0  0  0  0  0
  187.2410  178.3930  142.1760 C   0  0  1  0  0  3  0  0  0  0  0  0
  183.6820  178.2000  142.3380 C   0  0  0  0  0  2  0  0  0  0  0  0
  182.0210  178.0470  140.4190 C   0  0  1  0  0  3  0  0  0  0  0  0
  181.5710  176.8580  139.8420 O   0  0  0  0  0  1  0  0  0  0  0  0
  181.1180  178.4370  141.5860 C   0  0  0  0  0  2  0  0  0  0  0  0
  179.8770  179.2400  139.7200 O   0  0  0  0  0  1  0  0  0  0  0  0
  179.7790  178.9600  141.0850 C   0  0  2  0  0  3  0  0  0  0  0  0
  179.3830  180.2220  141.8460 C   0  0  2  0  0  3  0  0  0  0  0  0
  179.2870  181.4050  140.8980 C   0  0  0  0  0  1  0  0  0  0  0  0
  180.3350  180.5070  142.8270 O   0  0  0  0  0  1  0  0  0  0  0  0
  184.0380  179.4360  138.7530 C   0  0  0  0  0  2  0  0  0  0  0  0
  184.1620  180.8030  139.0000 O   0  0  0  0  0  1  0  0  0  0  0  0
  1 19  1  6  0  0  0
  1 18  1  0  0  0  0
  2 16  1  0  0  0  0
  3 13  1  0  0  0  0
  4  9  2  0  0  0  0
  5 11  1  6  0  0  0
  5  7  1  0  0  0  0
  6 15  1  0  0  0  0
  7  4  1  0  0  0  0
  7  2  2  0  0  0  0
  8 12  1  0  0  0  0
  9  6  1  0  0  0  0
 10 13  2  0  0  0  0
 12  4  1  0  0  0  0
 13 17  1  0  0  0  0
 14 10  2  0  0  0  0
 14  1  1  0  0  0  0
 16  6  2  0  0  0  0
 17  8  1  6  0  0  0
 17  5  1  0  0  0  0
 18 11  1  0  0  0  0
 19 20  1  1  0  0  0
 19 21  1  0  0  0  0
 23 22  1  6  0  0  0
 23 21  1  0  0  0  0
 23 24  1  0  0  0  0
 24 25  1  6  0  0  0
 24 26  1  0  0  0  0
 27 28  1  0  0  0  0
 27 14  1  0  0  0  0
M  END
>  <MODEL>
6

>  <REMARK>
 VINA RESULT:      -7.6      4.623      7.866
  Name = 
  5 active torsions:
  status: ('A' for Active; 'I' for Inactive)
    1  A    between atoms: C_1  and  C_2
    2  A    between atoms: C_2  and  C_3
    3  A    between atoms: C_3  and  C_11
    4  A    between atoms: C_6  and  C_11
    5  A    between atoms: C_19  and  C_21
                            x       y       z     vdW  Elec       q    Type
                         _______ _______ _______ _____ _____    ______ ____

>  <TORSDO>
F 5

$$$$
=
 OpenBabel11052413313D

 28 30  0  0  1  0  0  0  0  0999 V2000
  186.0920  178.5110  143.6640 C   0  0  1  0  0  3  0  0  0  0  0  0
  189.7500  176.4470  140.3570 C   0  0  0  0  0  3  0  0  0  0  0  0
  189.6860  177.4810  146.5000 O   0  0  0  0  0  1  0  0  0  0  0  0
  191.4750  177.6190  141.6120 C   0  0  0  0  0  0  0  0  0  0  0  0
  189.1870  177.2320  142.6650 C   0  0  2  0  0  3  0  0  0  0  0  0
  191.9050  176.8720  139.3450 C   0  0  0  0  0  0  0  0  0  0  0  0
  190.1700  177.0730  141.5380 C   0  0  0  0  0  0  0  0  0  0  0  0
  190.9300  178.5700  143.8990 C   0  0  0  0  0  2  0  0  0  0  0  0
  192.3350  177.5010  140.5170 C   0  0  0  0  0  3  0  0  0  0  0  0
  187.7940  177.6650  145.1630 C   0  0  0  0  0  0  0  0  0  0  0  0
  188.2450  178.3980  142.3390 C   0  0  0  0  0  2  0  0  0  0  0  0
  192.0170  178.2160  142.8850 C   0  0  0  0  0  2  0  0  0  0  0  0
  189.0860  177.5310  145.2480 C   0  0  0  0  0  0  0  0  0  0  0  0
  186.5190  177.8170  144.9420 C   0  0  0  0  0  0  0  0  0  0  0  0
  192.9900  176.7390  137.9780 Cl  0  0  0  0  0  0  0  0  0  0  0  0
  190.6160  176.3440  139.2660 C   0  0  0  0  0  3  0  0  0  0  0  0
  189.9380  177.4190  144.0080 C   0  0  1  0  0  3  0  0  0  0  0  0
  186.7900  177.9470  142.4150 C   0  0  0  0  0  2  0  0  0  0  0  0
  184.5710  178.5890  143.4780 C   0  0  1  0  0  3  0  0  0  0  0  0
  184.1470  179.9160  143.5780 O   0  0  0  0  0  1  0  0  0  0  0  0
  184.1190  177.9930  142.1480 C   0  0  0  0  0  2  0  0  0  0  0  0
  181.8750  178.3870  141.4580 O   0  0  0  0  0  1  0  0  0  0  0  0
  183.1610  178.9330  141.4290 C   0  0  2  0  0  3  0  0  0  0  0  0
  183.6040  179.1390  139.9840 C   0  0  2  0  0  3  0  0  0  0  0  0
  183.6410  177.8120  139.2460 C   0  0  0  0  0  1  0  0  0  0  0  0
  184.8770  179.7090  139.9510 O   0  0  0  0  0  1  0  0  0  0  0  0
  185.5510  177.2980  145.9570 C   0  0  0  0  0  2  0  0  0  0  0  0
  185.2610  178.2910  146.8920 O   0  0  0  0  0  1  0  0  0  0  0  0
  1 19  1  6  0  0  0
  1 14  1  0  0  0  0
  2  7  1  0  0  0  0
  4 12  1  0  0  0  0
  5 11  1  6  0  0  0
  5 17  1  0  0  0  0
  6  9  2  0  0  0  0
  7  4  2  0  0  0  0
  7  5  1  0  0  0  0
  9  4  1  0  0  0  0
 10 13  2  0  0  0  0
 11 18  1  0  0  0  0
 12  8  1  0  0  0  0
 13  3  1  0  0  0  0
 14 10  2  0  0  0  0
 14 27  1  0  0  0  0
 15  6  1  0  0  0  0
 16  6  1  0  0  0  0
 16  2  2  0  0  0  0
 17  8  1  6  0  0  0
 17 13  1  0  0  0  0
 18  1  1  0  0  0  0
 19 20  1  6  0  0  0
 21 19  1  0  0  0  0
 23 22  1  6  0  0  0
 23 21  1  0  0  0  0
 24 25  1  6  0  0  0
 24 23  1  0  0  0  0
 26 24  1  0  0  0  0
 27 28  1  0  0  0  0
M  END
>  <MODEL>
7

>  <REMARK>
 VINA RESULT:      -7.5      3.915      6.883
  Name = 
  5 active torsions:
  status: ('A' for Active; 'I' for Inactive)
    1  A    between atoms: C_1  and  C_2
    2  A    between atoms: C_2  and  C_3
    3  A    between atoms: C_3  and  C_11
    4  A    between atoms: C_6  and  C_11
    5  A    between atoms: C_19  and  C_21
                            x       y       z     vdW  Elec       q    Type
                         _______ _______ _______ _____ _____    ______ ____

>  <TORSDO>
F 5

$$$$
=
 OpenBabel11052413313D

 28 30  0  0  1  0  0  0  0  0999 V2000
  187.3770  178.2420  145.7280 C   0  0  1  0  0  3  0  0  0  0  0  0
  189.1610  176.4040  141.0350 C   0  0  0  0  0  3  0  0  0  0  0  0
  191.8290  177.0650  146.6260 O   0  0  0  0  0  1  0  0  0  0  0  0
  191.2860  177.5080  141.4670 C   0  0  0  0  0  0  0  0  0  0  0  0
  189.6880  177.0450  143.3960 C   0  0  2  0  0  3  0  0  0  0  0  0
  190.6590  176.9030  139.2030 C   0  0  0  0  0  0  0  0  0  0  0  0
  190.0700  176.9600  141.9440 C   0  0  0  0  0  0  0  0  0  0  0  0
  191.8230  178.3160  143.8100 C   0  0  0  0  0  2  0  0  0  0  0  0
  191.5740  177.4620  140.0990 C   0  0  0  0  0  3  0  0  0  0  0  0
  189.5460  177.3170  146.2720 C   0  0  0  0  0  0  0  0  0  0  0  0
  188.7240  178.2220  143.5860 C   0  0  0  0  0  2  0  0  0  0  0  0
  192.3460  178.0310  142.4020 C   0  0  0  0  0  2  0  0  0  0  0  0
  190.7410  177.1860  145.7710 C   0  0  0  0  0  0  0  0  0  0  0  0
  188.3080  177.4730  146.6450 C   0  0  0  0  0  0  0  0  0  0  0  0
  191.0280  176.8590  137.4920 Cl  0  0  0  0  0  0  0  0  0  0  0  0
  189.4550  176.3720  139.6700 C   0  0  0  0  0  3  0  0  0  0  0  0
  190.9570  177.1540  144.2780 C   0  0  1  0  0  3  0  0  0  0  0  0
  187.4410  177.7580  144.2690 C   0  0  0  0  0  2  0  0  0  0  0  0
  185.9310  178.3200  146.2360 C   0  0  1  0  0  3  0  0  0  0  0  0
  185.6870  179.5820  146.7820 O   0  0  0  0  0  1  0  0  0  0  0  0
  184.9140  178.0190  145.1390 C   0  0  0  0  0  2  0  0  0  0  0  0
  182.8790  179.2530  145.0950 O   0  0  0  0  0  1  0  0  0  0  0  0
  184.2130  179.2910  144.6830 C   0  0  2  0  0  3  0  0  0  0  0  0
  184.2830  179.4210  143.1640 C   0  0  2  0  0  3  0  0  0  0  0  0
  184.2390  178.0510  142.5110 C   0  0  0  0  0  1  0  0  0  0  0  0
  185.4670  180.0600  142.7930 O   0  0  0  0  0  1  0  0  0  0  0  0
  187.8750  176.8880  147.9510 C   0  0  0  0  0  2  0  0  0  0  0  0
  188.0830  177.8080  148.9790 O   0  0  0  0  0  1  0  0  0  0  0  0
  1 19  1  1  0  0  0
  1 14  1  0  0  0  0
  2  7  1  0  0  0  0
  4  7  2  0  0  0  0
  4 12  1  0  0  0  0
  5 11  1  6  0  0  0
  5 17  1  0  0  0  0
  6 16  1  0  0  0  0
  6  9  2  0  0  0  0
  7  5  1  0  0  0  0
  9  4  1  0  0  0  0
 10 14  2  0  0  0  0
 11 18  1  0  0  0  0
 12  8  1  0  0  0  0
 13 10  2  0  0  0  0
 13  3  1  0  0  0  0
 14 27  1  0  0  0  0
 15  6  1  0  0  0  0
 16  2  2  0  0  0  0
 17  8  1  6  0  0  0
 17 13  1  0  0  0  0
 18  1  1  0  0  0  0
 19 20  1  6  0  0  0
 21 19  1  0  0  0  0
 23 22  1  6  0  0  0
 23 21  1  0  0  0  0
 24 25  1  6  0  0  0
 24 23  1  0  0  0  0
 26 24  1  0  0  0  0
 27 28  1  0  0  0  0
M  END
>  <MODEL>
8

>  <REMARK>
 VINA RESULT:      -7.4      3.105      6.578
  Name = 
  5 active torsions:
  status: ('A' for Active; 'I' for Inactive)
    1  A    between atoms: C_1  and  C_2
    2  A    between atoms: C_2  and  C_3
    3  A    between atoms: C_3  and  C_11
    4  A    between atoms: C_6  and  C_11
    5  A    between atoms: C_19  and  C_21
                            x       y       z     vdW  Elec       q    Type
                         _______ _______ _______ _____ _____    ______ ____

>  <TORSDO>
F 5

$$$$
=
 OpenBabel11052413313D

 28 30  0  0  1  0  0  0  0  0999 V2000
  185.9590  178.4350  138.8740 C   0  0  1  0  0  3  0  0  0  0  0  0
  186.9570  177.3480  144.0120 C   0  0  0  0  0  3  0  0  0  0  0  0
  181.6850  178.0660  140.7730 O   0  0  0  0  0  1  0  0  0  0  0  0
  185.1060  178.8020  144.6280 C   0  0  0  0  0  0  0  0  0  0  0  0
  185.2610  177.8910  142.2540 C   0  0  2  0  0  3  0  0  0  0  0  0
  186.8330  178.2680  146.2460 C   0  0  0  0  0  0  0  0  0  0  0  0
  185.7640  177.9950  143.6680 C   0  0  0  0  0  0  0  0  0  0  0  0
  183.4300  179.5110  142.8620 C   0  0  0  0  0  2  0  0  0  0  0  0
  185.6420  178.9190  145.9140 C   0  0  0  0  0  3  0  0  0  0  0  0
  183.7760  177.9040  139.7720 C   0  0  0  0  0  0  0  0  0  0  0  0
  186.0740  178.8420  141.3690 C   0  0  0  0  0  2  0  0  0  0  0  0
  183.7710  179.4420  144.3500 C   0  0  0  0  0  2  0  0  0  0  0  0
  183.0710  178.0440  140.8580 C   0  0  0  0  0  0  0  0  0  0  0  0
  184.5920  177.7900  138.7630 C   0  0  0  0  0  0  0  0  0  0  0  0
  187.4970  178.4300  147.8570 Cl  0  0  0  0  0  0  0  0  0  0  0  0
  187.4890  177.4810  145.2970 C   0  0  0  0  0  3  0  0  0  0  0  0
  183.7380  178.1710  142.2050 C   0  0  1  0  0  3  0  0  0  0  0  0
  186.6790  178.0900  140.1880 C   0  0  0  0  0  2  0  0  0  0  0  0
  186.8590  178.1960  137.6540 C   0  0  1  0  0  3  0  0  0  0  0  0
  187.3300  179.4160  137.1640 O   0  0  0  0  0  1  0  0  0  0  0  0
  188.0310  177.2710  137.9710 C   0  0  0  0  0  2  0  0  0  0  0  0
  187.0530  175.1770  137.3980 O   0  0  0  0  0  1  0  0  0  0  0  0
  188.0530  176.0790  137.0240 C   0  0  2  0  0  3  0  0  0  0  0  0
  189.4140  175.3900  137.0680 C   0  0  2  0  0  3  0  0  0  0  0  0
  189.2750  173.9170  136.7260 C   0  0  0  0  0  1  0  0  0  0  0  0
  189.9670  175.5070  138.3440 O   0  0  0  0  0  1  0  0  0  0  0  0
  184.1370  177.0320  137.5570 C   0  0  0  0  0  2  0  0  0  0  0  0
  183.6650  175.7750  137.9330 O   0  0  0  0  0  1  0  0  0  0  0  0
  1 19  1  6  0  0  0
  1 18  1  0  0  0  0
  2 16  1  0  0  0  0
  3 13  1  0  0  0  0
  4  9  2  0  0  0  0
  5 11  1  6  0  0  0
  5  7  1  0  0  0  0
  6 15  1  0  0  0  0
  7  2  2  0  0  0  0
  7  4  1  0  0  0  0
  8 12  1  0  0  0  0
  9  6  1  0  0  0  0
 10 13  2  0  0  0  0
 12  4  1  0  0  0  0
 13 17  1  0  0  0  0
 14  1  1  0  0  0  0
 14 10  2  0  0  0  0
 16  6  2  0  0  0  0
 17  5  1  0  0  0  0
 17  8  1  6  0  0  0
 18 11  1  0  0  0  0
 19 20  1  1  0  0  0
 19 21  1  0  0  0  0
 23 24  1  0  0  0  0
 23 22  1  1  0  0  0
 23 21  1  0  0  0  0
 24 25  1  1  0  0  0
 24 26  1  0  0  0  0
 27 28  1  0  0  0  0
 27 14  1  0  0  0  0
M  END
>  <MODEL>
9

>  <REMARK>
 VINA RESULT:      -7.1      3.840      6.212
  Name = 
  5 active torsions:
  status: ('A' for Active; 'I' for Inactive)
    1  A    between atoms: C_1  and  C_2
    2  A    between atoms: C_2  and  C_3
    3  A    between atoms: C_3  and  C_11
    4  A    between atoms: C_6  and  C_11
    5  A    between atoms: C_19  and  C_21
                            x       y       z     vdW  Elec       q    Type
                         _______ _______ _______ _____ _____    ______ ____

>  <TORSDO>
F 5

$$$$
