=
 OpenBabel11052414293D

 32 38  0  0  1  0  0  0  0  0999 V2000
  187.4080  177.6840  137.7120 C   0  0  1  0  0  3  0  0  0  0  0  0
  189.2840  178.5390  138.8760 C   0  0  2  0  0  3  0  0  0  0  0  0
  186.1580  178.0070  136.4260 S   0  0  0  0  0  0  0  0  0  0  0  0
  188.6380  178.5790  137.5240 C   0  0  1  0  0  3  0  0  0  0  0  0
  190.2260  177.3600  138.7880 C   0  0  2  0  0  0  0  0  0  0  0  0
  188.4510  176.7100  143.4050 C   0  0  0  0  0  3  0  0  0  0  0  0
  188.2200  178.2880  139.9320 C   0  0  1  0  0  3  0  0  0  0  0  0
  190.5630  176.3240  142.2840 C   0  0  0  0  0  3  0  0  0  0  0  0
  190.0740  176.9480  141.1340 C   0  0  0  0  0  0  0  0  0  0  0  0
  189.7660  176.0650  138.0950 C   0  0  2  0  0  3  0  0  0  0  0  0
  189.1930  177.5140  135.3060 C   0  0  0  0  0  2  0  0  0  0  0  0
  190.8880  177.0230  139.9910 O   0  0  0  0  0  0  0  0  0  0  0  0
  189.6650  178.0180  136.6070 N   0  0  2  0  0  0  0  0  0  0  0  0
  188.2370  176.3280  135.4140 C   0  0  0  0  0  2  0  0  0  0  0  0
  186.9870  177.7170  139.2020 C   0  0  1  0  0  3  0  0  0  0  0  0
  190.6040  174.9900  138.4010 O   0  0  0  0  0  1  0  0  0  0  0  0
  188.7460  177.4780  141.1200 C   0  0  0  0  0  0  0  0  0  0  0  0
  190.5730  177.1110  137.3440 C   0  0  1  0  0  3  0  0  0  0  0  0
  186.7800  176.7580  135.2290 C   0  0  0  0  0  2  0  0  0  0  0  0
  189.7530  176.2040  143.4150 C   0  0  0  0  0  3  0  0  0  0  0  0
  187.9540  177.3490  142.2660 C   0  0  0  0  0  3  0  0  0  0  0  0
  183.8950  178.4800  141.0750 C   0  0  1  0  0  3  0  0  0  0  0  0
  183.5330  178.9970  142.3210 O   0  0  0  0  0  1  0  0  0  0  0  0
  183.0880  179.1390  139.9480 C   0  0  1  0  0  3  0  0  0  0  0  0
  184.7680  177.9100  138.7240 O   0  0  0  0  0  0  0  0  0  0  0  0
  183.7460  178.8670  138.5910 C   0  0  0  0  0  2  0  0  0  0  0  0
  185.4130  178.6120  140.8390 C   0  0  2  0  0  3  0  0  0  0  0  0
  185.8770  179.8240  141.3590 O   0  0  0  0  0  1  0  0  0  0  0  0
  185.7750  178.5340  139.4040 N   0  0  1  0  0  0  0  0  0  0  0  0
  181.6650  178.6000  139.9210 C   0  0  0  0  0  2  0  0  0  0  0  0
  180.2460  176.5850  140.3140 C   0  0  0  0  0  1  0  0  0  0  0  0
  181.6410  177.0810  139.9820 C   0  0  0  0  0  2  0  0  0  0  0  0
  1  3  1  6  0  0  0
  1 15  1  0  0  0  0
  2  7  1  0  0  0  0
  4  1  1  0  0  0  0
  4  2  1  0  0  0  0
  5  2  1  0  0  0  0
  5 12  1  0  0  0  0
  6 20  1  0  0  0  0
  7 17  1  0  0  0  0
  8 20  2  0  0  0  0
  9  8  1  0  0  0  0
 10 16  1  0  0  0  0
 10  5  1  0  0  0  0
 11 14  1  0  0  0  0
 11 13  1  0  0  0  0
 12  9  1  0  0  0  0
 13 18  1  0  0  0  0
 13  4  1  0  0  0  0
 15 29  1  0  0  0  0
 15  7  1  0  0  0  0
 17  9  2  0  0  0  0
 17 21  1  0  0  0  0
 18 10  1  0  0  0  0
 18  5  1  0  0  0  0
 19 14  1  0  0  0  0
 19  3  1  0  0  0  0
 21  6  2  0  0  0  0
 22 23  1  0  0  0  0
 24 22  1  0  0  0  0
 25 29  1  0  0  0  0
 26 25  1  0  0  0  0
 26 24  1  0  0  0  0
 27 22  1  0  0  0  0
 27 28  1  0  0  0  0
 29 27  1  0  0  0  0
 30 24  1  0  0  0  0
 30 32  1  0  0  0  0
 32 31  1  0  0  0  0
M  END
>  <MODEL>
1

>  <REMARK>
 VINA RESULT:      -7.9      0.000      0.000
  Name = 
  3 active torsions:
  status: ('A' for Active; 'I' for Inactive)
    1  A    between atoms: C_15  and  C_19
    2  A    between atoms: C_19  and  C_26
    3  A    between atoms: C_24  and  N_27
                            x       y       z     vdW  Elec       q    Type
                         _______ _______ _______ _____ _____    ______ ____

>  <TORSDO>
F 3

$$$$
=
 OpenBabel11052414293D

 32 38  0  0  1  0  0  0  0  0999 V2000
  188.8660  177.6740  141.7990 C   0  0  1  0  0  3  0  0  0  0  0  0
  190.1190  178.6760  143.5410 C   0  0  2  0  0  3  0  0  0  0  0  0
  188.2080  177.8730  140.1120 S   0  0  0  0  0  0  0  0  0  0  0  0
  190.0490  178.6170  142.0440 C   0  0  1  0  0  3  0  0  0  0  0  0
  191.0510  177.5400  143.9010 C   0  0  2  0  0  0  0  0  0  0  0  0
  187.6350  177.0340  147.5010 C   0  0  0  0  0  3  0  0  0  0  0  0
  188.7340  178.4260  144.1170 C   0  0  1  0  0  3  0  0  0  0  0  0
  190.0270  176.6960  147.3130 C   0  0  0  0  0  3  0  0  0  0  0  0
  190.0080  177.2380  146.0260 C   0  0  0  0  0  0  0  0  0  0  0  0
  190.9300  176.1920  143.1680 C   0  0  2  0  0  3  0  0  0  0  0  0
  191.4510  177.4720  140.2880 C   0  0  0  0  0  2  0  0  0  0  0  0
  191.2010  177.2960  145.2850 O   0  0  0  0  0  0  0  0  0  0  0  0
  191.3660  178.0630  141.6350 N   0  0  2  0  0  0  0  0  0  0  0  0
  190.5590  176.2490  140.0940 C   0  0  0  0  0  2  0  0  0  0  0  0
  187.8980  177.7600  143.0050 C   0  0  1  0  0  3  0  0  0  0  0  0
  191.6100  175.1760  143.8430 O   0  0  0  0  0  1  0  0  0  0  0  0
  188.7770  177.7020  145.4650 C   0  0  0  0  0  0  0  0  0  0  0  0
  191.9390  177.2370  142.7230 C   0  0  1  0  0  3  0  0  0  0  0  0
  189.2780  176.5970  139.3320 C   0  0  0  0  0  2  0  0  0  0  0  0
  188.8430  176.5930  148.0480 C   0  0  0  0  0  3  0  0  0  0  0  0
  187.6060  177.5920  146.2210 C   0  0  0  0  0  3  0  0  0  0  0  0
  184.2380  178.2330  143.1850 C   0  0  1  0  0  3  0  0  0  0  0  0
  183.2790  178.5820  144.1390 O   0  0  0  0  0  1  0  0  0  0  0  0
  184.0330  179.0180  141.8830 C   0  0  1  0  0  3  0  0  0  0  0  0
  186.1830  177.9790  141.5220 O   0  0  0  0  0  0  0  0  0  0  0  0
  185.2850  178.9290  141.0040 C   0  0  0  0  0  2  0  0  0  0  0  0
  185.6650  178.4170  143.7410 C   0  0  2  0  0  3  0  0  0  0  0  0
  185.7250  179.5600  144.5430 O   0  0  0  0  0  1  0  0  0  0  0  0
  186.6830  178.5270  142.6690 N   0  0  1  0  0  0  0  0  0  0  0  0
  182.8460  178.4650  141.1050 C   0  0  0  0  0  2  0  0  0  0  0  0
  182.6980  176.4280  139.6710 C   0  0  0  0  0  1  0  0  0  0  0  0
  183.2850  177.8210  139.7990 C   0  0  0  0  0  2  0  0  0  0  0  0
  1  3  1  6  0  0  0
  1  4  1  0  0  0  0
  1 15  1  0  0  0  0
  2  5  1  0  0  0  0
  2  7  1  0  0  0  0
  4  2  1  0  0  0  0
  5 12  1  0  0  0  0
  6 20  1  0  0  0  0
  7 17  1  0  0  0  0
  8 20  2  0  0  0  0
  9  8  1  0  0  0  0
 10 16  1  0  0  0  0
 10  5  1  0  0  0  0
 11 13  1  0  0  0  0
 12  9  1  0  0  0  0
 13  4  1  0  0  0  0
 13 18  1  0  0  0  0
 14 11  1  0  0  0  0
 15  7  1  0  0  0  0
 17  9  2  0  0  0  0
 17 21  1  0  0  0  0
 18 10  1  0  0  0  0
 18  5  1  0  0  0  0
 19 14  1  0  0  0  0
 19  3  1  0  0  0  0
 21  6  2  0  0  0  0
 22 27  1  0  0  0  0
 22 23  1  0  0  0  0
 24 22  1  0  0  0  0
 25 29  1  0  0  0  0
 26 25  1  0  0  0  0
 26 24  1  0  0  0  0
 27 28  1  0  0  0  0
 29 15  1  0  0  0  0
 29 27  1  0  0  0  0
 30 24  1  0  0  0  0
 31 32  1  0  0  0  0
 32 30  1  0  0  0  0
M  END
>  <MODEL>
2

>  <REMARK>
 VINA RESULT:      -7.5      2.776      4.202
  Name = 
  3 active torsions:
  status: ('A' for Active; 'I' for Inactive)
    1  A    between atoms: C_15  and  C_19
    2  A    between atoms: C_19  and  C_26
    3  A    between atoms: C_24  and  N_27
                            x       y       z     vdW  Elec       q    Type
                         _______ _______ _______ _____ _____    ______ ____

>  <TORSDO>
F 3

$$$$
=
 OpenBabel11052414293D

 32 38  0  0  1  0  0  0  0  0999 V2000
  187.0840  175.3220  136.9250 C   0  0  1  0  0  3  0  0  0  0  0  0
  186.0100  177.3900  136.5060 C   0  0  2  0  0  3  0  0  0  0  0  0
  187.9360  173.8910  136.1860 S   0  0  0  0  0  0  0  0  0  0  0  0
  187.1280  176.5350  135.9890 C   0  0  1  0  0  3  0  0  0  0  0  0
  186.6790  178.2650  137.5430 C   0  0  2  0  0  0  0  0  0  0  0  0
  182.4030  177.2420  139.8990 C   0  0  0  0  0  3  0  0  0  0  0  0
  184.9620  176.5040  137.1590 C   0  0  1  0  0  3  0  0  0  0  0  0
  183.9160  179.1300  139.7840 C   0  0  0  0  0  3  0  0  0  0  0  0
  184.6590  178.4820  138.7940 C   0  0  0  0  0  0  0  0  0  0  0  0
  187.7150  177.6540  138.5030 C   0  0  2  0  0  3  0  0  0  0  0  0
  189.6400  176.6850  136.1450 C   0  0  0  0  0  2  0  0  0  0  0  0
  185.8110  179.1020  138.2800 O   0  0  0  0  0  0  0  0  0  0  0  0
  188.3410  177.3790  136.1430 N   0  0  2  0  0  0  0  0  0  0  0  0
  189.8210  175.7190  137.3140 C   0  0  0  0  0  2  0  0  0  0  0  0
  185.6390  175.1510  137.4560 C   0  0  1  0  0  3  0  0  0  0  0  0
  187.9680  178.4930  139.5910 O   0  0  0  0  0  1  0  0  0  0  0  0
  184.2600  177.1880  138.3340 C   0  0  0  0  0  0  0  0  0  0  0  0
  188.1500  178.3640  137.2320 C   0  0  1  0  0  3  0  0  0  0  0  0
  189.5940  174.2670  136.8880 C   0  0  0  0  0  2  0  0  0  0  0  0
  182.7930  178.5110  140.3360 C   0  0  0  0  0  3  0  0  0  0  0  0
  183.1280  176.5900  138.8990 C   0  0  0  0  0  3  0  0  0  0  0  0
  182.5970  173.6210  136.0210 C   0  0  1  0  0  3  0  0  0  0  0  0
  181.7860  173.7750  134.8940 O   0  0  0  0  0  1  0  0  0  0  0  0
  182.9360  172.1430  136.2590 C   0  0  1  0  0  3  0  0  0  0  0  0
  184.4120  173.2640  137.8070 O   0  0  0  0  0  0  0  0  0  0  0  0
  184.1140  172.0160  137.2300 C   0  0  0  0  0  2  0  0  0  0  0  0
  183.8690  174.4850  135.9110 C   0  0  2  0  0  3  0  0  0  0  0  0
  184.3350  174.4890  134.5940 O   0  0  0  0  0  1  0  0  0  0  0  0
  184.9540  174.0160  136.8050 N   0  0  1  0  0  0  0  0  0  0  0  0
  181.7380  171.4050  136.8400 C   0  0  0  0  0  2  0  0  0  0  0  0
  179.3700  172.1030  137.2060 C   0  0  0  0  0  1  0  0  0  0  0  0
  180.8160  172.3450  137.6000 C   0  0  0  0  0  2  0  0  0  0  0  0
  1  3  1  6  0  0  0
  1 15  1  0  0  0  0
  2  7  1  0  0  0  0
  2  5  1  0  0  0  0
  3 19  1  0  0  0  0
  4 13  1  0  0  0  0
  4  2  1  0  0  0  0
  4  1  1  0  0  0  0
  5 12  1  0  0  0  0
  5 10  1  0  0  0  0
  6 20  1  0  0  0  0
  7 15  1  0  0  0  0
  7 17  1  0  0  0  0
  8 20  2  0  0  0  0
  9  8  1  0  0  0  0
 10 16  1  0  0  0  0
 11 14  1  0  0  0  0
 12  9  1  0  0  0  0
 13 11  1  0  0  0  0
 13 18  1  0  0  0  0
 17  9  2  0  0  0  0
 17 21  1  0  0  0  0
 18  5  1  0  0  0  0
 18 10  1  0  0  0  0
 19 14  1  0  0  0  0
 21  6  2  0  0  0  0
 22 24  1  0  0  0  0
 23 22  1  0  0  0  0
 24 30  1  0  0  0  0
 24 26  1  0  0  0  0
 26 25  1  0  0  0  0
 27 22  1  0  0  0  0
 27 29  1  0  0  0  0
 28 27  1  0  0  0  0
 29 15  1  0  0  0  0
 29 25  1  0  0  0  0
 30 32  1  0  0  0  0
 31 32  1  0  0  0  0
M  END
>  <MODEL>
3

>  <REMARK>
 VINA RESULT:      -7.4      3.568      5.608
  Name = 
  3 active torsions:
  status: ('A' for Active; 'I' for Inactive)
    1  A    between atoms: C_15  and  C_19
    2  A    between atoms: C_19  and  C_26
    3  A    between atoms: C_24  and  N_27
                            x       y       z     vdW  Elec       q    Type
                         _______ _______ _______ _____ _____    ______ ____

>  <TORSDO>
F 3

$$$$
=
 OpenBabel11052414293D

 32 38  0  0  1  0  0  0  0  0999 V2000
  181.9280  178.7380  138.0630 C   0  0  1  0  0  3  0  0  0  0  0  0
  181.7350  177.3910  140.0010 C   0  0  2  0  0  3  0  0  0  0  0  0
  181.7320  178.8090  136.2540 S   0  0  0  0  0  0  0  0  0  0  0  0
  181.0880  177.6070  138.6660 C   0  0  1  0  0  3  0  0  0  0  0  0
  180.9850  178.3310  140.9190 C   0  0  2  0  0  0  0  0  0  0  0  0
  185.6320  178.9920  142.6090 C   0  0  0  0  0  3  0  0  0  0  0  0
  183.2000  177.7900  139.9180 C   0  0  1  0  0  3  0  0  0  0  0  0
  183.4130  178.9800  143.5820 C   0  0  0  0  0  3  0  0  0  0  0  0
  182.8720  178.5770  142.3580 C   0  0  0  0  0  0  0  0  0  0  0  0
  180.6280  179.7470  140.4340 C   0  0  2  0  0  3  0  0  0  0  0  0
  178.9310  178.6940  137.9420 C   0  0  0  0  0  2  0  0  0  0  0  0
  181.4820  178.4130  142.2400 O   0  0  0  0  0  0  0  0  0  0  0  0
  179.6900  177.9930  138.9910 N   0  0  2  0  0  0  0  0  0  0  0  0
  179.5150  180.0520  137.5600 C   0  0  0  0  0  2  0  0  0  0  0  0
  183.3530  178.6810  138.6690 C   0  0  1  0  0  3  0  0  0  0  0  0
  180.2580  180.5770  141.4950 O   0  0  0  0  0  1  0  0  0  0  0  0
  183.7310  178.3630  141.2350 C   0  0  0  0  0  0  0  0  0  0  0  0
  179.6250  178.6100  140.3360 C   0  0  1  0  0  3  0  0  0  0  0  0
  180.3130  179.9780  136.2560 C   0  0  0  0  0  2  0  0  0  0  0  0
  184.7890  179.1890  143.7060 C   0  0  0  0  0  3  0  0  0  0  0  0
  185.1060  178.5740  141.3840 C   0  0  0  0  0  3  0  0  0  0  0  0
  185.8940  176.1740  137.7170 C   0  0  1  0  0  3  0  0  0  0  0  0
  185.9430  174.8220  137.3660 O   0  0  0  0  0  1  0  0  0  0  0  0
  186.7220  177.0270  136.7470 C   0  0  1  0  0  3  0  0  0  0  0  0
  185.5360  178.7020  138.0190 O   0  0  0  0  0  0  0  0  0  0  0  0
  186.3550  178.5080  136.8930 C   0  0  0  0  0  2  0  0  0  0  0  0
  184.4370  176.6700  137.8090 C   0  0  2  0  0  3  0  0  0  0  0  0
  183.6650  176.0840  136.8020 O   0  0  0  0  0  1  0  0  0  0  0  0
  184.3300  178.1440  137.7020 N   0  0  1  0  0  0  0  0  0  0  0  0
  188.2100  176.8590  137.0210 C   0  0  0  0  0  2  0  0  0  0  0  0
  189.4040  178.1540  138.7890 C   0  0  0  0  0  1  0  0  0  0  0  0
  188.5190  176.9540  138.5070 C   0  0  0  0  0  2  0  0  0  0  0  0
  1  3  1  6  0  0  0
  1  4  1  0  0  0  0
  1 15  1  0  0  0  0
  2  5  1  0  0  0  0
  3 19  1  0  0  0  0
  4 13  1  0  0  0  0
  4  2  1  0  0  0  0
  5 12  1  0  0  0  0
  6 20  1  0  0  0  0
  7  2  1  0  0  0  0
  7 17  1  0  0  0  0
  8 20  2  0  0  0  0
  9  8  1  0  0  0  0
 10  5  1  0  0  0  0
 10 16  1  0  0  0  0
 11 13  1  0  0  0  0
 12  9  1  0  0  0  0
 13 18  1  0  0  0  0
 14 11  1  0  0  0  0
 15  7  1  0  0  0  0
 17 21  1  0  0  0  0
 17  9  2  0  0  0  0
 18 10  1  0  0  0  0
 18  5  1  0  0  0  0
 19 14  1  0  0  0  0
 21  6  2  0  0  0  0
 22 27  1  0  0  0  0
 23 22  1  0  0  0  0
 24 26  1  0  0  0  0
 24 30  1  0  0  0  0
 24 22  1  0  0  0  0
 26 25  1  0  0  0  0
 28 27  1  0  0  0  0
 29 27  1  0  0  0  0
 29 25  1  0  0  0  0
 29 15  1  0  0  0  0
 30 32  1  0  0  0  0
 32 31  1  0  0  0  0
M  END
>  <MODEL>
4

>  <REMARK>
 VINA RESULT:      -7.3      2.769      7.296
  Name = 
  3 active torsions:
  status: ('A' for Active; 'I' for Inactive)
    1  A    between atoms: C_15  and  C_19
    2  A    between atoms: C_19  and  C_26
    3  A    between atoms: C_24  and  N_27
                            x       y       z     vdW  Elec       q    Type
                         _______ _______ _______ _____ _____    ______ ____

>  <TORSDO>
F 3

$$$$
=
 OpenBabel11052414293D

 32 38  0  0  1  0  0  0  0  0999 V2000
  184.0350  176.2490  137.1730 C   0  0  1  0  0  3  0  0  0  0  0  0
  185.6370  177.9790  136.9530 C   0  0  2  0  0  3  0  0  0  0  0  0
  182.4920  175.5350  136.5180 S   0  0  0  0  0  0  0  0  0  0  0  0
  184.7270  177.1260  136.1220 C   0  0  1  0  0  3  0  0  0  0  0  0
  186.9200  177.1790  137.0160 C   0  0  2  0  0  0  0  0  0  0  0  0
  186.7000  178.8390  141.7160 C   0  0  0  0  0  3  0  0  0  0  0  0
  185.0440  178.1380  138.3440 C   0  0  1  0  0  3  0  0  0  0  0  0
  188.4600  178.3530  140.1240 C   0  0  0  0  0  3  0  0  0  0  0  0
  187.5060  178.1150  139.1310 C   0  0  0  0  0  0  0  0  0  0  0  0
  186.8590  175.6560  137.2230 C   0  0  2  0  0  3  0  0  0  0  0  0
  185.1130  175.1570  134.5950 C   0  0  0  0  0  2  0  0  0  0  0  0
  187.9260  177.7140  137.8520 O   0  0  0  0  0  0  0  0  0  0  0  0
  185.6420  176.3830  135.2160 N   0  0  2  0  0  0  0  0  0  0  0  0
  184.7600  174.0600  135.5970 C   0  0  0  0  0  2  0  0  0  0  0  0
  184.0040  177.0130  138.5200 C   0  0  1  0  0  3  0  0  0  0  0  0
  188.1010  175.1360  137.5970 O   0  0  0  0  0  1  0  0  0  0  0  0
  186.1140  178.2540  139.4320 C   0  0  0  0  0  0  0  0  0  0  0  0
  186.9820  176.2520  135.8310 C   0  0  1  0  0  3  0  0  0  0  0  0
  183.2540  173.9960  135.8590 C   0  0  0  0  0  2  0  0  0  0  0  0
  188.0580  178.7120  141.4120 C   0  0  0  0  0  3  0  0  0  0  0  0
  185.7360  178.6180  140.7290 C   0  0  0  0  0  3  0  0  0  0  0  0
  181.7680  179.7490  139.6000 C   0  0  1  0  0  3  0  0  0  0  0  0
  181.2990  180.9680  139.1040 O   0  0  0  0  0  1  0  0  0  0  0  0
  180.6210  178.9090  140.1760 C   0  0  1  0  0  3  0  0  0  0  0  0
  182.4500  177.3330  140.1550 O   0  0  0  0  0  0  0  0  0  0  0  0
  181.0630  177.4520  140.3530 C   0  0  0  0  0  2  0  0  0  0  0  0
  182.5530  178.9770  138.5210 C   0  0  2  0  0  3  0  0  0  0  0  0
  181.9450  179.1420  137.2730 O   0  0  0  0  0  1  0  0  0  0  0  0
  182.6530  177.5280  138.8190 N   0  0  1  0  0  0  0  0  0  0  0  0
  180.1810  179.4570  141.5270 C   0  0  0  0  0  2  0  0  0  0  0  0
  180.5770  178.6350  143.8500 C   0  0  0  0  0  1  0  0  0  0  0  0
  181.2270  179.2020  142.6010 C   0  0  0  0  0  2  0  0  0  0  0  0
  1  3  1  6  0  0  0
  1 15  1  0  0  0  0
  2  5  1  0  0  0  0
  2  7  1  0  0  0  0
  4  2  1  0  0  0  0
  4  1  1  0  0  0  0
  5 10  1  0  0  0  0
  5 12  1  0  0  0  0
  7 15  1  0  0  0  0
  7 17  1  0  0  0  0
  8 20  2  0  0  0  0
  9 17  2  0  0  0  0
  9  8  1  0  0  0  0
 10 16  1  0  0  0  0
 11 13  1  0  0  0  0
 11 14  1  0  0  0  0
 12  9  1  0  0  0  0
 13 18  1  0  0  0  0
 13  4  1  0  0  0  0
 14 19  1  0  0  0  0
 15 29  1  0  0  0  0
 17 21  1  0  0  0  0
 18  5  1  0  0  0  0
 18 10  1  0  0  0  0
 19  3  1  0  0  0  0
 20  6  1  0  0  0  0
 21  6  2  0  0  0  0
 22 24  1  0  0  0  0
 23 22  1  0  0  0  0
 24 26  1  0  0  0  0
 24 30  1  0  0  0  0
 25 26  1  0  0  0  0
 27 29  1  0  0  0  0
 27 22  1  0  0  0  0
 28 27  1  0  0  0  0
 29 25  1  0  0  0  0
 30 32  1  0  0  0  0
 32 31  1  0  0  0  0
M  END
>  <MODEL>
5

>  <REMARK>
 VINA RESULT:      -7.2      2.600      3.737
  Name = 
  3 active torsions:
  status: ('A' for Active; 'I' for Inactive)
    1  A    between atoms: C_15  and  C_19
    2  A    between atoms: C_19  and  C_26
    3  A    between atoms: C_24  and  N_27
                            x       y       z     vdW  Elec       q    Type
                         _______ _______ _______ _____ _____    ______ ____

>  <TORSDO>
F 3

$$$$
=
 OpenBabel11052414293D

 32 38  0  0  1  0  0  0  0  0999 V2000
  190.3340  176.6750  144.5470 C   0  0  1  0  0  3  0  0  0  0  0  0
  189.4340  178.5340  145.7050 C   0  0  2  0  0  3  0  0  0  0  0  0
  191.7780  176.0110  143.6570 S   0  0  0  0  0  0  0  0  0  0  0  0
  190.7370  177.8310  145.4690 C   0  0  1  0  0  3  0  0  0  0  0  0
  188.8760  177.8520  146.9350 C   0  0  2  0  0  0  0  0  0  0  0  0
  184.7080  178.3160  144.2340 C   0  0  0  0  0  3  0  0  0  0  0  0
  188.5190  178.3060  144.5130 C   0  0  1  0  0  3  0  0  0  0  0  0
  185.2680  178.3720  146.5900 C   0  0  0  0  0  3  0  0  0  0  0  0
  186.6280  178.3000  146.2750 C   0  0  0  0  0  0  0  0  0  0  0  0
  188.9860  176.3230  147.0750 C   0  0  2  0  0  3  0  0  0  0  0  0
  192.1750  176.3230  146.8900 C   0  0  0  0  0  2  0  0  0  0  0  0
  187.5740  178.2530  147.3120 O   0  0  0  0  0  0  0  0  0  0  0  0
  191.1780  177.4050  146.8240 N   0  0  2  0  0  0  0  0  0  0  0  0
  191.6810  174.9940  146.3250 C   0  0  0  0  0  2  0  0  0  0  0  0
  189.0750  177.0890  143.7460 C   0  0  1  0  0  3  0  0  0  0  0  0
  188.1370  175.8350  148.0710 O   0  0  0  0  0  1  0  0  0  0  0  0
  187.0410  178.2470  144.9070 C   0  0  0  0  0  0  0  0  0  0  0  0
  190.0100  177.2430  147.7190 C   0  0  1  0  0  3  0  0  0  0  0  0
  192.2180  174.7440  144.9150 C   0  0  0  0  0  2  0  0  0  0  0  0
  184.3120  178.3780  145.5730 C   0  0  0  0  0  3  0  0  0  0  0  0
  186.0640  178.2580  143.9050 C   0  0  0  0  0  3  0  0  0  0  0  0
  188.0420  177.6600  140.2450 C   0  0  1  0  0  3  0  0  0  0  0  0
  187.3560  178.6280  139.5060 O   0  0  0  0  0  1  0  0  0  0  0  0
  189.3400  177.2460  139.5400 C   0  0  1  0  0  3  0  0  0  0  0  0
  189.5780  176.2070  141.7070 O   0  0  0  0  0  0  0  0  0  0  0  0
  190.2610  176.5020  140.5130 C   0  0  0  0  0  2  0  0  0  0  0  0
  188.3060  178.1470  141.6840 C   0  0  2  0  0  3  0  0  0  0  0  0
  188.6160  179.5100  141.6820 O   0  0  0  0  0  1  0  0  0  0  0  0
  189.4060  177.4040  142.3420 N   0  0  1  0  0  0  0  0  0  0  0  0
  189.0410  176.3390  138.3550 C   0  0  0  0  0  2  0  0  0  0  0  0
  189.0560  178.0610  136.5490 C   0  0  0  0  0  1  0  0  0  0  0  0
  189.7390  176.8200  137.0920 C   0  0  0  0  0  2  0  0  0  0  0  0
  1  3  1  6  0  0  0
  1  4  1  0  0  0  0
  2  5  1  0  0  0  0
  3 19  1  0  0  0  0
  4  2  1  0  0  0  0
  4 13  1  0  0  0  0
  5 10  1  0  0  0  0
  5 12  1  0  0  0  0
  5 18  1  0  0  0  0
  6 20  1  0  0  0  0
  7 17  1  0  0  0  0
  7  2  1  0  0  0  0
  9  8  1  0  0  0  0
  9 12  1  0  0  0  0
 10 18  1  0  0  0  0
 10 16  1  0  0  0  0
 13 11  1  0  0  0  0
 13 18  1  0  0  0  0
 14 11  1  0  0  0  0
 15  7  1  0  0  0  0
 15  1  1  0  0  0  0
 17  9  2  0  0  0  0
 19 14  1  0  0  0  0
 20  8  2  0  0  0  0
 21  6  2  0  0  0  0
 21 17  1  0  0  0  0
 22 27  1  0  0  0  0
 23 22  1  0  0  0  0
 24 22  1  0  0  0  0
 24 26  1  0  0  0  0
 25 29  1  0  0  0  0
 26 25  1  0  0  0  0
 27 29  1  0  0  0  0
 28 27  1  0  0  0  0
 29 15  1  0  0  0  0
 30 24  1  0  0  0  0
 31 32  1  0  0  0  0
 32 30  1  0  0  0  0
M  END
>  <MODEL>
6

>  <REMARK>
 VINA RESULT:      -7.2      4.043      7.612
  Name = 
  3 active torsions:
  status: ('A' for Active; 'I' for Inactive)
    1  A    between atoms: C_15  and  C_19
    2  A    between atoms: C_19  and  C_26
    3  A    between atoms: C_24  and  N_27
                            x       y       z     vdW  Elec       q    Type
                         _______ _______ _______ _____ _____    ______ ____

>  <TORSDO>
F 3

$$$$
=
 OpenBabel11052414293D

 32 38  0  0  1  0  0  0  0  0999 V2000
  188.0190  177.2710  138.7100 C   0  0  1  0  0  3  0  0  0  0  0  0
  188.7060  178.8290  140.3560 C   0  0  2  0  0  3  0  0  0  0  0  0
  187.8430  176.9440  136.9270 S   0  0  0  0  0  0  0  0  0  0  0  0
  189.0540  178.3710  138.9710 C   0  0  1  0  0  3  0  0  0  0  0  0
  189.5430  177.9390  141.2480 C   0  0  2  0  0  0  0  0  0  0  0  0
  185.2880  178.0220  143.8510 C   0  0  0  0  0  3  0  0  0  0  0  0
  187.2270  178.5870  140.6060 C   0  0  1  0  0  3  0  0  0  0  0  0
  187.6490  177.9140  144.3820 C   0  0  0  0  0  3  0  0  0  0  0  0
  187.9670  178.0930  143.0330 C   0  0  0  0  0  0  0  0  0  0  0  0
  189.6770  176.4410  140.9220 C   0  0  2  0  0  3  0  0  0  0  0  0
  190.9250  176.9670  138.0290 C   0  0  0  0  0  2  0  0  0  0  0  0
  189.3140  178.0850  142.6350 O   0  0  0  0  0  0  0  0  0  0  0  0
  190.4520  177.8780  139.0850 N   0  0  2  0  0  0  0  0  0  0  0  0
  190.1650  175.6440  137.9690 C   0  0  0  0  0  2  0  0  0  0  0  0
  186.7530  177.5640  139.5540 C   0  0  1  0  0  3  0  0  0  0  0  0
  190.1800  175.7200  142.0070 O   0  0  0  0  0  1  0  0  0  0  0  0
  186.9220  178.2530  142.0690 C   0  0  0  0  0  0  0  0  0  0  0  0
  190.7320  177.4370  140.4700 C   0  0  1  0  0  3  0  0  0  0  0  0
  189.1320  175.6360  136.8390 C   0  0  0  0  0  2  0  0  0  0  0  0
  186.3140  177.8770  144.7880 C   0  0  0  0  0  3  0  0  0  0  0  0
  185.5920  178.2160  142.5010 C   0  0  0  0  0  3  0  0  0  0  0  0
  183.1840  178.3980  139.0900 C   0  0  1  0  0  3  0  0  0  0  0  0
  182.2690  179.3500  139.5460 O   0  0  0  0  0  1  0  0  0  0  0  0
  183.0950  178.2320  137.5670 C   0  0  1  0  0  3  0  0  0  0  0  0
  185.0950  176.9900  138.1020 O   0  0  0  0  0  0  0  0  0  0  0  0
  184.3340  177.5030  137.0360 C   0  0  0  0  0  2  0  0  0  0  0  0
  184.6170  178.7460  139.5410 C   0  0  2  0  0  3  0  0  0  0  0  0
  184.8170  180.1280  139.4840 O   0  0  0  0  0  1  0  0  0  0  0  0
  185.6510  178.0750  138.7170 N   0  0  1  0  0  0  0  0  0  0  0  0
  181.8540  177.4360  137.1860 C   0  0  0  0  0  2  0  0  0  0  0  0
  181.0120  179.5920  136.2530 C   0  0  0  0  0  1  0  0  0  0  0  0
  181.0990  178.0920  136.0410 C   0  0  0  0  0  2  0  0  0  0  0  0
  1  3  1  6  0  0  0
  1  4  1  0  0  0  0
  1 15  1  0  0  0  0
  2  7  1  0  0  0  0
  2  5  1  0  0  0  0
  4 13  1  0  0  0  0
  4  2  1  0  0  0  0
  5 12  1  0  0  0  0
  6 20  1  0  0  0  0
  7 17  1  0  0  0  0
  8 20  2  0  0  0  0
  9  8  1  0  0  0  0
 10  5  1  0  0  0  0
 10 16  1  0  0  0  0
 11 13  1  0  0  0  0
 12  9  1  0  0  0  0
 13 18  1  0  0  0  0
 14 11  1  0  0  0  0
 15  7  1  0  0  0  0
 17 21  1  0  0  0  0
 17  9  2  0  0  0  0
 18 10  1  0  0  0  0
 18  5  1  0  0  0  0
 19  3  1  0  0  0  0
 19 14  1  0  0  0  0
 21  6  2  0  0  0  0
 22 27  1  0  0  0  0
 22 23  1  0  0  0  0
 24 22  1  0  0  0  0
 25 29  1  0  0  0  0
 26 24  1  0  0  0  0
 26 25  1  0  0  0  0
 28 27  1  0  0  0  0
 29 27  1  0  0  0  0
 29 15  1  0  0  0  0
 30 24  1  0  0  0  0
 32 31  1  0  0  0  0
 32 30  1  0  0  0  0
M  END
>  <MODEL>
7

>  <REMARK>
 VINA RESULT:      -6.9      1.966      2.793
  Name = 
  3 active torsions:
  status: ('A' for Active; 'I' for Inactive)
    1  A    between atoms: C_15  and  C_19
    2  A    between atoms: C_19  and  C_26
    3  A    between atoms: C_24  and  N_27
                            x       y       z     vdW  Elec       q    Type
                         _______ _______ _______ _____ _____    ______ ____

>  <TORSDO>
F 3

$$$$
=
 OpenBabel11052414293D

 32 38  0  0  1  0  0  0  0  0999 V2000
  187.9190  176.4370  136.5940 C   0  0  1  0  0  3  0  0  0  0  0  0
  189.4290  178.0140  137.5120 C   0  0  2  0  0  3  0  0  0  0  0  0
  186.8510  176.0240  135.1760 S   0  0  0  0  0  0  0  0  0  0  0  0
  189.0050  177.4420  136.1920 C   0  0  1  0  0  3  0  0  0  0  0  0
  190.5490  177.1000  137.9560 C   0  0  2  0  0  0  0  0  0  0  0  0
  188.1960  177.7620  142.3040 C   0  0  0  0  0  3  0  0  0  0  0  0
  188.2650  177.9360  138.4880 C   0  0  1  0  0  3  0  0  0  0  0  0
  190.4920  177.4500  141.6000 C   0  0  0  0  0  3  0  0  0  0  0  0
  190.0970  177.5160  140.2620 C   0  0  0  0  0  0  0  0  0  0  0  0
  190.4150  175.5790  137.7600 C   0  0  2  0  0  3  0  0  0  0  0  0
  190.0640  175.8050  134.5940 C   0  0  0  0  0  2  0  0  0  0  0  0
  191.0580  177.3500  139.2500 O   0  0  0  0  0  0  0  0  0  0  0  0
  190.2400  176.8190  135.6460 N   0  0  2  0  0  0  0  0  0  0  0  0
  189.3040  174.5630  135.0540 C   0  0  0  0  0  2  0  0  0  0  0  0
  187.2700  176.9050  137.9200 C   0  0  1  0  0  3  0  0  0  0  0  0
  191.3550  174.8770  138.5190 O   0  0  0  0  0  1  0  0  0  0  0  0
  188.7210  177.7220  139.9340 C   0  0  0  0  0  0  0  0  0  0  0  0
  191.1540  176.4360  136.7460 C   0  0  1  0  0  3  0  0  0  0  0  0
  187.8450  174.5910  134.5940 C   0  0  0  0  0  2  0  0  0  0  0  0
  189.5440  177.5710  142.6180 C   0  0  0  0  0  3  0  0  0  0  0  0
  187.7890  177.8440  140.9700 C   0  0  0  0  0  3  0  0  0  0  0  0
  184.4720  179.0730  138.9800 C   0  0  1  0  0  3  0  0  0  0  0  0
  184.2000  180.4380  139.1010 O   0  0  0  0  0  1  0  0  0  0  0  0
  183.3210  178.3410  138.2760 C   0  0  1  0  0  3  0  0  0  0  0  0
  185.0440  176.6510  138.3340 O   0  0  0  0  0  0  0  0  0  0  0  0
  183.7790  176.9580  137.8020 C   0  0  0  0  0  2  0  0  0  0  0  0
  185.8180  178.8370  138.2640 C   0  0  2  0  0  3  0  0  0  0  0  0
  185.9880  179.7720  137.2400 O   0  0  0  0  0  1  0  0  0  0  0  0
  185.9270  177.4730  137.6940 N   0  0  1  0  0  0  0  0  0  0  0  0
  182.1380  178.1710  139.2190 C   0  0  0  0  0  2  0  0  0  0  0  0
  181.1950  179.6050  137.4070 C   0  0  0  0  0  1  0  0  0  0  0  0
  180.9490  179.0130  138.7820 C   0  0  0  0  0  2  0  0  0  0  0  0
  1  3  1  6  0  0  0
  1 15  1  0  0  0  0
  2  5  1  0  0  0  0
  2  7  1  0  0  0  0
  4  1  1  0  0  0  0
  4  2  1  0  0  0  0
  5 12  1  0  0  0  0
  6 20  1  0  0  0  0
  7 17  1  0  0  0  0
  8 20  2  0  0  0  0
  9  8  1  0  0  0  0
 10  5  1  0  0  0  0
 10 16  1  0  0  0  0
 11 14  1  0  0  0  0
 11 13  1  0  0  0  0
 12  9  1  0  0  0  0
 13  4  1  0  0  0  0
 13 18  1  0  0  0  0
 15  7  1  0  0  0  0
 17  9  2  0  0  0  0
 17 21  1  0  0  0  0
 18 10  1  0  0  0  0
 18  5  1  0  0  0  0
 19 14  1  0  0  0  0
 19  3  1  0  0  0  0
 21  6  2  0  0  0  0
 22 23  1  0  0  0  0
 24 22  1  0  0  0  0
 24 30  1  0  0  0  0
 26 24  1  0  0  0  0
 26 25  1  0  0  0  0
 27 22  1  0  0  0  0
 28 27  1  0  0  0  0
 29 15  1  0  0  0  0
 29 27  1  0  0  0  0
 29 25  1  0  0  0  0
 31 32  1  0  0  0  0
 32 30  1  0  0  0  0
M  END
>  <MODEL>
8

>  <REMARK>
 VINA RESULT:      -6.9      1.600      2.032
  Name = 
  3 active torsions:
  status: ('A' for Active; 'I' for Inactive)
    1  A    between atoms: C_15  and  C_19
    2  A    between atoms: C_19  and  C_26
    3  A    between atoms: C_24  and  N_27
                            x       y       z     vdW  Elec       q    Type
                         _______ _______ _______ _____ _____    ______ ____

>  <TORSDO>
F 3

$$$$
=
 OpenBabel11052414293D

 32 38  0  0  1  0  0  0  0  0999 V2000
  185.5850  176.0860  136.4990 C   0  0  1  0  0  3  0  0  0  0  0  0
  186.0220  178.3120  137.1780 C   0  0  2  0  0  3  0  0  0  0  0  0
  185.1140  174.9990  135.1150 S   0  0  0  0  0  0  0  0  0  0  0  0
  186.1660  177.4100  135.9890 C   0  0  1  0  0  3  0  0  0  0  0  0
  187.3210  178.1240  137.9300 C   0  0  2  0  0  0  0  0  0  0  0  0
  184.1170  178.2550  141.7510 C   0  0  0  0  0  3  0  0  0  0  0  0
  184.8490  177.8440  138.0240 C   0  0  1  0  0  3  0  0  0  0  0  0
  186.4010  178.9690  141.3710 C   0  0  0  0  0  3  0  0  0  0  0  0
  186.2890  178.6290  140.0210 C   0  0  0  0  0  0  0  0  0  0  0  0
  187.9200  176.7140  138.0760 C   0  0  2  0  0  3  0  0  0  0  0  0
  188.1330  176.2480  134.9230 C   0  0  0  0  0  2  0  0  0  0  0  0
  187.4010  178.7850  139.1760 O   0  0  0  0  0  0  0  0  0  0  0  0
  187.6280  177.3740  135.7270 N   0  0  2  0  0  0  0  0  0  0  0  0
  187.9320  174.8830  135.5780 C   0  0  0  0  0  2  0  0  0  0  0  0
  184.5500  176.3890  137.6110 C   0  0  1  0  0  3  0  0  0  0  0  0
  188.9040  176.6720  139.0660 O   0  0  0  0  0  1  0  0  0  0  0  0
  185.0590  178.1000  139.5180 C   0  0  0  0  0  0  0  0  0  0  0  0
  188.3820  177.6490  136.9720 C   0  0  1  0  0  3  0  0  0  0  0  0
  186.7350  174.1400  134.9800 C   0  0  0  0  0  2  0  0  0  0  0  0
  185.3190  178.7810  142.2340 C   0  0  0  0  0  3  0  0  0  0  0  0
  183.9880  177.9250  140.4000 C   0  0  0  0  0  3  0  0  0  0  0  0
  181.0230  177.4790  137.4550 C   0  0  1  0  0  3  0  0  0  0  0  0
  180.2790  178.5170  136.8900 O   0  0  0  0  0  1  0  0  0  0  0  0
  180.3620  176.1200  137.1930 C   0  0  1  0  0  3  0  0  0  0  0  0
  182.5140  175.4810  138.0830 O   0  0  0  0  0  0  0  0  0  0  0  0
  181.3560  174.9830  137.4600 C   0  0  0  0  0  2  0  0  0  0  0  0
  182.4820  177.5080  136.9550 C   0  0  2  0  0  3  0  0  0  0  0  0
  182.5210  177.8680  135.6050 O   0  0  0  0  0  1  0  0  0  0  0  0
  183.1680  176.2060  137.1270 N   0  0  1  0  0  0  0  0  0  0  0  0
  179.1470  175.9320  138.0900 C   0  0  0  0  0  2  0  0  0  0  0  0
  179.4960  175.9780  140.5610 C   0  0  0  0  0  1  0  0  0  0  0  0
  179.4830  175.1030  139.3210 C   0  0  0  0  0  2  0  0  0  0  0  0
  1  3  1  6  0  0  0
  1 15  1  0  0  0  0
  2  5  1  0  0  0  0
  2  7  1  0  0  0  0
  4  1  1  0  0  0  0
  4  2  1  0  0  0  0
  5 10  1  0  0  0  0
  5 12  1  0  0  0  0
  6 20  1  0  0  0  0
  7 17  1  0  0  0  0
  8 20  2  0  0  0  0
  9  8  1  0  0  0  0
 10 16  1  0  0  0  0
 11 14  1  0  0  0  0
 11 13  1  0  0  0  0
 12  9  1  0  0  0  0
 13  4  1  0  0  0  0
 13 18  1  0  0  0  0
 15  7  1  0  0  0  0
 17  9  2  0  0  0  0
 17 21  1  0  0  0  0
 18  5  1  0  0  0  0
 18 10  1  0  0  0  0
 19  3  1  0  0  0  0
 19 14  1  0  0  0  0
 21  6  2  0  0  0  0
 23 22  1  0  0  0  0
 24 22  1  0  0  0  0
 24 26  1  0  0  0  0
 24 30  1  0  0  0  0
 26 25  1  0  0  0  0
 27 29  1  0  0  0  0
 27 22  1  0  0  0  0
 28 27  1  0  0  0  0
 29 15  1  0  0  0  0
 29 25  1  0  0  0  0
 30 32  1  0  0  0  0
 32 31  1  0  0  0  0
M  END
>  <MODEL>
9

>  <REMARK>
 VINA RESULT:      -6.8      2.668      3.933
  Name = 
  3 active torsions:
  status: ('A' for Active; 'I' for Inactive)
    1  A    between atoms: C_15  and  C_19
    2  A    between atoms: C_19  and  C_26
    3  A    between atoms: C_24  and  N_27
                            x       y       z     vdW  Elec       q    Type
                         _______ _______ _______ _____ _____    ______ ____

>  <TORSDO>
F 3

$$$$
