=
 OpenBabel11052415573D

 34 39  0  0  1  0  0  0  0  0999 V2000
  182.6030  178.8010  141.5690 N   0  0  0  0  0  0  0  0  0  0  0  0
  184.0620  177.5140  138.5460 C   0  0  0  0  0  3  0  0  0  0  0  0
  182.1160  177.1650  139.9590 N   0  0  0  0  0  0  0  0  0  0  0  0
  180.0550  179.8640  141.0760 C   0  0  0  0  0  1  0  0  0  0  0  0
  180.2250  178.3800  140.7810 C   0  0  2  0  0  0  0  0  0  0  0  0
  179.2340  177.6700  141.4600 O   0  0  0  0  0  1  0  0  0  0  0  0
  181.1100  177.0800  138.9190 C   0  0  0  0  0  2  0  0  0  0  0  0
  181.5990  177.8020  141.1670 C   0  0  2  0  0  3  0  0  0  0  0  0
  180.0720  178.1300  139.2830 C   0  0  0  0  0  2  0  0  0  0  0  0
  185.2590  178.3220  138.1620 C   0  0  0  0  0  2  0  0  0  0  0  0
  186.3800  178.2610  139.1560 C   0  0  0  0  0  0  0  0  0  0  0  0
  186.2370  178.6540  140.4270 C   0  0  0  0  0  3  0  0  0  0  0  0
  183.4100  177.7000  139.6950 C   0  0  0  0  0  0  0  0  0  0  0  0
  184.9800  179.0260  141.1020 C   0  0  0  0  0  3  0  0  0  0  0  0
  183.7520  178.6350  140.7430 C   0  0  0  0  0  0  0  0  0  0  0  0
  187.7430  177.8590  138.6790 C   0  0  1  0  0  3  0  0  0  0  0  0
  188.0620  178.4720  137.3680 C   0  0  0  0  0  2  0  0  0  0  0  0
  188.5690  178.9970  138.5690 O   0  0  0  0  0  0  0  0  0  0  0  0
  182.6470  179.3840  142.9070 C   0  0  0  0  0  2  0  0  0  0  0  0
  183.2760  178.3990  143.8820 C   0  0  0  0  0  2  0  0  0  0  0  0
  183.8800  179.1340  145.0710 C   0  0  0  0  0  2  0  0  0  0  0  0
  186.8580  178.2870  147.2620 C   0  0  0  0  0  3  0  0  0  0  0  0
  185.9360  177.8840  144.5760 C   0  0  0  0  0  3  0  0  0  0  0  0
  189.9760  177.1620  145.4830 N   0  0  0  0  0  0  0  0  0  0  0  0
  189.0840  177.6230  146.5130 C   0  0  0  0  0  3  0  0  0  0  0  0
  187.7760  177.7180  146.2660 C   0  0  0  0  0  0  0  0  0  0  0  0
  188.2140  177.1620  143.8470 C   0  0  0  0  0  3  0  0  0  0  0  0
  187.2110  177.1910  144.9660 C   0  0  2  0  0  3  0  0  0  0  0  0
  189.5200  177.0970  144.1220 C   0  0  0  0  0  3  0  0  0  0  0  0
  185.1770  178.5150  145.4840 C   0  0  0  0  0  0  0  0  0  0  0  0
  185.6270  178.6510  146.8880 C   0  0  0  0  0  3  0  0  0  0  0  0
  191.3000  177.0530  145.7490 O   0  0  0  0  0  0  0  0  0  0  0  0
  192.3660  175.5740  147.2850 C   0  0  0  0  0  1  0  0  0  0  0  0
  191.3740  176.7050  147.1030 C   0  0  0  0  0  2  0  0  0  0  0  0
  1 19  1  0  0  0  0
  2 13  2  0  0  0  0
  5  4  1  1  0  0  0
  5  8  1  0  0  0  0
  5  6  1  0  0  0  0
  7  9  1  0  0  0  0
  7  3  1  0  0  0  0
  8  3  1  6  0  0  0
  8  1  1  0  0  0  0
  9  5  1  0  0  0  0
 10  2  1  0  0  0  0
 10 11  1  0  0  0  0
 11 12  2  0  0  0  0
 12 14  1  0  0  0  0
 13  3  1  0  0  0  0
 13 15  1  0  0  0  0
 15 14  2  0  0  0  0
 15  1  1  0  0  0  0
 16 11  1  1  0  0  0
 17 18  1  0  0  0  0
 17 16  1  0  0  0  0
 18 16  1  0  0  0  0
 19 20  1  0  0  0  0
 20 21  1  0  0  0  0
 21 30  1  0  0  0  0
 23 28  1  0  0  0  0
 23 30  2  0  0  0  0
 24 32  1  0  0  0  0
 24 25  1  0  0  0  0
 26 25  2  0  0  0  0
 26 22  1  0  0  0  0
 27 29  2  0  0  0  0
 28 27  1  6  0  0  0
 28 26  1  0  0  0  0
 29 24  1  0  0  0  0
 30 31  1  0  0  0  0
 31 22  2  0  0  0  0
 32 34  1  0  0  0  0
 34 33  1  0  0  0  0
M  END
>  <MODEL>
1

>  <REMARK>
 VINA RESULT:      -9.2      0.000      0.000
  Name = 
  7 active torsions:
  status: ('A' for Active; 'I' for Inactive)
    1  A    between atoms: N_1  and  C_9
    2  A    between atoms: C_3  and  C_25
    3  A    between atoms: N_7  and  O_11
    4  A    between atoms: C_8  and  C_9
    5  A    between atoms: C_8  and  C_18
    6  A    between atoms: O_11  and  C_21
    7  A    between atoms: C_18  and  C_30
                            x       y       z     vdW  Elec       q    Type
                         _______ _______ _______ _____ _____    ______ ____

>  <TORSDO>
F 7

$$$$
=
 OpenBabel11052415573D

 34 39  0  0  1  0  0  0  0  0999 V2000
  184.6330  178.5900  139.3050 N   0  0  0  0  0  0  0  0  0  0  0  0
  185.7350  176.8550  136.3550 C   0  0  0  0  0  3  0  0  0  0  0  0
  183.7760  177.0240  137.7840 N   0  0  0  0  0  0  0  0  0  0  0  0
  182.3820  180.1690  138.7560 C   0  0  0  0  0  1  0  0  0  0  0  0
  182.2130  178.6710  138.5390 C   0  0  2  0  0  0  0  0  0  0  0  0
  181.0960  178.2360  139.2550 O   0  0  0  0  0  1  0  0  0  0  0  0
  182.7640  177.1120  136.7490 C   0  0  0  0  0  2  0  0  0  0  0  0
  183.4280  177.8220  138.9560 C   0  0  2  0  0  3  0  0  0  0  0  0
  181.9910  178.3850  137.0570 C   0  0  0  0  0  2  0  0  0  0  0  0
  187.0770  177.3550  135.9290 C   0  0  0  0  0  2  0  0  0  0  0  0
  188.1680  177.0960  136.9260 C   0  0  0  0  0  0  0  0  0  0  0  0
  188.1300  177.5760  138.1750 C   0  0  0  0  0  3  0  0  0  0  0  0
  185.1530  177.2420  137.4920 C   0  0  0  0  0  0  0  0  0  0  0  0
  186.9960  178.2540  138.8290 C   0  0  0  0  0  3  0  0  0  0  0  0
  185.7070  178.1290  138.4900 C   0  0  0  0  0  0  0  0  0  0  0  0
  189.4000  176.3760  136.4720 C   0  0  1  0  0  3  0  0  0  0  0  0
  189.2970  174.9160  136.7130 C   0  0  0  0  0  2  0  0  0  0  0  0
  189.0750  175.4700  135.4400 O   0  0  0  0  0  0  0  0  0  0  0  0
  184.8220  179.2160  140.6110 C   0  0  0  0  0  2  0  0  0  0  0  0
  184.2980  178.3000  141.7070 C   0  0  0  0  0  2  0  0  0  0  0  0
  184.1940  179.0500  143.0280 C   0  0  0  0  0  2  0  0  0  0  0  0
  185.6630  178.2920  146.4420 C   0  0  0  0  0  3  0  0  0  0  0  0
  186.2320  177.8360  143.6670 C   0  0  0  0  0  3  0  0  0  0  0  0
  189.2650  177.2070  146.5090 N   0  0  0  0  0  0  0  0  0  0  0  0
  187.9690  177.6640  146.9360 C   0  0  0  0  0  3  0  0  0  0  0  0
  186.9650  177.7290  146.0600 C   0  0  0  0  0  0  0  0  0  0  0  0
  188.5730  177.1500  144.2070 C   0  0  0  0  0  3  0  0  0  0  0  0
  187.1420  177.1740  144.6640 C   0  0  2  0  0  3  0  0  0  0  0  0
  189.5610  177.1150  145.1060 C   0  0  0  0  0  3  0  0  0  0  0  0
  185.1110  178.4630  144.0530 C   0  0  0  0  0  0  0  0  0  0  0  0
  184.7870  178.6260  145.4890 C   0  0  0  0  0  3  0  0  0  0  0  0
  190.2730  177.1280  147.4110 O   0  0  0  0  0  0  0  0  0  0  0  0
  192.1680  175.6830  147.4380 C   0  0  0  0  0  1  0  0  0  0  0  0
  191.3960  176.7380  146.6720 C   0  0  0  0  0  2  0  0  0  0  0  0
  1 19  1  0  0  0  0
  2 13  2  0  0  0  0
  5  4  1  1  0  0  0
  5  8  1  0  0  0  0
  5  6  1  0  0  0  0
  7  9  1  0  0  0  0
  7  3  1  0  0  0  0
  8  3  1  6  0  0  0
  8  1  1  0  0  0  0
  9  5  1  0  0  0  0
 10  2  1  0  0  0  0
 10 11  1  0  0  0  0
 11 12  2  0  0  0  0
 12 14  1  0  0  0  0
 13  3  1  0  0  0  0
 13 15  1  0  0  0  0
 15 14  2  0  0  0  0
 15  1  1  0  0  0  0
 16 17  1  0  0  0  0
 16 11  1  1  0  0  0
 18 16  1  0  0  0  0
 18 17  1  0  0  0  0
 19 20  1  0  0  0  0
 20 21  1  0  0  0  0
 21 30  1  0  0  0  0
 23 30  2  0  0  0  0
 24 25  1  0  0  0  0
 24 32  1  0  0  0  0
 26 22  1  0  0  0  0
 26 25  2  0  0  0  0
 27 28  1  0  0  0  0
 27 29  2  0  0  0  0
 28 23  1  6  0  0  0
 28 26  1  0  0  0  0
 29 24  1  0  0  0  0
 30 31  1  0  0  0  0
 31 22  2  0  0  0  0
 34 32  1  0  0  0  0
 34 33  1  0  0  0  0
M  END
>  <MODEL>
2

>  <REMARK>
 VINA RESULT:      -9.2      1.893      2.528
  Name = 
  7 active torsions:
  status: ('A' for Active; 'I' for Inactive)
    1  A    between atoms: N_1  and  C_9
    2  A    between atoms: C_3  and  C_25
    3  A    between atoms: N_7  and  O_11
    4  A    between atoms: C_8  and  C_9
    5  A    between atoms: C_8  and  C_18
    6  A    between atoms: O_11  and  C_21
    7  A    between atoms: C_18  and  C_30
                            x       y       z     vdW  Elec       q    Type
                         _______ _______ _______ _____ _____    ______ ____

>  <TORSDO>
F 7

$$$$
=
 OpenBabel11052415573D

 34 39  0  0  1  0  0  0  0  0999 V2000
  183.0240  177.9620  139.7220 N   0  0  0  0  0  0  0  0  0  0  0  0
  184.2230  176.2130  136.8190 C   0  0  0  0  0  3  0  0  0  0  0  0
  182.6950  175.8870  138.6800 N   0  0  0  0  0  0  0  0  0  0  0  0
  180.2470  178.3260  139.5950 C   0  0  0  0  0  1  0  0  0  0  0  0
  180.7290  176.8810  139.6130 C   0  0  2  0  0  0  0  0  0  0  0  0
  180.0760  176.2020  140.6440 O   0  0  0  0  0  1  0  0  0  0  0  0
  181.5800  175.3240  137.9440 C   0  0  0  0  0  2  0  0  0  0  0  0
  182.2480  176.7140  139.7970 C   0  0  2  0  0  3  0  0  0  0  0  0
  180.3910  176.2070  138.2870 C   0  0  0  0  0  2  0  0  0  0  0  0
  185.0980  177.1050  135.9990 C   0  0  0  0  0  2  0  0  0  0  0  0
  186.3510  177.5410  136.6990 C   0  0  0  0  0  0  0  0  0  0  0  0
  186.3320  178.2300  137.8460 C   0  0  0  0  0  3  0  0  0  0  0  0
  183.7500  176.5740  138.0130 C   0  0  0  0  0  0  0  0  0  0  0  0
  185.1560  178.5160  138.6880 C   0  0  0  0  0  3  0  0  0  0  0  0
  184.0210  177.8070  138.7160 C   0  0  0  0  0  0  0  0  0  0  0  0
  187.6690  177.3010  136.0280 C   0  0  1  0  0  3  0  0  0  0  0  0
  188.3570  176.1140  136.5900 C   0  0  0  0  0  2  0  0  0  0  0  0
  187.6550  176.0510  135.3740 O   0  0  0  0  0  0  0  0  0  0  0  0
  183.1490  178.8850  140.8470 C   0  0  0  0  0  2  0  0  0  0  0  0
  183.7650  178.1690  142.0410 C   0  0  0  0  0  2  0  0  0  0  0  0
  184.1170  179.1630  143.1380 C   0  0  0  0  0  2  0  0  0  0  0  0
  185.6250  178.3530  146.5230 C   0  0  0  0  0  3  0  0  0  0  0  0
  186.1370  177.9000  143.7370 C   0  0  0  0  0  3  0  0  0  0  0  0
  189.2020  177.1860  146.5240 N   0  0  0  0  0  0  0  0  0  0  0  0
  187.9240  177.6700  146.9750 C   0  0  0  0  0  3  0  0  0  0  0  0
  186.9080  177.7620  146.1160 C   0  0  0  0  0  0  0  0  0  0  0  0
  188.4710  177.1580  144.2330 C   0  0  0  0  0  3  0  0  0  0  0  0
  187.0480  177.2120  144.7140 C   0  0  2  0  0  3  0  0  0  0  0  0
  189.4720  177.0950  145.1150 C   0  0  0  0  0  3  0  0  0  0  0  0
  185.0380  178.5500  144.1450 C   0  0  0  0  0  0  0  0  0  0  0  0
  184.7410  178.7120  145.5870 C   0  0  0  0  0  3  0  0  0  0  0  0
  190.2230  177.0790  147.4080 O   0  0  0  0  0  0  0  0  0  0  0  0
  192.1790  175.7170  147.4160 C   0  0  0  0  0  1  0  0  0  0  0  0
  191.3340  176.7080  146.6420 C   0  0  0  0  0  2  0  0  0  0  0  0
  1  8  1  0  0  0  0
  1 19  1  0  0  0  0
  2 13  2  0  0  0  0
  5  4  1  6  0  0  0
  5  8  1  0  0  0  0
  5  6  1  0  0  0  0
  7  9  1  0  0  0  0
  7  3  1  0  0  0  0
  8  3  1  6  0  0  0
  9  5  1  0  0  0  0
 10 11  1  0  0  0  0
 10  2  1  0  0  0  0
 11 12  2  0  0  0  0
 12 14  1  0  0  0  0
 13  3  1  0  0  0  0
 13 15  1  0  0  0  0
 14 15  2  0  0  0  0
 15  1  1  0  0  0  0
 16 17  1  0  0  0  0
 16 11  1  1  0  0  0
 18 16  1  0  0  0  0
 18 17  1  0  0  0  0
 19 20  1  0  0  0  0
 20 21  1  0  0  0  0
 21 30  1  0  0  0  0
 23 30  2  0  0  0  0
 24 25  1  0  0  0  0
 24 32  1  0  0  0  0
 26 22  1  0  0  0  0
 26 25  2  0  0  0  0
 27 28  1  0  0  0  0
 27 29  2  0  0  0  0
 28 23  1  6  0  0  0
 28 26  1  0  0  0  0
 29 24  1  0  0  0  0
 30 31  1  0  0  0  0
 31 22  2  0  0  0  0
 34 32  1  0  0  0  0
 34 33  1  0  0  0  0
M  END
>  <MODEL>
3

>  <REMARK>
 VINA RESULT:      -8.9      1.534      1.986
  Name = 
  7 active torsions:
  status: ('A' for Active; 'I' for Inactive)
    1  A    between atoms: N_1  and  C_9
    2  A    between atoms: C_3  and  C_25
    3  A    between atoms: N_7  and  O_11
    4  A    between atoms: C_8  and  C_9
    5  A    between atoms: C_8  and  C_18
    6  A    between atoms: O_11  and  C_21
    7  A    between atoms: C_18  and  C_30
                            x       y       z     vdW  Elec       q    Type
                         _______ _______ _______ _____ _____    ______ ____

>  <TORSDO>
F 7

$$$$
=
 OpenBabel11052415573D

 34 39  0  0  1  0  0  0  0  0999 V2000
  187.8900  177.5560  145.3490 N   0  0  0  0  0  0  0  0  0  0  0  0
  190.6330  177.5660  143.0250 C   0  0  0  0  0  3  0  0  0  0  0  0
  190.1360  178.2330  145.3080 N   0  0  0  0  0  0  0  0  0  0  0  0
  188.5170  176.0500  147.6290 C   0  0  0  0  0  1  0  0  0  0  0  0
  189.4030  177.2600  147.3680 C   0  0  2  0  0  0  0  0  0  0  0  0
  189.4290  178.0550  148.5150 O   0  0  0  0  0  1  0  0  0  0  0  0
  191.3290  177.7150  145.9470 C   0  0  0  0  0  2  0  0  0  0  0  0
  188.9660  178.1290  146.1750 C   0  0  2  0  0  3  0  0  0  0  0  0
  190.8240  176.8020  147.0530 C   0  0  0  0  0  2  0  0  0  0  0  0
  190.2570  176.8430  141.7730 C   0  0  0  0  0  2  0  0  0  0  0  0
  189.1370  177.4860  141.0100 C   0  0  0  0  0  0  0  0  0  0  0  0
  187.9230  177.6780  141.5390 C   0  0  0  0  0  3  0  0  0  0  0  0
  189.7570  177.8180  143.9990 C   0  0  0  0  0  0  0  0  0  0  0  0
  187.5270  177.4740  142.9450 C   0  0  0  0  0  3  0  0  0  0  0  0
  188.3480  177.4960  144.0010 C   0  0  0  0  0  0  0  0  0  0  0  0
  189.3510  177.8190  139.5650 C   0  0  1  0  0  3  0  0  0  0  0  0
  188.3130  177.1990  138.7060 C   0  0  0  0  0  2  0  0  0  0  0  0
  188.2520  178.5550  139.0730 O   0  0  0  0  0  0  0  0  0  0  0  0
  186.4800  177.6340  145.7200 C   0  0  0  0  0  2  0  0  0  0  0  0
  185.8630  178.9050  145.1540 C   0  0  0  0  0  2  0  0  0  0  0  0
  184.3530  178.9010  145.3510 C   0  0  0  0  0  2  0  0  0  0  0  0
  183.8660  178.3470  141.6310 C   0  0  0  0  0  3  0  0  0  0  0  0
  182.3340  179.0280  143.9590 C   0  0  0  0  0  3  0  0  0  0  0  0
  180.6590  179.6460  140.1540 N   0  0  0  0  0  0  0  0  0  0  0  0
  181.9910  179.1170  140.2700 C   0  0  0  0  0  3  0  0  0  0  0  0
  182.4730  178.7870  141.4700 C   0  0  0  0  0  0  0  0  0  0  0  0
  180.4110  179.7630  142.5420 C   0  0  0  0  0  3  0  0  0  0  0  0
  181.5690  178.8160  142.6820 C   0  0  2  0  0  3  0  0  0  0  0  0
  179.9670  180.1010  141.3290 C   0  0  0  0  0  3  0  0  0  0  0  0
  183.6410  178.7430  144.0460 C   0  0  0  0  0  0  0  0  0  0  0  0
  184.4080  178.3170  142.8520 C   0  0  0  0  0  3  0  0  0  0  0  0
  180.1730  179.9610  138.9290 O   0  0  0  0  0  0  0  0  0  0  0  0
  181.1570  181.9740  138.1160 C   0  0  0  0  0  1  0  0  0  0  0  0
  181.2680  180.4670  138.2180 C   0  0  0  0  0  2  0  0  0  0  0  0
  1 19  1  0  0  0  0
  1  8  1  0  0  0  0
  2 13  2  0  0  0  0
  3  7  1  0  0  0  0
  5  4  1  1  0  0  0
  5  6  1  0  0  0  0
  7  9  1  0  0  0  0
  8  3  1  6  0  0  0
  8  5  1  0  0  0  0
  9  5  1  0  0  0  0
 10  2  1  0  0  0  0
 11 12  2  0  0  0  0
 11 10  1  0  0  0  0
 12 14  1  0  0  0  0
 13 15  1  0  0  0  0
 13  3  1  0  0  0  0
 14 15  2  0  0  0  0
 15  1  1  0  0  0  0
 16 11  1  1  0  0  0
 17 18  1  0  0  0  0
 17 16  1  0  0  0  0
 18 16  1  0  0  0  0
 20 21  1  0  0  0  0
 20 19  1  0  0  0  0
 22 31  2  0  0  0  0
 23 30  2  0  0  0  0
 24 25  1  0  0  0  0
 24 29  1  0  0  0  0
 25 26  2  0  0  0  0
 26 22  1  0  0  0  0
 26 28  1  0  0  0  0
 28 27  1  6  0  0  0
 28 23  1  0  0  0  0
 29 27  2  0  0  0  0
 30 21  1  0  0  0  0
 31 30  1  0  0  0  0
 32 24  1  0  0  0  0
 33 34  1  0  0  0  0
 34 32  1  0  0  0  0
M  END
>  <MODEL>
4

>  <REMARK>
 VINA RESULT:      -8.5      1.876      8.423
  Name = 
  7 active torsions:
  status: ('A' for Active; 'I' for Inactive)
    1  A    between atoms: N_1  and  C_9
    2  A    between atoms: C_3  and  C_25
    3  A    between atoms: N_7  and  O_11
    4  A    between atoms: C_8  and  C_9
    5  A    between atoms: C_8  and  C_18
    6  A    between atoms: O_11  and  C_21
    7  A    between atoms: C_18  and  C_30
                            x       y       z     vdW  Elec       q    Type
                         _______ _______ _______ _____ _____    ______ ____

>  <TORSDO>
F 7

$$$$
=
 OpenBabel11052415573D

 34 39  0  0  1  0  0  0  0  0999 V2000
  185.0880  178.0170  138.9050 N   0  0  0  0  0  0  0  0  0  0  0  0
  184.3420  175.3680  136.5910 C   0  0  0  0  0  3  0  0  0  0  0  0
  185.8160  177.2900  136.7960 N   0  0  0  0  0  0  0  0  0  0  0  0
  187.7650  177.9010  139.7290 C   0  0  0  0  0  1  0  0  0  0  0  0
  187.5370  178.1140  138.2390 C   0  0  2  0  0  0  0  0  0  0  0  0
  188.2470  179.2460  137.8330 O   0  0  0  0  0  1  0  0  0  0  0  0
  187.0430  176.6660  136.3420 C   0  0  0  0  0  2  0  0  0  0  0  0
  186.0620  178.2860  137.8340 C   0  0  2  0  0  3  0  0  0  0  0  0
  188.0470  176.9060  137.4590 C   0  0  0  0  0  2  0  0  0  0  0  0
  183.3670  174.4100  137.1950 C   0  0  0  0  0  2  0  0  0  0  0  0
  182.0270  175.0120  137.4960 C   0  0  0  0  0  0  0  0  0  0  0  0
  181.8750  176.0490  138.3280 C   0  0  0  0  0  3  0  0  0  0  0  0
  184.6910  176.5090  137.1890 C   0  0  0  0  0  0  0  0  0  0  0  0
  182.9440  176.8670  138.9290 C   0  0  0  0  0  3  0  0  0  0  0  0
  184.1810  177.0210  138.4400 C   0  0  0  0  0  0  0  0  0  0  0  0
  180.8020  174.3530  136.9390 C   0  0  1  0  0  3  0  0  0  0  0  0
  180.5180  173.0680  137.6210 C   0  0  0  0  0  2  0  0  0  0  0  0
  179.8170  174.2430  137.9420 O   0  0  0  0  0  0  0  0  0  0  0  0
  184.7560  178.9950  139.9360 C   0  0  0  0  0  2  0  0  0  0  0  0
  184.4430  178.2840  141.2460 C   0  0  0  0  0  2  0  0  0  0  0  0
  184.6090  179.2350  142.4240 C   0  0  0  0  0  2  0  0  0  0  0  0
  185.6860  178.3960  145.9630 C   0  0  0  0  0  3  0  0  0  0  0  0
  186.4770  177.8730  143.2550 C   0  0  0  0  0  3  0  0  0  0  0  0
  189.1700  177.0380  146.3720 N   0  0  0  0  0  0  0  0  0  0  0  0
  187.8800  177.5960  146.6740 C   0  0  0  0  0  3  0  0  0  0  0  0
  186.9710  177.7300  145.7060 C   0  0  0  0  0  0  0  0  0  0  0  0
  188.6970  177.0140  144.0150 C   0  0  0  0  0  3  0  0  0  0  0  0
  187.2350  177.1520  144.3340 C   0  0  2  0  0  3  0  0  0  0  0  0
  189.5900  176.9110  145.0030 C   0  0  0  0  0  3  0  0  0  0  0  0
  185.3770  178.5880  143.5320 C   0  0  0  0  0  0  0  0  0  0  0  0
  184.9320  178.7870  144.9300 C   0  0  0  0  0  3  0  0  0  0  0  0
  190.0800  176.8890  147.3650 O   0  0  0  0  0  0  0  0  0  0  0  0
  192.1670  175.7380  147.3750 C   0  0  0  0  0  1  0  0  0  0  0  0
  191.3190  176.8090  146.7190 C   0  0  0  0  0  2  0  0  0  0  0  0
  1 19  1  0  0  0  0
  2 13  2  0  0  0  0
  2 10  1  0  0  0  0
  3 13  1  0  0  0  0
  5  4  1  1  0  0  0
  6  5  1  0  0  0  0
  7  3  1  0  0  0  0
  7  9  1  0  0  0  0
  8  3  1  6  0  0  0
  8  5  1  0  0  0  0
  8  1  1  0  0  0  0
  9  5  1  0  0  0  0
 10 11  1  0  0  0  0
 11 12  2  0  0  0  0
 12 14  1  0  0  0  0
 13 15  1  0  0  0  0
 15  1  1  0  0  0  0
 15 14  2  0  0  0  0
 16 11  1  1  0  0  0
 16 17  1  0  0  0  0
 16 18  1  0  0  0  0
 17 18  1  0  0  0  0
 19 20  1  0  0  0  0
 20 21  1  0  0  0  0
 21 30  1  0  0  0  0
 23 30  2  0  0  0  0
 24 25  1  0  0  0  0
 24 32  1  0  0  0  0
 26 22  1  0  0  0  0
 26 25  2  0  0  0  0
 27 28  1  0  0  0  0
 27 29  2  0  0  0  0
 28 23  1  6  0  0  0
 28 26  1  0  0  0  0
 29 24  1  0  0  0  0
 30 31  1  0  0  0  0
 31 22  2  0  0  0  0
 34 32  1  0  0  0  0
 34 33  1  0  0  0  0
M  END
>  <MODEL>
5

>  <REMARK>
 VINA RESULT:      -8.5      2.109      4.925
  Name = 
  7 active torsions:
  status: ('A' for Active; 'I' for Inactive)
    1  A    between atoms: N_1  and  C_9
    2  A    between atoms: C_3  and  C_25
    3  A    between atoms: N_7  and  O_11
    4  A    between atoms: C_8  and  C_9
    5  A    between atoms: C_8  and  C_18
    6  A    between atoms: O_11  and  C_21
    7  A    between atoms: C_18  and  C_30
                            x       y       z     vdW  Elec       q    Type
                         _______ _______ _______ _____ _____    ______ ____

>  <TORSDO>
F 7

$$$$
=
 OpenBabel11052415573D

 34 39  0  0  1  0  0  0  0  0999 V2000
  189.4820  177.8210  142.3270 N   0  0  0  0  0  0  0  0  0  0  0  0
  186.0800  178.0630  143.4670 C   0  0  0  0  0  3  0  0  0  0  0  0
  188.1490  176.9210  144.0350 N   0  0  0  0  0  0  0  0  0  0  0  0
  191.2670  178.6440  144.3260 C   0  0  0  0  0  1  0  0  0  0  0  0
  190.3990  177.4410  144.6650 C   0  0  2  0  0  0  0  0  0  0  0  0
  191.2230  176.3920  145.0780 O   0  0  0  0  0  1  0  0  0  0  0  0
  188.1200  177.1280  145.4700 C   0  0  0  0  0  2  0  0  0  0  0  0
  189.5110  176.9440  143.5090 C   0  0  2  0  0  3  0  0  0  0  0  0
  189.4450  177.7950  145.8020 C   0  0  0  0  0  2  0  0  0  0  0  0
  185.3460  179.1080  142.6920 C   0  0  0  0  0  2  0  0  0  0  0  0
  185.2140  178.8020  141.2300 C   0  0  0  0  0  0  0  0  0  0  0  0
  186.2740  178.6280  140.4320 C   0  0  0  0  0  3  0  0  0  0  0  0
  187.3230  177.6830  143.1600 C   0  0  0  0  0  0  0  0  0  0  0  0
  187.6860  178.5270  140.8450 C   0  0  0  0  0  3  0  0  0  0  0  0
  188.1240  178.1540  142.0540 C   0  0  0  0  0  0  0  0  0  0  0  0
  183.8470  178.8100  140.6150 C   0  0  1  0  0  3  0  0  0  0  0  0
  183.1690  177.5020  140.7810 C   0  0  0  0  0  2  0  0  0  0  0  0
  182.8710  178.5980  141.6100 O   0  0  0  0  0  0  0  0  0  0  0  0
  190.5320  177.8170  141.3130 C   0  0  0  0  0  2  0  0  0  0  0  0
  190.4600  176.5360  140.4950 C   0  0  0  0  0  2  0  0  0  0  0  0
  190.9040  176.7910  139.0600 C   0  0  0  0  0  2  0  0  0  0  0  0
  188.2910  178.6400  137.0260 C   0  0  0  0  0  3  0  0  0  0  0  0
  188.9320  175.9670  137.8490 C   0  0  0  0  0  3  0  0  0  0  0  0
  185.1090  176.7690  136.2960 N   0  0  0  0  0  0  0  0  0  0  0  0
  186.0660  177.8350  136.4240 C   0  0  0  0  0  3  0  0  0  0  0  0
  187.3220  177.5620  136.7820 C   0  0  0  0  0  0  0  0  0  0  0  0
  186.6640  175.1610  137.1790 C   0  0  0  0  0  3  0  0  0  0  0  0
  187.7810  176.1250  136.8950 C   0  0  2  0  0  3  0  0  0  0  0  0
  185.4110  175.4730  136.8370 C   0  0  0  0  0  3  0  0  0  0  0  0
  189.7270  177.0010  138.1620 C   0  0  0  0  0  0  0  0  0  0  0  0
  189.4310  178.3650  137.6690 C   0  0  0  0  0  3  0  0  0  0  0  0
  183.8410  177.0550  135.9140 O   0  0  0  0  0  0  0  0  0  0  0  0
  182.2600  178.2570  137.2330 C   0  0  0  0  0  1  0  0  0  0  0  0
  183.0820  176.9920  137.0890 C   0  0  0  0  0  2  0  0  0  0  0  0
  3  7  1  0  0  0  0
  5  4  1  6  0  0  0
  5  6  1  0  0  0  0
  5  9  1  0  0  0  0
  7  9  1  0  0  0  0
  8  1  1  6  0  0  0
  8  3  1  0  0  0  0
  8  5  1  0  0  0  0
 10  2  1  0  0  0  0
 11 10  1  0  0  0  0
 12 14  1  0  0  0  0
 12 11  2  0  0  0  0
 13  2  2  0  0  0  0
 13  3  1  0  0  0  0
 14 15  2  0  0  0  0
 15  1  1  0  0  0  0
 15 13  1  0  0  0  0
 16 17  1  0  0  0  0
 16 11  1  1  0  0  0
 16 18  1  0  0  0  0
 17 18  1  0  0  0  0
 19  1  1  0  0  0  0
 20 19  1  0  0  0  0
 21 20  1  0  0  0  0
 22 31  2  0  0  0  0
 23 30  2  0  0  0  0
 24 25  1  0  0  0  0
 24 29  1  0  0  0  0
 25 26  2  0  0  0  0
 26 28  1  0  0  0  0
 26 22  1  0  0  0  0
 28 27  1  1  0  0  0
 28 23  1  0  0  0  0
 29 27  2  0  0  0  0
 30 21  1  0  0  0  0
 31 30  1  0  0  0  0
 32 24  1  0  0  0  0
 32 34  1  0  0  0  0
 34 33  1  0  0  0  0
M  END
>  <MODEL>
6

>  <REMARK>
 VINA RESULT:      -8.4      2.660      8.771
  Name = 
  7 active torsions:
  status: ('A' for Active; 'I' for Inactive)
    1  A    between atoms: N_1  and  C_9
    2  A    between atoms: C_3  and  C_25
    3  A    between atoms: N_7  and  O_11
    4  A    between atoms: C_8  and  C_9
    5  A    between atoms: C_8  and  C_18
    6  A    between atoms: O_11  and  C_21
    7  A    between atoms: C_18  and  C_30
                            x       y       z     vdW  Elec       q    Type
                         _______ _______ _______ _____ _____    ______ ____

>  <TORSDO>
F 7

$$$$
=
 OpenBabel11052415573D

 34 39  0  0  1  0  0  0  0  0999 V2000
  188.4300  177.9760  145.3480 N   0  0  0  0  0  0  0  0  0  0  0  0
  190.8510  176.9070  142.9150 C   0  0  0  0  0  3  0  0  0  0  0  0
  190.7590  177.7310  145.2000 N   0  0  0  0  0  0  0  0  0  0  0  0
  188.5320  176.3610  147.6380 C   0  0  0  0  0  1  0  0  0  0  0  0
  189.8040  177.1320  147.3110 C   0  0  2  0  0  0  0  0  0  0  0  0
  190.1890  177.8630  148.4360 O   0  0  0  0  0  1  0  0  0  0  0  0
  191.6870  176.7950  145.8020 C   0  0  0  0  0  2  0  0  0  0  0  0
  189.6810  178.0940  146.1150 C   0  0  2  0  0  3  0  0  0  0  0  0
  190.9210  176.1570  146.9500 C   0  0  0  0  0  2  0  0  0  0  0  0
  190.1660  176.3770  141.6980 C   0  0  0  0  0  2  0  0  0  0  0  0
  189.3480  177.3990  140.9660 C   0  0  0  0  0  0  0  0  0  0  0  0
  188.3280  178.0490  141.5380 C   0  0  0  0  0  3  0  0  0  0  0  0
  190.1870  177.4860  143.9180 C   0  0  0  0  0  0  0  0  0  0  0  0
  187.9510  178.0240  142.9640 C   0  0  0  0  0  3  0  0  0  0  0  0
  188.7660  177.7340  143.9850 C   0  0  0  0  0  0  0  0  0  0  0  0
  189.6050  177.6120  139.5050 C   0  0  1  0  0  3  0  0  0  0  0  0
  188.3880  177.3570  138.6960 C   0  0  0  0  0  2  0  0  0  0  0  0
  188.7960  178.6630  139.0230 O   0  0  0  0  0  0  0  0  0  0  0  0
  187.1790  178.5960  145.7750 C   0  0  0  0  0  2  0  0  0  0  0  0
  186.0200  177.6360  145.5510 C   0  0  0  0  0  2  0  0  0  0  0  0
  184.6930  178.3150  145.8640 C   0  0  0  0  0  2  0  0  0  0  0  0
  181.7310  179.0080  143.6000 C   0  0  0  0  0  3  0  0  0  0  0  0
  184.5630  178.5850  143.4260 C   0  0  0  0  0  3  0  0  0  0  0  0
  182.2410  178.3460  139.9310 N   0  0  0  0  0  0  0  0  0  0  0  0
  181.6070  178.6180  141.1930 C   0  0  0  0  0  3  0  0  0  0  0  0
  182.3520  178.8350  142.2780 C   0  0  0  0  0  0  0  0  0  0  0  0
  184.4130  178.2390  140.9560 C   0  0  0  0  0  3  0  0  0  0  0  0
  183.8540  178.9550  142.1540 C   0  0  2  0  0  3  0  0  0  0  0  0
  183.6370  178.0080  139.8940 C   0  0  0  0  0  3  0  0  0  0  0  0
  183.9370  178.6220  144.6120 C   0  0  0  0  0  0  0  0  0  0  0  0
  182.4880  178.9180  144.6970 C   0  0  0  0  0  3  0  0  0  0  0  0
  181.4760  178.1450  138.8310 O   0  0  0  0  0  0  0  0  0  0  0  0
  182.0600  178.0480  136.5230 C   0  0  0  0  0  1  0  0  0  0  0  0
  182.3150  177.5030  137.9130 C   0  0  0  0  0  2  0  0  0  0  0  0
  1 19  1  0  0  0  0
  1  8  1  0  0  0  0
  2 13  2  0  0  0  0
  3  7  1  0  0  0  0
  5  4  1  1  0  0  0
  5  6  1  0  0  0  0
  7  9  1  0  0  0  0
  8  3  1  6  0  0  0
  8  5  1  0  0  0  0
  9  5  1  0  0  0  0
 10  2  1  0  0  0  0
 11 12  2  0  0  0  0
 11 10  1  0  0  0  0
 12 14  1  0  0  0  0
 13 15  1  0  0  0  0
 13  3  1  0  0  0  0
 14 15  2  0  0  0  0
 15  1  1  0  0  0  0
 16 11  1  1  0  0  0
 17 18  1  0  0  0  0
 17 16  1  0  0  0  0
 18 16  1  0  0  0  0
 20 19  1  0  0  0  0
 20 21  1  0  0  0  0
 22 31  2  0  0  0  0
 23 30  2  0  0  0  0
 24 25  1  0  0  0  0
 25 26  2  0  0  0  0
 26 22  1  0  0  0  0
 28 27  1  6  0  0  0
 28 26  1  0  0  0  0
 28 23  1  0  0  0  0
 29 24  1  0  0  0  0
 29 27  2  0  0  0  0
 30 31  1  0  0  0  0
 30 21  1  0  0  0  0
 32 24  1  0  0  0  0
 33 34  1  0  0  0  0
 34 32  1  0  0  0  0
M  END
>  <MODEL>
7

>  <REMARK>
 VINA RESULT:      -8.4      1.622      8.092
  Name = 
  7 active torsions:
  status: ('A' for Active; 'I' for Inactive)
    1  A    between atoms: N_1  and  C_9
    2  A    between atoms: C_3  and  C_25
    3  A    between atoms: N_7  and  O_11
    4  A    between atoms: C_8  and  C_9
    5  A    between atoms: C_8  and  C_18
    6  A    between atoms: O_11  and  C_21
    7  A    between atoms: C_18  and  C_30
                            x       y       z     vdW  Elec       q    Type
                         _______ _______ _______ _____ _____    ______ ____

>  <TORSDO>
F 7

$$$$
=
 OpenBabel11052415573D

 34 39  0  0  1  0  0  0  0  0999 V2000
  187.1880  178.0860  138.7390 N   0  0  0  0  0  0  0  0  0  0  0  0
  190.3690  176.5040  139.2910 C   0  0  0  0  0  3  0  0  0  0  0  0
  188.3620  176.2140  137.9510 N   0  0  0  0  0  0  0  0  0  0  0  0
  186.9190  178.8850  136.0650 C   0  0  0  0  0  1  0  0  0  0  0  0
  187.0940  177.3900  136.2980 C   0  0  2  0  0  0  0  0  0  0  0  0
  186.0530  176.7100  135.6630 O   0  0  0  0  0  1  0  0  0  0  0  0
  188.9950  175.9140  136.6820 C   0  0  0  0  0  2  0  0  0  0  0  0
  187.1260  176.9720  137.7790 C   0  0  2  0  0  3  0  0  0  0  0  0
  188.4210  176.9260  135.7030 C   0  0  0  0  0  2  0  0  0  0  0  0
  191.2120  177.3360  140.2020 C   0  0  0  0  0  2  0  0  0  0  0  0
  190.6450  177.4930  141.5810 C   0  0  0  0  0  0  0  0  0  0  0  0
  189.4480  178.0460  141.8090 C   0  0  0  0  0  3  0  0  0  0  0  0
  189.0960  176.7990  139.0230 C   0  0  0  0  0  0  0  0  0  0  0  0
  188.4370  178.4150  140.8000 C   0  0  0  0  0  3  0  0  0  0  0  0
  188.3260  177.8910  139.5740 C   0  0  0  0  0  0  0  0  0  0  0  0
  191.5010  177.1280  142.7560 C   0  0  1  0  0  3  0  0  0  0  0  0
  191.4510  178.1700  143.8100 C   0  0  0  0  0  2  0  0  0  0  0  0
  190.7000  176.9860  143.9090 O   0  0  0  0  0  0  0  0  0  0  0  0
  186.0100  178.8490  139.1430 C   0  0  0  0  0  2  0  0  0  0  0  0
  185.1590  178.0230  140.0970 C   0  0  0  0  0  2  0  0  0  0  0  0
  184.3170  178.9300  140.9840 C   0  0  0  0  0  2  0  0  0  0  0  0
  183.7920  179.0020  144.7390 C   0  0  0  0  0  3  0  0  0  0  0  0
  185.6840  178.0300  142.8150 C   0  0  0  0  0  3  0  0  0  0  0  0
  186.8000  178.2270  146.8620 N   0  0  0  0  0  0  0  0  0  0  0  0
  185.4890  178.6630  146.4600 C   0  0  0  0  0  3  0  0  0  0  0  0
  185.0810  178.4710  145.2050 C   0  0  0  0  0  0  0  0  0  0  0  0
  187.3860  177.6470  144.6040 C   0  0  0  0  0  3  0  0  0  0  0  0
  185.9250  177.6570  144.2500 C   0  0  2  0  0  3  0  0  0  0  0  0
  187.7700  177.8720  145.8630 C   0  0  0  0  0  3  0  0  0  0  0  0
  184.5520  178.6370  142.4310 C   0  0  0  0  0  0  0  0  0  0  0  0
  183.5440  179.0660  143.4270 C   0  0  0  0  0  3  0  0  0  0  0  0
  187.1980  178.4110  148.1440 O   0  0  0  0  0  0  0  0  0  0  0  0
  189.5540  178.2550  148.4720 C   0  0  0  0  0  1  0  0  0  0  0  0
  188.2460  177.5030  148.3360 C   0  0  0  0  0  2  0  0  0  0  0  0
  1 19  1  0  0  0  0
  1 15  1  0  0  0  0
  2 10  1  0  0  0  0
  3 13  1  0  0  0  0
  5  4  1  6  0  0  0
  5  8  1  0  0  0  0
  6  5  1  0  0  0  0
  7  3  1  0  0  0  0
  8  3  1  6  0  0  0
  8  1  1  0  0  0  0
  9  5  1  0  0  0  0
  9  7  1  0  0  0  0
 10 11  1  0  0  0  0
 11 12  2  0  0  0  0
 13  2  2  0  0  0  0
 13 15  1  0  0  0  0
 14 12  1  0  0  0  0
 15 14  2  0  0  0  0
 16 11  1  6  0  0  0
 16 17  1  0  0  0  0
 16 18  1  0  0  0  0
 17 18  1  0  0  0  0
 19 20  1  0  0  0  0
 20 21  1  0  0  0  0
 21 30  1  0  0  0  0
 22 26  1  0  0  0  0
 24 32  1  0  0  0  0
 25 24  1  0  0  0  0
 26 25  2  0  0  0  0
 27 29  2  0  0  0  0
 28 23  1  6  0  0  0
 28 27  1  0  0  0  0
 28 26  1  0  0  0  0
 29 24  1  0  0  0  0
 30 23  2  0  0  0  0
 30 31  1  0  0  0  0
 31 22  2  0  0  0  0
 32 34  1  0  0  0  0
 34 33  1  0  0  0  0
M  END
>  <MODEL>
8

>  <REMARK>
 VINA RESULT:      -8.4      3.039      5.441
  Name = 
  7 active torsions:
  status: ('A' for Active; 'I' for Inactive)
    1  A    between atoms: N_1  and  C_9
    2  A    between atoms: C_3  and  C_25
    3  A    between atoms: N_7  and  O_11
    4  A    between atoms: C_8  and  C_9
    5  A    between atoms: C_8  and  C_18
    6  A    between atoms: O_11  and  C_21
    7  A    between atoms: C_18  and  C_30
                            x       y       z     vdW  Elec       q    Type
                         _______ _______ _______ _____ _____    ______ ____

>  <TORSDO>
F 7

$$$$
=
 OpenBabel11052415573D

 34 39  0  0  1  0  0  0  0  0999 V2000
  182.9360  177.8620  140.3090 N   0  0  0  0  0  0  0  0  0  0  0  0
  182.2140  179.2420  143.5500 C   0  0  0  0  0  3  0  0  0  0  0  0
  181.4160  179.3760  141.2580 N   0  0  0  0  0  0  0  0  0  0  0  0
  180.7240  176.4670  139.3010 C   0  0  0  0  0  1  0  0  0  0  0  0
  180.5100  177.9510  139.5620 C   0  0  2  0  0  0  0  0  0  0  0  0
  180.0160  178.5470  138.4000 O   0  0  0  0  0  1  0  0  0  0  0  0
  179.9930  179.3020  141.5230 C   0  0  0  0  0  2  0  0  0  0  0  0
  181.7720  178.7120  140.0080 C   0  0  2  0  0  3  0  0  0  0  0  0
  179.4920  178.1380  140.6840 C   0  0  0  0  0  2  0  0  0  0  0  0
  183.0570  178.5850  144.5940 C   0  0  0  0  0  2  0  0  0  0  0  0
  184.5290  178.8170  144.4240 C   0  0  0  0  0  0  0  0  0  0  0  0
  185.1950  178.4450  143.3240 C   0  0  0  0  0  3  0  0  0  0  0  0
  182.3730  179.0060  142.2460 C   0  0  0  0  0  0  0  0  0  0  0  0
  184.6140  177.9330  142.0690 C   0  0  0  0  0  3  0  0  0  0  0  0
  183.3670  178.1520  141.6360 C   0  0  0  0  0  0  0  0  0  0  0  0
  185.3050  179.3790  145.5760 C   0  0  1  0  0  3  0  0  0  0  0  0
  185.4000  178.4070  146.6920 C   0  0  0  0  0  2  0  0  0  0  0  0
  186.4650  178.6060  145.7960 O   0  0  0  0  0  0  0  0  0  0  0  0
  183.8150  177.3280  139.2720 C   0  0  0  0  0  2  0  0  0  0  0  0
  184.6720  178.4440  138.6910 C   0  0  0  0  0  2  0  0  0  0  0  0
  185.7260  177.8750  137.7510 C   0  0  0  0  0  2  0  0  0  0  0  0
  189.3180  176.8330  138.3850 C   0  0  0  0  0  3  0  0  0  0  0  0
  187.2340  178.3660  139.6270 C   0  0  0  0  0  3  0  0  0  0  0  0
  190.5740  177.2260  141.9100 N   0  0  0  0  0  0  0  0  0  0  0  0
  190.4820  176.8280  140.5310 C   0  0  0  0  0  3  0  0  0  0  0  0
  189.4980  177.3050  139.7660 C   0  0  0  0  0  0  0  0  0  0  0  0
  188.4720  178.3870  141.7980 C   0  0  0  0  0  3  0  0  0  0  0  0
  188.5790  178.3810  140.2980 C   0  0  2  0  0  3  0  0  0  0  0  0
  189.4590  177.8770  142.5400 C   0  0  0  0  0  3  0  0  0  0  0  0
  187.0620  177.8100  138.4190 C   0  0  0  0  0  0  0  0  0  0  0  0
  188.1680  177.0860  137.7510 C   0  0  0  0  0  3  0  0  0  0  0  0
  191.5870  176.7500  142.6730 O   0  0  0  0  0  0  0  0  0  0  0  0
  191.6180  176.7520  145.0570 C   0  0  0  0  0  1  0  0  0  0  0  0
  191.6270  177.5890  143.7940 C   0  0  0  0  0  2  0  0  0  0  0  0
  1 15  1  0  0  0  0
  2 10  1  0  0  0  0
  3  7  1  0  0  0  0
  3 13  1  0  0  0  0
  5  4  1  6  0  0  0
  5  8  1  0  0  0  0
  5  9  1  0  0  0  0
  6  5  1  0  0  0  0
  8  1  1  1  0  0  0
  8  3  1  0  0  0  0
  9  7  1  0  0  0  0
 11 10  1  0  0  0  0
 12 11  2  0  0  0  0
 13  2  2  0  0  0  0
 14 12  1  0  0  0  0
 15 14  2  0  0  0  0
 15 13  1  0  0  0  0
 16 11  1  6  0  0  0
 16 18  1  0  0  0  0
 16 17  1  0  0  0  0
 18 17  1  0  0  0  0
 19  1  1  0  0  0  0
 20 19  1  0  0  0  0
 21 30  1  0  0  0  0
 21 20  1  0  0  0  0
 22 26  1  0  0  0  0
 24 29  1  0  0  0  0
 24 32  1  0  0  0  0
 25 24  1  0  0  0  0
 26 28  1  0  0  0  0
 26 25  2  0  0  0  0
 27 29  2  0  0  0  0
 28 23  1  6  0  0  0
 28 27  1  0  0  0  0
 30 23  2  0  0  0  0
 31 22  2  0  0  0  0
 31 30  1  0  0  0  0
 32 34  1  0  0  0  0
 34 33  1  0  0  0  0
M  END
>  <MODEL>
9

>  <REMARK>
 VINA RESULT:      -8.1      1.968      5.196
  Name = 
  7 active torsions:
  status: ('A' for Active; 'I' for Inactive)
    1  A    between atoms: N_1  and  C_9
    2  A    between atoms: C_3  and  C_25
    3  A    between atoms: N_7  and  O_11
    4  A    between atoms: C_8  and  C_9
    5  A    between atoms: C_8  and  C_18
    6  A    between atoms: O_11  and  C_21
    7  A    between atoms: C_18  and  C_30
                            x       y       z     vdW  Elec       q    Type
                         _______ _______ _______ _____ _____    ______ ____

>  <TORSDO>
F 7

$$$$
