=
 OpenBabel11052412493D

 25 30  0  0  1  0  0  0  0  0999 V2000
  189.0140  177.6460  143.0700 N   0  0  0  0  0  0  0  0  0  0  0  0
  189.5800  177.5810  141.7490 C   0  0  0  0  0  0  0  0  0  0  0  0
  191.1590  177.3150  144.1020 C   0  0  0  0  0  3  0  0  0  0  0  0
  187.6610  177.8330  143.4690 C   0  0  0  0  0  0  0  0  0  0  0  0
  188.7340  176.5020  138.4970 C   0  0  0  0  0  2  0  0  0  0  0  0
  188.2410  177.0280  137.2300 N   0  0  2  0  0  0  0  0  0  0  0  0
  185.1170  178.1780  144.5490 C   0  0  0  0  0  3  0  0  0  0  0  0
  191.7750  177.2480  142.7570 C   0  0  0  0  0  3  0  0  0  0  0  0
  187.4840  177.8340  144.8460 C   0  0  0  0  0  0  0  0  0  0  0  0
  186.2160  178.0070  145.4030 C   0  0  0  0  0  3  0  0  0  0  0  0
  191.6620  177.3100  140.3060 C   0  0  0  0  0  0  0  0  0  0  0  0
  193.0330  177.1260  140.1730 O   0  0  0  0  0  1  0  0  0  0  0  0
  189.0540  178.8870  138.4960 C   0  0  0  0  0  2  0  0  0  0  0  0
  188.8350  177.7030  140.6470 C   0  0  0  0  0  3  0  0  0  0  0  0
  185.2950  178.1770  143.1550 C   0  0  0  0  0  3  0  0  0  0  0  0
  189.8420  177.5060  144.2220 C   0  0  0  0  0  0  0  0  0  0  0  0
  188.9900  177.6030  145.8000 S   0  0  0  0  0  0  0  0  0  0  0  0
  189.4100  177.6300  139.2520 C   0  0  1  0  0  0  0  0  0  0  0  0
  186.5730  178.0030  142.6070 C   0  0  0  0  0  3  0  0  0  0  0  0
  190.9070  177.4320  139.2120 C   0  0  0  0  0  3  0  0  0  0  0  0
  191.0400  177.3720  141.6390 C   0  0  0  0  0  0  0  0  0  0  0  0
  188.0450  178.4530  137.4590 C   0  0  0  0  0  2  0  0  0  0  0  0
  186.9300  176.4410  136.9960 C   0  0  0  0  0  3  0  0  0  0  0  0
  187.0300  174.9270  137.0610 C   0  0  0  0  0  2  0  0  0  0  0  0
  186.9590  175.6200  135.7180 C   0  0  0  0  0  2  0  0  0  0  0  0
  1  4  1  0  0  0  0
  1 16  1  0  0  0  0
  2  1  1  0  0  0  0
  3 16  2  0  0  0  0
  4  9  1  0  0  0  0
  5 18  1  0  0  0  0
  6 23  1  1  0  0  0
  6 22  1  0  0  0  0
  6  5  1  0  0  0  0
  7 10  1  0  0  0  0
  8  3  1  0  0  0  0
  9 10  2  0  0  0  0
  9 17  1  0  0  0  0
 11 21  1  0  0  0  0
 12 11  1  0  0  0  0
 14  2  2  0  0  0  0
 15  7  2  0  0  0  0
 16 17  1  0  0  0  0
 18 13  1  6  0  0  0
 18 14  1  0  0  0  0
 19 15  1  0  0  0  0
 19  4  2  0  0  0  0
 20 18  1  0  0  0  0
 20 11  2  0  0  0  0
 21  2  1  0  0  0  0
 21  8  2  0  0  0  0
 22 13  1  0  0  0  0
 23 24  1  0  0  0  0
 25 23  1  0  0  0  0
 25 24  1  0  0  0  0
M  END
>  <MODEL>
1

>  <REMARK>
 VINA RESULT:      -8.7      0.000      0.000
  Name = 
  1 active torsions:
  status: ('A' for Active; 'I' for Inactive)
    1  A    between atoms: C_2  and  N_7
                            x       y       z     vdW  Elec       q    Type
                         _______ _______ _______ _____ _____    ______ ____

>  <TORSDO>
F 1

$$$$
=
 OpenBabel11052412493D

 25 30  0  0  1  0  0  0  0  0999 V2000
  187.8600  177.8620  143.1430 N   0  0  0  0  0  0  0  0  0  0  0  0
  188.7360  177.7230  142.0100 C   0  0  0  0  0  0  0  0  0  0  0  0
  189.6580  177.4800  144.6920 C   0  0  0  0  0  3  0  0  0  0  0  0
  186.4610  178.1220  143.1830 C   0  0  0  0  0  0  0  0  0  0  0  0
  188.6810  176.5580  138.6790 C   0  0  0  0  0  2  0  0  0  0  0  0
  188.5490  177.0550  137.3160 N   0  0  2  0  0  0  0  0  0  0  0  0
  183.7490  178.6160  143.5750 C   0  0  0  0  0  3  0  0  0  0  0  0
  190.5880  177.3350  143.5480 C   0  0  0  0  0  3  0  0  0  0  0  0
  185.9450  178.1830  144.4690 C   0  0  0  0  0  0  0  0  0  0  0  0
  184.5880  178.4300  144.6830 C   0  0  0  0  0  3  0  0  0  0  0  0
  191.0970  177.3080  141.1480 C   0  0  0  0  0  0  0  0  0  0  0  0
  192.4460  177.0620  141.3700 O   0  0  0  0  0  1  0  0  0  0  0  0
  189.1110  178.9250  138.6970 C   0  0  0  0  0  2  0  0  0  0  0  0
  188.2980  177.8350  140.7530 C   0  0  0  0  0  3  0  0  0  0  0  0
  184.2710  178.5540  142.2720 C   0  0  0  0  0  3  0  0  0  0  0  0
  188.3650  177.7310  144.4700 C   0  0  0  0  0  0  0  0  0  0  0  0
  187.1500  177.9240  145.7780 S   0  0  0  0  0  0  0  0  0  0  0  0
  189.2010  177.6840  139.5510 C   0  0  1  0  0  0  0  0  0  0  0  0
  185.6360  178.3050  142.0700 C   0  0  0  0  0  3  0  0  0  0  0  0
  190.6490  177.4210  139.8960 C   0  0  0  0  0  3  0  0  0  0  0  0
  190.1650  177.4480  142.2790 C   0  0  0  0  0  0  0  0  0  0  0  0
  188.3740  178.4950  137.4500 C   0  0  0  0  0  2  0  0  0  0  0  0
  187.3100  176.5160  136.7730 C   0  0  0  0  0  3  0  0  0  0  0  0
  187.3230  175.0020  136.8840 C   0  0  0  0  0  2  0  0  0  0  0  0
  187.6160  175.6620  135.5550 C   0  0  0  0  0  2  0  0  0  0  0  0
  1  4  1  0  0  0  0
  1 16  1  0  0  0  0
  2 21  1  0  0  0  0
  2  1  1  0  0  0  0
  4  9  1  0  0  0  0
  6 23  1  1  0  0  0
  6 22  1  0  0  0  0
  6  5  1  0  0  0  0
  7 10  1  0  0  0  0
  8  3  1  0  0  0  0
  9 10  2  0  0  0  0
  9 17  1  0  0  0  0
 11 12  1  0  0  0  0
 11 21  1  0  0  0  0
 13 18  1  0  0  0  0
 14  2  2  0  0  0  0
 15  7  2  0  0  0  0
 16  3  2  0  0  0  0
 16 17  1  0  0  0  0
 18  5  1  6  0  0  0
 18 20  1  0  0  0  0
 18 14  1  0  0  0  0
 19 15  1  0  0  0  0
 19  4  2  0  0  0  0
 20 11  2  0  0  0  0
 21  8  2  0  0  0  0
 22 13  1  0  0  0  0
 23 24  1  0  0  0  0
 25 23  1  0  0  0  0
 25 24  1  0  0  0  0
M  END
>  <MODEL>
2

>  <REMARK>
 VINA RESULT:      -8.5      0.886      1.141
  Name = 
  1 active torsions:
  status: ('A' for Active; 'I' for Inactive)
    1  A    between atoms: C_2  and  N_7
                            x       y       z     vdW  Elec       q    Type
                         _______ _______ _______ _____ _____    ______ ____

>  <TORSDO>
F 1

$$$$
=
 OpenBabel11052412493D

 25 30  0  0  1  0  0  0  0  0999 V2000
  185.6930  178.4620  144.2920 N   0  0  0  0  0  0  0  0  0  0  0  0
  186.8630  178.2130  145.0910 C   0  0  0  0  0  0  0  0  0  0  0  0
  184.2810  178.5620  146.2350 C   0  0  0  0  0  3  0  0  0  0  0  0
  185.5640  178.5740  142.8790 C   0  0  0  0  0  0  0  0  0  0  0  0
  189.9240  176.4630  144.9260 C   0  0  0  0  0  2  0  0  0  0  0  0
  191.3330  176.6880  144.6320 N   0  0  2  0  0  0  0  0  0  0  0  0
  185.0040  178.8390  140.1640 C   0  0  0  0  0  3  0  0  0  0  0  0
  185.4660  178.3120  147.0870 C   0  0  0  0  0  3  0  0  0  0  0  0
  184.2630  178.8120  142.4580 C   0  0  0  0  0  0  0  0  0  0  0  0
  183.9660  178.9480  141.1010 C   0  0  0  0  0  3  0  0  0  0  0  0
  187.8640  177.9030  147.4120 C   0  0  0  0  0  0  0  0  0  0  0  0
  187.7340  177.8460  148.7940 O   0  0  0  0  0  1  0  0  0  0  0  0
  190.3540  178.8260  145.0640 C   0  0  0  0  0  2  0  0  0  0  0  0
  188.0730  178.0480  144.5490 C   0  0  0  0  0  3  0  0  0  0  0  0
  186.3210  178.5970  140.5900 C   0  0  0  0  0  3  0  0  0  0  0  0
  184.4170  178.6290  144.9080 C   0  0  0  0  0  0  0  0  0  0  0  0
  183.0510  178.9260  143.7800 S   0  0  0  0  0  0  0  0  0  0  0  0
  189.3130  177.7780  145.3690 C   0  0  1  0  0  0  0  0  0  0  0  0
  186.6080  178.4620  141.9550 C   0  0  0  0  0  3  0  0  0  0  0  0
  189.0680  177.7380  146.8600 C   0  0  0  0  0  3  0  0  0  0  0  0
  186.6900  178.1450  146.5580 C   0  0  0  0  0  0  0  0  0  0  0  0
  191.4320  178.1010  144.2930 C   0  0  0  0  0  2  0  0  0  0  0  0
  191.6540  175.9300  143.4310 C   0  0  0  0  0  3  0  0  0  0  0  0
  191.6830  176.8620  142.2330 C   0  0  0  0  0  2  0  0  0  0  0  0
  190.4790  175.9780  142.4690 C   0  0  0  0  0  2  0  0  0  0  0  0
  1 16  1  0  0  0  0
  1  2  1  0  0  0  0
  2 21  1  0  0  0  0
  3  8  1  0  0  0  0
  4  1  1  0  0  0  0
  5 18  1  0  0  0  0
  6 23  1  6  0  0  0
  6  5  1  0  0  0  0
  7 15  2  0  0  0  0
  7 10  1  0  0  0  0
  9  4  1  0  0  0  0
  9 17  1  0  0  0  0
 10  9  2  0  0  0  0
 11 12  1  0  0  0  0
 13 18  1  0  0  0  0
 14  2  2  0  0  0  0
 15 19  1  0  0  0  0
 16  3  2  0  0  0  0
 17 16  1  0  0  0  0
 18 14  1  6  0  0  0
 18 20  1  0  0  0  0
 19  4  2  0  0  0  0
 20 11  2  0  0  0  0
 21  8  2  0  0  0  0
 21 11  1  0  0  0  0
 22  6  1  0  0  0  0
 22 13  1  0  0  0  0
 24 25  1  0  0  0  0
 24 23  1  0  0  0  0
 25 23  1  0  0  0  0
M  END
>  <MODEL>
3

>  <REMARK>
 VINA RESULT:      -8.0      3.863      6.338
  Name = 
  1 active torsions:
  status: ('A' for Active; 'I' for Inactive)
    1  A    between atoms: C_2  and  N_7
                            x       y       z     vdW  Elec       q    Type
                         _______ _______ _______ _____ _____    ______ ____

>  <TORSDO>
F 1

$$$$
=
 OpenBabel11052412493D

 25 30  0  0  1  0  0  0  0  0999 V2000
  187.2920  177.9640  145.5280 N   0  0  0  0  0  0  0  0  0  0  0  0
  188.6170  177.6600  145.0560 C   0  0  0  0  0  0  0  0  0  0  0  0
  187.8890  177.4540  147.8000 C   0  0  0  0  0  3  0  0  0  0  0  0
  186.1450  178.3920  144.8020 C   0  0  0  0  0  0  0  0  0  0  0  0
  190.2330  176.3320  142.2140 C   0  0  0  0  0  2  0  0  0  0  0  0
  190.9310  176.7680  141.0110 N   0  0  2  0  0  0  0  0  0  0  0  0
  183.7480  179.2280  143.6570 C   0  0  0  0  0  3  0  0  0  0  0  0
  189.2630  177.1370  147.3480 C   0  0  0  0  0  3  0  0  0  0  0  0
  185.0250  178.5840  145.5980 C   0  0  0  0  0  0  0  0  0  0  0  0
  183.8160  179.0030  145.0390 C   0  0  0  0  0  3  0  0  0  0  0  0
  190.9880  176.9190  145.6170 C   0  0  0  0  0  0  0  0  0  0  0  0
  191.9540  176.5250  146.5350 O   0  0  0  0  0  1  0  0  0  0  0  0
  190.8870  178.6280  142.5130 C   0  0  0  0  0  2  0  0  0  0  0  0
  188.9530  177.7550  143.7670 C   0  0  0  0  0  3  0  0  0  0  0  0
  184.8830  179.0340  142.8510 C   0  0  0  0  0  3  0  0  0  0  0  0
  186.9700  177.8460  146.9120 C   0  0  0  0  0  0  0  0  0  0  0  0
  185.2760  178.2530  147.3470 S   0  0  0  0  0  0  0  0  0  0  0  0
  190.3360  177.4330  143.2510 C   0  0  1  0  0  0  0  0  0  0  0  0
  186.0910  178.6120  143.4220 C   0  0  0  0  0  3  0  0  0  0  0  0
  191.3140  177.0180  144.3260 C   0  0  0  0  0  3  0  0  0  0  0  0
  189.6180  177.2300  146.0560 C   0  0  0  0  0  0  0  0  0  0  0  0
  190.9000  178.2230  141.0570 C   0  0  0  0  0  2  0  0  0  0  0  0
  190.1300  176.3520  139.8680 C   0  0  0  0  0  3  0  0  0  0  0  0
  191.0440  175.9740  138.7160 C   0  0  0  0  0  2  0  0  0  0  0  0
  190.3470  177.3170  138.7150 C   0  0  0  0  0  2  0  0  0  0  0  0
  1 16  1  0  0  0  0
  2  1  1  0  0  0  0
  2 21  1  0  0  0  0
  4  1  1  0  0  0  0
  4  9  1  0  0  0  0
  6 23  1  6  0  0  0
  6 22  1  0  0  0  0
  6  5  1  0  0  0  0
  7 10  1  0  0  0  0
  8  3  1  0  0  0  0
  9 17  1  0  0  0  0
 10  9  2  0  0  0  0
 11 21  1  0  0  0  0
 11 12  1  0  0  0  0
 13 18  1  0  0  0  0
 14  2  2  0  0  0  0
 15 19  1  0  0  0  0
 15  7  2  0  0  0  0
 16 17  1  0  0  0  0
 16  3  2  0  0  0  0
 18  5  1  6  0  0  0
 18 14  1  0  0  0  0
 18 20  1  0  0  0  0
 19  4  2  0  0  0  0
 20 11  2  0  0  0  0
 21  8  2  0  0  0  0
 22 13  1  0  0  0  0
 24 23  1  0  0  0  0
 25 24  1  0  0  0  0
 25 23  1  0  0  0  0
M  END
>  <MODEL>
4

>  <REMARK>
 VINA RESULT:      -7.6      2.717      4.075
  Name = 
  1 active torsions:
  status: ('A' for Active; 'I' for Inactive)
    1  A    between atoms: C_2  and  N_7
                            x       y       z     vdW  Elec       q    Type
                         _______ _______ _______ _____ _____    ______ ____

>  <TORSDO>
F 1

$$$$
=
 OpenBabel11052412493D

 25 30  0  0  1  0  0  0  0  0999 V2000
  186.6210  178.1880  142.4830 N   0  0  0  0  0  0  0  0  0  0  0  0
  186.2180  178.2990  141.1070 C   0  0  0  0  0  0  0  0  0  0  0  0
  188.8970  177.7170  141.8710 C   0  0  0  0  0  3  0  0  0  0  0  0
  185.8470  178.3240  143.6700 C   0  0  0  0  0  0  0  0  0  0  0  0
  183.4180  177.6680  139.0530 C   0  0  0  0  0  2  0  0  0  0  0  0
  182.2840  178.3600  138.4530 N   0  0  2  0  0  0  0  0  0  0  0  0
  184.5990  178.5290  146.1510 C   0  0  0  0  0  3  0  0  0  0  0  0
  188.5160  177.8280  140.4440 C   0  0  0  0  0  3  0  0  0  0  0  0
  186.5810  178.1420  144.8340 C   0  0  0  0  0  0  0  0  0  0  0  0
  185.9700  178.2410  146.0850 C   0  0  0  0  0  3  0  0  0  0  0  0
  186.8860  178.2180  138.6510 C   0  0  0  0  0  0  0  0  0  0  0  0
  187.8420  178.0500  137.6560 O   0  0  0  0  0  1  0  0  0  0  0  0
  183.8730  180.0300  139.0910 C   0  0  0  0  0  2  0  0  0  0  0  0
  184.9580  178.5700  140.7530 C   0  0  0  0  0  3  0  0  0  0  0  0
  183.8560  178.7140  144.9730 C   0  0  0  0  0  3  0  0  0  0  0  0
  187.9740  177.8930  142.8210 C   0  0  0  0  0  0  0  0  0  0  0  0
  188.3230  177.7800  144.5790 S   0  0  0  0  0  0  0  0  0  0  0  0
  184.5140  178.6830  139.3140 C   0  0  1  0  0  0  0  0  0  0  0  0
  184.4800  178.6110  143.7220 C   0  0  0  0  0  3  0  0  0  0  0  0
  185.6250  178.4880  138.3080 C   0  0  0  0  0  3  0  0  0  0  0  0
  187.2550  178.1020  140.0710 C   0  0  0  0  0  0  0  0  0  0  0  0
  182.4020  179.7420  138.8970 C   0  0  0  0  0  2  0  0  0  0  0  0
  181.0750  177.8130  139.0510 C   0  0  0  0  0  3  0  0  0  0  0  0
  181.1630  176.2980  139.0840 C   0  0  0  0  0  2  0  0  0  0  0  0
  180.3300  176.9800  138.0220 C   0  0  0  0  0  2  0  0  0  0  0  0
  1 16  1  0  0  0  0
  1  4  1  0  0  0  0
  2  1  1  0  0  0  0
  3 16  2  0  0  0  0
  4 19  2  0  0  0  0
  4  9  1  0  0  0  0
  5 18  1  0  0  0  0
  6 22  1  0  0  0  0
  6 23  1  1  0  0  0
  6  5  1  0  0  0  0
  8  3  1  0  0  0  0
  9 10  2  0  0  0  0
 10  7  1  0  0  0  0
 11 21  1  0  0  0  0
 12 11  1  0  0  0  0
 13 18  1  0  0  0  0
 14  2  2  0  0  0  0
 15  7  2  0  0  0  0
 16 17  1  0  0  0  0
 17  9  1  0  0  0  0
 18 20  1  6  0  0  0
 18 14  1  0  0  0  0
 19 15  1  0  0  0  0
 20 11  2  0  0  0  0
 21  8  2  0  0  0  0
 21  2  1  0  0  0  0
 22 13  1  0  0  0  0
 23 24  1  0  0  0  0
 25 23  1  0  0  0  0
 25 24  1  0  0  0  0
M  END
>  <MODEL>
5

>  <REMARK>
 VINA RESULT:      -7.5      3.536      4.407
  Name = 
  1 active torsions:
  status: ('A' for Active; 'I' for Inactive)
    1  A    between atoms: C_2  and  N_7
                            x       y       z     vdW  Elec       q    Type
                         _______ _______ _______ _____ _____    ______ ____

>  <TORSDO>
F 1

$$$$
=
 OpenBabel11052412493D

 25 30  0  0  1  0  0  0  0  0999 V2000
  186.1180  178.3530  141.9810 N   0  0  0  0  0  0  0  0  0  0  0  0
  186.8550  178.2070  143.2080 C   0  0  0  0  0  0  0  0  0  0  0  0
  184.0400  178.6260  143.1570 C   0  0  0  0  0  3  0  0  0  0  0  0
  186.5800  178.3190  140.6350 C   0  0  0  0  0  0  0  0  0  0  0  0
  189.6700  176.5030  144.4820 C   0  0  0  0  0  2  0  0  0  0  0  0
  191.0820  176.7200  144.7680 N   0  0  2  0  0  0  0  0  0  0  0  0
  187.1830  178.2970  137.9160 C   0  0  0  0  0  3  0  0  0  0  0  0
  184.7690  178.4840  144.4390 C   0  0  0  0  0  3  0  0  0  0  0  0
  185.5710  178.4910  139.6980 C   0  0  0  0  0  0  0  0  0  0  0  0
  185.8570  178.4830  138.3310 C   0  0  0  0  0  3  0  0  0  0  0  0
  186.8140  178.1520  145.7540 C   0  0  0  0  0  0  0  0  0  0  0  0
  186.1300  178.2340  146.9610 O   0  0  0  0  0  1  0  0  0  0  0  0
  190.0680  178.8740  144.5470 C   0  0  0  0  0  2  0  0  0  0  0  0
  188.1760  178.0080  143.2260 C   0  0  0  0  0  3  0  0  0  0  0  0
  188.2050  178.1230  138.8640 C   0  0  0  0  0  3  0  0  0  0  0  0
  184.7080  178.5600  142.0020 C   0  0  0  0  0  0  0  0  0  0  0  0
  183.9280  178.7180  140.3920 S   0  0  0  0  0  0  0  0  0  0  0  0
  188.9650  177.8450  144.5040 C   0  0  1  0  0  0  0  0  0  0  0  0
  187.9060  178.1320  140.2340 C   0  0  0  0  0  3  0  0  0  0  0  0
  188.1340  177.9530  145.7610 C   0  0  0  0  0  3  0  0  0  0  0  0
  186.0970  178.2860  144.4750 C   0  0  0  0  0  0  0  0  0  0  0  0
  191.3470  178.0930  144.3600 C   0  0  0  0  0  2  0  0  0  0  0  0
  191.8450  175.8500  143.8850 C   0  0  0  0  0  3  0  0  0  0  0  0
  191.0460  174.5910  143.5960 C   0  0  0  0  0  2  0  0  0  0  0  0
  192.1720  174.5530  144.6050 C   0  0  0  0  0  2  0  0  0  0  0  0
  1 16  1  0  0  0  0
  1  2  1  0  0  0  0
  2 14  2  0  0  0  0
  2 21  1  0  0  0  0
  3  8  1  0  0  0  0
  4  1  1  0  0  0  0
  5 18  1  0  0  0  0
  5  6  1  0  0  0  0
  6 23  1  6  0  0  0
  7 10  2  0  0  0  0
  7 15  1  0  0  0  0
  8 21  2  0  0  0  0
  9 17  1  0  0  0  0
  9  4  2  0  0  0  0
 10  9  1  0  0  0  0
 11 20  2  0  0  0  0
 11 12  1  0  0  0  0
 15 19  2  0  0  0  0
 16  3  2  0  0  0  0
 17 16  1  0  0  0  0
 18 14  1  6  0  0  0
 18 13  1  0  0  0  0
 18 20  1  0  0  0  0
 19  4  1  0  0  0  0
 21 11  1  0  0  0  0
 22 13  1  0  0  0  0
 22  6  1  0  0  0  0
 23 25  1  0  0  0  0
 24 23  1  0  0  0  0
 24 25  1  0  0  0  0
M  END
>  <MODEL>
6

>  <REMARK>
 VINA RESULT:      -7.3      3.283      6.610
  Name = 
  1 active torsions:
  status: ('A' for Active; 'I' for Inactive)
    1  A    between atoms: C_2  and  N_7
                            x       y       z     vdW  Elec       q    Type
                         _______ _______ _______ _____ _____    ______ ____

>  <TORSDO>
F 1

$$$$
=
 OpenBabel11052412493D

 25 30  0  0  1  0  0  0  0  0999 V2000
  186.3610  178.2770  141.3170 N   0  0  0  0  0  0  0  0  0  0  0  0
  187.7380  177.8860  141.1730 C   0  0  0  0  0  0  0  0  0  0  0  0
  186.1200  178.6280  138.9520 C   0  0  0  0  0  3  0  0  0  0  0  0
  185.5650  178.3800  142.4930 C   0  0  0  0  0  0  0  0  0  0  0  0
  190.7970  178.0690  142.9240 C   0  0  0  0  0  2  0  0  0  0  0  0
  191.6460  177.2630  143.7910 N   0  0  2  0  0  0  0  0  0  0  0  0
  183.7730  178.6770  144.6030 C   0  0  0  0  0  3  0  0  0  0  0  0
  187.5340  178.2260  138.7670 C   0  0  0  0  0  3  0  0  0  0  0  0
  184.2660  178.8000  142.2470 C   0  0  0  0  0  0  0  0  0  0  0  0
  183.3550  178.9530  143.2940 C   0  0  0  0  0  3  0  0  0  0  0  0
  189.7090  177.4700  139.6140 C   0  0  0  0  0  0  0  0  0  0  0  0
  190.2680  177.4390  138.3420 O   0  0  0  0  0  1  0  0  0  0  0  0
  190.1380  175.7670  142.6920 C   0  0  0  0  0  2  0  0  0  0  0  0
  188.4940  177.5410  142.2180 C   0  0  0  0  0  3  0  0  0  0  0  0
  185.0890  178.2510  144.8530 C   0  0  0  0  0  3  0  0  0  0  0  0
  185.5880  178.6430  140.1770 C   0  0  0  0  0  0  0  0  0  0  0  0
  183.8880  179.1130  140.5170 S   0  0  0  0  0  0  0  0  0  0  0  0
  189.9440  177.1350  142.0880 C   0  0  1  0  0  0  0  0  0  0  0  0
  185.9950  178.1020  143.7940 C   0  0  0  0  0  3  0  0  0  0  0  0
  190.4560  177.1280  140.6660 C   0  0  0  0  0  3  0  0  0  0  0  0
  188.3070  177.8740  139.8070 C   0  0  0  0  0  0  0  0  0  0  0  0
  190.9380  176.0010  143.9530 C   0  0  0  0  0  2  0  0  0  0  0  0
  191.6800  177.9120  145.0930 C   0  0  0  0  0  3  0  0  0  0  0  0
  191.3550  176.8990  146.1770 C   0  0  0  0  0  2  0  0  0  0  0  0
  190.2960  177.8770  145.7170 C   0  0  0  0  0  2  0  0  0  0  0  0
  1  4  1  0  0  0  0
  2  1  1  0  0  0  0
  2 14  2  0  0  0  0
  3 16  2  0  0  0  0
  4 19  1  0  0  0  0
  5  6  1  0  0  0  0
  6 22  1  0  0  0  0
  6 23  1  1  0  0  0
  7 15  1  0  0  0  0
  8  3  1  0  0  0  0
  8 21  2  0  0  0  0
  9  4  2  0  0  0  0
  9 10  1  0  0  0  0
 10  7  2  0  0  0  0
 11 21  1  0  0  0  0
 11 20  2  0  0  0  0
 12 11  1  0  0  0  0
 13 22  1  0  0  0  0
 16 17  1  0  0  0  0
 16  1  1  0  0  0  0
 17  9  1  0  0  0  0
 18 20  1  6  0  0  0
 18 14  1  0  0  0  0
 18 13  1  0  0  0  0
 18  5  1  0  0  0  0
 19 15  2  0  0  0  0
 21  2  1  0  0  0  0
 23 25  1  0  0  0  0
 23 24  1  0  0  0  0
 25 24  1  0  0  0  0
M  END
>  <MODEL>
7

>  <REMARK>
 VINA RESULT:      -7.1      2.555      5.503
  Name = 
  1 active torsions:
  status: ('A' for Active; 'I' for Inactive)
    1  A    between atoms: C_2  and  N_7
                            x       y       z     vdW  Elec       q    Type
                         _______ _______ _______ _____ _____    ______ ____

>  <TORSDO>
F 1

$$$$
=
 OpenBabel11052412493D

 25 30  0  0  1  0  0  0  0  0999 V2000
  186.5480  178.1660  142.0110 N   0  0  0  0  0  0  0  0  0  0  0  0
  187.7380  177.9640  141.2290 C   0  0  0  0  0  0  0  0  0  0  0  0
  187.7310  177.7890  144.0690 C   0  0  0  0  0  3  0  0  0  0  0  0
  185.2220  178.4640  141.5880 C   0  0  0  0  0  0  0  0  0  0  0  0
  188.7220  176.6890  138.0890 C   0  0  0  0  0  2  0  0  0  0  0  0
  189.0570  177.1430  136.7450 N   0  0  2  0  0  0  0  0  0  0  0  0
  182.5490  179.0440  141.0660 C   0  0  0  0  0  3  0  0  0  0  0  0
  188.9750  177.5800  143.2940 C   0  0  0  0  0  3  0  0  0  0  0  0
  184.3190  178.5840  142.6350 C   0  0  0  0  0  0  0  0  0  0  0  0
  182.9760  178.8740  142.3900 C   0  0  0  0  0  3  0  0  0  0  0  0
  190.2330  177.4580  141.1900 C   0  0  0  0  0  0  0  0  0  0  0  0
  191.4280  177.1820  141.8450 O   0  0  0  0  0  1  0  0  0  0  0  0
  189.2090  179.0420  138.1900 C   0  0  0  0  0  2  0  0  0  0  0  0
  187.7350  178.0450  139.8950 C   0  0  0  0  0  3  0  0  0  0  0  0
  183.4620  178.9240  140.0050 C   0  0  0  0  0  3  0  0  0  0  0  0
  186.5890  178.0670  143.4330 C   0  0  0  0  0  0  0  0  0  0  0  0
  185.0240  178.3370  144.2710 S   0  0  0  0  0  0  0  0  0  0  0  0
  188.9730  177.8300  139.0560 C   0  0  1  0  0  0  0  0  0  0  0  0
  184.8090  178.6310  140.2630 C   0  0  0  0  0  3  0  0  0  0  0  0
  190.2200  177.5400  139.8580 C   0  0  0  0  0  3  0  0  0  0  0  0
  188.9910  177.6600  141.9530 C   0  0  0  0  0  0  0  0  0  0  0  0
  188.9010  178.5900  136.7820 C   0  0  0  0  0  2  0  0  0  0  0  0
  188.0430  176.6180  135.8430 C   0  0  0  0  0  3  0  0  0  0  0  0
  187.9040  175.1200  136.0460 C   0  0  0  0  0  2  0  0  0  0  0  0
  188.6830  175.6510  134.8630 C   0  0  0  0  0  2  0  0  0  0  0  0
  1 16  1  0  0  0  0
  2 21  1  0  0  0  0
  2  1  1  0  0  0  0
  4  1  1  0  0  0  0
  4  9  1  0  0  0  0
  6 23  1  6  0  0  0
  6 22  1  0  0  0  0
  6  5  1  0  0  0  0
  7 10  1  0  0  0  0
  8  3  1  0  0  0  0
  9 17  1  0  0  0  0
 10  9  2  0  0  0  0
 11 12  1  0  0  0  0
 11 21  1  0  0  0  0
 13 18  1  0  0  0  0
 14  2  2  0  0  0  0
 15 19  1  0  0  0  0
 15  7  2  0  0  0  0
 16  3  2  0  0  0  0
 16 17  1  0  0  0  0
 18  5  1  6  0  0  0
 18 20  1  0  0  0  0
 18 14  1  0  0  0  0
 19  4  2  0  0  0  0
 20 11  2  0  0  0  0
 21  8  2  0  0  0  0
 22 13  1  0  0  0  0
 23 24  1  0  0  0  0
 25 23  1  0  0  0  0
 25 24  1  0  0  0  0
M  END
>  <MODEL>
8

>  <REMARK>
 VINA RESULT:      -7.1      1.952      2.653
  Name = 
  1 active torsions:
  status: ('A' for Active; 'I' for Inactive)
    1  A    between atoms: C_2  and  N_7
                            x       y       z     vdW  Elec       q    Type
                         _______ _______ _______ _____ _____    ______ ____

>  <TORSDO>
F 1

$$$$
=
 OpenBabel11052412493D

 25 30  0  0  1  0  0  0  0  0999 V2000
  185.7260  178.0310  144.1680 N   0  0  0  0  0  0  0  0  0  0  0  0
  184.6370  178.2420  143.2520 C   0  0  0  0  0  0  0  0  0  0  0  0
  184.4250  178.8100  146.0330 C   0  0  0  0  0  3  0  0  0  0  0  0
  187.0390  177.5420  143.9200 C   0  0  0  0  0  0  0  0  0  0  0  0
  184.0730  179.1630  139.8920 C   0  0  0  0  0  2  0  0  0  0  0  0
  183.8020  178.5630  138.5920 N   0  0  2  0  0  0  0  0  0  0  0  0
  189.6620  176.6230  143.7430 C   0  0  0  0  0  3  0  0  0  0  0  0
  183.2830  179.0360  145.1180 C   0  0  0  0  0  3  0  0  0  0  0  0
  187.8310  177.4770  145.0580 C   0  0  0  0  0  0  0  0  0  0  0  0
  189.1480  177.0190  144.9860 C   0  0  0  0  0  3  0  0  0  0  0  0
  182.2280  178.9930  142.9020 C   0  0  0  0  0  0  0  0  0  0  0  0
  181.0220  179.4780  143.3940 O   0  0  0  0  0  1  0  0  0  0  0  0
  183.3110  176.9090  140.2480 C   0  0  0  0  0  2  0  0  0  0  0  0
  184.7420  177.9770  141.9470 C   0  0  0  0  0  3  0  0  0  0  0  0
  188.8610  176.6880  142.5910 C   0  0  0  0  0  3  0  0  0  0  0  0
  185.5760  178.3300  145.5540 C   0  0  0  0  0  0  0  0  0  0  0  0
  187.0240  178.0200  146.5700 S   0  0  0  0  0  0  0  0  0  0  0  0
  183.6130  178.2000  140.9690 C   0  0  1  0  0  0  0  0  0  0  0  0
  187.5400  177.1500  142.6750 C   0  0  0  0  0  3  0  0  0  0  0  0
  182.3440  178.7250  141.6000 C   0  0  0  0  0  3  0  0  0  0  0  0
  183.3710  178.7720  143.8040 C   0  0  0  0  0  0  0  0  0  0  0  0
  183.7860  177.1270  138.8300 C   0  0  0  0  0  2  0  0  0  0  0  0
  184.9420  178.8490  137.7340 C   0  0  0  0  0  3  0  0  0  0  0  0
  185.4660  177.5570  137.1340 C   0  0  0  0  0  2  0  0  0  0  0  0
  186.1870  178.1910  138.3030 C   0  0  0  0  0  2  0  0  0  0  0  0
  1 16  1  0  0  0  0
  2 21  1  0  0  0  0
  2  1  1  0  0  0  0
  4  1  1  0  0  0  0
  4  9  1  0  0  0  0
  6 23  1  6  0  0  0
  6 22  1  0  0  0  0
  6  5  1  0  0  0  0
  7 10  1  0  0  0  0
  8  3  1  0  0  0  0
  9 17  1  0  0  0  0
 10  9  2  0  0  0  0
 11 12  1  0  0  0  0
 11 21  1  0  0  0  0
 13 18  1  0  0  0  0
 14  2  2  0  0  0  0
 15 19  1  0  0  0  0
 15  7  2  0  0  0  0
 16  3  2  0  0  0  0
 16 17  1  0  0  0  0
 18  5  1  6  0  0  0
 18 20  1  0  0  0  0
 18 14  1  0  0  0  0
 19  4  2  0  0  0  0
 20 11  2  0  0  0  0
 21  8  2  0  0  0  0
 22 13  1  0  0  0  0
 23 25  1  0  0  0  0
 24 23  1  0  0  0  0
 24 25  1  0  0  0  0
M  END
>  <MODEL>
9

>  <REMARK>
 VINA RESULT:      -6.9      3.537      5.860
  Name = 
  1 active torsions:
  status: ('A' for Active; 'I' for Inactive)
    1  A    between atoms: C_2  and  N_7
                            x       y       z     vdW  Elec       q    Type
                         _______ _______ _______ _____ _____    ______ ____

>  <TORSDO>
F 1

$$$$
