=
 OpenBabel11052412563D

 31 35  0  0  1  0  0  0  0  0999 V2000
  190.6340  176.7660  145.9360 C   0  0  0  0  0  0  0  0  0  0  0  0
  187.9110  177.6050  143.3890 C   0  0  0  0  0  0  0  0  0  0  0  0
  186.7020  177.7690  144.1270 C   0  0  0  0  0  0  0  0  0  0  0  0
  186.2880  178.2980  146.5060 C   0  0  0  0  0  3  0  0  0  0  0  0
  189.2000  177.1430  144.0000 C   0  0  0  0  0  0  0  0  0  0  0  0
  191.6780  176.3730  145.1000 C   0  0  0  0  0  3  0  0  0  0  0  0
  186.5620  177.2200  145.5140 C   0  0  0  0  0  2  0  0  0  0  0  0
  189.1070  177.6860  141.2250 N   0  0  0  0  0  0  0  0  0  0  0  0
  190.8170  176.7750  147.3460 N   0  0  0  0  0  1  0  0  0  0  0  0
  185.6150  178.6500  142.1430 C   0  0  0  0  0  3  0  0  0  0  0  0
  185.1660  179.0130  146.4950 C   0  0  0  0  0  3  0  0  0  0  0  0
  190.1200  176.7390  141.6780 C   0  0  0  0  0  2  0  0  0  0  0  0
  187.9210  177.9200  142.0110 C   0  0  0  0  0  0  0  0  0  0  0  0
  189.4100  177.1540  145.3890 C   0  0  0  0  0  3  0  0  0  0  0  0
  184.1080  178.8970  145.4750 C   0  0  0  0  0  3  0  0  0  0  0  0
  190.2760  176.7730  143.1640 C   0  0  0  0  0  0  0  0  0  0  0  0
  191.4980  176.3760  143.7160 C   0  0  0  0  0  3  0  0  0  0  0  0
  186.7740  178.4460  141.4080 C   0  0  0  0  0  3  0  0  0  0  0  0
  185.5650  178.3270  143.4970 C   0  0  0  0  0  0  0  0  0  0  0  0
  184.2820  178.5920  144.1840 C   0  0  0  0  0  3  0  0  0  0  0  0
  189.2720  178.2590  139.8930 C   0  0  0  0  0  2  0  0  0  0  0  0
  189.9000  176.6770  138.2200 O   0  0  0  0  0  1  0  0  0  0  0  0
  188.7990  177.2850  138.8260 C   0  0  2  0  0  3  0  0  0  0  0  0
  187.9870  178.0350  137.7850 C   0  0  0  0  0  2  0  0  0  0  0  0
  184.7270  175.9400  136.9940 C   0  0  0  0  0  0  0  0  0  0  0  0
  185.2820  179.1880  138.5060 O   0  0  0  0  0  1  0  0  0  0  0  0
  183.8090  174.8710  136.5250 C   0  0  0  0  0  1  0  0  0  0  0  0
  186.4060  175.8860  136.8790 S   0  0  0  0  0  0  0  0  0  0  0  0
  185.4250  177.9400  137.9140 C   0  0  0  0  0  0  0  0  0  0  0  0
  186.6580  177.3860  137.5960 C   0  0  0  0  0  0  0  0  0  0  0  0
  184.3300  177.1330  137.5830 C   0  0  0  0  0  3  0  0  0  0  0  0
  1  9  1  0  0  0  0
  2  5  1  0  0  0  0
  2  3  1  0  0  0  0
  3  7  1  0  0  0  0
  5 14  2  0  0  0  0
  6  1  2  0  0  0  0
  7  4  1  0  0  0  0
  8 12  1  0  0  0  0
  8 13  1  0  0  0  0
 10 19  1  0  0  0  0
 11  4  2  0  0  0  0
 12 16  1  0  0  0  0
 13  2  2  0  0  0  0
 14  1  1  0  0  0  0
 15 11  1  0  0  0  0
 16 17  2  0  0  0  0
 16  5  1  0  0  0  0
 17  6  1  0  0  0  0
 18 13  1  0  0  0  0
 18 10  2  0  0  0  0
 19  3  2  0  0  0  0
 19 20  1  0  0  0  0
 20 15  2  0  0  0  0
 21  8  1  0  0  0  0
 23 22  1  6  0  0  0
 23 21  1  0  0  0  0
 24 23  1  0  0  0  0
 25 31  2  0  0  0  0
 27 25  1  0  0  0  0
 28 25  1  0  0  0  0
 28 30  1  0  0  0  0
 29 26  1  0  0  0  0
 30 24  1  0  0  0  0
 30 29  2  0  0  0  0
 31 29  1  0  0  0  0
M  END
>  <MODEL>
1

>  <REMARK>
 VINA RESULT:     -10.7      0.000      0.000
  Name = 
  4 active torsions:
  status: ('A' for Active; 'I' for Inactive)
    1  A    between atoms: C_3  and  C_9
    2  A    between atoms: C_3  and  C_22
    3  A    between atoms: C_9  and  C_23
    4  A    between atoms: N_15  and  C_23
                            x       y       z     vdW  Elec       q    Type
                         _______ _______ _______ _____ _____    ______ ____

>  <TORSDO>
F 4

$$$$
=
 OpenBabel11052412563D

 31 35  0  0  1  0  0  0  0  0999 V2000
  190.4530  176.8340  146.0850 C   0  0  0  0  0  0  0  0  0  0  0  0
  188.1860  177.5610  143.0960 C   0  0  0  0  0  0  0  0  0  0  0  0
  186.8800  177.7860  143.6220 C   0  0  0  0  0  0  0  0  0  0  0  0
  186.1090  178.4620  145.8720 C   0  0  0  0  0  3  0  0  0  0  0  0
  189.3510  177.1170  143.9280 C   0  0  0  0  0  0  0  0  0  0  0  0
  191.6060  176.3770  145.4490 C   0  0  0  0  0  3  0  0  0  0  0  0
  186.5100  177.3220  144.9980 C   0  0  0  0  0  2  0  0  0  0  0  0
  189.7100  177.4940  141.1470 N   0  0  0  0  0  0  0  0  0  0  0  0
  190.4110  176.9240  147.5040 N   0  0  0  0  0  1  0  0  0  0  0  0
  186.1400  178.5630  141.4440 C   0  0  0  0  0  3  0  0  0  0  0  0
  185.0210  179.1920  145.6420 C   0  0  0  0  0  3  0  0  0  0  0  0
  190.6160  176.5610  141.8080 C   0  0  0  0  0  2  0  0  0  0  0  0
  188.4200  177.7930  141.7200 C   0  0  0  0  0  0  0  0  0  0  0  0
  189.3400  177.2070  145.3290 C   0  0  0  0  0  3  0  0  0  0  0  0
  184.1340  179.0310  144.4760 C   0  0  0  0  0  3  0  0  0  0  0  0
  190.5370  176.6820  143.2950 C   0  0  0  0  0  0  0  0  0  0  0  0
  191.6460  176.3000  144.0560 C   0  0  0  0  0  3  0  0  0  0  0  0
  187.3960  178.2990  140.9140 C   0  0  0  0  0  3  0  0  0  0  0  0
  185.8700  178.3230  142.7880 C   0  0  0  0  0  0  0  0  0  0  0  0
  184.5020  178.6470  143.2480 C   0  0  0  0  0  3  0  0  0  0  0  0
  190.0960  177.9850  139.8280 C   0  0  0  0  0  2  0  0  0  0  0  0
  191.8280  176.6040  138.9420 O   0  0  0  0  0  1  0  0  0  0  0  0
  190.4510  176.8290  138.9070 C   0  0  2  0  0  3  0  0  0  0  0  0
  190.0190  177.1630  137.4900 C   0  0  0  0  0  2  0  0  0  0  0  0
  186.1100  176.6700  137.1540 C   0  0  0  0  0  0  0  0  0  0  0  0
  188.2390  179.6020  137.2770 O   0  0  0  0  0  1  0  0  0  0  0  0
  184.7650  176.0520  137.0310 C   0  0  0  0  0  1  0  0  0  0  0  0
  187.5520  175.8160  137.3170 S   0  0  0  0  0  0  0  0  0  0  0  0
  187.7330  178.3090  137.2710 C   0  0  0  0  0  0  0  0  0  0  0  0
  188.5320  177.1800  137.3890 C   0  0  0  0  0  0  0  0  0  0  0  0
  186.3660  178.0350  137.1420 C   0  0  0  0  0  3  0  0  0  0  0  0
  1  9  1  0  0  0  0
  2  3  1  0  0  0  0
  2  5  1  0  0  0  0
  3  7  1  0  0  0  0
  5 14  1  0  0  0  0
  6  1  1  0  0  0  0
  7  4  1  0  0  0  0
  8 13  1  0  0  0  0
  8 12  1  0  0  0  0
 10 19  1  0  0  0  0
 11  4  2  0  0  0  0
 12 16  1  0  0  0  0
 13  2  2  0  0  0  0
 14  1  2  0  0  0  0
 15 11  1  0  0  0  0
 16  5  2  0  0  0  0
 16 17  1  0  0  0  0
 17  6  2  0  0  0  0
 18 10  2  0  0  0  0
 18 13  1  0  0  0  0
 19 20  1  0  0  0  0
 19  3  2  0  0  0  0
 20 15  2  0  0  0  0
 21  8  1  0  0  0  0
 23 22  1  6  0  0  0
 23 21  1  0  0  0  0
 24 23  1  0  0  0  0
 25 28  1  0  0  0  0
 27 25  1  0  0  0  0
 28 30  1  0  0  0  0
 29 26  1  0  0  0  0
 29 30  2  0  0  0  0
 30 24  1  0  0  0  0
 31 25  2  0  0  0  0
 31 29  1  0  0  0  0
M  END
>  <MODEL>
2

>  <REMARK>
 VINA RESULT:     -10.6      1.033      1.297
  Name = 
  4 active torsions:
  status: ('A' for Active; 'I' for Inactive)
    1  A    between atoms: C_3  and  C_9
    2  A    between atoms: C_3  and  C_22
    3  A    between atoms: C_9  and  C_23
    4  A    between atoms: N_15  and  C_23
                            x       y       z     vdW  Elec       q    Type
                         _______ _______ _______ _____ _____    ______ ____

>  <TORSDO>
F 4

$$$$
=
 OpenBabel11052412563D

 31 35  0  0  1  0  0  0  0  0999 V2000
  190.5690  176.8380  146.2770 C   0  0  0  0  0  0  0  0  0  0  0  0
  188.0650  177.4970  143.4670 C   0  0  0  0  0  0  0  0  0  0  0  0
  186.8040  177.7280  144.0920 C   0  0  0  0  0  0  0  0  0  0  0  0
  186.2140  178.4460  146.3830 C   0  0  0  0  0  3  0  0  0  0  0  0
  189.2950  177.0740  144.2100 C   0  0  0  0  0  0  0  0  0  0  0  0
  191.6690  176.3730  145.5590 C   0  0  0  0  0  3  0  0  0  0  0  0
  186.5490  177.2910  145.5030 C   0  0  0  0  0  2  0  0  0  0  0  0
  189.4260  177.3970  141.4030 N   0  0  0  0  0  0  0  0  0  0  0  0
  190.6420  176.9570  147.6920 N   0  0  0  0  0  1  0  0  0  0  0  0
  185.8870  178.4590  141.9660 C   0  0  0  0  0  3  0  0  0  0  0  0
  185.1070  179.1680  146.2280 C   0  0  0  0  0  3  0  0  0  0  0  0
  190.3880  176.4800  142.0060 C   0  0  0  0  0  2  0  0  0  0  0  0
  188.1860  177.7020  142.0730 C   0  0  0  0  0  0  0  0  0  0  0  0
  189.3970  177.1920  145.6070 C   0  0  0  0  0  3  0  0  0  0  0  0
  184.1300  178.9810  145.1400 C   0  0  0  0  0  3  0  0  0  0  0  0
  190.4280  176.6310  143.4930 C   0  0  0  0  0  0  0  0  0  0  0  0
  191.5970  176.2680  144.1690 C   0  0  0  0  0  3  0  0  0  0  0  0
  187.0970  178.1890  141.3420 C   0  0  0  0  0  3  0  0  0  0  0  0
  185.7280  178.2450  143.3330 C   0  0  0  0  0  0  0  0  0  0  0  0
  184.3990  178.5730  143.8940 C   0  0  0  0  0  3  0  0  0  0  0  0
  189.7020  177.8620  140.0480 C   0  0  0  0  0  2  0  0  0  0  0  0
  191.7480  176.9080  139.2750 O   0  0  0  0  0  1  0  0  0  0  0  0
  190.3600  176.7660  139.2270 C   0  0  2  0  0  3  0  0  0  0  0  0
  189.8830  176.8590  137.7880 C   0  0  0  0  0  2  0  0  0  0  0  0
  187.6070  173.7850  136.7820 C   0  0  0  0  0  0  0  0  0  0  0  0
  191.1570  174.1360  137.4300 O   0  0  0  0  0  1  0  0  0  0  0  0
  186.4320  172.9450  136.4350 C   0  0  0  0  0  1  0  0  0  0  0  0
  187.5510  175.4380  137.0990 S   0  0  0  0  0  0  0  0  0  0  0  0
  189.7980  174.3510  137.2440 C   0  0  0  0  0  0  0  0  0  0  0  0
  189.2000  175.5970  137.3830 C   0  0  0  0  0  0  0  0  0  0  0  0
  188.9110  173.3240  136.9020 C   0  0  0  0  0  3  0  0  0  0  0  0
  1  9  1  0  0  0  0
  2  3  1  0  0  0  0
  2  5  1  0  0  0  0
  3  7  1  0  0  0  0
  5 14  2  0  0  0  0
  6  1  2  0  0  0  0
  7  4  1  0  0  0  0
  8 12  1  0  0  0  0
  8 13  1  0  0  0  0
 10 19  1  0  0  0  0
 11  4  2  0  0  0  0
 12 16  1  0  0  0  0
 13  2  2  0  0  0  0
 14  1  1  0  0  0  0
 15 11  1  0  0  0  0
 16 17  2  0  0  0  0
 16  5  1  0  0  0  0
 17  6  1  0  0  0  0
 18 10  2  0  0  0  0
 18 13  1  0  0  0  0
 19 20  1  0  0  0  0
 19  3  2  0  0  0  0
 20 15  2  0  0  0  0
 21  8  1  0  0  0  0
 23 22  1  6  0  0  0
 23 21  1  0  0  0  0
 24 23  1  0  0  0  0
 25 31  2  0  0  0  0
 25 28  1  0  0  0  0
 27 25  1  0  0  0  0
 28 30  1  0  0  0  0
 29 30  2  0  0  0  0
 29 26  1  0  0  0  0
 30 24  1  0  0  0  0
 31 29  1  0  0  0  0
M  END
>  <MODEL>
3

>  <REMARK>
 VINA RESULT:     -10.3      2.076      2.407
  Name = 
  4 active torsions:
  status: ('A' for Active; 'I' for Inactive)
    1  A    between atoms: C_3  and  C_9
    2  A    between atoms: C_3  and  C_22
    3  A    between atoms: C_9  and  C_23
    4  A    between atoms: N_15  and  C_23
                            x       y       z     vdW  Elec       q    Type
                         _______ _______ _______ _____ _____    ______ ____

>  <TORSDO>
F 4

$$$$
=
 OpenBabel11052412563D

 31 35  0  0  1  0  0  0  0  0999 V2000
  190.4450  176.7900  145.9060 C   0  0  0  0  0  0  0  0  0  0  0  0
  187.8740  177.6950  143.2280 C   0  0  0  0  0  0  0  0  0  0  0  0
  186.6210  177.8300  143.8960 C   0  0  0  0  0  0  0  0  0  0  0  0
  186.0630  178.2820  146.2620 C   0  0  0  0  0  3  0  0  0  0  0  0
  189.1270  177.2210  143.8990 C   0  0  0  0  0  0  0  0  0  0  0  0
  191.5400  176.4280  145.1220 C   0  0  0  0  0  3  0  0  0  0  0  0
  186.4030  177.2370  145.2550 C   0  0  0  0  0  2  0  0  0  0  0  0
  189.1960  177.8490  141.1420 N   0  0  0  0  0  0  0  0  0  0  0  0
  190.5430  176.7560  147.3240 N   0  0  0  0  0  1  0  0  0  0  0  0
  185.6490  178.7670  141.8790 C   0  0  0  0  0  3  0  0  0  0  0  0
  184.9390  178.9920  146.2050 C   0  0  0  0  0  3  0  0  0  0  0  0
  190.1870  176.8930  141.6250 C   0  0  0  0  0  2  0  0  0  0  0  0
  187.9640  178.0530  141.8620 C   0  0  0  0  0  0  0  0  0  0  0  0
  189.2530  177.1890  145.2980 C   0  0  0  0  0  3  0  0  0  0  0  0
  183.9440  178.9030  145.1210 C   0  0  0  0  0  3  0  0  0  0  0  0
  190.2540  176.8820  143.1180 C   0  0  0  0  0  0  0  0  0  0  0  0
  191.4430  176.4730  143.7300 C   0  0  0  0  0  3  0  0  0  0  0  0
  186.8510  178.5920  141.2080 C   0  0  0  0  0  3  0  0  0  0  0  0
  185.5200  178.4020  143.2170 C   0  0  0  0  0  0  0  0  0  0  0  0
  184.1970  178.6390  143.8340 C   0  0  0  0  0  3  0  0  0  0  0  0
  189.4360  178.4640  139.8410 C   0  0  0  0  0  2  0  0  0  0  0  0
  188.3020  176.7730  138.5980 O   0  0  0  0  0  1  0  0  0  0  0  0
  189.5370  177.4050  138.7560 C   0  0  2  0  0  3  0  0  0  0  0  0
  190.5910  176.3840  139.1440 C   0  0  0  0  0  2  0  0  0  0  0  0
  192.7060  175.4840  135.9270 C   0  0  0  0  0  0  0  0  0  0  0  0
  193.5260  177.1210  139.0560 O   0  0  0  0  0  1  0  0  0  0  0  0
  193.1080  174.9650  134.5940 C   0  0  0  0  0  1  0  0  0  0  0  0
  191.1550  175.3830  136.5720 S   0  0  0  0  0  0  0  0  0  0  0  0
  192.8870  176.4840  138.0000 C   0  0  0  0  0  0  0  0  0  0  0  0
  191.5380  176.1570  138.0150 C   0  0  0  0  0  0  0  0  0  0  0  0
  193.5550  176.1130  136.8280 C   0  0  0  0  0  3  0  0  0  0  0  0
  1  9  1  0  0  0  0
  2  3  1  0  0  0  0
  2  5  1  0  0  0  0
  3  7  1  0  0  0  0
  5 14  2  0  0  0  0
  6  1  2  0  0  0  0
  7  4  1  0  0  0  0
  8 12  1  0  0  0  0
  8 13  1  0  0  0  0
 10 19  1  0  0  0  0
 11  4  2  0  0  0  0
 12 16  1  0  0  0  0
 13  2  2  0  0  0  0
 14  1  1  0  0  0  0
 15 11  1  0  0  0  0
 16 17  2  0  0  0  0
 16  5  1  0  0  0  0
 17  6  1  0  0  0  0
 18 13  1  0  0  0  0
 18 10  2  0  0  0  0
 19 20  1  0  0  0  0
 19  3  2  0  0  0  0
 20 15  2  0  0  0  0
 21  8  1  0  0  0  0
 23 22  1  1  0  0  0
 23 24  1  0  0  0  0
 23 21  1  0  0  0  0
 25 28  1  0  0  0  0
 25 31  2  0  0  0  0
 27 25  1  0  0  0  0
 28 30  1  0  0  0  0
 29 30  2  0  0  0  0
 29 26  1  0  0  0  0
 30 24  1  0  0  0  0
 31 29  1  0  0  0  0
M  END
>  <MODEL>
4

>  <REMARK>
 VINA RESULT:      -9.8      2.341      3.753
  Name = 
  4 active torsions:
  status: ('A' for Active; 'I' for Inactive)
    1  A    between atoms: C_3  and  C_9
    2  A    between atoms: C_3  and  C_22
    3  A    between atoms: C_9  and  C_23
    4  A    between atoms: N_15  and  C_23
                            x       y       z     vdW  Elec       q    Type
                         _______ _______ _______ _____ _____    ______ ____

>  <TORSDO>
F 4

$$$$
=
 OpenBabel11052412563D

 31 35  0  0  1  0  0  0  0  0999 V2000
  185.1230  178.6280  144.7430 C   0  0  0  0  0  0  0  0  0  0  0  0
  188.6080  177.7870  143.4190 C   0  0  0  0  0  0  0  0  0  0  0  0
  189.4510  177.6370  144.5600 C   0  0  0  0  0  0  0  0  0  0  0  0
  188.9380  177.1270  146.9240 C   0  0  0  0  0  3  0  0  0  0  0  0
  187.1830  178.2460  143.4940 C   0  0  0  0  0  0  0  0  0  0  0  0
  184.4700  179.0080  143.5720 C   0  0  0  0  0  3  0  0  0  0  0  0
  189.0550  178.1960  145.8930 C   0  0  0  0  0  2  0  0  0  0  0  0
  188.3170  177.6840  140.9640 N   0  0  0  0  0  0  0  0  0  0  0  0
  184.4220  178.6280  145.9810 N   0  0  0  0  0  1  0  0  0  0  0  0
  191.2090  176.7480  143.1400 C   0  0  0  0  0  3  0  0  0  0  0  0
  189.9840  176.4190  147.3430 C   0  0  0  0  0  3  0  0  0  0  0  0
  187.2050  178.6280  140.9930 C   0  0  0  0  0  2  0  0  0  0  0  0
  189.1200  177.4630  142.1420 C   0  0  0  0  0  0  0  0  0  0  0  0
  186.4650  178.2440  144.7020 C   0  0  0  0  0  3  0  0  0  0  0  0
  191.3480  176.5340  146.7970 C   0  0  0  0  0  3  0  0  0  0  0  0
  186.5000  178.6030  142.3110 C   0  0  0  0  0  0  0  0  0  0  0  0
  185.1590  178.9970  142.3580 C   0  0  0  0  0  3  0  0  0  0  0  0
  190.4120  176.9390  142.0210 C   0  0  0  0  0  3  0  0  0  0  0  0
  190.7430  177.0810  144.4100 C   0  0  0  0  0  0  0  0  0  0  0  0
  191.6730  176.8290  145.5330 C   0  0  0  0  0  3  0  0  0  0  0  0
  188.6690  177.1000  139.6740 C   0  0  0  0  0  2  0  0  0  0  0  0
  189.0560  179.3100  138.8610 O   0  0  0  0  0  1  0  0  0  0  0  0
  189.5970  178.0230  138.9010 C   0  0  2  0  0  3  0  0  0  0  0  0
  189.7720  177.4940  137.4890 C   0  0  0  0  0  2  0  0  0  0  0  0
  192.6030  174.7330  137.5130 C   0  0  0  0  0  0  0  0  0  0  0  0
  189.0280  174.6150  136.9210 O   0  0  0  0  0  1  0  0  0  0  0  0
  193.9230  174.0570  137.6010 C   0  0  0  0  0  1  0  0  0  0  0  0
  192.3470  176.3810  137.7440 S   0  0  0  0  0  0  0  0  0  0  0  0
  190.3320  175.0050  137.2010 C   0  0  0  0  0  0  0  0  0  0  0  0
  190.6870  176.3170  137.4840 C   0  0  0  0  0  0  0  0  0  0  0  0
  191.4020  174.1030  137.2180 C   0  0  0  0  0  3  0  0  0  0  0  0
  1  9  1  0  0  0  0
  2  5  1  0  0  0  0
  2  3  1  0  0  0  0
  3  7  1  0  0  0  0
  4 11  2  0  0  0  0
  5 14  2  0  0  0  0
  6  1  2  0  0  0  0
  7  4  1  0  0  0  0
  8 12  1  0  0  0  0
  8 13  1  0  0  0  0
 10 19  1  0  0  0  0
 12 16  1  0  0  0  0
 13  2  2  0  0  0  0
 14  1  1  0  0  0  0
 15 11  1  0  0  0  0
 16 17  2  0  0  0  0
 16  5  1  0  0  0  0
 17  6  1  0  0  0  0
 18 13  1  0  0  0  0
 18 10  2  0  0  0  0
 19  3  2  0  0  0  0
 19 20  1  0  0  0  0
 20 15  2  0  0  0  0
 21  8  1  0  0  0  0
 23 22  1  6  0  0  0
 23 21  1  0  0  0  0
 24 23  1  0  0  0  0
 25 27  1  0  0  0  0
 25 28  1  0  0  0  0
 26 29  1  0  0  0  0
 29 31  1  0  0  0  0
 29 30  2  0  0  0  0
 30 24  1  0  0  0  0
 30 28  1  0  0  0  0
 31 25  2  0  0  0  0
M  END
>  <MODEL>
5

>  <REMARK>
 VINA RESULT:      -9.7      2.762      5.273
  Name = 
  4 active torsions:
  status: ('A' for Active; 'I' for Inactive)
    1  A    between atoms: C_3  and  C_9
    2  A    between atoms: C_3  and  C_22
    3  A    between atoms: C_9  and  C_23
    4  A    between atoms: N_15  and  C_23
                            x       y       z     vdW  Elec       q    Type
                         _______ _______ _______ _____ _____    ______ ____

>  <TORSDO>
F 4

$$$$
=
 OpenBabel11052412563D

 31 35  0  0  1  0  0  0  0  0999 V2000
  185.3160  178.3100  142.9660 C   0  0  0  0  0  0  0  0  0  0  0  0
  189.0990  177.7850  143.1220 C   0  0  0  0  0  0  0  0  0  0  0  0
  189.4430  177.7200  144.5040 C   0  0  0  0  0  0  0  0  0  0  0  0
  188.0990  177.1810  146.5080 C   0  0  0  0  0  3  0  0  0  0  0  0
  187.7230  178.1110  142.6230 C   0  0  0  0  0  0  0  0  0  0  0  0
  185.1390  178.6200  141.6190 C   0  0  0  0  0  3  0  0  0  0  0  0
  188.5180  178.2500  145.5570 C   0  0  0  0  0  2  0  0  0  0  0  0
  189.7900  177.6390  140.7510 N   0  0  0  0  0  0  0  0  0  0  0  0
  184.1940  178.2530  143.8370 N   0  0  0  0  0  1  0  0  0  0  0  0
  191.6800  176.9890  143.9090 C   0  0  0  0  0  3  0  0  0  0  0  0
  188.9550  176.5750  147.3270 C   0  0  0  0  0  3  0  0  0  0  0  0
  188.6800  178.4770  140.3100 C   0  0  0  0  0  2  0  0  0  0  0  0
  190.0900  177.5010  142.1550 C   0  0  0  0  0  0  0  0  0  0  0  0
  186.5960  178.0510  143.4600 C   0  0  0  0  0  3  0  0  0  0  0  0
  190.4100  176.8130  147.3430 C   0  0  0  0  0  3  0  0  0  0  0  0
  187.5250  178.3960  141.2540 C   0  0  0  0  0  0  0  0  0  0  0  0
  186.2430  178.6640  140.7650 C   0  0  0  0  0  3  0  0  0  0  0  0
  191.3660  177.0980  142.5620 C   0  0  0  0  0  3  0  0  0  0  0  0
  190.7340  177.2850  144.8870 C   0  0  0  0  0  0  0  0  0  0  0  0
  191.1740  177.1280  146.2910 C   0  0  0  0  0  3  0  0  0  0  0  0
  190.6610  177.0820  139.7210 C   0  0  0  0  0  2  0  0  0  0  0  0
  190.6100  175.1340  138.3440 O   0  0  0  0  0  1  0  0  0  0  0  0
  189.8610  176.2450  138.7360 C   0  0  2  0  0  3  0  0  0  0  0  0
  189.5160  177.0890  137.5220 C   0  0  0  0  0  2  0  0  0  0  0  0
  185.7910  176.1620  136.5710 C   0  0  0  0  0  0  0  0  0  0  0  0
  187.5550  179.3120  136.9080 O   0  0  0  0  0  1  0  0  0  0  0  0
  184.5570  175.3980  136.2580 C   0  0  0  0  0  1  0  0  0  0  0  0
  187.2650  175.4760  137.0080 S   0  0  0  0  0  0  0  0  0  0  0  0
  187.1930  177.9710  136.8780 C   0  0  0  0  0  0  0  0  0  0  0  0
  188.0730  176.9400  137.1770 C   0  0  0  0  0  0  0  0  0  0  0  0
  185.9030  177.5460  136.5390 C   0  0  0  0  0  3  0  0  0  0  0  0
  1 14  1  0  0  0  0
  1  9  1  0  0  0  0
  2  3  1  0  0  0  0
  3 19  2  0  0  0  0
  3  7  1  0  0  0  0
  4 11  2  0  0  0  0
  5  2  1  0  0  0  0
  5 14  2  0  0  0  0
  6  1  2  0  0  0  0
  7  4  1  0  0  0  0
  8 13  1  0  0  0  0
 10 19  1  0  0  0  0
 11 15  1  0  0  0  0
 12  8  1  0  0  0  0
 12 16  1  0  0  0  0
 13 18  1  0  0  0  0
 13  2  2  0  0  0  0
 16  5  1  0  0  0  0
 17 16  2  0  0  0  0
 17  6  1  0  0  0  0
 18 10  2  0  0  0  0
 19 20  1  0  0  0  0
 20 15  2  0  0  0  0
 21  8  1  0  0  0  0
 23 22  1  6  0  0  0
 23 21  1  0  0  0  0
 24 23  1  0  0  0  0
 25 28  1  0  0  0  0
 27 25  1  0  0  0  0
 28 30  1  0  0  0  0
 29 26  1  0  0  0  0
 29 30  2  0  0  0  0
 30 24  1  0  0  0  0
 31 25  2  0  0  0  0
 31 29  1  0  0  0  0
M  END
>  <MODEL>
6

>  <REMARK>
 VINA RESULT:      -9.6      1.897      4.072
  Name = 
  4 active torsions:
  status: ('A' for Active; 'I' for Inactive)
    1  A    between atoms: C_3  and  C_9
    2  A    between atoms: C_3  and  C_22
    3  A    between atoms: C_9  and  C_23
    4  A    between atoms: N_15  and  C_23
                            x       y       z     vdW  Elec       q    Type
                         _______ _______ _______ _____ _____    ______ ____

>  <TORSDO>
F 4

$$$$
=
 OpenBabel11052412563D

 31 35  0  0  1  0  0  0  0  0999 V2000
  188.8900  177.6450  147.8050 C   0  0  0  0  0  0  0  0  0  0  0  0
  187.8820  177.8230  144.1230 C   0  0  0  0  0  0  0  0  0  0  0  0
  186.4590  177.9060  144.0950 C   0  0  0  0  0  0  0  0  0  0  0  0
  184.8230  178.6400  145.7970 C   0  0  0  0  0  3  0  0  0  0  0  0
  188.6770  177.6080  145.3760 C   0  0  0  0  0  0  0  0  0  0  0  0
  190.2370  177.3030  147.7040 C   0  0  0  0  0  3  0  0  0  0  0  0
  185.6370  177.5030  145.2820 C   0  0  0  0  0  2  0  0  0  0  0  0
  190.0350  177.8170  142.9030 N   0  0  0  0  0  0  0  0  0  0  0  0
  188.2980  177.8380  149.0850 N   0  0  0  0  0  1  0  0  0  0  0  0
  186.5390  178.4050  141.7200 C   0  0  0  0  0  3  0  0  0  0  0  0
  183.8400  179.1940  145.0920 C   0  0  0  0  0  3  0  0  0  0  0  0
  190.7050  177.0700  143.9620 C   0  0  0  0  0  2  0  0  0  0  0  0
  188.6020  177.9780  142.9160 C   0  0  0  0  0  0  0  0  0  0  0  0
  188.1200  177.8030  146.6510 C   0  0  0  0  0  3  0  0  0  0  0  0
  183.4880  178.8240  143.7090 C   0  0  0  0  0  3  0  0  0  0  0  0
  190.0510  177.2930  145.2870 C   0  0  0  0  0  0  0  0  0  0  0  0
  190.8160  177.1260  146.4460 C   0  0  0  0  0  3  0  0  0  0  0  0
  187.9200  178.2760  141.7310 C   0  0  0  0  0  3  0  0  0  0  0  0
  185.7980  178.2340  142.8870 C   0  0  0  0  0  0  0  0  0  0  0  0
  184.3340  178.4010  142.7630 C   0  0  0  0  0  3  0  0  0  0  0  0
  190.8470  178.2530  141.7720 C   0  0  0  0  0  2  0  0  0  0  0  0
  192.4630  177.5290  140.1730 O   0  0  0  0  0  1  0  0  0  0  0  0
  191.5620  177.0720  141.1360 C   0  0  2  0  0  3  0  0  0  0  0  0
  190.5390  176.1530  140.4900 C   0  0  0  0  0  2  0  0  0  0  0  0
  189.6410  177.4700  136.8710 C   0  0  0  0  0  0  0  0  0  0  0  0
  191.6970  174.7380  138.0770 O   0  0  0  0  0  1  0  0  0  0  0  0
  189.0540  178.2520  135.7530 C   0  0  0  0  0  1  0  0  0  0  0  0
  189.3750  177.7780  138.5050 S   0  0  0  0  0  0  0  0  0  0  0  0
  190.8650  175.8450  137.9630 C   0  0  0  0  0  0  0  0  0  0  0  0
  190.3430  176.5190  139.0580 C   0  0  0  0  0  0  0  0  0  0  0  0
  190.4800  176.3740  136.7250 C   0  0  0  0  0  3  0  0  0  0  0  0
  1  9  1  0  0  0  0
  2  5  1  0  0  0  0
  3  2  1  0  0  0  0
  3  7  1  0  0  0  0
  5 14  1  0  0  0  0
  6  1  1  0  0  0  0
  7  4  1  0  0  0  0
  8 13  1  0  0  0  0
  8 12  1  0  0  0  0
 10 18  2  0  0  0  0
 10 19  1  0  0  0  0
 11  4  2  0  0  0  0
 12 16  1  0  0  0  0
 13  2  2  0  0  0  0
 14  1  2  0  0  0  0
 15 11  1  0  0  0  0
 16  5  2  0  0  0  0
 16 17  1  0  0  0  0
 17  6  2  0  0  0  0
 18 13  1  0  0  0  0
 19  3  2  0  0  0  0
 20 19  1  0  0  0  0
 20 15  2  0  0  0  0
 21  8  1  0  0  0  0
 23 22  1  6  0  0  0
 23 21  1  0  0  0  0
 24 23  1  0  0  0  0
 25 28  1  0  0  0  0
 27 25  1  0  0  0  0
 28 30  1  0  0  0  0
 29 26  1  0  0  0  0
 29 30  2  0  0  0  0
 30 24  1  0  0  0  0
 31 25  2  0  0  0  0
 31 29  1  0  0  0  0
M  END
>  <MODEL>
7

>  <REMARK>
 VINA RESULT:      -9.6      2.764      3.377
  Name = 
  4 active torsions:
  status: ('A' for Active; 'I' for Inactive)
    1  A    between atoms: C_3  and  C_9
    2  A    between atoms: C_3  and  C_22
    3  A    between atoms: C_9  and  C_23
    4  A    between atoms: N_15  and  C_23
                            x       y       z     vdW  Elec       q    Type
                         _______ _______ _______ _____ _____    ______ ____

>  <TORSDO>
F 4

$$$$
=
 OpenBabel11052412563D

 31 35  0  0  1  0  0  0  0  0999 V2000
  189.8940  175.1860  136.8380 C   0  0  0  0  0  0  0  0  0  0  0  0
  188.1800  177.5590  139.2960 C   0  0  0  0  0  0  0  0  0  0  0  0
  186.9100  177.8790  138.7320 C   0  0  0  0  0  0  0  0  0  0  0  0
  185.5130  176.7100  137.0600 C   0  0  0  0  0  3  0  0  0  0  0  0
  189.2240  176.7510  138.5850 C   0  0  0  0  0  0  0  0  0  0  0  0
  191.1920  175.1580  137.3460 C   0  0  0  0  0  3  0  0  0  0  0  0
  186.6350  177.6670  137.2740 C   0  0  0  0  0  2  0  0  0  0  0  0
  189.7840  177.7550  141.1700 N   0  0  0  0  0  0  0  0  0  0  0  0
  189.5610  174.4130  135.6920 N   0  0  0  0  0  1  0  0  0  0  0  0
  186.2540  178.9330  140.8190 C   0  0  0  0  0  3  0  0  0  0  0  0
  184.2630  176.9770  137.4300 C   0  0  0  0  0  3  0  0  0  0  0  0
  190.9270  177.4960  140.3010 C   0  0  0  0  0  2  0  0  0  0  0  0
  188.4770  177.9940  140.6080 C   0  0  0  0  0  0  0  0  0  0  0  0
  188.9190  175.9700  137.4580 C   0  0  0  0  0  3  0  0  0  0  0  0
  183.8450  178.1890  138.1580 C   0  0  0  0  0  3  0  0  0  0  0  0
  190.5350  176.6890  139.1060 C   0  0  0  0  0  0  0  0  0  0  0  0
  191.5120  175.9110  138.4770 C   0  0  0  0  0  3  0  0  0  0  0  0
  187.5060  178.6690  141.3550 C   0  0  0  0  0  3  0  0  0  0  0  0
  185.9380  178.5400  139.5210 C   0  0  0  0  0  0  0  0  0  0  0  0
  184.5730  178.8660  139.0530 C   0  0  0  0  0  3  0  0  0  0  0  0
  190.0460  177.9100  142.5970 C   0  0  0  0  0  2  0  0  0  0  0  0
  190.2240  175.5320  142.5270 O   0  0  0  0  0  1  0  0  0  0  0  0
  189.8180  176.5990  143.3310 C   0  0  2  0  0  3  0  0  0  0  0  0
  188.3430  176.4590  143.6650 C   0  0  0  0  0  2  0  0  0  0  0  0
  188.0160  177.8890  147.3370 C   0  0  0  0  0  0  0  0  0  0  0  0
  185.7840  177.8560  144.4810 O   0  0  0  0  0  1  0  0  0  0  0  0
  188.3020  178.2410  148.7520 C   0  0  0  0  0  1  0  0  0  0  0  0
  189.0800  177.0840  146.3110 S   0  0  0  0  0  0  0  0  0  0  0  0
  186.8580  177.7050  145.3480 C   0  0  0  0  0  0  0  0  0  0  0  0
  188.0470  177.0860  144.9850 C   0  0  0  0  0  0  0  0  0  0  0  0
  186.8300  178.1650  146.6700 C   0  0  0  0  0  3  0  0  0  0  0  0
  1  6  2  0  0  0  0
  1 14  1  0  0  0  0
  2 13  1  0  0  0  0
  3  2  2  0  0  0  0
  3 19  1  0  0  0  0
  4  7  1  0  0  0  0
  4 11  2  0  0  0  0
  5 16  1  0  0  0  0
  5  2  1  0  0  0  0
  6 17  1  0  0  0  0
  7  3  1  0  0  0  0
  8 21  1  0  0  0  0
  9  1  1  0  0  0  0
 10 18  1  0  0  0  0
 11 15  1  0  0  0  0
 12  8  1  0  0  0  0
 13  8  1  0  0  0  0
 13 18  2  0  0  0  0
 14  5  2  0  0  0  0
 15 20  2  0  0  0  0
 16 12  1  0  0  0  0
 17 16  2  0  0  0  0
 19 10  2  0  0  0  0
 20 19  1  0  0  0  0
 21 23  1  0  0  0  0
 23 22  1  6  0  0  0
 23 24  1  0  0  0  0
 24 30  1  0  0  0  0
 25 27  1  0  0  0  0
 26 29  1  0  0  0  0
 28 25  1  0  0  0  0
 29 31  1  0  0  0  0
 30 29  2  0  0  0  0
 30 28  1  0  0  0  0
 31 25  2  0  0  0  0
M  END
>  <MODEL>
8

>  <REMARK>
 VINA RESULT:      -8.5      2.964      7.086
  Name = 
  4 active torsions:
  status: ('A' for Active; 'I' for Inactive)
    1  A    between atoms: C_3  and  C_9
    2  A    between atoms: C_3  and  C_22
    3  A    between atoms: C_9  and  C_23
    4  A    between atoms: N_15  and  C_23
                            x       y       z     vdW  Elec       q    Type
                         _______ _______ _______ _____ _____    ______ ____

>  <TORSDO>
F 4

$$$$
=
 OpenBabel11052412563D

 31 35  0  0  1  0  0  0  0  0999 V2000
  187.4370  177.9960  136.7010 C   0  0  0  0  0  0  0  0  0  0  0  0
  187.2990  178.0160  140.5210 C   0  0  0  0  0  0  0  0  0  0  0  0
  185.9860  178.4420  140.8770 C   0  0  0  0  0  0  0  0  0  0  0  0
  183.8540  178.4170  139.6250 C   0  0  0  0  0  3  0  0  0  0  0  0
  187.8100  177.9930  139.1120 C   0  0  0  0  0  0  0  0  0  0  0  0
  188.8040  177.8310  136.4790 C   0  0  0  0  0  3  0  0  0  0  0  0
  185.1140  179.1660  139.8960 C   0  0  0  0  0  2  0  0  0  0  0  0
  189.5300  177.2000  141.2140 N   0  0  0  0  0  0  0  0  0  0  0  0
  186.5420  178.0850  135.6000 N   0  0  0  0  0  1  0  0  0  0  0  0
  186.4200  177.8370  143.1880 C   0  0  0  0  0  3  0  0  0  0  0  0
  182.9260  178.2160  140.5570 C   0  0  0  0  0  3  0  0  0  0  0  0
  190.1620  177.7080  140.0020 C   0  0  0  0  0  2  0  0  0  0  0  0
  188.1700  177.5590  141.5360 C   0  0  0  0  0  0  0  0  0  0  0  0
  186.9460  178.0680  138.0070 C   0  0  0  0  0  3  0  0  0  0  0  0
  183.0540  178.6220  141.9680 C   0  0  0  0  0  3  0  0  0  0  0  0
  189.1880  177.7950  138.8710 C   0  0  0  0  0  0  0  0  0  0  0  0
  189.6770  177.7330  137.5630 C   0  0  0  0  0  3  0  0  0  0  0  0
  187.7160  177.4680  142.8560 C   0  0  0  0  0  3  0  0  0  0  0  0
  185.5450  178.3150  142.2160 C   0  0  0  0  0  0  0  0  0  0  0  0
  184.1860  178.6720  142.6790 C   0  0  0  0  0  3  0  0  0  0  0  0
  190.3680  176.4520  142.1450 C   0  0  0  0  0  2  0  0  0  0  0  0
  191.6830  178.2480  143.0020 O   0  0  0  0  0  1  0  0  0  0  0  0
  190.7190  177.3020  143.3550 C   0  0  2  0  0  3  0  0  0  0  0  0
  191.2540  176.4090  144.4600 C   0  0  0  0  0  2  0  0  0  0  0  0
  189.2570  177.6380  147.6440 C   0  0  0  0  0  0  0  0  0  0  0  0
  192.5120  176.1050  147.1970 O   0  0  0  0  0  1  0  0  0  0  0  0
  188.2120  178.2230  148.5230 C   0  0  0  0  0  1  0  0  0  0  0  0
  189.1440  177.5060  145.9690 S   0  0  0  0  0  0  0  0  0  0  0  0
  191.2490  176.6530  147.0150 C   0  0  0  0  0  0  0  0  0  0  0  0
  190.6480  176.7810  145.7700 C   0  0  0  0  0  0  0  0  0  0  0  0
  190.4740  177.1290  148.0790 C   0  0  0  0  0  3  0  0  0  0  0  0
  1 14  1  0  0  0  0
  2  3  2  0  0  0  0
  2 13  1  0  0  0  0
  3 19  1  0  0  0  0
  4  7  1  0  0  0  0
  4 11  2  0  0  0  0
  5  2  1  0  0  0  0
  6  1  2  0  0  0  0
  6 17  1  0  0  0  0
  7  3  1  0  0  0  0
  8 13  1  0  0  0  0
  8 21  1  0  0  0  0
  9  1  1  0  0  0  0
 11 15  1  0  0  0  0
 12  8  1  0  0  0  0
 13 18  2  0  0  0  0
 14  5  2  0  0  0  0
 15 20  2  0  0  0  0
 16  5  1  0  0  0  0
 16 12  1  0  0  0  0
 17 16  2  0  0  0  0
 18 10  1  0  0  0  0
 19 20  1  0  0  0  0
 19 10  2  0  0  0  0
 21 23  1  0  0  0  0
 23 22  1  6  0  0  0
 23 24  1  0  0  0  0
 24 30  1  0  0  0  0
 25 31  2  0  0  0  0
 25 27  1  0  0  0  0
 28 25  1  0  0  0  0
 29 26  1  0  0  0  0
 29 31  1  0  0  0  0
 30 28  1  0  0  0  0
 30 29  2  0  0  0  0
M  END
>  <MODEL>
9

>  <REMARK>
 VINA RESULT:      -8.5      3.191      7.367
  Name = 
  4 active torsions:
  status: ('A' for Active; 'I' for Inactive)
    1  A    between atoms: C_3  and  C_9
    2  A    between atoms: C_3  and  C_22
    3  A    between atoms: C_9  and  C_23
    4  A    between atoms: N_15  and  C_23
                            x       y       z     vdW  Elec       q    Type
                         _______ _______ _______ _____ _____    ______ ____

>  <TORSDO>
F 4

$$$$
