=
 OpenBabel11052415423D

 34 39  0  0  1  0  0  0  0  0999 V2000
  182.8600  178.9270  141.7690 C   0  0  2  0  0  3  0  0  0  0  0  0
  183.9020  177.9010  138.4410 C   0  0  0  0  0  3  0  0  0  0  0  0
  182.2260  176.7830  139.8970 C   0  0  0  0  0  2  0  0  0  0  0  0
  180.4970  179.7560  141.5160 C   0  0  0  0  0  3  0  0  0  0  0  0
  178.9310  178.6570  140.0300 C   0  0  0  0  0  3  0  0  0  0  0  0
  179.2220  179.6710  140.9490 C   0  0  0  0  0  3  0  0  0  0  0  0
  181.1940  177.8180  140.2310 C   0  0  0  0  0  0  0  0  0  0  0  0
  181.4840  178.8310  141.1610 C   0  0  0  0  0  0  0  0  0  0  0  0
  179.9140  177.7290  139.6760 C   0  0  0  0  0  3  0  0  0  0  0  0
  185.1180  178.2630  138.0340 C   0  0  0  0  0  3  0  0  0  0  0  0
  186.3370  178.2550  138.8710 C   0  0  0  0  0  0  0  0  0  0  0  0
  186.3520  178.5490  140.1840 C   0  0  0  0  0  3  0  0  0  0  0  0
  183.6430  177.3640  139.8080 C   0  0  2  0  0  3  0  0  0  0  0  0
  185.1890  178.8620  141.0380 C   0  0  0  0  0  3  0  0  0  0  0  0
  183.9500  178.3950  140.8690 C   0  0  0  0  0  0  0  0  0  0  0  0
  187.6340  178.0320  138.1550 C   0  0  1  0  0  3  0  0  0  0  0  0
  187.9090  179.1160  137.2250 N   0  0  0  0  0  1  0  0  0  0  0  0
  188.7840  177.8820  139.1340 C   0  0  0  0  0  1  0  0  0  0  0  0
  182.9440  178.4700  143.1050 O   0  0  0  0  0  0  0  0  0  0  0  0
  183.5690  179.4520  143.8960 C   0  0  0  0  0  2  0  0  0  0  0  0
  183.7820  178.9350  145.3080 C   0  0  0  0  0  2  0  0  0  0  0  0
  187.2530  177.6090  144.5590 C   0  0  0  0  0  3  0  0  0  0  0  0
  185.7830  178.5470  146.7570 C   0  0  0  0  0  3  0  0  0  0  0  0
  189.7870  177.3640  147.2500 C   0  0  0  0  0  0  0  0  0  0  0  0
  189.1830  177.2900  145.9870 C   0  0  0  0  0  3  0  0  0  0  0  0
  187.8520  177.6750  145.8190 C   0  0  0  0  0  0  0  0  0  0  0  0
  187.7190  178.2410  148.1810 C   0  0  0  0  0  3  0  0  0  0  0  0
  187.1120  178.1500  146.9260 C   0  0  0  0  0  0  0  0  0  0  0  0
  189.0540  177.8560  148.3410 C   0  0  0  0  0  3  0  0  0  0  0  0
  185.1870  178.4730  145.4930 C   0  0  0  0  0  0  0  0  0  0  0  0
  185.9230  178.0090  144.3970 C   0  0  0  0  0  3  0  0  0  0  0  0
  191.2330  177.0060  147.4150 C   0  0  0  0  0  3  0  0  0  0  0  0
  191.4160  175.4980  147.3530 C   0  0  0  0  0  2  0  0  0  0  0  0
  191.7660  176.3470  146.1540 C   0  0  0  0  0  2  0  0  0  0  0  0
  1 19  1  1  0  0  0
  3  7  1  0  0  0  0
  5  6  1  0  0  0  0
  6  4  2  0  0  0  0
  7  8  2  0  0  0  0
  8  4  1  0  0  0  0
  8  1  1  0  0  0  0
  9  5  2  0  0  0  0
  9  7  1  0  0  0  0
 10  2  2  0  0  0  0
 10 11  1  0  0  0  0
 11 12  2  0  0  0  0
 12 14  1  0  0  0  0
 13  2  1  6  0  0  0
 13  3  1  0  0  0  0
 13 15  1  0  0  0  0
 15 14  2  0  0  0  0
 15  1  1  0  0  0  0
 16 11  1  0  0  0  0
 16 18  1  1  0  0  0
 17 16  1  0  0  0  0
 19 20  1  0  0  0  0
 20 21  1  0  0  0  0
 21 30  1  0  0  0  0
 22 26  1  0  0  0  0
 23 28  1  0  0  0  0
 24 32  1  0  0  0  0
 24 29  1  0  0  0  0
 25 24  2  0  0  0  0
 26 25  1  0  0  0  0
 26 28  2  0  0  0  0
 27 29  2  0  0  0  0
 28 27  1  0  0  0  0
 30 23  2  0  0  0  0
 31 22  2  0  0  0  0
 31 30  1  0  0  0  0
 33 32  1  0  0  0  0
 34 33  1  0  0  0  0
 34 32  1  0  0  0  0
M  END
>  <MODEL>
1

>  <REMARK>
 VINA RESULT:     -10.6      0.000      0.000
  Name = 
  6 active torsions:
  status: ('A' for Active; 'I' for Inactive)
    1  A    between atoms: C_1  and  O_9
    2  A    between atoms: C_3  and  C_25
    3  A    between atoms: C_7  and  C_11
    4  A    between atoms: C_8  and  O_9
    5  A    between atoms: C_8  and  C_18
    6  A    between atoms: C_18  and  C_30
                            x       y       z     vdW  Elec       q    Type
                         _______ _______ _______ _____ _____    ______ ____

>  <TORSDO>
F 6

$$$$
=
 OpenBabel11052415423D

 34 39  0  0  1  0  0  0  0  0999 V2000
  188.1980  177.6080  144.6780 C   0  0  2  0  0  3  0  0  0  0  0  0
  190.7170  177.3240  142.0720 C   0  0  0  0  0  3  0  0  0  0  0  0
  190.8600  178.6750  144.1540 C   0  0  0  0  0  2  0  0  0  0  0  0
  189.1480  176.4040  146.6750 C   0  0  0  0  0  3  0  0  0  0  0  0
  191.5010  176.5490  147.2300 C   0  0  0  0  0  3  0  0  0  0  0  0
  190.2200  176.0580  147.5010 C   0  0  0  0  0  3  0  0  0  0  0  0
  190.6440  177.7260  145.2940 C   0  0  0  0  0  0  0  0  0  0  0  0
  189.3540  177.2390  145.5720 C   0  0  0  0  0  0  0  0  0  0  0  0
  191.7110  177.3880  146.1300 C   0  0  0  0  0  3  0  0  0  0  0  0
  190.3040  177.0130  140.8440 C   0  0  0  0  0  3  0  0  0  0  0  0
  189.0890  177.5470  140.1900 C   0  0  0  0  0  0  0  0  0  0  0  0
  187.9420  177.8220  140.8400 C   0  0  0  0  0  3  0  0  0  0  0  0
  190.0140  178.3290  142.9220 C   0  0  2  0  0  3  0  0  0  0  0  0
  187.6960  177.7150  142.2920 C   0  0  0  0  0  3  0  0  0  0  0  0
  188.6090  177.8810  143.2510 C   0  0  0  0  0  0  0  0  0  0  0  0
  189.1280  177.6470  138.6960 C   0  0  1  0  0  3  0  0  0  0  0  0
  188.9830  179.0270  138.2620 N   0  0  0  0  0  1  0  0  0  0  0  0
  190.4110  177.0590  138.1390 C   0  0  0  0  0  1  0  0  0  0  0  0
  187.3240  178.5790  145.2210 O   0  0  0  0  0  0  0  0  0  0  0  0
  186.1220  177.9590  145.6090 C   0  0  0  0  0  2  0  0  0  0  0  0
  185.0040  178.9840  145.6940 C   0  0  0  0  0  2  0  0  0  0  0  0
  181.8530  178.8860  143.5880 C   0  0  0  0  0  3  0  0  0  0  0  0
  184.6310  178.7150  143.2350 C   0  0  0  0  0  3  0  0  0  0  0  0
  182.0690  178.5180  139.9090 C   0  0  0  0  0  0  0  0  0  0  0  0
  181.5370  178.6680  141.1970 C   0  0  0  0  0  3  0  0  0  0  0  0
  182.3830  178.7280  142.3050 C   0  0  0  0  0  0  0  0  0  0  0  0
  184.3140  178.5120  140.8420 C   0  0  0  0  0  3  0  0  0  0  0  0
  183.7830  178.6440  142.1270 C   0  0  0  0  0  0  0  0  0  0  0  0
  183.4600  178.4560  139.7360 C   0  0  0  0  0  3  0  0  0  0  0  0
  184.0940  178.8690  144.5180 C   0  0  0  0  0  0  0  0  0  0  0  0
  182.7080  178.9580  144.6930 C   0  0  0  0  0  3  0  0  0  0  0  0
  181.1620  178.5140  138.7150 C   0  0  0  0  0  3  0  0  0  0  0  0
  181.1650  179.8790  138.0440 C   0  0  0  0  0  2  0  0  0  0  0  0
  181.9570  178.7430  137.4410 C   0  0  0  0  0  2  0  0  0  0  0  0
  1 19  1  1  0  0  0
  1  8  1  0  0  0  0
  3  7  1  0  0  0  0
  4  6  1  0  0  0  0
  5  6  2  0  0  0  0
  7  8  1  0  0  0  0
  7  9  2  0  0  0  0
  8  4  2  0  0  0  0
  9  5  1  0  0  0  0
 10  2  2  0  0  0  0
 11 12  2  0  0  0  0
 11 10  1  0  0  0  0
 12 14  1  0  0  0  0
 13  2  1  1  0  0  0
 13 15  1  0  0  0  0
 13  3  1  0  0  0  0
 14 15  2  0  0  0  0
 15  1  1  0  0  0  0
 16 18  1  1  0  0  0
 16 11  1  0  0  0  0
 17 16  1  0  0  0  0
 19 20  1  0  0  0  0
 20 21  1  0  0  0  0
 22 31  1  0  0  0  0
 23 30  1  0  0  0  0
 24 25  2  0  0  0  0
 25 26  1  0  0  0  0
 26 22  2  0  0  0  0
 27 28  1  0  0  0  0
 28 26  1  0  0  0  0
 28 23  2  0  0  0  0
 29 24  1  0  0  0  0
 29 27  2  0  0  0  0
 30 31  2  0  0  0  0
 30 21  1  0  0  0  0
 32 24  1  0  0  0  0
 33 32  1  0  0  0  0
 34 33  1  0  0  0  0
 34 32  1  0  0  0  0
M  END
>  <MODEL>
2

>  <REMARK>
 VINA RESULT:      -9.8      1.887      8.290
  Name = 
  6 active torsions:
  status: ('A' for Active; 'I' for Inactive)
    1  A    between atoms: C_1  and  O_9
    2  A    between atoms: C_3  and  C_25
    3  A    between atoms: C_7  and  C_11
    4  A    between atoms: C_8  and  O_9
    5  A    between atoms: C_8  and  C_18
    6  A    between atoms: C_18  and  C_30
                            x       y       z     vdW  Elec       q    Type
                         _______ _______ _______ _____ _____    ______ ____

>  <TORSDO>
F 6

$$$$
=
 OpenBabel11052415423D

 34 39  0  0  1  0  0  0  0  0999 V2000
  184.2000  179.4550  139.0550 C   0  0  2  0  0  3  0  0  0  0  0  0
  184.0650  177.0810  136.3050 C   0  0  0  0  0  3  0  0  0  0  0  0
  182.4670  177.2710  138.2000 C   0  0  0  0  0  2  0  0  0  0  0  0
  182.2780  181.0370  138.6820 C   0  0  0  0  0  3  0  0  0  0  0  0
  180.1420  180.2480  137.8530 C   0  0  0  0  0  3  0  0  0  0  0  0
  180.9610  181.2950  138.2890 C   0  0  0  0  0  3  0  0  0  0  0  0
  181.9580  178.6810  138.1890 C   0  0  0  0  0  0  0  0  0  0  0  0
  182.7790  179.7320  138.6350 C   0  0  0  0  0  0  0  0  0  0  0  0
  180.6390  178.9420  137.8080 C   0  0  0  0  0  3  0  0  0  0  0  0
  185.2100  176.7690  135.7000 C   0  0  0  0  0  3  0  0  0  0  0  0
  186.5020  176.5400  136.3820 C   0  0  0  0  0  0  0  0  0  0  0  0
  186.9060  177.2110  137.4780 C   0  0  0  0  0  3  0  0  0  0  0  0
  183.9420  177.1670  137.7890 C   0  0  2  0  0  3  0  0  0  0  0  0
  186.1410  178.2240  138.2320 C   0  0  0  0  0  3  0  0  0  0  0  0
  184.8120  178.2700  138.3480 C   0  0  0  0  0  0  0  0  0  0  0  0
  187.4510  175.5950  135.7100 C   0  0  1  0  0  3  0  0  0  0  0  0
  188.5860  176.3080  135.1470 N   0  0  0  0  0  1  0  0  0  0  0  0
  187.9330  174.5250  136.6720 C   0  0  0  0  0  1  0  0  0  0  0  0
  184.4100  179.4620  140.4540 O   0  0  0  0  0  0  0  0  0  0  0  0
  183.6460  178.4370  141.0440 C   0  0  0  0  0  2  0  0  0  0  0  0
  183.0130  178.9280  142.3350 C   0  0  0  0  0  2  0  0  0  0  0  0
  184.3410  178.7300  145.8800 C   0  0  0  0  0  3  0  0  0  0  0  0
  185.2190  178.2070  143.2670 C   0  0  0  0  0  3  0  0  0  0  0  0
  187.7640  177.4750  146.5310 C   0  0  0  0  0  0  0  0  0  0  0  0
  186.4750  177.9810  146.7460 C   0  0  0  0  0  3  0  0  0  0  0  0
  185.6280  178.2320  145.6650 C   0  0  0  0  0  0  0  0  0  0  0  0
  187.3480  177.4450  144.1360 C   0  0  0  0  0  3  0  0  0  0  0  0
  186.0700  177.9670  144.3490 C   0  0  0  0  0  0  0  0  0  0  0  0
  188.1890  177.1930  145.2240 C   0  0  0  0  0  3  0  0  0  0  0  0
  183.9320  178.7110  143.4880 C   0  0  0  0  0  0  0  0  0  0  0  0
  183.4940  178.9670  144.7920 C   0  0  0  0  0  3  0  0  0  0  0  0
  188.6490  177.1490  147.6970 C   0  0  0  0  0  3  0  0  0  0  0  0
  189.4130  178.3860  148.1430 C   0  0  0  0  0  2  0  0  0  0  0  0
  188.2100  177.9210  148.9300 C   0  0  0  0  0  2  0  0  0  0  0  0
  1 19  1  1  0  0  0
  5  6  1  0  0  0  0
  6  4  2  0  0  0  0
  7  3  1  0  0  0  0
  7  8  2  0  0  0  0
  8  4  1  0  0  0  0
  8  1  1  0  0  0  0
  9  5  2  0  0  0  0
  9  7  1  0  0  0  0
 10  2  2  0  0  0  0
 10 11  1  0  0  0  0
 11 12  2  0  0  0  0
 12 14  1  0  0  0  0
 13  2  1  6  0  0  0
 13  3  1  0  0  0  0
 13 15  1  0  0  0  0
 14 15  2  0  0  0  0
 15  1  1  0  0  0  0
 16 11  1  0  0  0  0
 16 18  1  1  0  0  0
 17 16  1  0  0  0  0
 19 20  1  0  0  0  0
 20 21  1  0  0  0  0
 21 30  1  0  0  0  0
 23 30  2  0  0  0  0
 23 28  1  0  0  0  0
 24 25  1  0  0  0  0
 24 32  1  0  0  0  0
 26 22  1  0  0  0  0
 26 25  2  0  0  0  0
 27 28  2  0  0  0  0
 27 29  1  0  0  0  0
 28 26  1  0  0  0  0
 29 24  2  0  0  0  0
 30 31  1  0  0  0  0
 31 22  2  0  0  0  0
 32 33  1  0  0  0  0
 32 34  1  0  0  0  0
 33 34  1  0  0  0  0
M  END
>  <MODEL>
3

>  <REMARK>
 VINA RESULT:      -9.8      1.986      3.085
  Name = 
  6 active torsions:
  status: ('A' for Active; 'I' for Inactive)
    1  A    between atoms: C_1  and  O_9
    2  A    between atoms: C_3  and  C_25
    3  A    between atoms: C_7  and  C_11
    4  A    between atoms: C_8  and  O_9
    5  A    between atoms: C_8  and  C_18
    6  A    between atoms: C_18  and  C_30
                            x       y       z     vdW  Elec       q    Type
                         _______ _______ _______ _____ _____    ______ ____

>  <TORSDO>
F 6

$$$$
=
 OpenBabel11052415423D

 34 39  0  0  1  0  0  0  0  0999 V2000
  182.3440  178.5040  139.3050 C   0  0  2  0  0  3  0  0  0  0  0  0
  180.2020  180.1350  136.8620 C   0  0  0  0  0  3  0  0  0  0  0  0
  181.5410  178.0670  136.5370 C   0  0  0  0  0  2  0  0  0  0  0  0
  181.1720  176.3620  139.9140 C   0  0  0  0  0  3  0  0  0  0  0  0
  180.0020  175.0500  138.2460 C   0  0  0  0  0  3  0  0  0  0  0  0
  180.4090  175.2420  139.5700 C   0  0  0  0  0  3  0  0  0  0  0  0
  181.1090  177.1060  137.6040 C   0  0  0  0  0  0  0  0  0  0  0  0
  181.5260  177.2950  138.9340 C   0  0  0  0  0  0  0  0  0  0  0  0
  180.3570  175.9790  137.2630 C   0  0  0  0  0  3  0  0  0  0  0  0
  179.9890  181.4430  137.0010 C   0  0  0  0  0  3  0  0  0  0  0  0
  181.0130  182.4390  137.3850 C   0  0  0  0  0  0  0  0  0  0  0  0
  182.0130  182.1960  138.2540 C   0  0  0  0  0  3  0  0  0  0  0  0
  181.5540  179.5240  137.0170 C   0  0  2  0  0  3  0  0  0  0  0  0
  182.3190  180.9150  138.9210 C   0  0  0  0  0  3  0  0  0  0  0  0
  182.0780  179.7000  138.4230 C   0  0  0  0  0  0  0  0  0  0  0  0
  180.8170  183.8300  136.8630 C   0  0  1  0  0  3  0  0  0  0  0  0
  181.8820  184.7110  137.3130 N   0  0  0  0  0  1  0  0  0  0  0  0
  180.7370  183.8410  135.3470 C   0  0  0  0  0  1  0  0  0  0  0  0
  183.7180  178.2400  139.5170 O   0  0  0  0  0  0  0  0  0  0  0  0
  184.1750  179.0010  140.6090 C   0  0  0  0  0  2  0  0  0  0  0  0
  183.2660  178.8000  141.8100 C   0  0  0  0  0  2  0  0  0  0  0  0
  184.2540  178.7720  145.4690 C   0  0  0  0  0  3  0  0  0  0  0  0
  185.3590  178.0910  142.9820 C   0  0  0  0  0  3  0  0  0  0  0  0
  187.5720  177.4910  146.5050 C   0  0  0  0  0  0  0  0  0  0  0  0
  186.2800  178.0320  146.5710 C   0  0  0  0  0  3  0  0  0  0  0  0
  185.5440  178.2390  145.4030 C   0  0  0  0  0  0  0  0  0  0  0  0
  187.3790  177.3380  144.0860 C   0  0  0  0  0  3  0  0  0  0  0  0
  186.0990  177.8940  144.1500 C   0  0  0  0  0  0  0  0  0  0  0  0
  188.1100  177.1310  145.2600 C   0  0  0  0  0  3  0  0  0  0  0  0
  184.0690  178.6290  143.0540 C   0  0  0  0  0  0  0  0  0  0  0  0
  183.5170  178.9650  144.2960 C   0  0  0  0  0  3  0  0  0  0  0  0
  188.3360  177.2130  147.7640 C   0  0  0  0  0  3  0  0  0  0  0  0
  189.3030  178.3500  148.0580 C   0  0  0  0  0  2  0  0  0  0  0  0
  188.0060  178.2490  148.8270 C   0  0  0  0  0  2  0  0  0  0  0  0
  1 19  1  6  0  0  0
  2 10  2  0  0  0  0
  2 13  1  0  0  0  0
  3  7  1  0  0  0  0
  5  6  2  0  0  0  0
  6  4  1  0  0  0  0
  7  8  1  0  0  0  0
  8  1  1  0  0  0  0
  8  4  2  0  0  0  0
  9  7  2  0  0  0  0
  9  5  1  0  0  0  0
 10 11  1  0  0  0  0
 11 12  2  0  0  0  0
 12 14  1  0  0  0  0
 13  3  1  1  0  0  0
 13 15  1  0  0  0  0
 15 14  2  0  0  0  0
 15  1  1  0  0  0  0
 16 18  1  6  0  0  0
 16 17  1  0  0  0  0
 16 11  1  0  0  0  0
 19 20  1  0  0  0  0
 20 21  1  0  0  0  0
 21 30  1  0  0  0  0
 23 30  2  0  0  0  0
 23 28  1  0  0  0  0
 24 25  1  0  0  0  0
 24 32  1  0  0  0  0
 26 22  1  0  0  0  0
 26 25  2  0  0  0  0
 27 28  2  0  0  0  0
 27 29  1  0  0  0  0
 28 26  1  0  0  0  0
 29 24  2  0  0  0  0
 30 31  1  0  0  0  0
 31 22  2  0  0  0  0
 32 33  1  0  0  0  0
 32 34  1  0  0  0  0
 33 34  1  0  0  0  0
M  END
>  <MODEL>
4

>  <REMARK>
 VINA RESULT:      -9.7      3.091      4.639
  Name = 
  6 active torsions:
  status: ('A' for Active; 'I' for Inactive)
    1  A    between atoms: C_1  and  O_9
    2  A    between atoms: C_3  and  C_25
    3  A    between atoms: C_7  and  C_11
    4  A    between atoms: C_8  and  O_9
    5  A    between atoms: C_8  and  C_18
    6  A    between atoms: C_18  and  C_30
                            x       y       z     vdW  Elec       q    Type
                         _______ _______ _______ _____ _____    ______ ____

>  <TORSDO>
F 6

$$$$
=
 OpenBabel11052415423D

 34 39  0  0  1  0  0  0  0  0999 V2000
  187.2010  178.1710  138.8140 C   0  0  2  0  0  3  0  0  0  0  0  0
  190.6350  177.0600  139.2500 C   0  0  0  0  0  3  0  0  0  0  0  0
  188.8310  175.8950  137.9990 C   0  0  0  0  0  2  0  0  0  0  0  0
  186.9960  178.8070  136.3870 C   0  0  0  0  0  3  0  0  0  0  0  0
  188.0930  177.5210  134.6520 C   0  0  0  0  0  3  0  0  0  0  0  0
  187.2880  178.5980  135.0360 C   0  0  0  0  0  3  0  0  0  0  0  0
  188.3290  176.8640  136.9720 C   0  0  0  0  0  0  0  0  0  0  0  0
  187.5120  177.9420  137.3570 C   0  0  0  0  0  0  0  0  0  0  0  0
  188.6080  176.6520  135.6190 C   0  0  0  0  0  3  0  0  0  0  0  0
  191.2930  177.4920  140.3250 C   0  0  0  0  0  3  0  0  0  0  0  0
  190.7220  177.6160  141.6840 C   0  0  0  0  0  0  0  0  0  0  0  0
  189.4500  177.9760  141.9370 C   0  0  0  0  0  3  0  0  0  0  0  0
  189.2260  176.5740  139.3160 C   0  0  2  0  0  3  0  0  0  0  0  0
  188.3880  178.2440  140.9460 C   0  0  0  0  0  3  0  0  0  0  0  0
  188.2850  177.6780  139.7420 C   0  0  0  0  0  0  0  0  0  0  0  0
  191.6800  177.4560  142.8250 C   0  0  1  0  0  3  0  0  0  0  0  0
  191.6120  178.5940  143.7260 N   0  0  0  0  0  1  0  0  0  0  0  0
  191.4150  176.1710  143.5880 C   0  0  0  0  0  1  0  0  0  0  0  0
  185.8950  177.7880  139.2010 O   0  0  0  0  0  0  0  0  0  0  0  0
  185.3120  178.8230  139.9560 C   0  0  0  0  0  2  0  0  0  0  0  0
  184.2310  178.2650  140.8680 C   0  0  0  0  0  2  0  0  0  0  0  0
  184.0860  179.1140  144.5590 C   0  0  0  0  0  3  0  0  0  0  0  0
  185.8560  177.9220  142.7380 C   0  0  0  0  0  3  0  0  0  0  0  0
  186.9010  178.2280  146.7980 C   0  0  0  0  0  0  0  0  0  0  0  0
  185.6670  178.7220  146.3520 C   0  0  0  0  0  3  0  0  0  0  0  0
  185.3180  178.6280  145.0030 C   0  0  0  0  0  0  0  0  0  0  0  0
  187.4310  177.5180  144.5350 C   0  0  0  0  0  3  0  0  0  0  0  0
  186.2090  178.0260  144.0860 C   0  0  0  0  0  0  0  0  0  0  0  0
  187.7720  177.6130  145.8870 C   0  0  0  0  0  3  0  0  0  0  0  0
  184.6220  178.4140  142.2990 C   0  0  0  0  0  0  0  0  0  0  0  0
  183.7380  179.0050  143.2090 C   0  0  0  0  0  3  0  0  0  0  0  0
  187.2470  178.2760  148.2560 C   0  0  0  0  0  3  0  0  0  0  0  0
  187.9390  176.9890  148.6780 C   0  0  0  0  0  2  0  0  0  0  0  0
  188.7540  178.2400  148.4470 C   0  0  0  0  0  2  0  0  0  0  0  0
  1 19  1  1  0  0  0
  1 15  1  0  0  0  0
  2 13  1  0  0  0  0
  2 10  2  0  0  0  0
  4  8  1  0  0  0  0
  5  6  1  0  0  0  0
  5  9  2  0  0  0  0
  6  4  2  0  0  0  0
  7  8  2  0  0  0  0
  7  3  1  0  0  0  0
  8  1  1  0  0  0  0
  9  7  1  0  0  0  0
 10 11  1  0  0  0  0
 11 12  2  0  0  0  0
 11 16  1  0  0  0  0
 13  3  1  6  0  0  0
 13 15  1  0  0  0  0
 14 12  1  0  0  0  0
 15 14  2  0  0  0  0
 16 18  1  1  0  0  0
 16 17  1  0  0  0  0
 19 20  1  0  0  0  0
 20 21  1  0  0  0  0
 21 30  1  0  0  0  0
 22 26  1  0  0  0  0
 23 28  1  0  0  0  0
 24 32  1  0  0  0  0
 25 24  1  0  0  0  0
 26 25  2  0  0  0  0
 27 29  1  0  0  0  0
 28 27  2  0  0  0  0
 28 26  1  0  0  0  0
 29 24  2  0  0  0  0
 30 23  2  0  0  0  0
 30 31  1  0  0  0  0
 31 22  2  0  0  0  0
 32 34  1  0  0  0  0
 32 33  1  0  0  0  0
 34 33  1  0  0  0  0
M  END
>  <MODEL>
5

>  <REMARK>
 VINA RESULT:      -9.6      2.721      5.719
  Name = 
  6 active torsions:
  status: ('A' for Active; 'I' for Inactive)
    1  A    between atoms: C_1  and  O_9
    2  A    between atoms: C_3  and  C_25
    3  A    between atoms: C_7  and  C_11
    4  A    between atoms: C_8  and  O_9
    5  A    between atoms: C_8  and  C_18
    6  A    between atoms: C_18  and  C_30
                            x       y       z     vdW  Elec       q    Type
                         _______ _______ _______ _____ _____    ______ ____

>  <TORSDO>
F 6

$$$$
=
 OpenBabel11052415423D

 34 39  0  0  1  0  0  0  0  0999 V2000
  185.2680  177.8100  138.7020 C   0  0  2  0  0  3  0  0  0  0  0  0
  185.1320  175.1730  136.2030 C   0  0  0  0  0  3  0  0  0  0  0  0
  185.8510  177.5270  135.8590 C   0  0  0  0  0  2  0  0  0  0  0  0
  187.7150  178.2510  139.0920 C   0  0  0  0  0  3  0  0  0  0  0  0
  189.3060  178.2160  137.2660 C   0  0  0  0  0  3  0  0  0  0  0  0
  189.0270  178.3800  138.6260 C   0  0  0  0  0  3  0  0  0  0  0  0
  186.9630  177.7800  136.8320 C   0  0  0  0  0  0  0  0  0  0  0  0
  186.6810  177.9530  138.1990 C   0  0  0  0  0  0  0  0  0  0  0  0
  188.2740  177.9220  136.3690 C   0  0  0  0  0  3  0  0  0  0  0  0
  184.2710  174.1760  136.4020 C   0  0  0  0  0  3  0  0  0  0  0  0
  182.8940  174.3260  136.9210 C   0  0  0  0  0  0  0  0  0  0  0  0
  182.5320  175.2340  137.8470 C   0  0  0  0  0  3  0  0  0  0  0  0
  184.7650  176.6020  136.4240 C   0  0  2  0  0  3  0  0  0  0  0  0
  183.3890  176.2690  138.4590 C   0  0  0  0  0  3  0  0  0  0  0  0
  184.4310  176.8650  137.8740 C   0  0  0  0  0  0  0  0  0  0  0  0
  181.8970  173.3040  136.4680 C   0  0  1  0  0  3  0  0  0  0  0  0
  182.1660  172.0090  137.0720 N   0  0  0  0  0  1  0  0  0  0  0  0
  180.4790  173.7420  136.7850 C   0  0  0  0  0  1  0  0  0  0  0  0
  184.6250  179.0340  139.0020 O   0  0  0  0  0  0  0  0  0  0  0  0
  184.8810  179.3780  140.3430 C   0  0  0  0  0  2  0  0  0  0  0  0
  184.0960  178.4730  141.2780 C   0  0  0  0  0  2  0  0  0  0  0  0
  184.7340  178.4740  145.0140 C   0  0  0  0  0  3  0  0  0  0  0  0
  186.1150  177.9050  142.6390 C   0  0  0  0  0  3  0  0  0  0  0  0
  188.0250  177.4270  146.3530 C   0  0  0  0  0  0  0  0  0  0  0  0
  186.6960  177.8720  146.2990 C   0  0  0  0  0  3  0  0  0  0  0  0
  186.0600  178.0380  145.0680 C   0  0  0  0  0  0  0  0  0  0  0  0
  188.0730  177.2890  143.9270 C   0  0  0  0  0  3  0  0  0  0  0  0
  186.7550  177.7490  143.8720 C   0  0  0  0  0  0  0  0  0  0  0  0
  188.7030  177.1210  145.1630 C   0  0  0  0  0  3  0  0  0  0  0  0
  184.7880  178.3470  142.5920 C   0  0  0  0  0  0  0  0  0  0  0  0
  184.0990  178.6270  143.7770 C   0  0  0  0  0  3  0  0  0  0  0  0
  188.6860  177.1910  147.6780 C   0  0  0  0  0  3  0  0  0  0  0  0
  189.2110  178.5000  148.2480 C   0  0  0  0  0  2  0  0  0  0  0  0
  187.9300  177.9060  148.7850 C   0  0  0  0  0  2  0  0  0  0  0  0
  1 19  1  6  0  0  0
  2 10  2  0  0  0  0
  2 13  1  0  0  0  0
  3  7  1  0  0  0  0
  5  6  2  0  0  0  0
  6  4  1  0  0  0  0
  7  8  1  0  0  0  0
  8  1  1  0  0  0  0
  8  4  2  0  0  0  0
  9  7  2  0  0  0  0
  9  5  1  0  0  0  0
 10 11  1  0  0  0  0
 11 12  2  0  0  0  0
 12 14  1  0  0  0  0
 13  3  1  1  0  0  0
 13 15  1  0  0  0  0
 15 14  2  0  0  0  0
 15  1  1  0  0  0  0
 16 18  1  1  0  0  0
 16 11  1  0  0  0  0
 16 17  1  0  0  0  0
 19 20  1  0  0  0  0
 20 21  1  0  0  0  0
 21 30  1  0  0  0  0
 22 26  1  0  0  0  0
 23 28  1  0  0  0  0
 24 32  1  0  0  0  0
 25 24  1  0  0  0  0
 26 25  2  0  0  0  0
 27 29  1  0  0  0  0
 28 27  2  0  0  0  0
 28 26  1  0  0  0  0
 29 24  2  0  0  0  0
 30 23  2  0  0  0  0
 30 31  1  0  0  0  0
 31 22  2  0  0  0  0
 32 33  1  0  0  0  0
 32 34  1  0  0  0  0
 33 34  1  0  0  0  0
M  END
>  <MODEL>
6

>  <REMARK>
 VINA RESULT:      -9.5      2.759      5.547
  Name = 
  6 active torsions:
  status: ('A' for Active; 'I' for Inactive)
    1  A    between atoms: C_1  and  O_9
    2  A    between atoms: C_3  and  C_25
    3  A    between atoms: C_7  and  C_11
    4  A    between atoms: C_8  and  O_9
    5  A    between atoms: C_8  and  C_18
    6  A    between atoms: C_18  and  C_30
                            x       y       z     vdW  Elec       q    Type
                         _______ _______ _______ _____ _____    ______ ____

>  <TORSDO>
F 6

$$$$
=
 OpenBabel11052415423D

 34 39  0  0  1  0  0  0  0  0999 V2000
  184.5620  177.5750  138.4870 C   0  0  2  0  0  3  0  0  0  0  0  0
  182.6840  175.1020  136.5960 C   0  0  0  0  0  3  0  0  0  0  0  0
  183.5630  177.2730  135.7640 C   0  0  0  0  0  2  0  0  0  0  0  0
  186.9030  177.5010  137.5650 C   0  0  0  0  0  3  0  0  0  0  0  0
  187.3130  177.2050  135.1960 C   0  0  0  0  0  3  0  0  0  0  0  0
  187.7960  177.3780  136.4970 C   0  0  0  0  0  3  0  0  0  0  0  0
  185.0390  177.2640  136.0270 C   0  0  0  0  0  0  0  0  0  0  0  0
  185.5240  177.4470  137.3340 C   0  0  0  0  0  0  0  0  0  0  0  0
  185.9360  177.1540  134.9610 C   0  0  0  0  0  3  0  0  0  0  0  0
  181.8710  174.2930  137.2730 C   0  0  0  0  0  3  0  0  0  0  0  0
  181.0020  174.7000  138.3980 C   0  0  0  0  0  0  0  0  0  0  0  0
  181.3380  175.6320  139.3100 C   0  0  0  0  0  3  0  0  0  0  0  0
  182.7590  176.5670  136.8630 C   0  0  2  0  0  3  0  0  0  0  0  0
  182.5650  176.4530  139.3320 C   0  0  0  0  0  3  0  0  0  0  0  0
  183.2600  176.8450  138.2620 C   0  0  0  0  0  0  0  0  0  0  0  0
  179.7400  173.9150  138.5830 C   0  0  1  0  0  3  0  0  0  0  0  0
  179.8650  172.5840  138.0120 N   0  0  0  0  0  1  0  0  0  0  0  0
  179.3630  173.8190  140.0500 C   0  0  0  0  0  1  0  0  0  0  0  0
  184.4050  178.8930  138.9760 O   0  0  0  0  0  0  0  0  0  0  0  0
  185.0210  178.9980  140.2370 C   0  0  0  0  0  2  0  0  0  0  0  0
  183.9900  178.8400  141.3420 C   0  0  0  0  0  2  0  0  0  0  0  0
  184.5740  178.6580  145.0820 C   0  0  0  0  0  3  0  0  0  0  0  0
  185.9620  178.1250  142.7030 C   0  0  0  0  0  3  0  0  0  0  0  0
  187.7950  177.4070  146.4170 C   0  0  0  0  0  0  0  0  0  0  0  0
  186.4890  177.9140  146.3650 C   0  0  0  0  0  3  0  0  0  0  0  0
  185.8780  178.1600  145.1340 C   0  0  0  0  0  0  0  0  0  0  0  0
  187.8720  177.3680  143.9870 C   0  0  0  0  0  3  0  0  0  0  0  0
  186.5770  177.8900  143.9350 C   0  0  0  0  0  0  0  0  0  0  0  0
  188.4760  177.1210  145.2240 C   0  0  0  0  0  3  0  0  0  0  0  0
  184.6570  178.6280  142.6580 C   0  0  0  0  0  0  0  0  0  0  0  0
  183.9640  178.8890  143.8450 C   0  0  0  0  0  3  0  0  0  0  0  0
  188.4260  177.0870  147.7390 C   0  0  0  0  0  3  0  0  0  0  0  0
  189.3770  178.1990  148.1550 C   0  0  0  0  0  2  0  0  0  0  0  0
  188.0090  178.1040  148.7880 C   0  0  0  0  0  2  0  0  0  0  0  0
  1 19  1  6  0  0  0
  2 13  1  0  0  0  0
  2 10  2  0  0  0  0
  3  7  1  0  0  0  0
  5  6  1  0  0  0  0
  6  4  2  0  0  0  0
  7  8  2  0  0  0  0
  8  4  1  0  0  0  0
  8  1  1  0  0  0  0
  9  5  2  0  0  0  0
  9  7  1  0  0  0  0
 10 11  1  0  0  0  0
 11 16  1  0  0  0  0
 11 12  2  0  0  0  0
 12 14  1  0  0  0  0
 13  3  1  6  0  0  0
 13 15  1  0  0  0  0
 15  1  1  0  0  0  0
 15 14  2  0  0  0  0
 16 18  1  1  0  0  0
 17 16  1  0  0  0  0
 19 20  1  0  0  0  0
 20 21  1  0  0  0  0
 21 30  1  0  0  0  0
 22 26  1  0  0  0  0
 23 28  1  0  0  0  0
 24 32  1  0  0  0  0
 25 24  1  0  0  0  0
 26 25  2  0  0  0  0
 27 29  1  0  0  0  0
 28 27  2  0  0  0  0
 28 26  1  0  0  0  0
 29 24  2  0  0  0  0
 30 23  2  0  0  0  0
 30 31  1  0  0  0  0
 31 22  2  0  0  0  0
 32 33  1  0  0  0  0
 32 34  1  0  0  0  0
 33 34  1  0  0  0  0
M  END
>  <MODEL>
7

>  <REMARK>
 VINA RESULT:      -9.5      2.750      5.553
  Name = 
  6 active torsions:
  status: ('A' for Active; 'I' for Inactive)
    1  A    between atoms: C_1  and  O_9
    2  A    between atoms: C_3  and  C_25
    3  A    between atoms: C_7  and  C_11
    4  A    between atoms: C_8  and  O_9
    5  A    between atoms: C_8  and  C_18
    6  A    between atoms: C_18  and  C_30
                            x       y       z     vdW  Elec       q    Type
                         _______ _______ _______ _____ _____    ______ ____

>  <TORSDO>
F 6

$$$$
=
 OpenBabel11052415423D

 34 39  0  0  1  0  0  0  0  0999 V2000
  184.2710  178.8500  139.4510 C   0  0  2  0  0  3  0  0  0  0  0  0
  185.5220  177.5890  136.2780 C   0  0  0  0  0  3  0  0  0  0  0  0
  183.3720  177.0030  137.3810 C   0  0  0  0  0  2  0  0  0  0  0  0
  182.3280  180.3400  138.8710 C   0  0  0  0  0  3  0  0  0  0  0  0
  180.7870  179.7640  137.0930 C   0  0  0  0  0  3  0  0  0  0  0  0
  181.1980  180.6390  138.1030 C   0  0  0  0  0  3  0  0  0  0  0  0
  182.6420  178.2930  137.6040 C   0  0  0  0  0  0  0  0  0  0  0  0
  183.0510  179.1680  138.6260 C   0  0  0  0  0  0  0  0  0  0  0  0
  181.5050  178.5900  136.8480 C   0  0  0  0  0  3  0  0  0  0  0  0
  186.8410  177.5800  136.0930 C   0  0  0  0  0  3  0  0  0  0  0  0
  187.8450  177.2060  137.1130 C   0  0  0  0  0  0  0  0  0  0  0  0
  187.7210  177.4720  138.4260 C   0  0  0  0  0  3  0  0  0  0  0  0
  184.8900  177.1410  137.5540 C   0  0  2  0  0  3  0  0  0  0  0  0
  186.5700  178.1070  139.1000 C   0  0  0  0  0  3  0  0  0  0  0  0
  185.2970  178.0280  138.7080 C   0  0  0  0  0  0  0  0  0  0  0  0
  189.1240  176.6170  136.6010 C   0  0  1  0  0  3  0  0  0  0  0  0
  189.7220  177.4690  135.5870 N   0  0  0  0  0  1  0  0  0  0  0  0
  190.1110  176.3820  137.7310 C   0  0  0  0  0  1  0  0  0  0  0  0
  183.9900  178.3770  140.7550 O   0  0  0  0  0  0  0  0  0  0  0  0
  184.8010  179.0590  141.6810 C   0  0  0  0  0  2  0  0  0  0  0  0
  184.6260  178.4670  143.0700 C   0  0  0  0  0  2  0  0  0  0  0  0
  188.2720  177.4680  143.3490 C   0  0  0  0  0  3  0  0  0  0  0  0
  186.1170  178.0780  145.0390 C   0  0  0  0  0  3  0  0  0  0  0  0
  189.8740  177.1350  146.6720 C   0  0  0  0  0  0  0  0  0  0  0  0
  189.6960  177.1450  145.2810 C   0  0  0  0  0  3  0  0  0  0  0  0
  188.4480  177.4510  144.7350 C   0  0  0  0  0  0  0  0  0  0  0  0
  187.5460  177.7680  146.9710 C   0  0  0  0  0  3  0  0  0  0  0  0
  187.3630  177.7600  145.5860 C   0  0  0  0  0  0  0  0  0  0  0  0
  188.7990  177.4630  147.5110 C   0  0  0  0  0  3  0  0  0  0  0  0
  185.9460  178.0890  143.6510 C   0  0  0  0  0  0  0  0  0  0  0  0
  187.0220  177.7890  142.8080 C   0  0  0  0  0  3  0  0  0  0  0  0
  191.2290  176.8650  147.2540 C   0  0  0  0  0  3  0  0  0  0  0  0
  191.4020  175.3800  147.5280 C   0  0  0  0  0  2  0  0  0  0  0  0
  192.0510  176.0000  146.3130 C   0  0  0  0  0  2  0  0  0  0  0  0
  1 19  1  1  0  0  0
  3 13  1  0  0  0  0
  3  7  1  0  0  0  0
  5  6  1  0  0  0  0
  6  4  2  0  0  0  0
  7  8  2  0  0  0  0
  8  4  1  0  0  0  0
  8  1  1  0  0  0  0
  9  5  2  0  0  0  0
  9  7  1  0  0  0  0
 10  2  2  0  0  0  0
 10 11  1  0  0  0  0
 11 12  2  0  0  0  0
 12 14  1  0  0  0  0
 13  2  1  6  0  0  0
 13 15  1  0  0  0  0
 15 14  2  0  0  0  0
 15  1  1  0  0  0  0
 16 11  1  0  0  0  0
 16 18  1  1  0  0  0
 17 16  1  0  0  0  0
 19 20  1  0  0  0  0
 20 21  1  0  0  0  0
 21 30  1  0  0  0  0
 22 26  1  0  0  0  0
 23 28  1  0  0  0  0
 24 32  1  0  0  0  0
 24 29  1  0  0  0  0
 25 24  2  0  0  0  0
 26 25  1  0  0  0  0
 26 28  2  0  0  0  0
 27 29  2  0  0  0  0
 28 27  1  0  0  0  0
 30 23  2  0  0  0  0
 31 22  2  0  0  0  0
 31 30  1  0  0  0  0
 32 33  1  0  0  0  0
 34 32  1  0  0  0  0
 34 33  1  0  0  0  0
M  END
>  <MODEL>
8

>  <REMARK>
 VINA RESULT:      -9.4      1.891      2.365
  Name = 
  6 active torsions:
  status: ('A' for Active; 'I' for Inactive)
    1  A    between atoms: C_1  and  O_9
    2  A    between atoms: C_3  and  C_25
    3  A    between atoms: C_7  and  C_11
    4  A    between atoms: C_8  and  O_9
    5  A    between atoms: C_8  and  C_18
    6  A    between atoms: C_18  and  C_30
                            x       y       z     vdW  Elec       q    Type
                         _______ _______ _______ _____ _____    ______ ____

>  <TORSDO>
F 6

$$$$
=
 OpenBabel11052415423D

 34 39  0  0  1  0  0  0  0  0999 V2000
  188.6330  178.2700  141.8950 C   0  0  2  0  0  3  0  0  0  0  0  0
  186.0830  178.2030  144.4860 C   0  0  0  0  0  3  0  0  0  0  0  0
  187.8070  176.4700  144.0350 C   0  0  0  0  0  2  0  0  0  0  0  0
  190.8190  178.5920  143.1020 C   0  0  0  0  0  3  0  0  0  0  0  0
  191.2590  177.5040  145.2210 C   0  0  0  0  0  3  0  0  0  0  0  0
  191.6700  178.3460  144.1830 C   0  0  0  0  0  3  0  0  0  0  0  0
  189.1350  177.1600  144.1070 C   0  0  0  0  0  0  0  0  0  0  0  0
  189.5520  178.0000  143.0590 C   0  0  0  0  0  0  0  0  0  0  0  0
  189.9950  176.9070  145.1800 C   0  0  0  0  0  3  0  0  0  0  0  0
  184.9680  178.9000  144.2740 C   0  0  0  0  0  3  0  0  0  0  0  0
  184.2470  178.9880  142.9850 C   0  0  0  0  0  0  0  0  0  0  0  0
  184.8520  179.0030  141.7820 C   0  0  0  0  0  3  0  0  0  0  0  0
  186.7080  177.3530  143.4310 C   0  0  2  0  0  3  0  0  0  0  0  0
  186.2980  178.8700  141.5130 C   0  0  0  0  0  3  0  0  0  0  0  0
  187.1700  178.1870  142.2580 C   0  0  0  0  0  0  0  0  0  0  0  0
  182.7670  179.2080  143.0640 C   0  0  1  0  0  3  0  0  0  0  0  0
  182.0920  178.6370  141.9100 N   0  0  0  0  0  1  0  0  0  0  0  0
  182.1930  178.6280  144.3440 C   0  0  0  0  0  1  0  0  0  0  0  0
  188.9720  177.5780  140.7090 O   0  0  0  0  0  0  0  0  0  0  0  0
  189.0750  178.4960  139.6480 C   0  0  0  0  0  2  0  0  0  0  0  0
  189.0820  177.7650  138.3160 C   0  0  0  0  0  2  0  0  0  0  0  0
  186.1630  175.8450  136.8440 C   0  0  0  0  0  3  0  0  0  0  0  0
  186.6200  178.2040  138.2930 C   0  0  0  0  0  3  0  0  0  0  0  0
  182.6990  177.0890  137.2630 C   0  0  0  0  0  0  0  0  0  0  0  0
  183.7820  176.2830  136.8830 C   0  0  0  0  0  3  0  0  0  0  0  0
  185.0860  176.6520  137.2170 C   0  0  0  0  0  0  0  0  0  0  0  0
  184.2360  178.6330  138.3430 C   0  0  0  0  0  3  0  0  0  0  0  0
  185.3150  177.8400  137.9480 C   0  0  0  0  0  0  0  0  0  0  0  0
  182.9320  178.2560  138.0070 C   0  0  0  0  0  3  0  0  0  0  0  0
  187.6950  177.3940  137.9120 C   0  0  0  0  0  0  0  0  0  0  0  0
  187.4660  176.2150  137.1930 C   0  0  0  0  0  3  0  0  0  0  0  0
  181.2960  176.6600  136.9560 C   0  0  0  0  0  3  0  0  0  0  0  0
  180.7790  175.7260  138.0390 C   0  0  0  0  0  2  0  0  0  0  0  0
  180.3380  177.1700  138.0190 C   0  0  0  0  0  2  0  0  0  0  0  0
  1 19  1  6  0  0  0
  1 15  1  0  0  0  0
  1  8  1  0  0  0  0
  3  7  1  0  0  0  0
  4  6  1  0  0  0  0
  6  5  2  0  0  0  0
  7  9  2  0  0  0  0
  8  4  2  0  0  0  0
  8  7  1  0  0  0  0
  9  5  1  0  0  0  0
 10  2  2  0  0  0  0
 11 16  1  0  0  0  0
 11 10  1  0  0  0  0
 12 11  2  0  0  0  0
 13  3  1  1  0  0  0
 13  2  1  0  0  0  0
 14 12  1  0  0  0  0
 14 15  2  0  0  0  0
 15 13  1  0  0  0  0
 16 18  1  1  0  0  0
 17 16  1  0  0  0  0
 20 19  1  0  0  0  0
 21 20  1  0  0  0  0
 22 31  2  0  0  0  0
 22 26  1  0  0  0  0
 24 29  1  0  0  0  0
 25 26  1  0  0  0  0
 25 24  2  0  0  0  0
 26 28  2  0  0  0  0
 28 23  1  0  0  0  0
 28 27  1  0  0  0  0
 29 27  2  0  0  0  0
 30 23  2  0  0  0  0
 30 21  1  0  0  0  0
 31 30  1  0  0  0  0
 32 24  1  0  0  0  0
 32 34  1  0  0  0  0
 32 33  1  0  0  0  0
 34 33  1  0  0  0  0
M  END
>  <MODEL>
9

>  <REMARK>
 VINA RESULT:      -9.3      2.652      9.170
  Name = 
  6 active torsions:
  status: ('A' for Active; 'I' for Inactive)
    1  A    between atoms: C_1  and  O_9
    2  A    between atoms: C_3  and  C_25
    3  A    between atoms: C_7  and  C_11
    4  A    between atoms: C_8  and  O_9
    5  A    between atoms: C_8  and  C_18
    6  A    between atoms: C_18  and  C_30
                            x       y       z     vdW  Elec       q    Type
                         _______ _______ _______ _____ _____    ______ ____

>  <TORSDO>
F 6

$$$$
