=
 OpenBabel11052416573D

 32 36  0  0  1  0  0  0  0  0999 V2000
  188.1230  177.1300  145.7360 C   0  0  1  0  0  3  0  0  0  0  0  0
  184.9830  178.3650  141.8910 C   0  0  0  0  0  0  0  0  0  0  0  0
  180.6600  178.9540  144.0540 C   0  0  0  0  0  3  0  0  0  0  0  0
  180.0400  178.9770  142.8040 C   0  0  0  0  0  3  0  0  0  0  0  0
  187.0340  178.4420  143.3220 C   0  0  1  0  0  3  0  0  0  0  0  0
  184.9280  178.5180  144.4070 C   0  0  0  0  0  2  0  0  0  0  0  0
  186.8400  177.9700  145.6510 C   0  0  0  0  0  2  0  0  0  0  0  0
  182.0440  178.7900  144.1440 C   0  0  0  0  0  3  0  0  0  0  0  0
  184.2210  178.4800  143.0720 C   0  0  0  0  0  0  0  0  0  0  0  0
  182.8250  178.6490  142.9860 C   0  0  0  0  0  0  0  0  0  0  0  0
  182.9680  178.5430  140.5470 C   0  0  0  0  0  0  0  0  0  0  0  0
  188.7160  176.8340  144.3530 C   0  0  0  0  0  2  0  0  0  0  0  0
  186.1990  177.7980  144.3510 N   0  0  2  0  0  0  0  0  0  0  0  0
  188.5070  178.0020  143.3890 C   0  0  0  0  0  2  0  0  0  0  0  0
  180.8010  178.8400  141.6420 C   0  0  0  0  0  3  0  0  0  0  0  0
  182.1940  178.6750  141.7160 C   0  0  0  0  0  0  0  0  0  0  0  0
  186.4670  178.1350  141.9390 C   0  0  0  0  0  2  0  0  0  0  0  0
  184.3510  178.3820  140.6470 C   0  0  0  0  0  3  0  0  0  0  0  0
  189.1540  177.8360  146.6010 C   0  0  0  0  0  2  0  0  0  0  0  0
  191.3150  176.5870  146.9330 C   0  0  0  0  0  0  0  0  0  0  0  0
  189.9650  176.8570  147.3070 N   0  0  0  0  0  2  0  0  0  0  0  0
  192.0620  175.6110  147.6500 N   0  0  0  0  0  1  0  0  0  0  0  0
  191.8500  177.2010  145.9720 O   0  0  0  0  0  0  0  0  0  0  0  0
  182.3490  178.5280  139.1850 C   0  0  0  0  0  2  0  0  0  0  0  0
  182.3220  177.1650  138.6650 N   0  0  0  0  0  0  0  0  0  0  0  0
  183.6610  176.0060  136.9140 C   0  0  1  0  0  3  0  0  0  0  0  0
  183.8990  175.1800  138.0170 O   0  0  0  0  0  1  0  0  0  0  0  0
  182.7490  177.1870  137.2640 C   0  0  2  0  0  3  0  0  0  0  0  0
  184.2540  177.3720  137.1760 C   0  0  0  0  0  2  0  0  0  0  0  0
  180.9540  176.6370  138.7640 C   0  0  0  0  0  2  0  0  0  0  0  0
  180.7970  175.5380  139.8150 C   0  0  0  0  0  2  0  0  0  0  0  0
  179.4390  175.6580  140.4710 C   0  0  0  0  0  1  0  0  0  0  0  0
  1 19  1  1  0  0  0
  2 17  1  0  0  0  0
  2  9  1  0  0  0  0
  3  8  2  0  0  0  0
  4  3  1  0  0  0  0
  5 17  1  6  0  0  0
  5 14  1  0  0  0  0
  5 13  1  0  0  0  0
  7  1  1  0  0  0  0
  9  6  1  0  0  0  0
 10  9  2  0  0  0  0
 10  8  1  0  0  0  0
 11 18  1  0  0  0  0
 11 16  2  0  0  0  0
 12  1  1  0  0  0  0
 13  6  1  1  0  0  0
 13  7  1  0  0  0  0
 14 12  1  0  0  0  0
 15 16  1  0  0  0  0
 15  4  2  0  0  0  0
 16 10  1  0  0  0  0
 18  2  2  0  0  0  0
 19 21  1  0  0  0  0
 20 21  1  0  0  0  0
 20 22  1  0  0  0  0
 23 20  2  0  0  0  0
 24 11  1  0  0  0  0
 25 30  1  0  0  0  0
 25 24  1  0  0  0  0
 26 29  1  0  0  0  0
 26 28  1  0  0  0  0
 26 27  1  1  0  0  0
 28 25  1  1  0  0  0
 29 28  1  0  0  0  0
 30 31  1  0  0  0  0
 31 32  1  0  0  0  0
M  END
>  <MODEL>
1

>  <REMARK>
 VINA RESULT:      -7.7      0.000      0.000
  Name = 
  7 active torsions:
  status: ('A' for Active; 'I' for Inactive)
    1  A    between atoms: C_2  and  C_24
    2  A    between atoms: C_6  and  C_7
    3  A    between atoms: C_7  and  N_32
    4  A    between atoms: N_10  and  C_24
    5  A    between atoms: C_16  and  C_27
    6  A    between atoms: C_22  and  N_32
    7  A    between atoms: C_27  and  N_32
                            x       y       z     vdW  Elec       q    Type
                         _______ _______ _______ _____ _____    ______ ____

>  <TORSDO>
F 7

$$$$
=
 OpenBabel11052416573D

 32 36  0  0  1  0  0  0  0  0999 V2000
  181.2650  178.9560  140.1650 C   0  0  1  0  0  3  0  0  0  0  0  0
  185.6070  178.0960  142.7310 C   0  0  0  0  0  0  0  0  0  0  0  0
  189.0410  178.1800  139.2800 C   0  0  0  0  0  3  0  0  0  0  0  0
  189.9640  177.6580  140.1880 C   0  0  0  0  0  3  0  0  0  0  0  0
  183.3910  179.1360  142.2100 C   0  0  1  0  0  3  0  0  0  0  0  0
  184.9820  178.9930  140.4590 C   0  0  0  0  0  2  0  0  0  0  0  0
  182.7260  179.3670  139.9320 C   0  0  0  0  0  2  0  0  0  0  0  0
  187.7240  178.4160  139.6790 C   0  0  0  0  0  3  0  0  0  0  0  0
  185.9850  178.3670  141.3990 C   0  0  0  0  0  0  0  0  0  0  0  0
  187.3130  178.1330  140.9920 C   0  0  0  0  0  0  0  0  0  0  0  0
  187.8530  177.3260  143.2360 C   0  0  0  0  0  0  0  0  0  0  0  0
  181.0330  178.4150  141.5810 C   0  0  0  0  0  2  0  0  0  0  0  0
  183.6140  178.6450  140.8390 N   0  0  2  0  0  0  0  0  0  0  0  0
  181.9050  179.1340  142.6090 C   0  0  0  0  0  2  0  0  0  0  0  0
  189.5720  177.3730  141.4970 C   0  0  0  0  0  3  0  0  0  0  0  0
  188.2520  177.6050  141.9150 C   0  0  0  0  0  0  0  0  0  0  0  0
  184.1890  178.2840  143.1930 C   0  0  0  0  0  2  0  0  0  0  0  0
  186.5350  177.5670  143.6280 C   0  0  0  0  0  3  0  0  0  0  0  0
  180.3420  180.1340  139.9030 C   0  0  0  0  0  2  0  0  0  0  0  0
  180.2880  182.2220  138.4960 C   0  0  0  0  0  0  0  0  0  0  0  0
  180.9410  181.0290  138.9260 N   0  0  0  0  0  2  0  0  0  0  0  0
  180.9130  183.0570  137.5290 N   0  0  0  0  0  1  0  0  0  0  0  0
  179.1620  182.5410  138.9630 O   0  0  0  0  0  0  0  0  0  0  0  0
  188.7930  176.7350  144.2380 C   0  0  0  0  0  2  0  0  0  0  0  0
  189.2970  177.7790  145.1250 N   0  0  0  0  0  0  0  0  0  0  0  0
  191.6880  178.3720  144.7670 C   0  0  1  0  0  3  0  0  0  0  0  0
  191.0610  179.2850  143.9140 O   0  0  0  0  0  1  0  0  0  0  0  0
  190.6820  177.4650  145.4830 C   0  0  2  0  0  3  0  0  0  0  0  0
  191.4390  176.9670  144.2640 C   0  0  0  0  0  2  0  0  0  0  0  0
  188.4650  177.8270  146.3370 C   0  0  0  0  0  2  0  0  0  0  0  0
  189.2420  177.5430  147.6220 C   0  0  0  0  0  2  0  0  0  0  0  0
  188.5130  178.1560  148.7980 C   0  0  0  0  0  1  0  0  0  0  0  0
  1 19  1  1  0  0  0
  1 12  1  0  0  0  0
  2 17  1  0  0  0  0
  2 18  1  0  0  0  0
  3  8  2  0  0  0  0
  3  4  1  0  0  0  0
  4 15  2  0  0  0  0
  5 14  1  1  0  0  0
  5 17  1  0  0  0  0
  6 13  1  0  0  0  0
  6  9  1  0  0  0  0
  7  1  1  0  0  0  0
  8 10  1  0  0  0  0
  9  2  2  0  0  0  0
 10  9  1  0  0  0  0
 10 16  2  0  0  0  0
 11 18  2  0  0  0  0
 11 24  1  0  0  0  0
 12 14  1  0  0  0  0
 13  7  1  6  0  0  0
 13  5  1  0  0  0  0
 15 16  1  0  0  0  0
 16 11  1  0  0  0  0
 20 21  1  0  0  0  0
 20 23  2  0  0  0  0
 21 19  1  0  0  0  0
 22 20  1  0  0  0  0
 24 25  1  0  0  0  0
 25 30  1  0  0  0  0
 26 27  1  6  0  0  0
 26 28  1  0  0  0  0
 28 25  1  6  0  0  0
 29 26  1  0  0  0  0
 29 28  1  0  0  0  0
 30 31  1  0  0  0  0
 31 32  1  0  0  0  0
M  END
>  <MODEL>
2

>  <REMARK>
 VINA RESULT:      -7.7      2.838      9.410
  Name = 
  7 active torsions:
  status: ('A' for Active; 'I' for Inactive)
    1  A    between atoms: C_2  and  C_24
    2  A    between atoms: C_6  and  C_7
    3  A    between atoms: C_7  and  N_32
    4  A    between atoms: N_10  and  C_24
    5  A    between atoms: C_16  and  C_27
    6  A    between atoms: C_22  and  N_32
    7  A    between atoms: C_27  and  N_32
                            x       y       z     vdW  Elec       q    Type
                         _______ _______ _______ _____ _____    ______ ____

>  <TORSDO>
F 7

$$$$
=
 OpenBabel11052416573D

 32 36  0  0  1  0  0  0  0  0999 V2000
  188.9030  177.8860  146.7110 C   0  0  1  0  0  3  0  0  0  0  0  0
  186.0050  178.2400  142.5090 C   0  0  0  0  0  0  0  0  0  0  0  0
  189.2000  177.8760  138.8520 C   0  0  0  0  0  3  0  0  0  0  0  0
  188.2130  178.2810  137.9520 C   0  0  0  0  0  3  0  0  0  0  0  0
  186.7150  177.4450  144.7740 C   0  0  1  0  0  3  0  0  0  0  0  0
  188.3410  177.4600  143.0500 C   0  0  0  0  0  2  0  0  0  0  0  0
  189.0410  177.3320  145.2850 C   0  0  0  0  0  2  0  0  0  0  0  0
  188.9040  177.7690  140.2130 C   0  0  0  0  0  3  0  0  0  0  0  0
  187.3140  177.9600  142.0620 C   0  0  0  0  0  0  0  0  0  0  0  0
  187.6170  178.0640  140.6900 C   0  0  0  0  0  0  0  0  0  0  0  0
  185.3170  178.7640  140.2400 C   0  0  0  0  0  0  0  0  0  0  0  0
  187.4920  178.4180  146.9920 C   0  0  0  0  0  2  0  0  0  0  0  0
  188.0520  177.9390  144.4000 N   0  0  2  0  0  0  0  0  0  0  0  0
  186.4240  177.5910  146.2770 C   0  0  0  0  0  2  0  0  0  0  0  0
  186.9280  178.5770  138.4090 C   0  0  0  0  0  3  0  0  0  0  0  0
  186.6140  178.4730  139.7740 C   0  0  0  0  0  0  0  0  0  0  0  0
  185.6530  178.1890  143.9690 C   0  0  0  0  0  2  0  0  0  0  0  0
  185.0290  178.6520  141.6020 C   0  0  0  0  0  3  0  0  0  0  0  0
  189.2640  176.8150  147.7260 C   0  0  0  0  0  2  0  0  0  0  0  0
  191.6970  176.2090  147.4890 C   0  0  0  0  0  0  0  0  0  0  0  0
  190.3210  175.9660  147.1990 N   0  0  0  0  0  2  0  0  0  0  0  0
  192.6930  175.3550  146.9400 N   0  0  0  0  0  1  0  0  0  0  0  0
  192.0370  177.1740  148.2240 O   0  0  0  0  0  0  0  0  0  0  0  0
  184.2330  179.2340  139.3230 C   0  0  0  0  0  2  0  0  0  0  0  0
  183.0500  178.3940  139.4790 N   0  0  0  0  0  0  0  0  0  0  0  0
  182.5220  176.3170  138.2100 C   0  0  1  0  0  3  0  0  0  0  0  0
  182.7700  175.7910  139.4820 O   0  0  0  0  0  1  0  0  0  0  0  0
  182.6900  177.8400  138.1710 C   0  0  2  0  0  3  0  0  0  0  0  0
  183.7940  176.9280  137.6660 C   0  0  0  0  0  2  0  0  0  0  0  0
  181.9430  179.2090  139.9990 C   0  0  0  0  0  2  0  0  0  0  0  0
  181.1020  178.4950  141.0570 C   0  0  0  0  0  2  0  0  0  0  0  0
  181.5560  178.9230  142.4350 C   0  0  0  0  0  1  0  0  0  0  0  0
  1 12  1  0  0  0  0
  1 19  1  1  0  0  0
  2 17  1  0  0  0  0
  3  8  2  0  0  0  0
  4 15  2  0  0  0  0
  4  3  1  0  0  0  0
  5 17  1  6  0  0  0
  5 14  1  0  0  0  0
  7  1  1  0  0  0  0
  8 10  1  0  0  0  0
  9  2  1  0  0  0  0
  9  6  1  0  0  0  0
 10  9  2  0  0  0  0
 11 18  1  0  0  0  0
 13  6  1  6  0  0  0
 13  5  1  0  0  0  0
 13  7  1  0  0  0  0
 14 12  1  0  0  0  0
 15 16  1  0  0  0  0
 16 11  2  0  0  0  0
 16 10  1  0  0  0  0
 18  2  2  0  0  0  0
 20 23  2  0  0  0  0
 21 20  1  0  0  0  0
 21 19  1  0  0  0  0
 22 20  1  0  0  0  0
 24 25  1  0  0  0  0
 24 11  1  0  0  0  0
 25 30  1  0  0  0  0
 26 27  1  1  0  0  0
 28 26  1  0  0  0  0
 28 25  1  1  0  0  0
 29 28  1  0  0  0  0
 29 26  1  0  0  0  0
 30 31  1  0  0  0  0
 31 32  1  0  0  0  0
M  END
>  <MODEL>
3

>  <REMARK>
 VINA RESULT:      -7.6      1.761      3.938
  Name = 
  7 active torsions:
  status: ('A' for Active; 'I' for Inactive)
    1  A    between atoms: C_2  and  C_24
    2  A    between atoms: C_6  and  C_7
    3  A    between atoms: C_7  and  N_32
    4  A    between atoms: N_10  and  C_24
    5  A    between atoms: C_16  and  C_27
    6  A    between atoms: C_22  and  N_32
    7  A    between atoms: C_27  and  N_32
                            x       y       z     vdW  Elec       q    Type
                         _______ _______ _______ _____ _____    ______ ____

>  <TORSDO>
F 7

$$$$
=
 OpenBabel11052416573D

 32 36  0  0  1  0  0  0  0  0999 V2000
  187.5640  177.0980  144.2370 C   0  0  1  0  0  3  0  0  0  0  0  0
  183.7440  178.7470  141.2600 C   0  0  0  0  0  0  0  0  0  0  0  0
  179.9020  178.8730  144.2500 C   0  0  0  0  0  3  0  0  0  0  0  0
  179.0570  179.0490  143.1530 C   0  0  0  0  0  3  0  0  0  0  0  0
  186.0280  178.6950  142.2820 C   0  0  1  0  0  3  0  0  0  0  0  0
  184.1640  178.5440  143.7380 C   0  0  0  0  0  2  0  0  0  0  0  0
  186.2810  177.8950  144.5140 C   0  0  0  0  0  2  0  0  0  0  0  0
  181.2800  178.7480  144.0570 C   0  0  0  0  0  3  0  0  0  0  0  0
  183.2180  178.6680  142.5670 C   0  0  0  0  0  0  0  0  0  0  0  0
  181.8290  178.7970  142.7670 C   0  0  0  0  0  0  0  0  0  0  0  0
  181.5100  179.0390  140.3540 C   0  0  0  0  0  0  0  0  0  0  0  0
  187.8870  177.0200  142.7400 C   0  0  0  0  0  2  0  0  0  0  0  0
  185.4070  177.8840  143.3440 N   0  0  2  0  0  0  0  0  0  0  0  0
  187.4900  178.3020  142.0090 C   0  0  0  0  0  2  0  0  0  0  0  0
  179.5870  179.1030  141.8630 C   0  0  0  0  0  3  0  0  0  0  0  0
  180.9690  178.9790  141.6530 C   0  0  0  0  0  0  0  0  0  0  0  0
  185.2120  178.5650  140.9980 C   0  0  0  0  0  2  0  0  0  0  0  0
  182.8890  178.9140  140.1700 C   0  0  0  0  0  3  0  0  0  0  0  0
  188.7330  177.7120  144.9880 C   0  0  0  0  0  2  0  0  0  0  0  0
  188.9160  177.5480  147.4940 C   0  0  0  0  0  0  0  0  0  0  0  0
  188.3160  178.1030  146.3250 N   0  0  0  0  0  2  0  0  0  0  0  0
  188.4640  177.9570  148.7790 N   0  0  0  0  0  1  0  0  0  0  0  0
  189.8400  176.6970  147.3990 O   0  0  0  0  0  0  0  0  0  0  0  0
  180.6450  179.1930  139.1430 C   0  0  0  0  0  2  0  0  0  0  0  0
  180.7060  177.9820  138.3300 N   0  0  0  0  0  0  0  0  0  0  0  0
  181.6390  178.2320  136.0350 C   0  0  1  0  0  3  0  0  0  0  0  0
  182.7820  177.8470  136.7420 O   0  0  0  0  0  1  0  0  0  0  0  0
  180.4060  178.3330  136.9400 C   0  0  2  0  0  3  0  0  0  0  0  0
  181.1720  179.5800  136.5360 C   0  0  0  0  0  2  0  0  0  0  0  0
  179.7170  177.0160  138.8280 C   0  0  0  0  0  2  0  0  0  0  0  0
  180.3320  175.8710  139.6320 C   0  0  0  0  0  2  0  0  0  0  0  0
  181.7250  175.5830  139.1160 C   0  0  0  0  0  1  0  0  0  0  0  0
  1  7  1  0  0  0  0
  1 19  1  1  0  0  0
  2  9  1  0  0  0  0
  4  3  1  0  0  0  0
  5 17  1  6  0  0  0
  5 13  1  0  0  0  0
  8  3  2  0  0  0  0
  9 10  2  0  0  0  0
  9  6  1  0  0  0  0
 10  8  1  0  0  0  0
 11 16  2  0  0  0  0
 12  1  1  0  0  0  0
 13  6  1  1  0  0  0
 13  7  1  0  0  0  0
 14  5  1  0  0  0  0
 14 12  1  0  0  0  0
 15  4  2  0  0  0  0
 16 15  1  0  0  0  0
 16 10  1  0  0  0  0
 17  2  1  0  0  0  0
 18 11  1  0  0  0  0
 18  2  2  0  0  0  0
 19 21  1  0  0  0  0
 20 22  1  0  0  0  0
 21 20  1  0  0  0  0
 23 20  2  0  0  0  0
 24 11  1  0  0  0  0
 25 30  1  0  0  0  0
 25 24  1  0  0  0  0
 26 29  1  0  0  0  0
 26 27  1  1  0  0  0
 26 28  1  0  0  0  0
 28 25  1  1  0  0  0
 29 28  1  0  0  0  0
 30 31  1  0  0  0  0
 32 31  1  0  0  0  0
M  END
>  <MODEL>
4

>  <REMARK>
 VINA RESULT:      -7.5      1.736      2.026
  Name = 
  7 active torsions:
  status: ('A' for Active; 'I' for Inactive)
    1  A    between atoms: C_2  and  C_24
    2  A    between atoms: C_6  and  C_7
    3  A    between atoms: C_7  and  N_32
    4  A    between atoms: N_10  and  C_24
    5  A    between atoms: C_16  and  C_27
    6  A    between atoms: C_22  and  N_32
    7  A    between atoms: C_27  and  N_32
                            x       y       z     vdW  Elec       q    Type
                         _______ _______ _______ _____ _____    ______ ____

>  <TORSDO>
F 7

$$$$
=
 OpenBabel11052416573D

 32 36  0  0  1  0  0  0  0  0999 V2000
  189.8810  176.7380  144.5080 C   0  0  1  0  0  3  0  0  0  0  0  0
  186.1510  178.4150  141.4330 C   0  0  0  0  0  0  0  0  0  0  0  0
  182.2860  178.7760  144.3740 C   0  0  0  0  0  3  0  0  0  0  0  0
  181.4580  178.9440  143.2620 C   0  0  0  0  0  3  0  0  0  0  0  0
  188.4210  178.3190  142.4820 C   0  0  1  0  0  3  0  0  0  0  0  0
  186.5380  178.2830  143.9210 C   0  0  0  0  0  2  0  0  0  0  0  0
  188.6240  177.5880  144.7430 C   0  0  0  0  0  2  0  0  0  0  0  0
  183.6600  178.5960  144.2010 C   0  0  0  0  0  3  0  0  0  0  0  0
  185.6090  178.3990  142.7360 C   0  0  0  0  0  0  0  0  0  0  0  0
  184.2240  178.5830  142.9160 C   0  0  0  0  0  0  0  0  0  0  0  0
  183.9380  178.7530  140.4920 C   0  0  0  0  0  0  0  0  0  0  0  0
  190.2160  176.5970  143.0180 C   0  0  0  0  0  2  0  0  0  0  0  0
  187.7620  177.5670  143.5640 N   0  0  2  0  0  0  0  0  0  0  0  0
  189.8720  177.8670  142.2400 C   0  0  0  0  0  2  0  0  0  0  0  0
  182.0030  178.9350  141.9760 C   0  0  0  0  0  3  0  0  0  0  0  0
  183.3820  178.7560  141.7860 C   0  0  0  0  0  0  0  0  0  0  0  0
  187.6150  178.1730  141.1950 C   0  0  0  0  0  2  0  0  0  0  0  0
  185.3130  178.5740  140.3290 C   0  0  0  0  0  3  0  0  0  0  0  0
  191.0630  177.3360  145.2500 C   0  0  0  0  0  2  0  0  0  0  0  0
  192.0690  176.3050  147.3160 C   0  0  0  0  0  0  0  0  0  0  0  0
  191.8200  176.2850  145.9110 N   0  0  0  0  0  2  0  0  0  0  0  0
  192.8240  175.2560  147.9110 N   0  0  0  0  0  1  0  0  0  0  0  0
  191.6300  177.2430  148.0320 O   0  0  0  0  0  0  0  0  0  0  0  0
  183.0920  178.8950  139.2670 C   0  0  0  0  0  2  0  0  0  0  0  0
  182.8070  177.5790  138.7030 N   0  0  0  0  0  0  0  0  0  0  0  0
  183.8260  176.2730  136.8440 C   0  0  1  0  0  3  0  0  0  0  0  0
  183.9500  175.3660  137.9010 O   0  0  0  0  0  1  0  0  0  0  0  0
  183.1710  177.5870  137.2840 C   0  0  2  0  0  3  0  0  0  0  0  0
  184.6780  177.4900  137.1280 C   0  0  0  0  0  2  0  0  0  0  0  0
  181.3730  177.2900  138.8510 C   0  0  0  0  0  2  0  0  0  0  0  0
  181.0820  176.0940  139.7570 C   0  0  0  0  0  2  0  0  0  0  0  0
  179.7890  176.3330  140.5080 C   0  0  0  0  0  1  0  0  0  0  0  0
  1  7  1  0  0  0  0
  1 19  1  1  0  0  0
  2  9  1  0  0  0  0
  4  3  1  0  0  0  0
  5 17  1  6  0  0  0
  5 13  1  0  0  0  0
  8  3  2  0  0  0  0
  9 10  2  0  0  0  0
  9  6  1  0  0  0  0
 10  8  1  0  0  0  0
 11 16  2  0  0  0  0
 12  1  1  0  0  0  0
 13  6  1  1  0  0  0
 13  7  1  0  0  0  0
 14  5  1  0  0  0  0
 14 12  1  0  0  0  0
 15  4  2  0  0  0  0
 16 15  1  0  0  0  0
 16 10  1  0  0  0  0
 17  2  1  0  0  0  0
 18 11  1  0  0  0  0
 18  2  2  0  0  0  0
 19 21  1  0  0  0  0
 20 22  1  0  0  0  0
 20 23  2  0  0  0  0
 21 20  1  0  0  0  0
 24 11  1  0  0  0  0
 25 30  1  0  0  0  0
 25 24  1  0  0  0  0
 26 29  1  0  0  0  0
 26 28  1  0  0  0  0
 26 27  1  1  0  0  0
 28 25  1  1  0  0  0
 29 28  1  0  0  0  0
 30 31  1  0  0  0  0
 31 32  1  0  0  0  0
M  END
>  <MODEL>
5

>  <REMARK>
 VINA RESULT:      -7.5      1.124      1.432
  Name = 
  7 active torsions:
  status: ('A' for Active; 'I' for Inactive)
    1  A    between atoms: C_2  and  C_24
    2  A    between atoms: C_6  and  C_7
    3  A    between atoms: C_7  and  N_32
    4  A    between atoms: N_10  and  C_24
    5  A    between atoms: C_16  and  C_27
    6  A    between atoms: C_22  and  N_32
    7  A    between atoms: C_27  and  N_32
                            x       y       z     vdW  Elec       q    Type
                         _______ _______ _______ _____ _____    ______ ____

>  <TORSDO>
F 7

$$$$
=
 OpenBabel11052416573D

 32 36  0  0  1  0  0  0  0  0999 V2000
  187.6130  178.9980  136.8430 C   0  0  1  0  0  3  0  0  0  0  0  0
  188.1860  177.4960  141.7000 C   0  0  0  0  0  0  0  0  0  0  0  0
  184.1050  179.0130  143.8820 C   0  0  0  0  0  3  0  0  0  0  0  0
  184.6730  178.7410  145.1280 C   0  0  0  0  0  3  0  0  0  0  0  0
  188.1870  177.3160  139.2030 C   0  0  1  0  0  3  0  0  0  0  0  0
  186.2730  178.2530  140.2410 C   0  0  0  0  0  2  0  0  0  0  0  0
  186.6230  178.6050  137.9480 C   0  0  0  0  0  2  0  0  0  0  0  0
  184.8360  178.7780  142.7140 C   0  0  0  0  0  3  0  0  0  0  0  0
  186.8840  178.0320  141.6050 C   0  0  0  0  0  0  0  0  0  0  0  0
  186.1420  178.2680  142.7790 C   0  0  0  0  0  0  0  0  0  0  0  0
  188.0240  177.4690  144.1220 C   0  0  0  0  0  0  0  0  0  0  0  0
  189.0550  178.6030  137.1870 C   0  0  0  0  0  2  0  0  0  0  0  0
  187.3050  178.4950  139.2340 N   0  0  2  0  0  0  0  0  0  0  0  0
  189.1080  177.2920  137.9710 C   0  0  0  0  0  2  0  0  0  0  0  0
  185.9700  178.2320  145.2100 C   0  0  0  0  0  3  0  0  0  0  0  0
  186.7170  177.9900  144.0460 C   0  0  0  0  0  0  0  0  0  0  0  0
  189.0290  177.2750  140.4760 C   0  0  0  0  0  2  0  0  0  0  0  0
  188.7460  177.2360  142.9500 C   0  0  0  0  0  3  0  0  0  0  0  0
  187.2040  178.3660  135.5230 C   0  0  0  0  0  2  0  0  0  0  0  0
  186.5980  175.9210  135.5320 C   0  0  0  0  0  0  0  0  0  0  0  0
  186.2580  177.2870  135.7610 N   0  0  0  0  0  2  0  0  0  0  0  0
  185.6320  174.9050  135.7700 N   0  0  0  0  0  1  0  0  0  0  0  0
  187.7460  175.6070  135.1170 O   0  0  0  0  0  0  0  0  0  0  0  0
  188.6900  177.1920  145.4320 C   0  0  0  0  0  2  0  0  0  0  0  0
  190.1210  177.4590  145.3290 N   0  0  0  0  0  0  0  0  0  0  0  0
  191.8060  176.3780  146.8110 C   0  0  1  0  0  3  0  0  0  0  0  0
  191.9990  175.6600  145.6260 O   0  0  0  0  0  1  0  0  0  0  0  0
  190.7020  177.4320  146.6740 C   0  0  2  0  0  3  0  0  0  0  0  0
  190.4180  176.0990  147.3430 C   0  0  0  0  0  2  0  0  0  0  0  0
  190.3250  178.7810  144.7220 C   0  0  0  0  0  2  0  0  0  0  0  0
  191.6840  178.9380  144.0400 C   0  0  0  0  0  2  0  0  0  0  0  0
  191.8380  177.8740  142.9740 C   0  0  0  0  0  1  0  0  0  0  0  0
  1 19  1  6  0  0  0
  1 12  1  0  0  0  0
  1  7  1  0  0  0  0
  2 18  1  0  0  0  0
  3  4  1  0  0  0  0
  4 15  2  0  0  0  0
  5 14  1  6  0  0  0
  5 13  1  0  0  0  0
  5 17  1  0  0  0  0
  6  9  1  0  0  0  0
  8 10  1  0  0  0  0
  8  3  2  0  0  0  0
  9  2  2  0  0  0  0
  9 10  1  0  0  0  0
 10 16  2  0  0  0  0
 11 24  1  0  0  0  0
 12 14  1  0  0  0  0
 13  7  1  6  0  0  0
 13  6  1  0  0  0  0
 16 11  1  0  0  0  0
 16 15  1  0  0  0  0
 17  2  1  0  0  0  0
 18 11  2  0  0  0  0
 19 21  1  0  0  0  0
 20 21  1  0  0  0  0
 20 22  1  0  0  0  0
 23 20  2  0  0  0  0
 25 24  1  0  0  0  0
 26 27  1  6  0  0  0
 26 29  1  0  0  0  0
 28 25  1  6  0  0  0
 28 26  1  0  0  0  0
 28 29  1  0  0  0  0
 30 25  1  0  0  0  0
 31 30  1  0  0  0  0
 32 31  1  0  0  0  0
M  END
>  <MODEL>
6

>  <REMARK>
 VINA RESULT:      -7.4      3.207      8.790
  Name = 
  7 active torsions:
  status: ('A' for Active; 'I' for Inactive)
    1  A    between atoms: C_2  and  C_24
    2  A    between atoms: C_6  and  C_7
    3  A    between atoms: C_7  and  N_32
    4  A    between atoms: N_10  and  C_24
    5  A    between atoms: C_16  and  C_27
    6  A    between atoms: C_22  and  N_32
    7  A    between atoms: C_27  and  N_32
                            x       y       z     vdW  Elec       q    Type
                         _______ _______ _______ _____ _____    ______ ____

>  <TORSDO>
F 7

$$$$
=
 OpenBabel11052416573D

 32 36  0  0  1  0  0  0  0  0999 V2000
  190.2940  176.7520  140.2260 C   0  0  1  0  0  3  0  0  0  0  0  0
  185.5300  178.5530  140.7110 C   0  0  0  0  0  0  0  0  0  0  0  0
  184.7940  178.6310  145.5250 C   0  0  0  0  0  3  0  0  0  0  0  0
  183.4330  178.8560  145.3110 C   0  0  0  0  0  3  0  0  0  0  0  0
  187.8890  178.4350  139.8840 C   0  0  1  0  0  3  0  0  0  0  0  0
  187.5280  178.2610  142.2200 C   0  0  0  0  0  2  0  0  0  0  0  0
  189.5780  177.5570  141.3200 C   0  0  0  0  0  2  0  0  0  0  0  0
  185.6590  178.4930  144.4360 C   0  0  0  0  0  3  0  0  0  0  0  0
  186.0410  178.4370  142.0210 C   0  0  0  0  0  0  0  0  0  0  0  0
  185.1740  178.5790  143.1220 C   0  0  0  0  0  0  0  0  0  0  0  0
  183.2950  178.9060  141.5910 C   0  0  0  0  0  0  0  0  0  0  0  0
  189.4990  176.7200  138.9150 C   0  0  0  0  0  2  0  0  0  0  0  0
  188.1400  177.5980  141.0700 N   0  0  2  0  0  0  0  0  0  0  0  0
  188.7520  178.0320  138.6760 C   0  0  0  0  0  2  0  0  0  0  0  0
  182.9340  178.9450  144.0100 C   0  0  0  0  0  3  0  0  0  0  0  0
  183.7910  178.8100  142.9060 C   0  0  0  0  0  0  0  0  0  0  0  0
  186.4110  178.3600  139.5100 C   0  0  0  0  0  2  0  0  0  0  0  0
  184.1660  178.7690  140.5100 C   0  0  0  0  0  3  0  0  0  0  0  0
  191.6790  177.3240  139.9770 C   0  0  0  0  0  2  0  0  0  0  0  0
  193.5150  176.4190  138.5100 C   0  0  0  0  0  0  0  0  0  0  0  0
  192.1760  176.8790  138.6850 N   0  0  0  0  0  2  0  0  0  0  0  0
  193.9550  176.0040  137.2230 N   0  0  0  0  0  1  0  0  0  0  0  0
  194.3120  176.3790  139.4860 O   0  0  0  0  0  0  0  0  0  0  0  0
  181.8400  179.1130  141.3080 C   0  0  0  0  0  2  0  0  0  0  0  0
  181.4700  178.4200  140.0780 N   0  0  0  0  0  0  0  0  0  0  0  0
  181.0890  179.4880  137.8610 C   0  0  1  0  0  3  0  0  0  0  0  0
  182.2880  178.8090  137.6220 O   0  0  0  0  0  1  0  0  0  0  0  0
  180.5880  179.2910  139.2950 C   0  0  2  0  0  3  0  0  0  0  0  0
  181.3210  180.5610  138.9000 C   0  0  0  0  0  2  0  0  0  0  0  0
  180.7690  177.1730  140.4170 C   0  0  0  0  0  2  0  0  0  0  0  0
  181.0660  176.0250  139.4530 C   0  0  0  0  0  2  0  0  0  0  0  0
  182.5600  175.8000  139.3810 C   0  0  0  0  0  1  0  0  0  0  0  0
  1 19  1  6  0  0  0
  1  7  1  0  0  0  0
  2  9  1  0  0  0  0
  4  3  1  0  0  0  0
  5 14  1  6  0  0  0
  5 13  1  0  0  0  0
  8  3  2  0  0  0  0
  9  6  1  0  0  0  0
  9 10  2  0  0  0  0
 10  8  1  0  0  0  0
 11 16  2  0  0  0  0
 12  1  1  0  0  0  0
 13  7  1  1  0  0  0
 13  6  1  0  0  0  0
 14 12  1  0  0  0  0
 15  4  2  0  0  0  0
 16 10  1  0  0  0  0
 16 15  1  0  0  0  0
 17  5  1  0  0  0  0
 17  2  1  0  0  0  0
 18  2  2  0  0  0  0
 18 11  1  0  0  0  0
 20 21  1  0  0  0  0
 20 23  2  0  0  0  0
 21 19  1  0  0  0  0
 22 20  1  0  0  0  0
 24 11  1  0  0  0  0
 25 30  1  0  0  0  0
 25 24  1  0  0  0  0
 26 27  1  1  0  0  0
 26 29  1  0  0  0  0
 26 28  1  0  0  0  0
 28 25  1  1  0  0  0
 29 28  1  0  0  0  0
 31 30  1  0  0  0  0
 32 31  1  0  0  0  0
M  END
>  <MODEL>
7

>  <REMARK>
 VINA RESULT:      -7.4      3.703      4.670
  Name = 
  7 active torsions:
  status: ('A' for Active; 'I' for Inactive)
    1  A    between atoms: C_2  and  C_24
    2  A    between atoms: C_6  and  C_7
    3  A    between atoms: C_7  and  N_32
    4  A    between atoms: N_10  and  C_24
    5  A    between atoms: C_16  and  C_27
    6  A    between atoms: C_22  and  N_32
    7  A    between atoms: C_27  and  N_32
                            x       y       z     vdW  Elec       q    Type
                         _______ _______ _______ _____ _____    ______ ____

>  <TORSDO>
F 7

$$$$
=
 OpenBabel11052416573D

 32 36  0  0  1  0  0  0  0  0999 V2000
  187.5580  177.1380  144.3030 C   0  0  1  0  0  3  0  0  0  0  0  0
  183.7800  178.6900  141.2210 C   0  0  0  0  0  0  0  0  0  0  0  0
  179.8780  178.8280  144.1320 C   0  0  0  0  0  3  0  0  0  0  0  0
  179.0530  178.9750  143.0160 C   0  0  0  0  0  3  0  0  0  0  0  0
  186.0440  178.6820  142.2880 C   0  0  1  0  0  3  0  0  0  0  0  0
  184.1530  178.5370  143.7100 C   0  0  0  0  0  2  0  0  0  0  0  0
  186.2610  177.9260  144.5390 C   0  0  0  0  0  2  0  0  0  0  0  0
  181.2610  178.7140  143.9690 C   0  0  0  0  0  3  0  0  0  0  0  0
  183.2290  178.6290  142.5180 C   0  0  0  0  0  0  0  0  0  0  0  0
  181.8350  178.7460  142.6890 C   0  0  0  0  0  0  0  0  0  0  0  0
  181.5620  178.9410  140.2660 C   0  0  0  0  0  0  0  0  0  0  0  0
  187.9110  177.0360  142.8140 C   0  0  0  0  0  2  0  0  0  0  0  0
  185.4100  177.8840  143.3530 N   0  0  2  0  0  0  0  0  0  0  0  0
  187.5150  178.3010  142.0520 C   0  0  0  0  0  2  0  0  0  0  0  0
  179.6080  179.0100  141.7350 C   0  0  0  0  0  3  0  0  0  0  0  0
  180.9960  178.8980  141.5550 C   0  0  0  0  0  0  0  0  0  0  0  0
  185.2550  178.5200  140.9920 C   0  0  0  0  0  2  0  0  0  0  0  0
  182.9450  178.8280  140.1120 C   0  0  0  0  0  3  0  0  0  0  0  0
  188.7050  177.7790  145.0650 C   0  0  0  0  0  2  0  0  0  0  0  0
  188.8290  177.5000  147.5650 C   0  0  0  0  0  0  0  0  0  0  0  0
  188.2760  178.1280  146.4100 N   0  0  0  0  0  2  0  0  0  0  0  0
  188.3670  177.8710  148.8580 N   0  0  0  0  0  1  0  0  0  0  0  0
  189.7220  176.6180  147.4500 O   0  0  0  0  0  0  0  0  0  0  0  0
  180.7200  179.0630  139.0360 C   0  0  0  0  0  2  0  0  0  0  0  0
  181.4310  179.8320  138.0190 N   0  0  0  0  0  0  0  0  0  0  0  0
  181.5010  182.3150  138.1810 C   0  0  1  0  0  3  0  0  0  0  0  0
  182.7480  181.9820  138.7190 O   0  0  0  0  0  1  0  0  0  0  0  0
  180.6980  181.0760  137.7720 C   0  0  2  0  0  3  0  0  0  0  0  0
  180.4090  181.7850  139.0830 C   0  0  0  0  0  2  0  0  0  0  0  0
  181.5100  179.0420  136.7820 C   0  0  0  0  0  2  0  0  0  0  0  0
  181.8940  177.5810  137.0140 C   0  0  0  0  0  2  0  0  0  0  0  0
  183.3780  177.4060  136.7740 C   0  0  0  0  0  1  0  0  0  0  0  0
  1  7  1  0  0  0  0
  1 19  1  1  0  0  0
  2  9  1  0  0  0  0
  4  3  1  0  0  0  0
  5 17  1  6  0  0  0
  5 13  1  0  0  0  0
  8  3  2  0  0  0  0
  9 10  2  0  0  0  0
  9  6  1  0  0  0  0
 10  8  1  0  0  0  0
 11 16  2  0  0  0  0
 12  1  1  0  0  0  0
 13  6  1  1  0  0  0
 13  7  1  0  0  0  0
 14  5  1  0  0  0  0
 14 12  1  0  0  0  0
 15  4  2  0  0  0  0
 16 15  1  0  0  0  0
 16 10  1  0  0  0  0
 17  2  1  0  0  0  0
 18 11  1  0  0  0  0
 18  2  2  0  0  0  0
 19 21  1  0  0  0  0
 20 22  1  0  0  0  0
 21 20  1  0  0  0  0
 23 20  2  0  0  0  0
 24 11  1  0  0  0  0
 25 24  1  0  0  0  0
 26 27  1  1  0  0  0
 26 29  1  0  0  0  0
 28 25  1  1  0  0  0
 28 26  1  0  0  0  0
 28 29  1  0  0  0  0
 30 31  1  0  0  0  0
 30 25  1  0  0  0  0
 32 31  1  0  0  0  0
M  END
>  <MODEL>
8

>  <REMARK>
 VINA RESULT:      -7.4      2.161      3.023
  Name = 
  7 active torsions:
  status: ('A' for Active; 'I' for Inactive)
    1  A    between atoms: C_2  and  C_24
    2  A    between atoms: C_6  and  C_7
    3  A    between atoms: C_7  and  N_32
    4  A    between atoms: N_10  and  C_24
    5  A    between atoms: C_16  and  C_27
    6  A    between atoms: C_22  and  N_32
    7  A    between atoms: C_27  and  N_32
                            x       y       z     vdW  Elec       q    Type
                         _______ _______ _______ _____ _____    ______ ____

>  <TORSDO>
F 7

$$$$
=
 OpenBabel11052416573D

 32 36  0  0  1  0  0  0  0  0999 V2000
  188.2730  177.1340  144.5330 C   0  0  1  0  0  3  0  0  0  0  0  0
  190.3040  177.2000  139.8370 C   0  0  0  0  0  0  0  0  0  0  0  0
  186.4810  177.9760  136.9210 C   0  0  0  0  0  3  0  0  0  0  0  0
  187.2660  177.6590  135.8120 C   0  0  0  0  0  3  0  0  0  0  0  0
  190.0630  177.7580  142.2650 C   0  0  1  0  0  3  0  0  0  0  0  0
  188.1370  177.9390  140.8950 C   0  0  0  0  0  2  0  0  0  0  0  0
  187.8810  177.8370  143.2250 C   0  0  0  0  0  2  0  0  0  0  0  0
  187.0350  177.9360  138.2030 C   0  0  0  0  0  3  0  0  0  0  0  0
  188.9420  177.5360  139.6820 C   0  0  0  0  0  0  0  0  0  0  0  0
  188.3800  177.5810  138.3910 C   0  0  0  0  0  0  0  0  0  0  0  0
  190.5310  176.9120  137.4370 C   0  0  0  0  0  0  0  0  0  0  0  0
  189.6950  176.5620  144.4810 C   0  0  0  0  0  2  0  0  0  0  0  0
  188.6650  177.3170  142.1080 N   0  0  2  0  0  0  0  0  0  0  0  0
  190.6310  177.4510  143.6620 C   0  0  0  0  0  2  0  0  0  0  0  0
  188.6060  177.3050  135.9800 C   0  0  0  0  0  3  0  0  0  0  0  0
  189.1780  177.2610  137.2620 C   0  0  0  0  0  0  0  0  0  0  0  0
  190.9300  177.0930  141.1990 C   0  0  0  0  0  2  0  0  0  0  0  0
  191.0760  176.8770  138.7220 C   0  0  0  0  0  3  0  0  0  0  0  0
  188.1440  178.0950  145.7020 C   0  0  0  0  0  2  0  0  0  0  0  0
  185.7210  178.5550  146.2120 C   0  0  0  0  0  0  0  0  0  0  0  0
  186.9220  177.8200  146.4400 N   0  0  0  0  0  2  0  0  0  0  0  0
  184.5550  178.2530  146.9690 N   0  0  0  0  0  1  0  0  0  0  0  0
  185.6850  179.4720  145.3490 O   0  0  0  0  0  0  0  0  0  0  0  0
  191.4060  176.5320  136.2850 C   0  0  0  0  0  2  0  0  0  0  0  0
  191.8240  175.1400  136.4160 N   0  0  0  0  0  0  0  0  0  0  0  0
  194.2200  174.5020  136.6460 C   0  0  1  0  0  3  0  0  0  0  0  0
  193.7860  174.3710  137.9680 O   0  0  0  0  0  1  0  0  0  0  0  0
  193.0970  174.9630  135.7110 C   0  0  2  0  0  3  0  0  0  0  0  0
  194.1250  175.9530  136.2290 C   0  0  0  0  0  2  0  0  0  0  0  0
  190.7990  174.2690  135.8230 C   0  0  0  0  0  2  0  0  0  0  0  0
  190.0910  173.3780  136.8440 C   0  0  0  0  0  2  0  0  0  0  0  0
  188.6060  173.6680  136.8210 C   0  0  0  0  0  1  0  0  0  0  0  0
  1 19  1  1  0  0  0
  2 17  1  0  0  0  0
  3  8  2  0  0  0  0
  4 15  2  0  0  0  0
  4  3  1  0  0  0  0
  5 17  1  6  0  0  0
  5 14  1  0  0  0  0
  7  1  1  0  0  0  0
  8 10  1  0  0  0  0
  9  2  1  0  0  0  0
  9  6  1  0  0  0  0
 10  9  2  0  0  0  0
 11 18  1  0  0  0  0
 12  1  1  0  0  0  0
 13  6  1  6  0  0  0
 13  5  1  0  0  0  0
 13  7  1  0  0  0  0
 14 12  1  0  0  0  0
 15 16  1  0  0  0  0
 16 11  2  0  0  0  0
 16 10  1  0  0  0  0
 18  2  2  0  0  0  0
 19 21  1  0  0  0  0
 20 21  1  0  0  0  0
 20 22  1  0  0  0  0
 23 20  2  0  0  0  0
 24 25  1  0  0  0  0
 24 11  1  0  0  0  0
 26 27  1  1  0  0  0
 28 29  1  0  0  0  0
 28 25  1  1  0  0  0
 28 26  1  0  0  0  0
 29 26  1  0  0  0  0
 30 25  1  0  0  0  0
 30 31  1  0  0  0  0
 32 31  1  0  0  0  0
M  END
>  <MODEL>
9

>  <REMARK>
 VINA RESULT:      -7.2      5.317      7.558
  Name = 
  7 active torsions:
  status: ('A' for Active; 'I' for Inactive)
    1  A    between atoms: C_2  and  C_24
    2  A    between atoms: C_6  and  C_7
    3  A    between atoms: C_7  and  N_32
    4  A    between atoms: N_10  and  C_24
    5  A    between atoms: C_16  and  C_27
    6  A    between atoms: C_22  and  N_32
    7  A    between atoms: C_27  and  N_32
                            x       y       z     vdW  Elec       q    Type
                         _______ _______ _______ _____ _____    ______ ____

>  <TORSDO>
F 7

$$$$
