=
 OpenBabel11052413563D

 34 38  0  0  1  0  0  0  0  0999 V2000
  191.6920  174.7000  137.5740 C   0  0  2  0  0  3  0  0  0  0  0  0
  189.4570  174.0120  136.5560 C   0  0  1  0  0  3  0  0  0  0  0  0
  189.6140  176.0610  138.0100 C   0  0  1  0  0  3  0  0  0  0  0  0
  187.5030  177.3760  138.4200 C   0  0  2  0  0  3  0  0  0  0  0  0
  189.5260  173.8430  135.0500 C   0  0  0  0  0  1  0  0  0  0  0  0
  187.5170  175.5510  136.7100 N   0  0  0  0  0  2  0  0  0  0  0  0
  190.3530  175.1880  136.9920 C   0  0  1  0  0  3  0  0  0  0  0  0
  190.4730  177.2130  138.5350 C   0  0  1  0  0  3  0  0  0  0  0  0
  192.5400  175.8730  138.0740 C   0  0  0  0  0  2  0  0  0  0  0  0
  187.9920  174.1890  136.9890 C   0  0  0  0  0  2  0  0  0  0  0  0
  188.3460  178.5300  138.9740 C   0  0  0  0  0  2  0  0  0  0  0  0
  189.6840  178.0570  139.5550 C   0  0  1  0  0  3  0  0  0  0  0  0
  188.3190  176.5960  137.3780 C   0  0  2  0  0  3  0  0  0  0  0  0
  191.7840  176.6860  139.1180 C   0  0  0  0  0  2  0  0  0  0  0  0
  190.3540  176.0930  142.7640 C   0  0  0  0  0  0  0  0  0  0  0  0
  189.1340  176.2480  143.4280 C   0  0  0  0  0  3  0  0  0  0  0  0
  189.5160  177.4230  140.9120 C   0  0  0  0  0  0  0  0  0  0  0  0
  188.1050  176.9870  142.8370 C   0  0  0  0  0  3  0  0  0  0  0  0
  190.5450  176.6770  141.5090 C   0  0  0  0  0  3  0  0  0  0  0  0
  188.2970  177.5710  141.5820 C   0  0  0  0  0  3  0  0  0  0  0  0
  191.3520  175.3810  143.3390 F   0  0  0  0  0  0  0  0  0  0  0  0
  193.2920  174.7020  135.6020 C   0  0  0  0  0  1  0  0  0  0  0  0
  192.4960  173.8530  136.5840 C   0  0  0  0  0  2  0  0  0  0  0  0
  186.2350  177.9650  137.8210 C   0  0  0  0  0  2  0  0  0  0  0  0
  185.6650  178.9480  138.7240 N   0  0  0  0  0  2  0  0  0  0  0  0
  184.8190  178.7600  140.8870 C   0  0  0  0  0  3  0  0  0  0  0  0
  184.6570  178.5760  139.6190 N   0  0  0  0  0  0  0  0  0  0  0  0
  185.3850  178.6700  144.0160 Cl  0  0  0  0  0  0  0  0  0  0  0  0
  183.7510  178.3610  141.8500 C   0  0  1  0  0  3  0  0  0  0  0  0
  183.8900  179.1400  143.1650 C   0  0  1  0  0  3  0  0  0  0  0  0
  181.4510  179.1150  143.3600 N   0  0  0  0  0  2  0  0  0  0  0  0
  181.3320  178.9080  141.9480 C   0  0  0  0  0  3  0  0  0  0  0  0
  182.3990  178.5730  141.2200 C   0  0  0  0  0  3  0  0  0  0  0  0
  182.6980  178.8350  144.0670 C   0  0  0  0  0  2  0  0  0  0  0  0
  1 23  1  6  0  0  0
  1  9  1  0  0  0  0
  2  5  1  6  0  0  0
  2 10  1  0  0  0  0
  2  7  1  0  0  0  0
  3  8  1  0  0  0  0
  4 11  1  0  0  0  0
  6 10  1  0  0  0  0
  6 13  1  0  0  0  0
  7  1  1  0  0  0  0
  7  3  1  0  0  0  0
  8 14  1  0  0  0  0
  8 12  1  0  0  0  0
  9 14  1  0  0  0  0
 11 12  1  0  0  0  0
 12 17  1  0  0  0  0
 13  3  1  0  0  0  0
 13  4  1  0  0  0  0
 15 21  1  0  0  0  0
 15 16  1  0  0  0  0
 17 19  1  0  0  0  0
 17 20  2  0  0  0  0
 18 16  2  0  0  0  0
 19 15  2  0  0  0  0
 20 18  1  0  0  0  0
 22 23  1  0  0  0  0
 24  4  1  0  0  0  0
 24 25  1  0  0  0  0
 25 27  1  0  0  0  0
 26 29  1  0  0  0  0
 27 26  2  0  0  0  0
 29 30  1  0  0  0  0
 30 28  1  0  0  0  0
 30 34  1  0  0  0  0
 31 34  1  0  0  0  0
 32 31  1  0  0  0  0
 33 29  1  0  0  0  0
 33 32  2  0  0  0  0
M  END
>  <MODEL>
1

>  <REMARK>
 VINA RESULT:      -8.0      0.000      0.000
  Name = 
  6 active torsions:
  status: ('A' for Active; 'I' for Inactive)
    1  A    between atoms: C_1  and  C_19
    2  A    between atoms: C_3  and  C_13
    3  A    between atoms: C_5  and  C_18
    4  A    between atoms: C_12  and  C_28
    5  A    between atoms: N_17  and  N_29
    6  A    between atoms: C_18  and  N_29
                            x       y       z     vdW  Elec       q    Type
                         _______ _______ _______ _____ _____    ______ ____

>  <TORSDO>
F 6

$$$$
=
 OpenBabel11052413563D

 34 38  0  0  1  0  0  0  0  0999 V2000
  186.3220  177.8790  142.7230 C   0  0  2  0  0  3  0  0  0  0  0  0
  188.3450  176.5560  143.5370 C   0  0  1  0  0  3  0  0  0  0  0  0
  188.3080  177.5180  141.2110 C   0  0  1  0  0  3  0  0  0  0  0  0
  190.3150  177.1150  139.7410 C   0  0  2  0  0  3  0  0  0  0  0  0
  188.9120  177.0940  144.8370 C   0  0  0  0  0  1  0  0  0  0  0  0
  190.4130  176.5160  142.1680 N   0  0  0  0  0  2  0  0  0  0  0  0
  187.8520  177.7230  142.6580 C   0  0  1  0  0  3  0  0  0  0  0  0
  187.7970  178.6100  140.2700 C   0  0  1  0  0  3  0  0  0  0  0  0
  185.8380  178.9910  141.7860 C   0  0  0  0  0  2  0  0  0  0  0  0
  189.4000  175.6870  142.8340 C   0  0  0  0  0  2  0  0  0  0  0  0
  189.8050  178.1880  138.7730 C   0  0  0  0  0  2  0  0  0  0  0  0
  188.2810  178.3550  138.8290 C   0  0  1  0  0  3  0  0  0  0  0  0
  189.8430  177.4400  141.1660 C   0  0  2  0  0  3  0  0  0  0  0  0
  186.2740  178.7220  140.3510 C   0  0  0  0  0  2  0  0  0  0  0  0
  187.4880  174.9960  137.1880 C   0  0  0  0  0  0  0  0  0  0  0  0
  186.1890  175.2280  136.7260 C   0  0  0  0  0  3  0  0  0  0  0  0
  187.5650  177.2450  138.1030 C   0  0  0  0  0  0  0  0  0  0  0  0
  185.5780  176.4650  136.9490 C   0  0  0  0  0  3  0  0  0  0  0  0
  188.1750  176.0020  137.8740 C   0  0  0  0  0  3  0  0  0  0  0  0
  186.2660  177.4710  137.6350 C   0  0  0  0  0  3  0  0  0  0  0  0
  188.0770  173.7950  136.9770 F   0  0  0  0  0  0  0  0  0  0  0  0
  184.6910  179.1590  144.1890 C   0  0  0  0  0  1  0  0  0  0  0  0
  185.8100  178.1270  144.1440 C   0  0  0  0  0  2  0  0  0  0  0  0
  191.8330  177.0780  139.6430 C   0  0  0  0  0  2  0  0  0  0  0  0
  192.2390  176.7060  138.3000 N   0  0  0  0  0  2  0  0  0  0  0  0
  193.6030  174.8620  137.8910 C   0  0  0  0  0  3  0  0  0  0  0  0
  193.4950  176.1350  138.0800 N   0  0  0  0  0  0  0  0  0  0  0  0
  194.8480  174.6930  134.9680 Cl  0  0  0  0  0  0  0  0  0  0  0  0
  194.9410  174.2430  137.6610 C   0  0  1  0  0  3  0  0  0  0  0  0
  195.6800  174.9610  136.5220 C   0  0  1  0  0  3  0  0  0  0  0  0
  197.7790  174.5290  137.7050 N   0  0  0  0  0  2  0  0  0  0  0  0
  197.0650  174.3840  138.9370 C   0  0  0  0  0  3  0  0  0  0  0  0
  195.7360  174.2680  138.9410 C   0  0  0  0  0  3  0  0  0  0  0  0
  197.1020  174.4170  136.4160 C   0  0  0  0  0  2  0  0  0  0  0  0
  1 23  1  1  0  0  0
  2  5  1  1  0  0  0
  3  7  1  0  0  0  0
  4 13  1  0  0  0  0
  6 10  1  0  0  0  0
  7  1  1  0  0  0  0
  7  2  1  0  0  0  0
  8 14  1  0  0  0  0
  8  3  1  0  0  0  0
  9  1  1  0  0  0  0
 10  2  1  0  0  0  0
 11 12  1  0  0  0  0
 11  4  1  0  0  0  0
 12  8  1  0  0  0  0
 13  3  1  0  0  0  0
 13  6  1  0  0  0  0
 14  9  1  0  0  0  0
 15 19  1  0  0  0  0
 16 18  1  0  0  0  0
 16 15  2  0  0  0  0
 17 12  1  0  0  0  0
 18 20  2  0  0  0  0
 19 17  2  0  0  0  0
 20 17  1  0  0  0  0
 21 15  1  0  0  0  0
 23 22  1  0  0  0  0
 24  4  1  0  0  0  0
 25 24  1  0  0  0  0
 26 27  2  0  0  0  0
 27 25  1  0  0  0  0
 28 30  1  0  0  0  0
 29 26  1  0  0  0  0
 29 33  1  0  0  0  0
 30 29  1  0  0  0  0
 31 32  1  0  0  0  0
 32 33  2  0  0  0  0
 34 30  1  0  0  0  0
 34 31  1  0  0  0  0
M  END
>  <MODEL>
2

>  <REMARK>
 VINA RESULT:      -7.8      4.040      9.307
  Name = 
  6 active torsions:
  status: ('A' for Active; 'I' for Inactive)
    1  A    between atoms: C_1  and  C_19
    2  A    between atoms: C_3  and  C_13
    3  A    between atoms: C_5  and  C_18
    4  A    between atoms: C_12  and  C_28
    5  A    between atoms: N_17  and  N_29
    6  A    between atoms: C_18  and  N_29
                            x       y       z     vdW  Elec       q    Type
                         _______ _______ _______ _____ _____    ______ ____

>  <TORSDO>
F 6

$$$$
=
 OpenBabel11052413563D

 34 38  0  0  1  0  0  0  0  0999 V2000
  182.0120  178.7240  140.9350 C   0  0  2  0  0  3  0  0  0  0  0  0
  183.7380  178.5040  142.8000 C   0  0  1  0  0  3  0  0  0  0  0  0
  184.4580  178.4400  140.3890 C   0  0  1  0  0  3  0  0  0  0  0  0
  186.9130  178.1430  139.9040 C   0  0  2  0  0  3  0  0  0  0  0  0
  183.6700  179.6450  143.7980 C   0  0  0  0  0  1  0  0  0  0  0  0
  186.1540  178.5800  142.2470 N   0  0  0  0  0  2  0  0  0  0  0  0
  183.4520  179.0330  141.3800 C   0  0  1  0  0  3  0  0  0  0  0  0
  184.1910  178.8740  138.9470 C   0  0  1  0  0  3  0  0  0  0  0  0
  181.7660  179.1850  139.4950 C   0  0  0  0  0  2  0  0  0  0  0  0
  185.1000  177.8020  142.9100 C   0  0  0  0  0  2  0  0  0  0  0  0
  186.6600  178.5500  138.4480 C   0  0  0  0  0  2  0  0  0  0  0  0
  185.2270  178.2490  137.9920 C   0  0  1  0  0  3  0  0  0  0  0  0
  185.8830  178.8270  140.8160 C   0  0  2  0  0  3  0  0  0  0  0  0
  182.7570  178.5360  138.5380 C   0  0  0  0  0  2  0  0  0  0  0  0
  183.6370  174.7910  137.6580 C   0  0  0  0  0  0  0  0  0  0  0  0
  184.7150  174.0510  137.1640 C   0  0  0  0  0  3  0  0  0  0  0  0
  185.0240  176.7840  137.7020 C   0  0  0  0  0  0  0  0  0  0  0  0
  185.9470  174.6730  136.9400 C   0  0  0  0  0  3  0  0  0  0  0  0
  183.7910  176.1530  137.9280 C   0  0  0  0  0  3  0  0  0  0  0  0
  186.0990  176.0370  137.2100 C   0  0  0  0  0  3  0  0  0  0  0  0
  182.4430  174.1880  137.8700 F   0  0  0  0  0  0  0  0  0  0  0  0
  180.0030  178.2800  142.4240 C   0  0  0  0  0  1  0  0  0  0  0  0
  180.9590  179.3270  141.8690 C   0  0  0  0  0  2  0  0  0  0  0  0
  188.3370  178.5390  140.2620 C   0  0  0  0  0  2  0  0  0  0  0  0
  188.9410  177.5250  141.1060 N   0  0  0  0  0  2  0  0  0  0  0  0
  189.2060  177.1940  143.3970 C   0  0  0  0  0  3  0  0  0  0  0  0
  189.4940  177.8780  142.3400 N   0  0  0  0  0  0  0  0  0  0  0  0
  187.3350  178.0140  145.8360 Cl  0  0  0  0  0  0  0  0  0  0  0  0
  189.7870  177.5680  144.7200 C   0  0  1  0  0  3  0  0  0  0  0  0
  188.8700  177.1080  145.8630 C   0  0  1  0  0  3  0  0  0  0  0  0
  190.8700  176.7100  147.2160 N   0  0  0  0  0  2  0  0  0  0  0  0
  191.6630  176.6030  146.0280 C   0  0  0  0  0  3  0  0  0  0  0  0
  191.1690  176.9810  144.8470 C   0  0  0  0  0  3  0  0  0  0  0  0
  189.5610  177.3560  147.2010 C   0  0  0  0  0  2  0  0  0  0  0  0
  1  7  1  0  0  0  0
  1 23  1  1  0  0  0
  2 10  1  0  0  0  0
  2  5  1  1  0  0  0
  3 13  1  0  0  0  0
  3  7  1  0  0  0  0
  4 24  1  0  0  0  0
  4 13  1  0  0  0  0
  6 10  1  0  0  0  0
  7  2  1  0  0  0  0
  8  3  1  0  0  0  0
  9  1  1  0  0  0  0
 11  4  1  0  0  0  0
 12 11  1  0  0  0  0
 12  8  1  0  0  0  0
 13  6  1  0  0  0  0
 14  8  1  0  0  0  0
 14  9  1  0  0  0  0
 15 21  1  0  0  0  0
 15 19  1  0  0  0  0
 16 15  2  0  0  0  0
 17 19  2  0  0  0  0
 17 12  1  0  0  0  0
 18 16  1  0  0  0  0
 18 20  2  0  0  0  0
 20 17  1  0  0  0  0
 23 22  1  0  0  0  0
 24 25  1  0  0  0  0
 25 27  1  0  0  0  0
 26 29  1  0  0  0  0
 27 26  2  0  0  0  0
 28 30  1  0  0  0  0
 29 33  1  0  0  0  0
 29 30  1  0  0  0  0
 30 34  1  0  0  0  0
 32 31  1  0  0  0  0
 33 32  2  0  0  0  0
 34 31  1  0  0  0  0
M  END
>  <MODEL>
3

>  <REMARK>
 VINA RESULT:      -7.5      3.744      8.199
  Name = 
  6 active torsions:
  status: ('A' for Active; 'I' for Inactive)
    1  A    between atoms: C_1  and  C_19
    2  A    between atoms: C_3  and  C_13
    3  A    between atoms: C_5  and  C_18
    4  A    between atoms: C_12  and  C_28
    5  A    between atoms: N_17  and  N_29
    6  A    between atoms: C_18  and  N_29
                            x       y       z     vdW  Elec       q    Type
                         _______ _______ _______ _____ _____    ______ ____

>  <TORSDO>
F 6

$$$$
=
 OpenBabel11052413563D

 34 38  0  0  1  0  0  0  0  0999 V2000
  182.9310  177.3760  136.6360 C   0  0  2  0  0  3  0  0  0  0  0  0
  183.4350  178.3850  138.9240 C   0  0  1  0  0  3  0  0  0  0  0  0
  185.3020  177.4940  137.4890 C   0  0  1  0  0  3  0  0  0  0  0  0
  187.6490  177.6280  138.3980 C   0  0  2  0  0  3  0  0  0  0  0  0
  182.8730  179.7850  139.0840 C   0  0  0  0  0  1  0  0  0  0  0  0
  185.7890  178.8070  139.5840 N   0  0  0  0  0  2  0  0  0  0  0  0
  183.9350  178.1830  137.4790 C   0  0  1  0  0  3  0  0  0  0  0  0
  185.8280  177.2040  136.0820 C   0  0  1  0  0  3  0  0  0  0  0  0
  183.4740  177.1170  135.2270 C   0  0  0  0  0  2  0  0  0  0  0  0
  184.5350  178.1470  139.9720 C   0  0  0  0  0  2  0  0  0  0  0  0
  188.1940  177.3120  137.0010 C   0  0  0  0  0  2  0  0  0  0  0  0
  187.2020  176.5090  136.1490 C   0  0  1  0  0  3  0  0  0  0  0  0
  186.3030  178.3570  138.2740 C   0  0  2  0  0  3  0  0  0  0  0  0
  184.8110  176.3880  135.2840 C   0  0  0  0  0  2  0  0  0  0  0  0
  186.0340  173.1450  137.5340 C   0  0  0  0  0  0  0  0  0  0  0  0
  187.1600  172.3540  137.2900 C   0  0  0  0  0  3  0  0  0  0  0  0
  187.1630  175.0570  136.5490 C   0  0  0  0  0  0  0  0  0  0  0  0
  188.2870  172.9100  136.6790 C   0  0  0  0  0  3  0  0  0  0  0  0
  186.0350  174.4930  137.1660 C   0  0  0  0  0  3  0  0  0  0  0  0
  188.2870  174.2590  136.3110 C   0  0  0  0  0  3  0  0  0  0  0  0
  184.9410  172.6040  138.1220 F   0  0  0  0  0  0  0  0  0  0  0  0
  181.2980  178.6930  135.2050 C   0  0  0  0  0  1  0  0  0  0  0  0
  181.5540  178.0390  136.5570 C   0  0  0  0  0  2  0  0  0  0  0  0
  188.6840  178.4700  139.1270 C   0  0  0  0  0  2  0  0  0  0  0  0
  189.3700  177.6690  140.1240 N   0  0  0  0  0  2  0  0  0  0  0  0
  189.2950  176.6510  142.2190 C   0  0  0  0  0  3  0  0  0  0  0  0
  188.8490  177.5600  141.4160 N   0  0  0  0  0  0  0  0  0  0  0  0
  191.2130  176.5910  144.7560 Cl  0  0  0  0  0  0  0  0  0  0  0  0
  188.7400  176.5250  143.5980 C   0  0  1  0  0  3  0  0  0  0  0  0
  189.5930  177.3180  144.5990 C   0  0  1  0  0  3  0  0  0  0  0  0
  187.5470  177.8010  145.8530 N   0  0  0  0  0  2  0  0  0  0  0  0
  186.7610  177.5590  144.6810 C   0  0  0  0  0  3  0  0  0  0  0  0
  187.3040  176.9800  143.6090 C   0  0  0  0  0  3  0  0  0  0  0  0
  188.9160  177.3050  145.9670 C   0  0  0  0  0  2  0  0  0  0  0  0
  1 23  1  6  0  0  0
  1  7  1  0  0  0  0
  2  5  1  6  0  0  0
  2 10  1  0  0  0  0
  3 13  1  0  0  0  0
  4 24  1  0  0  0  0
  6 10  1  0  0  0  0
  7  3  1  0  0  0  0
  7  2  1  0  0  0  0
  8 12  1  0  0  0  0
  8  3  1  0  0  0  0
  9 14  1  0  0  0  0
  9  1  1  0  0  0  0
 11  4  1  0  0  0  0
 12 17  1  0  0  0  0
 12 11  1  0  0  0  0
 13  4  1  0  0  0  0
 13  6  1  0  0  0  0
 14  8  1  0  0  0  0
 15 21  1  0  0  0  0
 16 15  1  0  0  0  0
 17 19  1  0  0  0  0
 18 16  2  0  0  0  0
 19 15  2  0  0  0  0
 20 17  2  0  0  0  0
 20 18  1  0  0  0  0
 22 23  1  0  0  0  0
 24 25  1  0  0  0  0
 25 27  1  0  0  0  0
 26 29  1  0  0  0  0
 27 26  2  0  0  0  0
 29 33  1  0  0  0  0
 29 30  1  0  0  0  0
 30 28  1  0  0  0  0
 30 34  1  0  0  0  0
 31 34  1  0  0  0  0
 32 31  1  0  0  0  0
 33 32  2  0  0  0  0
M  END
>  <MODEL>
4

>  <REMARK>
 VINA RESULT:      -7.5      3.231      6.822
  Name = 
  6 active torsions:
  status: ('A' for Active; 'I' for Inactive)
    1  A    between atoms: C_1  and  C_19
    2  A    between atoms: C_3  and  C_13
    3  A    between atoms: C_5  and  C_18
    4  A    between atoms: C_12  and  C_28
    5  A    between atoms: N_17  and  N_29
    6  A    between atoms: C_18  and  N_29
                            x       y       z     vdW  Elec       q    Type
                         _______ _______ _______ _____ _____    ______ ____

>  <TORSDO>
F 6

$$$$
=
 OpenBabel11052413563D

 34 38  0  0  1  0  0  0  0  0999 V2000
  184.8620  178.1400  145.1950 C   0  0  2  0  0  3  0  0  0  0  0  0
  187.0600  177.0150  144.5580 C   0  0  1  0  0  3  0  0  0  0  0  0
  185.6890  178.2040  142.8130 C   0  0  1  0  0  3  0  0  0  0  0  0
  186.5590  178.2240  140.4480 C   0  0  2  0  0  3  0  0  0  0  0  0
  188.2260  177.4830  145.4080 C   0  0  0  0  0  1  0  0  0  0  0  0
  188.0180  177.3910  142.3010 N   0  0  0  0  0  2  0  0  0  0  0  0
  186.1030  178.1940  144.2870 C   0  0  1  0  0  3  0  0  0  0  0  0
  184.6850  179.3120  142.4890 C   0  0  1  0  0  3  0  0  0  0  0  0
  183.8830  179.2710  144.8630 C   0  0  0  0  0  2  0  0  0  0  0  0
  187.5890  176.3710  143.2660 C   0  0  0  0  0  2  0  0  0  0  0  0
  185.5420  179.3170  140.0980 C   0  0  0  0  0  2  0  0  0  0  0  0
  184.3000  179.2760  140.9970 C   0  0  1  0  0  3  0  0  0  0  0  0
  186.9410  178.3330  141.9310 C   0  0  2  0  0  3  0  0  0  0  0  0
  183.4610  179.2150  143.4000 C   0  0  0  0  0  2  0  0  0  0  0  0
  182.8850  176.0680  139.4790 C   0  0  0  0  0  0  0  0  0  0  0  0
  181.5550  176.1400  139.9000 C   0  0  0  0  0  3  0  0  0  0  0  0
  183.3590  178.1650  140.6090 C   0  0  0  0  0  0  0  0  0  0  0  0
  181.1240  177.2220  140.6730 C   0  0  0  0  0  3  0  0  0  0  0  0
  183.7850  177.0770  139.8300 C   0  0  0  0  0  3  0  0  0  0  0  0
  182.0250  178.2320  141.0250 C   0  0  0  0  0  3  0  0  0  0  0  0
  183.3030  175.0160  138.7340 F   0  0  0  0  0  0  0  0  0  0  0  0
  185.8560  179.4820  147.1080 C   0  0  0  0  0  1  0  0  0  0  0  0
  185.2130  178.1680  146.6850 C   0  0  0  0  0  2  0  0  0  0  0  0
  187.7650  178.3970  139.5380 C   0  0  0  0  0  2  0  0  0  0  0  0
  187.3520  178.3700  138.1480 N   0  0  0  0  0  2  0  0  0  0  0  0
  188.0190  176.3030  137.3040 C   0  0  0  0  0  3  0  0  0  0  0  0
  187.0710  177.1520  137.5220 N   0  0  0  0  0  0  0  0  0  0  0  0
  190.3500  174.5790  135.9950 Cl  0  0  0  0  0  0  0  0  0  0  0  0
  187.7290  175.0030  136.6320 C   0  0  1  0  0  3  0  0  0  0  0  0
  188.8860  174.0160  136.8410 C   0  0  1  0  0  3  0  0  0  0  0  0
  187.2420  172.2030  136.8870 N   0  0  0  0  0  2  0  0  0  0  0  0
  186.2130  173.1340  137.2410 C   0  0  0  0  0  3  0  0  0  0  0  0
  186.4260  174.4480  137.1480 C   0  0  0  0  0  3  0  0  0  0  0  0
  188.4960  172.6490  136.2860 C   0  0  0  0  0  2  0  0  0  0  0  0
  1 23  1  1  0  0  0
  2  5  1  1  0  0  0
  3  7  1  0  0  0  0
  4 13  1  0  0  0  0
  6 10  1  0  0  0  0
  7  2  1  0  0  0  0
  7  1  1  0  0  0  0
  8  3  1  0  0  0  0
  8 14  1  0  0  0  0
  9  1  1  0  0  0  0
 10  2  1  0  0  0  0
 11  4  1  0  0  0  0
 11 12  1  0  0  0  0
 12  8  1  0  0  0  0
 13  6  1  0  0  0  0
 13  3  1  0  0  0  0
 14  9  1  0  0  0  0
 15 19  2  0  0  0  0
 15 16  1  0  0  0  0
 16 18  2  0  0  0  0
 17 12  1  0  0  0  0
 17 20  2  0  0  0  0
 18 20  1  0  0  0  0
 19 17  1  0  0  0  0
 21 15  1  0  0  0  0
 23 22  1  0  0  0  0
 24  4  1  0  0  0  0
 25 24  1  0  0  0  0
 26 27  2  0  0  0  0
 27 25  1  0  0  0  0
 28 30  1  0  0  0  0
 29 30  1  0  0  0  0
 29 33  1  0  0  0  0
 29 26  1  0  0  0  0
 31 32  1  0  0  0  0
 33 32  2  0  0  0  0
 34 30  1  0  0  0  0
 34 31  1  0  0  0  0
M  END
>  <MODEL>
5

>  <REMARK>
 VINA RESULT:      -7.3      3.450      8.310
  Name = 
  6 active torsions:
  status: ('A' for Active; 'I' for Inactive)
    1  A    between atoms: C_1  and  C_19
    2  A    between atoms: C_3  and  C_13
    3  A    between atoms: C_5  and  C_18
    4  A    between atoms: C_12  and  C_28
    5  A    between atoms: N_17  and  N_29
    6  A    between atoms: C_18  and  N_29
                            x       y       z     vdW  Elec       q    Type
                         _______ _______ _______ _____ _____    ______ ____

>  <TORSDO>
F 6

$$$$
=
 OpenBabel11052413563D

 34 38  0  0  1  0  0  0  0  0999 V2000
  183.2290  176.4050  136.7490 C   0  0  2  0  0  3  0  0  0  0  0  0
  185.5530  177.4170  137.0360 C   0  0  1  0  0  3  0  0  0  0  0  0
  183.8150  177.6970  138.8350 C   0  0  1  0  0  3  0  0  0  0  0  0
  184.4540  179.0060  140.8910 C   0  0  2  0  0  3  0  0  0  0  0  0
  186.6620  176.3950  136.8610 C   0  0  0  0  0  1  0  0  0  0  0  0
  186.2110  178.3710  139.2280 N   0  0  0  0  0  2  0  0  0  0  0  0
  184.3480  176.7650  137.7430 C   0  0  1  0  0  3  0  0  0  0  0  0
  182.5750  177.1380  139.5360 C   0  0  1  0  0  3  0  0  0  0  0  0
  182.0080  175.8310  137.4740 C   0  0  0  0  0  2  0  0  0  0  0  0
  186.0940  178.6420  137.7900 C   0  0  0  0  0  2  0  0  0  0  0  0
  183.2020  178.4770  141.6010 C   0  0  0  0  0  2  0  0  0  0  0  0
  182.0790  178.1140  140.6210 C   0  0  1  0  0  3  0  0  0  0  0  0
  184.9310  177.9790  139.8540 C   0  0  2  0  0  3  0  0  0  0  0  0
  181.4830  176.8090  138.5180 C   0  0  0  0  0  2  0  0  0  0  0  0
  181.1230  181.1430  138.4970 C   0  0  0  0  0  0  0  0  0  0  0  0
  180.0120  181.6170  139.1990 C   0  0  0  0  0  3  0  0  0  0  0  0
  181.3670  179.3360  140.1010 C   0  0  0  0  0  0  0  0  0  0  0  0
  179.5770  180.9550  140.3510 C   0  0  0  0  0  3  0  0  0  0  0  0
  181.8000  180.0070  138.9470 C   0  0  0  0  0  3  0  0  0  0  0  0
  180.2540  179.8180  140.8000 C   0  0  0  0  0  3  0  0  0  0  0  0
  181.5410  181.7820  137.3780 F   0  0  0  0  0  0  0  0  0  0  0  0
  183.9310  174.0320  136.1810 C   0  0  0  0  0  1  0  0  0  0  0  0
  183.6940  175.4420  135.6550 C   0  0  0  0  0  2  0  0  0  0  0  0
  185.5140  179.2770  141.9490 C   0  0  0  0  0  2  0  0  0  0  0  0
  184.9140  179.2740  143.2700 N   0  0  0  0  0  2  0  0  0  0  0  0
  186.5740  177.9020  144.1610 C   0  0  0  0  0  3  0  0  0  0  0  0
  185.6160  178.7460  144.3570 N   0  0  0  0  0  0  0  0  0  0  0  0
  189.4980  176.7080  143.7840 Cl  0  0  0  0  0  0  0  0  0  0  0  0
  187.3250  177.3290  145.3160 C   0  0  1  0  0  3  0  0  0  0  0  0
  188.8280  177.6020  145.1730 C   0  0  1  0  0  3  0  0  0  0  0  0
  188.9560  177.7890  147.6100 N   0  0  0  0  0  2  0  0  0  0  0  0
  187.5560  178.0820  147.6690 C   0  0  0  0  0  3  0  0  0  0  0  0
  186.7780  177.8910  146.6020 C   0  0  0  0  0  3  0  0  0  0  0  0
  189.5510  177.1500  146.4390 C   0  0  0  0  0  2  0  0  0  0  0  0
  1 23  1  6  0  0  0
  1  9  1  0  0  0  0
  1  7  1  0  0  0  0
  2  5  1  1  0  0  0
  2  7  1  0  0  0  0
  2 10  1  0  0  0  0
  3  8  1  0  0  0  0
  3 13  1  0  0  0  0
  4 11  1  0  0  0  0
  4 24  1  0  0  0  0
  6 13  1  0  0  0  0
  7  3  1  0  0  0  0
  8 12  1  0  0  0  0
  9 14  1  0  0  0  0
 10  6  1  0  0  0  0
 12 11  1  0  0  0  0
 13  4  1  0  0  0  0
 14  8  1  0  0  0  0
 15 19  2  0  0  0  0
 15 16  1  0  0  0  0
 16 18  2  0  0  0  0
 17 12  1  0  0  0  0
 17 20  2  0  0  0  0
 18 20  1  0  0  0  0
 19 17  1  0  0  0  0
 21 15  1  0  0  0  0
 23 22  1  0  0  0  0
 24 25  1  0  0  0  0
 25 27  1  0  0  0  0
 26 27  2  0  0  0  0
 26 29  1  0  0  0  0
 28 30  1  0  0  0  0
 29 33  1  0  0  0  0
 30 29  1  0  0  0  0
 30 34  1  0  0  0  0
 31 32  1  0  0  0  0
 33 32  2  0  0  0  0
 34 31  1  0  0  0  0
M  END
>  <MODEL>
6

>  <REMARK>
 VINA RESULT:      -7.3      4.209      7.644
  Name = 
  6 active torsions:
  status: ('A' for Active; 'I' for Inactive)
    1  A    between atoms: C_1  and  C_19
    2  A    between atoms: C_3  and  C_13
    3  A    between atoms: C_5  and  C_18
    4  A    between atoms: C_12  and  C_28
    5  A    between atoms: N_17  and  N_29
    6  A    between atoms: C_18  and  N_29
                            x       y       z     vdW  Elec       q    Type
                         _______ _______ _______ _____ _____    ______ ____

>  <TORSDO>
F 6

$$$$
=
 OpenBabel11052413563D

 34 38  0  0  1  0  0  0  0  0999 V2000
  184.7600  178.1350  145.2500 C   0  0  2  0  0  3  0  0  0  0  0  0
  186.9790  177.0450  144.6220 C   0  0  1  0  0  3  0  0  0  0  0  0
  185.5970  178.2110  142.8720 C   0  0  1  0  0  3  0  0  0  0  0  0
  186.4770  178.2460  140.5110 C   0  0  2  0  0  3  0  0  0  0  0  0
  188.1340  177.5320  145.4780 C   0  0  0  0  0  1  0  0  0  0  0  0
  187.9410  177.4360  142.3700 N   0  0  0  0  0  2  0  0  0  0  0  0
  186.0050  178.2080  144.3480 C   0  0  1  0  0  3  0  0  0  0  0  0
  184.5770  179.3040  142.5430 C   0  0  1  0  0  3  0  0  0  0  0  0
  183.7650  179.2500  144.9140 C   0  0  0  0  0  2  0  0  0  0  0  0
  187.5240  176.4090  143.3330 C   0  0  0  0  0  2  0  0  0  0  0  0
  185.4440  179.3220  140.1560 C   0  0  0  0  0  2  0  0  0  0  0  0
  184.1990  179.2610  141.0500 C   0  0  1  0  0  3  0  0  0  0  0  0
  186.8510  178.3610  141.9960 C   0  0  2  0  0  3  0  0  0  0  0  0
  183.3510  179.1870  143.4490 C   0  0  0  0  0  2  0  0  0  0  0  0
  182.8300  176.0540  139.4880 C   0  0  0  0  0  0  0  0  0  0  0  0
  181.5090  176.0810  139.9440 C   0  0  0  0  0  3  0  0  0  0  0  0
  183.2780  178.1350  140.6580 C   0  0  0  0  0  0  0  0  0  0  0  0
  181.0700  177.1320  140.7540 C   0  0  0  0  0  3  0  0  0  0  0  0
  183.7120  177.0780  139.8420 C   0  0  0  0  0  3  0  0  0  0  0  0
  181.9530  178.1570  141.1080 C   0  0  0  0  0  3  0  0  0  0  0  0
  183.2560  175.0320  138.7080 F   0  0  0  0  0  0  0  0  0  0  0  0
  185.8390  179.4410  147.1420 C   0  0  0  0  0  1  0  0  0  0  0  0
  185.1050  178.1680  146.7410 C   0  0  0  0  0  2  0  0  0  0  0  0
  187.6840  178.4380  139.6060 C   0  0  0  0  0  2  0  0  0  0  0  0
  187.3280  178.1520  138.2290 N   0  0  0  0  0  2  0  0  0  0  0  0
  189.3210  177.0120  137.8280 C   0  0  0  0  0  3  0  0  0  0  0  0
  188.1080  177.2740  137.4700 N   0  0  0  0  0  0  0  0  0  0  0  0
  192.4050  176.5990  138.4900 Cl  0  0  0  0  0  0  0  0  0  0  0  0
  190.1620  176.0800  137.0210 C   0  0  1  0  0  3  0  0  0  0  0  0
  191.2190  175.4040  137.9040 C   0  0  1  0  0  3  0  0  0  0  0  0
  191.0010  173.4010  136.5140 N   0  0  0  0  0  2  0  0  0  0  0  0
  189.6990  173.8260  136.0930 C   0  0  0  0  0  3  0  0  0  0  0  0
  189.2800  175.0680  136.3370 C   0  0  0  0  0  3  0  0  0  0  0  0
  191.9560  174.3410  137.0930 C   0  0  0  0  0  2  0  0  0  0  0  0
  1 23  1  1  0  0  0
  2  5  1  1  0  0  0
  3  7  1  0  0  0  0
  4 13  1  0  0  0  0
  6 10  1  0  0  0  0
  7  2  1  0  0  0  0
  7  1  1  0  0  0  0
  8  3  1  0  0  0  0
  8 14  1  0  0  0  0
  9  1  1  0  0  0  0
 10  2  1  0  0  0  0
 11  4  1  0  0  0  0
 11 12  1  0  0  0  0
 12  8  1  0  0  0  0
 13  6  1  0  0  0  0
 13  3  1  0  0  0  0
 14  9  1  0  0  0  0
 15 19  2  0  0  0  0
 15 16  1  0  0  0  0
 16 18  2  0  0  0  0
 17 12  1  0  0  0  0
 17 20  2  0  0  0  0
 18 20  1  0  0  0  0
 19 17  1  0  0  0  0
 21 15  1  0  0  0  0
 23 22  1  0  0  0  0
 24  4  1  0  0  0  0
 25 24  1  0  0  0  0
 27 26  2  0  0  0  0
 27 25  1  0  0  0  0
 29 26  1  0  0  0  0
 29 30  1  0  0  0  0
 30 28  1  0  0  0  0
 31 34  1  0  0  0  0
 32 33  2  0  0  0  0
 32 31  1  0  0  0  0
 33 29  1  0  0  0  0
 34 30  1  0  0  0  0
M  END
>  <MODEL>
7

>  <REMARK>
 VINA RESULT:      -7.2      3.082      8.641
  Name = 
  6 active torsions:
  status: ('A' for Active; 'I' for Inactive)
    1  A    between atoms: C_1  and  C_19
    2  A    between atoms: C_3  and  C_13
    3  A    between atoms: C_5  and  C_18
    4  A    between atoms: C_12  and  C_28
    5  A    between atoms: N_17  and  N_29
    6  A    between atoms: C_18  and  N_29
                            x       y       z     vdW  Elec       q    Type
                         _______ _______ _______ _____ _____    ______ ____

>  <TORSDO>
F 6

$$$$
=
 OpenBabel11052413563D

 34 38  0  0  1  0  0  0  0  0999 V2000
  184.6320  178.1000  145.0660 C   0  0  2  0  0  3  0  0  0  0  0  0
  186.8780  177.1600  144.3070 C   0  0  1  0  0  3  0  0  0  0  0  0
  185.3320  178.2530  142.6480 C   0  0  1  0  0  3  0  0  0  0  0  0
  186.0790  178.3660  140.2430 C   0  0  2  0  0  3  0  0  0  0  0  0
  188.0440  177.7110  145.1060 C   0  0  0  0  0  1  0  0  0  0  0  0
  187.6900  177.6330  142.0110 N   0  0  0  0  0  2  0  0  0  0  0  0
  185.8190  178.2610  144.0990 C   0  0  1  0  0  3  0  0  0  0  0  0
  184.2300  179.2810  142.3880 C   0  0  1  0  0  3  0  0  0  0  0  0
  183.5520  179.1520  144.7980 C   0  0  0  0  0  2  0  0  0  0  0  0
  187.3920  176.5730  142.9820 C   0  0  0  0  0  2  0  0  0  0  0  0
  184.9630  179.3780  139.9590 C   0  0  0  0  0  2  0  0  0  0  0  0
  183.7740  179.2290  140.9170 C   0  0  1  0  0  3  0  0  0  0  0  0
  186.5260  178.4900  141.7080 C   0  0  2  0  0  3  0  0  0  0  0  0
  183.0640  179.0770  143.3570 C   0  0  0  0  0  2  0  0  0  0  0  0
  180.7930  176.8560  140.6360 C   0  0  0  0  0  0  0  0  0  0  0  0
  181.3510  175.8190  139.8830 C   0  0  0  0  0  3  0  0  0  0  0  0
  182.9070  178.0500  140.5600 C   0  0  0  0  0  0  0  0  0  0  0  0
  182.6840  175.8940  139.4690 C   0  0  0  0  0  3  0  0  0  0  0  0
  181.5680  177.9670  140.9750 C   0  0  0  0  0  3  0  0  0  0  0  0
  183.4590  177.0070  139.8080 C   0  0  0  0  0  3  0  0  0  0  0  0
  179.5000  176.7850  141.0320 F   0  0  0  0  0  0  0  0  0  0  0  0
  185.6820  179.4720  146.9270 C   0  0  0  0  0  1  0  0  0  0  0  0
  185.0540  178.1410  146.5370 C   0  0  0  0  0  2  0  0  0  0  0  0
  187.2220  178.6430  139.2780 C   0  0  0  0  0  2  0  0  0  0  0  0
  187.4620  177.4820  138.4410 N   0  0  0  0  0  2  0  0  0  0  0  0
  189.7700  177.3280  138.7240 C   0  0  0  0  0  3  0  0  0  0  0  0
  188.6310  176.7320  138.6000 N   0  0  0  0  0  0  0  0  0  0  0  0
  190.7820  175.3700  136.4310 Cl  0  0  0  0  0  0  0  0  0  0  0  0
  191.0230  176.5350  138.8890 C   0  0  1  0  0  3  0  0  0  0  0  0
  191.7440  176.3780  137.5430 C   0  0  1  0  0  3  0  0  0  0  0  0
  193.8710  176.4550  138.7510 N   0  0  0  0  0  2  0  0  0  0  0  0
  193.2360  177.1280  139.8440 C   0  0  0  0  0  3  0  0  0  0  0  0
  191.9050  177.1930  139.9180 C   0  0  0  0  0  3  0  0  0  0  0  0
  193.0970  175.7070  137.7650 C   0  0  0  0  0  2  0  0  0  0  0  0
  1 23  1  1  0  0  0
  2  5  1  6  0  0  0
  3  7  1  0  0  0  0
  4 13  1  0  0  0  0
  6 10  1  0  0  0  0
  7  2  1  0  0  0  0
  7  1  1  0  0  0  0
  8  3  1  0  0  0  0
  8 14  1  0  0  0  0
  9  1  1  0  0  0  0
 10  2  1  0  0  0  0
 11  4  1  0  0  0  0
 11 12  1  0  0  0  0
 12  8  1  0  0  0  0
 13  6  1  0  0  0  0
 13  3  1  0  0  0  0
 14  9  1  0  0  0  0
 15 19  1  0  0  0  0
 15 21  1  0  0  0  0
 16 15  2  0  0  0  0
 17 12  1  0  0  0  0
 17 19  2  0  0  0  0
 18 20  2  0  0  0  0
 18 16  1  0  0  0  0
 20 17  1  0  0  0  0
 23 22  1  0  0  0  0
 24  4  1  0  0  0  0
 25 27  1  0  0  0  0
 25 24  1  0  0  0  0
 26 29  1  0  0  0  0
 27 26  2  0  0  0  0
 28 30  1  0  0  0  0
 29 33  1  0  0  0  0
 30 34  1  0  0  0  0
 30 29  1  0  0  0  0
 31 32  1  0  0  0  0
 32 33  2  0  0  0  0
 34 31  1  0  0  0  0
M  END
>  <MODEL>
8

>  <REMARK>
 VINA RESULT:      -7.1      3.536      8.898
  Name = 
  6 active torsions:
  status: ('A' for Active; 'I' for Inactive)
    1  A    between atoms: C_1  and  C_19
    2  A    between atoms: C_3  and  C_13
    3  A    between atoms: C_5  and  C_18
    4  A    between atoms: C_12  and  C_28
    5  A    between atoms: N_17  and  N_29
    6  A    between atoms: C_18  and  N_29
                            x       y       z     vdW  Elec       q    Type
                         _______ _______ _______ _____ _____    ______ ____

>  <TORSDO>
F 6

$$$$
=
 OpenBabel11052413563D

 34 38  0  0  1  0  0  0  0  0999 V2000
  192.1560  174.8990  137.9140 C   0  0  2  0  0  3  0  0  0  0  0  0
  190.2290  173.7710  136.6830 C   0  0  1  0  0  3  0  0  0  0  0  0
  189.8940  176.0080  137.7880 C   0  0  1  0  0  3  0  0  0  0  0  0
  187.6110  177.0630  137.6380 C   0  0  2  0  0  3  0  0  0  0  0  0
  190.5840  173.4000  135.2550 C   0  0  0  0  0  1  0  0  0  0  0  0
  188.1330  175.0320  136.2740 N   0  0  0  0  0  2  0  0  0  0  0  0
  190.8960  175.1100  137.0560 C   0  0  1  0  0  3  0  0  0  0  0  0
  190.5120  177.3310  138.2460 C   0  0  1  0  0  3  0  0  0  0  0  0
  192.7650  176.2380  138.3440 C   0  0  0  0  0  2  0  0  0  0  0  0
  188.7010  173.8040  136.8430 C   0  0  0  0  0  2  0  0  0  0  0  0
  188.2070  178.3900  138.1210 C   0  0  0  0  0  2  0  0  0  0  0  0
  189.4640  178.1940  138.9770 C   0  0  1  0  0  3  0  0  0  0  0  0
  188.6800  176.2630  136.8790 C   0  0  2  0  0  3  0  0  0  0  0  0
  191.7490  177.0790  139.1070 C   0  0  0  0  0  2  0  0  0  0  0  0
  187.7410  177.8130  142.3650 C   0  0  0  0  0  0  0  0  0  0  0  0
  188.5770  176.8790  142.9840 C   0  0  0  0  0  3  0  0  0  0  0  0
  189.1310  177.7420  140.3750 C   0  0  0  0  0  0  0  0  0  0  0  0
  189.6890  176.3770  142.3020 C   0  0  0  0  0  3  0  0  0  0  0  0
  188.0170  178.2450  141.0660 C   0  0  0  0  0  3  0  0  0  0  0  0
  189.9650  176.8100  141.0020 C   0  0  0  0  0  3  0  0  0  0  0  0
  186.6600  178.2950  143.0240 F   0  0  0  0  0  0  0  0  0  0  0  0
  194.5520  174.0570  137.9430 C   0  0  0  0  0  1  0  0  0  0  0  0
  193.2130  174.0390  137.2170 C   0  0  0  0  0  2  0  0  0  0  0  0
  186.4110  177.3790  136.7580 C   0  0  0  0  0  2  0  0  0  0  0  0
  185.2360  176.6780  137.2410 N   0  0  0  0  0  2  0  0  0  0  0  0
  184.4220  178.5050  138.4370 C   0  0  0  0  0  3  0  0  0  0  0  0
  184.4680  177.2250  138.2730 N   0  0  0  0  0  0  0  0  0  0  0  0
  181.3380  179.1670  138.0230 Cl  0  0  0  0  0  0  0  0  0  0  0  0
  183.6080  179.0960  139.5390 C   0  0  1  0  0  3  0  0  0  0  0  0
  182.1660  178.5750  139.4860 C   0  0  1  0  0  3  0  0  0  0  0  0
  182.1100  178.6830  141.9310 N   0  0  0  0  0  2  0  0  0  0  0  0
  183.5400  178.6240  141.9740 C   0  0  0  0  0  3  0  0  0  0  0  0
  184.2600  178.7960  140.8640 C   0  0  0  0  0  3  0  0  0  0  0  0
  181.4020  179.0660  140.7130 C   0  0  0  0  0  2  0  0  0  0  0  0
  1 23  1  6  0  0  0
  1  9  1  0  0  0  0
  2  5  1  6  0  0  0
  2 10  1  0  0  0  0
  2  7  1  0  0  0  0
  3  8  1  0  0  0  0
  4 11  1  0  0  0  0
  6 10  1  0  0  0  0
  6 13  1  0  0  0  0
  7  3  1  0  0  0  0
  7  1  1  0  0  0  0
  8 12  1  0  0  0  0
  8 14  1  0  0  0  0
  9 14  1  0  0  0  0
 11 12  1  0  0  0  0
 12 17  1  0  0  0  0
 13  4  1  0  0  0  0
 13  3  1  0  0  0  0
 15 16  1  0  0  0  0
 15 21  1  0  0  0  0
 17 20  2  0  0  0  0
 17 19  1  0  0  0  0
 18 16  2  0  0  0  0
 19 15  2  0  0  0  0
 20 18  1  0  0  0  0
 23 22  1  0  0  0  0
 24 25  1  0  0  0  0
 24  4  1  0  0  0  0
 25 27  1  0  0  0  0
 26 29  1  0  0  0  0
 27 26  2  0  0  0  0
 28 30  1  0  0  0  0
 29 33  1  0  0  0  0
 30 29  1  0  0  0  0
 30 34  1  0  0  0  0
 31 32  1  0  0  0  0
 33 32  2  0  0  0  0
 34 31  1  0  0  0  0
M  END
>  <MODEL>
9

>  <REMARK>
 VINA RESULT:      -7.0      1.942      2.377
  Name = 
  6 active torsions:
  status: ('A' for Active; 'I' for Inactive)
    1  A    between atoms: C_1  and  C_19
    2  A    between atoms: C_3  and  C_13
    3  A    between atoms: C_5  and  C_18
    4  A    between atoms: C_12  and  C_28
    5  A    between atoms: N_17  and  N_29
    6  A    between atoms: C_18  and  N_29
                            x       y       z     vdW  Elec       q    Type
                         _______ _______ _______ _____ _____    ______ ____

>  <TORSDO>
F 6

$$$$
