=
 OpenBabel11052414263D

 32 36  0  0  1  0  0  0  0  0999 V2000
  187.0520  178.1530  141.6620 C   0  0  0  0  0  0  0  0  0  0  0  0
  188.0360  177.4160  143.7870 C   0  0  0  0  0  0  0  0  0  0  0  0
  187.2210  178.4560  140.3050 C   0  0  0  0  0  3  0  0  0  0  0  0
  188.1660  177.6840  142.4040 C   0  0  0  0  0  0  0  0  0  0  0  0
  189.2050  176.8320  144.5650 C   0  0  2  0  0  3  0  0  0  0  0  0
  186.7960  177.6210  144.4230 C   0  0  0  0  0  0  0  0  0  0  0  0
  187.9420  177.8270  146.6120 C   0  0  1  0  0  3  0  0  0  0  0  0
  189.4030  177.5180  141.7430 C   0  0  0  0  0  0  0  0  0  0  0  0
  189.1930  177.1170  146.0790 C   0  0  0  0  0  2  0  0  0  0  0  0
  190.5960  176.9500  142.4510 C   0  0  0  0  0  2  0  0  0  0  0  0
  189.5120  177.8080  140.4190 N   0  0  0  0  0  0  0  0  0  0  0  0
  185.7000  178.0560  143.6690 C   0  0  0  0  0  3  0  0  0  0  0  0
  185.8020  178.3230  142.3010 C   0  0  0  0  0  0  0  0  0  0  0  0
  186.6650  177.3470  145.9070 C   0  0  1  0  0  3  0  0  0  0  0  0
  190.5510  177.2440  143.9500 C   0  0  2  0  0  3  0  0  0  0  0  0
  188.4610  178.2760  139.6980 C   0  0  0  0  0  3  0  0  0  0  0  0
  182.0990  178.6600  141.8890 C   0  0  0  0  0  0  0  0  0  0  0  0
  181.3800  179.6400  138.6150 O   0  0  0  0  0  1  0  0  0  0  0  0
  180.9690  178.8660  142.6740 O   0  0  0  0  0  1  0  0  0  0  0  0
  183.5940  179.5170  139.3860 C   0  0  0  0  0  3  0  0  0  0  0  0
  184.5800  178.7800  141.5930 C   0  0  0  0  0  0  0  0  0  0  0  0
  181.9040  178.1210  140.5120 C   0  0  0  0  0  2  0  0  0  0  0  0
  184.6810  179.0830  140.2850 C   0  0  0  0  0  3  0  0  0  0  0  0
  183.3190  178.9370  142.3780 C   0  0  0  0  0  0  0  0  0  0  0  0
  183.4510  179.5050  144.0430 Cl  0  0  0  0  0  0  0  0  0  0  0  0
  182.3250  179.1270  139.4930 C   0  0  0  0  0  0  0  0  0  0  0  0
  185.4350  178.0260  146.5230 C   0  0  0  0  0  2  0  0  0  0  0  0
  185.7410  179.4790  146.8470 C   0  0  0  0  0  1  0  0  0  0  0  0
  187.8820  177.6960  148.1370 C   0  0  0  0  0  2  0  0  0  0  0  0
  189.1190  178.2670  148.8170 C   0  0  0  0  0  1  0  0  0  0  0  0
  191.6980  176.6490  144.6440 N   0  0  0  0  0  2  0  0  0  0  0  0
  191.9230  175.2760  144.1960 C   0  0  0  0  0  1  0  0  0  0  0  0
  1 13  2  0  0  0  0
  1  4  1  0  0  0  0
  2  6  1  0  0  0  0
  2  5  1  0  0  0  0
  3  1  1  0  0  0  0
  4  2  2  0  0  0  0
  5  9  1  1  0  0  0
  6 14  1  0  0  0  0
  7 29  1  1  0  0  0
  8  4  1  0  0  0  0
  8 10  1  0  0  0  0
  9  7  1  0  0  0  0
 10 15  1  0  0  0  0
 11  8  2  0  0  0  0
 12  6  2  0  0  0  0
 13 12  1  0  0  0  0
 14 27  1  1  0  0  0
 14  7  1  0  0  0  0
 15  5  1  0  0  0  0
 15 31  1  1  0  0  0
 16  3  2  0  0  0  0
 16 11  1  0  0  0  0
 17 24  2  0  0  0  0
 17 19  1  0  0  0  0
 18 26  1  0  0  0  0
 20 26  2  0  0  0  0
 20 23  1  0  0  0  0
 21 13  1  0  0  0  0
 21 24  1  0  0  0  0
 22 17  1  0  0  0  0
 23 21  2  0  0  0  0
 24 25  1  0  0  0  0
 26 22  1  0  0  0  0
 27 28  1  0  0  0  0
 29 30  1  0  0  0  0
 32 31  1  0  0  0  0
M  END
>  <MODEL>
1

>  <REMARK>
 VINA RESULT:     -11.1      0.000      0.000
  Name = 
  4 active torsions:
  status: ('A' for Active; 'I' for Inactive)
    1  A    between atoms: C_9  and  C_28
    2  A    between atoms: C_11  and  C_12
    3  A    between atoms: N_13  and  C_29
    4  A    between atoms: C_16  and  C_27
                            x       y       z     vdW  Elec       q    Type
                         _______ _______ _______ _____ _____    ______ ____

>  <TORSDO>
F 4

$$$$
=
 OpenBabel11052414263D

 32 36  0  0  1  0  0  0  0  0999 V2000
  189.6620  177.1270  142.7410 C   0  0  0  0  0  0  0  0  0  0  0  0
  187.6210  177.6130  144.0150 C   0  0  0  0  0  0  0  0  0  0  0  0
  191.0290  176.8180  142.7390 C   0  0  0  0  0  3  0  0  0  0  0  0
  188.9890  177.2550  143.9820 C   0  0  0  0  0  0  0  0  0  0  0  0
  186.8780  177.6690  145.3400 C   0  0  2  0  0  3  0  0  0  0  0  0
  186.9320  177.8430  142.8090 C   0  0  0  0  0  0  0  0  0  0  0  0
  185.2560  179.2140  144.0150 C   0  0  1  0  0  3  0  0  0  0  0  0
  189.7170  177.0490  145.1750 C   0  0  0  0  0  0  0  0  0  0  0  0
  185.6430  178.5910  145.3620 C   0  0  0  0  0  2  0  0  0  0  0  0
  189.0470  177.0900  146.5150 C   0  0  0  0  0  2  0  0  0  0  0  0
  191.0380  176.7320  145.1200 N   0  0  0  0  0  0  0  0  0  0  0  0
  187.6040  177.6810  141.5910 C   0  0  0  0  0  3  0  0  0  0  0  0
  188.9540  177.3250  141.5330 C   0  0  0  0  0  0  0  0  0  0  0  0
  185.4710  178.2400  142.8480 C   0  0  1  0  0  3  0  0  0  0  0  0
  187.8240  178.0080  146.5020 C   0  0  2  0  0  3  0  0  0  0  0  0
  191.7020  176.6230  143.9420 C   0  0  0  0  0  3  0  0  0  0  0  0
  188.8990  176.4500  137.8960 C   0  0  0  0  0  0  0  0  0  0  0  0
  192.1750  176.1580  136.7220 O   0  0  0  0  0  1  0  0  0  0  0  0
  188.0410  176.5480  136.8050 O   0  0  0  0  0  1  0  0  0  0  0  0
  191.7290  176.9090  138.9010 C   0  0  0  0  0  3  0  0  0  0  0  0
  189.5730  177.1800  140.1910 C   0  0  0  0  0  0  0  0  0  0  0  0
  190.0380  175.4920  137.8040 C   0  0  0  0  0  2  0  0  0  0  0  0
  190.9140  177.0930  140.1180 C   0  0  0  0  0  3  0  0  0  0  0  0
  188.6840  177.1970  138.9910 C   0  0  0  0  0  0  0  0  0  0  0  0
  187.2690  178.2480  139.0290 Cl  0  0  0  0  0  0  0  0  0  0  0  0
  191.3380  176.2230  137.8280 C   0  0  0  0  0  0  0  0  0  0  0  0
  184.9990  178.8780  141.5350 C   0  0  0  0  0  2  0  0  0  0  0  0
  183.8850  178.0500  140.9160 C   0  0  0  0  0  1  0  0  0  0  0  0
  183.8300  179.7680  144.0920 C   0  0  0  0  0  2  0  0  0  0  0  0
  182.8190  178.7110  144.5190 C   0  0  0  0  0  1  0  0  0  0  0  0
  187.1470  178.0110  147.8040 N   0  0  0  0  0  2  0  0  0  0  0  0
  188.1150  177.9290  148.8950 C   0  0  0  0  0  1  0  0  0  0  0  0
  1  4  1  0  0  0  0
  2  5  1  0  0  0  0
  3  1  2  0  0  0  0
  3 16  1  0  0  0  0
  4  2  1  0  0  0  0
  4  8  2  0  0  0  0
  5  9  1  6  0  0  0
  5 15  1  0  0  0  0
  6 14  1  0  0  0  0
  6  2  2  0  0  0  0
  7 29  1  1  0  0  0
  7  9  1  0  0  0  0
  8 10  1  0  0  0  0
 11  8  1  0  0  0  0
 12  6  1  0  0  0  0
 13 12  2  0  0  0  0
 13  1  1  0  0  0  0
 14 27  1  6  0  0  0
 14  7  1  0  0  0  0
 15 10  1  0  0  0  0
 15 31  1  1  0  0  0
 16 11  2  0  0  0  0
 17 24  2  0  0  0  0
 18 26  1  0  0  0  0
 19 17  1  0  0  0  0
 20 23  1  0  0  0  0
 21 13  1  0  0  0  0
 22 26  1  0  0  0  0
 22 17  1  0  0  0  0
 23 21  2  0  0  0  0
 24 25  1  0  0  0  0
 24 21  1  0  0  0  0
 26 20  2  0  0  0  0
 28 27  1  0  0  0  0
 29 30  1  0  0  0  0
 31 32  1  0  0  0  0
M  END
>  <MODEL>
2

>  <REMARK>
 VINA RESULT:     -11.0      3.286      5.969
  Name = 
  4 active torsions:
  status: ('A' for Active; 'I' for Inactive)
    1  A    between atoms: C_9  and  C_28
    2  A    between atoms: C_11  and  C_12
    3  A    between atoms: N_13  and  C_29
    4  A    between atoms: C_16  and  C_27
                            x       y       z     vdW  Elec       q    Type
                         _______ _______ _______ _____ _____    ______ ____

>  <TORSDO>
F 4

$$$$
=
 OpenBabel11052414263D

 32 36  0  0  1  0  0  0  0  0999 V2000
  189.3570  177.6670  141.3200 C   0  0  0  0  0  0  0  0  0  0  0  0
  188.6130  177.3710  143.6400 C   0  0  0  0  0  0  0  0  0  0  0  0
  190.4110  177.7310  140.3980 C   0  0  0  0  0  3  0  0  0  0  0  0
  189.6510  177.3940  142.6800 C   0  0  0  0  0  0  0  0  0  0  0  0
  188.9150  176.9960  145.0820 C   0  0  2  0  0  3  0  0  0  0  0  0
  187.2870  177.6240  143.2390 C   0  0  0  0  0  0  0  0  0  0  0  0
  186.6980  178.2750  145.5570 C   0  0  1  0  0  3  0  0  0  0  0  0
  190.9950  177.1770  143.0550 C   0  0  0  0  0  0  0  0  0  0  0  0
  187.9210  177.5460  146.1250 C   0  0  0  0  0  2  0  0  0  0  0  0
  191.3630  176.8050  144.4600 C   0  0  0  0  0  2  0  0  0  0  0  0
  191.9800  177.2300  142.1200 N   0  0  0  0  0  0  0  0  0  0  0  0
  187.0110  177.8600  141.8870 C   0  0  0  0  0  3  0  0  0  0  0  0
  188.0190  177.8850  140.9190 C   0  0  0  0  0  0  0  0  0  0  0  0
  186.1790  177.6130  144.2720 C   0  0  1  0  0  3  0  0  0  0  0  0
  190.3560  177.3600  145.4680 C   0  0  2  0  0  3  0  0  0  0  0  0
  191.7200  177.5080  140.8170 C   0  0  0  0  0  3  0  0  0  0  0  0
  185.5890  177.9020  138.0740 C   0  0  0  0  0  0  0  0  0  0  0  0
  187.3190  178.3280  135.0720 O   0  0  0  0  0  1  0  0  0  0  0  0
  184.2380  178.1450  137.8490 O   0  0  0  0  0  1  0  0  0  0  0  0
  188.4220  178.4730  137.1390 C   0  0  0  0  0  3  0  0  0  0  0  0
  187.6200  178.1450  139.5130 C   0  0  0  0  0  0  0  0  0  0  0  0
  186.3460  177.1500  137.0330 C   0  0  0  0  0  2  0  0  0  0  0  0
  188.5930  178.2540  138.5880 C   0  0  0  0  0  3  0  0  0  0  0  0
  186.1710  178.3320  139.2060 C   0  0  0  0  0  0  0  0  0  0  0  0
  185.1730  179.1500  140.4080 Cl  0  0  0  0  0  0  0  0  0  0  0  0
  187.3960  178.0180  136.4230 C   0  0  0  0  0  0  0  0  0  0  0  0
  184.9130  178.3280  143.7840 C   0  0  0  0  0  2  0  0  0  0  0  0
  185.0660  179.8320  143.9300 C   0  0  0  0  0  1  0  0  0  0  0  0
  185.6280  178.4150  146.6440 C   0  0  0  0  0  2  0  0  0  0  0  0
  186.0420  179.3850  147.7430 C   0  0  0  0  0  1  0  0  0  0  0  0
  190.6970  176.9560  146.8370 N   0  0  0  0  0  2  0  0  0  0  0  0
  191.8900  176.1130  146.8500 C   0  0  0  0  0  1  0  0  0  0  0  0
  1  4  1  0  0  0  0
  2  5  1  0  0  0  0
  3 16  2  0  0  0  0
  3  1  1  0  0  0  0
  4  8  1  0  0  0  0
  4  2  2  0  0  0  0
  5 15  1  0  0  0  0
  5  9  1  1  0  0  0
  6  2  1  0  0  0  0
  6 14  1  0  0  0  0
  7  9  1  0  0  0  0
  7 29  1  1  0  0  0
  8 10  1  0  0  0  0
 10 15  1  0  0  0  0
 11  8  2  0  0  0  0
 12  6  2  0  0  0  0
 13  1  2  0  0  0  0
 13 12  1  0  0  0  0
 14 27  1  6  0  0  0
 14  7  1  0  0  0  0
 15 31  1  1  0  0  0
 16 11  1  0  0  0  0
 17 24  2  0  0  0  0
 18 26  1  0  0  0  0
 19 17  1  0  0  0  0
 20 23  1  0  0  0  0
 21 13  1  0  0  0  0
 22 17  1  0  0  0  0
 23 21  2  0  0  0  0
 24 21  1  0  0  0  0
 24 25  1  0  0  0  0
 26 22  1  0  0  0  0
 26 20  2  0  0  0  0
 27 28  1  0  0  0  0
 29 30  1  0  0  0  0
 31 32  1  0  0  0  0
M  END
>  <MODEL>
3

>  <REMARK>
 VINA RESULT:     -10.1      2.322      3.544
  Name = 
  4 active torsions:
  status: ('A' for Active; 'I' for Inactive)
    1  A    between atoms: C_9  and  C_28
    2  A    between atoms: C_11  and  C_12
    3  A    between atoms: N_13  and  C_29
    4  A    between atoms: C_16  and  C_27
                            x       y       z     vdW  Elec       q    Type
                         _______ _______ _______ _____ _____    ______ ____

>  <TORSDO>
F 4

$$$$
=
 OpenBabel11052414263D

 32 36  0  0  1  0  0  0  0  0999 V2000
  185.4200  178.3220  143.7870 C   0  0  0  0  0  0  0  0  0  0  0  0
  183.5840  178.5120  142.1680 C   0  0  0  0  0  0  0  0  0  0  0  0
  185.8590  178.3960  145.1150 C   0  0  0  0  0  3  0  0  0  0  0  0
  184.0470  178.5340  143.5050 C   0  0  0  0  0  0  0  0  0  0  0  0
  182.1010  178.6560  141.8700 C   0  0  2  0  0  3  0  0  0  0  0  0
  184.4960  178.2820  141.1190 C   0  0  0  0  0  0  0  0  0  0  0  0
  182.9550  179.3860  139.5230 C   0  0  1  0  0  3  0  0  0  0  0  0
  183.1640  178.7930  144.5760 C   0  0  0  0  0  0  0  0  0  0  0  0
  181.7620  179.1970  140.4680 C   0  0  0  0  0  2  0  0  0  0  0  0
  181.6900  178.9460  144.3530 C   0  0  0  0  0  2  0  0  0  0  0  0
  183.6350  178.8360  145.8510 N   0  0  0  0  0  0  0  0  0  0  0  0
  185.8430  178.0440  141.4180 C   0  0  0  0  0  3  0  0  0  0  0  0
  186.3230  178.0560  142.7310 C   0  0  0  0  0  0  0  0  0  0  0  0
  184.0010  178.2740  139.6880 C   0  0  1  0  0  3  0  0  0  0  0  0
  181.3870  179.4800  142.9530 C   0  0  2  0  0  3  0  0  0  0  0  0
  184.9490  178.6530  146.1380 C   0  0  0  0  0  3  0  0  0  0  0  0
  189.6840  176.7950  141.6790 C   0  0  0  0  0  0  0  0  0  0  0  0
  191.7450  176.5040  144.4830 O   0  0  0  0  0  1  0  0  0  0  0  0
  190.4760  176.7440  140.5360 O   0  0  0  0  0  1  0  0  0  0  0  0
  189.6100  177.4670  144.6410 C   0  0  0  0  0  3  0  0  0  0  0  0
  187.7690  177.7920  142.9400 C   0  0  0  0  0  0  0  0  0  0  0  0
  190.0220  175.8770  142.8040 C   0  0  0  0  0  2  0  0  0  0  0  0
  188.2280  177.7490  144.2050 C   0  0  0  0  0  3  0  0  0  0  0  0
  188.6470  177.6460  141.7410 C   0  0  0  0  0  0  0  0  0  0  0  0
  188.2860  178.6410  140.3310 Cl  0  0  0  0  0  0  0  0  0  0  0  0
  190.4520  176.6560  144.0020 C   0  0  0  0  0  0  0  0  0  0  0  0
  185.1350  178.4620  138.6720 C   0  0  0  0  0  2  0  0  0  0  0  0
  185.1940  177.2770  137.7230 C   0  0  0  0  0  1  0  0  0  0  0  0
  182.4550  179.5430  138.0830 C   0  0  0  0  0  2  0  0  0  0  0  0
  181.5080  178.4230  137.6720 C   0  0  0  0  0  1  0  0  0  0  0  0
  179.9420  179.5860  142.7250 N   0  0  0  0  0  2  0  0  0  0  0  0
  179.1970  179.2500  143.9360 C   0  0  0  0  0  1  0  0  0  0  0  0
  1  3  1  0  0  0  0
  2  4  1  0  0  0  0
  3 16  2  0  0  0  0
  4  1  2  0  0  0  0
  4  8  1  0  0  0  0
  5  9  1  6  0  0  0
  5  2  1  0  0  0  0
  5 15  1  0  0  0  0
  6 12  1  0  0  0  0
  6  2  2  0  0  0  0
  7 29  1  6  0  0  0
  7 14  1  0  0  0  0
  7  9  1  0  0  0  0
  8 11  2  0  0  0  0
 10  8  1  0  0  0  0
 11 16  1  0  0  0  0
 12 13  2  0  0  0  0
 13 21  1  0  0  0  0
 13  1  1  0  0  0  0
 14 27  1  6  0  0  0
 14  6  1  0  0  0  0
 15 31  1  6  0  0  0
 15 10  1  0  0  0  0
 17 24  2  0  0  0  0
 17 22  1  0  0  0  0
 19 17  1  0  0  0  0
 21 23  2  0  0  0  0
 22 26  1  0  0  0  0
 23 20  1  0  0  0  0
 24 21  1  0  0  0  0
 25 24  1  0  0  0  0
 26 18  1  0  0  0  0
 26 20  2  0  0  0  0
 28 27  1  0  0  0  0
 30 29  1  0  0  0  0
 31 32  1  0  0  0  0
M  END
>  <MODEL>
4

>  <REMARK>
 VINA RESULT:     -10.1      3.889      8.240
  Name = 
  4 active torsions:
  status: ('A' for Active; 'I' for Inactive)
    1  A    between atoms: C_9  and  C_28
    2  A    between atoms: C_11  and  C_12
    3  A    between atoms: N_13  and  C_29
    4  A    between atoms: C_16  and  C_27
                            x       y       z     vdW  Elec       q    Type
                         _______ _______ _______ _____ _____    ______ ____

>  <TORSDO>
F 4

$$$$
=
 OpenBabel11052414263D

 32 36  0  0  1  0  0  0  0  0999 V2000
  185.3990  178.4190  141.2800 C   0  0  0  0  0  0  0  0  0  0  0  0
  187.2380  177.7150  142.7460 C   0  0  0  0  0  0  0  0  0  0  0  0
  184.9710  178.8500  140.0180 C   0  0  0  0  0  3  0  0  0  0  0  0
  186.7690  178.1070  141.4710 C   0  0  0  0  0  0  0  0  0  0  0  0
  188.6880  177.2990  142.9330 C   0  0  2  0  0  3  0  0  0  0  0  0
  186.3370  177.6390  143.8260 C   0  0  0  0  0  0  0  0  0  0  0  0
  188.2160  177.8850  145.4240 C   0  0  1  0  0  3  0  0  0  0  0  0
  187.6530  178.2230  140.3750 C   0  0  0  0  0  0  0  0  0  0  0  0
  189.2380  177.4600  144.3630 C   0  0  0  0  0  2  0  0  0  0  0  0
  189.0950  177.8320  140.4900 C   0  0  0  0  0  2  0  0  0  0  0  0
  187.1850  178.6280  139.1640 N   0  0  0  0  0  0  0  0  0  0  0  0
  184.9820  177.9200  143.6130 C   0  0  0  0  0  3  0  0  0  0  0  0
  184.4950  178.3060  142.3610 C   0  0  0  0  0  0  0  0  0  0  0  0
  186.8450  177.2330  145.1940 C   0  0  1  0  0  3  0  0  0  0  0  0
  189.6080  177.9980  141.9200 C   0  0  2  0  0  3  0  0  0  0  0  0
  185.8810  178.9480  138.9680 C   0  0  0  0  0  3  0  0  0  0  0  0
  181.3220  178.7840  140.4360 C   0  0  0  0  0  0  0  0  0  0  0  0
  178.9360  180.2950  142.4890 O   0  0  0  0  0  1  0  0  0  0  0  0
  180.6810  178.2550  139.3210 O   0  0  0  0  0  1  0  0  0  0  0  0
  181.0110  179.6060  143.3440 C   0  0  0  0  0  3  0  0  0  0  0  0
  183.0410  178.5820  142.2420 C   0  0  0  0  0  0  0  0  0  0  0  0
  180.8700  180.1140  140.9370 C   0  0  0  0  0  2  0  0  0  0  0  0
  182.4290  179.2040  143.2670 C   0  0  0  0  0  3  0  0  0  0  0  0
  182.3230  178.1060  141.0220 C   0  0  0  0  0  0  0  0  0  0  0  0
  182.8320  176.5740  140.3120 Cl  0  0  0  0  0  0  0  0  0  0  0  0
  180.2750  179.9830  142.2990 C   0  0  0  0  0  0  0  0  0  0  0  0
  185.8790  177.6250  146.3200 C   0  0  0  0  0  2  0  0  0  0  0  0
  185.6860  179.1320  146.3500 C   0  0  0  0  0  1  0  0  0  0  0  0
  188.7850  177.6290  146.8230 C   0  0  0  0  0  2  0  0  0  0  0  0
  190.1000  176.8620  146.7840 C   0  0  0  0  0  1  0  0  0  0  0  0
  191.0080  177.5720  142.0360 N   0  0  0  0  0  2  0  0  0  0  0  0
  191.6370  177.4860  140.7200 C   0  0  0  0  0  1  0  0  0  0  0  0
  1  4  1  0  0  0  0
  1 13  2  0  0  0  0
  2  5  1  0  0  0  0
  2  6  1  0  0  0  0
  3  1  1  0  0  0  0
  4  2  2  0  0  0  0
  5  9  1  1  0  0  0
  6 14  1  0  0  0  0
  7 29  1  1  0  0  0
  8 10  1  0  0  0  0
  8  4  1  0  0  0  0
  9  7  1  0  0  0  0
 10 15  1  0  0  0  0
 11  8  2  0  0  0  0
 12  6  2  0  0  0  0
 13 12  1  0  0  0  0
 14  7  1  0  0  0  0
 14 27  1  1  0  0  0
 15 31  1  6  0  0  0
 15  5  1  0  0  0  0
 16 11  1  0  0  0  0
 16  3  2  0  0  0  0
 17 22  1  0  0  0  0
 17 24  2  0  0  0  0
 19 17  1  0  0  0  0
 21 13  1  0  0  0  0
 21 23  2  0  0  0  0
 22 26  1  0  0  0  0
 23 20  1  0  0  0  0
 24 21  1  0  0  0  0
 25 24  1  0  0  0  0
 26 18  1  0  0  0  0
 26 20  2  0  0  0  0
 27 28  1  0  0  0  0
 30 29  1  0  0  0  0
 32 31  1  0  0  0  0
M  END
>  <MODEL>
5

>  <REMARK>
 VINA RESULT:     -10.1      1.633      2.576
  Name = 
  4 active torsions:
  status: ('A' for Active; 'I' for Inactive)
    1  A    between atoms: C_9  and  C_28
    2  A    between atoms: C_11  and  C_12
    3  A    between atoms: N_13  and  C_29
    4  A    between atoms: C_16  and  C_27
                            x       y       z     vdW  Elec       q    Type
                         _______ _______ _______ _____ _____    ______ ____

>  <TORSDO>
F 4

$$$$
=
 OpenBabel11052414263D

 32 36  0  0  1  0  0  0  0  0999 V2000
  186.5520  178.1670  145.1390 C   0  0  0  0  0  0  0  0  0  0  0  0
  185.3700  178.2230  142.9880 C   0  0  0  0  0  0  0  0  0  0  0  0
  186.5100  178.2990  146.5330 C   0  0  0  0  0  3  0  0  0  0  0  0
  185.3500  178.3050  144.4000 C   0  0  0  0  0  0  0  0  0  0  0  0
  184.0710  178.2870  142.2000 C   0  0  2  0  0  3  0  0  0  0  0  0
  186.5910  178.0080  142.3200 C   0  0  0  0  0  0  0  0  0  0  0  0
  185.6460  178.9910  140.2510 C   0  0  1  0  0  3  0  0  0  0  0  0
  184.1470  178.5520  145.0980 C   0  0  0  0  0  0  0  0  0  0  0  0
  184.2100  178.7720  140.7440 C   0  0  0  0  0  2  0  0  0  0  0  0
  182.8310  178.6270  144.3830 C   0  0  0  0  0  2  0  0  0  0  0  0
  184.1550  178.6530  146.4530 N   0  0  0  0  0  0  0  0  0  0  0  0
  187.7640  177.8430  143.0670 C   0  0  0  0  0  3  0  0  0  0  0  0
  187.7680  177.9150  144.4630 C   0  0  0  0  0  0  0  0  0  0  0  0
  186.6120  177.9360  140.8080 C   0  0  1  0  0  3  0  0  0  0  0  0
  183.0040  179.1060  142.9410 C   0  0  2  0  0  3  0  0  0  0  0  0
  185.2990  178.5420  147.1750 C   0  0  0  0  0  3  0  0  0  0  0  0
  191.4970  177.6350  144.5830 C   0  0  0  0  0  0  0  0  0  0  0  0
  192.4600  176.2610  147.6460 O   0  0  0  0  0  1  0  0  0  0  0  0
  192.6130  178.2060  143.9790 O   0  0  0  0  0  1  0  0  0  0  0  0
  190.2210  176.8220  147.2170 C   0  0  0  0  0  3  0  0  0  0  0  0
  189.0660  177.7270  145.1600 C   0  0  0  0  0  0  0  0  0  0  0  0
  191.6740  176.3330  145.2880 C   0  0  0  0  0  2  0  0  0  0  0  0
  189.0540  177.1390  146.3710 C   0  0  0  0  0  3  0  0  0  0  0  0
  190.3050  178.2500  144.5120 C   0  0  0  0  0  0  0  0  0  0  0  0
  190.1840  179.7510  143.5950 Cl  0  0  0  0  0  0  0  0  0  0  0  0
  191.4250  176.4940  146.7510 C   0  0  0  0  0  0  0  0  0  0  0  0
  188.0170  178.1480  140.2280 C   0  0  0  0  0  2  0  0  0  0  0  0
  188.2950  177.1320  139.1340 C   0  0  0  0  0  1  0  0  0  0  0  0
  185.6590  179.0830  138.7220 C   0  0  0  0  0  2  0  0  0  0  0  0
  184.8040  178.0050  138.0680 C   0  0  0  0  0  1  0  0  0  0  0  0
  181.7190  179.1360  142.2340 N   0  0  0  0  0  2  0  0  0  0  0  0
  180.6200  178.7910  143.1330 C   0  0  0  0  0  1  0  0  0  0  0  0
  1  3  1  0  0  0  0
  2  4  1  0  0  0  0
  3 16  2  0  0  0  0
  4  8  1  0  0  0  0
  4  1  2  0  0  0  0
  5  9  1  6  0  0  0
  5 15  1  0  0  0  0
  5  2  1  0  0  0  0
  6  2  2  0  0  0  0
  6 12  1  0  0  0  0
  7 29  1  6  0  0  0
  7  9  1  0  0  0  0
  7 14  1  0  0  0  0
  8 11  2  0  0  0  0
 10  8  1  0  0  0  0
 11 16  1  0  0  0  0
 12 13  2  0  0  0  0
 13  1  1  0  0  0  0
 13 21  1  0  0  0  0
 14 27  1  6  0  0  0
 14  6  1  0  0  0  0
 15 31  1  6  0  0  0
 15 10  1  0  0  0  0
 17 22  1  0  0  0  0
 19 17  1  0  0  0  0
 21 23  2  0  0  0  0
 22 26  1  0  0  0  0
 23 20  1  0  0  0  0
 24 17  2  0  0  0  0
 24 21  1  0  0  0  0
 25 24  1  0  0  0  0
 26 20  2  0  0  0  0
 26 18  1  0  0  0  0
 28 27  1  0  0  0  0
 30 29  1  0  0  0  0
 31 32  1  0  0  0  0
M  END
>  <MODEL>
6

>  <REMARK>
 VINA RESULT:      -9.9      4.049      8.243
  Name = 
  4 active torsions:
  status: ('A' for Active; 'I' for Inactive)
    1  A    between atoms: C_9  and  C_28
    2  A    between atoms: C_11  and  C_12
    3  A    between atoms: N_13  and  C_29
    4  A    between atoms: C_16  and  C_27
                            x       y       z     vdW  Elec       q    Type
                         _______ _______ _______ _____ _____    ______ ____

>  <TORSDO>
F 4

$$$$
=
 OpenBabel11052414263D

 32 36  0  0  1  0  0  0  0  0999 V2000
  189.3320  177.4490  142.3430 C   0  0  0  0  0  0  0  0  0  0  0  0
  187.2740  178.2980  141.3080 C   0  0  0  0  0  0  0  0  0  0  0  0
  190.6470  176.9900  142.1930 C   0  0  0  0  0  3  0  0  0  0  0  0
  188.6190  177.8740  141.1940 C   0  0  0  0  0  0  0  0  0  0  0  0
  186.5350  178.8330  140.0910 C   0  0  2  0  0  3  0  0  0  0  0  0
  186.6460  178.2910  142.5690 C   0  0  0  0  0  0  0  0  0  0  0  0
  184.4250  178.1960  141.4740 C   0  0  1  0  0  3  0  0  0  0  0  0
  189.2670  177.8390  139.9390 C   0  0  0  0  0  0  0  0  0  0  0  0
  185.0000  178.7110  140.1500 C   0  0  0  0  0  2  0  0  0  0  0  0
  188.5960  178.3500  138.6990 C   0  0  0  0  0  2  0  0  0  0  0  0
  190.5510  177.4030  139.8480 N   0  0  0  0  0  0  0  0  0  0  0  0
  187.3750  177.8980  143.6980 C   0  0  0  0  0  3  0  0  0  0  0  0
  188.7060  177.4790  143.6100 C   0  0  0  0  0  0  0  0  0  0  0  0
  185.2020  178.7310  142.6850 C   0  0  1  0  0  3  0  0  0  0  0  0
  187.0760  178.2200  138.7910 C   0  0  2  0  0  3  0  0  0  0  0  0
  191.2430  176.9750  140.9350 C   0  0  0  0  0  3  0  0  0  0  0  0
  189.1650  177.4980  147.3240 C   0  0  0  0  0  0  0  0  0  0  0  0
  192.3300  176.2520  148.1080 O   0  0  0  0  0  1  0  0  0  0  0  0
  188.3880  177.5010  148.4780 O   0  0  0  0  0  1  0  0  0  0  0  0
  191.5270  176.2200  145.9030 C   0  0  0  0  0  3  0  0  0  0  0  0
  189.3880  177.0820  144.8680 C   0  0  0  0  0  0  0  0  0  0  0  0
  190.5950  177.9030  147.4430 C   0  0  0  0  0  2  0  0  0  0  0  0
  190.6540  176.6300  144.7850 C   0  0  0  0  0  3  0  0  0  0  0  0
  188.6200  177.1470  146.1460 C   0  0  0  0  0  0  0  0  0  0  0  0
  186.9020  176.7530  146.0960 Cl  0  0  0  0  0  0  0  0  0  0  0  0
  191.4910  176.7530  147.1230 C   0  0  0  0  0  0  0  0  0  0  0  0
  184.5450  178.2530  143.9870 C   0  0  0  0  0  2  0  0  0  0  0  0
  184.3250  179.4250  144.9290 C   0  0  0  0  0  1  0  0  0  0  0  0
  182.9230  178.4910  141.5360 C   0  0  0  0  0  2  0  0  0  0  0  0
  182.1760  177.9540  140.3220 C   0  0  0  0  0  1  0  0  0  0  0  0
  186.4230  178.7610  137.5930 N   0  0  0  0  0  2  0  0  0  0  0  0
  187.2690  178.5890  136.4150 C   0  0  0  0  0  1  0  0  0  0  0  0
  1 13  2  0  0  0  0
  2  6  1  0  0  0  0
  3  1  1  0  0  0  0
  4  2  2  0  0  0  0
  4  1  1  0  0  0  0
  5  9  1  1  0  0  0
  5  2  1  0  0  0  0
  6 14  1  0  0  0  0
  6 12  2  0  0  0  0
  7 29  1  1  0  0  0
  7 14  1  0  0  0  0
  8  4  1  0  0  0  0
  9  7  1  0  0  0  0
 10 15  1  0  0  0  0
 10  8  1  0  0  0  0
 11  8  2  0  0  0  0
 11 16  1  0  0  0  0
 13 12  1  0  0  0  0
 13 21  1  0  0  0  0
 14 27  1  1  0  0  0
 15 31  1  6  0  0  0
 15  5  1  0  0  0  0
 16  3  2  0  0  0  0
 17 22  1  0  0  0  0
 17 19  1  0  0  0  0
 20 26  2  0  0  0  0
 21 24  1  0  0  0  0
 23 21  2  0  0  0  0
 23 20  1  0  0  0  0
 24 17  2  0  0  0  0
 25 24  1  0  0  0  0
 26 22  1  0  0  0  0
 26 18  1  0  0  0  0
 27 28  1  0  0  0  0
 30 29  1  0  0  0  0
 32 31  1  0  0  0  0
M  END
>  <MODEL>
7

>  <REMARK>
 VINA RESULT:      -9.8      3.309      7.053
  Name = 
  4 active torsions:
  status: ('A' for Active; 'I' for Inactive)
    1  A    between atoms: C_9  and  C_28
    2  A    between atoms: C_11  and  C_12
    3  A    between atoms: N_13  and  C_29
    4  A    between atoms: C_16  and  C_27
                            x       y       z     vdW  Elec       q    Type
                         _______ _______ _______ _____ _____    ______ ____

>  <TORSDO>
F 4

$$$$
=
 OpenBabel11052414263D

 32 36  0  0  1  0  0  0  0  0999 V2000
  183.9950  178.6330  142.2110 C   0  0  0  0  0  0  0  0  0  0  0  0
  186.3820  178.3530  142.7110 C   0  0  0  0  0  0  0  0  0  0  0  0
  182.6780  178.7380  142.6770 C   0  0  0  0  0  3  0  0  0  0  0  0
  185.0480  178.5090  143.1530 C   0  0  0  0  0  0  0  0  0  0  0  0
  187.5200  178.3050  143.7180 C   0  0  2  0  0  3  0  0  0  0  0  0
  186.6590  178.3180  141.3300 C   0  0  0  0  0  0  0  0  0  0  0  0
  188.7810  177.1180  141.7750 C   0  0  1  0  0  3  0  0  0  0  0  0
  184.7330  178.5160  144.5300 C   0  0  0  0  0  0  0  0  0  0  0  0
  188.7890  177.5730  143.2390 C   0  0  0  0  0  2  0  0  0  0  0  0
  185.8060  178.4690  145.5760 C   0  0  0  0  0  2  0  0  0  0  0  0
  183.4410  178.6400  144.9320 N   0  0  0  0  0  0  0  0  0  0  0  0
  185.6110  178.4730  140.4150 C   0  0  0  0  0  3  0  0  0  0  0  0
  184.2850  178.6320  140.8280 C   0  0  0  0  0  0  0  0  0  0  0  0
  188.0870  178.1360  140.8600 C   0  0  1  0  0  3  0  0  0  0  0  0
  187.0520  177.7430  145.0690 C   0  0  2  0  0  3  0  0  0  0  0  0
  182.4190  178.7410  144.0450 C   0  0  0  0  0  3  0  0  0  0  0  0
  182.2990  177.4610  137.8810 C   0  0  0  0  0  0  0  0  0  0  0  0
  180.6900  180.1870  136.4080 O   0  0  0  0  0  1  0  0  0  0  0  0
  181.7200  176.2900  137.4040 O   0  0  0  0  0  1  0  0  0  0  0  0
  181.8750  180.4210  138.4210 C   0  0  0  0  0  3  0  0  0  0  0  0
  183.2490  178.7880  139.7760 C   0  0  0  0  0  0  0  0  0  0  0  0
  182.5150  178.5770  136.9160 C   0  0  0  0  0  2  0  0  0  0  0  0
  182.8570  180.0360  139.4540 C   0  0  0  0  0  3  0  0  0  0  0  0
  182.6550  177.5580  139.1730 C   0  0  0  0  0  0  0  0  0  0  0  0
  182.4230  176.1580  140.2190 Cl  0  0  0  0  0  0  0  0  0  0  0  0
  181.6760  179.7550  137.2840 C   0  0  0  0  0  0  0  0  0  0  0  0
  188.1710  177.6760  139.3990 C   0  0  0  0  0  2  0  0  0  0  0  0
  189.0410  178.6280  138.5950 C   0  0  0  0  0  1  0  0  0  0  0  0
  190.2070  176.7730  141.3320 C   0  0  0  0  0  2  0  0  0  0  0  0
  191.2620  177.5050  142.1520 C   0  0  0  0  0  1  0  0  0  0  0  0
  188.1140  177.7390  146.0810 N   0  0  0  0  0  2  0  0  0  0  0  0
  187.5550  177.8780  147.4240 C   0  0  0  0  0  1  0  0  0  0  0  0
  1  3  2  0  0  0  0
  1  4  1  0  0  0  0
  2  4  1  0  0  0  0
  2  5  1  0  0  0  0
  3 16  1  0  0  0  0
  4  8  2  0  0  0  0
  5  9  1  6  0  0  0
  5 15  1  0  0  0  0
  6  2  2  0  0  0  0
  7 29  1  6  0  0  0
  7  9  1  0  0  0  0
  8 11  1  0  0  0  0
  8 10  1  0  0  0  0
 12 13  2  0  0  0  0
 12  6  1  0  0  0  0
 13  1  1  0  0  0  0
 14 27  1  6  0  0  0
 14  6  1  0  0  0  0
 14  7  1  0  0  0  0
 15 10  1  0  0  0  0
 15 31  1  1  0  0  0
 16 11  2  0  0  0  0
 17 24  2  0  0  0  0
 18 26  1  0  0  0  0
 19 17  1  0  0  0  0
 20 23  1  0  0  0  0
 21 13  1  0  0  0  0
 22 26  1  0  0  0  0
 22 17  1  0  0  0  0
 23 21  2  0  0  0  0
 24 21  1  0  0  0  0
 24 25  1  0  0  0  0
 26 20  2  0  0  0  0
 28 27  1  0  0  0  0
 29 30  1  0  0  0  0
 31 32  1  0  0  0  0
M  END
>  <MODEL>
8

>  <REMARK>
 VINA RESULT:      -9.8      2.274      4.878
  Name = 
  4 active torsions:
  status: ('A' for Active; 'I' for Inactive)
    1  A    between atoms: C_9  and  C_28
    2  A    between atoms: C_11  and  C_12
    3  A    between atoms: N_13  and  C_29
    4  A    between atoms: C_16  and  C_27
                            x       y       z     vdW  Elec       q    Type
                         _______ _______ _______ _____ _____    ______ ____

>  <TORSDO>
F 4

$$$$
=
 OpenBabel11052414263D

 32 36  0  0  1  0  0  0  0  0999 V2000
  185.2160  178.6150  139.6740 C   0  0  0  0  0  0  0  0  0  0  0  0
  186.0040  178.1740  141.9570 C   0  0  0  0  0  0  0  0  0  0  0  0
  185.5070  178.7420  138.3090 C   0  0  0  0  0  3  0  0  0  0  0  0
  186.2590  178.2630  140.5680 C   0  0  0  0  0  0  0  0  0  0  0  0
  187.0990  177.7140  142.9060 C   0  0  2  0  0  3  0  0  0  0  0  0
  184.7110  178.4410  142.4470 C   0  0  0  0  0  0  0  0  0  0  0  0
  185.6510  178.9470  144.6840 C   0  0  1  0  0  3  0  0  0  0  0  0
  187.5520  178.0320  140.0490 C   0  0  0  0  0  0  0  0  0  0  0  0
  186.9480  178.1930  144.3630 C   0  0  0  0  0  2  0  0  0  0  0  0
  188.6770  177.5780  140.9290 C   0  0  0  0  0  2  0  0  0  0  0  0
  187.7800  178.1490  138.7140 N   0  0  0  0  0  0  0  0  0  0  0  0
  183.6870  178.7580  141.5460 C   0  0  0  0  0  3  0  0  0  0  0  0
  183.9130  178.8480  140.1700 C   0  0  0  0  0  0  0  0  0  0  0  0
  184.4450  178.3600  143.9350 C   0  0  1  0  0  3  0  0  0  0  0  0
  188.4950  178.0630  142.3670 C   0  0  2  0  0  3  0  0  0  0  0  0
  186.7980  178.5030  137.8460 C   0  0  0  0  0  3  0  0  0  0  0  0
  181.3270  178.0810  137.5760 C   0  0  0  0  0  0  0  0  0  0  0  0
  179.9380  181.0640  136.4060 O   0  0  0  0  0  1  0  0  0  0  0  0
  180.5070  177.0260  137.1900 O   0  0  0  0  0  1  0  0  0  0  0  0
  181.4510  181.0520  138.2010 C   0  0  0  0  0  3  0  0  0  0  0  0
  182.7580  179.1910  139.3020 C   0  0  0  0  0  0  0  0  0  0  0  0
  181.5530  179.1840  136.5980 C   0  0  0  0  0  2  0  0  0  0  0  0
  182.5140  180.4920  139.0580 C   0  0  0  0  0  3  0  0  0  0  0  0
  181.8950  178.0830  138.7940 C   0  0  0  0  0  0  0  0  0  0  0  0
  181.6220  176.6990  139.8520 Cl  0  0  0  0  0  0  0  0  0  0  0  0
  180.9730  180.4610  137.1070 C   0  0  0  0  0  0  0  0  0  0  0  0
  183.1620  179.0950  144.3450 C   0  0  0  0  0  2  0  0  0  0  0  0
  181.9410  178.2710  143.9720 C   0  0  0  0  0  1  0  0  0  0  0  0
  185.4530  179.0140  146.2010 C   0  0  0  0  0  2  0  0  0  0  0  0
  186.5300  178.2510  146.9610 C   0  0  0  0  0  1  0  0  0  0  0  0
  189.5760  177.5800  143.2330 N   0  0  0  0  0  2  0  0  0  0  0  0
  189.9480  176.2100  142.8860 C   0  0  0  0  0  1  0  0  0  0  0  0
  1 13  2  0  0  0  0
  1  4  1  0  0  0  0
  2  6  1  0  0  0  0
  2  5  1  0  0  0  0
  3  1  1  0  0  0  0
  4  2  2  0  0  0  0
  5  9  1  1  0  0  0
  6 14  1  0  0  0  0
  7 29  1  1  0  0  0
  8  4  1  0  0  0  0
  8 10  1  0  0  0  0
  9  7  1  0  0  0  0
 10 15  1  0  0  0  0
 11  8  2  0  0  0  0
 12  6  2  0  0  0  0
 13 12  1  0  0  0  0
 14 27  1  6  0  0  0
 14  7  1  0  0  0  0
 15  5  1  0  0  0  0
 15 31  1  1  0  0  0
 16  3  2  0  0  0  0
 16 11  1  0  0  0  0
 17 24  2  0  0  0  0
 18 26  1  0  0  0  0
 19 17  1  0  0  0  0
 20 23  1  0  0  0  0
 21 13  1  0  0  0  0
 22 26  1  0  0  0  0
 22 17  1  0  0  0  0
 23 21  2  0  0  0  0
 24 21  1  0  0  0  0
 24 25  1  0  0  0  0
 26 20  2  0  0  0  0
 28 27  1  0  0  0  0
 29 30  1  0  0  0  0
 32 31  1  0  0  0  0
M  END
>  <MODEL>
9

>  <REMARK>
 VINA RESULT:      -9.3      2.126      3.328
  Name = 
  4 active torsions:
  status: ('A' for Active; 'I' for Inactive)
    1  A    between atoms: C_9  and  C_28
    2  A    between atoms: C_11  and  C_12
    3  A    between atoms: N_13  and  C_29
    4  A    between atoms: C_16  and  C_27
                            x       y       z     vdW  Elec       q    Type
                         _______ _______ _______ _____ _____    ______ ____

>  <TORSDO>
F 4

$$$$
