=
 OpenBabel11052414453D

 32 34  0  0  1  0  0  0  0  0999 V2000
  186.1920  177.4930  143.7590 C   0  0  2  0  0  3  0  0  0  0  0  0
  185.0680  178.4060  143.2650 C   0  0  2  0  0  3  0  0  0  0  0  0
  183.9470  178.5360  144.3380 C   0  0  0  0  0  2  0  0  0  0  0  0
  181.5050  179.1010  140.5010 C   0  0  0  0  0  0  0  0  0  0  0  0
  184.5460  178.0100  141.8580 C   0  0  0  0  0  2  0  0  0  0  0  0
  181.1890  179.2080  141.8520 O   0  0  0  0  0  0  0  0  0  0  0  0
  182.3130  178.6980  142.5350 C   0  0  2  0  0  3  0  0  0  0  0  0
  182.7150  179.3260  143.8470 C   0  0  0  0  0  2  0  0  0  0  0  0
  182.7550  178.8530  140.2640 N   0  0  0  0  0  0  0  0  0  0  0  0
  180.4920  179.2100  139.4190 C   0  0  0  0  0  1  0  0  0  0  0  0
  183.4120  178.9580  141.5530 C   0  0  2  0  0  3  0  0  0  0  0  0
  186.0890  177.3150  145.2710 C   0  0  0  0  0  2  0  0  0  0  0  0
  187.0180  178.2550  146.0300 C   0  0  1  0  0  3  0  0  0  0  0  0
  186.1570  179.0820  146.9700 C   0  0  0  0  0  1  0  0  0  0  0  0
  188.0870  177.4600  146.8000 C   0  0  2  0  0  3  0  0  0  0  0  0
  187.9050  177.5320  148.3110 C   0  0  0  0  0  1  0  0  0  0  0  0
  189.5220  177.8500  146.4210 C   0  0  0  0  0  2  0  0  0  0  0  0
  190.3050  176.7210  145.9150 N   0  0  0  0  0  0  0  0  0  0  0  0
  191.6130  176.8090  146.5540 C   0  0  1  0  0  3  0  0  0  0  0  0
  191.4500  176.9500  148.0540 C   0  0  0  0  0  2  0  0  0  0  0  0
  191.8160  175.6090  147.4620 C   0  0  2  0  0  3  0  0  0  0  0  0
  193.1820  175.3900  147.6260 O   0  0  0  0  0  1  0  0  0  0  0  0
  190.5120  176.9270  144.5890 O   0  0  0  0  0  0  0  0  0  0  0  0
  191.6720  177.7070  144.5210 C   0  0  0  0  0  2  0  0  0  0  0  0
  190.8800  179.9200  144.2000 F   0  0  0  0  0  0  0  0  0  0  0  0
  191.4650  178.8510  143.5480 C   0  0  0  0  0  2  0  0  0  0  0  0
  187.5640  178.0240  143.3510 C   0  0  0  0  0  2  0  0  0  0  0  0
  188.2140  177.0790  142.3560 C   0  0  0  0  0  2  0  0  0  0  0  0
  188.9480  177.8540  141.2790 C   0  0  1  0  0  3  0  0  0  0  0  0
  190.0810  177.0110  140.7180 C   0  0  0  0  0  1  0  0  0  0  0  0
  188.6260  178.9110  139.1630 O   0  0  0  0  0  1  0  0  0  0  0  0
  187.9720  178.2040  140.1720 C   0  0  0  0  0  2  0  0  0  0  0  0
  1 27  1  1  0  0  0
  1 12  1  0  0  0  0
  2  1  1  1  0  0  0
  2  3  1  0  0  0  0
  4  6  1  0  0  0  0
  5  2  1  0  0  0  0
  6  7  1  0  0  0  0
  7  8  1  1  0  0  0
  8  3  1  0  0  0  0
  9  4  2  0  0  0  0
  9 11  1  0  0  0  0
 10  4  1  0  0  0  0
 11  5  1  6  0  0  0
 11  7  1  0  0  0  0
 12 13  1  0  0  0  0
 13 15  1  0  0  0  0
 13 14  1  1  0  0  0
 15 16  1  1  0  0  0
 17 15  1  0  0  0  0
 18 17  1  0  0  0  0
 19 18  1  6  0  0  0
 19 21  1  0  0  0  0
 19 20  1  0  0  0  0
 21 22  1  1  0  0  0
 21 20  1  0  0  0  0
 23 18  1  0  0  0  0
 24 23  1  0  0  0  0
 26 25  1  0  0  0  0
 26 24  1  0  0  0  0
 28 27  1  0  0  0  0
 29 30  1  6  0  0  0
 29 28  1  0  0  0  0
 31 32  1  0  0  0  0
 32 29  1  0  0  0  0
M  END
>  <MODEL>
1

>  <REMARK>
 VINA RESULT:      -7.4      0.000      0.000
  Name = 
  14 active torsions:
  status: ('A' for Active; 'I' for Inactive)
    1  A    between atoms: C_1  and  C_4
    2  A    between atoms: C_1  and  C_5
    3  A    between atoms: C_2  and  C_5
    4  A    between atoms: C_3  and  N_20
    5  A    between atoms: C_4  and  C_24
    6  A    between atoms: C_5  and  C_14
    7  A    between atoms: C_13  and  C_29
    8  A    between atoms: C_13  and  C_30
    9  A    between atoms: C_14  and  C_30
   10  A    between atoms: O_15  and  N_20
   11  A    between atoms: O_15  and  C_26
   12  A    between atoms: C_16  and  N_20
   13  A    between atoms: C_16  and  C_24
   14  A    between atoms: C_19  and  C_26
                            x       y       z     vdW  Elec       q    Type
                         _______ _______ _______ _____ _____    ______ ____

>  <TORSDO>
F 14

$$$$
=
 OpenBabel11052414453D

 32 34  0  0  1  0  0  0  0  0999 V2000
  187.2330  177.9600  144.8940 C   0  0  2  0  0  3  0  0  0  0  0  0
  186.0250  178.6670  144.2770 C   0  0  2  0  0  3  0  0  0  0  0  0
  184.8480  178.7440  145.2940 C   0  0  0  0  0  2  0  0  0  0  0  0
  182.5320  178.6250  141.3400 C   0  0  0  0  0  0  0  0  0  0  0  0
  185.6240  178.0780  142.8980 C   0  0  0  0  0  2  0  0  0  0  0  0
  182.1440  178.8120  142.6630 O   0  0  0  0  0  0  0  0  0  0  0  0
  183.2910  178.5210  143.4290 C   0  0  2  0  0  3  0  0  0  0  0  0
  183.5480  179.3150  144.6870 C   0  0  0  0  0  2  0  0  0  0  0  0
  183.8130  178.5260  141.1710 N   0  0  0  0  0  0  0  0  0  0  0  0
  181.5650  178.4990  140.2190 C   0  0  0  0  0  1  0  0  0  0  0  0
  184.3920  178.8340  142.4650 C   0  0  2  0  0  3  0  0  0  0  0  0
  187.8600  177.0150  143.8740 C   0  0  0  0  0  2  0  0  0  0  0  0
  188.9950  177.6720  143.0970 C   0  0  1  0  0  3  0  0  0  0  0  0
  189.9460  178.2830  144.1130 C   0  0  0  0  0  1  0  0  0  0  0  0
  189.7110  176.6420  142.2060 C   0  0  2  0  0  3  0  0  0  0  0  0
  190.4400  175.5710  143.0060 C   0  0  0  0  0  1  0  0  0  0  0  0
  190.6660  177.2820  141.1880 C   0  0  0  0  0  2  0  0  0  0  0  0
  190.8330  176.4750  139.9770 N   0  0  0  0  0  0  0  0  0  0  0  0
  191.7670  177.2020  139.1260 C   0  0  1  0  0  3  0  0  0  0  0  0
  193.1170  177.3080  139.8060 C   0  0  0  0  0  2  0  0  0  0  0  0
  192.9030  176.2820  138.7170 C   0  0  2  0  0  3  0  0  0  0  0  0
  193.4600  176.7490  137.5280 O   0  0  0  0  0  1  0  0  0  0  0  0
  189.6440  176.4670  139.3230 O   0  0  0  0  0  0  0  0  0  0  0  0
  189.4820  177.7740  138.8510 C   0  0  0  0  0  2  0  0  0  0  0  0
  187.5460  178.2490  140.1380 F   0  0  0  0  0  0  0  0  0  0  0  0
  188.0100  178.1380  138.8410 C   0  0  0  0  0  2  0  0  0  0  0  0
  186.8540  177.2250  146.1780 C   0  0  0  0  0  2  0  0  0  0  0  0
  188.1050  176.7540  146.8990 C   0  0  0  0  0  2  0  0  0  0  0  0
  188.7930  177.9120  147.5950 C   0  0  1  0  0  3  0  0  0  0  0  0
  188.1590  178.1460  148.9550 C   0  0  0  0  0  1  0  0  0  0  0  0
  190.5360  176.3250  147.2220 O   0  0  0  0  0  1  0  0  0  0  0  0
  190.2640  177.5810  147.7650 C   0  0  0  0  0  2  0  0  0  0  0  0
  1 12  1  6  0  0  0
  1 27  1  0  0  0  0
  2  1  1  1  0  0  0
  2  3  1  0  0  0  0
  4  6  1  0  0  0  0
  5  2  1  0  0  0  0
  6  7  1  0  0  0  0
  7  8  1  1  0  0  0
  8  3  1  0  0  0  0
  9  4  2  0  0  0  0
  9 11  1  0  0  0  0
 10  4  1  0  0  0  0
 11  5  1  1  0  0  0
 11  7  1  0  0  0  0
 13 12  1  0  0  0  0
 13 14  1  1  0  0  0
 15 16  1  1  0  0  0
 15 13  1  0  0  0  0
 17 15  1  0  0  0  0
 18 17  1  0  0  0  0
 19 20  1  0  0  0  0
 19 18  1  1  0  0  0
 21 22  1  6  0  0  0
 21 19  1  0  0  0  0
 21 20  1  0  0  0  0
 23 18  1  0  0  0  0
 24 23  1  0  0  0  0
 26 24  1  0  0  0  0
 26 25  1  0  0  0  0
 27 28  1  0  0  0  0
 28 29  1  0  0  0  0
 29 32  1  0  0  0  0
 29 30  1  1  0  0  0
 31 32  1  0  0  0  0
M  END
>  <MODEL>
2

>  <REMARK>
 VINA RESULT:      -7.2      2.377      5.334
  Name = 
  14 active torsions:
  status: ('A' for Active; 'I' for Inactive)
    1  A    between atoms: C_1  and  C_4
    2  A    between atoms: C_1  and  C_5
    3  A    between atoms: C_2  and  C_5
    4  A    between atoms: C_3  and  N_20
    5  A    between atoms: C_4  and  C_24
    6  A    between atoms: C_5  and  C_14
    7  A    between atoms: C_13  and  C_29
    8  A    between atoms: C_13  and  C_30
    9  A    between atoms: C_14  and  C_30
   10  A    between atoms: O_15  and  N_20
   11  A    between atoms: O_15  and  C_26
   12  A    between atoms: C_16  and  N_20
   13  A    between atoms: C_16  and  C_24
   14  A    between atoms: C_19  and  C_26
                            x       y       z     vdW  Elec       q    Type
                         _______ _______ _______ _____ _____    ______ ____

>  <TORSDO>
F 14

$$$$
=
 OpenBabel11052414453D

 32 34  0  0  1  0  0  0  0  0999 V2000
  187.7360  177.8500  143.4290 C   0  0  2  0  0  3  0  0  0  0  0  0
  186.4880  178.5660  142.9110 C   0  0  2  0  0  3  0  0  0  0  0  0
  185.2050  178.0120  143.6000 C   0  0  0  0  0  2  0  0  0  0  0  0
  183.4910  179.2950  139.5470 C   0  0  0  0  0  0  0  0  0  0  0  0
  186.4060  178.5890  141.3620 C   0  0  0  0  0  2  0  0  0  0  0  0
  182.9080  178.8220  140.7180 O   0  0  0  0  0  0  0  0  0  0  0  0
  183.9860  178.3990  141.5230 C   0  0  2  0  0  3  0  0  0  0  0  0
  183.8970  178.5880  143.0180 C   0  0  0  0  0  2  0  0  0  0  0  0
  184.7730  179.4730  139.6260 N   0  0  0  0  0  0  0  0  0  0  0  0
  182.7260  179.5300  138.2950 C   0  0  0  0  0  1  0  0  0  0  0  0
  185.1000  179.2650  141.0240 C   0  0  2  0  0  3  0  0  0  0  0  0
  188.3130  176.9560  142.3350 C   0  0  0  0  0  2  0  0  0  0  0  0
  189.8300  176.8390  142.4230 C   0  0  1  0  0  3  0  0  0  0  0  0
  190.1440  175.5490  143.1640 C   0  0  0  0  0  1  0  0  0  0  0  0
  190.4590  176.8460  141.0180 C   0  0  2  0  0  3  0  0  0  0  0  0
  191.7750  177.6120  140.9630 C   0  0  0  0  0  1  0  0  0  0  0  0
  189.5050  177.3570  139.9300 C   0  0  0  0  0  2  0  0  0  0  0  0
  189.8720  176.8990  138.5890 N   0  0  0  0  0  0  0  0  0  0  0  0
  188.6360  176.8520  137.8180 C   0  0  1  0  0  3  0  0  0  0  0  0
  187.8180  178.1030  138.0700 C   0  0  0  0  0  2  0  0  0  0  0  0
  188.6280  177.9790  136.8000 C   0  0  2  0  0  3  0  0  0  0  0  0
  187.7840  177.6340  135.7470 O   0  0  0  0  0  1  0  0  0  0  0  0
  190.3060  175.6170  138.6970 O   0  0  0  0  0  0  0  0  0  0  0  0
  191.0480  175.3870  137.5340 C   0  0  0  0  0  2  0  0  0  0  0  0
  193.1760  175.9200  138.4380 F   0  0  0  0  0  0  0  0  0  0  0  0
  192.2450  176.3160  137.4960 C   0  0  0  0  0  2  0  0  0  0  0  0
  187.4400  177.0570  144.7000 C   0  0  0  0  0  2  0  0  0  0  0  0
  188.1480  177.6870  145.8860 C   0  0  0  0  0  2  0  0  0  0  0  0
  187.2230  177.7670  147.0840 C   0  0  1  0  0  3  0  0  0  0  0  0
  188.0300  178.0450  148.3410 C   0  0  0  0  0  1  0  0  0  0  0  0
  184.9270  178.4190  147.0900 O   0  0  0  0  0  1  0  0  0  0  0  0
  186.2220  178.8850  146.8600 C   0  0  0  0  0  2  0  0  0  0  0  0
  1 12  1  6  0  0  0
  1 27  1  0  0  0  0
  2  1  1  6  0  0  0
  2  3  1  0  0  0  0
  4  9  2  0  0  0  0
  4  6  1  0  0  0  0
  5  2  1  0  0  0  0
  6  7  1  0  0  0  0
  7  8  1  1  0  0  0
  8  3  1  0  0  0  0
  9 11  1  0  0  0  0
 10  4  1  0  0  0  0
 11  5  1  6  0  0  0
 11  7  1  0  0  0  0
 12 13  1  0  0  0  0
 13 14  1  6  0  0  0
 15 16  1  1  0  0  0
 15 13  1  0  0  0  0
 17 15  1  0  0  0  0
 18 23  1  0  0  0  0
 18 17  1  0  0  0  0
 19 20  1  0  0  0  0
 19 18  1  1  0  0  0
 21 22  1  6  0  0  0
 21 19  1  0  0  0  0
 21 20  1  0  0  0  0
 24 23  1  0  0  0  0
 26 24  1  0  0  0  0
 26 25  1  0  0  0  0
 27 28  1  0  0  0  0
 28 29  1  0  0  0  0
 29 30  1  1  0  0  0
 32 29  1  0  0  0  0
 32 31  1  0  0  0  0
M  END
>  <MODEL>
3

>  <REMARK>
 VINA RESULT:      -7.2      3.272      6.274
  Name = 
  14 active torsions:
  status: ('A' for Active; 'I' for Inactive)
    1  A    between atoms: C_1  and  C_4
    2  A    between atoms: C_1  and  C_5
    3  A    between atoms: C_2  and  C_5
    4  A    between atoms: C_3  and  N_20
    5  A    between atoms: C_4  and  C_24
    6  A    between atoms: C_5  and  C_14
    7  A    between atoms: C_13  and  C_29
    8  A    between atoms: C_13  and  C_30
    9  A    between atoms: C_14  and  C_30
   10  A    between atoms: O_15  and  N_20
   11  A    between atoms: O_15  and  C_26
   12  A    between atoms: C_16  and  N_20
   13  A    between atoms: C_16  and  C_24
   14  A    between atoms: C_19  and  C_26
                            x       y       z     vdW  Elec       q    Type
                         _______ _______ _______ _____ _____    ______ ____

>  <TORSDO>
F 14

$$$$
=
 OpenBabel11052414453D

 32 34  0  0  1  0  0  0  0  0999 V2000
  187.3690  178.0040  144.7850 C   0  0  2  0  0  3  0  0  0  0  0  0
  186.1460  178.6900  144.1730 C   0  0  2  0  0  3  0  0  0  0  0  0
  184.9890  178.7910  145.2120 C   0  0  0  0  0  2  0  0  0  0  0  0
  182.5940  178.5560  141.3110 C   0  0  0  0  0  0  0  0  0  0  0  0
  185.7190  178.0620  142.8190 C   0  0  0  0  0  2  0  0  0  0  0  0
  182.2320  178.7780  142.6360 O   0  0  0  0  0  0  0  0  0  0  0  0
  183.3960  178.5120  143.3860 C   0  0  2  0  0  3  0  0  0  0  0  0
  183.6750  179.3400  144.6170 C   0  0  0  0  0  2  0  0  0  0  0  0
  183.8720  178.4560  141.1180 N   0  0  0  0  0  0  0  0  0  0  0  0
  181.6040  178.3960  140.2140 C   0  0  0  0  0  1  0  0  0  0  0  0
  184.4760  178.8020  142.3910 C   0  0  2  0  0  3  0  0  0  0  0  0
  187.9730  177.0260  143.7820 C   0  0  0  0  0  2  0  0  0  0  0  0
  189.2250  177.5810  143.1140 C   0  0  1  0  0  3  0  0  0  0  0  0
  189.9010  178.5060  144.1130 C   0  0  0  0  0  1  0  0  0  0  0  0
  190.1620  176.4400  142.6810 C   0  0  2  0  0  3  0  0  0  0  0  0
  191.5620  176.5670  143.2700 C   0  0  0  0  0  1  0  0  0  0  0  0
  190.2440  176.2660  141.1580 C   0  0  0  0  0  2  0  0  0  0  0  0
  190.5280  177.5190  140.4560 N   0  0  0  0  0  0  0  0  0  0  0  0
  189.6910  177.5200  139.2630 C   0  0  1  0  0  3  0  0  0  0  0  0
  188.2390  177.7280  139.6450 C   0  0  0  0  0  2  0  0  0  0  0  0
  189.0440  178.8830  139.0960 C   0  0  2  0  0  3  0  0  0  0  0  0
  188.7220  179.0720  137.7540 O   0  0  0  0  0  1  0  0  0  0  0  0
  191.8130  177.4640  140.0230 O   0  0  0  0  0  0  0  0  0  0  0  0
  191.7810  176.6300  138.8990 C   0  0  0  0  0  2  0  0  0  0  0  0
  193.0610  176.4460  136.9100 F   0  0  0  0  0  0  0  0  0  0  0  0
  193.1640  176.5420  138.2860 C   0  0  0  0  0  2  0  0  0  0  0  0
  187.0210  177.3110  146.1010 C   0  0  0  0  0  2  0  0  0  0  0  0
  188.2810  176.7730  146.7560 C   0  0  0  0  0  2  0  0  0  0  0  0
  189.0090  177.8720  147.5050 C   0  0  1  0  0  3  0  0  0  0  0  0
  188.3010  178.1590  148.8180 C   0  0  0  0  0  1  0  0  0  0  0  0
  190.8290  176.4870  146.8210 O   0  0  0  0  0  1  0  0  0  0  0  0
  190.4330  177.4220  147.7770 C   0  0  0  0  0  2  0  0  0  0  0  0
  1 12  1  6  0  0  0
  1 27  1  0  0  0  0
  2  1  1  1  0  0  0
  2  3  1  0  0  0  0
  4  6  1  0  0  0  0
  5  2  1  0  0  0  0
  6  7  1  0  0  0  0
  7  8  1  1  0  0  0
  8  3  1  0  0  0  0
  9  4  2  0  0  0  0
  9 11  1  0  0  0  0
 10  4  1  0  0  0  0
 11  5  1  1  0  0  0
 11  7  1  0  0  0  0
 13 12  1  0  0  0  0
 13 14  1  1  0  0  0
 15 13  1  0  0  0  0
 15 16  1  6  0  0  0
 17 15  1  0  0  0  0
 18 17  1  0  0  0  0
 19 20  1  0  0  0  0
 19 18  1  1  0  0  0
 21 22  1  6  0  0  0
 21 19  1  0  0  0  0
 21 20  1  0  0  0  0
 23 18  1  0  0  0  0
 24 23  1  0  0  0  0
 25 26  1  0  0  0  0
 26 24  1  0  0  0  0
 27 28  1  0  0  0  0
 28 29  1  0  0  0  0
 29 32  1  0  0  0  0
 29 30  1  1  0  0  0
 31 32  1  0  0  0  0
M  END
>  <MODEL>
4

>  <REMARK>
 VINA RESULT:      -7.2      2.384      5.530
  Name = 
  14 active torsions:
  status: ('A' for Active; 'I' for Inactive)
    1  A    between atoms: C_1  and  C_4
    2  A    between atoms: C_1  and  C_5
    3  A    between atoms: C_2  and  C_5
    4  A    between atoms: C_3  and  N_20
    5  A    between atoms: C_4  and  C_24
    6  A    between atoms: C_5  and  C_14
    7  A    between atoms: C_13  and  C_29
    8  A    between atoms: C_13  and  C_30
    9  A    between atoms: C_14  and  C_30
   10  A    between atoms: O_15  and  N_20
   11  A    between atoms: O_15  and  C_26
   12  A    between atoms: C_16  and  N_20
   13  A    between atoms: C_16  and  C_24
   14  A    between atoms: C_19  and  C_26
                            x       y       z     vdW  Elec       q    Type
                         _______ _______ _______ _____ _____    ______ ____

>  <TORSDO>
F 14

$$$$
=
 OpenBabel11052414453D

 32 34  0  0  1  0  0  0  0  0999 V2000
  185.0010  178.8000  143.4660 C   0  0  2  0  0  3  0  0  0  0  0  0
  185.7260  179.0640  142.1460 C   0  0  2  0  0  3  0  0  0  0  0  0
  184.7560  178.8980  140.9380 C   0  0  0  0  0  2  0  0  0  0  0  0
  188.7360  177.7320  138.9860 C   0  0  0  0  0  0  0  0  0  0  0  0
  187.0420  178.2540  142.0090 C   0  0  0  0  0  2  0  0  0  0  0  0
  187.4530  177.9270  138.4840 O   0  0  0  0  0  0  0  0  0  0  0  0
  186.6280  178.0550  139.6200 C   0  0  2  0  0  3  0  0  0  0  0  0
  185.4580  179.0070  139.5670 C   0  0  0  0  0  2  0  0  0  0  0  0
  188.8580  177.9900  140.2500 N   0  0  0  0  0  0  0  0  0  0  0  0
  189.8630  177.2240  138.1600 C   0  0  0  0  0  1  0  0  0  0  0  0
  187.5900  178.5770  140.6410 C   0  0  2  0  0  3  0  0  0  0  0  0
  185.8090  177.8240  144.3170 C   0  0  0  0  0  2  0  0  0  0  0  0
  186.3800  178.4820  145.5670 C   0  0  1  0  0  3  0  0  0  0  0  0
  185.2070  178.8700  146.4520 C   0  0  0  0  0  1  0  0  0  0  0  0
  187.3410  177.5250  146.2950 C   0  0  2  0  0  3  0  0  0  0  0  0
  187.8340  178.0790  147.6250 C   0  0  0  0  0  1  0  0  0  0  0  0
  188.5320  177.0880  145.4300 C   0  0  0  0  0  2  0  0  0  0  0  0
  189.8250  177.4170  146.0330 N   0  0  0  0  0  0  0  0  0  0  0  0
  190.7530  177.6170  144.9270 C   0  0  1  0  0  3  0  0  0  0  0  0
  190.0170  178.1710  143.7230 C   0  0  0  0  0  2  0  0  0  0  0  0
  190.8360  179.0960  144.5940 C   0  0  2  0  0  3  0  0  0  0  0  0
  192.0570  179.3540  143.9730 O   0  0  0  0  0  1  0  0  0  0  0  0
  190.2570  176.3180  146.7020 O   0  0  0  0  0  0  0  0  0  0  0  0
  191.2530  176.7890  147.5650 C   0  0  0  0  0  2  0  0  0  0  0  0
  192.3860  174.9850  146.5200 F   0  0  0  0  0  0  0  0  0  0  0  0
  192.3750  175.7740  147.6550 C   0  0  0  0  0  2  0  0  0  0  0  0
  183.5800  178.2910  143.2320 C   0  0  0  0  0  2  0  0  0  0  0  0
  182.5950  179.0890  144.0690 C   0  0  0  0  0  2  0  0  0  0  0  0
  181.2970  179.3020  143.3140 C   0  0  1  0  0  3  0  0  0  0  0  0
  181.4110  178.7160  141.9170 C   0  0  0  0  0  1  0  0  0  0  0  0
  179.5860  177.6380  143.2640 O   0  0  0  0  0  1  0  0  0  0  0  0
  180.1720  178.6180  144.0670 C   0  0  0  0  0  2  0  0  0  0  0  0
  1 27  1  6  0  0  0
  1 12  1  0  0  0  0
  2  1  1  1  0  0  0
  3  2  1  0  0  0  0
  4  9  2  0  0  0  0
  5  2  1  0  0  0  0
  6  4  1  0  0  0  0
  6  7  1  0  0  0  0
  7  8  1  6  0  0  0
  7 11  1  0  0  0  0
  8  3  1  0  0  0  0
  9 11  1  0  0  0  0
 10  4  1  0  0  0  0
 11  5  1  1  0  0  0
 12 13  1  0  0  0  0
 13 15  1  0  0  0  0
 13 14  1  1  0  0  0
 15 16  1  1  0  0  0
 17 18  1  0  0  0  0
 17 15  1  0  0  0  0
 18 23  1  0  0  0  0
 19 18  1  1  0  0  0
 20 21  1  0  0  0  0
 20 19  1  0  0  0  0
 21 22  1  6  0  0  0
 21 19  1  0  0  0  0
 23 24  1  0  0  0  0
 24 26  1  0  0  0  0
 25 26  1  0  0  0  0
 27 28  1  0  0  0  0
 29 30  1  6  0  0  0
 29 32  1  0  0  0  0
 29 28  1  0  0  0  0
 31 32  1  0  0  0  0
M  END
>  <MODEL>
5

>  <REMARK>
 VINA RESULT:      -7.2      2.094      5.218
  Name = 
  14 active torsions:
  status: ('A' for Active; 'I' for Inactive)
    1  A    between atoms: C_1  and  C_4
    2  A    between atoms: C_1  and  C_5
    3  A    between atoms: C_2  and  C_5
    4  A    between atoms: C_3  and  N_20
    5  A    between atoms: C_4  and  C_24
    6  A    between atoms: C_5  and  C_14
    7  A    between atoms: C_13  and  C_29
    8  A    between atoms: C_13  and  C_30
    9  A    between atoms: C_14  and  C_30
   10  A    between atoms: O_15  and  N_20
   11  A    between atoms: O_15  and  C_26
   12  A    between atoms: C_16  and  N_20
   13  A    between atoms: C_16  and  C_24
   14  A    between atoms: C_19  and  C_26
                            x       y       z     vdW  Elec       q    Type
                         _______ _______ _______ _____ _____    ______ ____

>  <TORSDO>
F 14

$$$$
=
 OpenBabel11052414453D

 32 34  0  0  1  0  0  0  0  0999 V2000
  187.8620  176.9930  144.1570 C   0  0  2  0  0  3  0  0  0  0  0  0
  188.2840  176.8230  142.6960 C   0  0  2  0  0  3  0  0  0  0  0  0
  189.8170  176.5670  142.5880 C   0  0  0  0  0  2  0  0  0  0  0  0
  189.0310  178.6600  138.5860 C   0  0  0  0  0  0  0  0  0  0  0  0
  187.7740  177.9700  141.7850 C   0  0  0  0  0  2  0  0  0  0  0  0
  190.1520  178.0410  139.1300 O   0  0  0  0  0  0  0  0  0  0  0  0
  189.8180  177.7900  140.4770 C   0  0  2  0  0  3  0  0  0  0  0  0
  190.3330  176.5320  141.1340 C   0  0  0  0  0  2  0  0  0  0  0  0
  187.9690  178.5810  139.3250 N   0  0  0  0  0  0  0  0  0  0  0  0
  189.0540  179.3940  137.2940 C   0  0  0  0  0  1  0  0  0  0  0  0
  188.3260  177.6870  140.4100 C   0  0  2  0  0  3  0  0  0  0  0  0
  187.0790  178.2920  144.3230 C   0  0  0  0  0  2  0  0  0  0  0  0
  185.6160  178.0450  144.6710 C   0  0  1  0  0  3  0  0  0  0  0  0
  185.4470  178.3340  146.1540 C   0  0  0  0  0  1  0  0  0  0  0  0
  184.6960  178.9350  143.8170 C   0  0  2  0  0  3  0  0  0  0  0  0
  183.5630  179.5600  144.6210 C   0  0  0  0  0  1  0  0  0  0  0  0
  184.1340  178.2170  142.5820 C   0  0  0  0  0  2  0  0  0  0  0  0
  183.4180  179.1170  141.6750 N   0  0  0  0  0  0  0  0  0  0  0  0
  182.2020  178.4170  141.2790 C   0  0  1  0  0  3  0  0  0  0  0  0
  181.1230  178.6160  142.3240 C   0  0  0  0  0  2  0  0  0  0  0  0
  181.0890  179.4240  141.0470 C   0  0  2  0  0  3  0  0  0  0  0  0
  180.1510  178.8720  140.1770 O   0  0  0  0  0  1  0  0  0  0  0  0
  184.1680  179.2490  140.5520 O   0  0  0  0  0  0  0  0  0  0  0  0
  184.2140  177.9660  139.9940 C   0  0  0  0  0  2  0  0  0  0  0  0
  185.4050  178.7020  138.0790 F   0  0  0  0  0  0  0  0  0  0  0  0
  184.2460  178.0650  138.4820 C   0  0  0  0  0  2  0  0  0  0  0  0
  189.0660  176.9430  145.0960 C   0  0  0  0  0  2  0  0  0  0  0  0
  189.1000  178.1850  145.9680 C   0  0  0  0  0  2  0  0  0  0  0  0
  189.4870  177.8330  147.3910 C   0  0  1  0  0  3  0  0  0  0  0  0
  188.2400  177.5410  148.2070 C   0  0  0  0  0  1  0  0  0  0  0  0
  191.7040  176.9800  147.6240 O   0  0  0  0  0  1  0  0  0  0  0  0
  190.3840  176.6090  147.3690 C   0  0  0  0  0  2  0  0  0  0  0  0
  1 12  1  6  0  0  0
  1 27  1  0  0  0  0
  2  1  1  1  0  0  0
  3  2  1  0  0  0  0
  4  6  1  0  0  0  0
  4  9  2  0  0  0  0
  5  2  1  0  0  0  0
  6  7  1  0  0  0  0
  7  8  1  6  0  0  0
  8  3  1  0  0  0  0
  9 11  1  0  0  0  0
 10  4  1  0  0  0  0
 11  7  1  0  0  0  0
 11  5  1  1  0  0  0
 12 13  1  0  0  0  0
 13 14  1  1  0  0  0
 15 16  1  1  0  0  0
 15 13  1  0  0  0  0
 17 15  1  0  0  0  0
 18 17  1  0  0  0  0
 19 18  1  1  0  0  0
 19 20  1  0  0  0  0
 21 22  1  6  0  0  0
 21 19  1  0  0  0  0
 21 20  1  0  0  0  0
 23 18  1  0  0  0  0
 24 23  1  0  0  0  0
 25 26  1  0  0  0  0
 26 24  1  0  0  0  0
 27 28  1  0  0  0  0
 28 29  1  0  0  0  0
 29 30  1  1  0  0  0
 32 29  1  0  0  0  0
 32 31  1  0  0  0  0
M  END
>  <MODEL>
6

>  <REMARK>
 VINA RESULT:      -7.1      2.459      7.679
  Name = 
  14 active torsions:
  status: ('A' for Active; 'I' for Inactive)
    1  A    between atoms: C_1  and  C_4
    2  A    between atoms: C_1  and  C_5
    3  A    between atoms: C_2  and  C_5
    4  A    between atoms: C_3  and  N_20
    5  A    between atoms: C_4  and  C_24
    6  A    between atoms: C_5  and  C_14
    7  A    between atoms: C_13  and  C_29
    8  A    between atoms: C_13  and  C_30
    9  A    between atoms: C_14  and  C_30
   10  A    between atoms: O_15  and  N_20
   11  A    between atoms: O_15  and  C_26
   12  A    between atoms: C_16  and  N_20
   13  A    between atoms: C_16  and  C_24
   14  A    between atoms: C_19  and  C_26
                            x       y       z     vdW  Elec       q    Type
                         _______ _______ _______ _____ _____    ______ ____

>  <TORSDO>
F 14

$$$$
=
 OpenBabel11052414453D

 32 34  0  0  1  0  0  0  0  0999 V2000
  188.3360  176.8060  144.0640 C   0  0  2  0  0  3  0  0  0  0  0  0
  188.6710  176.6520  142.5790 C   0  0  2  0  0  3  0  0  0  0  0  0
  190.2010  176.4360  142.3760 C   0  0  0  0  0  2  0  0  0  0  0  0
  189.1170  178.5220  138.4410 C   0  0  0  0  0  0  0  0  0  0  0  0
  188.0780  177.7890  141.7070 C   0  0  0  0  0  2  0  0  0  0  0  0
  190.2850  177.9300  138.9120 O   0  0  0  0  0  0  0  0  0  0  0  0
  190.0410  177.6660  140.2750 C   0  0  2  0  0  3  0  0  0  0  0  0
  190.6270  176.4180  140.8920 C   0  0  0  0  0  2  0  0  0  0  0  0
  188.1050  178.4140  139.2430 N   0  0  0  0  0  0  0  0  0  0  0  0
  189.0430  179.2610  137.1530 C   0  0  0  0  0  1  0  0  0  0  0  0
  188.5510  177.5250  140.2990 C   0  0  2  0  0  3  0  0  0  0  0  0
  187.5570  178.0980  144.2890 C   0  0  0  0  0  2  0  0  0  0  0  0
  186.1130  177.8390  144.7030 C   0  0  1  0  0  3  0  0  0  0  0  0
  186.1350  176.7610  145.7750 C   0  0  0  0  0  1  0  0  0  0  0  0
  185.4550  179.1310  145.2190 C   0  0  2  0  0  3  0  0  0  0  0  0
  184.9350  179.0020  146.6450 C   0  0  0  0  0  1  0  0  0  0  0  0
  184.3450  179.6560  144.2980 C   0  0  0  0  0  2  0  0  0  0  0  0
  183.5700  178.5840  143.6710 N   0  0  0  0  0  0  0  0  0  0  0  0
  183.4170  178.9540  142.2690 C   0  0  1  0  0  3  0  0  0  0  0  0
  184.7770  179.1620  141.6340 C   0  0  0  0  0  2  0  0  0  0  0  0
  184.0230  177.8760  141.3890 C   0  0  2  0  0  3  0  0  0  0  0  0
  183.4230  177.9250  140.1330 O   0  0  0  0  0  1  0  0  0  0  0  0
  182.3260  178.6070  144.2120 O   0  0  0  0  0  0  0  0  0  0  0  0
  181.5260  179.2390  143.2540 C   0  0  0  0  0  2  0  0  0  0  0  0
  179.9370  177.8710  144.3650 F   0  0  0  0  0  0  0  0  0  0  0  0
  180.0630  178.9890  143.5600 C   0  0  0  0  0  2  0  0  0  0  0  0
  189.5940  176.7540  144.9290 C   0  0  0  0  0  2  0  0  0  0  0  0
  189.6830  177.9980  145.7950 C   0  0  0  0  0  2  0  0  0  0  0  0
  189.8840  177.6260  147.2520 C   0  0  1  0  0  3  0  0  0  0  0  0
  188.5370  177.4030  147.9170 C   0  0  0  0  0  1  0  0  0  0  0  0
  192.0650  176.6570  147.1990 O   0  0  0  0  0  1  0  0  0  0  0  0
  190.7090  176.3540  147.3250 C   0  0  0  0  0  2  0  0  0  0  0  0
  1 12  1  6  0  0  0
  1 27  1  0  0  0  0
  2  1  1  1  0  0  0
  3  2  1  0  0  0  0
  4  6  1  0  0  0  0
  4  9  2  0  0  0  0
  5  2  1  0  0  0  0
  6  7  1  0  0  0  0
  7 11  1  0  0  0  0
  7  8  1  6  0  0  0
  8  3  1  0  0  0  0
  9 11  1  0  0  0  0
 10  4  1  0  0  0  0
 11  5  1  1  0  0  0
 12 13  1  0  0  0  0
 13 15  1  0  0  0  0
 13 14  1  1  0  0  0
 15 16  1  1  0  0  0
 17 15  1  0  0  0  0
 18 23  1  0  0  0  0
 18 17  1  0  0  0  0
 19 18  1  1  0  0  0
 20 19  1  0  0  0  0
 21 22  1  6  0  0  0
 21 20  1  0  0  0  0
 21 19  1  0  0  0  0
 24 26  1  0  0  0  0
 24 23  1  0  0  0  0
 26 25  1  0  0  0  0
 27 28  1  0  0  0  0
 28 29  1  0  0  0  0
 29 32  1  0  0  0  0
 29 30  1  6  0  0  0
 31 32  1  0  0  0  0
M  END
>  <MODEL>
7

>  <REMARK>
 VINA RESULT:      -7.1      2.928      7.455
  Name = 
  14 active torsions:
  status: ('A' for Active; 'I' for Inactive)
    1  A    between atoms: C_1  and  C_4
    2  A    between atoms: C_1  and  C_5
    3  A    between atoms: C_2  and  C_5
    4  A    between atoms: C_3  and  N_20
    5  A    between atoms: C_4  and  C_24
    6  A    between atoms: C_5  and  C_14
    7  A    between atoms: C_13  and  C_29
    8  A    between atoms: C_13  and  C_30
    9  A    between atoms: C_14  and  C_30
   10  A    between atoms: O_15  and  N_20
   11  A    between atoms: O_15  and  C_26
   12  A    between atoms: C_16  and  N_20
   13  A    between atoms: C_16  and  C_24
   14  A    between atoms: C_19  and  C_26
                            x       y       z     vdW  Elec       q    Type
                         _______ _______ _______ _____ _____    ______ ____

>  <TORSDO>
F 14

$$$$
=
 OpenBabel11052414453D

 32 34  0  0  1  0  0  0  0  0999 V2000
  187.5630  178.0030  143.6530 C   0  0  2  0  0  3  0  0  0  0  0  0
  186.3200  178.6760  143.0690 C   0  0  2  0  0  3  0  0  0  0  0  0
  185.0270  178.1430  143.7550 C   0  0  0  0  0  2  0  0  0  0  0  0
  183.3990  179.1940  139.6010 C   0  0  0  0  0  0  0  0  0  0  0  0
  186.2760  178.6180  141.5190 C   0  0  0  0  0  2  0  0  0  0  0  0
  182.7920  178.7750  140.7810 O   0  0  0  0  0  0  0  0  0  0  0  0
  183.8550  178.4080  141.6330 C   0  0  2  0  0  3  0  0  0  0  0  0
  183.7270  178.6730  143.1130 C   0  0  0  0  0  2  0  0  0  0  0  0
  184.6760  179.3910  139.7010 N   0  0  0  0  0  0  0  0  0  0  0  0
  182.6620  179.3540  138.3210 C   0  0  0  0  0  1  0  0  0  0  0  0
  184.9710  179.2590  141.1150 C   0  0  2  0  0  3  0  0  0  0  0  0
  188.2700  177.1910  142.5720 C   0  0  0  0  0  2  0  0  0  0  0  0
  189.5600  177.8540  142.1010 C   0  0  1  0  0  3  0  0  0  0  0  0
  190.1130  178.6520  143.2700 C   0  0  0  0  0  1  0  0  0  0  0  0
  190.5680  176.7970  141.6140 C   0  0  2  0  0  3  0  0  0  0  0  0
  191.6630  176.5110  142.6330 C   0  0  0  0  0  1  0  0  0  0  0  0
  191.1880  177.1350  140.2510 C   0  0  0  0  0  2  0  0  0  0  0  0
  190.7940  176.1980  139.1970 N   0  0  0  0  0  0  0  0  0  0  0  0
  191.7040  176.4280  138.0820 C   0  0  1  0  0  3  0  0  0  0  0  0
  193.1410  176.3370  138.5560 C   0  0  0  0  0  2  0  0  0  0  0  0
  192.5170  175.1720  137.8220 C   0  0  2  0  0  3  0  0  0  0  0  0
  192.9480  175.1780  136.4970 O   0  0  0  0  0  1  0  0  0  0  0  0
  189.5590  176.5620  138.7660 O   0  0  0  0  0  0  0  0  0  0  0  0
  189.7920  177.4820  137.7370 C   0  0  0  0  0  2  0  0  0  0  0  0
  188.9710  179.2850  139.0420 F   0  0  0  0  0  0  0  0  0  0  0  0
  188.8030  178.6260  137.8390 C   0  0  0  0  0  2  0  0  0  0  0  0
  187.2150  177.1380  144.8620 C   0  0  0  0  0  2  0  0  0  0  0  0
  188.0610  177.5440  146.0560 C   0  0  0  0  0  2  0  0  0  0  0  0
  187.1910  177.7870  147.2740 C   0  0  1  0  0  3  0  0  0  0  0  0
  188.0650  178.0580  148.4860 C   0  0  0  0  0  1  0  0  0  0  0  0
  184.9560  178.6120  147.1200 O   0  0  0  0  0  1  0  0  0  0  0  0
  186.2960  178.9840  147.0090 C   0  0  0  0  0  2  0  0  0  0  0  0
  1 12  1  6  0  0  0
  1 27  1  0  0  0  0
  2  1  1  1  0  0  0
  2  3  1  0  0  0  0
  4  9  2  0  0  0  0
  4  6  1  0  0  0  0
  5  2  1  0  0  0  0
  6  7  1  0  0  0  0
  7  8  1  1  0  0  0
  8  3  1  0  0  0  0
  9 11  1  0  0  0  0
 10  4  1  0  0  0  0
 11  5  1  6  0  0  0
 11  7  1  0  0  0  0
 13 12  1  0  0  0  0
 13 14  1  1  0  0  0
 15 13  1  0  0  0  0
 15 16  1  1  0  0  0
 17 15  1  0  0  0  0
 18 17  1  0  0  0  0
 19 20  1  0  0  0  0
 19 18  1  1  0  0  0
 21 22  1  6  0  0  0
 21 19  1  0  0  0  0
 21 20  1  0  0  0  0
 23 18  1  0  0  0  0
 24 26  1  0  0  0  0
 24 23  1  0  0  0  0
 26 25  1  0  0  0  0
 27 28  1  0  0  0  0
 28 29  1  0  0  0  0
 29 30  1  1  0  0  0
 32 31  1  0  0  0  0
 32 29  1  0  0  0  0
M  END
>  <MODEL>
8

>  <REMARK>
 VINA RESULT:      -7.1      3.012      5.738
  Name = 
  14 active torsions:
  status: ('A' for Active; 'I' for Inactive)
    1  A    between atoms: C_1  and  C_4
    2  A    between atoms: C_1  and  C_5
    3  A    between atoms: C_2  and  C_5
    4  A    between atoms: C_3  and  N_20
    5  A    between atoms: C_4  and  C_24
    6  A    between atoms: C_5  and  C_14
    7  A    between atoms: C_13  and  C_29
    8  A    between atoms: C_13  and  C_30
    9  A    between atoms: C_14  and  C_30
   10  A    between atoms: O_15  and  N_20
   11  A    between atoms: O_15  and  C_26
   12  A    between atoms: C_16  and  N_20
   13  A    between atoms: C_16  and  C_24
   14  A    between atoms: C_19  and  C_26
                            x       y       z     vdW  Elec       q    Type
                         _______ _______ _______ _____ _____    ______ ____

>  <TORSDO>
F 14

$$$$
=
 OpenBabel11052414453D

 32 34  0  0  1  0  0  0  0  0999 V2000
  185.1400  178.7940  143.4750 C   0  0  2  0  0  3  0  0  0  0  0  0
  185.8950  179.0610  142.1720 C   0  0  2  0  0  3  0  0  0  0  0  0
  184.9600  178.8710  140.9400 C   0  0  0  0  0  2  0  0  0  0  0  0
  189.0080  177.7560  139.1000 C   0  0  0  0  0  0  0  0  0  0  0  0
  187.2270  178.2710  142.0750 C   0  0  0  0  0  2  0  0  0  0  0  0
  187.7350  177.9270  138.5640 O   0  0  0  0  0  0  0  0  0  0  0  0
  186.8790  178.0490  139.6780 C   0  0  2  0  0  3  0  0  0  0  0  0
  185.6950  178.9820  139.5880 C   0  0  0  0  0  2  0  0  0  0  0  0
  189.0920  178.0250  140.3660 N   0  0  0  0  0  0  0  0  0  0  0  0
  190.1630  177.2600  138.3090 C   0  0  0  0  0  1  0  0  0  0  0  0
  187.8050  178.5930  140.7190 C   0  0  2  0  0  3  0  0  0  0  0  0
  185.9440  177.8420  144.3550 C   0  0  0  0  0  2  0  0  0  0  0  0
  186.4330  178.5100  145.6350 C   0  0  1  0  0  3  0  0  0  0  0  0
  185.2300  178.6760  146.5490 C   0  0  0  0  0  1  0  0  0  0  0  0
  187.5340  177.6660  146.3020 C   0  0  2  0  0  3  0  0  0  0  0  0
  187.5270  177.7790  147.8220 C   0  0  0  0  0  1  0  0  0  0  0  0
  188.9380  177.9610  145.7570 C   0  0  0  0  0  2  0  0  0  0  0  0
  189.7040  176.7470  145.4680 N   0  0  0  0  0  0  0  0  0  0  0  0
  191.0260  176.9480  146.0500 C   0  0  1  0  0  3  0  0  0  0  0  0
  190.8960  177.3920  147.4940 C   0  0  0  0  0  2  0  0  0  0  0  0
  191.2410  175.9540  147.1780 C   0  0  2  0  0  3  0  0  0  0  0  0
  192.6090  175.7580  147.3550 O   0  0  0  0  0  1  0  0  0  0  0  0
  189.8830  176.6850  144.1240 O   0  0  0  0  0  0  0  0  0  0  0  0
  191.2700  176.6360  143.9450 C   0  0  0  0  0  2  0  0  0  0  0  0
  191.5500  178.8840  143.2390 F   0  0  0  0  0  0  0  0  0  0  0  0
  191.6760  177.5710  142.8240 C   0  0  0  0  0  2  0  0  0  0  0  0
  183.7360  178.2560  143.2080 C   0  0  0  0  0  2  0  0  0  0  0  0
  182.7160  179.0330  144.0220 C   0  0  0  0  0  2  0  0  0  0  0  0
  181.4130  179.1730  143.2580 C   0  0  1  0  0  3  0  0  0  0  0  0
  181.5790  178.6270  141.8510 C   0  0  0  0  0  1  0  0  0  0  0  0
  179.0930  178.6260  143.3840 O   0  0  0  0  0  1  0  0  0  0  0  0
  180.3310  178.3960  143.9850 C   0  0  0  0  0  2  0  0  0  0  0  0
  1 27  1  6  0  0  0
  1 12  1  0  0  0  0
  2  1  1  1  0  0  0
  3  2  1  0  0  0  0
  4  9  2  0  0  0  0
  5  2  1  0  0  0  0
  6  4  1  0  0  0  0
  6  7  1  0  0  0  0
  7  8  1  6  0  0  0
  7 11  1  0  0  0  0
  8  3  1  0  0  0  0
  9 11  1  0  0  0  0
 10  4  1  0  0  0  0
 11  5  1  1  0  0  0
 12 13  1  0  0  0  0
 13 15  1  0  0  0  0
 13 14  1  1  0  0  0
 15 16  1  1  0  0  0
 17 15  1  0  0  0  0
 18 17  1  0  0  0  0
 19 18  1  6  0  0  0
 19 21  1  0  0  0  0
 19 20  1  0  0  0  0
 21 22  1  1  0  0  0
 21 20  1  0  0  0  0
 23 18  1  0  0  0  0
 24 23  1  0  0  0  0
 26 25  1  0  0  0  0
 26 24  1  0  0  0  0
 27 28  1  0  0  0  0
 29 30  1  6  0  0  0
 29 32  1  0  0  0  0
 29 28  1  0  0  0  0
 31 32  1  0  0  0  0
M  END
>  <MODEL>
9

>  <REMARK>
 VINA RESULT:      -7.0      1.708      4.820
  Name = 
  14 active torsions:
  status: ('A' for Active; 'I' for Inactive)
    1  A    between atoms: C_1  and  C_4
    2  A    between atoms: C_1  and  C_5
    3  A    between atoms: C_2  and  C_5
    4  A    between atoms: C_3  and  N_20
    5  A    between atoms: C_4  and  C_24
    6  A    between atoms: C_5  and  C_14
    7  A    between atoms: C_13  and  C_29
    8  A    between atoms: C_13  and  C_30
    9  A    between atoms: C_14  and  C_30
   10  A    between atoms: O_15  and  N_20
   11  A    between atoms: O_15  and  C_26
   12  A    between atoms: C_16  and  N_20
   13  A    between atoms: C_16  and  C_24
   14  A    between atoms: C_19  and  C_26
                            x       y       z     vdW  Elec       q    Type
                         _______ _______ _______ _____ _____    ______ ____

>  <TORSDO>
F 14

$$$$
