=
 OpenBabel11052412433D

 25 27  0  0  1  0  0  0  0  0999 V2000
  189.3340  178.1330  138.0020 C   0  0  0  0  0  0  0  0  0  0  0  0
  189.4890  177.1390  136.9670 N   0  0  0  0  0  0  0  0  0  0  0  0
  187.0240  176.7170  135.1070 C   0  0  2  0  0  3  0  0  0  0  0  0
  187.0820  175.6900  137.4650 C   0  0  0  0  0  2  0  0  0  0  0  0
  188.0090  177.8990  135.1500 C   0  0  0  0  0  2  0  0  0  0  0  0
  188.2540  174.6330  135.4810 C   0  0  0  0  0  0  0  0  0  0  0  0
  188.7990  173.5210  135.0100 C   0  0  0  0  0  2  0  0  0  0  0  0
  186.2380  176.4350  136.4140 C   0  0  1  0  0  0  0  0  0  0  0  0
  189.6080  175.7170  137.2820 C   0  0  0  0  0  2  0  0  0  0  0  0
  188.9970  179.3070  137.6840 O   0  0  0  0  0  0  0  0  0  0  0  0
  187.6300  175.5250  134.6110 O   0  0  0  0  0  0  0  0  0  0  0  0
  188.3280  174.9470  136.9470 C   0  0  1  0  0  3  0  0  0  0  0  0
  189.4320  177.5240  135.5610 C   0  0  0  0  0  2  0  0  0  0  0  0
  185.7450  177.7300  137.0450 C   0  0  0  0  0  1  0  0  0  0  0  0
  189.5570  177.8230  139.4340 C   0  0  0  0  0  0  0  0  0  0  0  0
  190.0170  177.2900  142.1560 C   0  0  0  0  0  3  0  0  0  0  0  0
  188.5040  177.9100  140.3670 C   0  0  0  0  0  0  0  0  0  0  0  0
  188.7380  177.6400  141.7190 C   0  0  0  0  0  3  0  0  0  0  0  0
  191.0690  177.2100  141.2410 C   0  0  0  0  0  3  0  0  0  0  0  0
  187.2470  178.2330  139.9730 F   0  0  0  0  0  0  0  0  0  0  0  0
  190.8390  177.4780  139.8900 C   0  0  0  0  0  3  0  0  0  0  0  0
  184.0310  175.9390  135.1970 C   0  0  0  0  0  0  0  0  0  0  0  0
  184.0350  177.0450  134.5940 O   0  0  0  0  0  0  0  0  0  0  0  0
  182.6960  174.7870  134.9180 S   0  0  0  0  0  1  0  0  0  0  0  0
  185.0840  175.5920  136.1030 N   0  0  0  0  0  2  0  0  0  0  0  0
  1 15  1  0  0  0  0
  2  9  1  0  0  0  0
  2  1  1  0  0  0  0
  3  5  1  1  0  0  0
  3  8  1  0  0  0  0
  5 13  1  0  0  0  0
  6 12  1  0  0  0  0
  7  6  2  0  0  0  0
  8 14  1  1  0  0  0
  8  4  1  0  0  0  0
 10  1  2  0  0  0  0
 11  3  1  0  0  0  0
 11  6  1  0  0  0  0
 12  9  1  6  0  0  0
 12  4  1  0  0  0  0
 13  2  1  0  0  0  0
 15 21  2  0  0  0  0
 15 17  1  0  0  0  0
 17 18  2  0  0  0  0
 18 16  1  0  0  0  0
 19 16  2  0  0  0  0
 20 17  1  0  0  0  0
 21 19  1  0  0  0  0
 22 25  1  0  0  0  0
 23 22  2  0  0  0  0
 24 22  1  0  0  0  0
 25  8  1  0  0  0  0
M  END
>  <MODEL>
1

>  <REMARK>
 VINA RESULT:      -5.5      0.000      0.000
  Name = 
  2 active torsions:
  status: ('A' for Active; 'I' for Inactive)
    1  A    between atoms: C_1  and  C_5
    2  A    between atoms: C_15  and  N_21
                            x       y       z     vdW  Elec       q    Type
                         _______ _______ _______ _____ _____    ______ ____

>  <TORSDO>
F 2

$$$$
=
 OpenBabel11052412433D

 25 27  0  0  1  0  0  0  0  0999 V2000
  179.9840  179.3410  137.6840 C   0  0  0  0  0  0  0  0  0  0  0  0
  180.7920  178.1700  137.4420 N   0  0  0  0  0  0  0  0  0  0  0  0
  181.9210  176.7490  139.9760 C   0  0  2  0  0  3  0  0  0  0  0  0
  183.0160  178.8960  139.0750 C   0  0  0  0  0  2  0  0  0  0  0  0
  180.4750  176.7730  139.4460 C   0  0  0  0  0  2  0  0  0  0  0  0
  183.4680  176.6060  138.0820 C   0  0  0  0  0  0  0  0  0  0  0  0
  184.2870  175.8970  137.3210 C   0  0  0  0  0  2  0  0  0  0  0  0
  182.5440  178.1260  140.3220 C   0  0  1  0  0  0  0  0  0  0  0  0
  182.1020  178.2610  136.8000 C   0  0  0  0  0  2  0  0  0  0  0  0
  178.9820  179.2530  138.4470 O   0  0  0  0  0  0  0  0  0  0  0  0
  182.7920  175.9930  139.1370 O   0  0  0  0  0  0  0  0  0  0  0  0
  183.2440  178.0630  137.7990 C   0  0  1  0  0  3  0  0  0  0  0  0
  180.3590  176.8630  137.9250 C   0  0  0  0  0  2  0  0  0  0  0  0
  181.5460  179.0070  141.0610 C   0  0  0  0  0  1  0  0  0  0  0  0
  180.2910  180.6530  137.0660 C   0  0  0  0  0  0  0  0  0  0  0  0
  180.8080  183.1500  135.8830 C   0  0  0  0  0  3  0  0  0  0  0  0
  180.7400  181.7360  137.8490 C   0  0  0  0  0  0  0  0  0  0  0  0
  180.9990  182.9740  137.2540 C   0  0  0  0  0  3  0  0  0  0  0  0
  180.3540  182.0870  135.1000 C   0  0  0  0  0  3  0  0  0  0  0  0
  180.9500  181.5940  139.1820 F   0  0  0  0  0  0  0  0  0  0  0  0
  180.0950  180.8470  135.6890 C   0  0  0  0  0  3  0  0  0  0  0  0
  184.8910  178.7330  141.1730 C   0  0  0  0  0  0  0  0  0  0  0  0
  184.9940  179.7180  140.3930 O   0  0  0  0  0  0  0  0  0  0  0  0
  186.2290  178.3500  142.2910 S   0  0  0  0  0  1  0  0  0  0  0  0
  183.7130  177.9180  141.1760 N   0  0  0  0  0  2  0  0  0  0  0  0
  1 10  2  0  0  0  0
  2  1  1  0  0  0  0
  2 13  1  0  0  0  0
  3  5  1  6  0  0  0
  3  8  1  0  0  0  0
  4  8  1  0  0  0  0
  6 11  1  0  0  0  0
  7  6  2  0  0  0  0
  8 14  1  1  0  0  0
  8 25  1  0  0  0  0
  9  2  1  0  0  0  0
 11  3  1  0  0  0  0
 12  9  1  6  0  0  0
 12  6  1  0  0  0  0
 12  4  1  0  0  0  0
 13  5  1  0  0  0  0
 15  1  1  0  0  0  0
 15 17  1  0  0  0  0
 16 18  1  0  0  0  0
 17 20  1  0  0  0  0
 18 17  2  0  0  0  0
 19 21  1  0  0  0  0
 19 16  2  0  0  0  0
 21 15  2  0  0  0  0
 22 25  1  0  0  0  0
 22 24  1  0  0  0  0
 23 22  2  0  0  0  0
M  END
>  <MODEL>
2

>  <REMARK>
 VINA RESULT:      -5.1      5.605      8.496
  Name = 
  2 active torsions:
  status: ('A' for Active; 'I' for Inactive)
    1  A    between atoms: C_1  and  C_5
    2  A    between atoms: C_15  and  N_21
                            x       y       z     vdW  Elec       q    Type
                         _______ _______ _______ _____ _____    ______ ____

>  <TORSDO>
F 2

$$$$
=
 OpenBabel11052412433D

 25 27  0  0  1  0  0  0  0  0999 V2000
  189.7870  176.4630  135.0570 C   0  0  0  0  0  0  0  0  0  0  0  0
  188.3710  176.2040  135.1650 N   0  0  0  0  0  0  0  0  0  0  0  0
  186.7280  178.2860  136.8020 C   0  0  2  0  0  3  0  0  0  0  0  0
  188.1420  176.4980  137.9940 C   0  0  0  0  0  2  0  0  0  0  0  0
  187.3490  178.4330  135.4000 C   0  0  0  0  0  2  0  0  0  0  0  0
  185.8370  176.0190  137.0520 C   0  0  0  0  0  0  0  0  0  0  0  0
  184.8060  175.1870  137.0780 C   0  0  0  0  0  2  0  0  0  0  0  0
  187.7150  177.9780  137.9560 C   0  0  1  0  0  0  0  0  0  0  0  0
  187.8540  175.0670  135.9240 C   0  0  0  0  0  2  0  0  0  0  0  0
  190.1780  177.5740  134.6030 O   0  0  0  0  0  0  0  0  0  0  0  0
  185.6290  177.3770  136.8150 O   0  0  0  0  0  0  0  0  0  0  0  0
  187.2310  175.5010  137.2530 C   0  0  1  0  0  3  0  0  0  0  0  0
  187.4050  177.1360  134.5940 C   0  0  0  0  0  2  0  0  0  0  0  0
  188.9760  178.8230  137.8380 C   0  0  0  0  0  1  0  0  0  0  0  0
  190.8050  175.4650  135.4640 C   0  0  0  0  0  0  0  0  0  0  0  0
  192.7720  173.5910  136.1840 C   0  0  0  0  0  3  0  0  0  0  0  0
  191.5740  175.6500  136.6310 C   0  0  0  0  0  0  0  0  0  0  0  0
  192.5490  174.7120  136.9860 C   0  0  0  0  0  3  0  0  0  0  0  0
  192.0220  173.4040  135.0220 C   0  0  0  0  0  3  0  0  0  0  0  0
  191.3720  176.7210  137.4390 F   0  0  0  0  0  0  0  0  0  0  0  0
  191.0460  174.3370  134.6640 C   0  0  0  0  0  3  0  0  0  0  0  0
  187.7060  178.2430  140.5120 C   0  0  0  0  0  0  0  0  0  0  0  0
  188.9230  177.9330  140.6170 O   0  0  0  0  0  0  0  0  0  0  0  0
  186.7680  178.6480  141.9760 S   0  0  0  0  0  1  0  0  0  0  0  0
  187.0650  178.2760  139.2320 N   0  0  0  0  0  2  0  0  0  0  0  0
  1  2  1  0  0  0  0
  1 15  1  0  0  0  0
  2  9  1  0  0  0  0
  3  5  1  6  0  0  0
  3 11  1  0  0  0  0
  3  8  1  0  0  0  0
  6  7  2  0  0  0  0
  6 12  1  0  0  0  0
  8 14  1  6  0  0  0
  8  4  1  0  0  0  0
  8 25  1  0  0  0  0
 10  1  2  0  0  0  0
 11  6  1  0  0  0  0
 12  9  1  6  0  0  0
 12  4  1  0  0  0  0
 13  2  1  0  0  0  0
 13  5  1  0  0  0  0
 15 17  1  0  0  0  0
 16 18  1  0  0  0  0
 17 18  2  0  0  0  0
 17 20  1  0  0  0  0
 19 16  2  0  0  0  0
 21 19  1  0  0  0  0
 21 15  2  0  0  0  0
 22 23  2  0  0  0  0
 22 24  1  0  0  0  0
 25 22  1  0  0  0  0
M  END
>  <MODEL>
3

>  <REMARK>
 VINA RESULT:      -4.9      2.967      4.887
  Name = 
  2 active torsions:
  status: ('A' for Active; 'I' for Inactive)
    1  A    between atoms: C_1  and  C_5
    2  A    between atoms: C_15  and  N_21
                            x       y       z     vdW  Elec       q    Type
                         _______ _______ _______ _____ _____    ______ ____

>  <TORSDO>
F 2

$$$$
=
 OpenBabel11052412433D

 25 27  0  0  1  0  0  0  0  0999 V2000
  181.8360  175.4410  136.3140 C   0  0  0  0  0  0  0  0  0  0  0  0
  180.9240  176.0860  137.2290 N   0  0  0  0  0  0  0  0  0  0  0  0
  182.1160  178.4180  138.9190 C   0  0  2  0  0  3  0  0  0  0  0  0
  182.5710  175.9670  139.5560 C   0  0  0  0  0  2  0  0  0  0  0  0
  181.7660  178.3930  137.4200 C   0  0  0  0  0  2  0  0  0  0  0  0
  180.4190  177.1640  140.1610 C   0  0  0  0  0  0  0  0  0  0  0  0
  179.3500  177.1440  140.9440 C   0  0  0  0  0  2  0  0  0  0  0  0
  183.1660  177.3780  139.3910 C   0  0  1  0  0  0  0  0  0  0  0  0
  180.3930  175.3900  138.4000 C   0  0  0  0  0  2  0  0  0  0  0  0
  182.4530  176.1400  135.4630 O   0  0  0  0  0  0  0  0  0  0  0  0
  180.9560  178.3820  139.7470 O   0  0  0  0  0  0  0  0  0  0  0  0
  181.0390  175.8780  139.6990 C   0  0  1  0  0  3  0  0  0  0  0  0
  180.5840  177.4940  137.0610 C   0  0  0  0  0  2  0  0  0  0  0  0
  184.3230  177.2830  138.4070 C   0  0  0  0  0  1  0  0  0  0  0  0
  182.0760  173.9780  136.3390 C   0  0  0  0  0  0  0  0  0  0  0  0
  182.5370  171.2060  136.3180 C   0  0  0  0  0  3  0  0  0  0  0  0
  183.2660  173.4480  136.8770 C   0  0  0  0  0  0  0  0  0  0  0  0
  183.4870  172.0680  136.8680 C   0  0  0  0  0  3  0  0  0  0  0  0
  181.3590  171.7220  135.7740 C   0  0  0  0  0  3  0  0  0  0  0  0
  184.2030  174.2580  137.4310 F   0  0  0  0  0  0  0  0  0  0  0  0
  181.1320  173.1000  135.7830 C   0  0  0  0  0  3  0  0  0  0  0  0
  184.5220  178.9270  140.9280 C   0  0  0  0  0  0  0  0  0  0  0  0
  184.8770  179.6730  139.9770 O   0  0  0  0  0  0  0  0  0  0  0  0
  185.0650  179.2960  142.5880 S   0  0  0  0  0  1  0  0  0  0  0  0
  183.6870  177.7870  140.6950 N   0  0  0  0  0  2  0  0  0  0  0  0
  1 15  1  0  0  0  0
  1  2  1  0  0  0  0
  2  9  1  0  0  0  0
  3  5  1  6  0  0  0
  3  8  1  0  0  0  0
  3 11  1  0  0  0  0
  4 12  1  0  0  0  0
  6  7  2  0  0  0  0
  8 14  1  6  0  0  0
  8  4  1  0  0  0  0
  8 25  1  0  0  0  0
 10  1  2  0  0  0  0
 11  6  1  0  0  0  0
 12  9  1  6  0  0  0
 12  6  1  0  0  0  0
 13  2  1  0  0  0  0
 13  5  1  0  0  0  0
 15 17  1  0  0  0  0
 16 18  1  0  0  0  0
 17 20  1  0  0  0  0
 18 17  2  0  0  0  0
 19 21  1  0  0  0  0
 19 16  2  0  0  0  0
 21 15  2  0  0  0  0
 22 24  1  0  0  0  0
 23 22  2  0  0  0  0
 25 22  1  0  0  0  0
M  END
>  <MODEL>
4

>  <REMARK>
 VINA RESULT:      -4.9      5.205      8.304
  Name = 
  2 active torsions:
  status: ('A' for Active; 'I' for Inactive)
    1  A    between atoms: C_1  and  C_5
    2  A    between atoms: C_15  and  N_21
                            x       y       z     vdW  Elec       q    Type
                         _______ _______ _______ _____ _____    ______ ____

>  <TORSDO>
F 2

$$$$
=
 OpenBabel11052412433D

 25 27  0  0  1  0  0  0  0  0999 V2000
  180.1520  178.8990  139.6880 C   0  0  0  0  0  0  0  0  0  0  0  0
  181.4280  179.1480  139.0610 N   0  0  0  0  0  0  0  0  0  0  0  0
  182.5040  176.8780  137.2170 C   0  0  2  0  0  3  0  0  0  0  0  0
  182.6910  176.6920  139.7760 C   0  0  0  0  0  2  0  0  0  0  0  0
  181.3490  177.8630  136.9610 C   0  0  0  0  0  2  0  0  0  0  0  0
  184.3150  178.0480  138.3770 C   0  0  0  0  0  0  0  0  0  0  0  0
  185.5060  178.6280  138.3560 C   0  0  0  0  0  2  0  0  0  0  0  0
  182.3580  175.9640  138.4600 C   0  0  1  0  0  0  0  0  0  0  0  0
  182.6630  179.2240  139.8390 C   0  0  0  0  0  2  0  0  0  0  0  0
  179.1580  178.6050  138.9680 O   0  0  0  0  0  0  0  0  0  0  0  0
  183.7770  177.5210  137.2040 O   0  0  0  0  0  0  0  0  0  0  0  0
  183.5330  177.9770  139.6560 C   0  0  1  0  0  3  0  0  0  0  0  0
  181.5310  179.2350  137.6090 C   0  0  0  0  0  2  0  0  0  0  0  0
  180.9400  175.4210  138.5760 C   0  0  0  0  0  1  0  0  0  0  0  0
  179.9660  178.9760  141.1570 C   0  0  0  0  0  0  0  0  0  0  0  0
  179.6770  179.1060  143.9500 C   0  0  0  0  0  3  0  0  0  0  0  0
  179.7400  180.2130  141.7950 C   0  0  0  0  0  0  0  0  0  0  0  0
  179.5930  180.2700  143.1840 C   0  0  0  0  0  3  0  0  0  0  0  0
  179.9100  177.8780  143.3280 C   0  0  0  0  0  3  0  0  0  0  0  0
  179.6390  181.3600  141.0780 F   0  0  0  0  0  0  0  0  0  0  0  0
  180.0560  177.8150  141.9400 C   0  0  0  0  0  3  0  0  0  0  0  0
  183.3520  173.9460  137.2190 C   0  0  0  0  0  0  0  0  0  0  0  0
  182.5740  174.0800  136.2370 O   0  0  0  0  0  0  0  0  0  0  0  0
  184.5550  172.6270  137.2180 S   0  0  0  0  0  1  0  0  0  0  0  0
  183.2850  174.8400  138.3360 N   0  0  0  0  0  2  0  0  0  0  0  0
  1 15  1  0  0  0  0
  2  1  1  0  0  0  0
  2  9  1  0  0  0  0
  3  5  1  1  0  0  0
  3  8  1  0  0  0  0
  5 13  1  0  0  0  0
  6 12  1  0  0  0  0
  7  6  2  0  0  0  0
  8 14  1  1  0  0  0
  8  4  1  0  0  0  0
 10  1  2  0  0  0  0
 11  3  1  0  0  0  0
 11  6  1  0  0  0  0
 12  4  1  6  0  0  0
 12  9  1  0  0  0  0
 13  2  1  0  0  0  0
 15 17  2  0  0  0  0
 15 21  1  0  0  0  0
 17 18  1  0  0  0  0
 18 16  2  0  0  0  0
 19 16  1  0  0  0  0
 20 17  1  0  0  0  0
 21 19  2  0  0  0  0
 22 25  1  0  0  0  0
 23 22  2  0  0  0  0
 24 22  1  0  0  0  0
 25  8  1  0  0  0  0
M  END
>  <MODEL>
5

>  <REMARK>
 VINA RESULT:      -4.8      5.611      7.599
  Name = 
  2 active torsions:
  status: ('A' for Active; 'I' for Inactive)
    1  A    between atoms: C_1  and  C_5
    2  A    between atoms: C_15  and  N_21
                            x       y       z     vdW  Elec       q    Type
                         _______ _______ _______ _____ _____    ______ ____

>  <TORSDO>
F 2

$$$$
=
 OpenBabel11052412433D

 25 27  0  0  1  0  0  0  0  0999 V2000
  188.5640  178.0800  139.2130 C   0  0  0  0  0  0  0  0  0  0  0  0
  189.4960  177.9490  138.1190 N   0  0  0  0  0  0  0  0  0  0  0  0
  188.3850  176.5950  135.5410 C   0  0  2  0  0  3  0  0  0  0  0  0
  189.0650  175.1810  137.5790 C   0  0  0  0  0  2  0  0  0  0  0  0
  188.0900  178.0000  136.0970 C   0  0  0  0  0  2  0  0  0  0  0  0
  190.7490  176.0680  135.9040 C   0  0  0  0  0  0  0  0  0  0  0  0
  191.9820  175.9440  135.4360 C   0  0  0  0  0  2  0  0  0  0  0  0
  188.0240  175.4050  136.4670 C   0  0  1  0  0  0  0  0  0  0  0  0
  190.6510  177.0560  138.1980 C   0  0  0  0  0  2  0  0  0  0  0  0
  187.4640  178.6680  139.0190 O   0  0  0  0  0  0  0  0  0  0  0  0
  189.7200  176.4750  135.0550 O   0  0  0  0  0  0  0  0  0  0  0  0
  190.4590  175.7960  137.3510 C   0  0  1  0  0  3  0  0  0  0  0  0
  189.2530  178.6380  136.8560 C   0  0  0  0  0  2  0  0  0  0  0  0
  186.6720  175.6220  137.1330 C   0  0  0  0  0  1  0  0  0  0  0  0
  188.8540  177.5460  140.5650 C   0  0  0  0  0  0  0  0  0  0  0  0
  189.4540  176.5750  143.1340 C   0  0  0  0  0  3  0  0  0  0  0  0
  187.9740  177.7800  141.6410 C   0  0  0  0  0  0  0  0  0  0  0  0
  188.2760  177.2910  142.9160 C   0  0  0  0  0  3  0  0  0  0  0  0
  190.3370  176.3470  142.0770 C   0  0  0  0  0  3  0  0  0  0  0  0
  186.8140  178.4590  141.4590 F   0  0  0  0  0  0  0  0  0  0  0  0
  190.0390  176.8310  140.8020 C   0  0  0  0  0  3  0  0  0  0  0  0
  187.5330  172.9040  136.1490 C   0  0  0  0  0  0  0  0  0  0  0  0
  187.1640  172.7540  137.3440 O   0  0  0  0  0  0  0  0  0  0  0  0
  187.5120  171.5070  135.0370 S   0  0  0  0  0  1  0  0  0  0  0  0
  187.9670  174.1810  135.6690 N   0  0  0  0  0  2  0  0  0  0  0  0
  1 15  1  0  0  0  0
  2  9  1  0  0  0  0
  2  1  1  0  0  0  0
  3  5  1  1  0  0  0
  3  8  1  0  0  0  0
  5 13  1  0  0  0  0
  6 12  1  0  0  0  0
  7  6  2  0  0  0  0
  8 14  1  1  0  0  0
  8  4  1  0  0  0  0
 10  1  2  0  0  0  0
 11  3  1  0  0  0  0
 11  6  1  0  0  0  0
 12  4  1  6  0  0  0
 12  9  1  0  0  0  0
 13  2  1  0  0  0  0
 15 21  2  0  0  0  0
 15 17  1  0  0  0  0
 17 18  2  0  0  0  0
 18 16  1  0  0  0  0
 19 16  2  0  0  0  0
 20 17  1  0  0  0  0
 21 19  1  0  0  0  0
 22 23  2  0  0  0  0
 24 22  1  0  0  0  0
 25 22  1  0  0  0  0
 25  8  1  0  0  0  0
M  END
>  <MODEL>
6

>  <REMARK>
 VINA RESULT:      -4.8      2.267      2.711
  Name = 
  2 active torsions:
  status: ('A' for Active; 'I' for Inactive)
    1  A    between atoms: C_1  and  C_5
    2  A    between atoms: C_15  and  N_21
                            x       y       z     vdW  Elec       q    Type
                         _______ _______ _______ _____ _____    ______ ____

>  <TORSDO>
F 2

$$$$
=
 OpenBabel11052412433D

 25 27  0  0  1  0  0  0  0  0999 V2000
  188.0180  178.2300  137.2470 C   0  0  0  0  0  0  0  0  0  0  0  0
  187.9390  177.1290  136.3170 N   0  0  0  0  0  0  0  0  0  0  0  0
  185.1310  176.5970  135.0740 C   0  0  2  0  0  3  0  0  0  0  0  0
  185.6780  175.8210  137.4650 C   0  0  0  0  0  2  0  0  0  0  0  0
  186.1150  177.7450  134.7800 C   0  0  0  0  0  2  0  0  0  0  0  0
  186.3910  174.5240  135.4050 C   0  0  0  0  0  0  0  0  0  0  0  0
  186.8120  173.3520  134.9530 C   0  0  0  0  0  2  0  0  0  0  0  0
  184.6380  176.4800  136.5390 C   0  0  1  0  0  0  0  0  0  0  0  0
  188.1080  175.7440  136.7520 C   0  0  0  0  0  2  0  0  0  0  0  0
  187.6330  179.3750  136.8810 O   0  0  0  0  0  0  0  0  0  0  0  0
  185.6050  175.3410  134.5940 O   0  0  0  0  0  0  0  0  0  0  0  0
  186.7780  174.9870  136.7790 C   0  0  1  0  0  3  0  0  0  0  0  0
  187.5880  177.3670  134.9210 C   0  0  0  0  0  2  0  0  0  0  0  0
  184.3040  177.8490  137.1160 C   0  0  0  0  0  1  0  0  0  0  0  0
  188.5380  178.0630  138.6250 C   0  0  0  0  0  0  0  0  0  0  0  0
  189.4840  177.6930  141.2460 C   0  0  0  0  0  3  0  0  0  0  0  0
  189.8730  177.6720  138.8540 C   0  0  0  0  0  0  0  0  0  0  0  0
  190.3390  177.4940  140.1600 C   0  0  0  0  0  3  0  0  0  0  0  0
  188.1580  178.0710  141.0290 C   0  0  0  0  0  3  0  0  0  0  0  0
  190.7320  177.4850  137.8210 F   0  0  0  0  0  0  0  0  0  0  0  0
  187.6880  178.2520  139.7270 C   0  0  0  0  0  3  0  0  0  0  0  0
  182.6940  175.3160  137.7510 C   0  0  0  0  0  0  0  0  0  0  0  0
  183.0560  175.7380  138.8820 O   0  0  0  0  0  0  0  0  0  0  0  0
  181.2360  174.2950  137.6160 S   0  0  0  0  0  1  0  0  0  0  0  0
  183.4360  175.6470  136.5720 N   0  0  0  0  0  2  0  0  0  0  0  0
  1 15  1  0  0  0  0
  2  9  1  0  0  0  0
  2  1  1  0  0  0  0
  3  5  1  1  0  0  0
  3  8  1  0  0  0  0
  5 13  1  0  0  0  0
  6 12  1  0  0  0  0
  7  6  2  0  0  0  0
  8 25  1  0  0  0  0
  8 14  1  1  0  0  0
  8  4  1  0  0  0  0
 10  1  2  0  0  0  0
 11  3  1  0  0  0  0
 11  6  1  0  0  0  0
 12  9  1  6  0  0  0
 12  4  1  0  0  0  0
 13  2  1  0  0  0  0
 15 17  2  0  0  0  0
 15 21  1  0  0  0  0
 17 18  1  0  0  0  0
 18 16  2  0  0  0  0
 19 16  1  0  0  0  0
 20 17  1  0  0  0  0
 21 19  2  0  0  0  0
 22 23  2  0  0  0  0
 24 22  1  0  0  0  0
 25 22  1  0  0  0  0
M  END
>  <MODEL>
7

>  <REMARK>
 VINA RESULT:      -4.8      1.956      2.314
  Name = 
  2 active torsions:
  status: ('A' for Active; 'I' for Inactive)
    1  A    between atoms: C_1  and  C_5
    2  A    between atoms: C_15  and  N_21
                            x       y       z     vdW  Elec       q    Type
                         _______ _______ _______ _____ _____    ______ ____

>  <TORSDO>
F 2

$$$$
=
 OpenBabel11052412433D

 25 27  0  0  1  0  0  0  0  0999 V2000
  180.7630  178.2550  141.3420 C   0  0  0  0  0  0  0  0  0  0  0  0
  180.3470  179.1340  140.2740 N   0  0  0  0  0  0  0  0  0  0  0  0
  180.3140  177.8840  137.4190 C   0  0  2  0  0  3  0  0  0  0  0  0
  182.5250  178.6350  138.4990 C   0  0  0  0  0  2  0  0  0  0  0  0
  179.3470  177.6370  138.5920 C   0  0  0  0  0  2  0  0  0  0  0  0
  180.9310  180.2530  137.3720 C   0  0  0  0  0  0  0  0  0  0  0  0
  180.8060  181.4610  136.8440 C   0  0  0  0  0  2  0  0  0  0  0  0
  181.8040  177.5470  137.6810 C   0  0  1  0  0  0  0  0  0  0  0  0
  181.1600  180.2770  139.8610 C   0  0  0  0  0  2  0  0  0  0  0  0
  180.1630  177.1570  141.5050 O   0  0  0  0  0  0  0  0  0  0  0  0
  180.1760  179.1930  136.8710 O   0  0  0  0  0  0  0  0  0  0  0  0
  181.8640  180.0260  138.5260 C   0  0  1  0  0  3  0  0  0  0  0  0
  179.1410  178.8430  139.5070 C   0  0  0  0  0  2  0  0  0  0  0  0
  181.9440  176.2300  138.4320 C   0  0  0  0  0  1  0  0  0  0  0  0
  181.8760  178.5980  142.2580 C   0  0  0  0  0  0  0  0  0  0  0  0
  183.9990  179.3040  143.9600 C   0  0  0  0  0  3  0  0  0  0  0  0
  181.6240  179.0030  143.5850 C   0  0  0  0  0  0  0  0  0  0  0  0
  182.6840  179.3490  144.4280 C   0  0  0  0  0  3  0  0  0  0  0  0
  184.2580  178.9140  142.6450 C   0  0  0  0  0  3  0  0  0  0  0  0
  180.3590  179.0430  144.0740 F   0  0  0  0  0  0  0  0  0  0  0  0
  183.2020  178.5660  141.8000 C   0  0  0  0  0  3  0  0  0  0  0  0
  183.8880  177.1280  136.2380 C   0  0  0  0  0  0  0  0  0  0  0  0
  184.6280  176.9360  137.2390 O   0  0  0  0  0  0  0  0  0  0  0  0
  184.5800  177.0150  134.5960 S   0  0  0  0  0  1  0  0  0  0  0  0
  182.4980  177.4340  136.3980 N   0  0  0  0  0  2  0  0  0  0  0  0
  1 10  2  0  0  0  0
  1 15  1  0  0  0  0
  2  1  1  0  0  0  0
  3  8  1  0  0  0  0
  3  5  1  1  0  0  0
  5 13  1  0  0  0  0
  6 12  1  0  0  0  0
  7  6  2  0  0  0  0
  8 14  1  1  0  0  0
  8  4  1  0  0  0  0
  9  2  1  0  0  0  0
 11  6  1  0  0  0  0
 11  3  1  0  0  0  0
 12  4  1  1  0  0  0
 12  9  1  0  0  0  0
 13  2  1  0  0  0  0
 15 17  1  0  0  0  0
 16 18  1  0  0  0  0
 17 20  1  0  0  0  0
 17 18  2  0  0  0  0
 19 16  2  0  0  0  0
 21 15  2  0  0  0  0
 21 19  1  0  0  0  0
 22 25  1  0  0  0  0
 22 23  2  0  0  0  0
 24 22  1  0  0  0  0
 25  8  1  0  0  0  0
M  END
>  <MODEL>
8

>  <REMARK>
 VINA RESULT:      -4.7      5.597      7.748
  Name = 
  2 active torsions:
  status: ('A' for Active; 'I' for Inactive)
    1  A    between atoms: C_1  and  C_5
    2  A    between atoms: C_15  and  N_21
                            x       y       z     vdW  Elec       q    Type
                         _______ _______ _______ _____ _____    ______ ____

>  <TORSDO>
F 2

$$$$
=
 OpenBabel11052412433D

 25 27  0  0  1  0  0  0  0  0999 V2000
  181.8080  178.8580  141.0450 C   0  0  0  0  0  0  0  0  0  0  0  0
  182.1580  178.8030  139.6460 N   0  0  0  0  0  0  0  0  0  0  0  0
  180.6380  176.6790  137.9450 C   0  0  2  0  0  3  0  0  0  0  0  0
  182.5920  175.9890  139.4690 C   0  0  0  0  0  2  0  0  0  0  0  0
  180.1140  178.0060  138.5260 C   0  0  0  0  0  2  0  0  0  0  0  0
  182.9380  176.9960  137.1680 C   0  0  0  0  0  0  0  0  0  0  0  0
  183.8020  177.1690  136.1780 C   0  0  0  0  0  2  0  0  0  0  0  0
  181.1740  175.6500  138.9730 C   0  0  1  0  0  0  0  0  0  0  0  0
  183.4740  178.3480  139.2010 C   0  0  0  0  0  2  0  0  0  0  0  0
  180.6010  179.0230  141.3730 O   0  0  0  0  0  0  0  0  0  0  0  0
  181.5760  176.8830  136.8910 O   0  0  0  0  0  0  0  0  0  0  0  0
  183.4180  176.9460  138.5890 C   0  0  1  0  0  3  0  0  0  0  0  0
  181.1630  179.1120  138.6250 C   0  0  0  0  0  2  0  0  0  0  0  0
  180.2630  175.5660  140.1900 C   0  0  0  0  0  1  0  0  0  0  0  0
  182.8230  178.7250  142.1180 C   0  0  0  0  0  0  0  0  0  0  0  0
  184.7780  178.5250  144.1280 C   0  0  0  0  0  3  0  0  0  0  0  0
  182.4980  179.0040  143.4610 C   0  0  0  0  0  0  0  0  0  0  0  0
  183.4730  178.8990  144.4570 C   0  0  0  0  0  3  0  0  0  0  0  0
  185.1120  178.2560  142.7990 C   0  0  0  0  0  3  0  0  0  0  0  0
  181.2360  179.3550  143.8160 F   0  0  0  0  0  0  0  0  0  0  0  0
  184.1400  178.3580  141.8010 C   0  0  0  0  0  3  0  0  0  0  0  0
  180.1030  173.5430  137.9660 C   0  0  0  0  0  0  0  0  0  0  0  0
  178.9310  173.9530  138.1800 O   0  0  0  0  0  0  0  0  0  0  0  0
  180.3530  171.9570  137.1860 S   0  0  0  0  0  1  0  0  0  0  0  0
  181.2370  174.3330  138.3380 N   0  0  0  0  0  2  0  0  0  0  0  0
  1 10  2  0  0  0  0
  1 15  1  0  0  0  0
  2  1  1  0  0  0  0
  3  5  1  1  0  0  0
  3  8  1  0  0  0  0
  5 13  1  0  0  0  0
  6 12  1  0  0  0  0
  7  6  2  0  0  0  0
  8  4  1  0  0  0  0
  8 14  1  1  0  0  0
  9  2  1  0  0  0  0
 11  6  1  0  0  0  0
 11  3  1  0  0  0  0
 12  9  1  1  0  0  0
 12  4  1  0  0  0  0
 13  2  1  0  0  0  0
 15 17  1  0  0  0  0
 16 18  1  0  0  0  0
 17 20  1  0  0  0  0
 17 18  2  0  0  0  0
 19 16  2  0  0  0  0
 21 15  2  0  0  0  0
 21 19  1  0  0  0  0
 22 23  2  0  0  0  0
 22 25  1  0  0  0  0
 24 22  1  0  0  0  0
 25  8  1  0  0  0  0
M  END
>  <MODEL>
9

>  <REMARK>
 VINA RESULT:      -4.7      5.285      6.769
  Name = 
  2 active torsions:
  status: ('A' for Active; 'I' for Inactive)
    1  A    between atoms: C_1  and  C_5
    2  A    between atoms: C_15  and  N_21
                            x       y       z     vdW  Elec       q    Type
                         _______ _______ _______ _____ _____    ______ ____

>  <TORSDO>
F 2

$$$$
