=
 OpenBabel11052413393D

 27 31  0  0  1  0  0  0  0  0999 V2000
  187.7200  176.2930  143.4030 N   0  0  0  0  0  2  0  0  0  0  0  0
  187.5740  178.1930  141.4000 C   0  0  0  0  0  0  0  0  0  0  0  0
  189.0010  176.7300  142.8200 C   0  0  1  0  0  3  0  0  0  0  0  0
  190.2000  177.0160  137.5610 C   0  0  0  0  0  3  0  0  0  0  0  0
  191.6080  175.2420  138.2370 O   0  0  0  0  0  0  0  0  0  0  0  0
  187.3990  178.7430  139.8160 S   0  0  0  0  0  0  0  0  0  0  0  0
  190.6400  176.4440  140.0690 C   0  0  1  0  0  3  0  0  0  0  0  0
  191.8850  177.1220  140.6070 C   0  0  0  0  0  1  0  0  0  0  0  0
  189.4270  177.3130  140.3110 C   0  0  0  0  0  0  0  0  0  0  0  0
  186.5690  178.1960  142.4190 N   0  0  0  0  0  0  0  0  0  0  0  0
  190.8430  176.1740  138.5950 C   0  0  0  0  0  0  0  0  0  0  0  0
  189.2440  177.8920  137.8780 C   0  0  0  0  0  3  0  0  0  0  0  0
  186.8270  177.4420  143.6540 C   0  0  0  0  0  2  0  0  0  0  0  0
  188.7230  177.4370  141.5220 C   0  0  0  0  0  0  0  0  0  0  0  0
  188.8180  178.0130  139.2740 C   0  0  0  0  0  0  0  0  0  0  0  0
  181.7790  179.0120  143.6920 C   0  0  0  0  0  1  0  0  0  0  0  0
  185.4300  179.1020  142.3230 C   0  0  2  0  0  3  0  0  0  0  0  0
  184.5720  179.2250  143.9390 S   0  0  0  0  0  0  0  0  0  0  0  0
  183.0880  178.7140  143.1460 N   0  0  0  0  0  0  0  0  0  0  0  0
  183.2770  178.4430  141.7720 C   0  0  0  0  0  3  0  0  0  0  0  0
  184.4750  178.6170  141.3310 N   0  0  0  0  0  0  0  0  0  0  0  0
  191.6620  179.0530  144.1000 N   0  0  0  0  0  2  0  0  0  0  0  0
  191.7220  177.9830  145.0940 C   0  0  0  0  0  2  0  0  0  0  0  0
  190.5350  178.7620  143.2200 C   0  0  0  0  0  2  0  0  0  0  0  0
  191.5080  175.9090  143.8810 N   0  0  0  0  0  1  0  0  0  0  0  0
  190.7730  176.8840  144.6750 C   0  0  2  0  0  3  0  0  0  0  0  0
  189.7560  177.6210  143.8310 C   0  0  2  0  0  3  0  0  0  0  0  0
  1 13  1  0  0  0  0
  2 14  2  0  0  0  0
  2 10  1  0  0  0  0
  3 14  1  6  0  0  0
  3  1  1  0  0  0  0
  3 27  1  0  0  0  0
  4 12  2  0  0  0  0
  4 11  1  0  0  0  0
  5 11  2  0  0  0  0
  6  2  1  0  0  0  0
  7  9  1  0  0  0  0
  7  8  1  6  0  0  0
  9 14  1  0  0  0  0
 10 13  1  0  0  0  0
 11  7  1  0  0  0  0
 12 15  1  0  0  0  0
 15  6  1  0  0  0  0
 15  9  2  0  0  0  0
 17 10  1  1  0  0  0
 17 18  1  0  0  0  0
 19 16  1  0  0  0  0
 19 18  1  0  0  0  0
 20 19  1  0  0  0  0
 21 20  2  0  0  0  0
 21 17  1  0  0  0  0
 22 23  1  0  0  0  0
 24 22  1  0  0  0  0
 26 25  1  6  0  0  0
 26 23  1  0  0  0  0
 27 24  1  6  0  0  0
 27 26  1  0  0  0  0
M  END
>  <MODEL>
1

>  <REMARK>
 VINA RESULT:      -7.7      0.000      0.000
  Name = 
  2 active torsions:
  status: ('A' for Active; 'I' for Inactive)
    1  A    between atoms: C_3  and  C_26
    2  A    between atoms: C_9  and  N_15
                            x       y       z     vdW  Elec       q    Type
                         _______ _______ _______ _____ _____    ______ ____

>  <TORSDO>
F 2

$$$$
=
 OpenBabel11052413393D

 27 31  0  0  1  0  0  0  0  0999 V2000
  190.1530  175.0800  137.6440 N   0  0  0  0  0  2  0  0  0  0  0  0
  191.8360  176.7610  139.0540 C   0  0  0  0  0  0  0  0  0  0  0  0
  189.5190  176.2230  138.3230 C   0  0  1  0  0  3  0  0  0  0  0  0
  190.2190  177.6830  143.4770 C   0  0  0  0  0  3  0  0  0  0  0  0
  187.9700  176.9590  143.5270 O   0  0  0  0  0  0  0  0  0  0  0  0
  192.7190  177.2770  140.3950 S   0  0  0  0  0  0  0  0  0  0  0  0
  188.8450  177.2030  141.3100 C   0  0  1  0  0  3  0  0  0  0  0  0
  188.0400  178.4060  140.8570 C   0  0  0  0  0  1  0  0  0  0  0  0
  190.2020  177.2020  140.6450 C   0  0  0  0  0  0  0  0  0  0  0  0
  192.3520  176.0880  137.9020 N   0  0  0  0  0  0  0  0  0  0  0  0
  188.9660  177.2510  142.8170 C   0  0  0  0  0  0  0  0  0  0  0  0
  191.3510  177.8260  142.7850 C   0  0  0  0  0  3  0  0  0  0  0  0
  191.3960  175.4890  136.9590 C   0  0  0  0  0  2  0  0  0  0  0  0
  190.4830  176.7800  139.3340 C   0  0  0  0  0  0  0  0  0  0  0  0
  191.3550  177.5380  141.3490 C   0  0  0  0  0  0  0  0  0  0  0  0
  196.0930  174.3330  135.0450 C   0  0  0  0  0  1  0  0  0  0  0  0
  193.7670  176.1950  137.5620 C   0  0  2  0  0  3  0  0  0  0  0  0
  194.0010  176.0760  135.7470 S   0  0  0  0  0  0  0  0  0  0  0  0
  195.0880  174.7210  136.0160 N   0  0  0  0  0  0  0  0  0  0  0  0
  195.2090  174.3890  137.3840 C   0  0  0  0  0  3  0  0  0  0  0  0
  194.5250  175.1200  138.1940 N   0  0  0  0  0  0  0  0  0  0  0  0
  188.0300  179.4130  137.0090 N   0  0  0  0  0  2  0  0  0  0  0  0
  187.3050  178.4180  136.2190 C   0  0  0  0  0  2  0  0  0  0  0  0
  189.0390  178.6970  137.7830 C   0  0  0  0  0  2  0  0  0  0  0  0
  186.7670  176.6100  137.7230 N   0  0  0  0  0  1  0  0  0  0  0  0
  187.7050  177.0410  136.6970 C   0  0  2  0  0  3  0  0  0  0  0  0
  189.0830  177.2740  137.2780 C   0  0  2  0  0  3  0  0  0  0  0  0
  2 14  2  0  0  0  0
  2  6  1  0  0  0  0
  3  1  1  6  0  0  0
  3 14  1  0  0  0  0
  6 15  1  0  0  0  0
  7  8  1  6  0  0  0
  7 11  1  0  0  0  0
  9  7  1  0  0  0  0
  9 15  2  0  0  0  0
 10  2  1  0  0  0  0
 11  4  1  0  0  0  0
 11  5  2  0  0  0  0
 12  4  2  0  0  0  0
 13  1  1  0  0  0  0
 13 10  1  0  0  0  0
 14  9  1  0  0  0  0
 15 12  1  0  0  0  0
 16 19  1  0  0  0  0
 17 10  1  6  0  0  0
 17 21  1  0  0  0  0
 18 19  1  0  0  0  0
 18 17  1  0  0  0  0
 19 20  1  0  0  0  0
 20 21  2  0  0  0  0
 22 24  1  0  0  0  0
 23 26  1  0  0  0  0
 23 22  1  0  0  0  0
 26 27  1  0  0  0  0
 26 25  1  1  0  0  0
 27 24  1  1  0  0  0
 27  3  1  0  0  0  0
M  END
>  <MODEL>
2

>  <REMARK>
 VINA RESULT:      -7.2      4.275      8.321
  Name = 
  2 active torsions:
  status: ('A' for Active; 'I' for Inactive)
    1  A    between atoms: C_3  and  C_26
    2  A    between atoms: C_9  and  N_15
                            x       y       z     vdW  Elec       q    Type
                         _______ _______ _______ _____ _____    ______ ____

>  <TORSDO>
F 2

$$$$
=
 OpenBabel11052413393D

 27 31  0  0  1  0  0  0  0  0999 V2000
  187.1780  179.5180  140.8420 N   0  0  0  0  0  2  0  0  0  0  0  0
  186.8200  177.7260  142.9170 C   0  0  0  0  0  0  0  0  0  0  0  0
  188.2800  178.5720  141.0880 C   0  0  1  0  0  3  0  0  0  0  0  0
  190.6140  177.5360  145.8490 C   0  0  0  0  0  3  0  0  0  0  0  0
  192.3790  178.6320  144.7240 O   0  0  0  0  0  0  0  0  0  0  0  0
  186.8670  177.2050  144.5190 S   0  0  0  0  0  0  0  0  0  0  0  0
  190.5620  178.0240  143.2850 C   0  0  1  0  0  3  0  0  0  0  0  0
  191.2410  176.9350  142.4760 C   0  0  0  0  0  1  0  0  0  0  0  0
  189.0870  177.7280  143.4230 C   0  0  0  0  0  0  0  0  0  0  0  0
  185.6670  178.1840  142.2030 N   0  0  0  0  0  0  0  0  0  0  0  0
  191.2400  178.1070  144.6350 C   0  0  0  0  0  0  0  0  0  0  0  0
  189.3400  177.1350  145.8470 C   0  0  0  0  0  3  0  0  0  0  0  0
  185.8680  178.8390  140.9020 C   0  0  0  0  0  2  0  0  0  0  0  0
  188.0980  177.9640  142.4510 C   0  0  0  0  0  0  0  0  0  0  0  0
  188.5470  177.2740  144.6230 C   0  0  0  0  0  0  0  0  0  0  0  0
  180.7720  179.3070  142.1060 C   0  0  0  0  0  1  0  0  0  0  0  0
  184.3300  177.8060  142.6490 C   0  0  2  0  0  3  0  0  0  0  0  0
  183.1210  177.9990  141.2840 S   0  0  0  0  0  0  0  0  0  0  0  0
  182.1870  179.0730  142.3150 N   0  0  0  0  0  0  0  0  0  0  0  0
  182.7960  179.2760  143.5740 C   0  0  0  0  0  3  0  0  0  0  0  0
  183.9060  178.6500  143.7610 N   0  0  0  0  0  0  0  0  0  0  0  0
  189.7820  176.2650  138.5320 N   0  0  0  0  0  2  0  0  0  0  0  0
  188.8270  177.0080  137.7120 C   0  0  0  0  0  2  0  0  0  0  0  0
  189.5760  176.6780  139.9160 C   0  0  0  0  0  2  0  0  0  0  0  0
  188.9570  179.3080  138.4260 N   0  0  0  0  0  1  0  0  0  0  0  0
  188.1900  178.0790  138.5680 C   0  0  2  0  0  3  0  0  0  0  0  0
  188.3170  177.5120  139.9660 C   0  0  2  0  0  3  0  0  0  0  0  0
  1 13  1  0  0  0  0
  2  6  1  0  0  0  0
  3  1  1  6  0  0  0
  3 14  1  0  0  0  0
  6 15  1  0  0  0  0
  7  8  1  6  0  0  0
  7  9  1  0  0  0  0
  7 11  1  0  0  0  0
  9 15  2  0  0  0  0
 10  2  1  0  0  0  0
 11  5  2  0  0  0  0
 11  4  1  0  0  0  0
 12  4  2  0  0  0  0
 13 10  1  0  0  0  0
 14  2  2  0  0  0  0
 14  9  1  0  0  0  0
 15 12  1  0  0  0  0
 16 19  1  0  0  0  0
 17 10  1  6  0  0  0
 17 21  1  0  0  0  0
 18 19  1  0  0  0  0
 18 17  1  0  0  0  0
 19 20  1  0  0  0  0
 20 21  2  0  0  0  0
 22 24  1  0  0  0  0
 23 22  1  0  0  0  0
 23 26  1  0  0  0  0
 26 25  1  1  0  0  0
 26 27  1  0  0  0  0
 27 24  1  6  0  0  0
 27  3  1  0  0  0  0
M  END
>  <MODEL>
3

>  <REMARK>
 VINA RESULT:      -6.8      2.635      4.755
  Name = 
  2 active torsions:
  status: ('A' for Active; 'I' for Inactive)
    1  A    between atoms: C_3  and  C_26
    2  A    between atoms: C_9  and  N_15
                            x       y       z     vdW  Elec       q    Type
                         _______ _______ _______ _____ _____    ______ ____

>  <TORSDO>
F 2

$$$$
=
 OpenBabel11052413393D

 27 31  0  0  1  0  0  0  0  0999 V2000
  188.7960  179.2820  140.7210 N   0  0  0  0  0  2  0  0  0  0  0  0
  186.2490  178.2120  140.6080 C   0  0  0  0  0  0  0  0  0  0  0  0
  188.3700  178.4790  141.8810 C   0  0  1  0  0  3  0  0  0  0  0  0
  183.7460  179.0070  144.6240 C   0  0  0  0  0  3  0  0  0  0  0  0
  185.3040  179.7350  146.2450 O   0  0  0  0  0  0  0  0  0  0  0  0
  184.5750  178.2110  140.8030 S   0  0  0  0  0  0  0  0  0  0  0  0
  186.3210  178.6780  144.3500 C   0  0  1  0  0  3  0  0  0  0  0  0
  186.8140  177.4060  145.0120 C   0  0  0  0  0  1  0  0  0  0  0  0
  185.9700  178.4120  142.9050 C   0  0  0  0  0  0  0  0  0  0  0  0
  186.9640  178.4050  139.3830 N   0  0  0  0  0  0  0  0  0  0  0  0
  185.1270  179.1860  145.1270 C   0  0  0  0  0  0  0  0  0  0  0  0
  183.5130  178.6020  143.3730 C   0  0  0  0  0  3  0  0  0  0  0  0
  188.4150  178.6300  139.4520 C   0  0  0  0  0  2  0  0  0  0  0  0
  186.8760  178.3180  141.8340 C   0  0  0  0  0  0  0  0  0  0  0  0
  184.6450  178.3410  142.4820 C   0  0  0  0  0  0  0  0  0  0  0  0
  187.2860  176.1570  134.9030 C   0  0  0  0  0  1  0  0  0  0  0  0
  186.3070  178.1580  138.1040 C   0  0  2  0  0  3  0  0  0  0  0  0
  186.5270  176.4090  137.5980 S   0  0  0  0  0  0  0  0  0  0  0  0
  187.2510  176.9740  136.0990 N   0  0  0  0  0  0  0  0  0  0  0  0
  187.3370  178.3830  136.0400 C   0  0  0  0  0  3  0  0  0  0  0  0
  186.8760  179.0110  137.0660 N   0  0  0  0  0  0  0  0  0  0  0  0
  189.7240  175.2520  143.2470 N   0  0  0  0  0  2  0  0  0  0  0  0
  190.9330  175.8450  142.6770 C   0  0  0  0  0  2  0  0  0  0  0  0
  188.6070  176.1170  142.8820 C   0  0  0  0  0  2  0  0  0  0  0  0
  190.8630  178.1950  143.2190 N   0  0  0  0  0  1  0  0  0  0  0  0
  190.5950  177.2260  142.1650 C   0  0  2  0  0  3  0  0  0  0  0  0
  189.1130  177.1250  141.8780 C   0  0  2  0  0  3  0  0  0  0  0  0
  2  6  1  0  0  0  0
  2 14  2  0  0  0  0
  3  1  1  6  0  0  0
  4 11  1  0  0  0  0
  6 15  1  0  0  0  0
  7  8  1  1  0  0  0
  7 11  1  0  0  0  0
  9  7  1  0  0  0  0
 10 13  1  0  0  0  0
 10  2  1  0  0  0  0
 11  5  2  0  0  0  0
 12  4  2  0  0  0  0
 13  1  1  0  0  0  0
 14  3  1  0  0  0  0
 14  9  1  0  0  0  0
 15  9  2  0  0  0  0
 15 12  1  0  0  0  0
 16 19  1  0  0  0  0
 17 10  1  1  0  0  0
 18 17  1  0  0  0  0
 19 18  1  0  0  0  0
 20 19  1  0  0  0  0
 20 21  2  0  0  0  0
 21 17  1  0  0  0  0
 23 22  1  0  0  0  0
 24 22  1  0  0  0  0
 26 23  1  0  0  0  0
 26 25  1  1  0  0  0
 27  3  1  0  0  0  0
 27 26  1  0  0  0  0
 27 24  1  1  0  0  0
M  END
>  <MODEL>
4

>  <REMARK>
 VINA RESULT:      -6.4      3.315      5.961
  Name = 
  2 active torsions:
  status: ('A' for Active; 'I' for Inactive)
    1  A    between atoms: C_3  and  C_26
    2  A    between atoms: C_9  and  N_15
                            x       y       z     vdW  Elec       q    Type
                         _______ _______ _______ _____ _____    ______ ____

>  <TORSDO>
F 2

$$$$
=
 OpenBabel11052413393D

 27 31  0  0  1  0  0  0  0  0999 V2000
  187.7220  178.8520  136.7010 N   0  0  0  0  0  2  0  0  0  0  0  0
  187.4630  177.9180  139.2910 C   0  0  0  0  0  0  0  0  0  0  0  0
  188.6110  177.7420  137.0900 C   0  0  1  0  0  3  0  0  0  0  0  0
  191.6900  177.5030  141.5230 C   0  0  0  0  0  3  0  0  0  0  0  0
  193.3470  177.6710  139.8460 O   0  0  0  0  0  0  0  0  0  0  0  0
  187.7610  177.8910  140.9490 S   0  0  0  0  0  0  0  0  0  0  0  0
  191.1570  177.2210  138.9830 C   0  0  1  0  0  3  0  0  0  0  0  0
  191.3680  175.7980  138.5030 C   0  0  0  0  0  1  0  0  0  0  0  0
  189.7260  177.4150  139.4280 C   0  0  0  0  0  0  0  0  0  0  0  0
  186.3090  178.4600  138.6410 N   0  0  0  0  0  0  0  0  0  0  0  0
  192.1300  177.4930  140.1090 C   0  0  0  0  0  0  0  0  0  0  0  0
  190.3940  177.5020  141.8440 C   0  0  0  0  0  3  0  0  0  0  0  0
  186.3440  178.6250  137.1810 C   0  0  0  0  0  2  0  0  0  0  0  0
  188.6180  177.6340  138.5900 C   0  0  0  0  0  0  0  0  0  0  0  0
  189.3920  177.5030  140.7770 C   0  0  0  0  0  0  0  0  0  0  0  0
  181.3000  178.7070  138.3560 C   0  0  0  0  0  1  0  0  0  0  0  0
  185.0620  178.6280  139.3800 C   0  0  2  0  0  3  0  0  0  0  0  0
  183.7880  177.4630  138.7600 S   0  0  0  0  0  0  0  0  0  0  0  0
  182.7410  178.8380  138.4440 N   0  0  0  0  0  0  0  0  0  0  0  0
  183.3570  180.0700  138.7590 C   0  0  0  0  0  3  0  0  0  0  0  0
  184.5550  179.9880  139.2240 N   0  0  0  0  0  0  0  0  0  0  0  0
  188.5300  174.0730  136.2890 N   0  0  0  0  0  2  0  0  0  0  0  0
  188.6820  174.6480  134.9540 C   0  0  0  0  0  2  0  0  0  0  0  0
  188.3450  175.1820  137.2190 C   0  0  0  0  0  2  0  0  0  0  0  0
  190.2630  176.4580  135.1650 N   0  0  0  0  0  1  0  0  0  0  0  0
  188.8430  176.1450  135.0910 C   0  0  2  0  0  3  0  0  0  0  0  0
  188.1480  176.4390  136.4030 C   0  0  2  0  0  3  0  0  0  0  0  0
  1 13  1  0  0  0  0
  2  6  1  0  0  0  0
  3  1  1  1  0  0  0
  3 14  1  0  0  0  0
  4 12  2  0  0  0  0
  5 11  2  0  0  0  0
  7  8  1  1  0  0  0
  7  9  1  0  0  0  0
  7 11  1  0  0  0  0
  9 15  2  0  0  0  0
 10  2  1  0  0  0  0
 11  4  1  0  0  0  0
 13 10  1  0  0  0  0
 14  2  2  0  0  0  0
 14  9  1  0  0  0  0
 15  6  1  0  0  0  0
 15 12  1  0  0  0  0
 16 19  1  0  0  0  0
 17 10  1  6  0  0  0
 18 17  1  0  0  0  0
 19 20  1  0  0  0  0
 19 18  1  0  0  0  0
 20 21  2  0  0  0  0
 21 17  1  0  0  0  0
 22 24  1  0  0  0  0
 23 26  1  0  0  0  0
 23 22  1  0  0  0  0
 26 25  1  1  0  0  0
 26 27  1  0  0  0  0
 27  3  1  0  0  0  0
 27 24  1  1  0  0  0
M  END
>  <MODEL>
5

>  <REMARK>
 VINA RESULT:      -6.2      3.495      5.570
  Name = 
  2 active torsions:
  status: ('A' for Active; 'I' for Inactive)
    1  A    between atoms: C_3  and  C_26
    2  A    between atoms: C_9  and  N_15
                            x       y       z     vdW  Elec       q    Type
                         _______ _______ _______ _____ _____    ______ ____

>  <TORSDO>
F 2

$$$$
=
 OpenBabel11052413393D

 27 31  0  0  1  0  0  0  0  0999 V2000
  188.5220  175.9450  142.7810 N   0  0  0  0  0  2  0  0  0  0  0  0
  187.6710  177.9450  144.4900 C   0  0  0  0  0  0  0  0  0  0  0  0
  187.7410  177.0380  142.1740 C   0  0  1  0  0  3  0  0  0  0  0  0
  183.0150  178.9690  143.9410 C   0  0  0  0  0  3  0  0  0  0  0  0
  182.3440  177.9450  141.9190 O   0  0  0  0  0  0  0  0  0  0  0  0
  186.6330  178.6790  145.5970 S   0  0  0  0  0  0  0  0  0  0  0  0
  184.7210  178.1390  142.1480 C   0  0  1  0  0  3  0  0  0  0  0  0
  184.9880  179.1810  141.0790 C   0  0  0  0  0  1  0  0  0  0  0  0
  185.7220  178.2760  143.2710 C   0  0  0  0  0  0  0  0  0  0  0  0
  188.8940  177.2650  144.7900 N   0  0  0  0  0  0  0  0  0  0  0  0
  183.3030  178.3180  142.6430 C   0  0  0  0  0  0  0  0  0  0  0  0
  183.9880  179.2140  144.8220 C   0  0  0  0  0  3  0  0  0  0  0  0
  189.5260  176.4690  143.7290 C   0  0  0  0  0  2  0  0  0  0  0  0
  187.0440  177.7980  143.2690 C   0  0  0  0  0  0  0  0  0  0  0  0
  185.3620  178.8210  144.5010 C   0  0  0  0  0  0  0  0  0  0  0  0
  192.5180  175.7850  147.9380 C   0  0  0  0  0  1  0  0  0  0  0  0
  189.6000  177.5410  146.0370 C   0  0  2  0  0  3  0  0  0  0  0  0
  191.4010  177.2680  145.8260 S   0  0  0  0  0  0  0  0  0  0  0  0
  191.3440  176.1210  147.1570 N   0  0  0  0  0  0  0  0  0  0  0  0
  190.0380  175.9560  147.6700 C   0  0  0  0  0  3  0  0  0  0  0  0
  189.1230  176.6600  147.0980 N   0  0  0  0  0  0  0  0  0  0  0  0
  188.9460  178.9430  139.1690 N   0  0  0  0  0  2  0  0  0  0  0  0
  190.1160  178.1170  139.4650 C   0  0  0  0  0  2  0  0  0  0  0  0
  187.9820  178.7260  140.2420 C   0  0  0  0  0  2  0  0  0  0  0  0
  189.2800  175.9320  140.0540 N   0  0  0  0  0  1  0  0  0  0  0  0
  189.7710  177.1870  140.6060 C   0  0  2  0  0  3  0  0  0  0  0  0
  188.6720  177.9350  141.3290 C   0  0  2  0  0  3  0  0  0  0  0  0
  1 13  1  0  0  0  0
  2 10  1  0  0  0  0
  2  6  1  0  0  0  0
  3  1  1  1  0  0  0
  3 14  1  0  0  0  0
  4 12  2  0  0  0  0
  5 11  2  0  0  0  0
  7  8  1  6  0  0  0
  7 11  1  0  0  0  0
  7  9  1  0  0  0  0
  9 15  2  0  0  0  0
 11  4  1  0  0  0  0
 13 10  1  0  0  0  0
 14  9  1  0  0  0  0
 14  2  2  0  0  0  0
 15 12  1  0  0  0  0
 15  6  1  0  0  0  0
 17 10  1  6  0  0  0
 17 21  1  0  0  0  0
 18 17  1  0  0  0  0
 18 19  1  0  0  0  0
 19 20  1  0  0  0  0
 19 16  1  0  0  0  0
 21 20  2  0  0  0  0
 22 23  1  0  0  0  0
 22 24  1  0  0  0  0
 23 26  1  0  0  0  0
 26 25  1  6  0  0  0
 26 27  1  0  0  0  0
 27 24  1  6  0  0  0
 27  3  1  0  0  0  0
M  END
>  <MODEL>
6

>  <REMARK>
 VINA RESULT:      -6.1      3.251      6.619
  Name = 
  2 active torsions:
  status: ('A' for Active; 'I' for Inactive)
    1  A    between atoms: C_3  and  C_26
    2  A    between atoms: C_9  and  N_15
                            x       y       z     vdW  Elec       q    Type
                         _______ _______ _______ _____ _____    ______ ____

>  <TORSDO>
F 2

$$$$
=
 OpenBabel11052413393D

 27 31  0  0  1  0  0  0  0  0999 V2000
  183.4440  176.9150  138.2670 N   0  0  0  0  0  2  0  0  0  0  0  0
  184.9410  178.5680  139.9010 C   0  0  0  0  0  0  0  0  0  0  0  0
  182.7030  177.9540  139.0040 C   0  0  1  0  0  3  0  0  0  0  0  0
  183.0560  179.0030  144.2920 C   0  0  0  0  0  3  0  0  0  0  0  0
  180.8590  178.1390  144.1610 O   0  0  0  0  0  0  0  0  0  0  0  0
  185.7230  179.0190  141.3250 S   0  0  0  0  0  0  0  0  0  0  0  0
  181.8230  178.6280  142.0220 C   0  0  1  0  0  3  0  0  0  0  0  0
  180.9630  179.8130  141.6290 C   0  0  0  0  0  1  0  0  0  0  0  0
  183.2070  178.7680  141.4330 C   0  0  0  0  0  0  0  0  0  0  0  0
  185.5560  178.0300  138.7260 N   0  0  0  0  0  0  0  0  0  0  0  0
  181.8670  178.5520  143.5320 C   0  0  0  0  0  0  0  0  0  0  0  0
  184.2080  179.2740  143.6760 C   0  0  0  0  0  3  0  0  0  0  0  0
  184.6880  177.4570  137.6870 C   0  0  0  0  0  2  0  0  0  0  0  0
  183.5790  178.4790  140.1080 C   0  0  0  0  0  0  0  0  0  0  0  0
  184.3000  179.1120  142.2240 C   0  0  0  0  0  0  0  0  0  0  0  0
  189.4310  177.1280  135.6600 C   0  0  0  0  0  1  0  0  0  0  0  0
  186.9750  178.2530  138.4730 C   0  0  2  0  0  3  0  0  0  0  0  0
  187.2630  178.5900  136.6940 S   0  0  0  0  0  0  0  0  0  0  0  0
  188.3870  177.2390  136.6590 N   0  0  0  0  0  0  0  0  0  0  0  0
  188.4810  176.5840  137.9080 C   0  0  0  0  0  3  0  0  0  0  0  0
  187.7510  177.0760  138.8490 N   0  0  0  0  0  0  0  0  0  0  0  0
  181.2280  181.2290  137.9040 N   0  0  0  0  0  2  0  0  0  0  0  0
  180.4570  180.2880  137.0940 C   0  0  0  0  0  2  0  0  0  0  0  0
  182.2510  180.4590  138.6030 C   0  0  0  0  0  2  0  0  0  0  0  0
  179.9390  178.4170  138.5260 N   0  0  0  0  0  1  0  0  0  0  0  0
  180.8480  178.8820  137.4880 C   0  0  2  0  0  3  0  0  0  0  0  0
  182.2500  179.0620  138.0280 C   0  0  2  0  0  3  0  0  0  0  0  0
  2 14  2  0  0  0  0
  2  6  1  0  0  0  0
  3  1  1  6  0  0  0
  3 14  1  0  0  0  0
  6 15  1  0  0  0  0
  7  8  1  1  0  0  0
  7 11  1  0  0  0  0
  9  7  1  0  0  0  0
  9 15  2  0  0  0  0
 10  2  1  0  0  0  0
 11  5  2  0  0  0  0
 11  4  1  0  0  0  0
 12  4  2  0  0  0  0
 13  1  1  0  0  0  0
 13 10  1  0  0  0  0
 14  9  1  0  0  0  0
 15 12  1  0  0  0  0
 16 19  1  0  0  0  0
 17 10  1  6  0  0  0
 17 21  1  0  0  0  0
 18 17  1  0  0  0  0
 19 18  1  0  0  0  0
 19 20  1  0  0  0  0
 20 21  2  0  0  0  0
 22 24  1  0  0  0  0
 23 26  1  0  0  0  0
 23 22  1  0  0  0  0
 26 27  1  0  0  0  0
 26 25  1  1  0  0  0
 27 24  1  1  0  0  0
 27  3  1  0  0  0  0
M  END
>  <MODEL>
7

>  <REMARK>
 VINA RESULT:      -5.8      4.789      8.850
  Name = 
  2 active torsions:
  status: ('A' for Active; 'I' for Inactive)
    1  A    between atoms: C_3  and  C_26
    2  A    between atoms: C_9  and  N_15
                            x       y       z     vdW  Elec       q    Type
                         _______ _______ _______ _____ _____    ______ ____

>  <TORSDO>
F 2

$$$$
=
 OpenBabel11052413393D

 27 31  0  0  1  0  0  0  0  0999 V2000
  187.5030  178.0690  137.2360 N   0  0  0  0  0  2  0  0  0  0  0  0
  189.4500  177.2980  139.0420 C   0  0  0  0  0  0  0  0  0  0  0  0
  188.2060  176.8070  136.9440 C   0  0  1  0  0  3  0  0  0  0  0  0
  193.5540  176.0500  136.8900 C   0  0  0  0  0  3  0  0  0  0  0  0
  193.0530  175.8020  134.5940 O   0  0  0  0  0  0  0  0  0  0  0  0
  190.9990  177.2610  139.7050 S   0  0  0  0  0  0  0  0  0  0  0  0
  191.1130  175.8090  136.0000 C   0  0  1  0  0  3  0  0  0  0  0  0
  190.6930  174.3600  135.8500 C   0  0  0  0  0  1  0  0  0  0  0  0
  190.7350  176.3220  137.3700 C   0  0  0  0  0  0  0  0  0  0  0  0
  188.3360  178.0560  139.5220 N   0  0  0  0  0  0  0  0  0  0  0  0
  192.6040  175.9000  135.7650 C   0  0  0  0  0  0  0  0  0  0  0  0
  193.1280  176.3400  138.1220 C   0  0  0  0  0  3  0  0  0  0  0  0
  187.1450  178.1620  138.6660 C   0  0  0  0  0  2  0  0  0  0  0  0
  189.4570  176.7480  137.7750 C   0  0  0  0  0  0  0  0  0  0  0  0
  191.6940  176.5230  138.3590 C   0  0  0  0  0  0  0  0  0  0  0  0
  186.9540  176.9790  144.2290 C   0  0  0  0  0  1  0  0  0  0  0  0
  188.3010  178.5130  140.9070 C   0  0  2  0  0  3  0  0  0  0  0  0
  188.7170  177.1370  142.0450 S   0  0  0  0  0  0  0  0  0  0  0  0
  187.1830  177.4010  142.8610 N   0  0  0  0  0  0  0  0  0  0  0  0
  186.4250  178.4330  142.2640 C   0  0  0  0  0  3  0  0  0  0  0  0
  186.9710  179.0060  141.2480 N   0  0  0  0  0  0  0  0  0  0  0  0
  186.9390  173.2740  136.7820 N   0  0  0  0  0  2  0  0  0  0  0  0
  185.7700  174.0130  136.3090 C   0  0  0  0  0  2  0  0  0  0  0  0
  187.9300  174.2590  137.2050 C   0  0  0  0  0  2  0  0  0  0  0  0
  186.6000  175.7460  134.8510 N   0  0  0  0  0  1  0  0  0  0  0  0
  186.1360  175.4760  136.2040 C   0  0  2  0  0  3  0  0  0  0  0  0
  187.2620  175.6130  137.2070 C   0  0  2  0  0  3  0  0  0  0  0  0
  1 13  1  0  0  0  0
  2 10  1  0  0  0  0
  2  6  1  0  0  0  0
  3 27  1  0  0  0  0
  3  1  1  1  0  0  0
  3 14  1  0  0  0  0
  4 12  2  0  0  0  0
  5 11  2  0  0  0  0
  7  8  1  1  0  0  0
  7  9  1  0  0  0  0
  9 14  1  0  0  0  0
  9 15  2  0  0  0  0
 11  7  1  0  0  0  0
 11  4  1  0  0  0  0
 12 15  1  0  0  0  0
 13 10  1  0  0  0  0
 14  2  2  0  0  0  0
 15  6  1  0  0  0  0
 17 10  1  6  0  0  0
 17 21  1  0  0  0  0
 17 18  1  0  0  0  0
 18 19  1  0  0  0  0
 19 16  1  0  0  0  0
 20 19  1  0  0  0  0
 21 20  2  0  0  0  0
 22 24  1  0  0  0  0
 23 22  1  0  0  0  0
 26 25  1  6  0  0  0
 26 23  1  0  0  0  0
 26 27  1  0  0  0  0
 27 24  1  6  0  0  0
M  END
>  <MODEL>
8

>  <REMARK>
 VINA RESULT:      -5.7      3.407      5.901
  Name = 
  2 active torsions:
  status: ('A' for Active; 'I' for Inactive)
    1  A    between atoms: C_3  and  C_26
    2  A    between atoms: C_9  and  N_15
                            x       y       z     vdW  Elec       q    Type
                         _______ _______ _______ _____ _____    ______ ____

>  <TORSDO>
F 2

$$$$
=
 OpenBabel11052413393D

 27 31  0  0  1  0  0  0  0  0999 V2000
  188.3960  179.0040  138.9180 N   0  0  0  0  0  2  0  0  0  0  0  0
  187.1150  177.9950  141.1510 C   0  0  0  0  0  0  0  0  0  0  0  0
  189.1570  178.0370  139.7300 C   0  0  1  0  0  3  0  0  0  0  0  0
  189.8570  178.1910  145.0840 C   0  0  0  0  0  3  0  0  0  0  0  0
  192.0540  178.6420  144.3410 O   0  0  0  0  0  0  0  0  0  0  0  0
  186.6190  177.9840  142.7620 S   0  0  0  0  0  0  0  0  0  0  0  0
  190.5950  177.8780  142.6010 C   0  0  1  0  0  3  0  0  0  0  0  0
  191.2060  176.5130  142.3470 C   0  0  0  0  0  1  0  0  0  0  0  0
  189.1090  177.8420  142.3330 C   0  0  0  0  0  0  0  0  0  0  0  0
  186.3230  178.3660  140.0180 N   0  0  0  0  0  0  0  0  0  0  0  0
  190.8920  178.2750  144.0290 C   0  0  0  0  0  0  0  0  0  0  0  0
  188.5740  177.9860  144.7790 C   0  0  0  0  0  3  0  0  0  0  0  0
  187.0010  178.5600  138.7290 C   0  0  0  0  0  2  0  0  0  0  0  0
  188.4910  177.9040  141.0710 C   0  0  0  0  0  0  0  0  0  0  0  0
  188.1840  177.8530  143.3730 C   0  0  0  0  0  0  0  0  0  0  0  0
  182.0060  178.6510  137.4660 C   0  0  0  0  0  1  0  0  0  0  0  0
  184.8670  178.3270  140.0970 C   0  0  2  0  0  3  0  0  0  0  0  0
  184.1760  177.3580  138.7020 S   0  0  0  0  0  0  0  0  0  0  0  0
  183.2190  178.7620  138.2520 N   0  0  0  0  0  0  0  0  0  0  0  0
  183.4610  179.8720  139.0930 C   0  0  0  0  0  3  0  0  0  0  0  0
  184.3170  179.6770  140.0360 N   0  0  0  0  0  0  0  0  0  0  0  0
  190.7900  175.1470  137.9710 N   0  0  0  0  0  2  0  0  0  0  0  0
  189.8000  175.5570  136.9770 C   0  0  0  0  0  2  0  0  0  0  0  0
  190.5560  175.9470  139.1690 C   0  0  0  0  0  2  0  0  0  0  0  0
  189.8050  177.9700  136.9620 N   0  0  0  0  0  1  0  0  0  0  0  0
  189.1040  176.8020  137.4770 C   0  0  2  0  0  3  0  0  0  0  0  0
  189.2550  176.6910  138.9790 C   0  0  2  0  0  3  0  0  0  0  0  0
  2  6  1  0  0  0  0
  3  1  1  6  0  0  0
  3 14  1  0  0  0  0
  6 15  1  0  0  0  0
  7  8  1  1  0  0  0
  7 11  1  0  0  0  0
  9  7  1  0  0  0  0
  9 15  2  0  0  0  0
 10  2  1  0  0  0  0
 11  5  2  0  0  0  0
 11  4  1  0  0  0  0
 12  4  2  0  0  0  0
 13  1  1  0  0  0  0
 13 10  1  0  0  0  0
 14  2  2  0  0  0  0
 14  9  1  0  0  0  0
 15 12  1  0  0  0  0
 16 19  1  0  0  0  0
 17 10  1  6  0  0  0
 18 17  1  0  0  0  0
 19 18  1  0  0  0  0
 19 20  1  0  0  0  0
 20 21  2  0  0  0  0
 21 17  1  0  0  0  0
 22 24  1  0  0  0  0
 23 26  1  0  0  0  0
 23 22  1  0  0  0  0
 26 25  1  6  0  0  0
 26 27  1  0  0  0  0
 27 24  1  6  0  0  0
 27  3  1  0  0  0  0
M  END
>  <MODEL>
9

>  <REMARK>
 VINA RESULT:      -5.4      2.988      5.106
  Name = 
  2 active torsions:
  status: ('A' for Active; 'I' for Inactive)
    1  A    between atoms: C_3  and  C_26
    2  A    between atoms: C_9  and  N_15
                            x       y       z     vdW  Elec       q    Type
                         _______ _______ _______ _____ _____    ______ ____

>  <TORSDO>
F 2

$$$$
