=
 OpenBabel11052415333D

 37 41  0  0  1  0  0  0  0  0999 V2000
  188.1010  179.5690  141.5550 O   0  0  0  0  0  1  0  0  0  0  0  0
  187.7660  178.2670  141.1400 C   0  0  1  0  0  0  0  0  0  0  0  0
  184.9810  179.6900  139.7120 O   0  0  0  0  0  1  0  0  0  0  0  0
  185.5820  179.5410  140.9620 C   0  0  2  0  0  3  0  0  0  0  0  0
  184.5330  178.2880  142.4620 C   0  0  1  0  0  3  0  0  0  0  0  0
  186.2330  178.1830  141.0590 C   0  0  2  0  0  3  0  0  0  0  0  0
  184.6100  179.5980  141.9590 O   0  0  0  0  0  0  0  0  0  0  0  0
  185.7150  177.5800  142.2040 O   0  0  0  0  0  0  0  0  0  0  0  0
  184.2390  178.3080  143.9580 C   0  0  0  0  0  2  0  0  0  0  0  0
  182.9120  178.9880  144.2570 C   0  0  0  0  0  1  0  0  0  0  0  0
  188.3760  177.9960  139.7300 C   0  0  2  0  0  3  0  0  0  0  0  0
  187.3790  177.7690  138.5780 C   0  0  1  0  0  3  0  0  0  0  0  0
  187.3640  178.8440  137.6870 O   0  0  0  0  0  1  0  0  0  0  0  0
  187.6110  176.4630  137.8390 C   0  0  0  0  0  2  0  0  0  0  0  0
  188.2540  176.7110  136.6270 O   0  0  0  0  0  1  0  0  0  0  0  0
  189.2920  176.9390  139.7690 O   0  0  0  0  0  0  0  0  0  0  0  0
  190.5200  177.5100  139.4300 C   0  0  0  0  0  2  0  0  0  0  0  0
  192.2060  176.4620  137.9740 C   0  0  2  0  0  0  0  0  0  0  0  0
  191.5730  176.4260  139.3340 C   0  0  1  0  0  3  0  0  0  0  0  0
  192.8080  177.0010  139.1510 O   0  0  0  0  0  0  0  0  0  0  0  0
  193.3800  175.7630  137.2950 C   0  0  2  0  0  3  0  0  0  0  0  0
  192.3170  175.0510  137.7950 O   0  0  0  0  0  0  0  0  0  0  0  0
  195.0070  174.3210  137.7000 C   0  0  0  0  0  1  0  0  0  0  0  0
  194.4940  175.5500  138.1160 O   0  0  0  0  0  0  0  0  0  0  0  0
  188.2020  177.3120  142.0950 O   0  0  0  0  0  0  0  0  0  0  0  0
  189.0330  177.9290  143.0470 C   0  0  0  0  0  2  0  0  0  0  0  0
  189.5430  176.8850  144.0320 C   0  0  1  0  0  3  0  0  0  0  0  0
  190.4100  177.5740  145.0970 C   0  0  0  0  0  0  0  0  0  0  0  0
  191.1170  176.8430  146.2480 C   0  0  0  0  0  2  0  0  0  0  0  0
  189.0070  177.0360  145.4140 C   0  0  1  0  0  3  0  0  0  0  0  0
  191.6490  176.6920  144.8870 C   0  0  0  0  0  2  0  0  0  0  0  0
  188.1110  178.1170  145.5450 O   0  0  0  0  0  0  0  0  0  0  0  0
  187.1560  177.8120  146.5460 C   0  0  1  0  0  3  0  0  0  0  0  0
  187.7800  177.2390  147.8160 C   0  0  0  0  0  2  0  0  0  0  0  0
  188.4390  178.3430  148.6190 C   0  0  0  0  0  1  0  0  0  0  0  0
  186.2140  178.9720  146.8530 C   0  0  0  0  0  2  0  0  0  0  0  0
  185.0230  178.4850  147.3920 O   0  0  0  0  0  1  0  0  0  0  0  0
  2  1  1  1  0  0  0
  2 25  1  0  0  0  0
  4  3  1  6  0  0  0
  4  6  1  0  0  0  0
  4  7  1  0  0  0  0
  5  9  1  1  0  0  0
  6  2  1  1  0  0  0
  6  8  1  0  0  0  0
  7  5  1  0  0  0  0
  8  5  1  0  0  0  0
  9 10  1  0  0  0  0
 11 16  1  1  0  0  0
 11  2  1  0  0  0  0
 12 13  1  6  0  0  0
 12 11  1  0  0  0  0
 14 12  1  0  0  0  0
 15 14  1  0  0  0  0
 17 16  1  0  0  0  0
 18 22  1  1  0  0  0
 18 20  1  0  0  0  0
 18 19  1  0  0  0  0
 19 17  1  6  0  0  0
 20 19  1  0  0  0  0
 21 22  1  0  0  0  0
 21 18  1  0  0  0  0
 21 24  1  1  0  0  0
 23 24  1  0  0  0  0
 25 26  1  0  0  0  0
 27 26  1  6  0  0  0
 27 28  1  0  0  0  0
 27 30  1  0  0  0  0
 28 30  1  0  0  0  0
 28 29  1  0  0  0  0
 30 32  1  6  0  0  0
 31 28  1  0  0  0  0
 31 29  1  0  0  0  0
 32 33  1  0  0  0  0
 33 36  1  1  0  0  0
 33 34  1  0  0  0  0
 34 35  1  0  0  0  0
 36 37  1  0  0  0  0
M  END
>  <MODEL>
1

>  <REMARK>
 VINA RESULT:      -6.5      0.000      0.000
  Name = 
  16 active torsions:
  status: ('A' for Active; 'I' for Inactive)
    1  A    between atoms: C_1  and  C_36
    2  A    between atoms: C_3  and  C_21
    3  A    between atoms: C_4  and  C_10
    4  A    between atoms: C_4  and  C_22
    5  A    between atoms: C_6  and  C_31
    6  A    between atoms: C_7  and  C_33
    7  A    between atoms: C_10  and  O_14
    8  A    between atoms: C_10  and  C_20
    9  A    between atoms: C_11  and  C_33
   10  A    between atoms: O_14  and  C_31
   11  A    between atoms: C_17  and  O_26
   12  A    between atoms: C_18  and  O_19
   13  A    between atoms: C_20  and  C_24
   14  A    between atoms: C_20  and  O_29
   15  A    between atoms: O_26  and  C_33
   16  A    between atoms: O_29  and  C_36
                            x       y       z     vdW  Elec       q    Type
                         _______ _______ _______ _____ _____    ______ ____

>  <TORSDO>
F 16

$$$$
=
 OpenBabel11052415333D

 37 41  0  0  1  0  0  0  0  0999 V2000
  188.4840  176.5900  141.8940 O   0  0  0  0  0  1  0  0  0  0  0  0
  188.9950  177.8550  141.5480 C   0  0  1  0  0  0  0  0  0  0  0  0
  192.3000  177.0610  142.0680 O   0  0  0  0  0  1  0  0  0  0  0  0
  191.0540  176.8980  142.6750 C   0  0  2  0  0  3  0  0  0  0  0  0
  190.7030  177.9530  144.5950 C   0  0  1  0  0  3  0  0  0  0  0  0
  190.2100  178.1280  142.4500 C   0  0  2  0  0  3  0  0  0  0  0  0
  191.2180  176.7630  144.0520 O   0  0  0  0  0  0  0  0  0  0  0  0
  189.7970  178.5560  143.7110 O   0  0  0  0  0  0  0  0  0  0  0  0
  190.0370  177.6810  145.9380 C   0  0  0  0  0  2  0  0  0  0  0  0
  188.5980  177.2190  145.7650 C   0  0  0  0  0  1  0  0  0  0  0  0
  189.4470  177.8460  140.0560 C   0  0  2  0  0  3  0  0  0  0  0  0
  188.4690  178.4570  139.0350 C   0  0  1  0  0  3  0  0  0  0  0  0
  189.1060  179.3640  138.1850 O   0  0  0  0  0  1  0  0  0  0  0  0
  187.7160  177.4090  138.2330 C   0  0  0  0  0  2  0  0  0  0  0  0
  187.1170  178.0030  137.1220 O   0  0  0  0  0  1  0  0  0  0  0  0
  189.8090  176.5590  139.6430 O   0  0  0  0  0  0  0  0  0  0  0  0
  191.0360  176.7170  138.9980 C   0  0  0  0  0  2  0  0  0  0  0  0
  192.3120  175.0350  137.7290 C   0  0  2  0  0  0  0  0  0  0  0  0
  191.0630  175.8660  137.7450 C   0  0  1  0  0  3  0  0  0  0  0  0
  191.0240  174.5360  138.0920 O   0  0  0  0  0  0  0  0  0  0  0  0
  192.8660  173.9100  136.8610 C   0  0  2  0  0  3  0  0  0  0  0  0
  192.5770  175.1440  136.3330 O   0  0  0  0  0  0  0  0  0  0  0  0
  192.5870  172.2260  135.4540 C   0  0  0  0  0  1  0  0  0  0  0  0
  191.9140  172.9890  136.4090 O   0  0  0  0  0  0  0  0  0  0  0  0
  188.0320  178.8670  141.8010 O   0  0  0  0  0  0  0  0  0  0  0  0
  186.7730  178.2860  142.0290 C   0  0  0  0  0  2  0  0  0  0  0  0
  185.6830  179.1960  141.4780 C   0  0  1  0  0  3  0  0  0  0  0  0
  184.5990  178.3410  140.8050 C   0  0  0  0  0  0  0  0  0  0  0  0
  183.3500  178.9070  140.1140 C   0  0  0  0  0  2  0  0  0  0  0  0
  184.3610  179.0420  142.1490 C   0  0  1  0  0  3  0  0  0  0  0  0
  184.6500  179.0600  139.4490 C   0  0  0  0  0  2  0  0  0  0  0  0
  184.3740  178.0850  143.1850 O   0  0  0  0  0  0  0  0  0  0  0  0
  183.4310  178.4550  144.1740 C   0  0  1  0  0  3  0  0  0  0  0  0
  184.0480  179.2430  145.3270 C   0  0  0  0  0  2  0  0  0  0  0  0
  185.2370  178.4940  145.8950 C   0  0  0  0  0  1  0  0  0  0  0  0
  182.2040  179.1590  143.6010 C   0  0  0  0  0  2  0  0  0  0  0  0
  181.0430  178.5520  144.0810 O   0  0  0  0  0  1  0  0  0  0  0  0
  2 25  1  0  0  0  0
  2  1  1  1  0  0  0
  4  3  1  6  0  0  0
  4  7  1  0  0  0  0
  5  9  1  1  0  0  0
  6  2  1  6  0  0  0
  6  4  1  0  0  0  0
  6  8  1  0  0  0  0
  7  5  1  0  0  0  0
  8  5  1  0  0  0  0
 10  9  1  0  0  0  0
 11 16  1  6  0  0  0
 11  2  1  0  0  0  0
 12 13  1  6  0  0  0
 12 11  1  0  0  0  0
 14 12  1  0  0  0  0
 15 14  1  0  0  0  0
 17 16  1  0  0  0  0
 18 22  1  6  0  0  0
 18 19  1  0  0  0  0
 18 20  1  0  0  0  0
 19 20  1  0  0  0  0
 19 17  1  1  0  0  0
 21 24  1  6  0  0  0
 21 18  1  0  0  0  0
 22 21  1  0  0  0  0
 23 24  1  0  0  0  0
 25 26  1  0  0  0  0
 27 26  1  1  0  0  0
 27 30  1  0  0  0  0
 28 27  1  0  0  0  0
 28 30  1  0  0  0  0
 29 28  1  0  0  0  0
 30 32  1  1  0  0  0
 31 29  1  0  0  0  0
 31 28  1  0  0  0  0
 32 33  1  0  0  0  0
 33 36  1  6  0  0  0
 33 34  1  0  0  0  0
 34 35  1  0  0  0  0
 36 37  1  0  0  0  0
M  END
>  <MODEL>
2

>  <REMARK>
 VINA RESULT:      -6.5      1.816      4.766
  Name = 
  16 active torsions:
  status: ('A' for Active; 'I' for Inactive)
    1  A    between atoms: C_1  and  C_36
    2  A    between atoms: C_3  and  C_21
    3  A    between atoms: C_4  and  C_10
    4  A    between atoms: C_4  and  C_22
    5  A    between atoms: C_6  and  C_31
    6  A    between atoms: C_7  and  C_33
    7  A    between atoms: C_10  and  O_14
    8  A    between atoms: C_10  and  C_20
    9  A    between atoms: C_11  and  C_33
   10  A    between atoms: O_14  and  C_31
   11  A    between atoms: C_17  and  O_26
   12  A    between atoms: C_18  and  O_19
   13  A    between atoms: C_20  and  C_24
   14  A    between atoms: C_20  and  O_29
   15  A    between atoms: O_26  and  C_33
   16  A    between atoms: O_29  and  C_36
                            x       y       z     vdW  Elec       q    Type
                         _______ _______ _______ _____ _____    ______ ____

>  <TORSDO>
F 16

$$$$
=
 OpenBabel11052415333D

 37 41  0  0  1  0  0  0  0  0999 V2000
  188.9870  176.4690  141.5180 O   0  0  0  0  0  1  0  0  0  0  0  0
  189.3280  177.7890  141.1700 C   0  0  1  0  0  0  0  0  0  0  0  0
  192.7420  177.3990  141.2970 O   0  0  0  0  0  1  0  0  0  0  0  0
  191.5990  177.0460  142.0160 C   0  0  2  0  0  3  0  0  0  0  0  0
  191.3330  177.9440  144.0270 C   0  0  1  0  0  3  0  0  0  0  0  0
  190.5920  178.1680  141.9590 C   0  0  2  0  0  3  0  0  0  0  0  0
  191.9270  176.8610  143.3570 O   0  0  0  0  0  0  0  0  0  0  0  0
  190.2700  178.4730  143.2810 O   0  0  0  0  0  0  0  0  0  0  0  0
  190.8560  177.5190  145.4100 C   0  0  0  0  0  2  0  0  0  0  0  0
  191.6870  176.3690  145.9590 C   0  0  0  0  0  1  0  0  0  0  0  0
  189.6290  177.8660  139.6410 C   0  0  2  0  0  3  0  0  0  0  0  0
  188.4980  178.4010  138.7420 C   0  0  1  0  0  3  0  0  0  0  0  0
  188.9500  179.4070  137.8850 O   0  0  0  0  0  1  0  0  0  0  0  0
  187.7930  177.3070  137.9590 C   0  0  0  0  0  2  0  0  0  0  0  0
  187.8660  177.5790  136.5930 O   0  0  0  0  0  1  0  0  0  0  0  0
  190.0720  176.6340  139.1490 O   0  0  0  0  0  0  0  0  0  0  0  0
  191.0580  176.9500  138.2130 C   0  0  0  0  0  2  0  0  0  0  0  0
  192.9100  175.8780  136.9960 C   0  0  2  0  0  0  0  0  0  0  0  0
  192.1890  175.9470  138.3090 C   0  0  1  0  0  3  0  0  0  0  0  0
  193.3910  176.5910  138.1360 O   0  0  0  0  0  0  0  0  0  0  0  0
  194.1740  175.2000  136.4770 C   0  0  2  0  0  3  0  0  0  0  0  0
  193.1320  174.4700  136.9910 O   0  0  0  0  0  0  0  0  0  0  0  0
  196.3370  174.7570  136.6230 C   0  0  0  0  0  1  0  0  0  0  0  0
  195.2410  175.1670  137.3830 O   0  0  0  0  0  0  0  0  0  0  0  0
  188.2960  178.6870  141.5490 O   0  0  0  0  0  0  0  0  0  0  0  0
  187.1160  177.9730  141.8240 C   0  0  0  0  0  2  0  0  0  0  0  0
  185.9360  178.9340  141.8650 C   0  0  1  0  0  3  0  0  0  0  0  0
  184.6260  178.1320  141.8270 C   0  0  0  0  0  0  0  0  0  0  0  0
  183.2230  178.7570  141.8310 C   0  0  0  0  0  2  0  0  0  0  0  0
  185.1110  178.8370  143.1020 C   0  0  1  0  0  3  0  0  0  0  0  0
  184.0330  178.8550  140.6090 C   0  0  0  0  0  2  0  0  0  0  0  0
  185.5920  177.8740  144.0140 O   0  0  0  0  0  0  0  0  0  0  0  0
  185.9970  178.5230  145.2050 C   0  0  1  0  0  3  0  0  0  0  0  0
  184.9060  178.5530  146.2730 C   0  0  0  0  0  2  0  0  0  0  0  0
  183.5590  178.8310  145.6370 C   0  0  0  0  0  1  0  0  0  0  0  0
  187.3160  177.9930  145.7610 C   0  0  0  0  0  2  0  0  0  0  0  0
  187.1550  177.6320  147.0990 O   0  0  0  0  0  1  0  0  0  0  0  0
  2  1  1  1  0  0  0
  2 25  1  0  0  0  0
  4  3  1  6  0  0  0
  4  7  1  0  0  0  0
  5  9  1  1  0  0  0
  6  2  1  6  0  0  0
  6  4  1  0  0  0  0
  6  8  1  0  0  0  0
  7  5  1  0  0  0  0
  8  5  1  0  0  0  0
  9 10  1  0  0  0  0
 11 16  1  6  0  0  0
 11  2  1  0  0  0  0
 12 13  1  6  0  0  0
 12 11  1  0  0  0  0
 14 12  1  0  0  0  0
 15 14  1  0  0  0  0
 17 16  1  0  0  0  0
 18 22  1  1  0  0  0
 18 20  1  0  0  0  0
 18 19  1  0  0  0  0
 19 17  1  6  0  0  0
 20 19  1  0  0  0  0
 21 22  1  0  0  0  0
 21 18  1  0  0  0  0
 21 24  1  1  0  0  0
 23 24  1  0  0  0  0
 25 26  1  0  0  0  0
 27 26  1  1  0  0  0
 27 30  1  0  0  0  0
 28 29  1  0  0  0  0
 28 27  1  0  0  0  0
 28 30  1  0  0  0  0
 30 32  1  1  0  0  0
 31 28  1  0  0  0  0
 31 29  1  0  0  0  0
 32 33  1  0  0  0  0
 33 36  1  1  0  0  0
 33 34  1  0  0  0  0
 35 34  1  0  0  0  0
 36 37  1  0  0  0  0
M  END
>  <MODEL>
3

>  <REMARK>
 VINA RESULT:      -6.1      1.608      4.551
  Name = 
  16 active torsions:
  status: ('A' for Active; 'I' for Inactive)
    1  A    between atoms: C_1  and  C_36
    2  A    between atoms: C_3  and  C_21
    3  A    between atoms: C_4  and  C_10
    4  A    between atoms: C_4  and  C_22
    5  A    between atoms: C_6  and  C_31
    6  A    between atoms: C_7  and  C_33
    7  A    between atoms: C_10  and  O_14
    8  A    between atoms: C_10  and  C_20
    9  A    between atoms: C_11  and  C_33
   10  A    between atoms: O_14  and  C_31
   11  A    between atoms: C_17  and  O_26
   12  A    between atoms: C_18  and  O_19
   13  A    between atoms: C_20  and  C_24
   14  A    between atoms: C_20  and  O_29
   15  A    between atoms: O_26  and  C_33
   16  A    between atoms: O_29  and  C_36
                            x       y       z     vdW  Elec       q    Type
                         _______ _______ _______ _____ _____    ______ ____

>  <TORSDO>
F 16

$$$$
=
 OpenBabel11052415333D

 37 41  0  0  1  0  0  0  0  0999 V2000
  189.5220  178.6400  138.6160 O   0  0  0  0  0  1  0  0  0  0  0  0
  189.0260  177.3250  138.5630 C   0  0  1  0  0  0  0  0  0  0  0  0
  187.6110  178.2210  135.5600 O   0  0  0  0  0  1  0  0  0  0  0  0
  187.5780  178.5840  136.9060 C   0  0  2  0  0  3  0  0  0  0  0  0
  185.6940  178.2250  138.0210 C   0  0  1  0  0  3  0  0  0  0  0  0
  187.7080  177.3550  137.7720 C   0  0  2  0  0  3  0  0  0  0  0  0
  186.3480  179.1650  137.2050 O   0  0  0  0  0  0  0  0  0  0  0  0
  186.6170  177.3700  138.6400 O   0  0  0  0  0  0  0  0  0  0  0  0
  184.8360  178.9310  139.0640 C   0  0  0  0  0  2  0  0  0  0  0  0
  183.3630  178.9080  138.6840 C   0  0  0  0  0  1  0  0  0  0  0  0
  190.0510  176.4090  137.8270 C   0  0  2  0  0  3  0  0  0  0  0  0
  189.4840  175.4560  136.7580 C   0  0  1  0  0  3  0  0  0  0  0  0
  189.9940  175.7380  135.4890 O   0  0  0  0  0  1  0  0  0  0  0  0
  189.6810  173.9900  137.1030 C   0  0  0  0  0  2  0  0  0  0  0  0
  190.6970  173.4510  136.3150 O   0  0  0  0  0  1  0  0  0  0  0  0
  190.8250  175.6810  138.7370 O   0  0  0  0  0  0  0  0  0  0  0  0
  192.0680  176.3160  138.7470 C   0  0  0  0  0  2  0  0  0  0  0  0
  193.5970  176.4000  136.8180 C   0  0  2  0  0  0  0  0  0  0  0  0
  193.0470  175.5240  137.9050 C   0  0  1  0  0  3  0  0  0  0  0  0
  194.3010  176.0760  138.0180 O   0  0  0  0  0  0  0  0  0  0  0  0
  194.6840  176.2730  135.7560 C   0  0  2  0  0  3  0  0  0  0  0  0
  193.6140  175.4130  135.7900 O   0  0  0  0  0  0  0  0  0  0  0  0
  196.7670  175.8260  135.1590 C   0  0  0  0  0  1  0  0  0  0  0  0
  195.8320  175.5830  136.1660 O   0  0  0  0  0  0  0  0  0  0  0  0
  188.7360  176.8490  139.8690 O   0  0  0  0  0  0  0  0  0  0  0  0
  189.2370  177.7450  140.8290 C   0  0  0  0  0  2  0  0  0  0  0  0
  189.7530  176.9680  142.0330 C   0  0  1  0  0  3  0  0  0  0  0  0
  190.1510  177.9540  143.1410 C   0  0  0  0  0  0  0  0  0  0  0  0
  190.7350  177.5450  144.5010 C   0  0  0  0  0  2  0  0  0  0  0  0
  188.8940  177.0790  143.2450 C   0  0  1  0  0  3  0  0  0  0  0  0
  191.5860  177.4350  143.3090 C   0  0  0  0  0  2  0  0  0  0  0  0
  187.7490  177.8780  143.0420 O   0  0  0  0  0  0  0  0  0  0  0  0
  186.7580  177.5210  143.9870 C   0  0  1  0  0  3  0  0  0  0  0  0
  187.2250  177.6710  145.4330 C   0  0  0  0  0  2  0  0  0  0  0  0
  186.0660  178.0830  146.3180 C   0  0  0  0  0  1  0  0  0  0  0  0
  185.4210  178.2180  143.7500 C   0  0  0  0  0  2  0  0  0  0  0  0
  184.9850  177.9750  142.4480 O   0  0  0  0  0  1  0  0  0  0  0  0
  2  1  1  1  0  0  0
  2 25  1  0  0  0  0
  4  3  1  6  0  0  0
  4  7  1  0  0  0  0
  4  6  1  0  0  0  0
  5  8  1  0  0  0  0
  5  9  1  1  0  0  0
  6  2  1  1  0  0  0
  6  8  1  0  0  0  0
  7  5  1  0  0  0  0
 10  9  1  0  0  0  0
 11  2  1  0  0  0  0
 11 16  1  1  0  0  0
 12 13  1  6  0  0  0
 12 14  1  0  0  0  0
 12 11  1  0  0  0  0
 15 14  1  0  0  0  0
 16 17  1  0  0  0  0
 18 22  1  6  0  0  0
 18 19  1  0  0  0  0
 18 20  1  0  0  0  0
 19 20  1  0  0  0  0
 19 17  1  1  0  0  0
 21 22  1  0  0  0  0
 21 24  1  1  0  0  0
 21 18  1  0  0  0  0
 23 24  1  0  0  0  0
 25 26  1  0  0  0  0
 27 26  1  6  0  0  0
 27 28  1  0  0  0  0
 27 30  1  0  0  0  0
 28 30  1  0  0  0  0
 28 31  1  0  0  0  0
 28 29  1  0  0  0  0
 30 32  1  6  0  0  0
 31 29  1  0  0  0  0
 32 33  1  0  0  0  0
 33 36  1  1  0  0  0
 33 34  1  0  0  0  0
 34 35  1  0  0  0  0
 37 36  1  0  0  0  0
M  END
>  <MODEL>
4

>  <REMARK>
 VINA RESULT:      -6.1      1.894      3.349
  Name = 
  16 active torsions:
  status: ('A' for Active; 'I' for Inactive)
    1  A    between atoms: C_1  and  C_36
    2  A    between atoms: C_3  and  C_21
    3  A    between atoms: C_4  and  C_10
    4  A    between atoms: C_4  and  C_22
    5  A    between atoms: C_6  and  C_31
    6  A    between atoms: C_7  and  C_33
    7  A    between atoms: C_10  and  O_14
    8  A    between atoms: C_10  and  C_20
    9  A    between atoms: C_11  and  C_33
   10  A    between atoms: O_14  and  C_31
   11  A    between atoms: C_17  and  O_26
   12  A    between atoms: C_18  and  O_19
   13  A    between atoms: C_20  and  C_24
   14  A    between atoms: C_20  and  O_29
   15  A    between atoms: O_26  and  C_33
   16  A    between atoms: O_29  and  C_36
                            x       y       z     vdW  Elec       q    Type
                         _______ _______ _______ _____ _____    ______ ____

>  <TORSDO>
F 16

$$$$
=
 OpenBabel11052415333D

 37 41  0  0  1  0  0  0  0  0999 V2000
  188.8790  179.2580  139.4070 O   0  0  0  0  0  1  0  0  0  0  0  0
  188.9560  177.8530  139.4270 C   0  0  1  0  0  0  0  0  0  0  0  0
  189.3470  178.3690  136.0500 O   0  0  0  0  0  1  0  0  0  0  0  0
  188.3660  178.4610  137.0380 C   0  0  2  0  0  3  0  0  0  0  0  0
  186.6570  177.0510  136.9210 C   0  0  1  0  0  3  0  0  0  0  0  0
  188.5390  177.3440  138.0370 C   0  0  2  0  0  3  0  0  0  0  0  0
  187.1070  178.3020  136.4640 O   0  0  0  0  0  0  0  0  0  0  0  0
  187.3120  176.6850  138.1060 O   0  0  0  0  0  0  0  0  0  0  0  0
  185.1480  177.0710  137.1310 C   0  0  0  0  0  2  0  0  0  0  0  0
  184.5610  175.6680  137.1020 C   0  0  0  0  0  1  0  0  0  0  0  0
  190.4220  177.4140  139.7230 C   0  0  2  0  0  3  0  0  0  0  0  0
  191.1800  176.7190  138.5750 C   0  0  1  0  0  3  0  0  0  0  0  0
  192.5620  176.7600  138.7670 O   0  0  0  0  0  1  0  0  0  0  0  0
  190.7130  175.2950  138.3320 C   0  0  0  0  0  2  0  0  0  0  0  0
  191.7850  174.5110  137.9040 O   0  0  0  0  0  1  0  0  0  0  0  0
  190.4920  176.6220  140.8740 O   0  0  0  0  0  0  0  0  0  0  0  0
  191.0840  177.4380  141.8400 C   0  0  0  0  0  2  0  0  0  0  0  0
  190.4820  177.8820  144.1860 C   0  0  2  0  0  0  0  0  0  0  0  0
  190.8950  176.8200  143.2100 C   0  0  1  0  0  3  0  0  0  0  0  0
  189.5810  176.9450  143.5930 O   0  0  0  0  0  0  0  0  0  0  0  0
  190.0160  177.9100  145.6380 C   0  0  2  0  0  3  0  0  0  0  0  0
  191.2460  177.4090  145.2930 O   0  0  0  0  0  0  0  0  0  0  0  0
  188.3830  177.3700  147.0290 C   0  0  0  0  0  1  0  0  0  0  0  0
  189.1830  176.8480  146.0110 O   0  0  0  0  0  0  0  0  0  0  0  0
  188.0440  177.3190  140.3750 O   0  0  0  0  0  0  0  0  0  0  0  0
  187.4890  178.3560  141.1450 C   0  0  0  0  0  2  0  0  0  0  0  0
  186.4420  177.7840  142.0920 C   0  0  1  0  0  3  0  0  0  0  0  0
  185.7850  178.9310  142.8750 C   0  0  0  0  0  0  0  0  0  0  0  0
  184.6960  178.7440  143.9410 C   0  0  0  0  0  2  0  0  0  0  0  0
  185.0420  178.1750  141.7640 C   0  0  1  0  0  3  0  0  0  0  0  0
  186.0750  178.3580  144.2700 C   0  0  0  0  0  2  0  0  0  0  0  0
  184.9510  178.9960  140.6210 O   0  0  0  0  0  0  0  0  0  0  0  0
  183.8390  178.5910  139.8440 C   0  0  1  0  0  3  0  0  0  0  0  0
  182.8190  177.7760  140.6360 C   0  0  0  0  0  2  0  0  0  0  0  0
  182.0570  176.8490  139.7100 C   0  0  0  0  0  1  0  0  0  0  0  0
  183.1790  179.7420  139.0900 C   0  0  0  0  0  2  0  0  0  0  0  0
  184.1070  180.7600  138.8740 O   0  0  0  0  0  1  0  0  0  0  0  0
  2  1  1  1  0  0  0
  2 11  1  0  0  0  0
  2 25  1  0  0  0  0
  4  3  1  6  0  0  0
  4  6  1  0  0  0  0
  5  9  1  1  0  0  0
  5  8  1  0  0  0  0
  6  8  1  0  0  0  0
  6  2  1  1  0  0  0
  7  5  1  0  0  0  0
  7  4  1  0  0  0  0
 10  9  1  0  0  0  0
 11 16  1  1  0  0  0
 12 13  1  1  0  0  0
 12 11  1  0  0  0  0
 14 12  1  0  0  0  0
 15 14  1  0  0  0  0
 16 17  1  0  0  0  0
 18 20  1  1  0  0  0
 18 22  1  0  0  0  0
 18 21  1  0  0  0  0
 19 17  1  6  0  0  0
 19 20  1  0  0  0  0
 19 18  1  0  0  0  0
 21 24  1  6  0  0  0
 22 21  1  0  0  0  0
 24 23  1  0  0  0  0
 25 26  1  0  0  0  0
 27 26  1  6  0  0  0
 27 28  1  0  0  0  0
 28 29  1  0  0  0  0
 28 31  1  0  0  0  0
 29 31  1  0  0  0  0
 30 32  1  6  0  0  0
 30 27  1  0  0  0  0
 30 28  1  0  0  0  0
 33 36  1  1  0  0  0
 33 32  1  0  0  0  0
 33 34  1  0  0  0  0
 35 34  1  0  0  0  0
 37 36  1  0  0  0  0
M  END
>  <MODEL>
5

>  <REMARK>
 VINA RESULT:      -6.0      1.853      6.281
  Name = 
  16 active torsions:
  status: ('A' for Active; 'I' for Inactive)
    1  A    between atoms: C_1  and  C_36
    2  A    between atoms: C_3  and  C_21
    3  A    between atoms: C_4  and  C_10
    4  A    between atoms: C_4  and  C_22
    5  A    between atoms: C_6  and  C_31
    6  A    between atoms: C_7  and  C_33
    7  A    between atoms: C_10  and  O_14
    8  A    between atoms: C_10  and  C_20
    9  A    between atoms: C_11  and  C_33
   10  A    between atoms: O_14  and  C_31
   11  A    between atoms: C_17  and  O_26
   12  A    between atoms: C_18  and  O_19
   13  A    between atoms: C_20  and  C_24
   14  A    between atoms: C_20  and  O_29
   15  A    between atoms: O_26  and  C_33
   16  A    between atoms: O_29  and  C_36
                            x       y       z     vdW  Elec       q    Type
                         _______ _______ _______ _____ _____    ______ ____

>  <TORSDO>
F 16

$$$$
=
 OpenBabel11052415333D

 37 41  0  0  1  0  0  0  0  0999 V2000
  182.7870  179.6330  139.5670 O   0  0  0  0  0  1  0  0  0  0  0  0
  181.9750  178.5360  139.9090 C   0  0  1  0  0  0  0  0  0  0  0  0
  179.7100  180.9200  138.9040 O   0  0  0  0  0  1  0  0  0  0  0  0
  180.4620  180.5670  140.0250 C   0  0  2  0  0  3  0  0  0  0  0  0
  179.3630  179.8570  141.8160 C   0  0  1  0  0  3  0  0  0  0  0  0
  180.5480  179.0640  140.1310 C   0  0  2  0  0  3  0  0  0  0  0  0
  179.8260  181.0200  141.1780 O   0  0  0  0  0  0  0  0  0  0  0  0
  180.0980  178.7350  141.4090 O   0  0  0  0  0  0  0  0  0  0  0  0
  179.4280  180.0170  143.3300 C   0  0  0  0  0  2  0  0  0  0  0  0
  179.7290  178.6950  144.0200 C   0  0  0  0  0  1  0  0  0  0  0  0
  181.9710  177.5040  138.7390 C   0  0  2  0  0  3  0  0  0  0  0  0
  180.6430  176.7730  138.4690 C   0  0  1  0  0  3  0  0  0  0  0  0
  180.3480  176.7190  137.1050 O   0  0  0  0  0  1  0  0  0  0  0  0
  180.5940  175.3840  139.0840 C   0  0  0  0  0  2  0  0  0  0  0  0
  180.1530  175.4660  140.4040 O   0  0  0  0  0  1  0  0  0  0  0  0
  182.9990  176.5670  138.8870 O   0  0  0  0  0  0  0  0  0  0  0  0
  183.7090  176.6150  137.6860 C   0  0  0  0  0  2  0  0  0  0  0  0
  186.0120  177.3960  138.0730 C   0  0  2  0  0  0  0  0  0  0  0  0
  184.6250  177.8210  137.6880 C   0  0  1  0  0  3  0  0  0  0  0  0
  185.5990  177.6600  136.7320 O   0  0  0  0  0  0  0  0  0  0  0  0
  187.3830  178.0610  138.1310 C   0  0  2  0  0  3  0  0  0  0  0  0
  186.3290  178.5330  138.8720 O   0  0  0  0  0  0  0  0  0  0  0  0
  189.0360  179.0800  137.0720 C   0  0  0  0  0  1  0  0  0  0  0  0
  187.6460  178.9630  137.0920 O   0  0  0  0  0  0  0  0  0  0  0  0
  182.4140  177.9520  141.1260 O   0  0  0  0  0  0  0  0  0  0  0  0
  183.8030  178.1200  141.2650 C   0  0  0  0  0  2  0  0  0  0  0  0
  184.0890  179.0690  142.4210 C   0  0  1  0  0  3  0  0  0  0  0  0
  184.3740  178.2520  143.6910 C   0  0  0  0  0  0  0  0  0  0  0  0
  184.6840  178.8620  145.0660 C   0  0  0  0  0  2  0  0  0  0  0  0
  185.4850  179.0000  142.9380 C   0  0  1  0  0  3  0  0  0  0  0  0
  183.3070  178.9320  144.5600 C   0  0  0  0  0  2  0  0  0  0  0  0
  186.2870  178.0710  142.2440 O   0  0  0  0  0  0  0  0  0  0  0  0
  187.5820  178.0550  142.8160 C   0  0  1  0  0  3  0  0  0  0  0  0
  187.8330  176.8360  143.7010 C   0  0  0  0  0  2  0  0  0  0  0  0
  188.0630  177.2690  145.1350 C   0  0  0  0  0  1  0  0  0  0  0  0
  188.6960  178.2470  141.7890 C   0  0  0  0  0  2  0  0  0  0  0  0
  188.8980  177.0600  141.0850 O   0  0  0  0  0  1  0  0  0  0  0  0
  2  1  1  6  0  0  0
  2 25  1  0  0  0  0
  4  3  1  6  0  0  0
  4  6  1  0  0  0  0
  4  7  1  0  0  0  0
  5  9  1  1  0  0  0
  6  2  1  1  0  0  0
  6  8  1  0  0  0  0
  7  5  1  0  0  0  0
  8  5  1  0  0  0  0
  9 10  1  0  0  0  0
 11 16  1  1  0  0  0
 11  2  1  0  0  0  0
 12 13  1  6  0  0  0
 12 11  1  0  0  0  0
 12 14  1  0  0  0  0
 14 15  1  0  0  0  0
 17 16  1  0  0  0  0
 18 20  1  6  0  0  0
 18 21  1  0  0  0  0
 18 22  1  0  0  0  0
 19 17  1  6  0  0  0
 19 18  1  0  0  0  0
 20 19  1  0  0  0  0
 21 24  1  6  0  0  0
 21 22  1  0  0  0  0
 23 24  1  0  0  0  0
 25 26  1  0  0  0  0
 27 26  1  6  0  0  0
 27 30  1  0  0  0  0
 27 28  1  0  0  0  0
 28 31  1  0  0  0  0
 28 29  1  0  0  0  0
 30 32  1  6  0  0  0
 30 28  1  0  0  0  0
 31 29  1  0  0  0  0
 32 33  1  0  0  0  0
 33 36  1  6  0  0  0
 33 34  1  0  0  0  0
 34 35  1  0  0  0  0
 37 36  1  0  0  0  0
M  END
>  <MODEL>
6

>  <REMARK>
 VINA RESULT:      -5.9      3.419      6.249
  Name = 
  16 active torsions:
  status: ('A' for Active; 'I' for Inactive)
    1  A    between atoms: C_1  and  C_36
    2  A    between atoms: C_3  and  C_21
    3  A    between atoms: C_4  and  C_10
    4  A    between atoms: C_4  and  C_22
    5  A    between atoms: C_6  and  C_31
    6  A    between atoms: C_7  and  C_33
    7  A    between atoms: C_10  and  O_14
    8  A    between atoms: C_10  and  C_20
    9  A    between atoms: C_11  and  C_33
   10  A    between atoms: O_14  and  C_31
   11  A    between atoms: C_17  and  O_26
   12  A    between atoms: C_18  and  O_19
   13  A    between atoms: C_20  and  C_24
   14  A    between atoms: C_20  and  O_29
   15  A    between atoms: O_26  and  C_33
   16  A    between atoms: O_29  and  C_36
                            x       y       z     vdW  Elec       q    Type
                         _______ _______ _______ _____ _____    ______ ____

>  <TORSDO>
F 16

$$$$
=
 OpenBabel11052415333D

 37 41  0  0  1  0  0  0  0  0999 V2000
  188.9260  179.2630  139.0270 O   0  0  0  0  0  1  0  0  0  0  0  0
  188.8440  177.8650  139.1630 C   0  0  1  0  0  0  0  0  0  0  0  0
  189.0840  178.2430  135.7540 O   0  0  0  0  0  1  0  0  0  0  0  0
  188.1440  178.3630  136.7780 C   0  0  2  0  0  3  0  0  0  0  0  0
  186.4540  176.9270  136.7940 C   0  0  1  0  0  3  0  0  0  0  0  0
  188.3770  177.2920  137.8150 C   0  0  2  0  0  3  0  0  0  0  0  0
  186.8650  178.1630  136.2660 O   0  0  0  0  0  0  0  0  0  0  0  0
  187.1640  176.6200  137.9630 O   0  0  0  0  0  0  0  0  0  0  0  0
  184.9550  176.9360  137.0670 C   0  0  0  0  0  2  0  0  0  0  0  0
  184.1540  177.0900  135.7830 C   0  0  0  0  0  1  0  0  0  0  0  0
  190.2520  177.2910  139.5110 C   0  0  2  0  0  3  0  0  0  0  0  0
  191.0550  176.6810  138.3480 C   0  0  1  0  0  3  0  0  0  0  0  0
  192.4230  176.9340  138.4730 O   0  0  0  0  0  1  0  0  0  0  0  0
  190.8000  175.1950  138.1640 C   0  0  0  0  0  2  0  0  0  0  0  0
  190.8160  174.8750  136.8060 O   0  0  0  0  0  1  0  0  0  0  0  0
  190.1780  176.3700  140.5610 O   0  0  0  0  0  0  0  0  0  0  0  0
  191.0970  176.8240  141.5080 C   0  0  0  0  0  2  0  0  0  0  0  0
  191.4670  177.0850  143.9280 C   0  0  2  0  0  0  0  0  0  0  0  0
  190.6850  176.3440  142.8840 C   0  0  1  0  0  3  0  0  0  0  0  0
  190.1140  177.3820  143.5810 O   0  0  0  0  0  0  0  0  0  0  0  0
  191.4430  177.1800  145.4510 C   0  0  2  0  0  3  0  0  0  0  0  0
  191.6660  175.9850  144.8130 O   0  0  0  0  0  0  0  0  0  0  0  0
  190.3730  176.7050  147.3270 C   0  0  0  0  0  1  0  0  0  0  0  0
  190.1650  177.1560  146.0240 O   0  0  0  0  0  0  0  0  0  0  0  0
  187.8760  177.5160  140.1400 O   0  0  0  0  0  0  0  0  0  0  0  0
  187.8930  178.4520  141.1900 C   0  0  0  0  0  2  0  0  0  0  0  0
  186.5380  179.1400  141.2830 C   0  0  1  0  0  3  0  0  0  0  0  0
  185.4300  178.0760  141.3160 C   0  0  0  0  0  0  0  0  0  0  0  0
  183.9280  178.3870  141.3860 C   0  0  0  0  0  2  0  0  0  0  0  0
  185.8120  178.8900  142.5600 C   0  0  1  0  0  3  0  0  0  0  0  0
  184.6390  178.6340  140.1240 C   0  0  0  0  0  2  0  0  0  0  0  0
  186.5310  178.0680  143.4530 O   0  0  0  0  0  0  0  0  0  0  0  0
  185.7940  177.9300  144.6540 C   0  0  1  0  0  3  0  0  0  0  0  0
  186.6200  177.3540  145.8020 C   0  0  0  0  0  2  0  0  0  0  0  0
  186.9610  178.4440  146.7990 C   0  0  0  0  0  1  0  0  0  0  0  0
  185.0670  179.2070  145.0660 C   0  0  0  0  0  2  0  0  0  0  0  0
  183.9050  178.8850  145.7680 O   0  0  0  0  0  1  0  0  0  0  0  0
  2  1  1  6  0  0  0
  2 11  1  0  0  0  0
  2 25  1  0  0  0  0
  4  3  1  6  0  0  0
  4  6  1  0  0  0  0
  5  9  1  1  0  0  0
  5  8  1  0  0  0  0
  6  8  1  0  0  0  0
  6  2  1  1  0  0  0
  7  4  1  0  0  0  0
  7  5  1  0  0  0  0
 10  9  1  0  0  0  0
 11 16  1  1  0  0  0
 12 13  1  1  0  0  0
 12 11  1  0  0  0  0
 14 12  1  0  0  0  0
 15 14  1  0  0  0  0
 16 17  1  0  0  0  0
 18 20  1  1  0  0  0
 18 22  1  0  0  0  0
 18 21  1  0  0  0  0
 19 17  1  6  0  0  0
 19 20  1  0  0  0  0
 19 18  1  0  0  0  0
 21 24  1  6  0  0  0
 22 21  1  0  0  0  0
 24 23  1  0  0  0  0
 25 26  1  0  0  0  0
 27 26  1  1  0  0  0
 27 28  1  0  0  0  0
 27 30  1  0  0  0  0
 28 29  1  0  0  0  0
 28 30  1  0  0  0  0
 30 32  1  1  0  0  0
 31 28  1  0  0  0  0
 31 29  1  0  0  0  0
 32 33  1  0  0  0  0
 33 36  1  1  0  0  0
 33 34  1  0  0  0  0
 34 35  1  0  0  0  0
 36 37  1  0  0  0  0
M  END
>  <MODEL>
7

>  <REMARK>
 VINA RESULT:      -5.8      1.888      5.380
  Name = 
  16 active torsions:
  status: ('A' for Active; 'I' for Inactive)
    1  A    between atoms: C_1  and  C_36
    2  A    between atoms: C_3  and  C_21
    3  A    between atoms: C_4  and  C_10
    4  A    between atoms: C_4  and  C_22
    5  A    between atoms: C_6  and  C_31
    6  A    between atoms: C_7  and  C_33
    7  A    between atoms: C_10  and  O_14
    8  A    between atoms: C_10  and  C_20
    9  A    between atoms: C_11  and  C_33
   10  A    between atoms: O_14  and  C_31
   11  A    between atoms: C_17  and  O_26
   12  A    between atoms: C_18  and  O_19
   13  A    between atoms: C_20  and  C_24
   14  A    between atoms: C_20  and  O_29
   15  A    between atoms: O_26  and  C_33
   16  A    between atoms: O_29  and  C_36
                            x       y       z     vdW  Elec       q    Type
                         _______ _______ _______ _____ _____    ______ ____

>  <TORSDO>
F 16

$$$$
=
 OpenBabel11052415333D

 37 41  0  0  1  0  0  0  0  0999 V2000
  184.2100  180.2290  139.1150 O   0  0  0  0  0  1  0  0  0  0  0  0
  183.5680  178.9770  139.1300 C   0  0  1  0  0  0  0  0  0  0  0  0
  181.2560  181.1890  137.8710 O   0  0  0  0  0  1  0  0  0  0  0  0
  181.6870  180.6760  139.0950 C   0  0  2  0  0  3  0  0  0  0  0  0
  180.2760  179.3900  140.2240 C   0  0  1  0  0  3  0  0  0  0  0  0
  182.0630  179.2230  138.9380 C   0  0  2  0  0  3  0  0  0  0  0  0
  180.6460  180.7300  140.0190 O   0  0  0  0  0  0  0  0  0  0  0  0
  181.3270  178.5230  139.8930 O   0  0  0  0  0  0  0  0  0  0  0  0
  179.8390  179.1720  141.6670 C   0  0  0  0  0  2  0  0  0  0  0  0
  179.6800  180.4910  142.4080 C   0  0  0  0  0  1  0  0  0  0  0  0
  184.1050  178.1010  137.9560 C   0  0  2  0  0  3  0  0  0  0  0  0
  183.1290  177.0660  137.3650 C   0  0  1  0  0  3  0  0  0  0  0  0
  183.2090  177.0130  135.9720 O   0  0  0  0  0  1  0  0  0  0  0  0
  183.2970  175.6800  137.9650 C   0  0  0  0  0  2  0  0  0  0  0  0
  182.4650  175.5400  139.0760 O   0  0  0  0  0  1  0  0  0  0  0  0
  185.3030  177.4680  138.3020 O   0  0  0  0  0  0  0  0  0  0  0  0
  186.2490  177.9670  137.4060 C   0  0  0  0  0  2  0  0  0  0  0  0
  188.5990  178.1770  138.1100 C   0  0  2  0  0  0  0  0  0  0  0  0
  187.5590  177.2290  137.5890 C   0  0  1  0  0  3  0  0  0  0  0  0
  187.9040  177.2280  138.9200 O   0  0  0  0  0  0  0  0  0  0  0  0
  190.0320  178.0550  138.6200 C   0  0  2  0  0  3  0  0  0  0  0  0
  189.6930  177.6740  137.3450 O   0  0  0  0  0  0  0  0  0  0  0  0
  191.5540  177.1320  139.9330 C   0  0  0  0  0  1  0  0  0  0  0  0
  190.2920  176.9090  139.3820 O   0  0  0  0  0  0  0  0  0  0  0  0
  183.7460  178.3400  140.3860 O   0  0  0  0  0  0  0  0  0  0  0  0
  185.0070  178.6650  140.9150 C   0  0  0  0  0  2  0  0  0  0  0  0
  184.8350  179.3240  142.2770 C   0  0  1  0  0  3  0  0  0  0  0  0
  184.1730  178.3280  143.2420 C   0  0  0  0  0  0  0  0  0  0  0  0
  183.8190  178.6380  144.7040 C   0  0  0  0  0  2  0  0  0  0  0  0
  185.6550  178.7110  143.3600 C   0  0  1  0  0  3  0  0  0  0  0  0
  183.0070  179.2440  143.6400 C   0  0  0  0  0  2  0  0  0  0  0  0
  186.4530  177.6370  142.9100 O   0  0  0  0  0  0  0  0  0  0  0  0
  187.5990  177.5320  143.7340 C   0  0  1  0  0  3  0  0  0  0  0  0
  187.2680  177.5100  145.2240 C   0  0  0  0  0  2  0  0  0  0  0  0
  188.5410  177.4460  146.0430 C   0  0  0  0  0  1  0  0  0  0  0  0
  188.5180  176.3780  143.3430 C   0  0  0  0  0  2  0  0  0  0  0  0
  189.7330  176.8780  142.8740 O   0  0  0  0  0  1  0  0  0  0  0  0
  2  1  1  1  0  0  0
  2 25  1  0  0  0  0
  4  3  1  6  0  0  0
  4  7  1  0  0  0  0
  5  9  1  1  0  0  0
  6  4  1  0  0  0  0
  6  2  1  1  0  0  0
  6  8  1  0  0  0  0
  7  5  1  0  0  0  0
  8  5  1  0  0  0  0
  9 10  1  0  0  0  0
 11 16  1  1  0  0  0
 11  2  1  0  0  0  0
 12 13  1  6  0  0  0
 12 11  1  0  0  0  0
 12 14  1  0  0  0  0
 14 15  1  0  0  0  0
 17 16  1  0  0  0  0
 18 22  1  6  0  0  0
 18 21  1  0  0  0  0
 18 20  1  0  0  0  0
 19 17  1  1  0  0  0
 19 18  1  0  0  0  0
 19 20  1  0  0  0  0
 21 24  1  1  0  0  0
 22 21  1  0  0  0  0
 24 23  1  0  0  0  0
 25 26  1  0  0  0  0
 27 26  1  6  0  0  0
 27 28  1  0  0  0  0
 27 30  1  0  0  0  0
 28 30  1  0  0  0  0
 28 31  1  0  0  0  0
 28 29  1  0  0  0  0
 30 32  1  6  0  0  0
 31 29  1  0  0  0  0
 32 33  1  0  0  0  0
 33 36  1  6  0  0  0
 33 34  1  0  0  0  0
 34 35  1  0  0  0  0
 37 36  1  0  0  0  0
M  END
>  <MODEL>
8

>  <REMARK>
 VINA RESULT:      -5.7      2.829      4.941
  Name = 
  16 active torsions:
  status: ('A' for Active; 'I' for Inactive)
    1  A    between atoms: C_1  and  C_36
    2  A    between atoms: C_3  and  C_21
    3  A    between atoms: C_4  and  C_10
    4  A    between atoms: C_4  and  C_22
    5  A    between atoms: C_6  and  C_31
    6  A    between atoms: C_7  and  C_33
    7  A    between atoms: C_10  and  O_14
    8  A    between atoms: C_10  and  C_20
    9  A    between atoms: C_11  and  C_33
   10  A    between atoms: O_14  and  C_31
   11  A    between atoms: C_17  and  O_26
   12  A    between atoms: C_18  and  O_19
   13  A    between atoms: C_20  and  C_24
   14  A    between atoms: C_20  and  O_29
   15  A    between atoms: O_26  and  C_33
   16  A    between atoms: O_29  and  C_36
                            x       y       z     vdW  Elec       q    Type
                         _______ _______ _______ _____ _____    ______ ____

>  <TORSDO>
F 16

$$$$
=
 OpenBabel11052415333D

 37 41  0  0  1  0  0  0  0  0999 V2000
  188.5660  179.3170  141.3350 O   0  0  0  0  0  1  0  0  0  0  0  0
  188.5560  177.9270  141.5520 C   0  0  1  0  0  0  0  0  0  0  0  0
  190.8270  176.1170  139.7130 O   0  0  0  0  0  1  0  0  0  0  0  0
  190.2140  177.3700  139.7180 C   0  0  2  0  0  3  0  0  0  0  0  0
  188.8040  177.8300  138.0690 C   0  0  1  0  0  3  0  0  0  0  0  0
  188.7890  177.2410  140.1970 C   0  0  2  0  0  3  0  0  0  0  0  0
  190.1640  177.8730  138.4200 O   0  0  0  0  0  0  0  0  0  0  0  0
  187.9910  177.8210  139.2110 O   0  0  0  0  0  0  0  0  0  0  0  0
  188.4480  179.0080  137.1700 C   0  0  0  0  0  2  0  0  0  0  0  0
  187.3800  178.6340  136.1550 C   0  0  0  0  0  1  0  0  0  0  0  0
  189.7060  177.5430  142.5330 C   0  0  2  0  0  3  0  0  0  0  0  0
  189.5520  176.2110  143.2900 C   0  0  1  0  0  3  0  0  0  0  0  0
  188.3100  175.6190  143.0510 O   0  0  0  0  0  1  0  0  0  0  0  0
  190.6770  175.2310  143.0040 C   0  0  0  0  0  2  0  0  0  0  0  0
  191.7860  175.5390  143.7920 O   0  0  0  0  0  1  0  0  0  0  0  0
  189.9580  178.5720  143.4470 O   0  0  0  0  0  0  0  0  0  0  0  0
  189.1970  178.2520  144.5720 C   0  0  0  0  0  2  0  0  0  0  0  0
  190.1020  176.9900  146.4830 C   0  0  2  0  0  0  0  0  0  0  0  0
  190.0660  178.3300  145.8100 C   0  0  1  0  0  3  0  0  0  0  0  0
  191.1530  177.5010  145.6620 O   0  0  0  0  0  0  0  0  0  0  0  0
  190.8680  176.3700  147.6470 C   0  0  2  0  0  3  0  0  0  0  0  0
  190.0600  177.4660  147.8260 O   0  0  0  0  0  0  0  0  0  0  0  0
  192.8150  175.7680  148.5080 C   0  0  0  0  0  1  0  0  0  0  0  0
  192.2050  176.7710  147.7540 O   0  0  0  0  0  0  0  0  0  0  0  0
  187.2890  177.5080  142.0370 O   0  0  0  0  0  0  0  0  0  0  0  0
  186.5500  178.6220  142.4740 C   0  0  0  0  0  2  0  0  0  0  0  0
  185.2870  178.1500  143.1820 C   0  0  1  0  0  3  0  0  0  0  0  0
  184.4480  179.3700  143.5910 C   0  0  0  0  0  0  0  0  0  0  0  0
  183.1140  179.2950  144.3470 C   0  0  0  0  0  2  0  0  0  0  0  0
  184.0270  178.4440  142.4420 C   0  0  1  0  0  3  0  0  0  0  0  0
  184.3530  179.0060  145.0800 C   0  0  0  0  0  2  0  0  0  0  0  0
  184.2460  179.0950  141.2110 O   0  0  0  0  0  0  0  0  0  0  0  0
  183.2240  178.7300  140.3020 C   0  0  1  0  0  3  0  0  0  0  0  0
  181.9130  178.3600  140.9910 C   0  0  0  0  0  2  0  0  0  0  0  0
  180.7640  179.1410  140.3840 C   0  0  0  0  0  1  0  0  0  0  0  0
  183.0100  179.7560  139.1920 C   0  0  0  0  0  2  0  0  0  0  0  0
  184.1780  180.4930  138.9980 O   0  0  0  0  0  1  0  0  0  0  0  0
  2  1  1  6  0  0  0
  2 25  1  0  0  0  0
  2 11  1  0  0  0  0
  4  3  1  6  0  0  0
  4  6  1  0  0  0  0
  5  9  1  6  0  0  0
  5  7  1  0  0  0  0
  5  8  1  0  0  0  0
  6  2  1  1  0  0  0
  7  4  1  0  0  0  0
  8  6  1  0  0  0  0
 10  9  1  0  0  0  0
 11 12  1  0  0  0  0
 11 16  1  1  0  0  0
 12 13  1  6  0  0  0
 14 12  1  0  0  0  0
 14 15  1  0  0  0  0
 16 17  1  0  0  0  0
 18 20  1  1  0  0  0
 18 21  1  0  0  0  0
 18 22  1  0  0  0  0
 19 17  1  6  0  0  0
 19 18  1  0  0  0  0
 20 19  1  0  0  0  0
 21 24  1  6  0  0  0
 21 22  1  0  0  0  0
 24 23  1  0  0  0  0
 25 26  1  0  0  0  0
 27 26  1  6  0  0  0
 27 28  1  0  0  0  0
 28 29  1  0  0  0  0
 28 31  1  0  0  0  0
 29 31  1  0  0  0  0
 30 32  1  6  0  0  0
 30 27  1  0  0  0  0
 30 28  1  0  0  0  0
 33 36  1  6  0  0  0
 33 34  1  0  0  0  0
 33 32  1  0  0  0  0
 35 34  1  0  0  0  0
 37 36  1  0  0  0  0
M  END
>  <MODEL>
9

>  <REMARK>
 VINA RESULT:      -5.7      2.371      7.091
  Name = 
  16 active torsions:
  status: ('A' for Active; 'I' for Inactive)
    1  A    between atoms: C_1  and  C_36
    2  A    between atoms: C_3  and  C_21
    3  A    between atoms: C_4  and  C_10
    4  A    between atoms: C_4  and  C_22
    5  A    between atoms: C_6  and  C_31
    6  A    between atoms: C_7  and  C_33
    7  A    between atoms: C_10  and  O_14
    8  A    between atoms: C_10  and  C_20
    9  A    between atoms: C_11  and  C_33
   10  A    between atoms: O_14  and  C_31
   11  A    between atoms: C_17  and  O_26
   12  A    between atoms: C_18  and  O_19
   13  A    between atoms: C_20  and  C_24
   14  A    between atoms: C_20  and  O_29
   15  A    between atoms: O_26  and  C_33
   16  A    between atoms: O_29  and  C_36
                            x       y       z     vdW  Elec       q    Type
                         _______ _______ _______ _____ _____    ______ ____

>  <TORSDO>
F 16

$$$$
