=
 OpenBabel11052412223D

 30 32  0  0  1  0  0  0  0  0999 V2000
  189.0110  177.3780  140.2240 C   0  0  1  0  0  3  0  0  0  0  0  0
  189.6720  177.9620  138.9620 C   0  0  2  0  0  3  0  0  0  0  0  0
  191.4830  176.7470  137.9030 O   0  0  0  0  0  0  0  0  0  0  0  0
  189.1790  175.7380  137.8310 C   0  0  2  0  0  3  0  0  0  0  0  0
  188.7820  178.6480  137.9300 C   0  0  2  0  0  3  0  0  0  0  0  0
  187.6880  176.0680  137.5540 C   0  0  0  0  0  2  0  0  0  0  0  0
  193.2250  175.8100  136.7550 O   0  0  0  0  0  1  0  0  0  0  0  0
  191.8370  175.9360  136.8080 C   0  0  1  0  0  3  0  0  0  0  0  0
  189.3450  175.0120  135.5280 O   0  0  0  0  0  1  0  0  0  0  0  0
  191.2100  174.5520  136.9440 C   0  0  0  0  0  2  0  0  0  0  0  0
  190.0910  176.9930  137.8700 C   0  0  1  0  0  0  0  0  0  0  0  0
  187.1350  177.8160  137.8780 S   0  0  0  0  0  0  0  0  0  0  0  0
  189.6950  174.6830  136.8420 C   0  0  1  0  0  3  0  0  0  0  0  0
  189.6260  178.0070  136.8350 C   0  0  0  0  0  2  0  0  0  0  0  0
  189.9540  176.6670  140.9720 O   0  0  0  0  0  0  0  0  0  0  0  0
  190.9390  177.6020  141.3030 C   0  0  0  0  0  2  0  0  0  0  0  0
  191.5050  177.2980  142.6800 C   0  0  1  0  0  3  0  0  0  0  0  0
  191.3820  178.7690  143.7400 S   0  0  0  0  0  1  0  0  0  0  0  0
  190.7880  176.2490  143.2550 O   0  0  0  0  0  0  0  0  0  0  0  0
  191.7170  175.5720  144.0450 C   0  0  0  0  0  1  0  0  0  0  0  0
  188.3740  178.4740  141.0790 C   0  0  0  0  0  2  0  0  0  0  0  0
  187.3110  177.7960  142.3960 S   0  0  0  0  0  0  0  0  0  0  0  0
  185.8800  178.7930  141.8840 C   0  0  0  0  0  2  0  0  0  0  0  0
  184.8390  178.8360  142.9910 C   0  0  0  0  0  2  0  0  0  0  0  0
  185.4380  178.4270  144.3290 C   0  0  0  0  0  2  0  0  0  0  0  0
  184.8590  179.1560  145.3700 O   0  0  0  0  0  0  0  0  0  0  0  0
  185.4680  178.6710  146.5290 C   0  0  0  0  0  2  0  0  0  0  0  0
  186.4520  177.5680  146.1740 C   0  0  0  0  0  2  0  0  0  0  0  0
  188.9450  177.4620  146.2730 C   0  0  0  0  0  1  0  0  0  0  0  0
  187.6710  177.6030  147.0840 C   0  0  0  0  0  2  0  0  0  0  0  0
  1 15  1  0  0  0  0
  1 21  1  1  0  0  0
  2  1  1  1  0  0  0
  4  6  1  6  0  0  0
  4 11  1  0  0  0  0
  5 14  1  6  0  0  0
  5  2  1  0  0  0  0
  6 12  1  0  0  0  0
  8  7  1  1  0  0  0
  8 10  1  0  0  0  0
  8  3  1  0  0  0  0
 11 14  1  6  0  0  0
 11  3  1  0  0  0  0
 11  2  1  0  0  0  0
 12  5  1  0  0  0  0
 13  9  1  6  0  0  0
 13 10  1  0  0  0  0
 13  4  1  0  0  0  0
 15 16  1  0  0  0  0
 16 17  1  0  0  0  0
 17 19  1  0  0  0  0
 17 18  1  1  0  0  0
 19 20  1  0  0  0  0
 21 22  1  0  0  0  0
 23 22  1  0  0  0  0
 23 24  1  0  0  0  0
 24 25  1  0  0  0  0
 25 26  1  0  0  0  0
 26 27  1  0  0  0  0
 28 27  1  0  0  0  0
 28 30  1  0  0  0  0
 29 30  1  0  0  0  0
M  END
>  <MODEL>
1

>  <REMARK>
 VINA RESULT:      -6.0      0.000      0.000
  Name = 
  14 active torsions:
  status: ('A' for Active; 'I' for Inactive)
    1  A    between atoms: C_1  and  C_4
    2  A    between atoms: C_4  and  O_10
    3  A    between atoms: C_4  and  C_23
    4  A    between atoms: C_7  and  O_15
    5  A    between atoms: C_7  and  C_25
    6  A    between atoms: C_8  and  O_12
    7  A    between atoms: C_8  and  C_13
    8  A    between atoms: C_9  and  O_12
    9  A    between atoms: C_9  and  C_21
   10  A    between atoms: O_10  and  C_25
   11  A    between atoms: C_13  and  C_30
   12  A    between atoms: C_17  and  C_21
   13  A    between atoms: C_23  and  S_27
   14  A    between atoms: S_27  and  C_30
                            x       y       z     vdW  Elec       q    Type
                         _______ _______ _______ _____ _____    ______ ____

>  <TORSDO>
F 14

$$$$
=
 OpenBabel11052412223D

 30 32  0  0  1  0  0  0  0  0999 V2000
  188.7880  177.3550  142.6020 C   0  0  1  0  0  3  0  0  0  0  0  0
  189.4620  178.4280  143.4770 C   0  0  2  0  0  3  0  0  0  0  0  0
  189.1380  178.3700  145.8800 O   0  0  0  0  0  0  0  0  0  0  0  0
  190.4670  176.5150  144.8200 C   0  0  2  0  0  3  0  0  0  0  0  0
  190.8750  178.8760  143.1160 C   0  0  2  0  0  3  0  0  0  0  0  0
  191.5990  176.2270  143.7960 C   0  0  0  0  0  2  0  0  0  0  0  0
  188.9500  178.5460  148.1510 O   0  0  0  0  0  1  0  0  0  0  0  0
  189.7370  178.0510  147.1130 C   0  0  1  0  0  3  0  0  0  0  0  0
  192.1550  176.4560  146.5530 O   0  0  0  0  0  1  0  0  0  0  0  0
  189.8780  176.5390  147.2620 C   0  0  0  0  0  2  0  0  0  0  0  0
  190.0070  177.9980  144.8290 C   0  0  1  0  0  0  0  0  0  0  0  0
  191.8170  177.4520  142.4110 S   0  0  0  0  0  0  0  0  0  0  0  0
  190.8650  176.0280  146.2200 C   0  0  1  0  0  3  0  0  0  0  0  0
  191.2000  178.9150  144.6040 C   0  0  0  0  0  2  0  0  0  0  0  0
  187.6680  176.8360  143.2580 O   0  0  0  0  0  0  0  0  0  0  0  0
  186.6080  177.6690  142.8870 C   0  0  0  0  0  2  0  0  0  0  0  0
  185.9870  178.3020  144.1200 C   0  0  1  0  0  3  0  0  0  0  0  0
  184.2240  178.6340  143.8260 S   0  0  0  0  0  1  0  0  0  0  0  0
  186.1210  177.4350  145.2050 O   0  0  0  0  0  0  0  0  0  0  0  0
  185.6970  178.1760  146.3080 C   0  0  0  0  0  1  0  0  0  0  0  0
  188.3880  177.9200  141.2380 C   0  0  0  0  0  2  0  0  0  0  0  0
  189.2480  177.0840  139.8630 S   0  0  0  0  0  0  0  0  0  0  0  0
  189.2160  178.5700  138.8160 C   0  0  0  0  0  2  0  0  0  0  0  0
  188.5570  178.2630  137.4810 C   0  0  0  0  0  2  0  0  0  0  0  0
  187.1000  177.8650  137.6620 C   0  0  0  0  0  2  0  0  0  0  0  0
  186.3970  178.8650  138.3380 O   0  0  0  0  0  0  0  0  0  0  0  0
  185.1150  178.3430  138.5200 C   0  0  0  0  0  2  0  0  0  0  0  0
  184.5100  178.8910  139.8020 C   0  0  0  0  0  2  0  0  0  0  0  0
  182.2270  178.2850  140.6130 C   0  0  0  0  0  1  0  0  0  0  0  0
  183.0180  179.1430  139.6440 C   0  0  0  0  0  2  0  0  0  0  0  0
  1 21  1  6  0  0  0
  1 15  1  0  0  0  0
  2  1  1  6  0  0  0
  2 11  1  0  0  0  0
  3  8  1  0  0  0  0
  4  6  1  6  0  0  0
  4 11  1  0  0  0  0
  4 13  1  0  0  0  0
  5  2  1  0  0  0  0
  5 14  1  1  0  0  0
  8 10  1  0  0  0  0
  8  7  1  1  0  0  0
 11 14  1  1  0  0  0
 11  3  1  0  0  0  0
 12  5  1  0  0  0  0
 12  6  1  0  0  0  0
 13  9  1  1  0  0  0
 13 10  1  0  0  0  0
 16 15  1  0  0  0  0
 16 17  1  0  0  0  0
 17 18  1  6  0  0  0
 17 19  1  0  0  0  0
 19 20  1  0  0  0  0
 22 21  1  0  0  0  0
 23 22  1  0  0  0  0
 24 25  1  0  0  0  0
 24 23  1  0  0  0  0
 25 26  1  0  0  0  0
 26 27  1  0  0  0  0
 27 28  1  0  0  0  0
 30 28  1  0  0  0  0
 30 29  1  0  0  0  0
M  END
>  <MODEL>
2

>  <REMARK>
 VINA RESULT:      -5.6      2.954      7.373
  Name = 
  14 active torsions:
  status: ('A' for Active; 'I' for Inactive)
    1  A    between atoms: C_1  and  C_4
    2  A    between atoms: C_4  and  O_10
    3  A    between atoms: C_4  and  C_23
    4  A    between atoms: C_7  and  O_15
    5  A    between atoms: C_7  and  C_25
    6  A    between atoms: C_8  and  O_12
    7  A    between atoms: C_8  and  C_13
    8  A    between atoms: C_9  and  O_12
    9  A    between atoms: C_9  and  C_21
   10  A    between atoms: O_10  and  C_25
   11  A    between atoms: C_13  and  C_30
   12  A    between atoms: C_17  and  C_21
   13  A    between atoms: C_23  and  S_27
   14  A    between atoms: S_27  and  C_30
                            x       y       z     vdW  Elec       q    Type
                         _______ _______ _______ _____ _____    ______ ____

>  <TORSDO>
F 14

$$$$
=
 OpenBabel11052412223D

 30 32  0  0  1  0  0  0  0  0999 V2000
  188.7990  177.3670  142.6630 C   0  0  1  0  0  3  0  0  0  0  0  0
  189.4840  178.4320  143.5390 C   0  0  2  0  0  3  0  0  0  0  0  0
  189.1510  178.3860  145.9400 O   0  0  0  0  0  0  0  0  0  0  0  0
  190.4580  176.5100  144.8900 C   0  0  2  0  0  3  0  0  0  0  0  0
  190.9050  178.8590  143.1820 C   0  0  2  0  0  3  0  0  0  0  0  0
  191.5890  176.2030  143.8710 C   0  0  0  0  0  2  0  0  0  0  0  0
  188.9560  178.5710  148.2100 O   0  0  0  0  0  1  0  0  0  0  0  0
  189.7410  178.0620  147.1760 C   0  0  1  0  0  3  0  0  0  0  0  0
  192.1380  176.4310  146.6300 O   0  0  0  0  0  1  0  0  0  0  0  0
  189.8600  176.5490  147.3300 C   0  0  0  0  0  2  0  0  0  0  0  0
  190.0180  177.9990  144.8930 C   0  0  1  0  0  0  0  0  0  0  0  0
  191.8290  177.4210  142.4840 S   0  0  0  0  0  0  0  0  0  0  0  0
  190.8440  176.0210  146.2940 C   0  0  1  0  0  3  0  0  0  0  0  0
  191.2250  178.8980  144.6710 C   0  0  0  0  0  2  0  0  0  0  0  0
  187.6880  176.8420  143.3300 O   0  0  0  0  0  0  0  0  0  0  0  0
  186.6220  177.6740  142.9750 C   0  0  0  0  0  2  0  0  0  0  0  0
  186.0010  178.2860  144.2180 C   0  0  1  0  0  3  0  0  0  0  0  0
  184.2500  178.6670  143.9150 S   0  0  0  0  0  1  0  0  0  0  0  0
  186.1030  177.3860  145.2790 O   0  0  0  0  0  0  0  0  0  0  0  0
  185.7210  178.1170  146.4050 C   0  0  0  0  0  1  0  0  0  0  0  0
  188.3810  177.9420  141.3090 C   0  0  0  0  0  2  0  0  0  0  0  0
  189.2830  177.1750  139.9220 S   0  0  0  0  0  0  0  0  0  0  0  0
  189.0020  178.5980  138.8280 C   0  0  0  0  0  2  0  0  0  0  0  0
  188.2040  178.1780  137.6050 C   0  0  0  0  0  2  0  0  0  0  0  0
  188.0810  176.6640  137.5180 C   0  0  0  0  0  2  0  0  0  0  0  0
  188.4950  176.2090  136.2640 O   0  0  0  0  0  0  0  0  0  0  0  0
  189.6090  175.4070  136.5220 C   0  0  0  0  0  2  0  0  0  0  0  0
  190.8820  176.1660  136.1850 C   0  0  0  0  0  2  0  0  0  0  0  0
  192.2350  174.6100  137.5930 C   0  0  0  0  0  1  0  0  0  0  0  0
  191.9000  176.0620  137.3100 C   0  0  0  0  0  2  0  0  0  0  0  0
  1 21  1  6  0  0  0
  1 15  1  0  0  0  0
  2  1  1  6  0  0  0
  2 11  1  0  0  0  0
  3  8  1  0  0  0  0
  4  6  1  6  0  0  0
  4 11  1  0  0  0  0
  4 13  1  0  0  0  0
  5  2  1  0  0  0  0
  5 14  1  1  0  0  0
  8 10  1  0  0  0  0
  8  7  1  1  0  0  0
 11 14  1  1  0  0  0
 11  3  1  0  0  0  0
 12  5  1  0  0  0  0
 12  6  1  0  0  0  0
 13  9  1  1  0  0  0
 13 10  1  0  0  0  0
 16 15  1  0  0  0  0
 16 17  1  0  0  0  0
 17 18  1  6  0  0  0
 17 19  1  0  0  0  0
 19 20  1  0  0  0  0
 22 21  1  0  0  0  0
 23 22  1  0  0  0  0
 24 23  1  0  0  0  0
 25 24  1  0  0  0  0
 26 27  1  0  0  0  0
 26 25  1  0  0  0  0
 28 27  1  0  0  0  0
 28 30  1  0  0  0  0
 30 29  1  0  0  0  0
M  END
>  <MODEL>
3

>  <REMARK>
 VINA RESULT:      -5.3      2.178      7.945
  Name = 
  14 active torsions:
  status: ('A' for Active; 'I' for Inactive)
    1  A    between atoms: C_1  and  C_4
    2  A    between atoms: C_4  and  O_10
    3  A    between atoms: C_4  and  C_23
    4  A    between atoms: C_7  and  O_15
    5  A    between atoms: C_7  and  C_25
    6  A    between atoms: C_8  and  O_12
    7  A    between atoms: C_8  and  C_13
    8  A    between atoms: C_9  and  O_12
    9  A    between atoms: C_9  and  C_21
   10  A    between atoms: O_10  and  C_25
   11  A    between atoms: C_13  and  C_30
   12  A    between atoms: C_17  and  C_21
   13  A    between atoms: C_23  and  S_27
   14  A    between atoms: S_27  and  C_30
                            x       y       z     vdW  Elec       q    Type
                         _______ _______ _______ _____ _____    ______ ____

>  <TORSDO>
F 14

$$$$
=
 OpenBabel11052412223D

 30 32  0  0  1  0  0  0  0  0999 V2000
  188.8140  177.4100  142.6330 C   0  0  1  0  0  3  0  0  0  0  0  0
  189.5070  178.4600  143.5220 C   0  0  2  0  0  3  0  0  0  0  0  0
  189.1770  178.3830  145.9230 O   0  0  0  0  0  0  0  0  0  0  0  0
  190.4720  176.5140  144.8450 C   0  0  2  0  0  3  0  0  0  0  0  0
  190.9290  178.8840  143.1680 C   0  0  2  0  0  3  0  0  0  0  0  0
  191.6000  176.2150  143.8200 C   0  0  0  0  0  2  0  0  0  0  0  0
  188.9880  178.5390  148.1960 O   0  0  0  0  0  1  0  0  0  0  0  0
  189.7680  178.0390  147.1530 C   0  0  1  0  0  3  0  0  0  0  0  0
  192.1550  176.4030  146.5810 O   0  0  0  0  0  1  0  0  0  0  0  0
  189.8790  176.5240  147.2870 C   0  0  0  0  0  2  0  0  0  0  0  0
  190.0410  178.0050  144.8690 C   0  0  1  0  0  0  0  0  0  0  0  0
  191.8440  177.4500  142.4490 S   0  0  0  0  0  0  0  0  0  0  0  0
  190.8580  176.0040  146.2410 C   0  0  1  0  0  3  0  0  0  0  0  0
  191.2520  178.9010  144.6560 C   0  0  0  0  0  2  0  0  0  0  0  0
  187.6790  176.9120  143.2790 O   0  0  0  0  0  0  0  0  0  0  0  0
  186.6430  177.7800  142.9200 C   0  0  0  0  0  2  0  0  0  0  0  0
  185.9670  178.3280  144.1650 C   0  0  1  0  0  3  0  0  0  0  0  0
  184.2080  178.6370  143.8310 S   0  0  0  0  0  1  0  0  0  0  0  0
  186.0880  177.4030  145.2030 O   0  0  0  0  0  0  0  0  0  0  0  0
  185.7730  178.1210  146.3580 C   0  0  0  0  0  1  0  0  0  0  0  0
  188.4360  177.9940  141.2710 C   0  0  0  0  0  2  0  0  0  0  0  0
  189.2800  177.1460  139.8950 S   0  0  0  0  0  0  0  0  0  0  0  0
  188.9900  178.5230  138.7440 C   0  0  0  0  0  2  0  0  0  0  0  0
  189.3360  178.1090  137.3240 C   0  0  0  0  0  2  0  0  0  0  0  0
  188.0820  177.8300  136.5080 C   0  0  0  0  0  2  0  0  0  0  0  0
  187.6340  176.5250  136.7270 O   0  0  0  0  0  0  0  0  0  0  0  0
  186.2760  176.6590  137.0260 C   0  0  0  0  0  2  0  0  0  0  0  0
  185.5560  175.3460  136.7610 C   0  0  0  0  0  2  0  0  0  0  0  0
  185.5290  173.0070  137.6330 C   0  0  0  0  0  1  0  0  0  0  0  0
  186.4070  174.1560  137.1780 C   0  0  0  0  0  2  0  0  0  0  0  0
  1 21  1  6  0  0  0
  1 15  1  0  0  0  0
  2  1  1  6  0  0  0
  2 11  1  0  0  0  0
  3  8  1  0  0  0  0
  4  6  1  6  0  0  0
  4 11  1  0  0  0  0
  4 13  1  0  0  0  0
  5  2  1  0  0  0  0
  5 14  1  1  0  0  0
  8 10  1  0  0  0  0
  8  7  1  1  0  0  0
 11 14  1  1  0  0  0
 11  3  1  0  0  0  0
 12  5  1  0  0  0  0
 12  6  1  0  0  0  0
 13  9  1  1  0  0  0
 13 10  1  0  0  0  0
 16 15  1  0  0  0  0
 16 17  1  0  0  0  0
 17 18  1  6  0  0  0
 17 19  1  0  0  0  0
 19 20  1  0  0  0  0
 22 21  1  0  0  0  0
 23 22  1  0  0  0  0
 24 23  1  0  0  0  0
 25 26  1  0  0  0  0
 25 24  1  0  0  0  0
 26 27  1  0  0  0  0
 28 27  1  0  0  0  0
 28 30  1  0  0  0  0
 30 29  1  0  0  0  0
M  END
>  <MODEL>
4

>  <REMARK>
 VINA RESULT:      -5.3      2.436      7.838
  Name = 
  14 active torsions:
  status: ('A' for Active; 'I' for Inactive)
    1  A    between atoms: C_1  and  C_4
    2  A    between atoms: C_4  and  O_10
    3  A    between atoms: C_4  and  C_23
    4  A    between atoms: C_7  and  O_15
    5  A    between atoms: C_7  and  C_25
    6  A    between atoms: C_8  and  O_12
    7  A    between atoms: C_8  and  C_13
    8  A    between atoms: C_9  and  O_12
    9  A    between atoms: C_9  and  C_21
   10  A    between atoms: O_10  and  C_25
   11  A    between atoms: C_13  and  C_30
   12  A    between atoms: C_17  and  C_21
   13  A    between atoms: C_23  and  S_27
   14  A    between atoms: S_27  and  C_30
                            x       y       z     vdW  Elec       q    Type
                         _______ _______ _______ _____ _____    ______ ____

>  <TORSDO>
F 14

$$$$
=
 OpenBabel11052412223D

 30 32  0  0  1  0  0  0  0  0999 V2000
  188.1540  177.0920  138.2820 C   0  0  1  0  0  3  0  0  0  0  0  0
  189.1430  177.4360  137.1520 C   0  0  2  0  0  3  0  0  0  0  0  0
  191.4800  176.8380  137.4010 O   0  0  0  0  0  0  0  0  0  0  0  0
  189.8020  174.9790  137.1580 C   0  0  2  0  0  3  0  0  0  0  0  0
  188.6770  177.2750  135.7080 C   0  0  2  0  0  3  0  0  0  0  0  0
  188.5700  174.5190  136.3320 C   0  0  0  0  0  2  0  0  0  0  0  0
  193.7260  176.4130  137.4210 O   0  0  0  0  0  1  0  0  0  0  0  0
  192.4850  175.9390  136.9970 C   0  0  1  0  0  3  0  0  0  0  0  0
  191.1730  173.6590  135.6630 O   0  0  0  0  0  1  0  0  0  0  0  0
  192.2400  174.5590  137.5980 C   0  0  0  0  0  2  0  0  0  0  0  0
  190.2440  176.4340  136.8460 C   0  0  1  0  0  0  0  0  0  0  0  0
  187.5060  175.8530  135.5870 S   0  0  0  0  0  0  0  0  0  0  0  0
  190.9590  173.9810  137.0070 C   0  0  1  0  0  3  0  0  0  0  0  0
  190.0570  176.7290  135.3650 C   0  0  0  0  0  2  0  0  0  0  0  0
  188.8550  176.7130  139.4310 O   0  0  0  0  0  0  0  0  0  0  0  0
  189.2650  177.9120  140.0220 C   0  0  0  0  0  2  0  0  0  0  0  0
  189.8900  177.6370  141.3790 C   0  0  1  0  0  3  0  0  0  0  0  0
  188.6420  176.9580  142.5120 S   0  0  0  0  0  1  0  0  0  0  0  0
  190.9320  176.7220  141.2330 O   0  0  0  0  0  0  0  0  0  0  0  0
  192.0330  177.4910  140.8540 C   0  0  0  0  0  1  0  0  0  0  0  0
  187.2290  178.2700  138.5900 C   0  0  0  0  0  2  0  0  0  0  0  0
  185.4940  177.9210  138.1500 S   0  0  0  0  0  0  0  0  0  0  0  0
  184.8510  178.7600  139.6280 C   0  0  0  0  0  2  0  0  0  0  0  0
  185.8860  178.7430  140.7410 C   0  0  0  0  0  2  0  0  0  0  0  0
  185.3290  179.3410  142.0240 C   0  0  0  0  0  2  0  0  0  0  0  0
  184.0130  178.9210  142.2310 O   0  0  0  0  0  0  0  0  0  0  0  0
  183.9980  178.4170  143.5340 C   0  0  0  0  0  2  0  0  0  0  0  0
  184.7800  179.3400  144.4550 C   0  0  0  0  0  2  0  0  0  0  0  0
  186.2330  177.7590  145.7300 C   0  0  0  0  0  1  0  0  0  0  0  0
  185.0350  178.6860  145.8050 C   0  0  0  0  0  2  0  0  0  0  0  0
  1 21  1  1  0  0  0
  1 15  1  0  0  0  0
  2  1  1  1  0  0  0
  4  6  1  6  0  0  0
  5 14  1  6  0  0  0
  5  2  1  0  0  0  0
  8  3  1  0  0  0  0
  8  7  1  1  0  0  0
  8 10  1  0  0  0  0
 11 14  1  6  0  0  0
 11  2  1  0  0  0  0
 11  4  1  0  0  0  0
 11  3  1  0  0  0  0
 12  5  1  0  0  0  0
 12  6  1  0  0  0  0
 13  9  1  6  0  0  0
 13  4  1  0  0  0  0
 13 10  1  0  0  0  0
 15 16  1  0  0  0  0
 16 17  1  0  0  0  0
 17 18  1  1  0  0  0
 19 17  1  0  0  0  0
 20 19  1  0  0  0  0
 22 21  1  0  0  0  0
 22 23  1  0  0  0  0
 23 24  1  0  0  0  0
 24 25  1  0  0  0  0
 25 26  1  0  0  0  0
 26 27  1  0  0  0  0
 27 28  1  0  0  0  0
 28 30  1  0  0  0  0
 29 30  1  0  0  0  0
M  END
>  <MODEL>
5

>  <REMARK>
 VINA RESULT:      -5.2      1.702      2.485
  Name = 
  14 active torsions:
  status: ('A' for Active; 'I' for Inactive)
    1  A    between atoms: C_1  and  C_4
    2  A    between atoms: C_4  and  O_10
    3  A    between atoms: C_4  and  C_23
    4  A    between atoms: C_7  and  O_15
    5  A    between atoms: C_7  and  C_25
    6  A    between atoms: C_8  and  O_12
    7  A    between atoms: C_8  and  C_13
    8  A    between atoms: C_9  and  O_12
    9  A    between atoms: C_9  and  C_21
   10  A    between atoms: O_10  and  C_25
   11  A    between atoms: C_13  and  C_30
   12  A    between atoms: C_17  and  C_21
   13  A    between atoms: C_23  and  S_27
   14  A    between atoms: S_27  and  C_30
                            x       y       z     vdW  Elec       q    Type
                         _______ _______ _______ _____ _____    ______ ____

>  <TORSDO>
F 14

$$$$
=
 OpenBabel11052412223D

 30 32  0  0  1  0  0  0  0  0999 V2000
  188.6670  177.5520  140.3710 C   0  0  1  0  0  3  0  0  0  0  0  0
  189.4610  178.1620  139.2010 C   0  0  2  0  0  3  0  0  0  0  0  0
  191.5530  177.1360  138.5280 O   0  0  0  0  0  0  0  0  0  0  0  0
  189.4250  175.8500  138.1410 C   0  0  2  0  0  3  0  0  0  0  0  0
  188.6870  178.6910  137.9980 C   0  0  2  0  0  3  0  0  0  0  0  0
  187.9740  175.9830  137.6040 C   0  0  0  0  0  2  0  0  0  0  0  0
  193.5590  176.3750  137.7390 O   0  0  0  0  0  1  0  0  0  0  0  0
  192.1780  176.3310  137.5560 C   0  0  1  0  0  3  0  0  0  0  0  0
  190.0610  175.0580  135.9450 O   0  0  0  0  0  1  0  0  0  0  0  0
  191.6980  174.8880  137.6710 C   0  0  0  0  0  2  0  0  0  0  0  0
  190.1680  177.2080  138.2520 C   0  0  1  0  0  0  0  0  0  0  0  0
  187.1780  177.6610  137.7270 S   0  0  0  0  0  0  0  0  0  0  0  0
  190.2180  174.8270  137.3150 C   0  0  1  0  0  3  0  0  0  0  0  0
  189.7710  178.1150  137.0960 C   0  0  0  0  0  2  0  0  0  0  0  0
  189.4960  176.7200  141.1300 O   0  0  0  0  0  0  0  0  0  0  0  0
  190.1680  177.5760  142.0070 C   0  0  0  0  0  2  0  0  0  0  0  0
  190.5580  176.8260  143.2700 C   0  0  1  0  0  3  0  0  0  0  0  0
  191.4640  177.9310  144.3930 S   0  0  0  0  0  1  0  0  0  0  0  0
  189.4080  176.3580  143.9050 O   0  0  0  0  0  0  0  0  0  0  0  0
  189.4200  176.9690  145.1600 C   0  0  0  0  0  1  0  0  0  0  0  0
  188.0540  178.6380  141.2560 C   0  0  0  0  0  2  0  0  0  0  0  0
  186.2560  178.4250  141.4700 S   0  0  0  0  0  0  0  0  0  0  0  0
  186.4140  178.0740  143.2470 C   0  0  0  0  0  2  0  0  0  0  0  0
  185.2800  178.7270  144.0200 C   0  0  0  0  0  2  0  0  0  0  0  0
  183.9240  178.3270  143.4560 C   0  0  0  0  0  2  0  0  0  0  0  0
  183.3720  179.3740  142.7150 O   0  0  0  0  0  0  0  0  0  0  0  0
  182.0080  179.0800  142.6410 C   0  0  0  0  0  2  0  0  0  0  0  0
  181.4840  178.7020  144.0170 C   0  0  0  0  0  2  0  0  0  0  0  0
  179.4700  178.4900  142.5580 C   0  0  0  0  0  1  0  0  0  0  0  0
  180.0200  178.2950  143.9570 C   0  0  0  0  0  2  0  0  0  0  0  0
  1 15  1  0  0  0  0
  1 21  1  1  0  0  0
  2  1  1  1  0  0  0
  4  6  1  6  0  0  0
  4 11  1  0  0  0  0
  5 14  1  6  0  0  0
  5  2  1  0  0  0  0
  6 12  1  0  0  0  0
  8 10  1  0  0  0  0
  8  7  1  1  0  0  0
  8  3  1  0  0  0  0
 11 14  1  6  0  0  0
 11  3  1  0  0  0  0
 11  2  1  0  0  0  0
 12  5  1  0  0  0  0
 13  9  1  6  0  0  0
 13 10  1  0  0  0  0
 13  4  1  0  0  0  0
 15 16  1  0  0  0  0
 16 17  1  0  0  0  0
 17 19  1  0  0  0  0
 17 18  1  1  0  0  0
 19 20  1  0  0  0  0
 21 22  1  0  0  0  0
 22 23  1  0  0  0  0
 23 24  1  0  0  0  0
 25 24  1  0  0  0  0
 26 25  1  0  0  0  0
 27 26  1  0  0  0  0
 27 28  1  0  0  0  0
 29 30  1  0  0  0  0
 30 28  1  0  0  0  0
M  END
>  <MODEL>
6

>  <REMARK>
 VINA RESULT:      -5.0      1.857      3.004
  Name = 
  14 active torsions:
  status: ('A' for Active; 'I' for Inactive)
    1  A    between atoms: C_1  and  C_4
    2  A    between atoms: C_4  and  O_10
    3  A    between atoms: C_4  and  C_23
    4  A    between atoms: C_7  and  O_15
    5  A    between atoms: C_7  and  C_25
    6  A    between atoms: C_8  and  O_12
    7  A    between atoms: C_8  and  C_13
    8  A    between atoms: C_9  and  O_12
    9  A    between atoms: C_9  and  C_21
   10  A    between atoms: O_10  and  C_25
   11  A    between atoms: C_13  and  C_30
   12  A    between atoms: C_17  and  C_21
   13  A    between atoms: C_23  and  S_27
   14  A    between atoms: S_27  and  C_30
                            x       y       z     vdW  Elec       q    Type
                         _______ _______ _______ _____ _____    ______ ____

>  <TORSDO>
F 14

$$$$
=
 OpenBabel11052412223D

 30 32  0  0  1  0  0  0  0  0999 V2000
  186.8990  178.4410  142.8870 C   0  0  1  0  0  3  0  0  0  0  0  0
  187.5450  177.0510  142.7400 C   0  0  2  0  0  3  0  0  0  0  0  0
  189.1760  176.6820  140.9830 O   0  0  0  0  0  0  0  0  0  0  0  0
  189.7980  178.2260  142.8700 C   0  0  2  0  0  3  0  0  0  0  0  0
  187.9080  176.2820  144.0070 C   0  0  2  0  0  3  0  0  0  0  0  0
  189.7730  178.3690  144.4160 C   0  0  0  0  0  2  0  0  0  0  0  0
  190.7010  176.0840  139.3880 O   0  0  0  0  0  1  0  0  0  0  0  0
  190.5460  176.5280  140.7010 C   0  0  1  0  0  3  0  0  0  0  0  0
  192.0590  177.3900  143.0820 O   0  0  0  0  0  1  0  0  0  0  0  0
  191.2790  177.8540  140.8750 C   0  0  0  0  0  2  0  0  0  0  0  0
  189.0130  176.9900  142.3530 C   0  0  1  0  0  0  0  0  0  0  0  0
  188.4230  177.4670  145.3270 S   0  0  0  0  0  0  0  0  0  0  0  0
  191.2400  178.2530  142.3460 C   0  0  1  0  0  3  0  0  0  0  0  0
  189.1860  175.8240  143.3160 C   0  0  0  0  0  2  0  0  0  0  0  0
  186.8760  179.0910  141.6500 O   0  0  0  0  0  0  0  0  0  0  0  0
  185.5250  179.1630  141.3000 C   0  0  0  0  0  2  0  0  0  0  0  0
  185.3050  178.5320  139.9360 C   0  0  1  0  0  3  0  0  0  0  0  0
  183.9580  179.3880  139.0660 S   0  0  0  0  0  1  0  0  0  0  0  0
  186.4770  178.6280  139.1860 O   0  0  0  0  0  0  0  0  0  0  0  0
  186.1730  178.0160  137.9690 C   0  0  0  0  0  1  0  0  0  0  0  0
  185.4850  178.3400  143.4600 C   0  0  0  0  0  2  0  0  0  0  0  0
  185.3500  179.1030  145.1100 S   0  0  0  0  0  0  0  0  0  0  0  0
  183.5350  179.0030  145.1130 C   0  0  0  0  0  2  0  0  0  0  0  0
  183.0270  178.5560  143.7520 C   0  0  0  0  0  2  0  0  0  0  0  0
  181.8110  179.3640  143.3230 C   0  0  0  0  0  2  0  0  0  0  0  0
  180.9290  178.5720  142.5850 O   0  0  0  0  0  0  0  0  0  0  0  0
  180.4040  179.4280  141.6140 C   0  0  0  0  0  2  0  0  0  0  0  0
  179.6340  178.6250  140.5780 C   0  0  0  0  0  2  0  0  0  0  0  0
  180.2260  177.0110  138.7680 C   0  0  0  0  0  1  0  0  0  0  0  0
  180.3470  177.3230  140.2470 C   0  0  0  0  0  2  0  0  0  0  0  0
  1 21  1  6  0  0  0
  2  1  1  1  0  0  0
  2  5  1  0  0  0  0
  3 11  1  0  0  0  0
  4  6  1  1  0  0  0
  5 14  1  6  0  0  0
  5 12  1  0  0  0  0
  6 12  1  0  0  0  0
  8  7  1  6  0  0  0
  8 10  1  0  0  0  0
  8  3  1  0  0  0  0
 10 13  1  0  0  0  0
 11  2  1  0  0  0  0
 11  4  1  0  0  0  0
 11 14  1  1  0  0  0
 13  4  1  0  0  0  0
 13  9  1  1  0  0  0
 15  1  1  0  0  0  0
 16 15  1  0  0  0  0
 17 18  1  6  0  0  0
 17 16  1  0  0  0  0
 19 17  1  0  0  0  0
 20 19  1  0  0  0  0
 21 22  1  0  0  0  0
 22 23  1  0  0  0  0
 24 23  1  0  0  0  0
 25 24  1  0  0  0  0
 26 25  1  0  0  0  0
 27 26  1  0  0  0  0
 28 27  1  0  0  0  0
 29 30  1  0  0  0  0
 30 28  1  0  0  0  0
M  END
>  <MODEL>
7

>  <REMARK>
 VINA RESULT:      -4.9      3.150      6.355
  Name = 
  14 active torsions:
  status: ('A' for Active; 'I' for Inactive)
    1  A    between atoms: C_1  and  C_4
    2  A    between atoms: C_4  and  O_10
    3  A    between atoms: C_4  and  C_23
    4  A    between atoms: C_7  and  O_15
    5  A    between atoms: C_7  and  C_25
    6  A    between atoms: C_8  and  O_12
    7  A    between atoms: C_8  and  C_13
    8  A    between atoms: C_9  and  O_12
    9  A    between atoms: C_9  and  C_21
   10  A    between atoms: O_10  and  C_25
   11  A    between atoms: C_13  and  C_30
   12  A    between atoms: C_17  and  C_21
   13  A    between atoms: C_23  and  S_27
   14  A    between atoms: S_27  and  C_30
                            x       y       z     vdW  Elec       q    Type
                         _______ _______ _______ _____ _____    ______ ____

>  <TORSDO>
F 14

$$$$
=
 OpenBabel11052412223D

 30 32  0  0  1  0  0  0  0  0999 V2000
  188.3240  177.9520  139.4510 C   0  0  1  0  0  3  0  0  0  0  0  0
  188.7010  176.9020  138.3890 C   0  0  2  0  0  3  0  0  0  0  0  0
  187.0840  175.2010  137.7790 O   0  0  0  0  0  0  0  0  0  0  0  0
  186.5870  177.5860  137.1510 C   0  0  2  0  0  3  0  0  0  0  0  0
  189.5170  177.3540  137.1810 C   0  0  2  0  0  3  0  0  0  0  0  0
  187.2150  178.8630  136.5290 C   0  0  0  0  0  2  0  0  0  0  0  0
  185.7510  173.4850  137.0710 O   0  0  0  0  0  1  0  0  0  0  0  0
  186.1710  174.7850  136.7920 C   0  0  1  0  0  3  0  0  0  0  0  0
  185.7460  177.0460  134.9470 O   0  0  0  0  0  1  0  0  0  0  0  0
  184.9600  175.7110  136.7610 C   0  0  0  0  0  2  0  0  0  0  0  0
  187.6200  176.4590  137.4180 C   0  0  1  0  0  0  0  0  0  0  0  0
  189.0530  179.0830  136.7300 S   0  0  0  0  0  0  0  0  0  0  0  0
  185.4050  177.0940  136.3020 C   0  0  1  0  0  3  0  0  0  0  0  0
  188.6650  176.4370  136.3130 C   0  0  0  0  0  2  0  0  0  0  0  0
  187.2150  177.5160  140.1820 O   0  0  0  0  0  0  0  0  0  0  0  0
  186.8500  178.6050  140.9780 C   0  0  0  0  0  2  0  0  0  0  0  0
  185.3370  178.7230  141.0390 C   0  0  1  0  0  3  0  0  0  0  0  0
  184.8090  179.0720  142.7420 S   0  0  0  0  0  1  0  0  0  0  0  0
  184.9180  179.7560  140.2010 O   0  0  0  0  0  0  0  0  0  0  0  0
  184.1070  179.1380  139.2490 C   0  0  0  0  0  1  0  0  0  0  0  0
  189.4970  178.2400  140.3900 C   0  0  0  0  0  2  0  0  0  0  0  0
  190.4890  176.7500  140.7370 S   0  0  0  0  0  0  0  0  0  0  0  0
  191.3670  177.5420  142.1180 C   0  0  0  0  0  2  0  0  0  0  0  0
  190.3830  177.9900  143.1860 C   0  0  0  0  0  2  0  0  0  0  0  0
  189.8230  176.8030  143.9560 C   0  0  0  0  0  2  0  0  0  0  0  0
  188.5140  176.5300  143.5550 O   0  0  0  0  0  0  0  0  0  0  0  0
  187.7080  177.1430  144.5160 C   0  0  0  0  0  2  0  0  0  0  0  0
  188.4070  177.1220  145.8670 C   0  0  0  0  0  2  0  0  0  0  0  0
  188.2290  177.7330  148.2810 C   0  0  0  0  0  1  0  0  0  0  0  0
  187.6380  177.9330  146.8990 C   0  0  0  0  0  2  0  0  0  0  0  0
  1 15  1  0  0  0  0
  1 21  1  1  0  0  0
  2  1  1  1  0  0  0
  4  6  1  6  0  0  0
  4 11  1  0  0  0  0
  5 14  1  6  0  0  0
  5  2  1  0  0  0  0
  6 12  1  0  0  0  0
  8  7  1  1  0  0  0
  8  3  1  0  0  0  0
 10  8  1  0  0  0  0
 11 14  1  6  0  0  0
 11  3  1  0  0  0  0
 11  2  1  0  0  0  0
 12  5  1  0  0  0  0
 13  9  1  6  0  0  0
 13 10  1  0  0  0  0
 13  4  1  0  0  0  0
 15 16  1  0  0  0  0
 16 17  1  0  0  0  0
 17 18  1  1  0  0  0
 19 17  1  0  0  0  0
 20 19  1  0  0  0  0
 21 22  1  0  0  0  0
 22 23  1  0  0  0  0
 23 24  1  0  0  0  0
 24 25  1  0  0  0  0
 26 25  1  0  0  0  0
 26 27  1  0  0  0  0
 27 28  1  0  0  0  0
 28 30  1  0  0  0  0
 30 29  1  0  0  0  0
M  END
>  <MODEL>
8

>  <REMARK>
 VINA RESULT:      -4.8      2.564      4.656
  Name = 
  14 active torsions:
  status: ('A' for Active; 'I' for Inactive)
    1  A    between atoms: C_1  and  C_4
    2  A    between atoms: C_4  and  O_10
    3  A    between atoms: C_4  and  C_23
    4  A    between atoms: C_7  and  O_15
    5  A    between atoms: C_7  and  C_25
    6  A    between atoms: C_8  and  O_12
    7  A    between atoms: C_8  and  C_13
    8  A    between atoms: C_9  and  O_12
    9  A    between atoms: C_9  and  C_21
   10  A    between atoms: O_10  and  C_25
   11  A    between atoms: C_13  and  C_30
   12  A    between atoms: C_17  and  C_21
   13  A    between atoms: C_23  and  S_27
   14  A    between atoms: S_27  and  C_30
                            x       y       z     vdW  Elec       q    Type
                         _______ _______ _______ _____ _____    ______ ____

>  <TORSDO>
F 14

$$$$
=
 OpenBabel11052412223D

 30 32  0  0  1  0  0  0  0  0999 V2000
  183.2710  178.5150  139.7290 C   0  0  1  0  0  3  0  0  0  0  0  0
  182.2190  179.5810  140.0870 C   0  0  2  0  0  3  0  0  0  0  0  0
  181.7430  181.3540  138.5030 O   0  0  0  0  0  0  0  0  0  0  0  0
  181.0770  179.0070  137.8880 C   0  0  2  0  0  3  0  0  0  0  0  0
  180.9570  179.1370  140.8220 C   0  0  2  0  0  3  0  0  0  0  0  0
  180.3880  177.7280  138.4370 C   0  0  0  0  0  2  0  0  0  0  0  0
  181.1530  183.1350  137.1970 O   0  0  0  0  0  1  0  0  0  0  0  0
  180.8170  181.8300  137.5550 C   0  0  1  0  0  3  0  0  0  0  0  0
  178.9360  179.6400  136.9540 O   0  0  0  0  0  1  0  0  0  0  0  0
  180.8250  180.9470  136.3110 C   0  0  0  0  0  2  0  0  0  0  0  0
  181.3190  180.0900  138.9740 C   0  0  1  0  0  0  0  0  0  0  0  0
  180.4840  177.4390  140.2740 S   0  0  0  0  0  0  0  0  0  0  0  0
  180.3060  179.5630  136.6820 C   0  0  1  0  0  3  0  0  0  0  0  0
  180.1610  180.1080  139.9600 C   0  0  0  0  0  2  0  0  0  0  0  0
  184.3650  179.1150  139.0990 O   0  0  0  0  0  0  0  0  0  0  0  0
  184.6580  178.2890  138.0100 C   0  0  0  0  0  2  0  0  0  0  0  0
  186.0980  177.8110  138.0920 C   0  0  1  0  0  3  0  0  0  0  0  0
  186.8650  177.8690  136.4460 S   0  0  0  0  0  1  0  0  0  0  0  0
  186.8100  178.6320  138.9670 O   0  0  0  0  0  0  0  0  0  0  0  0
  188.1080  178.1200  138.9580 C   0  0  0  0  0  1  0  0  0  0  0  0
  183.7290  177.7460  140.9690 C   0  0  0  0  0  2  0  0  0  0  0  0
  184.9430  178.6830  141.9560 S   0  0  0  0  0  0  0  0  0  0  0  0
  183.9290  178.5950  143.4620 C   0  0  0  0  0  2  0  0  0  0  0  0
  184.5140  179.4820  144.5480 C   0  0  0  0  0  2  0  0  0  0  0  0
  184.8780  178.6740  145.7850 C   0  0  0  0  0  2  0  0  0  0  0  0
  186.2630  178.5220  145.8830 O   0  0  0  0  0  0  0  0  0  0  0  0
  186.5550  177.3940  145.1120 C   0  0  0  0  0  2  0  0  0  0  0  0
  188.0560  177.1540  145.0940 C   0  0  0  0  0  2  0  0  0  0  0  0
  189.8870  177.1270  146.7910 C   0  0  0  0  0  1  0  0  0  0  0  0
  188.7540  177.9390  146.1950 C   0  0  0  0  0  2  0  0  0  0  0  0
  1 21  1  1  0  0  0
  2  1  1  6  0  0  0
  2  5  1  0  0  0  0
  3 11  1  0  0  0  0
  4  6  1  1  0  0  0
  4 11  1  0  0  0  0
  5 14  1  6  0  0  0
  6 12  1  0  0  0  0
  8  7  1  6  0  0  0
  8  3  1  0  0  0  0
 10 13  1  0  0  0  0
 10  8  1  0  0  0  0
 11 14  1  1  0  0  0
 11  2  1  0  0  0  0
 12  5  1  0  0  0  0
 13  9  1  1  0  0  0
 13  4  1  0  0  0  0
 15  1  1  0  0  0  0
 16 17  1  0  0  0  0
 16 15  1  0  0  0  0
 17 18  1  6  0  0  0
 17 19  1  0  0  0  0
 20 19  1  0  0  0  0
 21 22  1  0  0  0  0
 22 23  1  0  0  0  0
 23 24  1  0  0  0  0
 24 25  1  0  0  0  0
 25 26  1  0  0  0  0
 27 26  1  0  0  0  0
 28 27  1  0  0  0  0
 28 30  1  0  0  0  0
 30 29  1  0  0  0  0
M  END
>  <MODEL>
9

>  <REMARK>
 VINA RESULT:      -4.7      5.115      7.662
  Name = 
  14 active torsions:
  status: ('A' for Active; 'I' for Inactive)
    1  A    between atoms: C_1  and  C_4
    2  A    between atoms: C_4  and  O_10
    3  A    between atoms: C_4  and  C_23
    4  A    between atoms: C_7  and  O_15
    5  A    between atoms: C_7  and  C_25
    6  A    between atoms: C_8  and  O_12
    7  A    between atoms: C_8  and  C_13
    8  A    between atoms: C_9  and  O_12
    9  A    between atoms: C_9  and  C_21
   10  A    between atoms: O_10  and  C_25
   11  A    between atoms: C_13  and  C_30
   12  A    between atoms: C_17  and  C_21
   13  A    between atoms: C_23  and  S_27
   14  A    between atoms: S_27  and  C_30
                            x       y       z     vdW  Elec       q    Type
                         _______ _______ _______ _____ _____    ______ ____

>  <TORSDO>
F 14

$$$$
