=
 OpenBabel11052414453D

 32 34  0  0  1  0  0  0  0  0999 V2000
  182.1570  178.9490  143.1790 C   0  0  0  0  0  0  0  0  0  0  0  0
  180.8530  179.1820  143.5930 O   0  0  0  0  0  1  0  0  0  0  0  0
  184.8570  178.9070  142.2740 C   0  0  0  0  0  2  0  0  0  0  0  0
  183.2720  179.0790  144.1850 C   0  0  0  0  0  2  0  0  0  0  0  0
  183.7630  178.3730  141.3540 C   0  0  1  0  0  3  0  0  0  0  0  0
  182.3920  178.6830  141.8890 C   0  0  0  0  0  3  0  0  0  0  0  0
  184.5820  178.4570  143.7010 C   0  0  2  0  0  3  0  0  0  0  0  0
  183.9010  178.9460  139.9500 C   0  0  0  0  0  2  0  0  0  0  0  0
  182.9220  176.5350  139.2520 O   0  0  0  0  0  0  0  0  0  0  0  0
  182.9890  178.2590  137.5170 O   0  0  0  0  0  0  0  0  0  0  0  0
  183.7180  177.6830  138.6980 S   0  0  0  0  0  0  0  0  0  0  0  0
  185.2760  177.1070  138.2000 N   0  0  0  0  0  2  0  0  0  0  0  0
  185.8670  178.1030  137.3110 C   0  0  2  0  0  3  0  0  0  0  0  0
  186.2280  177.5030  136.0500 N   0  0  0  0  0  0  0  0  0  0  0  0
  186.8790  178.1470  135.2080 N   0  0  0  0  0  2  0  0  0  0  0  0
  187.0300  178.7410  137.9340 N   0  0  0  0  0  2  0  0  0  0  0  0
  187.7360  177.7920  138.7900 C   0  0  0  0  0  3  0  0  0  0  0  0
  189.0420  178.4100  139.2480 C   0  0  0  0  0  2  0  0  0  0  0  0
  187.8540  178.3710  140.1850 C   0  0  0  0  0  2  0  0  0  0  0  0
  185.7180  178.8960  144.6030 C   0  0  0  0  0  2  0  0  0  0  0  0
  186.0880  177.7680  145.5590 C   0  0  0  0  0  2  0  0  0  0  0  0
  187.4860  177.2040  145.2870 C   0  0  2  0  0  3  0  0  0  0  0  0
  190.4900  177.1870  147.5600 C   0  0  0  0  0  1  0  0  0  0  0  0
  189.1170  176.7460  147.1010 C   0  0  1  0  0  3  0  0  0  0  0  0
  188.0760  177.7020  147.6480 C   0  0  0  0  0  2  0  0  0  0  0  0
  188.5310  177.8220  146.2080 C   0  0  2  0  0  3  0  0  0  0  0  0
  187.8810  177.3790  143.8270 C   0  0  0  0  0  2  0  0  0  0  0  0
  188.4290  176.0730  143.2760 C   0  0  0  0  0  2  0  0  0  0  0  0
  189.7570  176.2990  142.5760 C   0  0  0  0  0  2  0  0  0  0  0  0
  190.8680  176.4980  143.5910 C   0  0  0  0  0  2  0  0  0  0  0  0
  191.3190  178.8890  144.0100 C   0  0  0  0  0  1  0  0  0  0  0  0
  191.7130  177.6850  143.1830 C   0  0  0  0  0  2  0  0  0  0  0  0
  1  2  1  0  0  0  0
  1  4  1  0  0  0  0
  3  7  1  0  0  0  0
  5  8  1  6  0  0  0
  5  6  1  0  0  0  0
  5  3  1  0  0  0  0
  6  1  2  0  0  0  0
  7  4  1  0  0  0  0
  7 20  1  1  0  0  0
 10 11  2  0  0  0  0
 11  9  2  0  0  0  0
 11  8  1  0  0  0  0
 12 11  1  0  0  0  0
 13 14  1  6  0  0  0
 13 16  1  0  0  0  0
 13 12  1  0  0  0  0
 15 14  2  0  0  0  0
 16 17  1  0  0  0  0
 17 18  1  0  0  0  0
 17 19  1  0  0  0  0
 18 19  1  0  0  0  0
 20 21  1  0  0  0  0
 22 27  1  6  0  0  0
 22 21  1  0  0  0  0
 24 23  1  1  0  0  0
 24 25  1  0  0  0  0
 26 22  1  6  0  0  0
 26 24  1  0  0  0  0
 26 25  1  0  0  0  0
 28 27  1  0  0  0  0
 29 28  1  0  0  0  0
 29 30  1  0  0  0  0
 32 30  1  0  0  0  0
 32 31  1  0  0  0  0
M  END
>  <MODEL>
1

>  <REMARK>
 VINA RESULT:      -7.0      0.000      0.000
  Name = 
  16 active torsions:
  status: ('A' for Active; 'I' for Inactive)
    1  A    between atoms: C_1  and  N_30
    2  A    between atoms: N_2  and  C_5
    3  A    between atoms: N_2  and  S_27
    4  A    between atoms: C_5  and  N_14
    5  A    between atoms: C_5  and  N_30
    6  A    between atoms: C_6  and  C_9
    7  A    between atoms: C_6  and  C_17
    8  A    between atoms: C_7  and  C_26
    9  A    between atoms: C_7  and  C_31
   10  A    between atoms: C_9  and  C_31
   11  A    between atoms: C_9  and  C_32
   12  A    between atoms: C_16  and  C_20
   13  A    between atoms: C_16  and  S_27
   14  A    between atoms: C_17  and  C_29
   15  A    between atoms: C_18  and  C_25
   16  A    between atoms: C_18  and  C_29
                            x       y       z     vdW  Elec       q    Type
                         _______ _______ _______ _____ _____    ______ ____

>  <TORSDO>
F 16

$$$$
=
 OpenBabel11052414453D

 32 34  0  0  1  0  0  0  0  0999 V2000
  184.9980  178.5380  145.1270 C   0  0  0  0  0  0  0  0  0  0  0  0
  184.3000  178.9560  146.2520 O   0  0  0  0  0  1  0  0  0  0  0  0
  186.6710  178.0450  142.8760 C   0  0  0  0  0  2  0  0  0  0  0  0
  186.2650  177.7430  145.3120 C   0  0  0  0  0  2  0  0  0  0  0  0
  185.2250  178.4720  142.6400 C   0  0  1  0  0  3  0  0  0  0  0  0
  184.5630  178.9100  143.9180 C   0  0  0  0  0  3  0  0  0  0  0  0
  186.7240  177.0530  144.0290 C   0  0  2  0  0  3  0  0  0  0  0  0
  185.1460  179.5950  141.6160 C   0  0  0  0  0  2  0  0  0  0  0  0
  183.7600  177.8630  140.0880 O   0  0  0  0  0  0  0  0  0  0  0  0
  184.1760  180.0890  139.1590 O   0  0  0  0  0  0  0  0  0  0  0  0
  184.7630  178.9770  139.9830 S   0  0  0  0  0  0  0  0  0  0  0  0
  186.2010  178.3790  139.2200 N   0  0  0  0  0  2  0  0  0  0  0  0
  185.9670  178.3380  137.7790 C   0  0  2  0  0  3  0  0  0  0  0  0
  185.5060  177.0310  137.3790 N   0  0  0  0  0  0  0  0  0  0  0  0
  184.3980  176.8920  136.8310 N   0  0  0  0  0  2  0  0  0  0  0  0
  187.1760  178.7110  137.0390 N   0  0  0  0  0  2  0  0  0  0  0  0
  188.0400  177.5490  136.8540 C   0  0  0  0  0  3  0  0  0  0  0  0
  189.0520  177.8480  135.7660 C   0  0  0  0  0  2  0  0  0  0  0  0
  189.4630  177.9240  137.2210 C   0  0  0  0  0  2  0  0  0  0  0  0
  188.1420  176.5470  144.2010 C   0  0  0  0  0  2  0  0  0  0  0  0
  188.8270  177.2980  145.3370 C   0  0  0  0  0  2  0  0  0  0  0  0
  190.3340  177.4570  145.1100 C   0  0  2  0  0  3  0  0  0  0  0  0
  192.4420  175.8240  147.7700 C   0  0  0  0  0  1  0  0  0  0  0  0
  191.2360  175.9520  146.8650 C   0  0  1  0  0  3  0  0  0  0  0  0
  190.2150  176.8620  147.5180 C   0  0  0  0  0  2  0  0  0  0  0  0
  191.1100  177.3960  146.4190 C   0  0  2  0  0  3  0  0  0  0  0  0
  190.6490  178.7410  144.3540 C   0  0  0  0  0  2  0  0  0  0  0  0
  191.8330  178.5230  143.4270 C   0  0  0  0  0  2  0  0  0  0  0  0
  191.6590  177.2460  142.6240 C   0  0  0  0  0  2  0  0  0  0  0  0
  191.9620  177.4920  141.1580 C   0  0  0  0  0  2  0  0  0  0  0  0
  189.5190  177.2080  140.9370 C   0  0  0  0  0  1  0  0  0  0  0  0
  190.8600  176.8940  140.3110 C   0  0  0  0  0  2  0  0  0  0  0  0
  1  4  1  0  0  0  0
  1  2  1  0  0  0  0
  3  7  1  0  0  0  0
  5  8  1  6  0  0  0
  5  3  1  0  0  0  0
  5  6  1  0  0  0  0
  6  1  2  0  0  0  0
  7 20  1  1  0  0  0
  7  4  1  0  0  0  0
 10 11  2  0  0  0  0
 11  9  2  0  0  0  0
 11  8  1  0  0  0  0
 12 11  1  0  0  0  0
 13 16  1  6  0  0  0
 13 12  1  0  0  0  0
 14 13  1  0  0  0  0
 15 14  2  0  0  0  0
 17 16  1  0  0  0  0
 17 19  1  0  0  0  0
 18 17  1  0  0  0  0
 18 19  1  0  0  0  0
 20 21  1  0  0  0  0
 22 27  1  1  0  0  0
 22 21  1  0  0  0  0
 24 25  1  0  0  0  0
 24 23  1  1  0  0  0
 26 22  1  6  0  0  0
 26 24  1  0  0  0  0
 26 25  1  0  0  0  0
 28 27  1  0  0  0  0
 29 28  1  0  0  0  0
 30 29  1  0  0  0  0
 32 31  1  0  0  0  0
 32 30  1  0  0  0  0
M  END
>  <MODEL>
2

>  <REMARK>
 VINA RESULT:      -6.9      1.771      2.782
  Name = 
  16 active torsions:
  status: ('A' for Active; 'I' for Inactive)
    1  A    between atoms: C_1  and  N_30
    2  A    between atoms: N_2  and  C_5
    3  A    between atoms: N_2  and  S_27
    4  A    between atoms: C_5  and  N_14
    5  A    between atoms: C_5  and  N_30
    6  A    between atoms: C_6  and  C_9
    7  A    between atoms: C_6  and  C_17
    8  A    between atoms: C_7  and  C_26
    9  A    between atoms: C_7  and  C_31
   10  A    between atoms: C_9  and  C_31
   11  A    between atoms: C_9  and  C_32
   12  A    between atoms: C_16  and  C_20
   13  A    between atoms: C_16  and  S_27
   14  A    between atoms: C_17  and  C_29
   15  A    between atoms: C_18  and  C_25
   16  A    between atoms: C_18  and  C_29
                            x       y       z     vdW  Elec       q    Type
                         _______ _______ _______ _____ _____    ______ ____

>  <TORSDO>
F 16

$$$$
=
 OpenBabel11052414453D

 32 34  0  0  1  0  0  0  0  0999 V2000
  188.3620  177.9720  139.6610 C   0  0  0  0  0  0  0  0  0  0  0  0
  187.2690  178.5450  139.0260 O   0  0  0  0  0  1  0  0  0  0  0  0
  190.8080  177.1790  140.8840 C   0  0  0  0  0  2  0  0  0  0  0  0
  188.5710  178.2400  141.1290 C   0  0  0  0  0  2  0  0  0  0  0  0
  190.4200  176.5610  139.5430 C   0  0  1  0  0  3  0  0  0  0  0  0
  189.2310  177.2560  138.9390 C   0  0  0  0  0  3  0  0  0  0  0  0
  189.5760  177.2820  141.7700 C   0  0  2  0  0  3  0  0  0  0  0  0
  191.5840  176.6020  138.5640 C   0  0  0  0  0  2  0  0  0  0  0  0
  190.6690  174.1880  137.7930 O   0  0  0  0  0  0  0  0  0  0  0  0
  190.6010  175.9900  136.1390 O   0  0  0  0  0  0  0  0  0  0  0  0
  191.3990  175.3900  137.2630 S   0  0  0  0  0  0  0  0  0  0  0  0
  192.9550  174.8990  136.6780 N   0  0  0  0  0  2  0  0  0  0  0  0
  193.9330  175.9050  137.0860 C   0  0  2  0  0  3  0  0  0  0  0  0
  194.1090  176.8870  136.0440 N   0  0  0  0  0  0  0  0  0  0  0  0
  195.2510  177.2150  135.6730 N   0  0  0  0  0  2  0  0  0  0  0  0
  195.2130  175.2830  137.4360 N   0  0  0  0  0  2  0  0  0  0  0  0
  195.1100  174.5890  138.7160 C   0  0  0  0  0  3  0  0  0  0  0  0
  195.6890  173.1950  138.5760 C   0  0  0  0  0  2  0  0  0  0  0  0
  196.5030  174.2890  139.2340 C   0  0  0  0  0  2  0  0  0  0  0  0
  189.9720  177.7990  143.1380 C   0  0  0  0  0  2  0  0  0  0  0  0
  189.4460  176.8630  144.2190 C   0  0  0  0  0  2  0  0  0  0  0  0
  188.3250  177.4970  145.0490 C   0  0  2  0  0  3  0  0  0  0  0  0
  188.3180  177.9710  148.7860 C   0  0  0  0  0  1  0  0  0  0  0  0
  188.8170  178.2040  147.3760 C   0  0  1  0  0  3  0  0  0  0  0  0
  189.8030  177.1150  147.0080 C   0  0  0  0  0  2  0  0  0  0  0  0
  188.3760  177.0450  146.5030 C   0  0  2  0  0  3  0  0  0  0  0  0
  186.9570  177.2120  144.4430 C   0  0  0  0  0  2  0  0  0  0  0  0
  186.1090  178.4730  144.4540 C   0  0  0  0  0  2  0  0  0  0  0  0
  185.1480  178.4650  145.6300 C   0  0  0  0  0  2  0  0  0  0  0  0
  183.7850  178.9810  145.2080 C   0  0  0  0  0  2  0  0  0  0  0  0
  182.1610  179.0530  143.3490 C   0  0  0  0  0  1  0  0  0  0  0  0
  183.5930  178.7380  143.7270 C   0  0  0  0  0  2  0  0  0  0  0  0
  1  4  1  0  0  0  0
  2  1  1  0  0  0  0
  3  7  1  0  0  0  0
  4  7  1  0  0  0  0
  5  8  1  6  0  0  0
  5  3  1  0  0  0  0
  6  5  1  0  0  0  0
  6  1  2  0  0  0  0
  7 20  1  1  0  0  0
 10 11  2  0  0  0  0
 11  9  2  0  0  0  0
 11  8  1  0  0  0  0
 12 13  1  0  0  0  0
 12 11  1  0  0  0  0
 13 14  1  6  0  0  0
 13 16  1  0  0  0  0
 15 14  2  0  0  0  0
 16 17  1  0  0  0  0
 17 19  1  0  0  0  0
 18 17  1  0  0  0  0
 18 19  1  0  0  0  0
 20 21  1  0  0  0  0
 22 21  1  6  0  0  0
 24 23  1  1  0  0  0
 25 24  1  0  0  0  0
 26 22  1  6  0  0  0
 26 25  1  0  0  0  0
 26 24  1  0  0  0  0
 27 28  1  0  0  0  0
 27 22  1  0  0  0  0
 28 29  1  0  0  0  0
 30 29  1  0  0  0  0
 31 32  1  0  0  0  0
 32 30  1  0  0  0  0
M  END
>  <MODEL>
3

>  <REMARK>
 VINA RESULT:      -6.8      4.667      6.809
  Name = 
  16 active torsions:
  status: ('A' for Active; 'I' for Inactive)
    1  A    between atoms: C_1  and  N_30
    2  A    between atoms: N_2  and  C_5
    3  A    between atoms: N_2  and  S_27
    4  A    between atoms: C_5  and  N_14
    5  A    between atoms: C_5  and  N_30
    6  A    between atoms: C_6  and  C_9
    7  A    between atoms: C_6  and  C_17
    8  A    between atoms: C_7  and  C_26
    9  A    between atoms: C_7  and  C_31
   10  A    between atoms: C_9  and  C_31
   11  A    between atoms: C_9  and  C_32
   12  A    between atoms: C_16  and  C_20
   13  A    between atoms: C_16  and  S_27
   14  A    between atoms: C_17  and  C_29
   15  A    between atoms: C_18  and  C_25
   16  A    between atoms: C_18  and  C_29
                            x       y       z     vdW  Elec       q    Type
                         _______ _______ _______ _____ _____    ______ ____

>  <TORSDO>
F 16

$$$$
=
 OpenBabel11052414453D

 32 34  0  0  1  0  0  0  0  0999 V2000
  182.1530  178.9140  143.0050 C   0  0  0  0  0  0  0  0  0  0  0  0
  180.7850  179.1190  143.1210 O   0  0  0  0  0  1  0  0  0  0  0  0
  184.9860  178.9300  142.7090 C   0  0  0  0  0  2  0  0  0  0  0  0
  183.0190  179.0870  144.2260 C   0  0  0  0  0  2  0  0  0  0  0  0
  184.1300  178.3550  141.5830 C   0  0  1  0  0  3  0  0  0  0  0  0
  182.6680  178.6360  141.8020 C   0  0  0  0  0  3  0  0  0  0  0  0
  184.4160  178.4920  144.0510 C   0  0  2  0  0  3  0  0  0  0  0  0
  184.5570  178.9120  140.2320 C   0  0  0  0  0  2  0  0  0  0  0  0
  183.1950  176.7340  139.4190 O   0  0  0  0  0  0  0  0  0  0  0  0
  182.8910  178.7900  138.1270 O   0  0  0  0  0  0  0  0  0  0  0  0
  183.8880  177.9540  138.8800 S   0  0  0  0  0  0  0  0  0  0  0  0
  185.1620  177.4590  137.8120 N   0  0  0  0  0  2  0  0  0  0  0  0
  186.3250  178.3030  138.0690 C   0  0  2  0  0  3  0  0  0  0  0  0
  186.7410  178.9710  136.8600 N   0  0  0  0  0  0  0  0  0  0  0  0
  187.0960  178.3120  135.8650 N   0  0  0  0  0  2  0  0  0  0  0  0
  187.4280  177.5220  138.6370 N   0  0  0  0  0  2  0  0  0  0  0  0
  188.5690  178.3860  138.9260 C   0  0  0  0  0  3  0  0  0  0  0  0
  189.3860  177.7740  140.0460 C   0  0  0  0  0  2  0  0  0  0  0  0
  189.8500  177.6410  138.6120 C   0  0  0  0  0  2  0  0  0  0  0  0
  185.3190  178.9730  145.1690 C   0  0  0  0  0  2  0  0  0  0  0  0
  186.0470  177.7880  145.7930 C   0  0  0  0  0  2  0  0  0  0  0  0
  187.5710  177.9290  145.7140 C   0  0  2  0  0  3  0  0  0  0  0  0
  190.0480  176.3440  143.3600 C   0  0  0  0  0  1  0  0  0  0  0  0
  188.9870  177.3460  143.7610 C   0  0  1  0  0  3  0  0  0  0  0  0
  187.6170  176.7400  143.5340 C   0  0  0  0  0  2  0  0  0  0  0  0
  188.2020  176.7840  144.9300 C   0  0  2  0  0  3  0  0  0  0  0  0
  188.1910  178.0410  147.1000 C   0  0  0  0  0  2  0  0  0  0  0  0
  189.1110  176.8580  147.3560 C   0  0  0  0  0  2  0  0  0  0  0  0
  190.5230  177.3310  147.6540 C   0  0  0  0  0  2  0  0  0  0  0  0
  191.4750  176.8990  146.5550 C   0  0  0  0  0  2  0  0  0  0  0  0
  192.8040  175.6220  148.1980 C   0  0  0  0  0  1  0  0  0  0  0  0
  192.0460  175.5380  146.8910 C   0  0  0  0  0  2  0  0  0  0  0  0
  1  2  1  0  0  0  0
  1  4  1  0  0  0  0
  3  7  1  0  0  0  0
  5  8  1  6  0  0  0
  5  6  1  0  0  0  0
  5  3  1  0  0  0  0
  6  1  2  0  0  0  0
  7  4  1  0  0  0  0
  7 20  1  1  0  0  0
 10 11  2  0  0  0  0
 11  9  2  0  0  0  0
 11  8  1  0  0  0  0
 12 13  1  0  0  0  0
 12 11  1  0  0  0  0
 13 14  1  6  0  0  0
 13 16  1  0  0  0  0
 15 14  2  0  0  0  0
 16 17  1  0  0  0  0
 17 18  1  0  0  0  0
 19 17  1  0  0  0  0
 19 18  1  0  0  0  0
 20 21  1  0  0  0  0
 22 21  1  1  0  0  0
 22 27  1  0  0  0  0
 24 23  1  6  0  0  0
 24 26  1  0  0  0  0
 25 24  1  0  0  0  0
 25 26  1  0  0  0  0
 26 22  1  1  0  0  0
 27 28  1  0  0  0  0
 28 29  1  0  0  0  0
 30 32  1  0  0  0  0
 30 29  1  0  0  0  0
 32 31  1  0  0  0  0
M  END
>  <MODEL>
4

>  <REMARK>
 VINA RESULT:      -6.8      0.993      2.406
  Name = 
  16 active torsions:
  status: ('A' for Active; 'I' for Inactive)
    1  A    between atoms: C_1  and  N_30
    2  A    between atoms: N_2  and  C_5
    3  A    between atoms: N_2  and  S_27
    4  A    between atoms: C_5  and  N_14
    5  A    between atoms: C_5  and  N_30
    6  A    between atoms: C_6  and  C_9
    7  A    between atoms: C_6  and  C_17
    8  A    between atoms: C_7  and  C_26
    9  A    between atoms: C_7  and  C_31
   10  A    between atoms: C_9  and  C_31
   11  A    between atoms: C_9  and  C_32
   12  A    between atoms: C_16  and  C_20
   13  A    between atoms: C_16  and  S_27
   14  A    between atoms: C_17  and  C_29
   15  A    between atoms: C_18  and  C_25
   16  A    between atoms: C_18  and  C_29
                            x       y       z     vdW  Elec       q    Type
                         _______ _______ _______ _____ _____    ______ ____

>  <TORSDO>
F 16

$$$$
=
 OpenBabel11052414453D

 32 34  0  0  1  0  0  0  0  0999 V2000
  185.0420  178.4890  145.1050 C   0  0  0  0  0  0  0  0  0  0  0  0
  184.5140  178.9700  146.2960 O   0  0  0  0  0  1  0  0  0  0  0  0
  186.3400  177.8870  142.6430 C   0  0  0  0  0  2  0  0  0  0  0  0
  186.3840  177.8060  145.1300 C   0  0  0  0  0  2  0  0  0  0  0  0
  184.8430  178.1880  142.6330 C   0  0  1  0  0  3  0  0  0  0  0  0
  184.3760  178.7070  143.9650 C   0  0  0  0  0  3  0  0  0  0  0  0
  186.6740  177.0230  143.8500 C   0  0  2  0  0  3  0  0  0  0  0  0
  184.4940  179.1940  141.5460 C   0  0  0  0  0  2  0  0  0  0  0  0
  183.6830  178.9440  138.9890 O   0  0  0  0  0  0  0  0  0  0  0  0
  183.3210  177.0290  140.4680 O   0  0  0  0  0  0  0  0  0  0  0  0
  183.3090  178.5300  140.3840 S   0  0  0  0  0  0  0  0  0  0  0  0
  181.7200  179.1230  140.7470 N   0  0  0  0  0  2  0  0  0  0  0  0
  180.8050  177.9860  140.7730 C   0  0  2  0  0  3  0  0  0  0  0  0
  180.1540  177.8340  139.4940 N   0  0  0  0  0  0  0  0  0  0  0  0
  179.4860  178.7660  139.0110 N   0  0  0  0  0  2  0  0  0  0  0  0
  179.8160  178.1300  141.8450 N   0  0  0  0  0  2  0  0  0  0  0  0
  180.2440  179.1460  142.8010 C   0  0  0  0  0  3  0  0  0  0  0  0
  179.2630  179.1900  143.9550 C   0  0  0  0  0  2  0  0  0  0  0  0
  180.5900  178.4790  144.1170 C   0  0  0  0  0  2  0  0  0  0  0  0
  188.1380  176.6350  143.8090 C   0  0  0  0  0  2  0  0  0  0  0  0
  188.9850  177.8420  143.4260 C   0  0  0  0  0  2  0  0  0  0  0  0
  190.3150  177.4440  142.7800 C   0  0  2  0  0  3  0  0  0  0  0  0
  191.1190  176.4720  139.2300 C   0  0  0  0  0  1  0  0  0  0  0  0
  190.8230  177.4460  140.3500 C   0  0  1  0  0  3  0  0  0  0  0  0
  189.3230  177.5860  140.5080 C   0  0  0  0  0  2  0  0  0  0  0  0
  190.1040  176.7070  141.4620 C   0  0  2  0  0  3  0  0  0  0  0  0
  191.1680  176.6150  143.7310 C   0  0  0  0  0  2  0  0  0  0  0  0
  191.3570  177.3590  145.0430 C   0  0  0  0  0  2  0  0  0  0  0  0
  191.7840  176.4050  146.1450 C   0  0  0  0  0  2  0  0  0  0  0  0
  190.9640  176.6390  147.4000 C   0  0  0  0  0  2  0  0  0  0  0  0
  189.0710  178.0060  148.2020 C   0  0  0  0  0  1  0  0  0  0  0  0
  189.6290  177.2410  147.0220 C   0  0  0  0  0  2  0  0  0  0  0  0
  1  4  1  0  0  0  0
  1  2  1  0  0  0  0
  3  7  1  0  0  0  0
  5  8  1  6  0  0  0
  5  3  1  0  0  0  0
  5  6  1  0  0  0  0
  6  1  2  0  0  0  0
  7 20  1  6  0  0  0
  7  4  1  0  0  0  0
  9 11  2  0  0  0  0
 11 10  2  0  0  0  0
 11 12  1  0  0  0  0
 11  8  1  0  0  0  0
 12 13  1  0  0  0  0
 13 14  1  6  0  0  0
 13 16  1  0  0  0  0
 15 14  2  0  0  0  0
 16 17  1  0  0  0  0
 17 18  1  0  0  0  0
 17 19  1  0  0  0  0
 18 19  1  0  0  0  0
 21 20  1  0  0  0  0
 22 21  1  1  0  0  0
 22 27  1  0  0  0  0
 24 23  1  6  0  0  0
 24 25  1  0  0  0  0
 24 26  1  0  0  0  0
 25 26  1  0  0  0  0
 26 22  1  1  0  0  0
 27 28  1  0  0  0  0
 28 29  1  0  0  0  0
 29 30  1  0  0  0  0
 32 30  1  0  0  0  0
 32 31  1  0  0  0  0
M  END
>  <MODEL>
5

>  <REMARK>
 VINA RESULT:      -6.8      2.814      5.400
  Name = 
  16 active torsions:
  status: ('A' for Active; 'I' for Inactive)
    1  A    between atoms: C_1  and  N_30
    2  A    between atoms: N_2  and  C_5
    3  A    between atoms: N_2  and  S_27
    4  A    between atoms: C_5  and  N_14
    5  A    between atoms: C_5  and  N_30
    6  A    between atoms: C_6  and  C_9
    7  A    between atoms: C_6  and  C_17
    8  A    between atoms: C_7  and  C_26
    9  A    between atoms: C_7  and  C_31
   10  A    between atoms: C_9  and  C_31
   11  A    between atoms: C_9  and  C_32
   12  A    between atoms: C_16  and  C_20
   13  A    between atoms: C_16  and  S_27
   14  A    between atoms: C_17  and  C_29
   15  A    between atoms: C_18  and  C_25
   16  A    between atoms: C_18  and  C_29
                            x       y       z     vdW  Elec       q    Type
                         _______ _______ _______ _____ _____    ______ ____

>  <TORSDO>
F 16

$$$$
=
 OpenBabel11052414453D

 32 34  0  0  1  0  0  0  0  0999 V2000
  184.8970  178.5470  144.8570 C   0  0  0  0  0  0  0  0  0  0  0  0
  184.1370  178.9870  145.9320 O   0  0  0  0  0  1  0  0  0  0  0  0
  186.6660  178.0310  142.6850 C   0  0  0  0  0  2  0  0  0  0  0  0
  186.2190  177.8750  145.1280 C   0  0  0  0  0  2  0  0  0  0  0  0
  185.1960  178.3180  142.3870 C   0  0  1  0  0  3  0  0  0  0  0  0
  184.4670  178.7920  143.6140 C   0  0  0  0  0  3  0  0  0  0  0  0
  186.7680  177.1340  143.9100 C   0  0  2  0  0  3  0  0  0  0  0  0
  185.0540  179.3520  141.2800 C   0  0  0  0  0  2  0  0  0  0  0  0
  182.4250  178.8670  140.9530 O   0  0  0  0  0  0  0  0  0  0  0  0
  183.5770  180.0470  139.1450 O   0  0  0  0  0  0  0  0  0  0  0  0
  183.7070  178.9580  140.1740 S   0  0  0  0  0  0  0  0  0  0  0  0
  184.0040  177.4420  139.3870 N   0  0  0  0  0  2  0  0  0  0  0  0
  184.2380  177.7030  137.9690 C   0  0  2  0  0  3  0  0  0  0  0  0
  183.1310  177.2210  137.1790 N   0  0  0  0  0  0  0  0  0  0  0  0
  182.3410  178.0220  136.6460 N   0  0  0  0  0  2  0  0  0  0  0  0
  185.4960  177.0980  137.5230 N   0  0  0  0  0  2  0  0  0  0  0  0
  186.6310  177.9150  137.9410 C   0  0  0  0  0  3  0  0  0  0  0  0
  187.8920  177.3930  137.2810 C   0  0  0  0  0  2  0  0  0  0  0  0
  187.2060  178.6260  136.7320 C   0  0  0  0  0  2  0  0  0  0  0  0
  188.2170  176.7610  144.1500 C   0  0  0  0  0  2  0  0  0  0  0  0
  189.1290  177.8750  143.6500 C   0  0  0  0  0  2  0  0  0  0  0  0
  190.3720  177.3370  142.9330 C   0  0  2  0  0  3  0  0  0  0  0  0
  190.9240  176.3820  139.3310 C   0  0  0  0  0  1  0  0  0  0  0  0
  190.8090  177.3480  140.4890 C   0  0  1  0  0  3  0  0  0  0  0  0
  189.3520  177.7070  140.6980 C   0  0  0  0  0  2  0  0  0  0  0  0
  190.0160  176.6880  141.6010 C   0  0  2  0  0  3  0  0  0  0  0  0
  191.1470  176.3690  143.8160 C   0  0  0  0  0  2  0  0  0  0  0  0
  191.7000  177.0990  145.0290 C   0  0  0  0  0  2  0  0  0  0  0  0
  191.7720  176.1720  146.2290 C   0  0  0  0  0  2  0  0  0  0  0  0
  191.1490  176.8260  147.4480 C   0  0  0  0  0  2  0  0  0  0  0  0
  189.0150  177.9690  147.9330 C   0  0  0  0  0  1  0  0  0  0  0  0
  189.6430  176.7160  147.3620 C   0  0  0  0  0  2  0  0  0  0  0  0
  1  4  1  0  0  0  0
  1  2  1  0  0  0  0
  3  7  1  0  0  0  0
  5  8  1  6  0  0  0
  5  3  1  0  0  0  0
  5  6  1  0  0  0  0
  6  1  2  0  0  0  0
  7 20  1  1  0  0  0
  7  4  1  0  0  0  0
 10 11  2  0  0  0  0
 11  9  2  0  0  0  0
 11  8  1  0  0  0  0
 12 11  1  0  0  0  0
 13 14  1  6  0  0  0
 13 12  1  0  0  0  0
 15 14  2  0  0  0  0
 16 17  1  0  0  0  0
 16 13  1  0  0  0  0
 18 17  1  0  0  0  0
 19 18  1  0  0  0  0
 19 17  1  0  0  0  0
 21 20  1  0  0  0  0
 22 21  1  1  0  0  0
 22 27  1  0  0  0  0
 24 23  1  6  0  0  0
 24 25  1  0  0  0  0
 24 26  1  0  0  0  0
 25 26  1  0  0  0  0
 26 22  1  1  0  0  0
 27 28  1  0  0  0  0
 28 29  1  0  0  0  0
 29 30  1  0  0  0  0
 32 30  1  0  0  0  0
 32 31  1  0  0  0  0
M  END
>  <MODEL>
6

>  <REMARK>
 VINA RESULT:      -6.8      1.797      3.864
  Name = 
  16 active torsions:
  status: ('A' for Active; 'I' for Inactive)
    1  A    between atoms: C_1  and  N_30
    2  A    between atoms: N_2  and  C_5
    3  A    between atoms: N_2  and  S_27
    4  A    between atoms: C_5  and  N_14
    5  A    between atoms: C_5  and  N_30
    6  A    between atoms: C_6  and  C_9
    7  A    between atoms: C_6  and  C_17
    8  A    between atoms: C_7  and  C_26
    9  A    between atoms: C_7  and  C_31
   10  A    between atoms: C_9  and  C_31
   11  A    between atoms: C_9  and  C_32
   12  A    between atoms: C_16  and  C_20
   13  A    between atoms: C_16  and  S_27
   14  A    between atoms: C_17  and  C_29
   15  A    between atoms: C_18  and  C_25
   16  A    between atoms: C_18  and  C_29
                            x       y       z     vdW  Elec       q    Type
                         _______ _______ _______ _____ _____    ______ ____

>  <TORSDO>
F 16

$$$$
=
 OpenBabel11052414453D

 32 34  0  0  1  0  0  0  0  0999 V2000
  191.4510  177.4400  140.8510 C   0  0  0  0  0  0  0  0  0  0  0  0
  192.8060  177.1940  140.6760 O   0  0  0  0  0  1  0  0  0  0  0  0
  188.6260  177.5070  141.2080 C   0  0  0  0  0  2  0  0  0  0  0  0
  190.8860  177.4280  142.2480 C   0  0  0  0  0  2  0  0  0  0  0  0
  189.2100  177.9280  139.8620 C   0  0  1  0  0  3  0  0  0  0  0  0
  190.6780  177.6130  139.7730 C   0  0  0  0  0  3  0  0  0  0  0  0
  189.4950  178.0560  142.3300 C   0  0  2  0  0  3  0  0  0  0  0  0
  188.4750  177.2540  138.7120 C   0  0  0  0  0  2  0  0  0  0  0  0
  188.9490  179.6370  137.5500 O   0  0  0  0  0  0  0  0  0  0  0  0
  188.4080  177.7620  136.0730 O   0  0  0  0  0  0  0  0  0  0  0  0
  188.1020  178.4060  137.3970 S   0  0  0  0  0  0  0  0  0  0  0  0
  186.4280  178.8560  137.4560 N   0  0  0  0  0  2  0  0  0  0  0  0
  185.6670  177.7150  137.9570 C   0  0  2  0  0  3  0  0  0  0  0  0
  185.4600  176.7470  136.9080 N   0  0  0  0  0  0  0  0  0  0  0  0
  184.3250  176.5690  136.4290 N   0  0  0  0  0  2  0  0  0  0  0  0
  184.3870  178.1450  138.5280 N   0  0  0  0  0  2  0  0  0  0  0  0
  184.5980  179.1960  139.5200 C   0  0  0  0  0  3  0  0  0  0  0  0
  183.6060  179.0190  140.6520 C   0  0  0  0  0  2  0  0  0  0  0  0
  185.0400  178.5660  140.8260 C   0  0  0  0  0  2  0  0  0  0  0  0
  188.8650  177.7290  143.6690 C   0  0  0  0  0  2  0  0  0  0  0  0
  189.7090  178.3150  144.7960 C   0  0  0  0  0  2  0  0  0  0  0  0
  189.4610  177.6170  146.1370 C   0  0  2  0  0  3  0  0  0  0  0  0
  192.1000  175.4920  147.7820 C   0  0  0  0  0  1  0  0  0  0  0  0
  191.5610  176.7480  147.1340 C   0  0  1  0  0  3  0  0  0  0  0  0
  191.6800  176.6240  145.6280 C   0  0  0  0  0  2  0  0  0  0  0  0
  190.3450  176.3870  146.3030 C   0  0  2  0  0  3  0  0  0  0  0  0
  187.9920  177.2530  146.3100 C   0  0  0  0  0  2  0  0  0  0  0  0
  187.3350  178.2010  147.2990 C   0  0  0  0  0  2  0  0  0  0  0  0
  185.9220  178.5430  146.8590 C   0  0  0  0  0  2  0  0  0  0  0  0
  185.7410  178.2620  145.3800 C   0  0  0  0  0  2  0  0  0  0  0  0
  183.5560  178.8060  144.3670 C   0  0  0  0  0  1  0  0  0  0  0  0
  184.9080  179.3610  144.7580 C   0  0  0  0  0  2  0  0  0  0  0  0
  1  4  1  0  0  0  0
  2  1  1  0  0  0  0
  3  7  1  0  0  0  0
  4  7  1  0  0  0  0
  5  8  1  6  0  0  0
  5  3  1  0  0  0  0
  6  5  1  0  0  0  0
  6  1  2  0  0  0  0
  7 20  1  1  0  0  0
 10 11  2  0  0  0  0
 11 12  1  0  0  0  0
 11  9  2  0  0  0  0
 11  8  1  0  0  0  0
 12 13  1  0  0  0  0
 13 14  1  6  0  0  0
 13 16  1  0  0  0  0
 15 14  2  0  0  0  0
 16 17  1  0  0  0  0
 17 18  1  0  0  0  0
 17 19  1  0  0  0  0
 18 19  1  0  0  0  0
 20 21  1  0  0  0  0
 22 21  1  6  0  0  0
 22 27  1  0  0  0  0
 24 23  1  1  0  0  0
 25 26  1  0  0  0  0
 25 24  1  0  0  0  0
 26 22  1  6  0  0  0
 26 24  1  0  0  0  0
 27 28  1  0  0  0  0
 29 28  1  0  0  0  0
 30 29  1  0  0  0  0
 31 32  1  0  0  0  0
 32 30  1  0  0  0  0
M  END
>  <MODEL>
7

>  <REMARK>
 VINA RESULT:      -6.8      2.774      5.437
  Name = 
  16 active torsions:
  status: ('A' for Active; 'I' for Inactive)
    1  A    between atoms: C_1  and  N_30
    2  A    between atoms: N_2  and  C_5
    3  A    between atoms: N_2  and  S_27
    4  A    between atoms: C_5  and  N_14
    5  A    between atoms: C_5  and  N_30
    6  A    between atoms: C_6  and  C_9
    7  A    between atoms: C_6  and  C_17
    8  A    between atoms: C_7  and  C_26
    9  A    between atoms: C_7  and  C_31
   10  A    between atoms: C_9  and  C_31
   11  A    between atoms: C_9  and  C_32
   12  A    between atoms: C_16  and  C_20
   13  A    between atoms: C_16  and  S_27
   14  A    between atoms: C_17  and  C_29
   15  A    between atoms: C_18  and  C_25
   16  A    between atoms: C_18  and  C_29
                            x       y       z     vdW  Elec       q    Type
                         _______ _______ _______ _____ _____    ______ ____

>  <TORSDO>
F 16

$$$$
=
 OpenBabel11052414453D

 32 34  0  0  1  0  0  0  0  0999 V2000
  185.0520  178.5250  145.1330 C   0  0  0  0  0  0  0  0  0  0  0  0
  184.3940  179.0020  146.2590 O   0  0  0  0  0  1  0  0  0  0  0  0
  186.6070  177.9370  142.8210 C   0  0  0  0  0  2  0  0  0  0  0  0
  186.4040  177.8820  145.3010 C   0  0  0  0  0  2  0  0  0  0  0  0
  185.1110  178.1920  142.6580 C   0  0  1  0  0  3  0  0  0  0  0  0
  184.4980  178.7110  143.9300 C   0  0  0  0  0  3  0  0  0  0  0  0
  186.8440  177.0950  144.0670 C   0  0  2  0  0  3  0  0  0  0  0  0
  184.8440  179.1760  141.5280 C   0  0  0  0  0  2  0  0  0  0  0  0
  183.7600  179.0820  139.0630 O   0  0  0  0  0  0  0  0  0  0  0  0
  183.4420  177.1260  140.4990 O   0  0  0  0  0  0  0  0  0  0  0  0
  183.5080  178.6280  140.4740 S   0  0  0  0  0  0  0  0  0  0  0  0
  182.0030  179.2890  141.0240 N   0  0  0  0  0  2  0  0  0  0  0  0
  180.9450  178.3310  140.7180 C   0  0  2  0  0  3  0  0  0  0  0  0
  180.3280  178.6480  139.4530 N   0  0  0  0  0  0  0  0  0  0  0  0
  180.3670  177.8360  138.5110 N   0  0  0  0  0  2  0  0  0  0  0  0
  179.9450  178.2900  141.7880 N   0  0  0  0  0  2  0  0  0  0  0  0
  180.2360  179.3030  142.7970 C   0  0  0  0  0  3  0  0  0  0  0  0
  179.3060  179.1110  143.9790 C   0  0  0  0  0  2  0  0  0  0  0  0
  180.7380  178.6230  144.0560 C   0  0  0  0  0  2  0  0  0  0  0  0
  188.3150  176.7510  144.1780 C   0  0  0  0  0  2  0  0  0  0  0  0
  189.0240  177.7800  145.0500 C   0  0  0  0  0  2  0  0  0  0  0  0
  190.5430  177.5780  145.0790 C   0  0  2  0  0  3  0  0  0  0  0  0
  192.4280  175.9260  147.8910 C   0  0  0  0  0  1  0  0  0  0  0  0
  191.4050  175.9870  146.7770 C   0  0  1  0  0  3  0  0  0  0  0  0
  190.1170  176.5800  147.3120 C   0  0  0  0  0  2  0  0  0  0  0  0
  191.0660  177.4390  146.5030 C   0  0  2  0  0  3  0  0  0  0  0  0
  191.2660  178.7000  144.3450 C   0  0  0  0  0  2  0  0  0  0  0  0
  190.9500  178.6370  142.8590 C   0  0  0  0  0  2  0  0  0  0  0  0
  191.5170  177.3710  142.2410 C   0  0  0  0  0  2  0  0  0  0  0  0
  191.0770  177.2390  140.7960 C   0  0  0  0  0  2  0  0  0  0  0  0
  189.0300  178.0870  139.7050 C   0  0  0  0  0  1  0  0  0  0  0  0
  189.5690  177.1230  140.7390 C   0  0  0  0  0  2  0  0  0  0  0  0
  1  4  1  0  0  0  0
  1  2  1  0  0  0  0
  3  7  1  0  0  0  0
  5  8  1  6  0  0  0
  5  3  1  0  0  0  0
  5  6  1  0  0  0  0
  6  1  2  0  0  0  0
  7 20  1  1  0  0  0
  7  4  1  0  0  0  0
  9 11  2  0  0  0  0
 11 10  2  0  0  0  0
 11 12  1  0  0  0  0
 11  8  1  0  0  0  0
 13 14  1  6  0  0  0
 13 12  1  0  0  0  0
 13 16  1  0  0  0  0
 15 14  2  0  0  0  0
 16 17  1  0  0  0  0
 17 18  1  0  0  0  0
 17 19  1  0  0  0  0
 18 19  1  0  0  0  0
 20 21  1  0  0  0  0
 21 22  1  0  0  0  0
 22 27  1  1  0  0  0
 24 25  1  0  0  0  0
 24 23  1  1  0  0  0
 26 22  1  6  0  0  0
 26 24  1  0  0  0  0
 26 25  1  0  0  0  0
 28 27  1  0  0  0  0
 29 28  1  0  0  0  0
 30 29  1  0  0  0  0
 31 32  1  0  0  0  0
 32 30  1  0  0  0  0
M  END
>  <MODEL>
8

>  <REMARK>
 VINA RESULT:      -6.6      2.729      4.694
  Name = 
  16 active torsions:
  status: ('A' for Active; 'I' for Inactive)
    1  A    between atoms: C_1  and  N_30
    2  A    between atoms: N_2  and  C_5
    3  A    between atoms: N_2  and  S_27
    4  A    between atoms: C_5  and  N_14
    5  A    between atoms: C_5  and  N_30
    6  A    between atoms: C_6  and  C_9
    7  A    between atoms: C_6  and  C_17
    8  A    between atoms: C_7  and  C_26
    9  A    between atoms: C_7  and  C_31
   10  A    between atoms: C_9  and  C_31
   11  A    between atoms: C_9  and  C_32
   12  A    between atoms: C_16  and  C_20
   13  A    between atoms: C_16  and  S_27
   14  A    between atoms: C_17  and  C_29
   15  A    between atoms: C_18  and  C_25
   16  A    between atoms: C_18  and  C_29
                            x       y       z     vdW  Elec       q    Type
                         _______ _______ _______ _____ _____    ______ ____

>  <TORSDO>
F 16

$$$$
=
 OpenBabel11052414453D

 32 34  0  0  1  0  0  0  0  0999 V2000
  187.8070  177.8700  147.0840 C   0  0  0  0  0  0  0  0  0  0  0  0
  188.4740  177.8320  148.3010 O   0  0  0  0  0  1  0  0  0  0  0  0
  186.3140  177.5350  144.6820 C   0  0  0  0  0  2  0  0  0  0  0  0
  186.3470  178.2430  147.0680 C   0  0  0  0  0  2  0  0  0  0  0  0
  187.8380  177.5590  144.6050 C   0  0  1  0  0  3  0  0  0  0  0  0
  188.4610  177.5090  145.9740 C   0  0  0  0  0  3  0  0  0  0  0  0
  185.8400  178.5920  145.6690 C   0  0  2  0  0  3  0  0  0  0  0  0
  188.3620  176.4020  143.7670 C   0  0  0  0  0  2  0  0  0  0  0  0
  189.9540  178.3790  142.8640 O   0  0  0  0  0  0  0  0  0  0  0  0
  190.8590  176.1050  142.8170 O   0  0  0  0  0  0  0  0  0  0  0  0
  189.6210  176.9350  142.6150 S   0  0  0  0  0  0  0  0  0  0  0  0
  189.0540  176.7540  140.9860 N   0  0  0  0  0  2  0  0  0  0  0  0
  190.0740  177.2890  140.0880 C   0  0  2  0  0  3  0  0  0  0  0  0
  189.4810  178.1900  139.1310 N   0  0  0  0  0  0  0  0  0  0  0  0
  188.3300  178.6300  139.3070 N   0  0  0  0  0  2  0  0  0  0  0  0
  190.7960  176.2100  139.4080 N   0  0  0  0  0  2  0  0  0  0  0  0
  191.4780  176.7210  138.2230 C   0  0  0  0  0  3  0  0  0  0  0  0
  192.9510  176.3740  138.3080 C   0  0  0  0  0  2  0  0  0  0  0  0
  192.0320  175.5560  137.4260 C   0  0  0  0  0  2  0  0  0  0  0  0
  184.3260  178.6440  145.6730 C   0  0  0  0  0  2  0  0  0  0  0  0
  183.8310  179.4660  144.4890 C   0  0  0  0  0  2  0  0  0  0  0  0
  183.0150  178.6310  143.4970 C   0  0  2  0  0  3  0  0  0  0  0  0
  183.6040  178.0620  139.8200 C   0  0  0  0  0  1  0  0  0  0  0  0
  183.8800  177.8770  141.2960 C   0  0  1  0  0  3  0  0  0  0  0  0
  184.7730  179.0000  141.7820 C   0  0  0  0  0  2  0  0  0  0  0  0
  183.2840  179.0460  142.0560 C   0  0  2  0  0  3  0  0  0  0  0  0
  181.5260  178.6980  143.8090 C   0  0  0  0  0  2  0  0  0  0  0  0
  180.8400  179.6750  142.8670 C   0  0  0  0  0  2  0  0  0  0  0  0
  179.5360  179.0950  142.3480 C   0  0  0  0  0  2  0  0  0  0  0  0
  179.6970  177.6200  142.0290 C   0  0  0  0  0  2  0  0  0  0  0  0
  180.0510  176.0120  140.1890 C   0  0  0  0  0  1  0  0  0  0  0  0
  180.1640  177.4640  140.5990 C   0  0  0  0  0  2  0  0  0  0  0  0
  1  2  1  0  0  0  0
  3  7  1  0  0  0  0
  4  1  1  0  0  0  0
  5  8  1  6  0  0  0
  5  3  1  0  0  0  0
  5  6  1  0  0  0  0
  6  1  2  0  0  0  0
  7 20  1  1  0  0  0
  7  4  1  0  0  0  0
 11 10  2  0  0  0  0
 11  9  2  0  0  0  0
 11  8  1  0  0  0  0
 12 11  1  0  0  0  0
 13 14  1  6  0  0  0
 13 12  1  0  0  0  0
 14 15  2  0  0  0  0
 16 13  1  0  0  0  0
 17 18  1  0  0  0  0
 17 16  1  0  0  0  0
 19 17  1  0  0  0  0
 19 18  1  0  0  0  0
 21 20  1  0  0  0  0
 22 27  1  1  0  0  0
 22 21  1  0  0  0  0
 24 23  1  6  0  0  0
 24 25  1  0  0  0  0
 24 26  1  0  0  0  0
 25 26  1  0  0  0  0
 26 22  1  1  0  0  0
 28 27  1  0  0  0  0
 29 28  1  0  0  0  0
 30 29  1  0  0  0  0
 31 32  1  0  0  0  0
 32 30  1  0  0  0  0
M  END
>  <MODEL>
9

>  <REMARK>
 VINA RESULT:      -6.5      3.687      7.123
  Name = 
  16 active torsions:
  status: ('A' for Active; 'I' for Inactive)
    1  A    between atoms: C_1  and  N_30
    2  A    between atoms: N_2  and  C_5
    3  A    between atoms: N_2  and  S_27
    4  A    between atoms: C_5  and  N_14
    5  A    between atoms: C_5  and  N_30
    6  A    between atoms: C_6  and  C_9
    7  A    between atoms: C_6  and  C_17
    8  A    between atoms: C_7  and  C_26
    9  A    between atoms: C_7  and  C_31
   10  A    between atoms: C_9  and  C_31
   11  A    between atoms: C_9  and  C_32
   12  A    between atoms: C_16  and  C_20
   13  A    between atoms: C_16  and  S_27
   14  A    between atoms: C_17  and  C_29
   15  A    between atoms: C_18  and  C_25
   16  A    between atoms: C_18  and  C_29
                            x       y       z     vdW  Elec       q    Type
                         _______ _______ _______ _____ _____    ______ ____

>  <TORSDO>
F 16

$$$$
