=
 OpenBabel11052415313D

 37 42  0  0  1  0  0  0  0  0999 V2000
  180.0390  179.1050  141.2570 C   0  0  0  0  0  1  0  0  0  0  0  0
  184.5490  178.5100  138.3450 C   0  0  1  0  0  3  0  0  0  0  0  0
  182.6740  180.2010  138.9820 C   0  0  0  0  0  2  0  0  0  0  0  0
  184.2220  176.9800  138.2970 C   0  0  2  0  0  3  0  0  0  0  0  0
  182.4000  175.3730  139.0890 C   0  0  0  0  0  2  0  0  0  0  0  0
  184.7380  176.3140  137.0160 C   0  0  0  0  0  2  0  0  0  0  0  0
  183.8570  179.3640  139.4390 C   0  0  1  0  0  3  0  0  0  0  0  0
  182.4270  176.5830  139.9180 N   0  0  1  0  0  0  0  0  0  0  0  0
  181.3050  178.6900  140.5400 C   0  0  2  0  0  0  0  0  0  0  0  0
  186.4760  178.6260  137.1960 C   0  0  0  0  0  2  0  0  0  0  0  0
  183.6700  178.7280  140.8210 C   0  0  0  0  0  2  0  0  0  0  0  0
  182.4010  178.9890  141.4080 O   0  0  0  0  0  0  0  0  0  0  0  0
  185.9320  178.7040  138.4830 O   0  0  0  0  0  0  0  0  0  0  0  0
  182.7360  176.6650  138.4680 C   0  0  1  0  0  0  0  0  0  0  0  0
  181.3460  179.5020  139.2420 C   0  0  0  0  0  2  0  0  0  0  0  0
  186.2380  176.1680  136.9680 C   0  0  0  0  0  0  0  0  0  0  0  0
  181.1410  177.1840  140.2150 C   0  0  0  0  0  2  0  0  0  0  0  0
  187.0250  177.2510  136.9980 C   0  0  0  0  0  3  0  0  0  0  0  0
  182.1170  177.8780  136.1660 C   0  0  0  0  0  2  0  0  0  0  0  0
  180.9500  178.6880  135.6920 C   0  0  0  0  0  0  0  0  0  0  0  0
  180.5670  175.6660  135.4100 C   0  0  1  0  0  3  0  0  0  0  0  0
  179.8540  178.1450  135.1290 C   0  0  0  0  0  3  0  0  0  0  0  0
  179.5930  176.6880  134.8140 C   0  0  0  0  0  2  0  0  0  0  0  0
  180.7730  175.7850  136.9310 C   0  0  1  0  0  3  0  0  0  0  0  0
  180.1380  174.3220  135.0630 N   0  0  0  0  0  1  0  0  0  0  0  0
  181.7020  176.9500  137.3200 C   0  0  1  0  0  3  0  0  0  0  0  0
  179.1620  174.6350  138.2770 O   0  0  0  0  0  1  0  0  0  0  0  0
  179.4570  175.8680  137.6960 C   0  0  0  0  0  2  0  0  0  0  0  0
  180.8060  180.9070  134.6000 C   0  0  0  0  0  1  0  0  0  0  0  0
  180.9960  180.1640  135.9100 C   0  0  0  0  0  2  0  0  0  0  0  0
  186.0020  173.7010  136.6200 C   0  0  0  0  0  3  0  0  0  0  0  0
  186.8310  174.8180  136.8080 C   0  0  0  0  0  0  0  0  0  0  0  0
  188.2230  174.6300  136.8480 C   0  0  0  0  0  3  0  0  0  0  0  0
  190.1160  173.1850  136.7400 F   0  0  0  0  0  0  0  0  0  0  0  0
  187.9370  172.2490  136.5130 C   0  0  0  0  0  3  0  0  0  0  0  0
  188.7730  173.3530  136.7000 C   0  0  0  0  0  0  0  0  0  0  0  0
  186.5520  172.4230  136.4730 C   0  0  0  0  0  3  0  0  0  0  0  0
  2 13  1  1  0  0  0
  2  7  1  0  0  0  0
  3 15  1  0  0  0  0
  4  6  1  6  0  0  0
  4  2  1  0  0  0  0
  4 14  1  0  0  0  0
  7  3  1  6  0  0  0
  7 11  1  0  0  0  0
  8  5  1  6  0  0  0
  8 17  1  0  0  0  0
  9  1  1  1  0  0  0
  9 12  1  0  0  0  0
 10 13  1  0  0  0  0
 11 12  1  0  0  0  0
 14  5  1  6  0  0  0
 14  8  1  0  0  0  0
 15  9  1  0  0  0  0
 16 18  2  0  0  0  0
 16  6  1  0  0  0  0
 17  9  1  0  0  0  0
 18 10  1  0  0  0  0
 20 30  1  0  0  0  0
 20 19  1  0  0  0  0
 21 25  1  1  0  0  0
 21 24  1  0  0  0  0
 22 20  2  0  0  0  0
 23 22  1  0  0  0  0
 23 21  1  0  0  0  0
 24 26  1  0  0  0  0
 24 28  1  1  0  0  0
 26 19  1  6  0  0  0
 26 14  1  0  0  0  0
 28 27  1  0  0  0  0
 29 30  1  0  0  0  0
 31 32  1  0  0  0  0
 32 33  2  0  0  0  0
 32 16  1  0  0  0  0
 35 36  2  0  0  0  0
 36 34  1  0  0  0  0
 36 33  1  0  0  0  0
 37 35  1  0  0  0  0
 37 31  2  0  0  0  0
M  END
>  <MODEL>
1

>  <REMARK>
 VINA RESULT:      -5.6      0.000      0.000
  Name = 
  4 active torsions:
  status: ('A' for Active; 'I' for Inactive)
    1  A    between atoms: C_5  and  C_23
    2  A    between atoms: C_6  and  C_31
    3  A    between atoms: C_27  and  C_33
    4  A    between atoms: C_29  and  C_36
                            x       y       z     vdW  Elec       q    Type
                         _______ _______ _______ _____ _____    ______ ____

>  <TORSDO>
F 4

$$$$
=
 OpenBabel11052415313D

 37 42  0  0  1  0  0  0  0  0999 V2000
  178.9400  179.1690  135.5590 C   0  0  0  0  0  1  0  0  0  0  0  0
  181.5520  174.5830  136.7090 C   0  0  1  0  0  3  0  0  0  0  0  0
  179.2470  175.7820  136.8840 C   0  0  0  0  0  2  0  0  0  0  0  0
  182.8660  175.4320  136.7420 C   0  0  2  0  0  3  0  0  0  0  0  0
  183.5930  177.8690  136.4900 C   0  0  0  0  0  2  0  0  0  0  0  0
  183.9050  174.8600  137.7140 C   0  0  0  0  0  2  0  0  0  0  0  0
  180.3190  175.1860  135.9860 C   0  0  1  0  0  3  0  0  0  0  0  0
  182.3210  177.6280  135.8010 N   0  0  1  0  0  0  0  0  0  0  0  0
  179.8830  178.0040  135.7680 C   0  0  2  0  0  0  0  0  0  0  0  0
  182.3070  172.5120  137.1400 C   0  0  0  0  0  2  0  0  0  0  0  0
  180.5700  175.9870  134.7040 C   0  0  0  0  0  2  0  0  0  0  0  0
  179.7950  177.1750  134.6060 O   0  0  0  0  0  0  0  0  0  0  0  0
  181.8010  173.3320  136.1250 O   0  0  0  0  0  0  0  0  0  0  0  0
  182.6340  176.9090  137.0610 C   0  0  1  0  0  0  0  0  0  0  0  0
  179.4040  177.2900  137.0360 C   0  0  0  0  0  2  0  0  0  0  0  0
  184.5430  173.5800  137.2380 C   0  0  0  0  0  0  0  0  0  0  0  0
  181.2830  178.6220  136.0070 C   0  0  0  0  0  2  0  0  0  0  0  0
  183.7970  172.4880  137.0290 C   0  0  0  0  0  3  0  0  0  0  0  0
  181.8440  176.3270  139.5500 C   0  0  0  0  0  2  0  0  0  0  0  0
  180.7920  176.8690  140.4660 C   0  0  0  0  0  0  0  0  0  0  0  0
  183.4310  178.4140  140.5480 C   0  0  1  0  0  3  0  0  0  0  0  0
  181.0020  177.9020  141.3030 C   0  0  0  0  0  3  0  0  0  0  0  0
  182.2870  178.6660  141.5360 C   0  0  0  0  0  2  0  0  0  0  0  0
  183.0490  178.5820  139.0660 C   0  0  1  0  0  3  0  0  0  0  0  0
  184.5590  179.2670  140.8780 N   0  0  0  0  0  1  0  0  0  0  0  0
  182.2580  177.3830  138.5110 C   0  0  1  0  0  3  0  0  0  0  0  0
  183.2100  180.9500  138.7530 O   0  0  0  0  0  1  0  0  0  0  0  0
  182.3090  179.8870  138.7960 C   0  0  0  0  0  2  0  0  0  0  0  0
  179.5250  174.7440  140.3400 C   0  0  0  0  0  1  0  0  0  0  0  0
  179.4310  176.2580  140.3980 C   0  0  0  0  0  2  0  0  0  0  0  0
  186.6640  172.2790  136.9670 C   0  0  0  0  0  3  0  0  0  0  0  0
  186.0160  173.5190  137.0780 C   0  0  0  0  0  0  0  0  0  0  0  0
  186.7900  174.6930  137.0420 C   0  0  0  0  0  3  0  0  0  0  0  0
  188.9120  175.7630  136.8610 F   0  0  0  0  0  0  0  0  0  0  0  0
  188.8100  173.3830  136.7850 C   0  0  0  0  0  3  0  0  0  0  0  0
  188.1790  174.6250  136.8950 C   0  0  0  0  0  0  0  0  0  0  0  0
  188.0530  172.2110  136.8210 C   0  0  0  0  0  3  0  0  0  0  0  0
  2 13  1  6  0  0  0
  2  4  1  0  0  0  0
  3 15  1  0  0  0  0
  4 14  1  0  0  0  0
  4  6  1  1  0  0  0
  7 11  1  6  0  0  0
  7  2  1  0  0  0  0
  7  3  1  0  0  0  0
  8 17  1  1  0  0  0
  8  5  1  0  0  0  0
  8 14  1  0  0  0  0
  9  1  1  6  0  0  0
  9 17  1  0  0  0  0
  9 15  1  0  0  0  0
 12 11  1  0  0  0  0
 12  9  1  0  0  0  0
 13 10  1  0  0  0  0
 14  5  1  1  0  0  0
 14 26  1  0  0  0  0
 16  6  1  0  0  0  0
 18 10  1  0  0  0  0
 18 16  2  0  0  0  0
 19 20  1  0  0  0  0
 20 22  2  0  0  0  0
 21 25  1  1  0  0  0
 21 23  1  0  0  0  0
 22 23  1  0  0  0  0
 24 28  1  1  0  0  0
 24 21  1  0  0  0  0
 26 24  1  0  0  0  0
 26 19  1  1  0  0  0
 27 28  1  0  0  0  0
 29 30  1  0  0  0  0
 30 20  1  0  0  0  0
 31 32  1  0  0  0  0
 32 16  1  0  0  0  0
 33 32  2  0  0  0  0
 34 36  1  0  0  0  0
 35 37  1  0  0  0  0
 35 36  2  0  0  0  0
 36 33  1  0  0  0  0
 37 31  2  0  0  0  0
M  END
>  <MODEL>
2

>  <REMARK>
 VINA RESULT:      -5.2      1.968      5.175
  Name = 
  4 active torsions:
  status: ('A' for Active; 'I' for Inactive)
    1  A    between atoms: C_5  and  C_23
    2  A    between atoms: C_6  and  C_31
    3  A    between atoms: C_27  and  C_33
    4  A    between atoms: C_29  and  C_36
                            x       y       z     vdW  Elec       q    Type
                         _______ _______ _______ _____ _____    ______ ____

>  <TORSDO>
F 4

$$$$
=
 OpenBabel11052415313D

 37 42  0  0  1  0  0  0  0  0999 V2000
  190.1720  176.6370  134.5940 C   0  0  0  0  0  1  0  0  0  0  0  0
  187.2490  177.8810  138.9610 C   0  0  1  0  0  3  0  0  0  0  0  0
  189.3380  176.5570  138.1460 C   0  0  0  0  0  2  0  0  0  0  0  0
  186.0310  178.0700  137.9960 C   0  0  2  0  0  3  0  0  0  0  0  0
  185.4910  177.8400  135.5090 C   0  0  0  0  0  2  0  0  0  0  0  0
  184.6960  177.7430  138.6730 C   0  0  0  0  0  2  0  0  0  0  0  0
  188.6720  177.9090  138.3460 C   0  0  1  0  0  3  0  0  0  0  0  0
  186.9250  178.0710  135.7140 N   0  0  1  0  0  0  0  0  0  0  0  0
  189.2020  177.1260  135.6470 C   0  0  2  0  0  0  0  0  0  0  0  0
  186.3550  178.3700  140.9630 C   0  0  0  0  0  2  0  0  0  0  0  0
  188.9330  178.9030  137.2090 C   0  0  0  0  0  2  0  0  0  0  0  0
  189.7070  178.3690  136.1420 O   0  0  0  0  0  0  0  0  0  0  0  0
  187.2180  178.8530  139.9730 O   0  0  0  0  0  0  0  0  0  0  0  0
  186.1500  177.2730  136.6970 C   0  0  1  0  0  0  0  0  0  0  0  0
  189.1590  176.0380  136.7250 C   0  0  0  0  0  2  0  0  0  0  0  0
  184.2630  178.7650  139.6920 C   0  0  0  0  0  0  0  0  0  0  0  0
  187.8240  177.2300  134.9460 C   0  0  0  0  0  2  0  0  0  0  0  0
  185.0160  179.0050  140.7730 C   0  0  0  0  0  3  0  0  0  0  0  0
  186.8440  174.8490  137.5900 C   0  0  0  0  0  2  0  0  0  0  0  0
  187.1780  173.5470  136.9300 C   0  0  0  0  0  0  0  0  0  0  0  0
  184.1820  173.9940  137.3570 C   0  0  1  0  0  3  0  0  0  0  0  0
  186.2540  172.6230  136.6100 C   0  0  0  0  0  3  0  0  0  0  0  0
  184.7660  172.6600  136.8810 C   0  0  0  0  0  2  0  0  0  0  0  0
  184.5250  175.2010  136.4640 C   0  0  1  0  0  3  0  0  0  0  0  0
  182.7430  173.8720  137.5090 N   0  0  0  0  0  1  0  0  0  0  0  0
  185.9620  175.7140  136.6740 C   0  0  1  0  0  3  0  0  0  0  0  0
  183.0680  175.5350  134.5940 O   0  0  0  0  0  1  0  0  0  0  0  0
  184.2610  174.9300  134.9870 C   0  0  0  0  0  2  0  0  0  0  0  0
  188.7070  172.6950  135.1770 C   0  0  0  0  0  1  0  0  0  0  0  0
  188.6050  173.3010  136.5650 C   0  0  0  0  0  2  0  0  0  0  0  0
  181.8420  179.0300  140.2700 C   0  0  0  0  0  3  0  0  0  0  0  0
  182.9570  179.4470  139.5260 C   0  0  0  0  0  0  0  0  0  0  0  0
  182.8060  180.5140  138.6220 C   0  0  0  0  0  3  0  0  0  0  0  0
  181.4390  182.1750  137.5950 F   0  0  0  0  0  0  0  0  0  0  0  0
  180.4690  180.7230  139.2170 C   0  0  0  0  0  3  0  0  0  0  0  0
  181.5700  181.1490  138.4690 C   0  0  0  0  0  0  0  0  0  0  0  0
  180.6050  179.6640  140.1170 C   0  0  0  0  0  3  0  0  0  0  0  0
  2 13  1  1  0  0  0
  3  7  1  0  0  0  0
  4  6  1  1  0  0  0
  4  2  1  0  0  0  0
  5  8  1  0  0  0  0
  6 16  1  0  0  0  0
  7 11  1  6  0  0  0
  7  2  1  0  0  0  0
  8 17  1  6  0  0  0
  8 14  1  0  0  0  0
  9  1  1  6  0  0  0
  9 12  1  0  0  0  0
  9 15  1  0  0  0  0
 12 11  1  0  0  0  0
 13 10  1  0  0  0  0
 14  5  1  6  0  0  0
 14  4  1  0  0  0  0
 15  3  1  0  0  0  0
 16 18  2  0  0  0  0
 17  9  1  0  0  0  0
 18 10  1  0  0  0  0
 20 19  1  0  0  0  0
 21 25  1  6  0  0  0
 22 23  1  0  0  0  0
 22 20  2  0  0  0  0
 23 21  1  0  0  0  0
 24 28  1  6  0  0  0
 24 26  1  0  0  0  0
 24 21  1  0  0  0  0
 26 14  1  0  0  0  0
 26 19  1  1  0  0  0
 27 28  1  0  0  0  0
 29 30  1  0  0  0  0
 30 20  1  0  0  0  0
 32 16  1  0  0  0  0
 32 31  2  0  0  0  0
 33 32  1  0  0  0  0
 34 36  1  0  0  0  0
 35 37  2  0  0  0  0
 36 33  2  0  0  0  0
 36 35  1  0  0  0  0
 37 31  1  0  0  0  0
M  END
>  <MODEL>
3

>  <REMARK>
 VINA RESULT:      -4.4      3.432      7.395
  Name = 
  4 active torsions:
  status: ('A' for Active; 'I' for Inactive)
    1  A    between atoms: C_5  and  C_23
    2  A    between atoms: C_6  and  C_31
    3  A    between atoms: C_27  and  C_33
    4  A    between atoms: C_29  and  C_36
                            x       y       z     vdW  Elec       q    Type
                         _______ _______ _______ _____ _____    ______ ____

>  <TORSDO>
F 4

$$$$
=
 OpenBabel11052415313D

 37 42  0  0  1  0  0  0  0  0999 V2000
  180.1280  179.2590  141.1510 C   0  0  0  0  0  1  0  0  0  0  0  0
  184.5490  178.4830  138.1460 C   0  0  1  0  0  3  0  0  0  0  0  0
  182.6450  180.1800  138.6740 C   0  0  0  0  0  2  0  0  0  0  0  0
  184.2690  176.9480  138.2710 C   0  0  2  0  0  3  0  0  0  0  0  0
  182.5260  175.3850  139.2960 C   0  0  0  0  0  2  0  0  0  0  0  0
  184.7600  176.1650  137.0490 C   0  0  0  0  0  2  0  0  0  0  0  0
  183.8690  179.4280  139.1710 C   0  0  1  0  0  3  0  0  0  0  0  0
  182.5450  176.6750  139.9920 N   0  0  1  0  0  0  0  0  0  0  0  0
  181.3800  178.8050  140.4330 C   0  0  2  0  0  0  0  0  0  0  0  0
  186.4290  178.5290  136.9190 C   0  0  0  0  0  2  0  0  0  0  0  0
  183.7500  178.9380  140.6180 C   0  0  0  0  0  2  0  0  0  0  0  0
  182.4960  179.2240  141.2230 O   0  0  0  0  0  0  0  0  0  0  0  0
  185.9290  178.7280  138.2100 O   0  0  0  0  0  0  0  0  0  0  0  0
  182.8000  176.6120  138.5320 C   0  0  1  0  0  0  0  0  0  0  0  0
  181.3500  179.4750  139.0560 C   0  0  0  0  0  2  0  0  0  0  0  0
  186.2610  176.0560  136.9580 C   0  0  0  0  0  0  0  0  0  0  0  0
  181.2510  177.2690  140.2740 C   0  0  0  0  0  2  0  0  0  0  0  0
  187.0150  177.1570  136.8450 C   0  0  0  0  0  3  0  0  0  0  0  0
  180.2350  176.5810  137.7720 C   0  0  0  0  0  2  0  0  0  0  0  0
  179.4820  175.9140  136.6630 C   0  0  0  0  0  0  0  0  0  0  0  0
  180.7660  178.5750  135.8730 C   0  0  1  0  0  3  0  0  0  0  0  0
  179.3230  176.4620  135.4440 C   0  0  0  0  0  3  0  0  0  0  0  0
  179.7910  177.8190  134.9650 C   0  0  0  0  0  2  0  0  0  0  0  0
  182.0110  177.7720  136.2900 C   0  0  1  0  0  3  0  0  0  0  0  0
  181.1590  179.8210  135.2380 N   0  0  0  0  0  1  0  0  0  0  0  0
  181.7180  176.7460  137.4000 C   0  0  1  0  0  3  0  0  0  0  0  0
  183.6940  177.9370  134.5950 O   0  0  0  0  0  1  0  0  0  0  0  0
  182.7000  177.1030  135.1060 C   0  0  0  0  0  2  0  0  0  0  0  0
  179.1270  174.1580  138.3740 C   0  0  0  0  0  1  0  0  0  0  0  0
  178.9310  174.5500  136.9210 C   0  0  0  0  0  2  0  0  0  0  0  0
  186.0930  173.5590  136.9550 C   0  0  0  0  0  3  0  0  0  0  0  0
  186.8900  174.7140  136.9180 C   0  0  0  0  0  0  0  0  0  0  0  0
  188.2870  174.5700  136.8500 C   0  0  0  0  0  3  0  0  0  0  0  0
  190.2180  173.1770  136.7500 F   0  0  0  0  0  0  0  0  0  0  0  0
  188.0650  172.1600  136.8530 C   0  0  0  0  0  3  0  0  0  0  0  0
  188.8710  173.3010  136.8160 C   0  0  0  0  0  0  0  0  0  0  0  0
  186.6770  172.2890  136.9230 C   0  0  0  0  0  3  0  0  0  0  0  0
  2 13  1  1  0  0  0
  2  4  1  0  0  0  0
  2  7  1  0  0  0  0
  3 15  1  0  0  0  0
  4  6  1  6  0  0  0
  4 14  1  0  0  0  0
  7  3  1  6  0  0  0
  7 11  1  0  0  0  0
  8  5  1  6  0  0  0
  8 17  1  0  0  0  0
  9  1  1  1  0  0  0
  9 12  1  0  0  0  0
 10 13  1  0  0  0  0
 11 12  1  0  0  0  0
 14  5  1  6  0  0  0
 14  8  1  0  0  0  0
 15  9  1  0  0  0  0
 16  6  1  0  0  0  0
 17  9  1  0  0  0  0
 18 10  1  0  0  0  0
 18 16  2  0  0  0  0
 20 30  1  0  0  0  0
 20 19  1  0  0  0  0
 21 25  1  6  0  0  0
 21 24  1  0  0  0  0
 22 20  2  0  0  0  0
 23 22  1  0  0  0  0
 23 21  1  0  0  0  0
 24 28  1  6  0  0  0
 24 26  1  0  0  0  0
 26 19  1  1  0  0  0
 26 14  1  0  0  0  0
 27 28  1  0  0  0  0
 30 29  1  0  0  0  0
 32 31  2  0  0  0  0
 32 16  1  0  0  0  0
 33 32  1  0  0  0  0
 34 36  1  0  0  0  0
 35 37  2  0  0  0  0
 36 33  2  0  0  0  0
 36 35  1  0  0  0  0
 37 31  1  0  0  0  0
M  END
>  <MODEL>
4

>  <REMARK>
 VINA RESULT:      -3.6      1.551      2.513
  Name = 
  4 active torsions:
  status: ('A' for Active; 'I' for Inactive)
    1  A    between atoms: C_5  and  C_23
    2  A    between atoms: C_6  and  C_31
    3  A    between atoms: C_27  and  C_33
    4  A    between atoms: C_29  and  C_36
                            x       y       z     vdW  Elec       q    Type
                         _______ _______ _______ _____ _____    ______ ____

>  <TORSDO>
F 4

$$$$
=
 OpenBabel11052415313D

 37 42  0  0  1  0  0  0  0  0999 V2000
  189.0240  175.5810  134.7860 C   0  0  0  0  0  1  0  0  0  0  0  0
  185.5350  177.9650  138.1500 C   0  0  1  0  0  3  0  0  0  0  0  0
  187.6590  176.4620  138.0550 C   0  0  0  0  0  2  0  0  0  0  0  0
  184.4880  177.8920  136.9890 C   0  0  2  0  0  3  0  0  0  0  0  0
  184.3190  177.0060  134.5980 C   0  0  0  0  0  2  0  0  0  0  0  0
  183.0510  177.7650  137.5080 C   0  0  0  0  0  2  0  0  0  0  0  0
  187.0350  177.8200  137.7820 C   0  0  1  0  0  3  0  0  0  0  0  0
  185.7150  177.2770  134.9590 N   0  0  1  0  0  0  0  0  0  0  0  0
  187.9300  176.3390  135.5050 C   0  0  2  0  0  0  0  0  0  0  0  0
  184.3720  178.9770  139.7830 C   0  0  0  0  0  2  0  0  0  0  0  0
  187.5110  178.4720  136.4790 C   0  0  0  0  0  2  0  0  0  0  0  0
  188.4110  177.6670  135.7280 O   0  0  0  0  0  0  0  0  0  0  0  0
  185.3960  179.1720  138.8500 O   0  0  0  0  0  0  0  0  0  0  0  0
  184.7650  176.7760  135.9820 C   0  0  1  0  0  0  0  0  0  0  0  0
  187.6730  175.5810  136.8120 C   0  0  0  0  0  2  0  0  0  0  0  0
  182.5170  179.0250  138.1380 C   0  0  0  0  0  0  0  0  0  0  0  0
  186.6800  176.2570  134.5940 C   0  0  0  0  0  2  0  0  0  0  0  0
  183.1080  179.5430  139.2230 C   0  0  0  0  0  3  0  0  0  0  0  0
  185.3390  174.6260  137.4680 C   0  0  0  0  0  2  0  0  0  0  0  0
  185.6270  173.1900  137.1590 C   0  0  0  0  0  0  0  0  0  0  0  0
  182.6470  173.8420  137.3870 C   0  0  1  0  0  3  0  0  0  0  0  0
  184.6690  172.2500  137.0560 C   0  0  0  0  0  3  0  0  0  0  0  0
  183.1800  172.4100  137.2720 C   0  0  0  0  0  2  0  0  0  0  0  0
  183.0550  174.7740  136.2310 C   0  0  1  0  0  3  0  0  0  0  0  0
  181.2020  173.8170  137.5280 N   0  0  0  0  0  1  0  0  0  0  0  0
  184.5090  175.2680  136.3430 C   0  0  1  0  0  3  0  0  0  0  0  0
  181.4320  173.9950  134.6520 O   0  0  0  0  0  1  0  0  0  0  0  0
  182.8010  174.1540  134.8610 C   0  0  0  0  0  2  0  0  0  0  0  0
  187.1760  172.0800  135.5760 C   0  0  0  0  0  1  0  0  0  0  0  0
  187.0470  172.8060  136.9030 C   0  0  0  0  0  2  0  0  0  0  0  0
  180.3780  178.8730  136.8480 C   0  0  0  0  0  3  0  0  0  0  0  0
  181.2840  179.6430  137.5940 C   0  0  0  0  0  0  0  0  0  0  0  0
  181.0030  181.0050  137.8040 C   0  0  0  0  0  3  0  0  0  0  0  0
  179.5810  182.8930  137.4930 F   0  0  0  0  0  0  0  0  0  0  0  0
  178.9460  180.8010  136.5440 C   0  0  0  0  0  3  0  0  0  0  0  0
  179.8400  181.5800  137.2830 C   0  0  0  0  0  0  0  0  0  0  0  0
  179.2140  179.4480  136.3260 C   0  0  0  0  0  3  0  0  0  0  0  0
  2 13  1  6  0  0  0
  4  6  1  1  0  0  0
  4  2  1  0  0  0  0
  5  8  1  0  0  0  0
  6 16  1  0  0  0  0
  7 11  1  6  0  0  0
  7  3  1  0  0  0  0
  7  2  1  0  0  0  0
  8 17  1  6  0  0  0
  8 14  1  0  0  0  0
  9  1  1  6  0  0  0
  9 12  1  0  0  0  0
  9 15  1  0  0  0  0
 12 11  1  0  0  0  0
 13 10  1  0  0  0  0
 14  5  1  6  0  0  0
 14 26  1  0  0  0  0
 14  4  1  0  0  0  0
 15  3  1  0  0  0  0
 16 18  2  0  0  0  0
 17  9  1  0  0  0  0
 18 10  1  0  0  0  0
 20 19  1  0  0  0  0
 21 25  1  6  0  0  0
 22 20  2  0  0  0  0
 22 23  1  0  0  0  0
 23 21  1  0  0  0  0
 24 28  1  6  0  0  0
 24 26  1  0  0  0  0
 24 21  1  0  0  0  0
 26 19  1  1  0  0  0
 27 28  1  0  0  0  0
 29 30  1  0  0  0  0
 30 20  1  0  0  0  0
 31 32  1  0  0  0  0
 32 33  2  0  0  0  0
 32 16  1  0  0  0  0
 35 36  2  0  0  0  0
 36 34  1  0  0  0  0
 36 33  1  0  0  0  0
 37 35  1  0  0  0  0
 37 31  2  0  0  0  0
M  END
>  <MODEL>
5

>  <REMARK>
 VINA RESULT:      -3.6      3.217      7.201
  Name = 
  4 active torsions:
  status: ('A' for Active; 'I' for Inactive)
    1  A    between atoms: C_5  and  C_23
    2  A    between atoms: C_6  and  C_31
    3  A    between atoms: C_27  and  C_33
    4  A    between atoms: C_29  and  C_36
                            x       y       z     vdW  Elec       q    Type
                         _______ _______ _______ _____ _____    ______ ____

>  <TORSDO>
F 4

$$$$
=
 OpenBabel11052415313D

 37 42  0  0  1  0  0  0  0  0999 V2000
  185.5640  177.7570  142.6490 C   0  0  0  0  0  1  0  0  0  0  0  0
  181.0110  179.0030  140.0250 C   0  0  1  0  0  3  0  0  0  0  0  0
  182.1440  177.1880  141.5080 C   0  0  0  0  0  2  0  0  0  0  0  0
  181.8920  179.8820  139.0750 C   0  0  2  0  0  3  0  0  0  0  0  0
  184.3540  180.4760  138.7320 C   0  0  0  0  0  2  0  0  0  0  0  0
  181.3140  179.9660  137.6580 C   0  0  0  0  0  2  0  0  0  0  0  0
  181.6060  178.6050  141.4000 C   0  0  1  0  0  3  0  0  0  0  0  0
  184.1030  180.0620  140.1160 N   0  0  1  0  0  0  0  0  0  0  0  0
  184.4170  178.3310  141.8460 C   0  0  2  0  0  0  0  0  0  0  0  0
  178.9470  179.3250  139.1990 C   0  0  0  0  0  2  0  0  0  0  0  0
  182.4550  179.6490  142.1350 C   0  0  0  0  0  2  0  0  0  0  0  0
  183.6250  179.1160  142.7410 O   0  0  0  0  0  0  0  0  0  0  0  0
  179.7860  179.6410  140.2730 O   0  0  0  0  0  0  0  0  0  0  0  0
  183.3510  179.4320  139.0020 C   0  0  1  0  0  0  0  0  0  0  0  0
  183.6500  177.1320  141.2810 C   0  0  0  0  0  2  0  0  0  0  0  0
  180.0680  180.8070  137.5570 C   0  0  0  0  0  0  0  0  0  0  0  0
  185.0620  179.1360  140.6900 C   0  0  0  0  0  2  0  0  0  0  0  0
  178.9640  180.4660  138.2350 C   0  0  0  0  0  3  0  0  0  0  0  0
  182.6690  177.2820  137.5640 C   0  0  0  0  0  2  0  0  0  0  0  0
  183.0080  175.8250  137.6370 C   0  0  0  0  0  0  0  0  0  0  0  0
  185.0490  177.5020  136.0940 C   0  0  1  0  0  3  0  0  0  0  0  0
  184.0770  175.2840  137.0250 C   0  0  0  0  0  3  0  0  0  0  0  0
  185.0860  175.9710  136.1310 C   0  0  0  0  0  2  0  0  0  0  0  0
  185.1100  178.1800  137.4750 C   0  0  1  0  0  3  0  0  0  0  0  0
  186.1150  177.9980  135.2420 N   0  0  0  0  0  1  0  0  0  0  0  0
  183.7670  178.1300  138.2280 C   0  0  1  0  0  3  0  0  0  0  0  0
  187.3130  178.5200  138.3490 O   0  0  0  0  0  1  0  0  0  0  0  0
  186.2360  177.6350  138.3460 C   0  0  0  0  0  2  0  0  0  0  0  0
  180.7300  175.5180  138.5620 C   0  0  0  0  0  1  0  0  0  0  0  0
  182.1370  174.9530  138.4790 C   0  0  0  0  0  2  0  0  0  0  0  0
  179.2760  181.9360  135.4680 C   0  0  0  0  0  3  0  0  0  0  0  0
  180.0490  181.9710  136.6390 C   0  0  0  0  0  0  0  0  0  0  0  0
  180.8060  183.1240  136.9160 C   0  0  0  0  0  3  0  0  0  0  0  0
  181.5180  185.3190  136.3220 F   0  0  0  0  0  0  0  0  0  0  0  0
  180.0100  184.1660  134.8810 C   0  0  0  0  0  3  0  0  0  0  0  0
  180.7860  184.2160  136.0430 C   0  0  0  0  0  0  0  0  0  0  0  0
  179.2560  183.0270  134.5940 C   0  0  0  0  0  3  0  0  0  0  0  0
  2 13  1  1  0  0  0
  2  7  1  0  0  0  0
  4  6  1  6  0  0  0
  4  2  1  0  0  0  0
  7  3  1  6  0  0  0
  7 11  1  0  0  0  0
  8  5  1  6  0  0  0
  8 17  1  0  0  0  0
  9  1  1  1  0  0  0
  9 12  1  0  0  0  0
 10 13  1  0  0  0  0
 11 12  1  0  0  0  0
 14  5  1  6  0  0  0
 14  4  1  0  0  0  0
 14  8  1  0  0  0  0
 15  3  1  0  0  0  0
 15  9  1  0  0  0  0
 16  6  1  0  0  0  0
 16 18  2  0  0  0  0
 17  9  1  0  0  0  0
 18 10  1  0  0  0  0
 19 20  1  0  0  0  0
 20 30  1  0  0  0  0
 21 25  1  6  0  0  0
 21 23  1  0  0  0  0
 21 24  1  0  0  0  0
 22 20  2  0  0  0  0
 23 22  1  0  0  0  0
 24 26  1  0  0  0  0
 24 28  1  1  0  0  0
 26 19  1  6  0  0  0
 26 14  1  0  0  0  0
 28 27  1  0  0  0  0
 30 29  1  0  0  0  0
 31 32  1  0  0  0  0
 32 33  2  0  0  0  0
 32 16  1  0  0  0  0
 35 36  2  0  0  0  0
 36 34  1  0  0  0  0
 36 33  1  0  0  0  0
 37 35  1  0  0  0  0
 37 31  2  0  0  0  0
M  END
>  <MODEL>
6

>  <REMARK>
 VINA RESULT:      -2.9      3.611      7.309
  Name = 
  4 active torsions:
  status: ('A' for Active; 'I' for Inactive)
    1  A    between atoms: C_5  and  C_23
    2  A    between atoms: C_6  and  C_31
    3  A    between atoms: C_27  and  C_33
    4  A    between atoms: C_29  and  C_36
                            x       y       z     vdW  Elec       q    Type
                         _______ _______ _______ _____ _____    ______ ____

>  <TORSDO>
F 4

$$$$
