=
 OpenBabel11052414123D

 34 38  0  0  1  0  0  0  0  0999 V2000
  185.7030  177.8820  137.5570 C   0  0  0  0  0  0  0  0  0  0  0  0
  187.7620  176.4980  137.6620 C   0  0  0  0  0  3  0  0  0  0  0  0
  187.2070  178.0360  139.5400 N   0  0  0  0  0  0  0  0  0  0  0  0
  188.5900  178.5050  141.6320 C   0  0  2  0  0  3  0  0  0  0  0  0
  186.2540  176.3950  135.7300 C   0  0  0  0  0  3  0  0  0  0  0  0
  188.0760  174.7550  136.1050 O   0  0  0  0  0  1  0  0  0  0  0  0
  189.5420  177.7920  139.5450 O   0  0  0  0  0  0  0  0  0  0  0  0
  187.1150  177.7940  138.0880 C   0  0  0  0  0  0  0  0  0  0  0  0
  185.4330  177.3290  136.2220 C   0  0  0  0  0  2  0  0  0  0  0  0
  186.0780  178.5810  140.2580 C   0  0  0  0  0  0  0  0  0  0  0  0
  184.7410  178.3960  138.2590 N   0  0  0  0  0  0  0  0  0  0  0  0
  187.3970  175.8910  136.5250 C   0  0  0  0  0  0  0  0  0  0  0  0
  187.3320  178.2430  142.3260 N   0  0  0  0  0  2  0  0  0  0  0  0
  186.2620  179.0170  141.6980 C   0  0  2  0  0  3  0  0  0  0  0  0
  188.4920  178.0540  140.1940 C   0  0  0  0  0  0  0  0  0  0  0  0
  184.9240  178.8030  139.6180 C   0  0  0  0  0  3  0  0  0  0  0  0
  183.9520  178.7700  144.6950 C   0  0  0  0  0  0  0  0  0  0  0  0
  182.6970  178.6990  144.0850 C   0  0  0  0  0  3  0  0  0  0  0  0
  185.0100  178.9000  142.5180 C   0  0  0  0  0  0  0  0  0  0  0  0
  182.5950  178.7300  142.6910 C   0  0  0  0  0  3  0  0  0  0  0  0
  185.1070  178.8710  143.9140 C   0  0  0  0  0  3  0  0  0  0  0  0
  183.7480  178.8310  141.9080 C   0  0  0  0  0  3  0  0  0  0  0  0
  184.0500  178.7410  146.0470 F   0  0  0  0  0  0  0  0  0  0  0  0
  189.7140  177.7970  142.3730 C   0  0  0  0  0  2  0  0  0  0  0  0
  190.2080  178.6380  143.4500 N   0  0  0  0  0  2  0  0  0  0  0  0
  191.0140  177.7890  144.3050 C   0  0  0  0  0  2  0  0  0  0  0  0
  190.1430  176.7010  144.9030 C   0  0  0  0  0  2  0  0  0  0  0  0
  191.2620  177.1850  147.4180 F   0  0  0  0  0  0  0  0  0  0  0  0
  189.3510  177.2390  146.0530 C   0  0  0  0  0  0  0  0  0  0  0  0
  189.9300  177.4150  147.2620 C   0  0  0  0  0  0  0  0  0  0  0  0
  187.6660  177.8210  148.2980 C   0  0  0  0  0  2  0  0  0  0  0  0
  187.2260  178.2890  146.9210 C   0  0  0  0  0  2  0  0  0  0  0  0
  187.8630  177.3990  145.8590 C   0  0  0  0  0  2  0  0  0  0  0  0
  189.1760  177.9960  148.4320 C   0  0  0  0  0  2  0  0  0  0  0  0
  1  8  1  0  0  0  0
  1 11  2  0  0  0  0
  2  8  2  0  0  0  0
  3 15  1  0  0  0  0
  3 10  1  0  0  0  0
  4 13  1  0  0  0  0
  4 24  1  1  0  0  0
  5  9  1  0  0  0  0
  5 12  2  0  0  0  0
  6 12  1  0  0  0  0
  7 15  2  0  0  0  0
  8  3  1  0  0  0  0
  9  1  1  0  0  0  0
 10 14  1  0  0  0  0
 11 16  1  0  0  0  0
 12  2  1  0  0  0  0
 14 13  1  0  0  0  0
 14 19  1  1  0  0  0
 15  4  1  0  0  0  0
 16 10  2  0  0  0  0
 17 23  1  0  0  0  0
 18 17  1  0  0  0  0
 19 21  1  0  0  0  0
 20 18  2  0  0  0  0
 21 17  2  0  0  0  0
 22 19  2  0  0  0  0
 22 20  1  0  0  0  0
 24 25  1  0  0  0  0
 25 26  1  0  0  0  0
 26 27  1  0  0  0  0
 27 29  1  0  0  0  0
 29 30  2  0  0  0  0
 30 28  1  0  0  0  0
 30 34  1  0  0  0  0
 31 34  1  0  0  0  0
 32 31  1  0  0  0  0
 33 29  1  0  0  0  0
 33 32  1  0  0  0  0
M  END
>  <MODEL>
1

>  <REMARK>
 VINA RESULT:     -10.0      0.000      0.000
  Name = 
  6 active torsions:
  status: ('A' for Active; 'I' for Inactive)
    1  A    between atoms: C_3  and  C_13
    2  A    between atoms: C_3  and  C_17
    3  A    between atoms: C_5  and  C_18
    4  A    between atoms: C_12  and  C_28
    5  A    between atoms: C_17  and  N_29
    6  A    between atoms: C_18  and  N_29
                            x       y       z     vdW  Elec       q    Type
                         _______ _______ _______ _____ _____    ______ ____

>  <TORSDO>
F 6

$$$$
=
 OpenBabel11052414123D

 34 38  0  0  1  0  0  0  0  0999 V2000
  184.3750  177.9790  137.6730 C   0  0  0  0  0  0  0  0  0  0  0  0
  186.3860  176.5800  137.2720 C   0  0  0  0  0  3  0  0  0  0  0  0
  186.3130  178.1070  139.2370 N   0  0  0  0  0  0  0  0  0  0  0  0
  188.1630  178.5490  140.9380 C   0  0  2  0  0  3  0  0  0  0  0  0
  184.4560  176.5030  135.7590 C   0  0  0  0  0  3  0  0  0  0  0  0
  186.3000  174.8470  135.6740 O   0  0  0  0  0  1  0  0  0  0  0  0
  188.5780  177.8450  138.6790 O   0  0  0  0  0  0  0  0  0  0  0  0
  185.8720  177.8770  137.8490 C   0  0  0  0  0  0  0  0  0  0  0  0
  183.7860  177.4400  136.4400 C   0  0  0  0  0  2  0  0  0  0  0  0
  185.3950  178.6540  140.2100 C   0  0  0  0  0  0  0  0  0  0  0  0
  183.6150  178.4950  138.5900 N   0  0  0  0  0  0  0  0  0  0  0  0
  185.7530  175.9840  136.2520 C   0  0  0  0  0  0  0  0  0  0  0  0
  187.1060  178.2900  141.9130 N   0  0  0  0  0  2  0  0  0  0  0  0
  185.9230  179.0770  141.5650 C   0  0  2  0  0  3  0  0  0  0  0  0
  187.7180  178.1100  139.5630 C   0  0  0  0  0  0  0  0  0  0  0  0
  184.1230  178.8890  139.8680 C   0  0  0  0  0  3  0  0  0  0  0  0
  184.4030  178.7850  145.0270 C   0  0  0  0  0  0  0  0  0  0  0  0
  183.0360  178.7650  144.7380 C   0  0  0  0  0  3  0  0  0  0  0  0
  184.9050  178.9630  142.6620 C   0  0  0  0  0  0  0  0  0  0  0  0
  182.5990  178.8450  143.4130 C   0  0  0  0  0  3  0  0  0  0  0  0
  185.3360  178.8850  143.9910 C   0  0  0  0  0  3  0  0  0  0  0  0
  183.5310  178.9440  142.3760 C   0  0  0  0  0  3  0  0  0  0  0  0
  184.8240  178.7090  146.3130 F   0  0  0  0  0  0  0  0  0  0  0  0
  189.4260  177.8260  141.3830 C   0  0  0  0  0  2  0  0  0  0  0  0
  189.0820  176.5560  141.9990 N   0  0  0  0  0  2  0  0  0  0  0  0
  190.1350  176.2560  142.9500 C   0  0  0  0  0  2  0  0  0  0  0  0
  190.4920  177.5130  143.7220 C   0  0  0  0  0  2  0  0  0  0  0  0
  192.0220  176.7850  145.9440 F   0  0  0  0  0  0  0  0  0  0  0  0
  189.9310  177.4520  145.1080 C   0  0  0  0  0  0  0  0  0  0  0  0
  190.7030  177.0510  146.1430 C   0  0  0  0  0  0  0  0  0  0  0  0
  188.6650  176.9180  147.6230 C   0  0  0  0  0  2  0  0  0  0  0  0
  188.0510  177.9680  146.7110 C   0  0  0  0  0  2  0  0  0  0  0  0
  188.4470  177.6740  145.2680 C   0  0  0  0  0  2  0  0  0  0  0  0
  190.1860  177.0200  147.5590 C   0  0  0  0  0  2  0  0  0  0  0  0
  1  8  1  0  0  0  0
  1 11  2  0  0  0  0
  2  8  2  0  0  0  0
  3 15  1  0  0  0  0
  3 10  1  0  0  0  0
  4 24  1  1  0  0  0
  4 13  1  0  0  0  0
  5 12  2  0  0  0  0
  5  9  1  0  0  0  0
  6 12  1  0  0  0  0
  7 15  2  0  0  0  0
  8  3  1  0  0  0  0
  9  1  1  0  0  0  0
 10 14  1  0  0  0  0
 11 16  1  0  0  0  0
 12  2  1  0  0  0  0
 14 13  1  0  0  0  0
 14 19  1  1  0  0  0
 15  4  1  0  0  0  0
 16 10  2  0  0  0  0
 17 23  1  0  0  0  0
 18 17  1  0  0  0  0
 19 21  1  0  0  0  0
 20 18  2  0  0  0  0
 21 17  2  0  0  0  0
 22 19  2  0  0  0  0
 22 20  1  0  0  0  0
 24 25  1  0  0  0  0
 25 26  1  0  0  0  0
 26 27  1  0  0  0  0
 27 29  1  0  0  0  0
 28 30  1  0  0  0  0
 29 33  1  0  0  0  0
 29 30  2  0  0  0  0
 30 34  1  0  0  0  0
 32 31  1  0  0  0  0
 33 32  1  0  0  0  0
 34 31  1  0  0  0  0
M  END
>  <MODEL>
2

>  <REMARK>
 VINA RESULT:      -9.7      1.113      1.282
  Name = 
  6 active torsions:
  status: ('A' for Active; 'I' for Inactive)
    1  A    between atoms: C_3  and  C_13
    2  A    between atoms: C_3  and  C_17
    3  A    between atoms: C_5  and  C_18
    4  A    between atoms: C_12  and  C_28
    5  A    between atoms: C_17  and  N_29
    6  A    between atoms: C_18  and  N_29
                            x       y       z     vdW  Elec       q    Type
                         _______ _______ _______ _____ _____    ______ ____

>  <TORSDO>
F 6

$$$$
=
 OpenBabel11052414123D

 34 38  0  0  1  0  0  0  0  0999 V2000
  188.0500  177.0870  136.8550 C   0  0  0  0  0  0  0  0  0  0  0  0
  189.7840  175.4190  137.4650 C   0  0  0  0  0  3  0  0  0  0  0  0
  189.0720  177.1290  139.1290 N   0  0  0  0  0  0  0  0  0  0  0  0
  190.0040  177.5050  141.4740 C   0  0  2  0  0  3  0  0  0  0  0  0
  188.7540  175.4320  135.2380 C   0  0  0  0  0  3  0  0  0  0  0  0
  190.1590  173.5610  136.0610 O   0  0  0  0  0  1  0  0  0  0  0  0
  191.2760  176.5370  139.6810 O   0  0  0  0  0  0  0  0  0  0  0  0
  189.2730  176.8190  137.7010 C   0  0  0  0  0  0  0  0  0  0  0  0
  188.0030  176.5060  135.5070 C   0  0  0  0  0  2  0  0  0  0  0  0
  187.9120  177.8780  139.5540 C   0  0  0  0  0  0  0  0  0  0  0  0
  187.0490  177.7800  137.3040 N   0  0  0  0  0  0  0  0  0  0  0  0
  189.5930  174.8080  136.2880 C   0  0  0  0  0  0  0  0  0  0  0  0
  188.5970  177.4750  141.8630 N   0  0  0  0  0  2  0  0  0  0  0  0
  187.8330  178.3640  140.9870 C   0  0  2  0  0  3  0  0  0  0  0  0
  190.1630  176.9910  140.0630 C   0  0  0  0  0  0  0  0  0  0  0  0
  186.9830  178.2330  138.6600 C   0  0  0  0  0  3  0  0  0  0  0  0
  184.8660  178.3620  143.3480 C   0  0  0  0  0  0  0  0  0  0  0  0
  183.8190  178.7130  142.4920 C   0  0  0  0  0  3  0  0  0  0  0  0
  186.4270  178.4830  141.4970 C   0  0  0  0  0  0  0  0  0  0  0  0
  184.0720  178.9510  141.1380 C   0  0  0  0  0  3  0  0  0  0  0  0
  186.1680  178.2480  142.8520 C   0  0  0  0  0  3  0  0  0  0  0  0
  185.3730  178.8370  140.6410 C   0  0  0  0  0  3  0  0  0  0  0  0
  184.6190  178.1330  144.6600 F   0  0  0  0  0  0  0  0  0  0  0  0
  190.8040  176.6790  142.4710 C   0  0  0  0  0  2  0  0  0  0  0  0
  191.8750  177.4830  143.0360 N   0  0  0  0  0  2  0  0  0  0  0  0
  191.3590  178.0600  144.2630 C   0  0  0  0  0  2  0  0  0  0  0  0
  191.0900  176.9550  145.2670 C   0  0  0  0  0  2  0  0  0  0  0  0
  191.2450  177.2340  148.0430 F   0  0  0  0  0  0  0  0  0  0  0  0
  189.9060  177.2970  146.1150 C   0  0  0  0  0  0  0  0  0  0  0  0
  190.0250  177.3780  147.4590 C   0  0  0  0  0  0  0  0  0  0  0  0
  187.5150  177.4910  147.6840 C   0  0  0  0  0  2  0  0  0  0  0  0
  187.5110  178.0770  146.2820 C   0  0  0  0  0  2  0  0  0  0  0  0
  188.5600  177.3640  145.4350 C   0  0  0  0  0  2  0  0  0  0  0  0
  188.8640  177.7630  148.3420 C   0  0  0  0  0  2  0  0  0  0  0  0
  1 11  2  0  0  0  0
  1  8  1  0  0  0  0
  2  8  2  0  0  0  0
  3 10  1  0  0  0  0
  3 15  1  0  0  0  0
  4 13  1  0  0  0  0
  4 24  1  1  0  0  0
  5  9  1  0  0  0  0
  5 12  2  0  0  0  0
  6 12  1  0  0  0  0
  7 15  2  0  0  0  0
  8  3  1  0  0  0  0
  9  1  1  0  0  0  0
 10 14  1  0  0  0  0
 11 16  1  0  0  0  0
 12  2  1  0  0  0  0
 14 19  1  1  0  0  0
 14 13  1  0  0  0  0
 15  4  1  0  0  0  0
 16 10  2  0  0  0  0
 17 23  1  0  0  0  0
 18 17  2  0  0  0  0
 19 21  2  0  0  0  0
 20 18  1  0  0  0  0
 21 17  1  0  0  0  0
 22 20  2  0  0  0  0
 22 19  1  0  0  0  0
 24 25  1  0  0  0  0
 25 26  1  0  0  0  0
 26 27  1  0  0  0  0
 27 29  1  0  0  0  0
 29 30  2  0  0  0  0
 30 28  1  0  0  0  0
 30 34  1  0  0  0  0
 31 34  1  0  0  0  0
 32 31  1  0  0  0  0
 33 29  1  0  0  0  0
 33 32  1  0  0  0  0
M  END
>  <MODEL>
3

>  <REMARK>
 VINA RESULT:      -9.6      1.412      1.860
  Name = 
  6 active torsions:
  status: ('A' for Active; 'I' for Inactive)
    1  A    between atoms: C_3  and  C_13
    2  A    between atoms: C_3  and  C_17
    3  A    between atoms: C_5  and  C_18
    4  A    between atoms: C_12  and  C_28
    5  A    between atoms: C_17  and  N_29
    6  A    between atoms: C_18  and  N_29
                            x       y       z     vdW  Elec       q    Type
                         _______ _______ _______ _____ _____    ______ ____

>  <TORSDO>
F 6

$$$$
=
 OpenBabel11052414123D

 34 38  0  0  1  0  0  0  0  0999 V2000
  181.3100  178.6510  142.2190 C   0  0  0  0  0  0  0  0  0  0  0  0
  181.9390  177.5670  140.0770 C   0  0  0  0  0  3  0  0  0  0  0  0
  183.6890  178.6560  141.4740 N   0  0  0  0  0  0  0  0  0  0  0  0
  186.1680  178.9300  140.9340 C   0  0  2  0  0  3  0  0  0  0  0  0
  179.6120  177.6030  140.8520 C   0  0  0  0  0  3  0  0  0  0  0  0
  180.3800  176.1890  138.9660 O   0  0  0  0  0  1  0  0  0  0  0  0
  184.4590  178.7370  139.2570 O   0  0  0  0  0  0  0  0  0  0  0  0
  182.2750  178.6650  141.0570 C   0  0  2  0  0  3  0  0  0  0  0  0
  179.9060  178.3130  141.9470 C   0  0  0  0  0  3  0  0  0  0  0  0
  184.0420  178.9040  142.8530 C   0  0  0  0  0  0  0  0  0  0  0  0
  181.7010  178.8950  143.4320 N   0  0  0  0  0  0  0  0  0  0  0  0
  180.6810  177.1280  139.9430 C   0  0  0  0  0  0  0  0  0  0  0  0
  186.3550  178.3780  142.2730 N   0  0  0  0  0  2  0  0  0  0  0  0
  185.5000  179.0970  143.2170 C   0  0  2  0  0  3  0  0  0  0  0  0
  184.7390  178.7330  140.4870 C   0  0  0  0  0  0  0  0  0  0  0  0
  183.0800  179.0750  143.7660 C   0  0  0  0  0  3  0  0  0  0  0  0
  187.2970  177.4950  146.1470 C   0  0  0  0  0  0  0  0  0  0  0  0
  186.4750  177.8540  147.2180 C   0  0  0  0  0  3  0  0  0  0  0  0
  185.8240  178.6660  144.6170 C   0  0  0  0  0  0  0  0  0  0  0  0
  185.3270  178.6190  146.9930 C   0  0  0  0  0  3  0  0  0  0  0  0
  186.9730  177.9000  144.8480 C   0  0  0  0  0  3  0  0  0  0  0  0
  185.0020  179.0260  145.6960 C   0  0  0  0  0  3  0  0  0  0  0  0
  188.4100  176.7530  146.3660 F   0  0  0  0  0  0  0  0  0  0  0  0
  187.1550  178.2620  139.9880 C   0  0  0  0  0  2  0  0  0  0  0  0
  188.4560  178.8980  140.0960 N   0  0  0  0  0  2  0  0  0  0  0  0
  189.4280  177.8340  140.2560 C   0  0  0  0  0  2  0  0  0  0  0  0
  189.0290  176.9570  141.4280 C   0  0  0  0  0  2  0  0  0  0  0  0
  190.2580  174.8920  142.8540 F   0  0  0  0  0  0  0  0  0  0  0  0
  189.9320  177.2030  142.5950 C   0  0  0  0  0  0  0  0  0  0  0  0
  190.4670  176.1670  143.2790 C   0  0  0  0  0  0  0  0  0  0  0  0
  191.2550  177.7490  145.0780 C   0  0  0  0  0  2  0  0  0  0  0  0
  191.2710  178.8190  143.9990 C   0  0  0  0  0  2  0  0  0  0  0  0
  190.0680  178.6260  143.0820 C   0  0  0  0  0  2  0  0  0  0  0  0
  191.4160  176.3770  144.4330 C   0  0  0  0  0  2  0  0  0  0  0  0
  1 11  2  0  0  0  0
  3 10  1  0  0  0  0
  4 24  1  6  0  0  0
  4 13  1  0  0  0  0
  5  9  2  0  0  0  0
  6 12  1  0  0  0  0
  7 15  2  0  0  0  0
  8  2  1  6  0  0  0
  8  3  1  0  0  0  0
  8  1  1  0  0  0  0
  9  1  1  0  0  0  0
 10 14  1  0  0  0  0
 10 16  2  0  0  0  0
 11 16  1  0  0  0  0
 12  2  2  0  0  0  0
 12  5  1  0  0  0  0
 13 14  1  0  0  0  0
 14 19  1  1  0  0  0
 15  4  1  0  0  0  0
 15  3  1  0  0  0  0
 17 23  1  0  0  0  0
 17 18  1  0  0  0  0
 19 21  1  0  0  0  0
 19 22  2  0  0  0  0
 20 18  2  0  0  0  0
 21 17  2  0  0  0  0
 22 20  1  0  0  0  0
 24 25  1  0  0  0  0
 25 26  1  0  0  0  0
 26 27  1  0  0  0  0
 27 29  1  0  0  0  0
 28 30  1  0  0  0  0
 29 33  1  0  0  0  0
 29 30  2  0  0  0  0
 30 34  1  0  0  0  0
 32 31  1  0  0  0  0
 33 32  1  0  0  0  0
 34 31  1  0  0  0  0
M  END
>  <MODEL>
4

>  <REMARK>
 VINA RESULT:      -9.6      2.744      4.950
  Name = 
  6 active torsions:
  status: ('A' for Active; 'I' for Inactive)
    1  A    between atoms: C_3  and  C_13
    2  A    between atoms: C_3  and  C_17
    3  A    between atoms: C_5  and  C_18
    4  A    between atoms: C_12  and  C_28
    5  A    between atoms: C_17  and  N_29
    6  A    between atoms: C_18  and  N_29
                            x       y       z     vdW  Elec       q    Type
                         _______ _______ _______ _____ _____    ______ ____

>  <TORSDO>
F 6

$$$$
=
 OpenBabel11052414123D

 34 38  0  0  1  0  0  0  0  0999 V2000
  187.8880  178.2730  137.7550 C   0  0  0  0  0  0  0  0  0  0  0  0
  189.0420  177.3430  139.7470 C   0  0  0  0  0  3  0  0  0  0  0  0
  186.8190  178.4360  140.0020 N   0  0  0  0  0  0  0  0  0  0  0  0
  185.5310  178.8610  142.1630 C   0  0  2  0  0  3  0  0  0  0  0  0
  190.0530  177.2210  137.5140 C   0  0  0  0  0  3  0  0  0  0  0  0
  190.9270  175.9540  139.4590 O   0  0  0  0  0  1  0  0  0  0  0  0
  187.9230  178.6790  142.0600 O   0  0  0  0  0  0  0  0  0  0  0  0
  188.0860  178.3990  139.2480 C   0  0  0  0  0  0  0  0  0  0  0  0
  189.0430  177.8820  136.9360 C   0  0  0  0  0  2  0  0  0  0  0  0
  185.5660  178.6230  139.3090 C   0  0  0  0  0  0  0  0  0  0  0  0
  186.7300  178.4670  137.2030 N   0  0  0  0  0  0  0  0  0  0  0  0
  189.9980  176.8500  138.9480 C   0  0  0  0  0  0  0  0  0  0  0  0
  184.4250  178.2440  141.4350 N   0  0  0  0  0  2  0  0  0  0  0  0
  184.3070  178.8670  140.1160 C   0  0  2  0  0  3  0  0  0  0  0  0
  186.8300  178.6200  141.4330 C   0  0  0  0  0  0  0  0  0  0  0  0
  185.5470  178.6950  137.9740 C   0  0  0  0  0  3  0  0  0  0  0  0
  181.5770  176.5360  138.8920 C   0  0  0  0  0  0  0  0  0  0  0  0
  180.7390  177.4150  138.2010 C   0  0  0  0  0  3  0  0  0  0  0  0
  183.0620  178.3730  139.4380 C   0  0  0  0  0  0  0  0  0  0  0  0
  181.0580  178.7740  138.1280 C   0  0  0  0  0  3  0  0  0  0  0  0
  182.7360  177.0140  139.5100 C   0  0  0  0  0  3  0  0  0  0  0  0
  182.2160  179.2530  138.7450 C   0  0  0  0  0  3  0  0  0  0  0  0
  181.2660  175.2190  138.9630 F   0  0  0  0  0  0  0  0  0  0  0  0
  185.5600  178.2960  143.5760 C   0  0  0  0  0  2  0  0  0  0  0  0
  185.1180  179.3050  144.5240 N   0  0  0  0  0  2  0  0  0  0  0  0
  185.7250  178.9710  145.7990 C   0  0  0  0  0  2  0  0  0  0  0  0
  186.3170  177.5760  145.7270 C   0  0  0  0  0  2  0  0  0  0  0  0
  188.5860  176.7980  144.2930 F   0  0  0  0  0  0  0  0  0  0  0  0
  187.6880  177.5600  146.3260 C   0  0  0  0  0  0  0  0  0  0  0  0
  188.7470  177.1330  145.6020 C   0  0  0  0  0  0  0  0  0  0  0  0
  190.1750  177.1190  147.6820 C   0  0  0  0  0  2  0  0  0  0  0  0
  189.2360  178.1870  148.2180 C   0  0  0  0  0  2  0  0  0  0  0  0
  187.8070  177.8580  147.8000 C   0  0  0  0  0  2  0  0  0  0  0  0
  190.1500  177.1440  146.1570 C   0  0  0  0  0  2  0  0  0  0  0  0
  1  8  1  0  0  0  0
  3 15  1  0  0  0  0
  4 24  1  1  0  0  0
  5 12  2  0  0  0  0
  8  2  2  0  0  0  0
  8  3  1  0  0  0  0
  9  5  1  0  0  0  0
  9  1  1  0  0  0  0
 10  3  1  0  0  0  0
 10 14  1  0  0  0  0
 11  1  2  0  0  0  0
 11 16  1  0  0  0  0
 12  6  1  0  0  0  0
 12  2  1  0  0  0  0
 13  4  1  0  0  0  0
 14 19  1  6  0  0  0
 14 13  1  0  0  0  0
 15  7  2  0  0  0  0
 15  4  1  0  0  0  0
 16 10  2  0  0  0  0
 17 23  1  0  0  0  0
 17 21  1  0  0  0  0
 18 17  2  0  0  0  0
 19 21  2  0  0  0  0
 20 18  1  0  0  0  0
 20 22  2  0  0  0  0
 22 19  1  0  0  0  0
 24 25  1  0  0  0  0
 25 26  1  0  0  0  0
 27 26  1  0  0  0  0
 27 29  1  0  0  0  0
 28 30  1  0  0  0  0
 29 33  1  0  0  0  0
 30 34  1  0  0  0  0
 30 29  2  0  0  0  0
 31 32  1  0  0  0  0
 33 32  1  0  0  0  0
 34 31  1  0  0  0  0
M  END
>  <MODEL>
5

>  <REMARK>
 VINA RESULT:      -9.4      2.624      3.854
  Name = 
  6 active torsions:
  status: ('A' for Active; 'I' for Inactive)
    1  A    between atoms: C_3  and  C_13
    2  A    between atoms: C_3  and  C_17
    3  A    between atoms: C_5  and  C_18
    4  A    between atoms: C_12  and  C_28
    5  A    between atoms: C_17  and  N_29
    6  A    between atoms: C_18  and  N_29
                            x       y       z     vdW  Elec       q    Type
                         _______ _______ _______ _____ _____    ______ ____

>  <TORSDO>
F 6

$$$$
=
 OpenBabel11052414123D

 34 38  0  0  1  0  0  0  0  0999 V2000
  189.5390  176.7710  141.3900 C   0  0  0  0  0  0  0  0  0  0  0  0
  188.2020  178.4860  140.1930 C   0  0  0  0  0  3  0  0  0  0  0  0
  187.4620  177.6800  142.4290 N   0  0  0  0  0  0  0  0  0  0  0  0
  185.3410  178.3200  143.6940 C   0  0  2  0  0  3  0  0  0  0  0  0
  190.2460  177.5490  139.2120 C   0  0  0  0  0  3  0  0  0  0  0  0
  189.1030  179.5470  138.2890 O   0  0  0  0  0  1  0  0  0  0  0  0
  185.5270  178.3830  141.3010 O   0  0  0  0  0  0  0  0  0  0  0  0
  188.1560  177.3390  141.1730 C   0  0  0  0  0  0  0  0  0  0  0  0
  190.4510  176.7180  140.2400 C   0  0  0  0  0  2  0  0  0  0  0  0
  187.9860  177.2230  143.6960 C   0  0  0  0  0  0  0  0  0  0  0  0
  189.9360  176.3700  142.5590 N   0  0  0  0  0  0  0  0  0  0  0  0
  189.1420  178.5360  139.2400 C   0  0  0  0  0  0  0  0  0  0  0  0
  186.2660  178.5570  144.8000 N   0  0  0  0  0  2  0  0  0  0  0  0
  187.1510  177.4020  144.9470 C   0  0  2  0  0  3  0  0  0  0  0  0
  186.1060  178.1710  142.4020 C   0  0  0  0  0  0  0  0  0  0  0  0
  189.1400  176.5470  143.7350 C   0  0  0  0  0  3  0  0  0  0  0  0
  190.0970  177.2900  147.3330 C   0  0  0  0  0  0  0  0  0  0  0  0
  189.5480  177.8440  148.4920 C   0  0  0  0  0  3  0  0  0  0  0  0
  187.9740  177.5570  146.1930 C   0  0  0  0  0  0  0  0  0  0  0  0
  188.2130  178.2560  148.5060 C   0  0  0  0  0  3  0  0  0  0  0  0
  189.3120  177.1470  146.1850 C   0  0  0  0  0  3  0  0  0  0  0  0
  187.4260  178.1140  147.3590 C   0  0  0  0  0  3  0  0  0  0  0  0
  191.3920  176.8910  147.3210 F   0  0  0  0  0  0  0  0  0  0  0  0
  184.3450  179.4680  143.6350 C   0  0  0  0  0  2  0  0  0  0  0  0
  183.3550  179.3230  144.6890 N   0  0  0  0  0  2  0  0  0  0  0  0
  182.2460  178.5830  144.1190 C   0  0  0  0  0  2  0  0  0  0  0  0
  181.5480  179.4390  143.0790 C   0  0  0  0  0  2  0  0  0  0  0  0
  178.9320  178.4660  142.9380 F   0  0  0  0  0  0  0  0  0  0  0  0
  181.0580  178.5900  141.9480 C   0  0  0  0  0  0  0  0  0  0  0  0
  179.7950  178.1090  141.9480 C   0  0  0  0  0  0  0  0  0  0  0  0
  180.3560  176.6090  139.9990 C   0  0  0  0  0  2  0  0  0  0  0  0
  181.4200  177.6330  139.6410 C   0  0  0  0  0  2  0  0  0  0  0  0
  182.0710  178.1520  140.9190 C   0  0  0  0  0  2  0  0  0  0  0  0
  179.2530  177.2880  140.8050 C   0  0  0  0  0  2  0  0  0  0  0  0
  1 11  2  0  0  0  0
  2  8  2  0  0  0  0
  3 10  1  0  0  0  0
  4 24  1  6  0  0  0
  4 13  1  0  0  0  0
  5 12  2  0  0  0  0
  5  9  1  0  0  0  0
  6 12  1  0  0  0  0
  7 15  2  0  0  0  0
  8  1  1  0  0  0  0
  8  3  1  0  0  0  0
  9  1  1  0  0  0  0
 10 16  2  0  0  0  0
 10 14  1  0  0  0  0
 11 16  1  0  0  0  0
 12  2  1  0  0  0  0
 13 14  1  0  0  0  0
 14 19  1  1  0  0  0
 15  3  1  0  0  0  0
 15  4  1  0  0  0  0
 17 18  1  0  0  0  0
 18 20  2  0  0  0  0
 19 22  2  0  0  0  0
 21 19  1  0  0  0  0
 21 17  2  0  0  0  0
 22 20  1  0  0  0  0
 23 17  1  0  0  0  0
 24 25  1  0  0  0  0
 26 25  1  0  0  0  0
 27 26  1  0  0  0  0
 29 27  1  0  0  0  0
 30 29  2  0  0  0  0
 30 28  1  0  0  0  0
 31 34  1  0  0  0  0
 32 31  1  0  0  0  0
 32 33  1  0  0  0  0
 33 29  1  0  0  0  0
 34 30  1  0  0  0  0
M  END
>  <MODEL>
6

>  <REMARK>
 VINA RESULT:      -9.2      2.673      7.168
  Name = 
  6 active torsions:
  status: ('A' for Active; 'I' for Inactive)
    1  A    between atoms: C_3  and  C_13
    2  A    between atoms: C_3  and  C_17
    3  A    between atoms: C_5  and  C_18
    4  A    between atoms: C_12  and  C_28
    5  A    between atoms: C_17  and  N_29
    6  A    between atoms: C_18  and  N_29
                            x       y       z     vdW  Elec       q    Type
                         _______ _______ _______ _____ _____    ______ ____

>  <TORSDO>
F 6

$$$$
=
 OpenBabel11052414123D

 34 38  0  0  1  0  0  0  0  0999 V2000
  181.1160  178.4550  141.8670 C   0  0  0  0  0  0  0  0  0  0  0  0
  181.8690  177.3760  139.7620 C   0  0  0  0  0  3  0  0  0  0  0  0
  183.5220  178.5360  141.2180 N   0  0  0  0  0  0  0  0  0  0  0  0
  186.0100  178.8930  140.7760 C   0  0  2  0  0  3  0  0  0  0  0  0
  179.5120  177.3370  140.4430 C   0  0  0  0  0  3  0  0  0  0  0  0
  180.4050  175.9350  138.6020 O   0  0  0  0  0  1  0  0  0  0  0  0
  184.3780  178.6270  139.0330 O   0  0  0  0  0  0  0  0  0  0  0  0
  182.1270  178.4930  140.7440 C   0  0  2  0  0  3  0  0  0  0  0  0
  179.7380  178.0650  141.5420 C   0  0  0  0  0  3  0  0  0  0  0  0
  183.8100  178.8070  142.6080 C   0  0  0  0  0  0  0  0  0  0  0  0
  181.4490  178.7210  143.0930 N   0  0  0  0  0  0  0  0  0  0  0  0
  180.6330  176.8920  139.5820 C   0  0  0  0  0  0  0  0  0  0  0  0
  186.1610  178.3580  142.1260 N   0  0  0  0  0  2  0  0  0  0  0  0
  185.2440  179.0550  143.0280 C   0  0  2  0  0  3  0  0  0  0  0  0
  184.6080  178.6430  140.2740 C   0  0  0  0  0  0  0  0  0  0  0  0
  182.8070  178.9520  143.4800 C   0  0  0  0  0  3  0  0  0  0  0  0
  186.9610  177.5140  146.0390 C   0  0  0  0  0  0  0  0  0  0  0  0
  186.0990  177.8770  147.0770 C   0  0  0  0  0  3  0  0  0  0  0  0
  185.5270  178.6460  144.4450 C   0  0  0  0  0  0  0  0  0  0  0  0
  184.9500  178.6240  146.8030 C   0  0  0  0  0  3  0  0  0  0  0  0
  186.6770  177.8990  144.7250 C   0  0  0  0  0  3  0  0  0  0  0  0
  184.6640  179.0090  145.4900 C   0  0  0  0  0  3  0  0  0  0  0  0
  188.0750  176.7910  146.3060 F   0  0  0  0  0  0  0  0  0  0  0  0
  187.0570  178.2520  139.8760 C   0  0  0  0  0  2  0  0  0  0  0  0
  188.3870  178.6680  140.2870 N   0  0  0  0  0  2  0  0  0  0  0  0
  189.3100  178.1470  139.2970 C   0  0  0  0  0  2  0  0  0  0  0  0
  189.8900  176.8340  139.7870 C   0  0  0  0  0  2  0  0  0  0  0  0
  192.3840  177.8780  140.4920 F   0  0  0  0  0  0  0  0  0  0  0  0
  190.3440  176.9610  141.2070 C   0  0  0  0  0  0  0  0  0  0  0  0
  191.5780  177.4320  141.4930 C   0  0  0  0  0  0  0  0  0  0  0  0
  191.2990  176.7320  143.9000 C   0  0  0  0  0  2  0  0  0  0  0  0
  189.8040  176.8850  143.6720 C   0  0  0  0  0  2  0  0  0  0  0  0
  189.4530  176.3780  142.2770 C   0  0  0  0  0  2  0  0  0  0  0  0
  192.0540  177.6160  142.9130 C   0  0  0  0  0  2  0  0  0  0  0  0
  1 11  2  0  0  0  0
  3 10  1  0  0  0  0
  4 24  1  6  0  0  0
  4 13  1  0  0  0  0
  5  9  2  0  0  0  0
  6 12  1  0  0  0  0
  7 15  2  0  0  0  0
  8  2  1  6  0  0  0
  8  3  1  0  0  0  0
  8  1  1  0  0  0  0
  9  1  1  0  0  0  0
 10 14  1  0  0  0  0
 10 16  2  0  0  0  0
 11 16  1  0  0  0  0
 12  2  2  0  0  0  0
 12  5  1  0  0  0  0
 13 14  1  0  0  0  0
 14 19  1  1  0  0  0
 15  4  1  0  0  0  0
 15  3  1  0  0  0  0
 17 23  1  0  0  0  0
 17 18  1  0  0  0  0
 19 21  1  0  0  0  0
 19 22  2  0  0  0  0
 20 18  2  0  0  0  0
 21 17  2  0  0  0  0
 22 20  1  0  0  0  0
 24 25  1  0  0  0  0
 26 27  1  0  0  0  0
 26 25  1  0  0  0  0
 27 29  1  0  0  0  0
 28 30  1  0  0  0  0
 29 30  2  0  0  0  0
 29 33  1  0  0  0  0
 30 34  1  0  0  0  0
 32 31  1  0  0  0  0
 33 32  1  0  0  0  0
 34 31  1  0  0  0  0
M  END
>  <MODEL>
7

>  <REMARK>
 VINA RESULT:      -8.9      2.971      5.140
  Name = 
  6 active torsions:
  status: ('A' for Active; 'I' for Inactive)
    1  A    between atoms: C_3  and  C_13
    2  A    between atoms: C_3  and  C_17
    3  A    between atoms: C_5  and  C_18
    4  A    between atoms: C_12  and  C_28
    5  A    between atoms: C_17  and  N_29
    6  A    between atoms: C_18  and  N_29
                            x       y       z     vdW  Elec       q    Type
                         _______ _______ _______ _____ _____    ______ ____

>  <TORSDO>
F 6

$$$$
=
 OpenBabel11052414123D

 34 38  0  0  1  0  0  0  0  0999 V2000
  191.0690  177.6830  142.8170 C   0  0  0  0  0  0  0  0  0  0  0  0
  188.7240  177.6980  143.6320 C   0  0  0  0  0  3  0  0  0  0  0  0
  189.1890  177.8920  141.1930 N   0  0  0  0  0  0  0  0  0  0  0  0
  187.5040  178.2360  139.3080 C   0  0  2  0  0  3  0  0  0  0  0  0
  190.6130  177.5080  145.1860 C   0  0  0  0  0  3  0  0  0  0  0  0
  188.2630  177.1030  145.8670 O   0  0  0  0  0  1  0  0  0  0  0  0
  187.1310  178.9590  141.5680 O   0  0  0  0  0  0  0  0  0  0  0  0
  189.6670  178.1830  142.5570 C   0  0  2  0  0  3  0  0  0  0  0  0
  191.5240  177.5990  144.2110 C   0  0  0  0  0  3  0  0  0  0  0  0
  190.1130  177.4400  140.1800 C   0  0  0  0  0  0  0  0  0  0  0  0
  191.8470  177.3030  141.8510 N   0  0  0  0  0  0  0  0  0  0  0  0
  189.1660  177.4510  144.8720 C   0  0  0  0  0  0  0  0  0  0  0  0
  188.2030  177.1080  138.6960 N   0  0  0  0  0  2  0  0  0  0  0  0
  189.6450  177.3500  138.7420 C   0  0  2  0  0  3  0  0  0  0  0  0
  187.8940  178.3600  140.7610 C   0  0  0  0  0  0  0  0  0  0  0  0
  191.3940  177.2200  140.4970 C   0  0  0  0  0  3  0  0  0  0  0  0
  190.3360  174.0970  136.9190 C   0  0  0  0  0  0  0  0  0  0  0  0
  191.6410  174.2960  136.4620 C   0  0  0  0  0  3  0  0  0  0  0  0
  190.3560  176.2910  137.9510 C   0  0  0  0  0  0  0  0  0  0  0  0
  192.3070  175.4920  136.7470 C   0  0  0  0  0  3  0  0  0  0  0  0
  189.6930  175.0930  137.6610 C   0  0  0  0  0  3  0  0  0  0  0  0
  191.6660  176.4880  137.4890 C   0  0  0  0  0  3  0  0  0  0  0  0
  189.6920  172.9380  136.6410 F   0  0  0  0  0  0  0  0  0  0  0  0
  186.0060  178.0320  139.1380 C   0  0  0  0  0  2  0  0  0  0  0  0
  185.3780  179.2780  138.7300 N   0  0  0  0  0  2  0  0  0  0  0  0
  184.1370  179.3810  139.4740 C   0  0  0  0  0  2  0  0  0  0  0  0
  184.0300  178.2190  140.4430 C   0  0  0  0  0  2  0  0  0  0  0  0
  184.8620  178.4760  143.0990 F   0  0  0  0  0  0  0  0  0  0  0  0
  183.0910  178.5530  141.5590 C   0  0  0  0  0  0  0  0  0  0  0  0
  183.5360  178.6230  142.8330 C   0  0  0  0  0  0  0  0  0  0  0  0
  181.1580  178.7320  143.6680 C   0  0  0  0  0  2  0  0  0  0  0  0
  180.8110  179.3290  142.3150 C   0  0  0  0  0  2  0  0  0  0  0  0
  181.6190  178.6240  141.2310 C   0  0  0  0  0  2  0  0  0  0  0  0
  182.6280  179.0000  143.9770 C   0  0  0  0  0  2  0  0  0  0  0  0
  1  9  1  0  0  0  0
  2 12  2  0  0  0  0
  3  8  1  0  0  0  0
  4 24  1  1  0  0  0
  4 15  1  0  0  0  0
  8  1  1  0  0  0  0
  8  2  1  1  0  0  0
  9  5  2  0  0  0  0
 10 16  2  0  0  0  0
 10  3  1  0  0  0  0
 11  1  2  0  0  0  0
 12  5  1  0  0  0  0
 12  6  1  0  0  0  0
 13 14  1  0  0  0  0
 13  4  1  0  0  0  0
 14 19  1  1  0  0  0
 14 10  1  0  0  0  0
 15  3  1  0  0  0  0
 15  7  2  0  0  0  0
 16 11  1  0  0  0  0
 17 21  1  0  0  0  0
 18 20  1  0  0  0  0
 18 17  2  0  0  0  0
 20 22  2  0  0  0  0
 21 19  2  0  0  0  0
 22 19  1  0  0  0  0
 23 17  1  0  0  0  0
 25 24  1  0  0  0  0
 25 26  1  0  0  0  0
 26 27  1  0  0  0  0
 27 29  1  0  0  0  0
 29 30  2  0  0  0  0
 30 28  1  0  0  0  0
 30 34  1  0  0  0  0
 31 34  1  0  0  0  0
 32 31  1  0  0  0  0
 33 29  1  0  0  0  0
 33 32  1  0  0  0  0
M  END
>  <MODEL>
8

>  <REMARK>
 VINA RESULT:      -8.8      3.149      7.920
  Name = 
  6 active torsions:
  status: ('A' for Active; 'I' for Inactive)
    1  A    between atoms: C_3  and  C_13
    2  A    between atoms: C_3  and  C_17
    3  A    between atoms: C_5  and  C_18
    4  A    between atoms: C_12  and  C_28
    5  A    between atoms: C_17  and  N_29
    6  A    between atoms: C_18  and  N_29
                            x       y       z     vdW  Elec       q    Type
                         _______ _______ _______ _____ _____    ______ ____

>  <TORSDO>
F 6

$$$$
=
 OpenBabel11052414123D

 34 38  0  0  1  0  0  0  0  0999 V2000
  190.3820  177.6670  143.1770 C   0  0  0  0  0  0  0  0  0  0  0  0
  187.9030  177.5490  143.1990 C   0  0  0  0  0  3  0  0  0  0  0  0
  189.1090  177.8330  141.0400 N   0  0  0  0  0  0  0  0  0  0  0  0
  188.0970  178.1510  138.7190 C   0  0  2  0  0  3  0  0  0  0  0  0
  189.2050  177.4040  145.2730 C   0  0  0  0  0  3  0  0  0  0  0  0
  186.7860  176.8700  145.1630 O   0  0  0  0  0  1  0  0  0  0  0  0
  186.9850  178.7920  140.7490 O   0  0  0  0  0  0  0  0  0  0  0  0
  189.1110  178.1070  142.4880 C   0  0  2  0  0  3  0  0  0  0  0  0
  190.3730  177.5650  144.6420 C   0  0  0  0  0  3  0  0  0  0  0  0
  190.3310  177.4530  140.3700 C   0  0  0  0  0  0  0  0  0  0  0  0
  191.4470  177.3510  142.5060 N   0  0  0  0  0  0  0  0  0  0  0  0
  187.9390  177.2880  144.5130 C   0  0  0  0  0  0  0  0  0  0  0  0
  189.0130  177.0750  138.3500 N   0  0  0  0  0  2  0  0  0  0  0  0
  190.3500  177.3820  138.8560 C   0  0  2  0  0  3  0  0  0  0  0  0
  187.9970  178.2520  140.2220 C   0  0  0  0  0  0  0  0  0  0  0  0
  191.4540  177.2840  141.0770 C   0  0  0  0  0  3  0  0  0  0  0  0
  191.7550  174.2460  137.2510 C   0  0  0  0  0  0  0  0  0  0  0  0
  193.1290  174.4920  137.2970 C   0  0  0  0  0  3  0  0  0  0  0  0
  191.3320  176.3800  138.3210 C   0  0  0  0  0  0  0  0  0  0  0  0
  193.6090  175.6810  137.8540 C   0  0  0  0  0  3  0  0  0  0  0  0
  190.8570  175.1890  137.7610 C   0  0  0  0  0  3  0  0  0  0  0  0
  192.7130  176.6240  138.3650 C   0  0  0  0  0  3  0  0  0  0  0  0
  191.2910  173.0940  136.7100 F   0  0  0  0  0  0  0  0  0  0  0  0
  186.7440  177.8830  138.0770 C   0  0  0  0  0  2  0  0  0  0  0  0
  186.7990  178.1800  136.6560 N   0  0  0  0  0  2  0  0  0  0  0  0
  186.2790  177.0150  135.9660 C   0  0  0  0  0  2  0  0  0  0  0  0
  187.4290  176.2320  135.3590 C   0  0  0  0  0  2  0  0  0  0  0  0
  189.3390  174.3420  134.5940 F   0  0  0  0  0  0  0  0  0  0  0  0
  187.3590  174.7970  135.7730 C   0  0  0  0  0  0  0  0  0  0  0  0
  188.2860  173.9120  135.3400 C   0  0  0  0  0  0  0  0  0  0  0  0
  186.8920  172.0050  136.2250 C   0  0  0  0  0  2  0  0  0  0  0  0
  186.3280  173.0040  137.2210 C   0  0  0  0  0  2  0  0  0  0  0  0
  186.1320  174.3490  136.5290 C   0  0  0  0  0  2  0  0  0  0  0  0
  188.2730  172.4670  135.7720 C   0  0  0  0  0  2  0  0  0  0  0  0
  1  9  1  0  0  0  0
  2 12  2  0  0  0  0
  3  8  1  0  0  0  0
  4 24  1  6  0  0  0
  4 15  1  0  0  0  0
  8  1  1  0  0  0  0
  8  2  1  1  0  0  0
  9  5  2  0  0  0  0
 10  3  1  0  0  0  0
 10 16  2  0  0  0  0
 11  1  2  0  0  0  0
 12  6  1  0  0  0  0
 12  5  1  0  0  0  0
 13  4  1  0  0  0  0
 13 14  1  0  0  0  0
 14 19  1  1  0  0  0
 14 10  1  0  0  0  0
 15  7  2  0  0  0  0
 15  3  1  0  0  0  0
 16 11  1  0  0  0  0
 17 18  2  0  0  0  0
 17 21  1  0  0  0  0
 18 20  1  0  0  0  0
 19 22  1  0  0  0  0
 20 22  2  0  0  0  0
 21 19  2  0  0  0  0
 23 17  1  0  0  0  0
 25 24  1  0  0  0  0
 26 25  1  0  0  0  0
 27 29  1  0  0  0  0
 27 26  1  0  0  0  0
 28 30  1  0  0  0  0
 29 33  1  0  0  0  0
 30 34  1  0  0  0  0
 30 29  2  0  0  0  0
 31 32  1  0  0  0  0
 33 32  1  0  0  0  0
 34 31  1  0  0  0  0
M  END
>  <MODEL>
9

>  <REMARK>
 VINA RESULT:      -8.6      4.173      9.174
  Name = 
  6 active torsions:
  status: ('A' for Active; 'I' for Inactive)
    1  A    between atoms: C_3  and  C_13
    2  A    between atoms: C_3  and  C_17
    3  A    between atoms: C_5  and  C_18
    4  A    between atoms: C_12  and  C_28
    5  A    between atoms: C_17  and  N_29
    6  A    between atoms: C_18  and  N_29
                            x       y       z     vdW  Elec       q    Type
                         _______ _______ _______ _____ _____    ______ ____

>  <TORSDO>
F 6

$$$$
