=
 OpenBabel11052413273D

 28 33  0  0  1  0  0  0  0  0999 V2000
  187.3410  177.5190  144.3030 C   0  0  0  0  0  0  0  0  0  0  0  0
  188.7010  176.8450  144.3120 C   0  0  1  0  0  3  0  0  0  0  0  0
  188.8040  177.1320  141.8320 C   0  0  2  0  0  3  0  0  0  0  0  0
  186.7000  177.9300  138.1690 C   0  0  0  0  0  2  0  0  0  0  0  0
  183.4350  179.3470  144.3870 C   0  0  0  0  0  1  0  0  0  0  0  0
  190.8510  179.0260  144.6050 C   0  0  0  0  0  2  0  0  0  0  0  0
  189.5820  177.3140  143.1350 C   0  0  1  0  0  3  0  0  0  0  0  0
  190.9060  176.6470  145.6050 C   0  0  0  0  0  2  0  0  0  0  0  0
  189.6810  177.4470  138.1120 C   0  0  0  0  0  2  0  0  0  0  0  0
  186.8840  178.3250  140.6640 C   0  0  0  0  0  0  0  0  0  0  0  0
  189.3980  176.8980  145.6860 C   0  0  0  0  0  2  0  0  0  0  0  0
  187.4370  177.5710  136.8670 C   0  0  2  0  0  0  0  0  0  0  0  0
  187.6300  178.2690  139.3460 C   0  0  1  0  0  3  0  0  0  0  0  0
  189.6490  177.4790  140.6090 C   0  0  0  0  0  2  0  0  0  0  0  0
  188.9130  177.9930  136.8970 C   0  0  0  0  0  2  0  0  0  0  0  0
  185.4950  178.6020  143.1070 C   0  0  0  0  0  0  0  0  0  0  0  0
  187.4740  177.8600  141.8640 C   0  0  0  0  0  0  0  0  0  0  0  0
  188.8090  177.2890  139.3610 C   0  0  2  0  0  3  0  0  0  0  0  0
  185.3400  178.2120  145.4960 C   0  0  0  0  0  3  0  0  0  0  0  0
  184.9500  179.0920  141.9160 C   0  0  0  0  0  3  0  0  0  0  0  0
  184.7850  178.7120  144.3190 C   0  0  0  0  0  0  0  0  0  0  0  0
  191.7120  177.8510  145.0830 C   0  0  0  0  0  2  0  0  0  0  0  0
  186.8090  178.2260  135.8090 O   0  0  0  0  0  1  0  0  0  0  0  0
  187.3350  176.0740  136.6350 C   0  0  0  0  0  1  0  0  0  0  0  0
  185.6410  178.9650  140.7140 C   0  0  0  0  0  3  0  0  0  0  0  0
  186.6000  177.6180  145.4880 C   0  0  0  0  0  3  0  0  0  0  0  0
  186.7730  177.9850  143.0900 C   0  0  0  0  0  0  0  0  0  0  0  0
  190.1250  178.7490  143.2850 C   0  0  0  0  0  2  0  0  0  0  0  0
  1  2  1  0  0  0  0
  1 26  1  0  0  0  0
  2 11  1  1  0  0  0
  3 14  1  6  0  0  0
  3 17  1  0  0  0  0
  3  7  1  0  0  0  0
  6 22  1  0  0  0  0
  7 28  1  1  0  0  0
  7  2  1  0  0  0  0
  8 11  1  0  0  0  0
 10 25  1  0  0  0  0
 10 17  2  0  0  0  0
 12 24  1  6  0  0  0
 12 15  1  0  0  0  0
 12  4  1  0  0  0  0
 13  4  1  6  0  0  0
 13 18  1  0  0  0  0
 13 10  1  0  0  0  0
 15  9  1  0  0  0  0
 16 21  2  0  0  0  0
 17 27  1  0  0  0  0
 18  9  1  6  0  0  0
 18 14  1  0  0  0  0
 20 16  1  0  0  0  0
 21  5  1  0  0  0  0
 21 19  1  0  0  0  0
 22  8  1  0  0  0  0
 23 12  1  0  0  0  0
 25 20  2  0  0  0  0
 26 19  2  0  0  0  0
 27 16  1  0  0  0  0
 27  1  2  0  0  0  0
 28  6  1  0  0  0  0
M  END
>  <MODEL>
1

>  <REMARK>
 VINA RESULT:     -11.6      0.000      0.000
  Name = 
  0 active torsions:
  status: ('A' for Active; 'I' for Inactive)
                            x       y       z     vdW  Elec       q    Type
                         _______ _______ _______ _____ _____    ______ ____

>  <TORSDO>
F 0

$$$$
=
 OpenBabel11052413273D

 28 33  0  0  1  0  0  0  0  0999 V2000
  188.1220  177.0910  144.6640 C   0  0  0  0  0  0  0  0  0  0  0  0
  188.2210  176.6420  143.2180 C   0  0  1  0  0  3  0  0  0  0  0  0
  185.9050  177.5040  142.8460 C   0  0  2  0  0  3  0  0  0  0  0  0
  182.1840  178.8030  144.5620 C   0  0  0  0  0  2  0  0  0  0  0  0
  187.9230  178.2530  148.8140 C   0  0  0  0  0  1  0  0  0  0  0  0
  189.3100  178.9910  141.5560 C   0  0  0  0  0  2  0  0  0  0  0  0
  187.3290  177.4940  142.2900 C   0  0  1  0  0  3  0  0  0  0  0  0
  189.7960  176.4810  141.2020 C   0  0  0  0  0  2  0  0  0  0  0  0
  182.5280  178.7920  141.5610 C   0  0  0  0  0  2  0  0  0  0  0  0
  184.7010  178.6350  144.7810 C   0  0  0  0  0  0  0  0  0  0  0  0
  189.6730  176.4800  142.7280 C   0  0  0  0  0  2  0  0  0  0  0  0
  180.9780  178.8660  143.6080 C   0  0  2  0  0  0  0  0  0  0  0  0
  183.5440  178.9950  143.8710 C   0  0  1  0  0  3  0  0  0  0  0  0
  184.9380  178.2440  141.9250 C   0  0  0  0  0  2  0  0  0  0  0  0
  181.3400  179.4830  142.2500 C   0  0  0  0  0  2  0  0  0  0  0  0
  186.8810  178.1340  146.5040 C   0  0  0  0  0  0  0  0  0  0  0  0
  185.8620  178.0000  144.2780 C   0  0  0  0  0  0  0  0  0  0  0  0
  183.5550  178.2240  142.5460 C   0  0  2  0  0  3  0  0  0  0  0  0
  189.0800  177.1870  146.8970 C   0  0  0  0  0  3  0  0  0  0  0  0
  185.7420  178.8000  146.9680 C   0  0  0  0  0  3  0  0  0  0  0  0
  187.9540  177.8570  147.3740 C   0  0  0  0  0  0  0  0  0  0  0  0
  189.6740  177.8780  140.5660 C   0  0  0  0  0  2  0  0  0  0  0  0
  179.9860  179.6460  144.2010 O   0  0  0  0  0  1  0  0  0  0  0  0
  180.4300  177.4640  143.4060 C   0  0  0  0  0  1  0  0  0  0  0  0
  184.6720  179.0560  146.1140 C   0  0  0  0  0  3  0  0  0  0  0  0
  189.1610  176.8040  145.5600 C   0  0  0  0  0  3  0  0  0  0  0  0
  186.9520  177.7350  145.1440 C   0  0  0  0  0  0  0  0  0  0  0  0
  187.8580  178.9200  142.0400 C   0  0  0  0  0  2  0  0  0  0  0  0
  1 27  2  0  0  0  0
  1 26  1  0  0  0  0
  2 11  1  6  0  0  0
  2  1  1  0  0  0  0
  3 14  1  6  0  0  0
  3 17  1  0  0  0  0
  6 28  1  0  0  0  0
  7 28  1  1  0  0  0
  7  3  1  0  0  0  0
  7  2  1  0  0  0  0
  8 11  1  0  0  0  0
  9 15  1  0  0  0  0
 10 25  1  0  0  0  0
 12 24  1  6  0  0  0
 12 23  1  0  0  0  0
 12  4  1  0  0  0  0
 13  4  1  1  0  0  0
 13 10  1  0  0  0  0
 14 18  1  0  0  0  0
 15 12  1  0  0  0  0
 16 20  1  0  0  0  0
 16 21  2  0  0  0  0
 17 10  2  0  0  0  0
 17 27  1  0  0  0  0
 18  9  1  6  0  0  0
 18 13  1  0  0  0  0
 19 21  1  0  0  0  0
 21  5  1  0  0  0  0
 22  8  1  0  0  0  0
 22  6  1  0  0  0  0
 25 20  2  0  0  0  0
 26 19  2  0  0  0  0
 27 16  1  0  0  0  0
M  END
>  <MODEL>
2

>  <REMARK>
 VINA RESULT:     -10.3      2.952      5.668
  Name = 
  0 active torsions:
  status: ('A' for Active; 'I' for Inactive)
                            x       y       z     vdW  Elec       q    Type
                         _______ _______ _______ _____ _____    ______ ____

>  <TORSDO>
F 0

$$$$
=
 OpenBabel11052413273D

 28 33  0  0  1  0  0  0  0  0999 V2000
  188.8680  177.0250  145.4770 C   0  0  0  0  0  0  0  0  0  0  0  0
  189.4830  176.5530  144.1720 C   0  0  1  0  0  3  0  0  0  0  0  0
  187.4660  177.4090  142.9710 C   0  0  2  0  0  3  0  0  0  0  0  0
  183.3830  178.7340  143.1970 C   0  0  0  0  0  2  0  0  0  0  0  0
  187.1800  178.2530  149.2530 C   0  0  0  0  0  1  0  0  0  0  0  0
  191.1150  178.8750  142.9850 C   0  0  0  0  0  2  0  0  0  0  0  0
  188.9950  177.3900  142.9720 C   0  0  1  0  0  3  0  0  0  0  0  0
  191.6820  176.3600  142.8700 C   0  0  0  0  0  2  0  0  0  0  0  0
  184.7950  178.6760  140.5270 C   0  0  0  0  0  2  0  0  0  0  0  0
  185.6470  178.5710  144.3180 C   0  0  0  0  0  0  0  0  0  0  0  0
  191.0130  176.3840  144.2470 C   0  0  0  0  0  2  0  0  0  0  0  0
  182.6070  178.7820  141.8690 C   0  0  2  0  0  0  0  0  0  0  0  0
  184.9020  178.9160  143.0450 C   0  0  1  0  0  3  0  0  0  0  0  0
  186.9040  178.1330  141.7510 C   0  0  0  0  0  2  0  0  0  0  0  0
  183.4420  179.3770  140.7270 C   0  0  0  0  0  2  0  0  0  0  0  0
  187.0490  178.0970  146.7240 C   0  0  0  0  0  0  0  0  0  0  0  0
  186.9080  177.9280  144.2820 C   0  0  0  0  0  0  0  0  0  0  0  0
  185.3900  178.1230  141.8260 C   0  0  2  0  0  3  0  0  0  0  0  0
  188.9490  177.1570  147.9030 C   0  0  0  0  0  3  0  0  0  0  0  0
  185.8220  178.7700  146.7320 C   0  0  0  0  0  3  0  0  0  0  0  0
  187.7300  177.8340  147.9290 C   0  0  0  0  0  0  0  0  0  0  0  0
  191.8080  177.7470  142.2130 C   0  0  0  0  0  2  0  0  0  0  0  0
  181.4720  179.5710  142.0490 O   0  0  0  0  0  1  0  0  0  0  0  0
  182.1620  177.3770  141.5030 C   0  0  0  0  0  1  0  0  0  0  0  0
  185.1380  179.0130  145.5440 C   0  0  0  0  0  3  0  0  0  0  0  0
  189.5090  176.7520  146.6930 C   0  0  0  0  0  3  0  0  0  0  0  0
  187.6070  177.6760  145.4890 C   0  0  0  0  0  0  0  0  0  0  0  0
  189.5860  178.8120  142.9100 C   0  0  0  0  0  2  0  0  0  0  0  0
  1 27  2  0  0  0  0
  1 26  1  0  0  0  0
  2 11  1  1  0  0  0
  2  1  1  0  0  0  0
  3 14  1  6  0  0  0
  3  7  1  0  0  0  0
  3 17  1  0  0  0  0
  7 28  1  1  0  0  0
  7  2  1  0  0  0  0
  8 11  1  0  0  0  0
  9 15  1  0  0  0  0
 10 25  1  0  0  0  0
 12 24  1  6  0  0  0
 12 23  1  0  0  0  0
 12  4  1  0  0  0  0
 13  4  1  1  0  0  0
 13 10  1  0  0  0  0
 14 18  1  0  0  0  0
 15 12  1  0  0  0  0
 16 20  1  0  0  0  0
 16 21  2  0  0  0  0
 17 10  2  0  0  0  0
 17 27  1  0  0  0  0
 18  9  1  6  0  0  0
 18 13  1  0  0  0  0
 19 21  1  0  0  0  0
 21  5  1  0  0  0  0
 22  8  1  0  0  0  0
 22  6  1  0  0  0  0
 25 20  2  0  0  0  0
 26 19  2  0  0  0  0
 27 16  1  0  0  0  0
 28  6  1  0  0  0  0
M  END
>  <MODEL>
3

>  <REMARK>
 VINA RESULT:      -9.7      2.810      4.436
  Name = 
  0 active torsions:
  status: ('A' for Active; 'I' for Inactive)
                            x       y       z     vdW  Elec       q    Type
                         _______ _______ _______ _____ _____    ______ ____

>  <TORSDO>
F 0

$$$$
=
 OpenBabel11052413273D

 28 33  0  0  1  0  0  0  0  0999 V2000
  187.8400  177.4050  144.9540 C   0  0  0  0  0  0  0  0  0  0  0  0
  189.1260  176.9400  144.2960 C   0  0  1  0  0  3  0  0  0  0  0  0
  188.1130  177.4590  142.0700 C   0  0  2  0  0  3  0  0  0  0  0  0
  184.5630  178.2630  139.7840 C   0  0  0  0  0  2  0  0  0  0  0  0
  184.2050  178.6280  146.9300 C   0  0  0  0  0  1  0  0  0  0  0  0
  190.9740  179.3780  143.9680 C   0  0  0  0  0  2  0  0  0  0  0  0
  189.3600  177.6350  142.9380 C   0  0  1  0  0  3  0  0  0  0  0  0
  191.6800  176.9530  144.5010 C   0  0  0  0  0  2  0  0  0  0  0  0
  187.2540  178.2280  138.4130 C   0  0  0  0  0  2  0  0  0  0  0  0
  185.7740  178.4560  142.0000 C   0  0  0  0  0  0  0  0  0  0  0  0
  190.3410  176.9720  145.2430 C   0  0  0  0  0  2  0  0  0  0  0  0
  184.6920  178.1330  138.2560 C   0  0  2  0  0  0  0  0  0  0  0  0
  185.8750  178.6280  140.4980 C   0  0  1  0  0  3  0  0  0  0  0  0
  188.3070  178.0330  140.6700 C   0  0  0  0  0  2  0  0  0  0  0  0
  185.9870  178.7620  137.7250 C   0  0  0  0  0  2  0  0  0  0  0  0
  185.5650  178.3080  144.8120 C   0  0  0  0  0  0  0  0  0  0  0  0
  186.8670  177.9780  142.7610 C   0  0  0  0  0  0  0  0  0  0  0  0
  187.0300  177.8340  139.8760 C   0  0  2  0  0  3  0  0  0  0  0  0
  186.5000  177.6890  146.9630 C   0  0  0  0  0  3  0  0  0  0  0  0
  184.5130  178.8180  144.0430 C   0  0  0  0  0  3  0  0  0  0  0  0
  185.4450  178.2060  146.2120 C   0  0  0  0  0  0  0  0  0  0  0  0
  192.0630  178.3040  143.8680 C   0  0  0  0  0  2  0  0  0  0  0  0
  183.6070  178.7800  137.6650 O   0  0  0  0  0  1  0  0  0  0  0  0
  184.6400  176.6630  137.8770 C   0  0  0  0  0  1  0  0  0  0  0  0
  184.6220  178.9010  142.6580 C   0  0  0  0  0  3  0  0  0  0  0  0
  187.6810  177.2890  146.3420 C   0  0  0  0  0  3  0  0  0  0  0  0
  186.7600  177.8900  144.1720 C   0  0  0  0  0  0  0  0  0  0  0  0
  189.7760  179.1160  143.0500 C   0  0  0  0  0  2  0  0  0  0  0  0
  1 26  1  0  0  0  0
  2  1  1  0  0  0  0
  2 11  1  1  0  0  0
  3 14  1  6  0  0  0
  3 17  1  0  0  0  0
  3  7  1  0  0  0  0
  7 28  1  1  0  0  0
  7  2  1  0  0  0  0
  8 11  1  0  0  0  0
 10 25  1  0  0  0  0
 10 17  2  0  0  0  0
 12 24  1  6  0  0  0
 12  4  1  0  0  0  0
 13  4  1  6  0  0  0
 13 10  1  0  0  0  0
 15 12  1  0  0  0  0
 15  9  1  0  0  0  0
 16 21  2  0  0  0  0
 17 27  1  0  0  0  0
 18  9  1  6  0  0  0
 18 13  1  0  0  0  0
 18 14  1  0  0  0  0
 20 16  1  0  0  0  0
 21  5  1  0  0  0  0
 21 19  1  0  0  0  0
 22  6  1  0  0  0  0
 22  8  1  0  0  0  0
 23 12  1  0  0  0  0
 25 20  2  0  0  0  0
 26 19  2  0  0  0  0
 27 16  1  0  0  0  0
 27  1  2  0  0  0  0
 28  6  1  0  0  0  0
M  END
>  <MODEL>
4

>  <REMARK>
 VINA RESULT:      -8.8      1.403      1.983
  Name = 
  0 active torsions:
  status: ('A' for Active; 'I' for Inactive)
                            x       y       z     vdW  Elec       q    Type
                         _______ _______ _______ _____ _____    ______ ____

>  <TORSDO>
F 0

$$$$
