=
 OpenBabel11052413453D

 27 30  0  0  0  0  0  0  0  0999 V2000
  186.9440  178.2160  142.4860 C   0  0  0  0  0  0  0  0  0  0  0  0
  185.4400  178.4570  140.5630 O   0  0  0  0  0  0  0  0  0  0  0  0
  183.3940  178.7190  145.3030 C   0  0  0  0  0  3  0  0  0  0  0  0
  181.3180  179.0500  144.1620 F   0  0  0  0  0  0  0  0  0  0  0  0
  186.7980  178.2280  143.7800 N   0  0  0  0  0  0  0  0  0  0  0  0
  183.3100  178.7670  142.8620 C   0  0  0  0  0  0  0  0  0  0  0  0
  182.6040  178.8910  141.6720 O   0  0  0  0  0  1  0  0  0  0  0  0
  184.6880  178.5580  142.8640 C   0  0  0  0  0  0  0  0  0  0  0  0
  188.2260  178.0810  141.8360 N   0  0  0  0  0  0  0  0  0  0  0  0
  182.6580  178.8470  144.1060 C   0  0  0  0  0  0  0  0  0  0  0  0
  185.4070  178.4310  144.0280 C   0  0  0  0  0  0  0  0  0  0  0  0
  185.6590  178.4260  141.8020 C   0  0  0  0  0  0  0  0  0  0  0  0
  184.7850  178.5090  145.2730 C   0  0  0  0  0  3  0  0  0  0  0  0
  191.5770  176.2140  143.6950 C   0  0  0  0  0  3  0  0  0  0  0  0
  189.3540  177.4440  142.4810 C   0  0  0  0  0  0  0  0  0  0  0  0
  190.4410  178.2110  142.9370 C   0  0  0  0  0  3  0  0  0  0  0  0
  191.5430  177.6010  143.5420 C   0  0  0  0  0  3  0  0  0  0  0  0
  190.5100  175.4360  143.2400 C   0  0  0  0  0  3  0  0  0  0  0  0
  189.4090  176.0470  142.6350 C   0  0  0  0  0  3  0  0  0  0  0  0
  188.3860  178.6030  140.4790 C   0  0  0  0  0  2  0  0  0  0  0  0
  190.4120  175.4190  138.1520 C   0  0  0  0  0  2  0  0  0  0  0  0
  189.5270  175.9090  137.0130 C   0  0  0  0  0  2  0  0  0  0  0  0
  188.8720  177.5120  139.5340 C   0  0  0  0  0  3  0  0  0  0  0  0
  191.1390  176.5530  138.8820 C   0  0  0  0  0  2  0  0  0  0  0  0
  188.1170  176.1600  137.5330 C   0  0  0  0  0  2  0  0  0  0  0  0
  188.0040  177.4850  138.2810 C   0  0  0  0  0  2  0  0  0  0  0  0
  190.3080  177.8150  139.1340 C   0  0  0  0  0  2  0  0  0  0  0  0
  1  5  2  0  0  0  0
  2 12  2  0  0  0  0
  5 11  1  0  0  0  0
  6  8  2  0  0  0  0
  6 10  1  0  0  0  0
  7  6  1  0  0  0  0
  8 11  1  0  0  0  0
  9 15  1  0  0  0  0
  9  1  1  0  0  0  0
 10  4  1  0  0  0  0
 10  3  2  0  0  0  0
 11 13  2  0  0  0  0
 12  1  1  0  0  0  0
 12  8  1  0  0  0  0
 13  3  1  0  0  0  0
 15 19  2  0  0  0  0
 15 16  1  0  0  0  0
 16 17  2  0  0  0  0
 17 14  1  0  0  0  0
 18 14  2  0  0  0  0
 19 18  1  0  0  0  0
 20  9  1  0  0  0  0
 21 24  1  0  0  0  0
 22 25  1  0  0  0  0
 22 21  1  0  0  0  0
 23 20  1  0  0  0  0
 24 27  1  0  0  0  0
 25 26  1  0  0  0  0
 26 23  1  0  0  0  0
 27 23  1  0  0  0  0
M  END
>  <MODEL>
1

>  <REMARK>
 VINA RESULT:      -8.3      0.000      0.000
  Name = 
  3 active torsions:
  status: ('A' for Active; 'I' for Inactive)
    1  A    between atoms: C_1  and  N_15
    2  A    between atoms: C_1  and  C_18
    3  A    between atoms: C_9  and  N_15
                            x       y       z     vdW  Elec       q    Type
                         _______ _______ _______ _____ _____    ______ ____

>  <TORSDO>
F 3

$$$$
=
 OpenBabel11052413453D

 27 30  0  0  0  0  0  0  0  0999 V2000
  188.6650  177.6360  140.8620 C   0  0  0  0  0  0  0  0  0  0  0  0
  186.5930  178.6370  140.0110 O   0  0  0  0  0  0  0  0  0  0  0  0
  190.2280  177.2840  136.5940 C   0  0  0  0  0  3  0  0  0  0  0  0
  188.6900  178.0970  134.9520 F   0  0  0  0  0  0  0  0  0  0  0  0
  189.7620  177.1850  140.3250 N   0  0  0  0  0  0  0  0  0  0  0  0
  188.0590  178.1890  137.2610 C   0  0  0  0  0  0  0  0  0  0  0  0
  186.8300  178.7580  136.9470 O   0  0  0  0  0  1  0  0  0  0  0  0
  188.4150  177.9250  138.5820 C   0  0  0  0  0  0  0  0  0  0  0  0
  188.4010  177.5840  142.2810 N   0  0  0  0  0  0  0  0  0  0  0  0
  188.9870  177.8620  136.2540 C   0  0  0  0  0  0  0  0  0  0  0  0
  189.6240  177.3650  138.9150 C   0  0  0  0  0  0  0  0  0  0  0  0
  187.7310  178.1260  139.8380 C   0  0  0  0  0  0  0  0  0  0  0  0
  190.5600  177.0300  137.9370 C   0  0  0  0  0  3  0  0  0  0  0  0
  191.5630  177.4440  145.1350 C   0  0  0  0  0  3  0  0  0  0  0  0
  189.4630  177.5300  143.2610 C   0  0  0  0  0  0  0  0  0  0  0  0
  189.9680  178.7120  143.8320 C   0  0  0  0  0  3  0  0  0  0  0  0
  191.0080  178.6700  144.7640 C   0  0  0  0  0  3  0  0  0  0  0  0
  191.0810  176.2610  144.5710 C   0  0  0  0  0  3  0  0  0  0  0  0
  190.0410  176.3040  143.6390 C   0  0  0  0  0  3  0  0  0  0  0  0
  187.0110  177.5900  142.7380 C   0  0  0  0  0  2  0  0  0  0  0  0
  187.3680  178.3360  147.0940 C   0  0  0  0  0  2  0  0  0  0  0  0
  185.8730  178.6070  147.0090 C   0  0  0  0  0  2  0  0  0  0  0  0
  186.9260  177.9920  144.2040 C   0  0  0  0  0  3  0  0  0  0  0  0
  187.7860  177.0340  146.4020 C   0  0  0  0  0  2  0  0  0  0  0  0
  185.5750  179.4470  145.7730 C   0  0  0  0  0  2  0  0  0  0  0  0
  185.5640  178.6120  144.4960 C   0  0  0  0  0  2  0  0  0  0  0  0
  187.0970  176.7480  145.0640 C   0  0  0  0  0  2  0  0  0  0  0  0
  1  9  1  0  0  0  0
  3 13  1  0  0  0  0
  4 10  1  0  0  0  0
  5  1  2  0  0  0  0
  6  8  2  0  0  0  0
  7  6  1  0  0  0  0
  8 11  1  0  0  0  0
  8 12  1  0  0  0  0
  9 20  1  0  0  0  0
  9 15  1  0  0  0  0
 10  3  2  0  0  0  0
 10  6  1  0  0  0  0
 11  5  1  0  0  0  0
 12  2  2  0  0  0  0
 12  1  1  0  0  0  0
 13 11  2  0  0  0  0
 15 19  2  0  0  0  0
 15 16  1  0  0  0  0
 16 17  2  0  0  0  0
 17 14  1  0  0  0  0
 18 14  2  0  0  0  0
 19 18  1  0  0  0  0
 20 23  1  0  0  0  0
 22 21  1  0  0  0  0
 23 26  1  0  0  0  0
 23 27  1  0  0  0  0
 24 21  1  0  0  0  0
 25 22  1  0  0  0  0
 26 25  1  0  0  0  0
 27 24  1  0  0  0  0
M  END
>  <MODEL>
2

>  <REMARK>
 VINA RESULT:      -8.0      2.883      6.604
  Name = 
  3 active torsions:
  status: ('A' for Active; 'I' for Inactive)
    1  A    between atoms: C_1  and  N_15
    2  A    between atoms: C_1  and  C_18
    3  A    between atoms: C_9  and  N_15
                            x       y       z     vdW  Elec       q    Type
                         _______ _______ _______ _____ _____    ______ ____

>  <TORSDO>
F 3

$$$$
=
 OpenBabel11052413453D

 27 30  0  0  0  0  0  0  0  0999 V2000
  189.9810  177.3610  141.4180 C   0  0  0  0  0  0  0  0  0  0  0  0
  187.7160  178.1430  141.9460 O   0  0  0  0  0  0  0  0  0  0  0  0
  190.7830  176.7380  145.8620 C   0  0  0  0  0  3  0  0  0  0  0  0
  188.9250  177.3200  147.2510 F   0  0  0  0  0  0  0  0  0  0  0  0
  190.9990  176.9420  142.1120 N   0  0  0  0  0  0  0  0  0  0  0  0
  188.7100  177.5770  144.8800 C   0  0  0  0  0  0  0  0  0  0  0  0
  187.4090  178.0490  145.0050 O   0  0  0  0  0  1  0  0  0  0  0  0
  189.3120  177.4480  143.6300 C   0  0  0  0  0  0  0  0  0  0  0  0
  190.0110  177.5100  139.9820 N   0  0  0  0  0  0  0  0  0  0  0  0
  189.4630  177.2130  146.0110 C   0  0  0  0  0  0  0  0  0  0  0  0
  190.5970  176.9830  143.4820 C   0  0  0  0  0  0  0  0  0  0  0  0
  188.8510  177.7190  142.2890 C   0  0  0  0  0  0  0  0  0  0  0  0
  191.3650  176.6180  144.5870 C   0  0  0  0  0  3  0  0  0  0  0  0
  192.6880  175.3220  137.4900 C   0  0  0  0  0  3  0  0  0  0  0  0
  190.9200  176.7550  139.1480 C   0  0  0  0  0  0  0  0  0  0  0  0
  192.2570  177.1640  138.9980 C   0  0  0  0  0  3  0  0  0  0  0  0
  193.1360  176.4510  138.1780 C   0  0  0  0  0  3  0  0  0  0  0  0
  191.3610  174.9070  137.6200 C   0  0  0  0  0  3  0  0  0  0  0  0
  190.4830  175.6200  138.4400 C   0  0  0  0  0  3  0  0  0  0  0  0
  189.0880  178.4550  139.3520 C   0  0  0  0  0  2  0  0  0  0  0  0
  187.9580  176.7140  135.4350 C   0  0  0  0  0  2  0  0  0  0  0  0
  186.5820  177.2780  135.7600 C   0  0  0  0  0  2  0  0  0  0  0  0
  188.4640  177.8500  138.1030 C   0  0  0  0  0  3  0  0  0  0  0  0
  189.0890  177.7270  135.6380 C   0  0  0  0  0  2  0  0  0  0  0  0
  186.2480  177.0020  137.2220 C   0  0  0  0  0  2  0  0  0  0  0  0
  186.9450  177.9750  138.1670 C   0  0  0  0  0  2  0  0  0  0  0  0
  188.9710  178.6080  136.8850 C   0  0  0  0  0  2  0  0  0  0  0  0
  1  5  2  0  0  0  0
  1 12  1  0  0  0  0
  2 12  2  0  0  0  0
  3 10  1  0  0  0  0
  5 11  1  0  0  0  0
  6  7  1  0  0  0  0
  6 10  2  0  0  0  0
  8  6  1  0  0  0  0
  9  1  1  0  0  0  0
 10  4  1  0  0  0  0
 11  8  2  0  0  0  0
 11 13  1  0  0  0  0
 12  8  1  0  0  0  0
 13  3  2  0  0  0  0
 14 18  2  0  0  0  0
 14 17  1  0  0  0  0
 15  9  1  0  0  0  0
 16 15  1  0  0  0  0
 17 16  2  0  0  0  0
 18 19  1  0  0  0  0
 19 15  2  0  0  0  0
 20  9  1  0  0  0  0
 21 24  1  0  0  0  0
 21 22  1  0  0  0  0
 22 25  1  0  0  0  0
 23 26  1  0  0  0  0
 23 20  1  0  0  0  0
 24 27  1  0  0  0  0
 25 26  1  0  0  0  0
 27 23  1  0  0  0  0
M  END
>  <MODEL>
3

>  <REMARK>
 VINA RESULT:      -7.7      3.428      4.825
  Name = 
  3 active torsions:
  status: ('A' for Active; 'I' for Inactive)
    1  A    between atoms: C_1  and  N_15
    2  A    between atoms: C_1  and  C_18
    3  A    between atoms: C_9  and  N_15
                            x       y       z     vdW  Elec       q    Type
                         _______ _______ _______ _____ _____    ______ ____

>  <TORSDO>
F 3

$$$$
=
 OpenBabel11052413453D

 27 30  0  0  0  0  0  0  0  0999 V2000
  186.7770  177.9600  142.6290 C   0  0  0  0  0  0  0  0  0  0  0  0
  184.7420  178.0970  143.9930 O   0  0  0  0  0  0  0  0  0  0  0  0
  184.3740  179.1860  138.9530 C   0  0  0  0  0  3  0  0  0  0  0  0
  182.0550  179.5500  139.4150 F   0  0  0  0  0  0  0  0  0  0  0  0
  187.0620  178.1530  141.3740 N   0  0  0  0  0  0  0  0  0  0  0  0
  183.4950  178.8950  141.2140 C   0  0  0  0  0  0  0  0  0  0  0  0
  182.4430  178.9160  142.1220 O   0  0  0  0  0  1  0  0  0  0  0  0
  184.7860  178.5570  141.6150 C   0  0  0  0  0  0  0  0  0  0  0  0
  187.7480  177.5170  143.6020 N   0  0  0  0  0  0  0  0  0  0  0  0
  183.2920  179.2150  139.8590 C   0  0  0  0  0  0  0  0  0  0  0  0
  185.8410  178.5300  140.7360 C   0  0  0  0  0  0  0  0  0  0  0  0
  185.3470  178.1830  142.8930 C   0  0  0  0  0  0  0  0  0  0  0  0
  185.6670  178.8410  139.3880 C   0  0  0  0  0  3  0  0  0  0  0  0
  191.9380  178.1380  143.1310 C   0  0  0  0  0  3  0  0  0  0  0  0
  189.1670  177.7400  143.4300 C   0  0  0  0  0  0  0  0  0  0  0  0
  189.9550  176.8120  142.7260 C   0  0  0  0  0  3  0  0  0  0  0  0
  191.3300  177.0110  142.5740 C   0  0  0  0  0  3  0  0  0  0  0  0
  191.1720  179.0650  143.8400 C   0  0  0  0  0  3  0  0  0  0  0  0
  189.7980  178.8650  143.9920 C   0  0  0  0  0  3  0  0  0  0  0  0
  187.2770  176.8220  144.8000 C   0  0  0  0  0  2  0  0  0  0  0  0
  189.6190  178.4210  148.2080 C   0  0  0  0  0  2  0  0  0  0  0  0
  188.2960  178.3250  148.9560 C   0  0  0  0  0  2  0  0  0  0  0  0
  187.8580  177.4570  146.0560 C   0  0  0  0  0  3  0  0  0  0  0  0
  189.9710  177.1420  147.4400 C   0  0  0  0  0  2  0  0  0  0  0  0
  187.1680  178.8320  148.0650 C   0  0  0  0  0  2  0  0  0  0  0  0
  186.7370  177.7950  147.0330 C   0  0  0  0  0  2  0  0  0  0  0  0
  188.8040  176.4650  146.7150 C   0  0  0  0  0  2  0  0  0  0  0  0
  1 12  1  0  0  0  0
  1  9  1  0  0  0  0
  3 13  2  0  0  0  0
  3 10  1  0  0  0  0
  4 10  1  0  0  0  0
  5  1  2  0  0  0  0
  6  8  1  0  0  0  0
  6  7  1  0  0  0  0
  8 12  1  0  0  0  0
  9 20  1  0  0  0  0
 10  6  2  0  0  0  0
 11  5  1  0  0  0  0
 11  8  2  0  0  0  0
 12  2  2  0  0  0  0
 13 11  1  0  0  0  0
 14 18  1  0  0  0  0
 15  9  1  0  0  0  0
 15 19  1  0  0  0  0
 16 15  2  0  0  0  0
 17 16  1  0  0  0  0
 17 14  2  0  0  0  0
 18 19  2  0  0  0  0
 20 23  1  0  0  0  0
 21 22  1  0  0  0  0
 23 27  1  0  0  0  0
 23 26  1  0  0  0  0
 24 21  1  0  0  0  0
 25 22  1  0  0  0  0
 26 25  1  0  0  0  0
 27 24  1  0  0  0  0
M  END
>  <MODEL>
4

>  <REMARK>
 VINA RESULT:      -7.5      2.725      5.616
  Name = 
  3 active torsions:
  status: ('A' for Active; 'I' for Inactive)
    1  A    between atoms: C_1  and  N_15
    2  A    between atoms: C_1  and  C_18
    3  A    between atoms: C_9  and  N_15
                            x       y       z     vdW  Elec       q    Type
                         _______ _______ _______ _____ _____    ______ ____

>  <TORSDO>
F 3

$$$$
=
 OpenBabel11052413453D

 27 30  0  0  0  0  0  0  0  0999 V2000
  189.6460  177.3400  141.1420 C   0  0  0  0  0  0  0  0  0  0  0  0
  191.8010  177.4930  142.3060 O   0  0  0  0  0  0  0  0  0  0  0  0
  187.4890  177.4770  145.1570 C   0  0  0  0  0  3  0  0  0  0  0  0
  188.9740  177.6290  147.0260 F   0  0  0  0  0  0  0  0  0  0  0  0
  188.3980  177.3080  141.5110 N   0  0  0  0  0  0  0  0  0  0  0  0
  189.9080  177.5430  144.8220 C   0  0  0  0  0  0  0  0  0  0  0  0
  191.2030  177.6150  145.3200 O   0  0  0  0  0  1  0  0  0  0  0  0
  189.6670  177.4610  143.4520 C   0  0  0  0  0  0  0  0  0  0  0  0
  190.0670  177.2320  139.7650 N   0  0  0  0  0  0  0  0  0  0  0  0
  188.7960  177.5520  145.6830 C   0  0  0  0  0  0  0  0  0  0  0  0
  188.3960  177.3900  142.9360 C   0  0  0  0  0  0  0  0  0  0  0  0
  190.5440  177.4290  142.3040 C   0  0  0  0  0  0  0  0  0  0  0  0
  187.2770  177.3950  143.7680 C   0  0  0  0  0  3  0  0  0  0  0  0
  187.5390  178.2630  136.4920 C   0  0  0  0  0  3  0  0  0  0  0  0
  189.2020  177.5940  138.6640 C   0  0  0  0  0  0  0  0  0  0  0  0
  188.1340  176.7580  138.2910 C   0  0  0  0  0  3  0  0  0  0  0  0
  187.3060  177.0920  137.2160 C   0  0  0  0  0  3  0  0  0  0  0  0
  188.6010  179.0990  136.8430 C   0  0  0  0  0  3  0  0  0  0  0  0
  189.4280  178.7650  137.9180 C   0  0  0  0  0  3  0  0  0  0  0  0
  191.4160  176.7410  139.4780 C   0  0  0  0  0  2  0  0  0  0  0  0
  191.0510  175.0670  135.3900 C   0  0  0  0  0  2  0  0  0  0  0  0
  192.5720  175.0720  135.4230 C   0  0  0  0  0  2  0  0  0  0  0  0
  191.5220  176.2650  138.0360 C   0  0  0  0  0  3  0  0  0  0  0  0
  190.4210  174.4430  136.6390 C   0  0  0  0  0  2  0  0  0  0  0  0
  193.0660  176.3770  136.0350 C   0  0  0  0  0  2  0  0  0  0  0  0
  192.9650  176.3770  137.5570 C   0  0  0  0  0  2  0  0  0  0  0  0
  191.0910  174.8080  137.9680 C   0  0  0  0  0  2  0  0  0  0  0  0
  1  5  2  0  0  0  0
  1 12  1  0  0  0  0
  3 10  1  0  0  0  0
  5 11  1  0  0  0  0
  6  7  1  0  0  0  0
  6 10  2  0  0  0  0
  8  6  1  0  0  0  0
  9  1  1  0  0  0  0
 10  4  1  0  0  0  0
 11  8  2  0  0  0  0
 11 13  1  0  0  0  0
 12  2  2  0  0  0  0
 12  8  1  0  0  0  0
 13  3  2  0  0  0  0
 14 18  2  0  0  0  0
 14 17  1  0  0  0  0
 15  9  1  0  0  0  0
 16 15  1  0  0  0  0
 17 16  2  0  0  0  0
 18 19  1  0  0  0  0
 19 15  2  0  0  0  0
 20  9  1  0  0  0  0
 21 22  1  0  0  0  0
 21 24  1  0  0  0  0
 22 25  1  0  0  0  0
 23 20  1  0  0  0  0
 24 27  1  0  0  0  0
 25 26  1  0  0  0  0
 26 23  1  0  0  0  0
 27 23  1  0  0  0  0
M  END
>  <MODEL>
5

>  <REMARK>
 VINA RESULT:      -7.3      3.497      5.415
  Name = 
  3 active torsions:
  status: ('A' for Active; 'I' for Inactive)
    1  A    between atoms: C_1  and  N_15
    2  A    between atoms: C_1  and  C_18
    3  A    between atoms: C_9  and  N_15
                            x       y       z     vdW  Elec       q    Type
                         _______ _______ _______ _____ _____    ______ ____

>  <TORSDO>
F 3

$$$$
=
 OpenBabel11052413453D

 27 30  0  0  0  0  0  0  0  0999 V2000
  189.7770  177.5640  140.8580 C   0  0  0  0  0  0  0  0  0  0  0  0
  192.1350  177.1030  141.3550 O   0  0  0  0  0  0  0  0  0  0  0  0
  190.4790  176.3780  136.5120 C   0  0  0  0  0  3  0  0  0  0  0  0
  192.7370  175.7320  136.0590 F   0  0  0  0  0  0  0  0  0  0  0  0
  189.0280  177.5020  139.7950 N   0  0  0  0  0  0  0  0  0  0  0  0
  192.1580  176.3950  138.2860 C   0  0  0  0  0  0  0  0  0  0  0  0
  193.4580  176.1900  138.7330 O   0  0  0  0  0  1  0  0  0  0  0  0
  191.1610  176.8380  139.1530 C   0  0  0  0  0  0  0  0  0  0  0  0
  189.2980  178.0320  142.1370 N   0  0  0  0  0  0  0  0  0  0  0  0
  191.8050  176.1620  136.9440 C   0  0  0  0  0  0  0  0  0  0  0  0
  189.8690  177.0470  138.7350 C   0  0  0  0  0  0  0  0  0  0  0  0
  191.1620  177.1690  140.5590 C   0  0  0  0  0  0  0  0  0  0  0  0
  189.4930  176.8250  137.4100 C   0  0  0  0  0  3  0  0  0  0  0  0
  185.1810  177.9150  143.2360 C   0  0  0  0  0  3  0  0  0  0  0  0
  187.8990  177.9770  142.5030 C   0  0  0  0  0  0  0  0  0  0  0  0
  186.9540  178.7710  141.8290 C   0  0  0  0  0  3  0  0  0  0  0  0
  185.6040  178.7370  142.1900 C   0  0  0  0  0  3  0  0  0  0  0  0
  186.1080  177.1280  143.9220 C   0  0  0  0  0  3  0  0  0  0  0  0
  187.4570  177.1610  143.5600 C   0  0  0  0  0  3  0  0  0  0  0  0
  190.2620  178.5770  143.0940 C   0  0  0  0  0  2  0  0  0  0  0  0
  189.6100  176.4920  146.9520 C   0  0  0  0  0  2  0  0  0  0  0  0
  191.1310  176.4570  147.0080 C   0  0  0  0  0  2  0  0  0  0  0  0
  190.2680  177.7600  144.3780 C   0  0  0  0  0  3  0  0  0  0  0  0
  189.0500  177.8770  146.6110 C   0  0  0  0  0  2  0  0  0  0  0  0
  191.6850  176.0840  145.6380 C   0  0  0  0  0  2  0  0  0  0  0  0
  191.6800  177.2630  144.6720 C   0  0  0  0  0  2  0  0  0  0  0  0
  189.8090  178.6470  145.5250 C   0  0  0  0  0  2  0  0  0  0  0  0
  1  9  1  0  0  0  0
  3 10  2  0  0  0  0
  3 13  1  0  0  0  0
  4 10  1  0  0  0  0
  5  1  2  0  0  0  0
  6  7  1  0  0  0  0
  6  8  2  0  0  0  0
  8 12  1  0  0  0  0
  9 15  1  0  0  0  0
  9 20  1  0  0  0  0
 10  6  1  0  0  0  0
 11  8  1  0  0  0  0
 11  5  1  0  0  0  0
 12  1  1  0  0  0  0
 12  2  2  0  0  0  0
 13 11  2  0  0  0  0
 14 18  1  0  0  0  0
 15 19  1  0  0  0  0
 16 17  1  0  0  0  0
 16 15  2  0  0  0  0
 17 14  2  0  0  0  0
 19 18  2  0  0  0  0
 20 23  1  0  0  0  0
 21 22  1  0  0  0  0
 23 26  1  0  0  0  0
 23 27  1  0  0  0  0
 24 21  1  0  0  0  0
 25 22  1  0  0  0  0
 26 25  1  0  0  0  0
 27 24  1  0  0  0  0
M  END
>  <MODEL>
6

>  <REMARK>
 VINA RESULT:      -7.2      3.949      7.736
  Name = 
  3 active torsions:
  status: ('A' for Active; 'I' for Inactive)
    1  A    between atoms: C_1  and  N_15
    2  A    between atoms: C_1  and  C_18
    3  A    between atoms: C_9  and  N_15
                            x       y       z     vdW  Elec       q    Type
                         _______ _______ _______ _____ _____    ______ ____

>  <TORSDO>
F 3

$$$$
=
 OpenBabel11052413453D

 27 30  0  0  0  0  0  0  0  0999 V2000
  188.0650  177.9930  142.0030 C   0  0  0  0  0  0  0  0  0  0  0  0
  186.0410  177.9360  143.3890 O   0  0  0  0  0  0  0  0  0  0  0  0
  190.5930  177.0940  145.6900 C   0  0  0  0  0  3  0  0  0  0  0  0
  189.3020  176.8700  147.6920 F   0  0  0  0  0  0  0  0  0  0  0  0
  189.3390  177.8350  142.2220 N   0  0  0  0  0  0  0  0  0  0  0  0
  188.1630  177.3470  145.6390 C   0  0  0  0  0  0  0  0  0  0  0  0
  186.9280  177.3580  146.2770 O   0  0  0  0  0  1  0  0  0  0  0  0
  188.2690  177.5780  144.2690 C   0  0  0  0  0  0  0  0  0  0  0  0
  187.5200  178.3260  140.7080 N   0  0  0  0  0  0  0  0  0  0  0  0
  189.3490  177.1000  146.3560 C   0  0  0  0  0  0  0  0  0  0  0  0
  189.4790  177.5700  143.6180 C   0  0  0  0  0  0  0  0  0  0  0  0
  187.2890  177.8570  143.2460 C   0  0  0  0  0  0  0  0  0  0  0  0
  190.6680  177.3310  144.3050 C   0  0  0  0  0  3  0  0  0  0  0  0
  189.5220  177.4250  137.0550 C   0  0  0  0  0  3  0  0  0  0  0  0
  188.2130  178.0140  139.4780 C   0  0  0  0  0  0  0  0  0  0  0  0
  188.7660  179.0400  138.6910 C   0  0  0  0  0  3  0  0  0  0  0  0
  189.4190  178.7470  137.4900 C   0  0  0  0  0  3  0  0  0  0  0  0
  188.9700  176.3950  137.8200 C   0  0  0  0  0  3  0  0  0  0  0  0
  188.3170  176.6880  139.0190 C   0  0  0  0  0  3  0  0  0  0  0  0
  186.2220  178.9990  140.6430 C   0  0  0  0  0  2  0  0  0  0  0  0
  183.7780  176.4860  137.9290 C   0  0  0  0  0  2  0  0  0  0  0  0
  182.6040  177.0830  138.6920 C   0  0  0  0  0  2  0  0  0  0  0  0
  185.2080  178.1450  139.8960 C   0  0  0  0  0  3  0  0  0  0  0  0
  184.7890  177.5370  137.4590 C   0  0  0  0  0  2  0  0  0  0  0  0
  182.9200  177.1020  140.1830 C   0  0  0  0  0  2  0  0  0  0  0  0
  183.8420  178.2570  140.5640 C   0  0  0  0  0  2  0  0  0  0  0  0
  185.1010  178.6500  138.4650 C   0  0  0  0  0  2  0  0  0  0  0  0
  1  5  2  0  0  0  0
  1 12  1  0  0  0  0
  3 10  1  0  0  0  0
  5 11  1  0  0  0  0
  6  7  1  0  0  0  0
  6 10  2  0  0  0  0
  8  6  1  0  0  0  0
  9  1  1  0  0  0  0
 10  4  1  0  0  0  0
 11  8  2  0  0  0  0
 11 13  1  0  0  0  0
 12  2  2  0  0  0  0
 12  8  1  0  0  0  0
 13  3  2  0  0  0  0
 14 17  2  0  0  0  0
 14 18  1  0  0  0  0
 15  9  1  0  0  0  0
 16 15  2  0  0  0  0
 17 16  1  0  0  0  0
 18 19  2  0  0  0  0
 19 15  1  0  0  0  0
 20  9  1  0  0  0  0
 21 22  1  0  0  0  0
 22 25  1  0  0  0  0
 23 26  1  0  0  0  0
 23 20  1  0  0  0  0
 24 21  1  0  0  0  0
 24 27  1  0  0  0  0
 25 26  1  0  0  0  0
 27 23  1  0  0  0  0
M  END
>  <MODEL>
7

>  <REMARK>
 VINA RESULT:      -7.0      3.116      5.367
  Name = 
  3 active torsions:
  status: ('A' for Active; 'I' for Inactive)
    1  A    between atoms: C_1  and  N_15
    2  A    between atoms: C_1  and  C_18
    3  A    between atoms: C_9  and  N_15
                            x       y       z     vdW  Elec       q    Type
                         _______ _______ _______ _____ _____    ______ ____

>  <TORSDO>
F 3

$$$$
=
 OpenBabel11052413453D

 27 30  0  0  0  0  0  0  0  0999 V2000
  188.2960  178.1030  140.2480 C   0  0  0  0  0  0  0  0  0  0  0  0
  190.6240  177.4490  139.8340 O   0  0  0  0  0  0  0  0  0  0  0  0
  187.3080  177.2910  135.8710 C   0  0  0  0  0  3  0  0  0  0  0  0
  189.1910  176.5480  134.5970 F   0  0  0  0  0  0  0  0  0  0  0  0
  187.2180  178.1890  139.5230 N   0  0  0  0  0  0  0  0  0  0  0  0
  189.4980  177.0340  136.9220 C   0  0  0  0  0  0  0  0  0  0  0  0
  190.8470  176.7060  136.8580 O   0  0  0  0  0  1  0  0  0  0  0  0
  188.9160  177.4550  138.1160 C   0  0  0  0  0  0  0  0  0  0  0  0
  188.3440  178.4780  141.6410 N   0  0  0  0  0  0  0  0  0  0  0  0
  188.6750  176.9520  135.7840 C   0  0  0  0  0  0  0  0  0  0  0  0
  187.5850  177.7830  138.2040 C   0  0  0  0  0  0  0  0  0  0  0  0
  189.4430  177.6510  139.4460 C   0  0  0  0  0  0  0  0  0  0  0  0
  186.7480  177.7120  137.0920 C   0  0  0  0  0  3  0  0  0  0  0  0
  184.8580  178.4270  144.0940 C   0  0  0  0  0  3  0  0  0  0  0  0
  187.1650  178.4760  142.4800 C   0  0  0  0  0  0  0  0  0  0  0  0
  187.0800  177.6130  143.5880 C   0  0  0  0  0  3  0  0  0  0  0  0
  185.9360  177.5910  144.3910 C   0  0  0  0  0  3  0  0  0  0  0  0
  184.9230  179.2830  142.9930 C   0  0  0  0  0  3  0  0  0  0  0  0
  186.0660  179.3040  142.1900 C   0  0  0  0  0  3  0  0  0  0  0  0
  189.6290  178.8670  142.2220 C   0  0  0  0  0  2  0  0  0  0  0  0
  190.2190  176.5480  145.9540 C   0  0  0  0  0  2  0  0  0  0  0  0
  191.6070  176.2880  145.3850 C   0  0  0  0  0  2  0  0  0  0  0  0
  190.0060  177.9420  143.3700 C   0  0  0  0  0  3  0  0  0  0  0  0
  189.8150  178.0250  145.9080 C   0  0  0  0  0  2  0  0  0  0  0  0
  191.4980  175.9670  143.8990 C   0  0  0  0  0  2  0  0  0  0  0  0
  191.3110  177.2210  143.0490 C   0  0  0  0  0  2  0  0  0  0  0  0
  190.1990  178.7750  144.6280 C   0  0  0  0  0  2  0  0  0  0  0  0
  1  9  1  0  0  0  0
  3 13  1  0  0  0  0
  4 10  1  0  0  0  0
  5  1  2  0  0  0  0
  6  8  2  0  0  0  0
  7  6  1  0  0  0  0
  8 11  1  0  0  0  0
  8 12  1  0  0  0  0
  9 20  1  0  0  0  0
  9 15  1  0  0  0  0
 10  3  2  0  0  0  0
 10  6  1  0  0  0  0
 11  5  1  0  0  0  0
 12  2  2  0  0  0  0
 12  1  1  0  0  0  0
 13 11  2  0  0  0  0
 14 17  1  0  0  0  0
 15 16  1  0  0  0  0
 16 17  2  0  0  0  0
 18 14  2  0  0  0  0
 19 15  2  0  0  0  0
 19 18  1  0  0  0  0
 20 23  1  0  0  0  0
 22 21  1  0  0  0  0
 23 27  1  0  0  0  0
 24 21  1  0  0  0  0
 25 22  1  0  0  0  0
 26 23  1  0  0  0  0
 26 25  1  0  0  0  0
 27 24  1  0  0  0  0
M  END
>  <MODEL>
8

>  <REMARK>
 VINA RESULT:      -6.9      3.355      6.858
  Name = 
  3 active torsions:
  status: ('A' for Active; 'I' for Inactive)
    1  A    between atoms: C_1  and  N_15
    2  A    between atoms: C_1  and  C_18
    3  A    between atoms: C_9  and  N_15
                            x       y       z     vdW  Elec       q    Type
                         _______ _______ _______ _____ _____    ______ ____

>  <TORSDO>
F 3

$$$$
=
 OpenBabel11052413453D

 27 30  0  0  0  0  0  0  0  0999 V2000
  184.4260  178.2560  142.2600 C   0  0  0  0  0  0  0  0  0  0  0  0
  182.9540  178.8650  144.1260 O   0  0  0  0  0  0  0  0  0  0  0  0
  187.8460  177.5870  145.2000 C   0  0  0  0  0  3  0  0  0  0  0  0
  187.2350  178.0060  147.4750 F   0  0  0  0  0  0  0  0  0  0  0  0
  185.6720  177.8930  142.1460 N   0  0  0  0  0  0  0  0  0  0  0  0
  185.5800  178.3020  145.7690 C   0  0  0  0  0  0  0  0  0  0  0  0
  184.6220  178.6790  146.7020 O   0  0  0  0  0  1  0  0  0  0  0  0
  185.2780  178.2450  144.4100 C   0  0  0  0  0  0  0  0  0  0  0  0
  183.5500  178.4400  141.1270 N   0  0  0  0  0  0  0  0  0  0  0  0
  186.8880  177.9660  146.1650 C   0  0  0  0  0  0  0  0  0  0  0  0
  186.2090  177.8740  143.4690 C   0  0  0  0  0  0  0  0  0  0  0  0
  184.0710  178.5140  143.6640 C   0  0  0  0  0  0  0  0  0  0  0  0
  187.5110  177.5380  143.8340 C   0  0  0  0  0  3  0  0  0  0  0  0
  184.1760  176.5000  137.3840 C   0  0  0  0  0  3  0  0  0  0  0  0
  183.7720  177.7690  139.8650 C   0  0  0  0  0  0  0  0  0  0  0  0
  184.6510  178.3150  138.9120 C   0  0  0  0  0  3  0  0  0  0  0  0
  184.8550  177.6830  137.6820 C   0  0  0  0  0  3  0  0  0  0  0  0
  183.2920  175.9500  138.3140 C   0  0  0  0  0  3  0  0  0  0  0  0
  183.0890  176.5810  139.5440 C   0  0  0  0  0  3  0  0  0  0  0  0
  182.3990  179.3320  141.2650 C   0  0  0  0  0  2  0  0  0  0  0  0
  180.1750  179.0550  137.4400 C   0  0  0  0  0  2  0  0  0  0  0  0
  178.9500  179.2560  138.3210 C   0  0  0  0  0  2  0  0  0  0  0  0
  181.4390  179.1610  140.0960 C   0  0  0  0  0  3  0  0  0  0  0  0
  181.2920  180.0660  137.7200 C   0  0  0  0  0  2  0  0  0  0  0  0
  179.0800  178.4060  139.5790 C   0  0  0  0  0  2  0  0  0  0  0  0
  180.0090  179.0380  140.6110 C   0  0  0  0  0  2  0  0  0  0  0  0
  181.5370  180.3850  139.1990 C   0  0  0  0  0  2  0  0  0  0  0  0
  1 12  1  0  0  0  0
  3 10  1  0  0  0  0
  5  1  2  0  0  0  0
  5 11  1  0  0  0  0
  6 10  2  0  0  0  0
  6  7  1  0  0  0  0
  8  6  1  0  0  0  0
  9 20  1  0  0  0  0
  9  1  1  0  0  0  0
 10  4  1  0  0  0  0
 11 13  1  0  0  0  0
 11  8  2  0  0  0  0
 12  2  2  0  0  0  0
 12  8  1  0  0  0  0
 13  3  2  0  0  0  0
 14 17  2  0  0  0  0
 14 18  1  0  0  0  0
 15  9  1  0  0  0  0
 16 15  2  0  0  0  0
 17 16  1  0  0  0  0
 18 19  2  0  0  0  0
 19 15  1  0  0  0  0
 21 24  1  0  0  0  0
 21 22  1  0  0  0  0
 22 25  1  0  0  0  0
 23 26  1  0  0  0  0
 23 20  1  0  0  0  0
 24 27  1  0  0  0  0
 25 26  1  0  0  0  0
 27 23  1  0  0  0  0
M  END
>  <MODEL>
9

>  <REMARK>
 VINA RESULT:      -6.8      3.834      6.913
  Name = 
  3 active torsions:
  status: ('A' for Active; 'I' for Inactive)
    1  A    between atoms: C_1  and  N_15
    2  A    between atoms: C_1  and  C_18
    3  A    between atoms: C_9  and  N_15
                            x       y       z     vdW  Elec       q    Type
                         _______ _______ _______ _____ _____    ______ ____

>  <TORSDO>
F 3

$$$$
