=
 OpenBabel11052412383D

 30 32  0  0  1  0  0  0  0  0999 V2000
  190.9670  176.3700  141.8080 C   0  0  0  0  0  2  0  0  0  0  0  0
  189.5530  176.7970  141.3870 C   0  0  2  0  0  3  0  0  0  0  0  0
  192.1150  179.0610  144.3160 C   0  0  0  0  0  1  0  0  0  0  0  0
  185.2030  179.1570  140.0080 C   0  0  0  0  0  2  0  0  0  0  0  0
  188.5500  177.7180  138.9920 P   0  0  1  0  0  4  0  0  0  0  0  0
  187.1130  177.1680  142.1140 C   0  0  0  0  0  2  0  0  0  0  0  0
  189.2240  179.1730  143.1630 O   0  0  0  0  0  1  0  0  0  0  0  0
  188.7920  179.2910  137.6570 Cl  0  0  0  0  0  0  0  0  0  0  0  0
  189.5990  178.0040  140.4500 C   0  0  0  0  0  2  0  0  0  0  0  0
  186.8160  178.6070  141.6820 C   0  0  2  0  0  3  0  0  0  0  0  0
  184.5170  178.8630  141.1960 O   0  0  0  0  0  0  0  0  0  0  0  0
  191.7600  177.5330  142.4040 C   0  0  0  0  0  2  0  0  0  0  0  0
  190.2010  177.3800  144.4700 C   0  0  2  0  0  3  0  0  0  0  0  0
  191.6150  177.6830  143.9190 C   0  0  2  0  0  3  0  0  0  0  0  0
  188.5060  175.6160  143.1590 O   0  0  0  0  0  1  0  0  0  0  0  0
  188.9940  177.8900  143.6690 C   0  0  2  0  0  3  0  0  0  0  0  0
  188.5560  176.8850  142.5760 C   0  0  1  0  0  0  0  0  0  0  0  0
  185.4640  179.0130  142.2190 C   0  0  0  0  0  2  0  0  0  0  0  0
  186.9250  177.6030  139.4670 O   0  0  0  0  0  0  0  0  0  0  0  0
  186.6560  178.7780  140.1810 C   0  0  1  0  0  3  0  0  0  0  0  0
  189.0530  176.1740  138.1810 C   0  0  0  0  0  2  0  0  0  0  0  0
  190.3570  176.3840  137.4440 C   0  0  0  0  0  2  0  0  0  0  0  0
  191.4630  175.6300  138.1500 C   0  0  0  0  0  2  0  0  0  0  0  0
  192.6400  176.5550  138.3770 C   0  0  0  0  0  1  0  0  0  0  0  0
  190.0080  177.4370  145.9960 C   0  0  1  0  0  3  0  0  0  0  0  0
  188.5540  177.1710  146.3890 C   0  0  0  0  0  3  0  0  0  0  0  0
  187.8780  178.3790  146.5700 O   0  0  0  0  0  1  0  0  0  0  0  0
  188.5040  176.4390  147.5770 O   0  0  0  0  0  1  0  0  0  0  0  0
  191.7370  177.2290  147.6430 O   0  0  0  0  0  1  0  0  0  0  0  0
  190.9530  176.5020  146.7460 C   0  0  0  0  0  2  0  0  0  0  0  0
  1 12  1  0  0  0  0
  2  9  1  1  0  0  0
  2  1  1  0  0  0  0
  2 17  1  0  0  0  0
  4 11  1  0  0  0  0
  5  8  1  6  0  0  0
  5 19  1  0  0  0  0
  5  9  1  0  0  0  0
  6 17  1  0  0  0  0
 10  6  1  6  0  0  0
 10 18  1  0  0  0  0
 11 18  1  0  0  0  0
 12 14  1  0  0  0  0
 13 25  1  1  0  0  0
 14  3  1  6  0  0  0
 14 13  1  0  0  0  0
 16  7  1  6  0  0  0
 16 13  1  0  0  0  0
 17 15  1  1  0  0  0
 17 16  1  0  0  0  0
 19 20  1  0  0  0  0
 20  4  1  1  0  0  0
 20 10  1  0  0  0  0
 21  5  1  0  0  0  0
 22 23  1  0  0  0  0
 22 21  1  0  0  0  0
 23 24  1  0  0  0  0
 25 26  1  0  0  0  0
 25 30  1  1  0  0  0
 26 27  1  0  0  0  0
 26 28  1  0  0  0  0
 30 29  1  0  0  0  0
M  END
>  <MODEL>
1

>  <REMARK>
 VINA RESULT:      -5.7      0.000      0.000
  Name = 
  6 active torsions:
  status: ('A' for Active; 'I' for Inactive)
    1  A    between atoms: C_2  and  C_28
    2  A    between atoms: C_6  and  P_8
    3  A    between atoms: C_6  and  C_21
    4  A    between atoms: C_9  and  C_21
    5  A    between atoms: C_19  and  C_28
    6  A    between atoms: C_28  and  C_29
                            x       y       z     vdW  Elec       q    Type
                         _______ _______ _______ _____ _____    ______ ____

>  <TORSDO>
F 6

$$$$
=
 OpenBabel11052412383D

 30 32  0  0  1  0  0  0  0  0999 V2000
  190.9870  176.2970  141.7100 C   0  0  0  0  0  2  0  0  0  0  0  0
  189.5610  176.7420  141.3530 C   0  0  2  0  0  3  0  0  0  0  0  0
  192.1630  178.7850  144.4070 C   0  0  0  0  0  1  0  0  0  0  0  0
  185.1620  179.1600  140.2600 C   0  0  0  0  0  2  0  0  0  0  0  0
  188.5000  177.8460  139.0620 P   0  0  1  0  0  4  0  0  0  0  0  0
  187.1330  177.0260  142.1570 C   0  0  0  0  0  2  0  0  0  0  0  0
  189.2470  178.9610  143.3250 O   0  0  0  0  0  1  0  0  0  0  0  0
  188.7000  179.5260  137.8560 Cl  0  0  0  0  0  0  0  0  0  0  0  0
  189.5770  178.0220  140.5170 C   0  0  0  0  0  2  0  0  0  0  0  0
  186.8150  178.4930  141.8510 C   0  0  2  0  0  3  0  0  0  0  0  0
  184.5040  178.7630  141.4330 O   0  0  0  0  0  0  0  0  0  0  0  0
  191.7810  177.4160  142.3830 C   0  0  0  0  0  2  0  0  0  0  0  0
  190.2680  177.0770  144.4600 C   0  0  2  0  0  3  0  0  0  0  0  0
  191.6670  177.4390  143.9080 C   0  0  2  0  0  3  0  0  0  0  0  0
  188.5620  175.4090  143.0430 O   0  0  0  0  0  1  0  0  0  0  0  0
  189.0400  177.6390  143.7280 C   0  0  2  0  0  3  0  0  0  0  0  0
  188.5880  176.7220  142.5650 C   0  0  1  0  0  0  0  0  0  0  0  0
  185.4700  178.8390  142.4460 C   0  0  0  0  0  2  0  0  0  0  0  0
  186.8860  177.6750  139.5580 O   0  0  0  0  0  0  0  0  0  0  0  0
  186.6210  178.7840  140.3730 C   0  0  1  0  0  3  0  0  0  0  0  0
  188.9990  176.3790  138.1180 C   0  0  0  0  0  2  0  0  0  0  0  0
  190.3430  176.6230  137.4650 C   0  0  0  0  0  2  0  0  0  0  0  0
  191.3920  175.7620  138.1340 C   0  0  0  0  0  2  0  0  0  0  0  0
  192.7670  176.3340  137.8550 C   0  0  0  0  0  1  0  0  0  0  0  0
  190.1060  177.0070  145.9890 C   0  0  1  0  0  3  0  0  0  0  0  0
  191.4590  176.9170  146.6950 C   0  0  0  0  0  3  0  0  0  0  0  0
  191.8850  175.5890  146.7480 O   0  0  0  0  0  1  0  0  0  0  0  0
  191.3570  177.4140  147.9960 O   0  0  0  0  0  1  0  0  0  0  0  0
  188.1150  177.6700  147.1470 O   0  0  0  0  0  1  0  0  0  0  0  0
  189.2760  178.1600  146.5490 C   0  0  0  0  0  2  0  0  0  0  0  0
  1 12  1  0  0  0  0
  2  9  1  1  0  0  0
  2  1  1  0  0  0  0
  2 17  1  0  0  0  0
  4 11  1  0  0  0  0
  5  8  1  6  0  0  0
  5 19  1  0  0  0  0
  5  9  1  0  0  0  0
  6 17  1  0  0  0  0
 10  6  1  6  0  0  0
 10 18  1  0  0  0  0
 11 18  1  0  0  0  0
 12 14  1  0  0  0  0
 13 25  1  1  0  0  0
 14  3  1  6  0  0  0
 14 13  1  0  0  0  0
 16  7  1  6  0  0  0
 16 13  1  0  0  0  0
 17 15  1  1  0  0  0
 17 16  1  0  0  0  0
 19 20  1  0  0  0  0
 20  4  1  1  0  0  0
 20 10  1  0  0  0  0
 21  5  1  0  0  0  0
 22 21  1  0  0  0  0
 22 23  1  0  0  0  0
 24 23  1  0  0  0  0
 25 30  1  1  0  0  0
 25 26  1  0  0  0  0
 26 27  1  0  0  0  0
 26 28  1  0  0  0  0
 30 29  1  0  0  0  0
M  END
>  <MODEL>
2

>  <REMARK>
 VINA RESULT:      -4.8      0.521      1.444
  Name = 
  6 active torsions:
  status: ('A' for Active; 'I' for Inactive)
    1  A    between atoms: C_2  and  C_28
    2  A    between atoms: C_6  and  P_8
    3  A    between atoms: C_6  and  C_21
    4  A    between atoms: C_9  and  C_21
    5  A    between atoms: C_19  and  C_28
    6  A    between atoms: C_28  and  C_29
                            x       y       z     vdW  Elec       q    Type
                         _______ _______ _______ _____ _____    ______ ____

>  <TORSDO>
F 6

$$$$
=
 OpenBabel11052412383D

 30 32  0  0  1  0  0  0  0  0999 V2000
  187.2720  177.3730  145.5370 C   0  0  0  0  0  2  0  0  0  0  0  0
  188.3490  177.1710  144.4600 C   0  0  2  0  0  3  0  0  0  0  0  0
  185.0820  180.2610  144.2310 C   0  0  0  0  0  1  0  0  0  0  0  0
  191.9310  177.5030  140.7930 C   0  0  0  0  0  2  0  0  0  0  0  0
  191.0670  177.6190  144.4730 P   0  0  1  0  0  4  0  0  0  0  0  0
  188.8610  176.4720  142.0370 C   0  0  0  0  0  2  0  0  0  0  0  0
  187.3920  179.1640  142.4530 O   0  0  0  0  0  1  0  0  0  0  0  0
  192.4310  179.1660  144.7190 Cl  0  0  0  0  0  0  0  0  0  0  0  0
  189.3800  178.2980  144.4960 C   0  0  0  0  0  2  0  0  0  0  0  0
  189.6460  177.6590  141.4710 C   0  0  2  0  0  3  0  0  0  0  0  0
  191.1370  176.9310  139.7870 O   0  0  0  0  0  0  0  0  0  0  0  0
  186.6230  178.7530  145.4420 C   0  0  0  0  0  2  0  0  0  0  0  0
  185.4720  177.9300  143.2700 C   0  0  2  0  0  3  0  0  0  0  0  0
  185.3870  178.8070  144.5420 C   0  0  2  0  0  3  0  0  0  0  0  0
  187.0320  175.6350  143.2190 O   0  0  0  0  0  1  0  0  0  0  0  0
  186.8050  177.8960  142.5080 C   0  0  2  0  0  3  0  0  0  0  0  0
  187.7640  176.8160  143.0640 C   0  0  1  0  0  0  0  0  0  0  0  0
  189.8510  177.4510  139.9890 C   0  0  0  0  0  2  0  0  0  0  0  0
  191.3470  176.8240  143.0000 O   0  0  0  0  0  0  0  0  0  0  0  0
  191.0650  177.7670  142.0020 C   0  0  1  0  0  3  0  0  0  0  0  0
  191.2590  176.4410  145.8400 C   0  0  0  0  0  2  0  0  0  0  0  0
  191.1080  177.1610  147.1620 C   0  0  0  0  0  2  0  0  0  0  0  0
  189.7400  176.8730  147.7400 C   0  0  0  0  0  2  0  0  0  0  0  0
  189.2110  178.1140  148.4280 C   0  0  0  0  0  1  0  0  0  0  0  0
  184.2310  177.8790  142.3610 C   0  0  1  0  0  3  0  0  0  0  0  0
  183.1190  178.7940  142.8740 C   0  0  0  0  0  3  0  0  0  0  0  0
  182.5430  178.2510  144.0250 O   0  0  0  0  0  1  0  0  0  0  0  0
  182.1310  178.9440  141.8990 O   0  0  0  0  0  1  0  0  0  0  0  0
  184.7540  179.5560  140.7300 O   0  0  0  0  0  1  0  0  0  0  0  0
  184.5560  178.1850  140.9010 C   0  0  0  0  0  2  0  0  0  0  0  0
  2  9  1  6  0  0  0
  2  1  1  0  0  0  0
  5  9  1  0  0  0  0
  5  8  1  1  0  0  0
  5 21  1  0  0  0  0
  6 17  1  0  0  0  0
 10 18  1  6  0  0  0
 10 20  1  0  0  0  0
 10  6  1  0  0  0  0
 11 18  1  0  0  0  0
 11  4  1  0  0  0  0
 12  1  1  0  0  0  0
 13 25  1  6  0  0  0
 13 14  1  0  0  0  0
 14  3  1  6  0  0  0
 14 12  1  0  0  0  0
 16  7  1  1  0  0  0
 16 17  1  0  0  0  0
 16 13  1  0  0  0  0
 17 15  1  1  0  0  0
 17  2  1  0  0  0  0
 19  5  1  0  0  0  0
 20  4  1  6  0  0  0
 20 19  1  0  0  0  0
 21 22  1  0  0  0  0
 22 23  1  0  0  0  0
 23 24  1  0  0  0  0
 25 30  1  6  0  0  0
 25 26  1  0  0  0  0
 26 27  1  0  0  0  0
 28 26  1  0  0  0  0
 29 30  1  0  0  0  0
M  END
>  <MODEL>
3

>  <REMARK>
 VINA RESULT:      -4.4      2.854      6.509
  Name = 
  6 active torsions:
  status: ('A' for Active; 'I' for Inactive)
    1  A    between atoms: C_2  and  C_28
    2  A    between atoms: C_6  and  P_8
    3  A    between atoms: C_6  and  C_21
    4  A    between atoms: C_9  and  C_21
    5  A    between atoms: C_19  and  C_28
    6  A    between atoms: C_28  and  C_29
                            x       y       z     vdW  Elec       q    Type
                         _______ _______ _______ _____ _____    ______ ____

>  <TORSDO>
F 6

$$$$
=
 OpenBabel11052412383D

 30 32  0  0  1  0  0  0  0  0999 V2000
  180.7150  176.0900  138.3290 C   0  0  0  0  0  2  0  0  0  0  0  0
  182.0590  176.0940  137.5850 C   0  0  2  0  0  3  0  0  0  0  0  0
  181.3450  178.1260  141.5390 C   0  0  0  0  0  1  0  0  0  0  0  0
  186.9520  176.0160  136.0210 C   0  0  0  0  0  2  0  0  0  0  0  0
  183.8670  174.0850  137.0470 P   0  0  1  0  0  4  0  0  0  0  0  0
  183.8320  177.4960  136.3550 C   0  0  0  0  0  2  0  0  0  0  0  0
  183.6130  177.8630  139.4200 O   0  0  0  0  0  1  0  0  0  0  0  0
  185.0800  172.7200  138.0370 Cl  0  0  0  0  0  0  0  0  0  0  0  0
  183.0680  175.1710  138.2680 C   0  0  0  0  0  2  0  0  0  0  0  0
  185.1380  177.1540  137.0790 C   0  0  2  0  0  3  0  0  0  0  0  0
  186.9740  177.3550  135.6040 O   0  0  0  0  0  0  0  0  0  0  0  0
  180.8830  176.4170  139.8120 C   0  0  0  0  0  2  0  0  0  0  0  0
  181.4220  178.8490  139.0920 C   0  0  2  0  0  3  0  0  0  0  0  0
  180.7870  177.9070  140.1430 C   0  0  2  0  0  3  0  0  0  0  0  0
  181.5820  178.1070  136.4230 O   0  0  0  0  0  1  0  0  0  0  0  0
  182.7600  178.4280  138.4670 C   0  0  2  0  0  3  0  0  0  0  0  0
  182.5620  177.5210  137.2280 C   0  0  1  0  0  0  0  0  0  0  0  0
  186.2360  178.0560  136.5670 C   0  0  0  0  0  2  0  0  0  0  0  0
  184.7920  175.0140  135.9700 O   0  0  0  0  0  0  0  0  0  0  0  0
  185.6650  175.7630  136.7710 C   0  0  1  0  0  3  0  0  0  0  0  0
  182.5930  173.1800  136.1230 C   0  0  0  0  0  2  0  0  0  0  0  0
  182.1870  171.9410  136.8910 C   0  0  0  0  0  2  0  0  0  0  0  0
  180.8200  172.1540  137.5050 C   0  0  0  0  0  2  0  0  0  0  0  0
  179.9390  172.9050  136.5290 C   0  0  0  0  0  1  0  0  0  0  0  0
  181.2910  180.3650  139.3280 C   0  0  1  0  0  3  0  0  0  0  0  0
  181.8700  181.1670  138.1620 C   0  0  0  0  0  3  0  0  0  0  0  0
  182.6180  182.2420  138.6450 O   0  0  0  0  0  1  0  0  0  0  0  0
  180.8400  181.6550  137.3560 O   0  0  0  0  0  1  0  0  0  0  0  0
  179.7550  181.2680  140.9310 O   0  0  0  0  0  1  0  0  0  0  0  0
  179.8560  180.7940  139.6230 C   0  0  0  0  0  2  0  0  0  0  0  0
  1 12  1  0  0  0  0
  2  9  1  1  0  0  0
  2  1  1  0  0  0  0
  5  8  1  1  0  0  0
  5  9  1  0  0  0  0
  6 17  1  0  0  0  0
 10  6  1  6  0  0  0
 11  4  1  0  0  0  0
 11 18  1  0  0  0  0
 12 14  1  0  0  0  0
 13 25  1  1  0  0  0
 13 14  1  0  0  0  0
 14  3  1  1  0  0  0
 16 13  1  0  0  0  0
 16  7  1  1  0  0  0
 17 15  1  6  0  0  0
 17  2  1  0  0  0  0
 17 16  1  0  0  0  0
 18 10  1  0  0  0  0
 19 20  1  0  0  0  0
 19  5  1  0  0  0  0
 20  4  1  6  0  0  0
 20 10  1  0  0  0  0
 21 22  1  0  0  0  0
 21  5  1  0  0  0  0
 22 23  1  0  0  0  0
 24 23  1  0  0  0  0
 25 30  1  6  0  0  0
 26 27  1  0  0  0  0
 26 25  1  0  0  0  0
 28 26  1  0  0  0  0
 30 29  1  0  0  0  0
M  END
>  <MODEL>
4

>  <REMARK>
 VINA RESULT:      -4.3      7.092      9.524
  Name = 
  6 active torsions:
  status: ('A' for Active; 'I' for Inactive)
    1  A    between atoms: C_2  and  C_28
    2  A    between atoms: C_6  and  P_8
    3  A    between atoms: C_6  and  C_21
    4  A    between atoms: C_9  and  C_21
    5  A    between atoms: C_19  and  C_28
    6  A    between atoms: C_28  and  C_29
                            x       y       z     vdW  Elec       q    Type
                         _______ _______ _______ _____ _____    ______ ____

>  <TORSDO>
F 6

$$$$
=
 OpenBabel11052412383D

 30 32  0  0  1  0  0  0  0  0999 V2000
  182.0930  175.0070  136.3490 C   0  0  0  0  0  2  0  0  0  0  0  0
  183.5740  175.4000  136.2400 C   0  0  2  0  0  3  0  0  0  0  0  0
  180.9120  176.4840  139.7060 C   0  0  0  0  0  1  0  0  0  0  0  0
  188.5460  176.5270  136.8680 C   0  0  0  0  0  2  0  0  0  0  0  0
  185.8830  173.8990  136.3190 P   0  0  1  0  0  4  0  0  0  0  0  0
  185.2790  177.3130  136.0050 C   0  0  0  0  0  2  0  0  0  0  0  0
  183.8110  177.0500  138.7170 O   0  0  0  0  0  1  0  0  0  0  0  0
  186.9160  172.6220  137.5910 Cl  0  0  0  0  0  0  0  0  0  0  0  0
  184.4340  174.5690  137.1920 C   0  0  0  0  0  2  0  0  0  0  0  0
  186.2450  177.0890  137.1730 C   0  0  2  0  0  3  0  0  0  0  0  0
  188.3970  177.9010  136.6280 O   0  0  0  0  0  0  0  0  0  0  0  0
  181.5890  175.0750  137.7900 C   0  0  0  0  0  2  0  0  0  0  0  0
  181.7470  177.6550  137.5980 C   0  0  2  0  0  3  0  0  0  0  0  0
  181.0080  176.4320  138.1920 C   0  0  2  0  0  3  0  0  0  0  0  0
  183.1020  177.4710  135.1830 O   0  0  0  0  0  1  0  0  0  0  0  0
  183.2810  177.6160  137.5530 C   0  0  2  0  0  3  0  0  0  0  0  0
  183.8070  176.9370  136.2650 C   0  0  1  0  0  0  0  0  0  0  0  0
  187.1960  178.2590  137.2560 C   0  0  0  0  0  2  0  0  0  0  0  0
  186.8930  175.1690  135.8220 O   0  0  0  0  0  0  0  0  0  0  0  0
  187.1750  175.9030  136.9820 C   0  0  1  0  0  3  0  0  0  0  0  0
  185.3300  172.9640  134.8660 C   0  0  0  0  0  2  0  0  0  0  0  0
  184.9340  171.5620  135.2780 C   0  0  0  0  0  2  0  0  0  0  0  0
  183.4290  171.4820  135.4110 C   0  0  0  0  0  2  0  0  0  0  0  0
  183.0660  171.1560  136.8450 C   0  0  0  0  0  1  0  0  0  0  0  0
  181.1660  179.0490  137.9000 C   0  0  1  0  0  3  0  0  0  0  0  0
  182.1570  179.9140  138.6800 C   0  0  0  0  0  3  0  0  0  0  0  0
  181.9680  179.7410  140.0520 O   0  0  0  0  0  1  0  0  0  0  0  0
  181.9730  181.2610  138.3610 O   0  0  0  0  0  1  0  0  0  0  0  0
  180.2310  178.8470  135.7030 O   0  0  0  0  0  1  0  0  0  0  0  0
  180.6830  179.7710  136.6450 C   0  0  0  0  0  2  0  0  0  0  0  0
  1 12  1  0  0  0  0
  2 17  1  0  0  0  0
  2  1  1  1  0  0  0
  2  9  1  0  0  0  0
  5  9  1  0  0  0  0
  5  8  1  1  0  0  0
  6 17  1  0  0  0  0
 10  6  1  6  0  0  0
 10 18  1  0  0  0  0
 11  4  1  0  0  0  0
 11 18  1  0  0  0  0
 12 14  1  0  0  0  0
 13 25  1  1  0  0  0
 13 14  1  0  0  0  0
 14  3  1  1  0  0  0
 16 13  1  0  0  0  0
 16  7  1  1  0  0  0
 17 15  1  6  0  0  0
 17 16  1  0  0  0  0
 19  5  1  0  0  0  0
 19 20  1  0  0  0  0
 20  4  1  6  0  0  0
 20 10  1  0  0  0  0
 21 22  1  0  0  0  0
 21  5  1  0  0  0  0
 22 23  1  0  0  0  0
 23 24  1  0  0  0  0
 25 30  1  6  0  0  0
 25 26  1  0  0  0  0
 26 27  1  0  0  0  0
 28 26  1  0  0  0  0
 29 30  1  0  0  0  0
M  END
>  <MODEL>
5

>  <REMARK>
 VINA RESULT:      -4.1      6.533      9.332
  Name = 
  6 active torsions:
  status: ('A' for Active; 'I' for Inactive)
    1  A    between atoms: C_2  and  C_28
    2  A    between atoms: C_6  and  P_8
    3  A    between atoms: C_6  and  C_21
    4  A    between atoms: C_9  and  C_21
    5  A    between atoms: C_19  and  C_28
    6  A    between atoms: C_28  and  C_29
                            x       y       z     vdW  Elec       q    Type
                         _______ _______ _______ _____ _____    ______ ____

>  <TORSDO>
F 6

$$$$
=
 OpenBabel11052412383D

 30 32  0  0  1  0  0  0  0  0999 V2000
  183.8500  179.4490  139.3630 C   0  0  0  0  0  2  0  0  0  0  0  0
  183.7780  178.0110  138.8270 C   0  0  2  0  0  3  0  0  0  0  0  0
  180.4160  180.9920  138.5430 C   0  0  0  0  0  1  0  0  0  0  0  0
  183.0240  173.6180  136.2730 C   0  0  0  0  0  2  0  0  0  0  0  0
  185.0750  176.7600  136.7430 P   0  0  1  0  0  4  0  0  0  0  0  0
  182.6800  175.6930  139.0330 C   0  0  0  0  0  2  0  0  0  0  0  0
  180.9390  177.9890  137.9050 O   0  0  0  0  0  1  0  0  0  0  0  0
  185.2910  176.8980  134.6810 Cl  0  0  0  0  0  0  0  0  0  0  0  0
  183.8550  177.9880  137.3010 C   0  0  0  0  0  2  0  0  0  0  0  0
  182.1740  175.4000  137.6170 C   0  0  2  0  0  3  0  0  0  0  0  0
  182.1450  173.0700  137.2190 O   0  0  0  0  0  0  0  0  0  0  0  0
  182.7980  180.3500  138.7180 C   0  0  0  0  0  2  0  0  0  0  0  0
  181.0200  179.0490  140.0840 C   0  0  2  0  0  3  0  0  0  0  0  0
  181.4650  180.3970  139.4660 C   0  0  2  0  0  3  0  0  0  0  0  0
  182.8860  177.1430  140.8480 O   0  0  0  0  0  1  0  0  0  0  0  0
  181.2330  177.7740  139.2550 C   0  0  2  0  0  3  0  0  0  0  0  0
  182.6410  177.1690  139.4720 C   0  0  1  0  0  0  0  0  0  0  0  0
  181.3430  174.1390  137.6430 C   0  0  0  0  0  2  0  0  0  0  0  0
  184.5590  175.2010  137.1720 O   0  0  0  0  0  0  0  0  0  0  0  0
  183.2750  175.0650  136.6260 C   0  0  1  0  0  3  0  0  0  0  0  0
  186.6760  177.1030  137.5270 C   0  0  0  0  0  2  0  0  0  0  0  0
  187.1710  178.4690  137.1050 C   0  0  0  0  0  2  0  0  0  0  0  0
  188.6670  178.4160  136.8810 C   0  0  0  0  0  2  0  0  0  0  0  0
  189.1170  176.9720  136.8180 C   0  0  0  0  0  1  0  0  0  0  0  0
  179.7240  179.0440  140.9160 C   0  0  1  0  0  3  0  0  0  0  0  0
  179.6810  177.8600  141.8820 C   0  0  0  0  0  3  0  0  0  0  0  0
  178.9540  176.8090  141.3200 O   0  0  0  0  0  1  0  0  0  0  0  0
  179.0770  178.2410  143.0820 O   0  0  0  0  0  1  0  0  0  0  0  0
  180.4310  180.5030  142.6820 O   0  0  0  0  0  1  0  0  0  0  0  0
  179.4940  180.3590  141.6570 C   0  0  0  0  0  2  0  0  0  0  0  0
  2  9  1  6  0  0  0
  2  1  1  0  0  0  0
  2 17  1  0  0  0  0
  4 11  1  0  0  0  0
  5  8  1  6  0  0  0
  5 19  1  0  0  0  0
  5  9  1  0  0  0  0
  5 21  1  0  0  0  0
  6 17  1  0  0  0  0
 10 18  1  1  0  0  0
 10  6  1  0  0  0  0
 11 18  1  0  0  0  0
 12  1  1  0  0  0  0
 12 14  1  0  0  0  0
 13 25  1  6  0  0  0
 14  3  1  6  0  0  0
 14 13  1  0  0  0  0
 16  7  1  6  0  0  0
 16 17  1  0  0  0  0
 16 13  1  0  0  0  0
 17 15  1  1  0  0  0
 20  4  1  1  0  0  0
 20 19  1  0  0  0  0
 20 10  1  0  0  0  0
 22 21  1  0  0  0  0
 23 22  1  0  0  0  0
 24 23  1  0  0  0  0
 25 30  1  1  0  0  0
 25 26  1  0  0  0  0
 26 28  1  0  0  0  0
 27 26  1  0  0  0  0
 30 29  1  0  0  0  0
M  END
>  <MODEL>
6

>  <REMARK>
 VINA RESULT:      -4.1      6.126      8.394
  Name = 
  6 active torsions:
  status: ('A' for Active; 'I' for Inactive)
    1  A    between atoms: C_2  and  C_28
    2  A    between atoms: C_6  and  P_8
    3  A    between atoms: C_6  and  C_21
    4  A    between atoms: C_9  and  C_21
    5  A    between atoms: C_19  and  C_28
    6  A    between atoms: C_28  and  C_29
                            x       y       z     vdW  Elec       q    Type
                         _______ _______ _______ _____ _____    ______ ____

>  <TORSDO>
F 6

$$$$
=
 OpenBabel11052412383D

 30 32  0  0  1  0  0  0  0  0999 V2000
  188.8630  177.4880  136.8260 C   0  0  0  0  0  2  0  0  0  0  0  0
  188.3900  176.1450  136.2490 C   0  0  2  0  0  3  0  0  0  0  0  0
  191.3390  176.5530  139.6260 C   0  0  0  0  0  1  0  0  0  0  0  0
  186.8280  171.3490  135.2780 C   0  0  0  0  0  2  0  0  0  0  0  0
  185.9450  174.8760  136.3160 P   0  0  1  0  0  4  0  0  0  0  0  0
  189.0360  174.0070  134.9710 C   0  0  0  0  0  2  0  0  0  0  0  0
  190.0990  174.3050  137.8620 O   0  0  0  0  0  1  0  0  0  0  0  0
  184.5810  174.1070  137.6810 Cl  0  0  0  0  0  0  0  0  0  0  0  0
  187.4260  175.4440  137.2060 C   0  0  0  0  0  2  0  0  0  0  0  0
  188.5610  172.8750  135.8870 C   0  0  2  0  0  3  0  0  0  0  0  0
  188.0010  170.9650  134.6120 O   0  0  0  0  0  0  0  0  0  0  0  0
  189.4540  177.3300  138.2260 C   0  0  0  0  0  2  0  0  0  0  0  0
  191.4760  176.1530  137.1090 C   0  0  2  0  0  3  0  0  0  0  0  0
  190.9600  177.0660  138.2480 C   0  0  2  0  0  3  0  0  0  0  0  0
  190.1570  176.0300  134.6700 O   0  0  0  0  0  1  0  0  0  0  0  0
  190.6280  174.9300  136.7290 C   0  0  2  0  0  3  0  0  0  0  0  0
  189.5460  175.2780  135.6770 C   0  0  1  0  0  0  0  0  0  0  0  0
  189.0480  171.5570  135.3330 C   0  0  0  0  0  2  0  0  0  0  0  0
  186.3740  173.6850  135.1870 O   0  0  0  0  0  0  0  0  0  0  0  0
  187.0530  172.6990  135.9170 C   0  0  1  0  0  3  0  0  0  0  0  0
  185.1870  176.2810  135.4530 C   0  0  0  0  0  2  0  0  0  0  0  0
  183.8180  176.5620  136.0340 C   0  0  0  0  0  2  0  0  0  0  0  0
  183.9530  177.5000  137.2130 C   0  0  0  0  0  2  0  0  0  0  0  0
  182.6300  178.1940  137.4600 C   0  0  0  0  0  1  0  0  0  0  0  0
  192.9940  175.9110  137.0280 C   0  0  1  0  0  3  0  0  0  0  0  0
  193.3390  174.4330  137.2150 C   0  0  0  0  0  3  0  0  0  0  0  0
  194.3740  174.2960  138.1420 O   0  0  0  0  0  1  0  0  0  0  0  0
  193.7380  173.8750  136.0000 O   0  0  0  0  0  1  0  0  0  0  0  0
  194.8670  177.0000  136.0030 O   0  0  0  0  0  1  0  0  0  0  0  0
  193.6100  176.4530  135.7410 C   0  0  0  0  0  2  0  0  0  0  0  0
  1 12  1  0  0  0  0
  2  1  1  1  0  0  0
  2  9  1  0  0  0  0
  5  9  1  0  0  0  0
  5  8  1  1  0  0  0
  6 17  1  0  0  0  0
 10  6  1  6  0  0  0
 10 20  1  0  0  0  0
 11  4  1  0  0  0  0
 11 18  1  0  0  0  0
 12 14  1  0  0  0  0
 13 25  1  1  0  0  0
 13 14  1  0  0  0  0
 14  3  1  1  0  0  0
 16 13  1  0  0  0  0
 16  7  1  1  0  0  0
 17 15  1  6  0  0  0
 17  2  1  0  0  0  0
 17 16  1  0  0  0  0
 18 10  1  0  0  0  0
 19 20  1  0  0  0  0
 19  5  1  0  0  0  0
 20  4  1  6  0  0  0
 21 22  1  0  0  0  0
 21  5  1  0  0  0  0
 22 23  1  0  0  0  0
 23 24  1  0  0  0  0
 25 30  1  6  0  0  0
 25 26  1  0  0  0  0
 26 27  1  0  0  0  0
 28 26  1  0  0  0  0
 30 29  1  0  0  0  0
M  END
>  <MODEL>
7

>  <REMARK>
 VINA RESULT:      -4.0      5.579      8.326
  Name = 
  6 active torsions:
  status: ('A' for Active; 'I' for Inactive)
    1  A    between atoms: C_2  and  C_28
    2  A    between atoms: C_6  and  P_8
    3  A    between atoms: C_6  and  C_21
    4  A    between atoms: C_9  and  C_21
    5  A    between atoms: C_19  and  C_28
    6  A    between atoms: C_28  and  C_29
                            x       y       z     vdW  Elec       q    Type
                         _______ _______ _______ _____ _____    ______ ____

>  <TORSDO>
F 6

$$$$
=
 OpenBabel11052412383D

 30 32  0  0  1  0  0  0  0  0999 V2000
  184.3000  173.6940  137.8350 C   0  0  0  0  0  2  0  0  0  0  0  0
  183.1580  174.5990  137.3500 C   0  0  2  0  0  3  0  0  0  0  0  0
  187.1780  174.2960  135.3450 C   0  0  0  0  0  1  0  0  0  0  0  0
  179.6500  177.3580  134.8060 C   0  0  0  0  0  2  0  0  0  0  0  0
  180.6990  174.0230  136.2480 P   0  0  1  0  0  4  0  0  0  0  0  0
  182.3360  177.0080  136.9740 C   0  0  0  0  0  2  0  0  0  0  0  0
  184.5570  175.9590  135.0910 O   0  0  0  0  0  1  0  0  0  0  0  0
  179.8710  173.0760  134.5950 Cl  0  0  0  0  0  0  0  0  0  0  0  0
  182.5110  174.0370  136.0850 C   0  0  0  0  0  2  0  0  0  0  0  0
  181.9100  177.0250  135.5030 C   0  0  2  0  0  3  0  0  0  0  0  0
  180.1850  178.6040  135.1630 O   0  0  0  0  0  0  0  0  0  0  0  0
  185.3240  173.4270  136.7330 C   0  0  0  0  0  2  0  0  0  0  0  0
  186.0640  175.8990  136.9890 C   0  0  2  0  0  3  0  0  0  0  0  0
  186.4720  174.4380  136.6820 C   0  0  2  0  0  3  0  0  0  0  0  0
  183.8930  176.4620  138.6230 O   0  0  0  0  0  1  0  0  0  0  0  0
  184.7440  176.4150  136.3990 C   0  0  2  0  0  3  0  0  0  0  0  0
  183.5370  176.1060  137.3190 C   0  0  1  0  0  0  0  0  0  0  0  0
  181.5760  178.4430  135.1030 C   0  0  0  0  0  2  0  0  0  0  0  0
  180.1200  175.6140  136.3590 O   0  0  0  0  0  0  0  0  0  0  0  0
  180.6170  176.2760  135.2280 C   0  0  1  0  0  3  0  0  0  0  0  0
  180.2380  173.1070  137.7450 C   0  0  0  0  0  2  0  0  0  0  0  0
  179.2360  173.9090  138.5480 C   0  0  0  0  0  2  0  0  0  0  0  0
  179.8080  174.2090  139.9160 C   0  0  0  0  0  2  0  0  0  0  0  0
  180.5450  175.5320  139.8760 C   0  0  0  0  0  1  0  0  0  0  0  0
  187.1860  176.9530  137.0300 C   0  0  1  0  0  3  0  0  0  0  0  0
  186.6410  178.3410  137.3710 C   0  0  0  0  0  3  0  0  0  0  0  0
  187.4490  179.3270  136.8020 O   0  0  0  0  0  1  0  0  0  0  0  0
  186.6120  178.5180  138.7560 O   0  0  0  0  0  1  0  0  0  0  0  0
  189.4630  176.2360  137.2410 O   0  0  0  0  0  1  0  0  0  0  0  0
  188.3230  176.5690  137.9730 C   0  0  0  0  0  2  0  0  0  0  0  0
  2  9  1  6  0  0  0
  2  1  1  0  0  0  0
  4 11  1  0  0  0  0
  5  8  1  6  0  0  0
  5 19  1  0  0  0  0
  5 21  1  0  0  0  0
  6 17  1  0  0  0  0
  9  5  1  0  0  0  0
 10 18  1  1  0  0  0
 10  6  1  0  0  0  0
 12  1  1  0  0  0  0
 13 25  1  6  0  0  0
 14  3  1  6  0  0  0
 14 12  1  0  0  0  0
 14 13  1  0  0  0  0
 16  7  1  6  0  0  0
 16 13  1  0  0  0  0
 16 17  1  0  0  0  0
 17  2  1  0  0  0  0
 17 15  1  1  0  0  0
 18 11  1  0  0  0  0
 20  4  1  1  0  0  0
 20 10  1  0  0  0  0
 20 19  1  0  0  0  0
 21 22  1  0  0  0  0
 22 23  1  0  0  0  0
 24 23  1  0  0  0  0
 25 26  1  0  0  0  0
 25 30  1  1  0  0  0
 26 28  1  0  0  0  0
 27 26  1  0  0  0  0
 29 30  1  0  0  0  0
M  END
>  <MODEL>
8

>  <REMARK>
 VINA RESULT:      -4.0      6.224      9.241
  Name = 
  6 active torsions:
  status: ('A' for Active; 'I' for Inactive)
    1  A    between atoms: C_2  and  C_28
    2  A    between atoms: C_6  and  P_8
    3  A    between atoms: C_6  and  C_21
    4  A    between atoms: C_9  and  C_21
    5  A    between atoms: C_19  and  C_28
    6  A    between atoms: C_28  and  C_29
                            x       y       z     vdW  Elec       q    Type
                         _______ _______ _______ _____ _____    ______ ____

>  <TORSDO>
F 6

$$$$
=
 OpenBabel11052412383D

 30 32  0  0  1  0  0  0  0  0999 V2000
  183.7040  178.8910  139.6560 C   0  0  0  0  0  2  0  0  0  0  0  0
  184.5150  177.8700  138.8450 C   0  0  2  0  0  3  0  0  0  0  0  0
  181.0830  180.2680  137.1890 C   0  0  0  0  0  1  0  0  0  0  0  0
  187.1310  175.1190  135.3840 C   0  0  0  0  0  2  0  0  0  0  0  0
  187.1280  177.8780  137.9710 P   0  0  1  0  0  4  0  0  0  0  0  0
  184.5040  175.6220  137.5930 C   0  0  0  0  0  2  0  0  0  0  0  0
  182.9930  177.9810  136.2800 O   0  0  0  0  0  1  0  0  0  0  0  0
  188.4050  178.9810  136.7600 Cl  0  0  0  0  0  0  0  0  0  0  0  0
  185.4500  178.5690  137.8580 C   0  0  0  0  0  2  0  0  0  0  0  0
  185.0570  175.9700  136.2080 C   0  0  2  0  0  3  0  0  0  0  0  0
  186.1680  174.1060  135.2730 O   0  0  0  0  0  0  0  0  0  0  0  0
  182.9580  179.8730  138.7530 C   0  0  0  0  0  2  0  0  0  0  0  0
  181.3980  177.9070  138.1040 C   0  0  2  0  0  3  0  0  0  0  0  0
  181.5490  179.4250  138.3630 C   0  0  2  0  0  3  0  0  0  0  0  0
  183.0560  176.0720  139.3650 O   0  0  0  0  0  1  0  0  0  0  0  0
  182.5200  177.1950  137.3350 C   0  0  2  0  0  3  0  0  0  0  0  0
  183.6520  176.7100  138.2740 C   0  0  1  0  0  0  0  0  0  0  0  0
  184.9310  174.7630  135.3090 C   0  0  0  0  0  2  0  0  0  0  0  0
  187.1160  176.2540  137.4770 O   0  0  0  0  0  0  0  0  0  0  0  0
  186.5500  176.2530  136.1950 C   0  0  1  0  0  3  0  0  0  0  0  0
  187.7070  177.9820  139.6880 C   0  0  0  0  0  2  0  0  0  0  0  0
  189.0410  177.2790  139.8220 C   0  0  0  0  0  2  0  0  0  0  0  0
  189.6200  177.5530  141.1930 C   0  0  0  0  0  2  0  0  0  0  0  0
  188.6710  177.0360  142.2540 C   0  0  0  0  0  1  0  0  0  0  0  0
  179.9880  177.3790  137.7840 C   0  0  1  0  0  3  0  0  0  0  0  0
  180.0390  176.1690  136.8510 C   0  0  0  0  0  3  0  0  0  0  0  0
  179.1490  176.3440  135.7890 O   0  0  0  0  0  1  0  0  0  0  0  0
  179.6920  175.0100  137.5480 O   0  0  0  0  0  1  0  0  0  0  0  0
  180.0110  177.0380  140.1560 O   0  0  0  0  0  1  0  0  0  0  0  0
  179.1770  177.0640  139.0380 C   0  0  0  0  0  2  0  0  0  0  0  0
  2  9  1  6  0  0  0
  2  1  1  0  0  0  0
  5  8  1  6  0  0  0
  5 21  1  0  0  0  0
  6 17  1  0  0  0  0
  9  5  1  0  0  0  0
 10 18  1  6  0  0  0
 10  6  1  0  0  0  0
 11 18  1  0  0  0  0
 11  4  1  0  0  0  0
 12  1  1  0  0  0  0
 13 25  1  6  0  0  0
 13 14  1  0  0  0  0
 14  3  1  6  0  0  0
 14 12  1  0  0  0  0
 16  7  1  6  0  0  0
 16 13  1  0  0  0  0
 16 17  1  0  0  0  0
 17  2  1  0  0  0  0
 17 15  1  1  0  0  0
 19  5  1  0  0  0  0
 20  4  1  6  0  0  0
 20 10  1  0  0  0  0
 20 19  1  0  0  0  0
 21 22  1  0  0  0  0
 22 23  1  0  0  0  0
 23 24  1  0  0  0  0
 25 30  1  1  0  0  0
 26 28  1  0  0  0  0
 26 25  1  0  0  0  0
 27 26  1  0  0  0  0
 30 29  1  0  0  0  0
M  END
>  <MODEL>
9

>  <REMARK>
 VINA RESULT:      -3.9      4.386      8.824
  Name = 
  6 active torsions:
  status: ('A' for Active; 'I' for Inactive)
    1  A    between atoms: C_2  and  C_28
    2  A    between atoms: C_6  and  P_8
    3  A    between atoms: C_6  and  C_21
    4  A    between atoms: C_9  and  C_21
    5  A    between atoms: C_19  and  C_28
    6  A    between atoms: C_28  and  C_29
                            x       y       z     vdW  Elec       q    Type
                         _______ _______ _______ _____ _____    ______ ____

>  <TORSDO>
F 6

$$$$
