=
 OpenBabel11052415283D

 37 39  0  0  1  0  0  0  0  0999 V2000
  182.3690  176.3170  137.4390 C   0  0  0  0  0  2  0  0  0  0  0  0
  180.5540  180.2260  136.2720 C   0  0  0  0  0  3  0  0  0  0  0  0
  183.0580  177.1720  138.5110 C   0  0  2  0  0  3  0  0  0  0  0  0
  180.9880  179.1300  137.0240 C   0  0  0  0  0  0  0  0  0  0  0  0
  180.7640  177.7620  136.4690 C   0  0  0  0  0  2  0  0  0  0  0  0
  181.6280  179.3400  138.2640 C   0  0  0  0  0  0  0  0  0  0  0  0
  181.3740  181.7380  137.9700 C   0  0  0  0  0  3  0  0  0  0  0  0
  182.0450  177.1000  136.2510 N   0  0  0  0  0  0  0  0  0  0  0  0
  181.8110  180.6480  138.7260 C   0  0  0  0  0  3  0  0  0  0  0  0
  182.1150  178.2170  139.1430 C   0  0  1  0  0  3  0  0  0  0  0  0
  180.7440  181.5350  136.7400 C   0  0  0  0  0  0  0  0  0  0  0  0
  180.3190  182.6440  136.0060 O   0  0  0  0  0  0  0  0  0  0  0  0
  180.9860  183.8980  136.0530 C   0  0  0  0  0  1  0  0  0  0  0  0
  185.1570  178.7760  139.3340 S   0  0  0  0  0  1  0  0  0  0  0  0
  184.3630  177.8080  138.0100 C   0  0  1  0  0  3  0  0  0  0  0  0
  185.3390  176.7420  137.5260 C   0  0  0  0  0  2  0  0  0  0  0  0
  185.7210  177.7230  135.1990 C   0  0  0  0  0  1  0  0  0  0  0  0
  186.3480  177.3210  136.5400 C   0  0  2  0  0  3  0  0  0  0  0  0
  187.9480  176.1020  137.7620 O   0  0  0  0  0  0  0  0  0  0  0  0
  187.5870  176.5120  136.4790 N   0  0  0  0  0  0  0  0  0  0  0  0
  188.7510  177.0320  137.1860 C   0  0  2  0  0  0  0  0  0  0  0  0
  190.0730  176.4540  136.7240 C   0  0  0  0  0  1  0  0  0  0  0  0
  188.7350  178.4780  139.3550 C   0  0  0  0  0  1  0  0  0  0  0  0
  188.7540  179.3980  137.1980 O   0  0  0  0  0  0  0  0  0  0  0  0
  188.7170  178.3780  137.8650 C   0  0  0  0  0  0  0  0  0  0  0  0
  181.9480  176.2130  135.0870 C   0  0  0  0  0  2  0  0  0  0  0  0
  183.0070  175.1090  135.0690 C   0  0  0  0  0  1  0  0  0  0  0  0
  181.1070  177.7240  140.1960 C   0  0  1  0  0  3  0  0  0  0  0  0
  181.2150  178.4060  141.5340 C   0  0  0  0  0  0  0  0  0  0  0  0
  182.4250  178.6780  142.0230 C   0  0  0  0  0  2  0  0  0  0  0  0
  179.9890  178.3200  143.6890 C   0  0  0  0  0  1  0  0  0  0  0  0
  179.9970  178.8690  142.2740 C   0  0  0  0  0  2  0  0  0  0  0  0
  179.6750  177.7210  139.6700 C   0  0  0  0  0  2  0  0  0  0  0  0
  179.0770  176.3300  139.7750 C   0  0  0  0  0  2  0  0  0  0  0  0
  180.1460  175.3550  140.2190 C   0  0  0  0  0  2  0  0  0  0  0  0
  179.4800  173.6400  141.4340 C   0  0  0  0  0  1  0  0  0  0  0  0
  179.6580  174.0530  140.1140 O   0  0  0  0  0  0  0  0  0  0  0  0
  1  3  1  0  0  0  0
  2 11  2  0  0  0  0
  2  4  1  0  0  0  0
  3 15  1  6  0  0  0
  3 10  1  0  0  0  0
  4  6  2  0  0  0  0
  5  4  1  0  0  0  0
  6  9  1  0  0  0  0
  6 10  1  0  0  0  0
  7  9  2  0  0  0  0
  8  5  1  0  0  0  0
  8  1  1  0  0  0  0
 10 28  1  6  0  0  0
 11  7  1  0  0  0  0
 12 13  1  0  0  0  0
 12 11  1  0  0  0  0
 15 14  1  1  0  0  0
 16 15  1  0  0  0  0
 18 17  1  6  0  0  0
 18 16  1  0  0  0  0
 20 18  1  0  0  0  0
 20 21  1  0  0  0  0
 20 19  1  0  0  0  0
 21 22  1  6  0  0  0
 21 19  1  0  0  0  0
 21 25  1  0  0  0  0
 24 25  2  0  0  0  0
 25 23  1  0  0  0  0
 26  8  1  0  0  0  0
 27 26  1  0  0  0  0
 28 33  1  6  0  0  0
 28 29  1  0  0  0  0
 29 30  2  0  0  0  0
 29 32  1  0  0  0  0
 32 31  1  0  0  0  0
 33 34  1  0  0  0  0
 34 35  1  0  0  0  0
 37 35  1  0  0  0  0
 37 36  1  0  0  0  0
M  END
>  <MODEL>
1

>  <REMARK>
 VINA RESULT:      -4.8      0.000      0.000
  Name = 
  14 active torsions:
  status: ('A' for Active; 'I' for Inactive)
    1  A    between atoms: C_1  and  C_12
    2  A    between atoms: C_1  and  C_36
    3  A    between atoms: O_3  and  C_32
    4  A    between atoms: N_6  and  C_37
    5  A    between atoms: C_8  and  C_35
    6  A    between atoms: C_10  and  C_14
    7  A    between atoms: C_14  and  C_27
    8  A    between atoms: C_17  and  C_26
    9  A    between atoms: C_17  and  C_33
   10  A    between atoms: C_22  and  N_24
   11  A    between atoms: C_26  and  O_34
   12  A    between atoms: C_27  and  C_37
   13  A    between atoms: C_29  and  C_36
   14  A    between atoms: C_33  and  C_36
                            x       y       z     vdW  Elec       q    Type
                         _______ _______ _______ _____ _____    ______ ____

>  <TORSDO>
F 14

$$$$
=
 OpenBabel11052415283D

 37 39  0  0  1  0  0  0  0  0999 V2000
  183.8350  177.6170  136.4650 C   0  0  0  0  0  2  0  0  0  0  0  0
  184.4630  178.6170  140.7710 C   0  0  0  0  0  3  0  0  0  0  0  0
  182.3880  177.3920  136.9230 C   0  0  2  0  0  3  0  0  0  0  0  0
  183.9420  178.5790  139.4740 C   0  0  0  0  0  0  0  0  0  0  0  0
  184.8990  178.6150  138.3290 C   0  0  0  0  0  2  0  0  0  0  0  0
  182.5450  178.4960  139.2820 C   0  0  0  0  0  0  0  0  0  0  0  0
  182.2300  178.5000  141.6900 C   0  0  0  0  0  3  0  0  0  0  0  0
  184.7850  177.3890  137.5490 N   0  0  0  0  0  0  0  0  0  0  0  0
  181.7030  178.4610  140.3980 C   0  0  0  0  0  3  0  0  0  0  0  0
  181.9010  178.4640  137.9200 C   0  0  1  0  0  3  0  0  0  0  0  0
  183.6110  178.5780  141.8850 C   0  0  0  0  0  0  0  0  0  0  0  0
  184.1100  178.6140  143.1900 O   0  0  0  0  0  0  0  0  0  0  0  0
  183.3460  179.0860  144.2910 C   0  0  0  0  0  1  0  0  0  0  0  0
  180.4320  175.7740  138.0250 S   0  0  0  0  0  1  0  0  0  0  0  0
  182.1510  175.9690  137.4510 C   0  0  1  0  0  3  0  0  0  0  0  0
  182.4300  174.9310  136.3710 C   0  0  0  0  0  2  0  0  0  0  0  0
  184.2480  173.8160  137.7750 C   0  0  0  0  0  1  0  0  0  0  0  0
  182.9550  173.6330  136.9710 C   0  0  2  0  0  3  0  0  0  0  0  0
  181.9260  172.7400  135.0520 O   0  0  0  0  0  0  0  0  0  0  0  0
  182.9340  172.5230  135.9900 N   0  0  0  0  0  0  0  0  0  0  0  0
  181.7170  171.7220  135.9250 C   0  0  2  0  0  0  0  0  0  0  0  0
  181.9000  170.3600  135.2850 C   0  0  0  0  0  1  0  0  0  0  0  0
  179.3240  172.6300  136.4170 C   0  0  0  0  0  1  0  0  0  0  0  0
  180.6330  171.5240  138.0180 O   0  0  0  0  0  0  0  0  0  0  0  0
  180.5740  171.9560  136.8790 C   0  0  0  0  0  0  0  0  0  0  0  0
  186.0950  177.0390  136.9900 C   0  0  0  0  0  2  0  0  0  0  0  0
  187.0890  178.2020  136.9810 C   0  0  0  0  0  1  0  0  0  0  0  0
  181.4970  179.8360  137.3520 C   0  0  1  0  0  3  0  0  0  0  0  0
  180.4970  179.7800  136.2290 C   0  0  0  0  0  0  0  0  0  0  0  0
  180.8450  180.2510  135.0310 C   0  0  0  0  0  2  0  0  0  0  0  0
  178.9400  178.0670  135.3350 C   0  0  0  0  0  1  0  0  0  0  0  0
  179.1630  179.1200  136.4050 C   0  0  0  0  0  2  0  0  0  0  0  0
  181.0760  180.8130  138.4450 C   0  0  0  0  0  2  0  0  0  0  0  0
  181.4300  182.2340  138.0480 C   0  0  0  0  0  2  0  0  0  0  0  0
  180.1620  183.0510  137.9220 C   0  0  0  0  0  2  0  0  0  0  0  0
  181.3870  184.5670  136.8910 C   0  0  0  0  0  1  0  0  0  0  0  0
  180.2180  183.8180  136.7590 O   0  0  0  0  0  0  0  0  0  0  0  0
  1  3  1  0  0  0  0
  1  8  1  0  0  0  0
  2 11  1  0  0  0  0
  3 15  1  1  0  0  0
  3 10  1  0  0  0  0
  4  2  2  0  0  0  0
  5  4  1  0  0  0  0
  6  4  1  0  0  0  0
  6  9  2  0  0  0  0
  7 11  2  0  0  0  0
  8  5  1  0  0  0  0
  9  7  1  0  0  0  0
 10 28  1  6  0  0  0
 10  6  1  0  0  0  0
 11 12  1  0  0  0  0
 12 13  1  0  0  0  0
 15 14  1  6  0  0  0
 16 18  1  0  0  0  0
 16 15  1  0  0  0  0
 18 17  1  6  0  0  0
 19 21  1  0  0  0  0
 19 20  1  0  0  0  0
 20 18  1  0  0  0  0
 21 22  1  6  0  0  0
 21 20  1  0  0  0  0
 21 25  1  0  0  0  0
 23 25  1  0  0  0  0
 25 24  2  0  0  0  0
 26  8  1  0  0  0  0
 27 26  1  0  0  0  0
 28 33  1  1  0  0  0
 29 32  1  0  0  0  0
 29 28  1  0  0  0  0
 30 29  2  0  0  0  0
 31 32  1  0  0  0  0
 34 33  1  0  0  0  0
 35 34  1  0  0  0  0
 37 36  1  0  0  0  0
 37 35  1  0  0  0  0
M  END
>  <MODEL>
2

>  <REMARK>
 VINA RESULT:      -4.2      2.839      6.833
  Name = 
  14 active torsions:
  status: ('A' for Active; 'I' for Inactive)
    1  A    between atoms: C_1  and  C_12
    2  A    between atoms: C_1  and  C_36
    3  A    between atoms: O_3  and  C_32
    4  A    between atoms: N_6  and  C_37
    5  A    between atoms: C_8  and  C_35
    6  A    between atoms: C_10  and  C_14
    7  A    between atoms: C_14  and  C_27
    8  A    between atoms: C_17  and  C_26
    9  A    between atoms: C_17  and  C_33
   10  A    between atoms: C_22  and  N_24
   11  A    between atoms: C_26  and  O_34
   12  A    between atoms: C_27  and  C_37
   13  A    between atoms: C_29  and  C_36
   14  A    between atoms: C_33  and  C_36
                            x       y       z     vdW  Elec       q    Type
                         _______ _______ _______ _____ _____    ______ ____

>  <TORSDO>
F 14

$$$$
=
 OpenBabel11052415283D

 37 39  0  0  1  0  0  0  0  0999 V2000
  183.8810  177.4580  136.6650 C   0  0  0  0  0  2  0  0  0  0  0  0
  185.0030  178.7010  140.8030 C   0  0  0  0  0  3  0  0  0  0  0  0
  182.5100  177.2210  137.3100 C   0  0  2  0  0  3  0  0  0  0  0  0
  184.3270  178.5810  139.5850 C   0  0  0  0  0  0  0  0  0  0  0  0
  185.1340  178.5810  138.3300 C   0  0  0  0  0  2  0  0  0  0  0  0
  182.9210  178.4520  139.5740 C   0  0  0  0  0  0  0  0  0  0  0  0
  182.9060  178.5760  141.9990 C   0  0  0  0  0  3  0  0  0  0  0  0
  184.9650  177.3130  137.6310 N   0  0  0  0  0  0  0  0  0  0  0  0
  182.2240  178.4550  140.7860 C   0  0  0  0  0  3  0  0  0  0  0  0
  182.1140  178.3310  138.3060 C   0  0  1  0  0  3  0  0  0  0  0  0
  184.2960  178.6990  142.0160 C   0  0  0  0  0  0  0  0  0  0  0  0
  184.9510  178.8170  143.2450 O   0  0  0  0  0  0  0  0  0  0  0  0
  184.4870  179.6690  144.2840 C   0  0  0  0  0  1  0  0  0  0  0  0
  181.3560  175.8770  139.4370 S   0  0  0  0  0  1  0  0  0  0  0  0
  182.3850  175.8230  137.9340 C   0  0  1  0  0  3  0  0  0  0  0  0
  181.7650  174.8380  136.9490 C   0  0  0  0  0  2  0  0  0  0  0  0
  183.0650  174.7570  134.7520 C   0  0  0  0  0  1  0  0  0  0  0  0
  182.8350  174.1250  136.1300 C   0  0  2  0  0  3  0  0  0  0  0  0
  182.7770  172.1980  137.4800 O   0  0  0  0  0  0  0  0  0  0  0  0
  182.6680  172.6540  136.1670 N   0  0  0  0  0  0  0  0  0  0  0  0
  183.8010  171.8720  136.6500 C   0  0  2  0  0  0  0  0  0  0  0  0
  183.7750  170.4150  136.2390 C   0  0  0  0  0  1  0  0  0  0  0  0
  186.1650  172.7310  135.9660 C   0  0  0  0  0  1  0  0  0  0  0  0
  185.2860  172.9730  138.1270 O   0  0  0  0  0  0  0  0  0  0  0  0
  185.1100  172.5300  137.0040 C   0  0  0  0  0  0  0  0  0  0  0  0
  186.2060  176.9670  136.9310 C   0  0  0  0  0  2  0  0  0  0  0  0
  186.0360  176.8210  135.4180 C   0  0  0  0  0  1  0  0  0  0  0  0
  181.6000  179.6600  137.7260 C   0  0  1  0  0  3  0  0  0  0  0  0
  180.4350  179.5240  136.7830 C   0  0  0  0  0  0  0  0  0  0  0  0
  179.2150  179.3420  137.2890 C   0  0  0  0  0  2  0  0  0  0  0  0
  180.4080  178.3570  134.5940 C   0  0  0  0  0  1  0  0  0  0  0  0
  180.6060  179.6840  135.3030 C   0  0  0  0  0  2  0  0  0  0  0  0
  181.3400  180.7020  138.8090 C   0  0  0  0  0  2  0  0  0  0  0  0
  181.9030  182.0480  138.3940 C   0  0  0  0  0  2  0  0  0  0  0  0
  180.7660  182.9730  138.0140 C   0  0  0  0  0  2  0  0  0  0  0  0
  179.4340  183.0800  136.2600 C   0  0  0  0  0  1  0  0  0  0  0  0
  180.7740  183.1740  136.6350 O   0  0  0  0  0  0  0  0  0  0  0  0
  1  3  1  0  0  0  0
  1  8  1  0  0  0  0
  2 11  1  0  0  0  0
  3 15  1  1  0  0  0
  3 10  1  0  0  0  0
  4  2  2  0  0  0  0
  5  4  1  0  0  0  0
  6  4  1  0  0  0  0
  6  9  2  0  0  0  0
  7 11  2  0  0  0  0
  8  5  1  0  0  0  0
  9  7  1  0  0  0  0
 10 28  1  6  0  0  0
 10  6  1  0  0  0  0
 11 12  1  0  0  0  0
 12 13  1  0  0  0  0
 15 14  1  1  0  0  0
 16 15  1  0  0  0  0
 18 17  1  6  0  0  0
 18 20  1  0  0  0  0
 18 16  1  0  0  0  0
 20 21  1  0  0  0  0
 20 19  1  0  0  0  0
 21 22  1  6  0  0  0
 21 25  1  0  0  0  0
 21 19  1  0  0  0  0
 23 25  1  0  0  0  0
 25 24  2  0  0  0  0
 26  8  1  0  0  0  0
 27 26  1  0  0  0  0
 28 33  1  1  0  0  0
 29 30  2  0  0  0  0
 29 28  1  0  0  0  0
 31 32  1  0  0  0  0
 32 29  1  0  0  0  0
 34 33  1  0  0  0  0
 35 34  1  0  0  0  0
 36 37  1  0  0  0  0
 37 35  1  0  0  0  0
M  END
>  <MODEL>
3

>  <REMARK>
 VINA RESULT:      -3.7      2.755      6.133
  Name = 
  14 active torsions:
  status: ('A' for Active; 'I' for Inactive)
    1  A    between atoms: C_1  and  C_12
    2  A    between atoms: C_1  and  C_36
    3  A    between atoms: O_3  and  C_32
    4  A    between atoms: N_6  and  C_37
    5  A    between atoms: C_8  and  C_35
    6  A    between atoms: C_10  and  C_14
    7  A    between atoms: C_14  and  C_27
    8  A    between atoms: C_17  and  C_26
    9  A    between atoms: C_17  and  C_33
   10  A    between atoms: C_22  and  N_24
   11  A    between atoms: C_26  and  O_34
   12  A    between atoms: C_27  and  C_37
   13  A    between atoms: C_29  and  C_36
   14  A    between atoms: C_33  and  C_36
                            x       y       z     vdW  Elec       q    Type
                         _______ _______ _______ _____ _____    ______ ____

>  <TORSDO>
F 14

$$$$
=
 OpenBabel11052415283D

 37 39  0  0  1  0  0  0  0  0999 V2000
  182.1720  177.6410  136.0380 C   0  0  0  0  0  2  0  0  0  0  0  0
  183.0360  173.2650  135.8570 C   0  0  0  0  0  3  0  0  0  0  0  0
  183.1590  177.5960  137.2120 C   0  0  2  0  0  3  0  0  0  0  0  0
  183.1940  174.6520  135.9220 C   0  0  0  0  0  0  0  0  0  0  0  0
  182.3360  175.5000  135.0420 C   0  0  0  0  0  2  0  0  0  0  0  0
  184.1370  175.2100  136.8130 C   0  0  0  0  0  0  0  0  0  0  0  0
  184.7440  172.9740  137.5430 C   0  0  0  0  0  3  0  0  0  0  0  0
  181.4900  176.3630  135.8570 N   0  0  0  0  0  0  0  0  0  0  0  0
  184.9060  174.3600  137.6130 C   0  0  0  0  0  3  0  0  0  0  0  0
  184.3790  176.6920  136.9360 C   0  0  1  0  0  3  0  0  0  0  0  0
  183.8090  172.4190  136.6660 C   0  0  0  0  0  0  0  0  0  0  0  0
  183.6680  171.0290  136.6190 O   0  0  0  0  0  0  0  0  0  0  0  0
  182.7920  170.3770  135.7100 C   0  0  0  0  0  1  0  0  0  0  0  0
  183.4880  177.8090  139.9520 S   0  0  0  0  0  1  0  0  0  0  0  0
  182.4780  177.2460  138.5430 C   0  0  1  0  0  3  0  0  0  0  0  0
  181.0990  177.8890  138.6380 C   0  0  0  0  0  2  0  0  0  0  0  0
  179.9350  176.6120  140.5180 C   0  0  0  0  0  1  0  0  0  0  0  0
  180.6000  177.9220  140.0770 C   0  0  2  0  0  3  0  0  0  0  0  0
  180.7730  180.1930  140.6700 O   0  0  0  0  0  0  0  0  0  0  0  0
  179.8680  179.1740  140.3790 N   0  0  0  0  0  0  0  0  0  0  0  0
  180.0380  179.7340  141.7150 C   0  0  2  0  0  0  0  0  0  0  0  0
  178.9490  180.7010  142.1300 C   0  0  0  0  0  1  0  0  0  0  0  0
  180.1700  178.2090  143.8250 C   0  0  0  0  0  1  0  0  0  0  0  0
  182.0640  179.0270  142.7110 O   0  0  0  0  0  0  0  0  0  0  0  0
  180.8460  179.0160  142.7660 C   0  0  0  0  0  0  0  0  0  0  0  0
  180.2090  176.5810  135.1770 C   0  0  0  0  0  2  0  0  0  0  0  0
  179.9350  178.0480  134.8420 C   0  0  0  0  0  1  0  0  0  0  0  0
  185.4920  177.2520  136.0340 C   0  0  1  0  0  3  0  0  0  0  0  0
  186.6860  177.7940  136.7730 C   0  0  0  0  0  0  0  0  0  0  0  0
  187.5850  178.5170  136.1050 C   0  0  0  0  0  2  0  0  0  0  0  0
  188.2590  177.8940  138.6890 C   0  0  0  0  0  1  0  0  0  0  0  0
  186.8300  177.6200  138.2550 C   0  0  0  0  0  2  0  0  0  0  0  0
  185.8960  176.2720  134.9370 C   0  0  0  0  0  2  0  0  0  0  0  0
  187.2100  175.5980  135.2880 C   0  0  0  0  0  2  0  0  0  0  0  0
  187.1530  174.1420  134.8770 C   0  0  0  0  0  2  0  0  0  0  0  0
  189.2850  173.6340  135.1190 C   0  0  0  0  0  1  0  0  0  0  0  0
  188.0270  173.4020  135.6720 O   0  0  0  0  0  0  0  0  0  0  0  0
  1  3  1  0  0  0  0
  2  4  2  0  0  0  0
  2 11  1  0  0  0  0
  3 15  1  1  0  0  0
  4  6  1  0  0  0  0
  5  8  1  0  0  0  0
  5  4  1  0  0  0  0
  6 10  1  0  0  0  0
  6  9  2  0  0  0  0
  7  9  1  0  0  0  0
  8  1  1  0  0  0  0
 10 28  1  6  0  0  0
 10  3  1  0  0  0  0
 11  7  2  0  0  0  0
 12 11  1  0  0  0  0
 13 12  1  0  0  0  0
 15 16  1  0  0  0  0
 15 14  1  1  0  0  0
 16 18  1  0  0  0  0
 18 20  1  0  0  0  0
 18 17  1  6  0  0  0
 19 21  1  0  0  0  0
 20 19  1  0  0  0  0
 20 21  1  0  0  0  0
 21 22  1  1  0  0  0
 21 25  1  0  0  0  0
 24 25  2  0  0  0  0
 25 23  1  0  0  0  0
 26  8  1  0  0  0  0
 27 26  1  0  0  0  0
 28 33  1  6  0  0  0
 28 29  1  0  0  0  0
 29 32  1  0  0  0  0
 30 29  2  0  0  0  0
 32 31  1  0  0  0  0
 33 34  1  0  0  0  0
 35 34  1  0  0  0  0
 35 37  1  0  0  0  0
 36 37  1  0  0  0  0
M  END
>  <MODEL>
4

>  <REMARK>
 VINA RESULT:      -3.2      2.829      7.903
  Name = 
  14 active torsions:
  status: ('A' for Active; 'I' for Inactive)
    1  A    between atoms: C_1  and  C_12
    2  A    between atoms: C_1  and  C_36
    3  A    between atoms: O_3  and  C_32
    4  A    between atoms: N_6  and  C_37
    5  A    between atoms: C_8  and  C_35
    6  A    between atoms: C_10  and  C_14
    7  A    between atoms: C_14  and  C_27
    8  A    between atoms: C_17  and  C_26
    9  A    between atoms: C_17  and  C_33
   10  A    between atoms: C_22  and  N_24
   11  A    between atoms: C_26  and  O_34
   12  A    between atoms: C_27  and  C_37
   13  A    between atoms: C_29  and  C_36
   14  A    between atoms: C_33  and  C_36
                            x       y       z     vdW  Elec       q    Type
                         _______ _______ _______ _____ _____    ______ ____

>  <TORSDO>
F 14

$$$$
=
 OpenBabel11052415283D

 37 39  0  0  1  0  0  0  0  0999 V2000
  179.5820  179.0320  139.5530 C   0  0  0  0  0  2  0  0  0  0  0  0
  183.9590  179.4100  138.7580 C   0  0  0  0  0  3  0  0  0  0  0  0
  180.0410  177.9080  140.4900 C   0  0  2  0  0  3  0  0  0  0  0  0
  182.7280  179.3030  139.4120 C   0  0  0  0  0  0  0  0  0  0  0  0
  181.5840  180.1110  138.8960 C   0  0  0  0  0  2  0  0  0  0  0  0
  182.5950  178.4380  140.5200 C   0  0  0  0  0  0  0  0  0  0  0  0
  184.9330  177.8170  140.2940 C   0  0  0  0  0  3  0  0  0  0  0  0
  180.5150  179.2270  138.4470 N   0  0  0  0  0  0  0  0  0  0  0  0
  183.7060  177.7050  140.9520 C   0  0  0  0  0  3  0  0  0  0  0  0
  181.3100  178.2730  141.2890 C   0  0  1  0  0  3  0  0  0  0  0  0
  185.0670  178.6690  139.1950 C   0  0  0  0  0  0  0  0  0  0  0  0
  186.3070  178.7590  138.5570 O   0  0  0  0  0  0  0  0  0  0  0  0
  186.5390  178.2440  137.2520 C   0  0  0  0  0  1  0  0  0  0  0  0
  179.9410  175.1780  140.9310 S   0  0  0  0  0  1  0  0  0  0  0  0
  180.1870  176.5600  139.7690 C   0  0  1  0  0  3  0  0  0  0  0  0
  179.1760  176.4340  138.6350 C   0  0  0  0  0  2  0  0  0  0  0  0
  179.6370  176.4380  136.1230 C   0  0  0  0  0  1  0  0  0  0  0  0
  179.7640  175.6780  137.4490 C   0  0  2  0  0  3  0  0  0  0  0  0
  180.2050  173.5130  138.2580 O   0  0  0  0  0  0  0  0  0  0  0  0
  179.3520  174.2560  137.4420 N   0  0  0  0  0  0  0  0  0  0  0  0
  180.3150  173.2920  136.9230 C   0  0  2  0  0  0  0  0  0  0  0  0
  179.7090  171.9690  136.5010 C   0  0  0  0  0  1  0  0  0  0  0  0
  182.7950  174.0400  137.2170 C   0  0  0  0  0  1  0  0  0  0  0  0
  181.7710  173.7800  135.1240 O   0  0  0  0  0  0  0  0  0  0  0  0
  181.6290  173.7380  136.3340 C   0  0  0  0  0  0  0  0  0  0  0  0
  179.8140  179.8380  137.3130 C   0  0  0  0  0  2  0  0  0  0  0  0
  180.6130  180.9460  136.6240 C   0  0  0  0  0  1  0  0  0  0  0  0
  181.1460  179.2060  142.5020 C   0  0  1  0  0  3  0  0  0  0  0  0
  179.7230  179.4110  142.9470 C   0  0  0  0  0  0  0  0  0  0  0  0
  179.0870  178.4080  143.5540 C   0  0  0  0  0  2  0  0  0  0  0  0
  179.2110  181.2840  141.4030 C   0  0  0  0  0  1  0  0  0  0  0  0
  179.0460  180.7410  142.8100 C   0  0  0  0  0  2  0  0  0  0  0  0
  182.0560  178.8130  143.6600 C   0  0  0  0  0  2  0  0  0  0  0  0
  183.1740  179.8260  143.8220 C   0  0  0  0  0  2  0  0  0  0  0  0
  184.3020  179.2070  144.6200 C   0  0  0  0  0  2  0  0  0  0  0  0
  186.0370  177.8720  144.3570 C   0  0  0  0  0  1  0  0  0  0  0  0
  185.3850  178.9610  143.7780 O   0  0  0  0  0  0  0  0  0  0  0  0
  1  3  1  0  0  0  0
  2 11  2  0  0  0  0
  2  4  1  0  0  0  0
  3 15  1  6  0  0  0
  3 10  1  0  0  0  0
  4  6  2  0  0  0  0
  5  4  1  0  0  0  0
  6  9  1  0  0  0  0
  6 10  1  0  0  0  0
  7  9  2  0  0  0  0
  8  5  1  0  0  0  0
  8  1  1  0  0  0  0
 10 28  1  6  0  0  0
 11  7  1  0  0  0  0
 12 11  1  0  0  0  0
 13 12  1  0  0  0  0
 15 14  1  1  0  0  0
 16 15  1  0  0  0  0
 18 17  1  6  0  0  0
 18 16  1  0  0  0  0
 20 18  1  0  0  0  0
 20 19  1  0  0  0  0
 21 22  1  6  0  0  0
 21 20  1  0  0  0  0
 21 19  1  0  0  0  0
 24 25  2  0  0  0  0
 25 21  1  0  0  0  0
 25 23  1  0  0  0  0
 26  8  1  0  0  0  0
 27 26  1  0  0  0  0
 28 29  1  0  0  0  0
 28 33  1  1  0  0  0
 29 30  2  0  0  0  0
 31 32  1  0  0  0  0
 32 29  1  0  0  0  0
 33 34  1  0  0  0  0
 34 35  1  0  0  0  0
 37 36  1  0  0  0  0
 37 35  1  0  0  0  0
M  END
>  <MODEL>
5

>  <REMARK>
 VINA RESULT:      -3.0      2.895      6.225
  Name = 
  14 active torsions:
  status: ('A' for Active; 'I' for Inactive)
    1  A    between atoms: C_1  and  C_12
    2  A    between atoms: C_1  and  C_36
    3  A    between atoms: O_3  and  C_32
    4  A    between atoms: N_6  and  C_37
    5  A    between atoms: C_8  and  C_35
    6  A    between atoms: C_10  and  C_14
    7  A    between atoms: C_14  and  C_27
    8  A    between atoms: C_17  and  C_26
    9  A    between atoms: C_17  and  C_33
   10  A    between atoms: C_22  and  N_24
   11  A    between atoms: C_26  and  O_34
   12  A    between atoms: C_27  and  C_37
   13  A    between atoms: C_29  and  C_36
   14  A    between atoms: C_33  and  C_36
                            x       y       z     vdW  Elec       q    Type
                         _______ _______ _______ _____ _____    ______ ____

>  <TORSDO>
F 14

$$$$
=
 OpenBabel11052415283D

 37 39  0  0  1  0  0  0  0  0999 V2000
  182.3510  179.7460  140.9060 C   0  0  0  0  0  2  0  0  0  0  0  0
  180.5790  175.8820  139.5440 C   0  0  0  0  0  3  0  0  0  0  0  0
  183.2950  179.5150  139.7190 C   0  0  2  0  0  3  0  0  0  0  0  0
  181.0890  177.1830  139.5540 C   0  0  0  0  0  0  0  0  0  0  0  0
  180.6740  178.0930  140.6610 C   0  0  0  0  0  2  0  0  0  0  0  0
  181.9810  177.5940  138.5390 C   0  0  0  0  0  0  0  0  0  0  0  0
  181.8190  175.3920  137.5270 C   0  0  0  0  0  3  0  0  0  0  0  0
  181.8410  178.4880  141.4420 N   0  0  0  0  0  0  0  0  0  0  0  0
  182.3330  176.6910  137.5310 C   0  0  0  0  0  3  0  0  0  0  0  0
  182.5660  178.9810  138.4680 C   0  0  1  0  0  3  0  0  0  0  0  0
  180.9400  174.9800  138.5310 C   0  0  0  0  0  0  0  0  0  0  0  0
  180.4430  173.6740  138.5010 O   0  0  0  0  0  0  0  0  0  0  0  0
  180.4600  172.8720  137.3280 C   0  0  0  0  0  1  0  0  0  0  0  0
  185.4900  178.2480  138.6060 S   0  0  0  0  0  1  0  0  0  0  0  0
  184.5070  178.6470  140.0880 C   0  0  1  0  0  3  0  0  0  0  0  0
  185.4030  179.3590  141.0950 C   0  0  0  0  0  2  0  0  0  0  0  0
  185.3880  177.5040  142.8510 C   0  0  0  0  0  1  0  0  0  0  0  0
  186.2310  178.3660  141.9010 C   0  0  2  0  0  3  0  0  0  0  0  0
  188.2910  179.4090  141.4480 O   0  0  0  0  0  0  0  0  0  0  0  0
  187.4430  178.9940  142.4750 N   0  0  0  0  0  0  0  0  0  0  0  0
  188.7200  178.3520  142.1850 C   0  0  2  0  0  0  0  0  0  0  0  0
  189.8370  178.7240  143.1390 C   0  0  0  0  0  1  0  0  0  0  0  0
  189.0130  177.0570  139.9420 C   0  0  0  0  0  1  0  0  0  0  0  0
  188.7360  175.9930  142.0130 O   0  0  0  0  0  0  0  0  0  0  0  0
  188.7870  177.0560  141.4190 C   0  0  0  0  0  0  0  0  0  0  0  0
  181.4550  178.6720  142.8450 C   0  0  0  0  0  2  0  0  0  0  0  0
  182.6300  179.0070  143.7650 C   0  0  0  0  0  1  0  0  0  0  0  0
  181.7660  179.9890  137.6240 C   0  0  1  0  0  3  0  0  0  0  0  0
  180.7700  179.3670  136.6820 C   0  0  0  0  0  0  0  0  0  0  0  0
  179.5030  179.2420  137.0760 C   0  0  0  0  0  2  0  0  0  0  0  0
  180.2170  177.9100  134.7520 C   0  0  0  0  0  1  0  0  0  0  0  0
  181.1530  178.9790  135.2860 C   0  0  0  0  0  2  0  0  0  0  0  0
  181.1380  181.0870  138.4760 C   0  0  0  0  0  2  0  0  0  0  0  0
  181.5980  182.4530  138.0010 C   0  0  0  0  0  2  0  0  0  0  0  0
  180.4620  183.1420  137.2760 C   0  0  0  0  0  2  0  0  0  0  0  0
  180.8070  184.5890  135.6480 C   0  0  0  0  0  1  0  0  0  0  0  0
  180.8030  184.4720  137.0380 O   0  0  0  0  0  0  0  0  0  0  0  0
  1  8  1  0  0  0  0
  2  4  1  0  0  0  0
  3 15  1  1  0  0  0
  3  1  1  0  0  0  0
  4  5  1  0  0  0  0
  5  8  1  0  0  0  0
  6  4  2  0  0  0  0
  7  9  2  0  0  0  0
  7 11  1  0  0  0  0
  8 26  1  0  0  0  0
  9  6  1  0  0  0  0
 10 28  1  1  0  0  0
 10  6  1  0  0  0  0
 10  3  1  0  0  0  0
 11  2  2  0  0  0  0
 12 11  1  0  0  0  0
 13 12  1  0  0  0  0
 15 14  1  6  0  0  0
 15 16  1  0  0  0  0
 16 18  1  0  0  0  0
 18 20  1  0  0  0  0
 18 17  1  1  0  0  0
 19 21  1  0  0  0  0
 19 20  1  0  0  0  0
 21 20  1  0  0  0  0
 21 22  1  1  0  0  0
 23 25  1  0  0  0  0
 25 24  2  0  0  0  0
 25 21  1  0  0  0  0
 26 27  1  0  0  0  0
 28 33  1  1  0  0  0
 29 30  2  0  0  0  0
 29 28  1  0  0  0  0
 31 32  1  0  0  0  0
 32 29  1  0  0  0  0
 34 33  1  0  0  0  0
 35 34  1  0  0  0  0
 36 37  1  0  0  0  0
 37 35  1  0  0  0  0
M  END
>  <MODEL>
6

>  <REMARK>
 VINA RESULT:      -2.9      2.567      6.378
  Name = 
  14 active torsions:
  status: ('A' for Active; 'I' for Inactive)
    1  A    between atoms: C_1  and  C_12
    2  A    between atoms: C_1  and  C_36
    3  A    between atoms: O_3  and  C_32
    4  A    between atoms: N_6  and  C_37
    5  A    between atoms: C_8  and  C_35
    6  A    between atoms: C_10  and  C_14
    7  A    between atoms: C_14  and  C_27
    8  A    between atoms: C_17  and  C_26
    9  A    between atoms: C_17  and  C_33
   10  A    between atoms: C_22  and  N_24
   11  A    between atoms: C_26  and  O_34
   12  A    between atoms: C_27  and  C_37
   13  A    between atoms: C_29  and  C_36
   14  A    between atoms: C_33  and  C_36
                            x       y       z     vdW  Elec       q    Type
                         _______ _______ _______ _____ _____    ______ ____

>  <TORSDO>
F 14

$$$$
=
 OpenBabel11052415283D

 37 39  0  0  1  0  0  0  0  0999 V2000
  189.8790  176.0000  138.3880 C   0  0  0  0  0  2  0  0  0  0  0  0
  194.1050  176.3860  137.0020 C   0  0  0  0  0  3  0  0  0  0  0  0
  189.5780  176.0630  136.8850 C   0  0  2  0  0  3  0  0  0  0  0  0
  192.7810  175.9580  137.1370 C   0  0  0  0  0  0  0  0  0  0  0  0
  192.2330  175.7870  138.5140 C   0  0  0  0  0  2  0  0  0  0  0  0
  192.0020  175.7150  135.9840 C   0  0  0  0  0  0  0  0  0  0  0  0
  193.8990  176.3250  134.5950 C   0  0  0  0  0  3  0  0  0  0  0  0
  191.1150  176.7000  138.7210 N   0  0  0  0  0  0  0  0  0  0  0  0
  192.5750  175.8980  134.7210 C   0  0  0  0  0  3  0  0  0  0  0  0
  190.5730  175.2400  136.0390 C   0  0  1  0  0  3  0  0  0  0  0  0
  194.6710  176.5710  135.7320 C   0  0  0  0  0  0  0  0  0  0  0  0
  195.9920  176.9990  135.5730 O   0  0  0  0  0  0  0  0  0  0  0  0
  196.3490  178.1050  134.7560 C   0  0  0  0  0  1  0  0  0  0  0  0
  189.0080  177.5150  134.5990 S   0  0  0  0  0  1  0  0  0  0  0  0
  189.4440  177.5030  136.3690 C   0  0  1  0  0  3  0  0  0  0  0  0
  188.3750  178.2640  137.1440 C   0  0  0  0  0  2  0  0  0  0  0  0
  186.5940  179.2800  135.6200 C   0  0  0  0  0  1  0  0  0  0  0  0
  187.0010  178.0950  136.5060 C   0  0  2  0  0  3  0  0  0  0  0  0
  186.1050  176.2370  137.6390 O   0  0  0  0  0  0  0  0  0  0  0  0
  185.9930  177.6180  137.4810 N   0  0  0  0  0  0  0  0  0  0  0  0
  184.9950  176.6740  136.9920 C   0  0  2  0  0  0  0  0  0  0  0  0
  183.7490  176.5840  137.8480 C   0  0  0  0  0  1  0  0  0  0  0  0
  184.0250  176.9920  134.5940 C   0  0  0  0  0  1  0  0  0  0  0  0
  185.6960  175.4290  135.1060 O   0  0  0  0  0  0  0  0  0  0  0  0
  184.9380  176.2810  135.5380 C   0  0  0  0  0  0  0  0  0  0  0  0
  191.0790  177.1240  140.1240 C   0  0  0  0  0  2  0  0  0  0  0  0
  189.6710  177.1450  140.7220 C   0  0  0  0  0  1  0  0  0  0  0  0
  190.3870  173.7130  136.0040 C   0  0  1  0  0  3  0  0  0  0  0  0
  188.9530  173.2570  136.0030 C   0  0  0  0  0  0  0  0  0  0  0  0
  188.2260  173.4150  134.8960 C   0  0  0  0  0  2  0  0  0  0  0  0
  186.8510  172.7030  137.1990 C   0  0  0  0  0  1  0  0  0  0  0  0
  188.3600  172.5430  137.1800 C   0  0  0  0  0  2  0  0  0  0  0  0
  191.1950  173.0580  134.8890 C   0  0  0  0  0  2  0  0  0  0  0  0
  191.8140  171.7610  135.3760 C   0  0  0  0  0  2  0  0  0  0  0  0
  193.1170  172.0610  136.0860 C   0  0  0  0  0  2  0  0  0  0  0  0
  193.4780  169.9190  135.7080 C   0  0  0  0  0  1  0  0  0  0  0  0
  194.0960  171.1680  135.6550 O   0  0  0  0  0  0  0  0  0  0  0  0
  1  8  1  0  0  0  0
  2  4  1  0  0  0  0
  3 15  1  6  0  0  0
  3  1  1  0  0  0  0
  4  5  1  0  0  0  0
  5  8  1  0  0  0  0
  6 10  1  0  0  0  0
  6  4  2  0  0  0  0
  7  9  2  0  0  0  0
  7 11  1  0  0  0  0
  8 26  1  0  0  0  0
  9  6  1  0  0  0  0
 10 28  1  1  0  0  0
 10  3  1  0  0  0  0
 11  2  2  0  0  0  0
 12 11  1  0  0  0  0
 13 12  1  0  0  0  0
 15 14  1  6  0  0  0
 15 16  1  0  0  0  0
 18 17  1  1  0  0  0
 18 16  1  0  0  0  0
 18 20  1  0  0  0  0
 20 19  1  0  0  0  0
 21 20  1  0  0  0  0
 21 19  1  0  0  0  0
 21 22  1  1  0  0  0
 23 25  1  0  0  0  0
 24 25  2  0  0  0  0
 25 21  1  0  0  0  0
 26 27  1  0  0  0  0
 28 33  1  6  0  0  0
 29 28  1  0  0  0  0
 29 32  1  0  0  0  0
 30 29  2  0  0  0  0
 32 31  1  0  0  0  0
 33 34  1  0  0  0  0
 34 35  1  0  0  0  0
 37 36  1  0  0  0  0
 37 35  1  0  0  0  0
M  END
>  <MODEL>
7

>  <REMARK>
 VINA RESULT:      -2.9      4.374     10.546
  Name = 
  14 active torsions:
  status: ('A' for Active; 'I' for Inactive)
    1  A    between atoms: C_1  and  C_12
    2  A    between atoms: C_1  and  C_36
    3  A    between atoms: O_3  and  C_32
    4  A    between atoms: N_6  and  C_37
    5  A    between atoms: C_8  and  C_35
    6  A    between atoms: C_10  and  C_14
    7  A    between atoms: C_14  and  C_27
    8  A    between atoms: C_17  and  C_26
    9  A    between atoms: C_17  and  C_33
   10  A    between atoms: C_22  and  N_24
   11  A    between atoms: C_26  and  O_34
   12  A    between atoms: C_27  and  C_37
   13  A    between atoms: C_29  and  C_36
   14  A    between atoms: C_33  and  C_36
                            x       y       z     vdW  Elec       q    Type
                         _______ _______ _______ _____ _____    ______ ____

>  <TORSDO>
F 14

$$$$
=
 OpenBabel11052415283D

 37 39  0  0  1  0  0  0  0  0999 V2000
  183.1890  180.3810  138.7010 C   0  0  0  0  0  2  0  0  0  0  0  0
  180.5450  176.8350  138.0920 C   0  0  0  0  0  3  0  0  0  0  0  0
  184.1670  179.3240  139.2310 C   0  0  2  0  0  3  0  0  0  0  0  0
  181.6500  177.6910  138.0770 C   0  0  0  0  0  0  0  0  0  0  0  0
  181.4240  179.1280  137.7420 C   0  0  0  0  0  2  0  0  0  0  0  0
  182.9320  177.1860  138.3860 C   0  0  0  0  0  0  0  0  0  0  0  0
  181.9670  174.9800  138.7080 C   0  0  0  0  0  3  0  0  0  0  0  0
  181.8000  179.9660  138.8740 N   0  0  0  0  0  0  0  0  0  0  0  0
  183.0760  175.8300  138.6960 C   0  0  0  0  0  3  0  0  0  0  0  0
  184.1770  178.0360  138.3820 C   0  0  1  0  0  3  0  0  0  0  0  0
  180.6970  175.4760  138.4060 C   0  0  0  0  0  0  0  0  0  0  0  0
  179.6070  174.6030  138.4280 O   0  0  0  0  0  0  0  0  0  0  0  0
  179.1870  173.9260  139.6050 C   0  0  0  0  0  1  0  0  0  0  0  0
  182.2430  178.5040  141.0440 S   0  0  0  0  0  1  0  0  0  0  0  0
  183.9600  179.0240  140.7230 C   0  0  1  0  0  3  0  0  0  0  0  0
  184.9030  177.9240  141.1950 C   0  0  0  0  0  2  0  0  0  0  0  0
  185.0540  179.4290  143.2530 C   0  0  0  0  0  1  0  0  0  0  0  0
  185.7560  178.3900  142.3690 C   0  0  2  0  0  3  0  0  0  0  0  0
  187.7140  177.5830  141.3420 O   0  0  0  0  0  0  0  0  0  0  0  0
  187.1440  178.6980  141.9550 N   0  0  0  0  0  0  0  0  0  0  0  0
  188.2070  177.9080  142.5650 C   0  0  2  0  0  0  0  0  0  0  0  0
  189.5800  178.5420  142.4880 C   0  0  0  0  0  1  0  0  0  0  0  0
  187.6370  177.3240  145.0400 C   0  0  0  0  0  1  0  0  0  0  0  0
  187.8080  175.7110  143.3470 O   0  0  0  0  0  0  0  0  0  0  0  0
  187.9080  176.8910  143.6370 C   0  0  0  0  0  0  0  0  0  0  0  0
  180.9350  181.1490  138.9200 C   0  0  0  0  0  2  0  0  0  0  0  0
  181.4420  182.3120  138.0650 C   0  0  0  0  0  1  0  0  0  0  0  0
  184.9460  178.0660  137.0490 C   0  0  1  0  0  3  0  0  0  0  0  0
  186.4310  177.8600  137.1780 C   0  0  0  0  0  0  0  0  0  0  0  0
  187.2550  178.7430  136.6130 C   0  0  0  0  0  2  0  0  0  0  0  0
  188.5110  176.8270  138.0500 C   0  0  0  0  0  1  0  0  0  0  0  0
  186.9960  176.7460  138.0050 C   0  0  0  0  0  2  0  0  0  0  0  0
  184.3290  177.1400  136.0050 C   0  0  0  0  0  2  0  0  0  0  0  0
  185.3580  176.1410  135.5110 C   0  0  0  0  0  2  0  0  0  0  0  0
  184.6500  174.9480  134.9060 C   0  0  0  0  0  2  0  0  0  0  0  0
  183.2350  173.4040  135.5950 C   0  0  0  0  0  1  0  0  0  0  0  0
  184.4780  173.9670  135.8810 O   0  0  0  0  0  0  0  0  0  0  0  0
  1  8  1  0  0  0  0
  1  3  1  0  0  0  0
  2 11  1  0  0  0  0
  3 15  1  1  0  0  0
  4  2  2  0  0  0  0
  4  6  1  0  0  0  0
  5  4  1  0  0  0  0
  5  8  1  0  0  0  0
  6  9  2  0  0  0  0
  8 26  1  0  0  0  0
  9  7  1  0  0  0  0
 10 28  1  6  0  0  0
 10  6  1  0  0  0  0
 10  3  1  0  0  0  0
 11 12  1  0  0  0  0
 11  7  2  0  0  0  0
 12 13  1  0  0  0  0
 15 14  1  6  0  0  0
 15 16  1  0  0  0  0
 16 18  1  0  0  0  0
 18 17  1  6  0  0  0
 19 20  1  0  0  0  0
 19 21  1  0  0  0  0
 20 18  1  0  0  0  0
 20 21  1  0  0  0  0
 21 22  1  1  0  0  0
 21 25  1  0  0  0  0
 24 25  2  0  0  0  0
 25 23  1  0  0  0  0
 27 26  1  0  0  0  0
 28 33  1  6  0  0  0
 28 29  1  0  0  0  0
 29 32  1  0  0  0  0
 30 29  2  0  0  0  0
 32 31  1  0  0  0  0
 34 33  1  0  0  0  0
 35 34  1  0  0  0  0
 35 37  1  0  0  0  0
 36 37  1  0  0  0  0
M  END
>  <MODEL>
8

>  <REMARK>
 VINA RESULT:      -2.9      2.846      6.126
  Name = 
  14 active torsions:
  status: ('A' for Active; 'I' for Inactive)
    1  A    between atoms: C_1  and  C_12
    2  A    between atoms: C_1  and  C_36
    3  A    between atoms: O_3  and  C_32
    4  A    between atoms: N_6  and  C_37
    5  A    between atoms: C_8  and  C_35
    6  A    between atoms: C_10  and  C_14
    7  A    between atoms: C_14  and  C_27
    8  A    between atoms: C_17  and  C_26
    9  A    between atoms: C_17  and  C_33
   10  A    between atoms: C_22  and  N_24
   11  A    between atoms: C_26  and  O_34
   12  A    between atoms: C_27  and  C_37
   13  A    between atoms: C_29  and  C_36
   14  A    between atoms: C_33  and  C_36
                            x       y       z     vdW  Elec       q    Type
                         _______ _______ _______ _____ _____    ______ ____

>  <TORSDO>
F 14

$$$$
=
 OpenBabel11052415283D

 37 39  0  0  1  0  0  0  0  0999 V2000
  182.0220  177.0990  135.3960 C   0  0  0  0  0  2  0  0  0  0  0  0
  180.4860  179.3740  138.9170 C   0  0  0  0  0  3  0  0  0  0  0  0
  182.8940  176.4150  136.4570 C   0  0  2  0  0  3  0  0  0  0  0  0
  180.8850  178.3310  138.0750 C   0  0  0  0  0  0  0  0  0  0  0  0
  180.4760  178.3880  136.6410 C   0  0  0  0  0  2  0  0  0  0  0  0
  181.6640  177.2730  138.5920 C   0  0  0  0  0  0  0  0  0  0  0  0
  181.6150  178.3260  140.7800 C   0  0  0  0  0  3  0  0  0  0  0  0
  181.6580  178.4560  135.7910 N   0  0  0  0  0  0  0  0  0  0  0  0
  182.0180  177.2810  139.9450 C   0  0  0  0  0  3  0  0  0  0  0  0
  182.1250  176.1050  137.7580 C   0  0  1  0  0  3  0  0  0  0  0  0
  180.8480  179.3770  140.2730 C   0  0  0  0  0  0  0  0  0  0  0  0
  180.4620  180.4090  141.1320 O   0  0  0  0  0  0  0  0  0  0  0  0
  179.8380  180.1700  142.3870 C   0  0  0  0  0  1  0  0  0  0  0  0
  184.4280  177.4380  138.5200 S   0  0  0  0  0  1  0  0  0  0  0  0
  184.1980  177.1780  136.7310 C   0  0  1  0  0  3  0  0  0  0  0  0
  185.4010  176.4190  136.1850 C   0  0  0  0  0  2  0  0  0  0  0  0
  186.5950  178.2940  134.9270 C   0  0  0  0  0  1  0  0  0  0  0  0
  186.6320  177.3140  136.1060 C   0  0  2  0  0  3  0  0  0  0  0  0
  187.9330  176.0270  137.5860 O   0  0  0  0  0  0  0  0  0  0  0  0
  187.8860  176.5470  136.2930 N   0  0  0  0  0  0  0  0  0  0  0  0
  188.8090  177.0280  137.3140 C   0  0  2  0  0  0  0  0  0  0  0  0
  190.2310  176.5290  137.1550 C   0  0  0  0  0  1  0  0  0  0  0  0
  188.0220  178.2570  139.4740 C   0  0  0  0  0  1  0  0  0  0  0  0
  188.8200  179.3790  137.5760 O   0  0  0  0  0  0  0  0  0  0  0  0
  188.5400  178.3020  138.0740 C   0  0  0  0  0  0  0  0  0  0  0  0
  181.3590  179.2520  134.5960 C   0  0  0  0  0  2  0  0  0  0  0  0
  180.5690  180.5280  134.8910 C   0  0  0  0  0  1  0  0  0  0  0  0
  181.1850  174.8870  137.7590 C   0  0  1  0  0  3  0  0  0  0  0  0
  179.7190  175.2260  137.7920 C   0  0  0  0  0  0  0  0  0  0  0  0
  179.0560  175.3350  136.6400 C   0  0  0  0  0  2  0  0  0  0  0  0
  179.5930  174.4500  140.1450 C   0  0  0  0  0  1  0  0  0  0  0  0
  178.9750  175.3460  139.0880 C   0  0  0  0  0  2  0  0  0  0  0  0
  181.5170  173.8990  136.6450 C   0  0  0  0  0  2  0  0  0  0  0  0
  182.4480  172.8170  137.1580 C   0  0  0  0  0  2  0  0  0  0  0  0
  183.6410  172.7000  136.2340 C   0  0  0  0  0  2  0  0  0  0  0  0
  183.4300  170.5090  136.1000 C   0  0  0  0  0  1  0  0  0  0  0  0
  184.3170  171.5090  136.4970 O   0  0  0  0  0  0  0  0  0  0  0  0
  1  8  1  0  0  0  0
  1  3  1  0  0  0  0
  2 11  1  0  0  0  0
  3 15  1  1  0  0  0
  3 10  1  0  0  0  0
  4  6  1  0  0  0  0
  4  2  2  0  0  0  0
  5  4  1  0  0  0  0
  6  9  2  0  0  0  0
  8  5  1  0  0  0  0
  9  7  1  0  0  0  0
 10 28  1  6  0  0  0
 10  6  1  0  0  0  0
 11  7  2  0  0  0  0
 11 12  1  0  0  0  0
 12 13  1  0  0  0  0
 15 14  1  1  0  0  0
 16 15  1  0  0  0  0
 18 17  1  6  0  0  0
 18 16  1  0  0  0  0
 18 20  1  0  0  0  0
 20 21  1  0  0  0  0
 20 19  1  0  0  0  0
 21 22  1  6  0  0  0
 21 19  1  0  0  0  0
 21 25  1  0  0  0  0
 24 25  2  0  0  0  0
 25 23  1  0  0  0  0
 26 27  1  0  0  0  0
 26  8  1  0  0  0  0
 28 33  1  6  0  0  0
 28 29  1  0  0  0  0
 29 32  1  0  0  0  0
 30 29  2  0  0  0  0
 32 31  1  0  0  0  0
 33 34  1  0  0  0  0
 35 37  1  0  0  0  0
 35 34  1  0  0  0  0
 36 37  1  0  0  0  0
M  END
>  <MODEL>
9

>  <REMARK>
 VINA RESULT:      -2.8      2.116      3.872
  Name = 
  14 active torsions:
  status: ('A' for Active; 'I' for Inactive)
    1  A    between atoms: C_1  and  C_12
    2  A    between atoms: C_1  and  C_36
    3  A    between atoms: O_3  and  C_32
    4  A    between atoms: N_6  and  C_37
    5  A    between atoms: C_8  and  C_35
    6  A    between atoms: C_10  and  C_14
    7  A    between atoms: C_14  and  C_27
    8  A    between atoms: C_17  and  C_26
    9  A    between atoms: C_17  and  C_33
   10  A    between atoms: C_22  and  N_24
   11  A    between atoms: C_26  and  O_34
   12  A    between atoms: C_27  and  C_37
   13  A    between atoms: C_29  and  C_36
   14  A    between atoms: C_33  and  C_36
                            x       y       z     vdW  Elec       q    Type
                         _______ _______ _______ _____ _____    ______ ____

>  <TORSDO>
F 14

$$$$
