=
 OpenBabel11052413203D

 28 31  0  0  1  0  0  0  0  0999 V2000
  189.0980  177.9310  140.1210 C   0  0  1  0  0  3  0  0  0  0  0  0
  184.4320  178.3200  141.8170 C   0  0  0  0  0  3  0  0  0  0  0  0
  188.5010  175.3830  143.2190 O   0  0  0  0  0  0  0  0  0  0  0  0
  184.6320  178.5930  144.2240 C   0  0  0  0  0  0  0  0  0  0  0  0
  186.5970  177.9920  142.9050 C   0  0  0  0  0  0  0  0  0  0  0  0
  182.4940  178.9300  143.1370 C   0  0  0  0  0  0  0  0  0  0  0  0
  185.2240  178.2900  142.9750 C   0  0  0  0  0  0  0  0  0  0  0  0
  186.7590  178.2530  145.3240 C   0  0  0  0  0  3  0  0  0  0  0  0
  183.2720  178.9100  144.2970 C   0  0  0  0  0  3  0  0  0  0  0  0
  189.2300  176.3990  143.3770 C   0  0  0  0  0  0  0  0  0  0  0  0
  187.2150  177.7610  141.6310 N   0  0  0  0  0  0  0  0  0  0  0  0
  185.4050  178.5860  145.3850 C   0  0  0  0  0  3  0  0  0  0  0  0
  190.5550  176.1950  141.2710 C   0  0  0  0  0  2  0  0  0  0  0  0
  188.7380  177.5330  144.1020 N   0  0  0  0  0  2  0  0  0  0  0  0
  190.6000  176.4340  142.7810 C   0  0  0  0  0  2  0  0  0  0  0  0
  181.0490  179.2670  143.2190 C   0  0  0  0  0  1  0  0  0  0  0  0
  183.0730  178.6360  141.8990 C   0  0  0  0  0  3  0  0  0  0  0  0
  187.3570  177.9270  144.1050 C   0  0  0  0  0  0  0  0  0  0  0  0
  190.5210  177.5030  140.4790 C   0  0  0  0  0  2  0  0  0  0  0  0
  188.3420  178.3230  141.3350 C   0  0  0  0  0  3  0  0  0  0  0  0
  189.0420  178.9900  139.0070 C   0  0  0  0  0  2  0  0  0  0  0  0
  188.4340  178.6280  137.6330 C   0  0  2  0  0  3  0  0  0  0  0  0
  188.0900  176.6700  136.8380 C   0  0  1  0  0  3  0  0  0  0  0  0
  187.2840  177.6390  137.6880 C   0  0  2  0  0  3  0  0  0  0  0  0
  189.4290  178.1410  135.5270 O   0  0  0  0  0  1  0  0  0  0  0  0
  189.2560  177.6450  136.8190 C   0  0  1  0  0  3  0  0  0  0  0  0
  188.4260  175.5470  137.5940 O   0  0  0  0  0  1  0  0  0  0  0  0
  186.2120  178.1310  136.9440 O   0  0  0  0  0  1  0  0  0  0  0  0
  1 21  1  6  0  0  0
  1 19  1  0  0  0  0
  1 20  1  0  0  0  0
  2 17  2  0  0  0  0
  2  7  1  0  0  0  0
  3 10  2  0  0  0  0
  4  9  1  0  0  0  0
  4 12  1  0  0  0  0
  5  7  1  0  0  0  0
  5 18  2  0  0  0  0
  6 16  1  0  0  0  0
  6  9  2  0  0  0  0
  7  4  2  0  0  0  0
  8 12  2  0  0  0  0
 10 14  1  0  0  0  0
 11  5  1  0  0  0  0
 13 15  1  0  0  0  0
 14 18  1  0  0  0  0
 15 10  1  0  0  0  0
 17  6  1  0  0  0  0
 18  8  1  0  0  0  0
 19 13  1  0  0  0  0
 20 11  2  0  0  0  0
 22 24  1  0  0  0  0
 22 21  1  1  0  0  0
 23 27  1  1  0  0  0
 23 24  1  0  0  0  0
 24 28  1  6  0  0  0
 26 25  1  6  0  0  0
 26 23  1  0  0  0  0
 26 22  1  0  0  0  0
M  END
>  <MODEL>
1

>  <REMARK>
 VINA RESULT:      -8.9      0.000      0.000
  Name = 
  2 active torsions:
  status: ('A' for Active; 'I' for Inactive)
    1  A    between atoms: C_1  and  C_2
    2  A    between atoms: C_2  and  C_3
                            x       y       z     vdW  Elec       q    Type
                         _______ _______ _______ _____ _____    ______ ____

>  <TORSDO>
F 2

$$$$
=
 OpenBabel11052413203D

 28 31  0  0  1  0  0  0  0  0999 V2000
  190.8460  177.5550  144.2710 C   0  0  1  0  0  3  0  0  0  0  0  0
  185.9050  177.9390  143.7920 C   0  0  0  0  0  3  0  0  0  0  0  0
  188.9790  175.8070  147.4180 O   0  0  0  0  0  0  0  0  0  0  0  0
  185.1070  178.8120  145.9160 C   0  0  0  0  0  0  0  0  0  0  0  0
  187.4270  178.0810  145.7010 C   0  0  0  0  0  0  0  0  0  0  0  0
  183.6090  178.6820  144.0170 C   0  0  0  0  0  0  0  0  0  0  0  0
  186.1520  178.2650  145.1340 C   0  0  0  0  0  0  0  0  0  0  0  0
  186.5890  178.9420  147.8220 C   0  0  0  0  0  3  0  0  0  0  0  0
  183.8440  179.0170  145.3520 C   0  0  0  0  0  3  0  0  0  0  0  0
  189.6010  176.8900  147.5840 C   0  0  0  0  0  0  0  0  0  0  0  0
  188.5070  177.5970  144.8890 N   0  0  0  0  0  0  0  0  0  0  0  0
  185.3360  179.1600  147.2470 C   0  0  0  0  0  3  0  0  0  0  0  0
  191.6680  176.2910  146.3180 C   0  0  0  0  0  2  0  0  0  0  0  0
  188.8800  178.1200  147.7290 N   0  0  0  0  0  2  0  0  0  0  0  0
  191.0950  176.8980  147.6010 C   0  0  0  0  0  2  0  0  0  0  0  0
  182.2650  178.9000  143.4220 C   0  0  0  0  0  1  0  0  0  0  0  0
  184.6390  178.1450  143.2370 C   0  0  0  0  0  3  0  0  0  0  0  0
  187.6270  178.3800  147.0760 C   0  0  0  0  0  0  0  0  0  0  0  0
  191.9890  177.3550  145.2680 C   0  0  0  0  0  2  0  0  0  0  0  0
  189.6680  178.1660  144.9340 C   0  0  0  0  0  3  0  0  0  0  0  0
  191.2740  178.2980  142.9950 C   0  0  0  0  0  2  0  0  0  0  0  0
  190.5850  177.9720  141.6500 C   0  0  2  0  0  3  0  0  0  0  0  0
  188.9240  176.6610  141.3230 C   0  0  1  0  0  3  0  0  0  0  0  0
  189.0760  178.1370  141.6530 C   0  0  2  0  0  3  0  0  0  0  0  0
  190.9060  176.2160  140.0780 O   0  0  0  0  0  1  0  0  0  0  0  0
  190.4340  176.4890  141.3620 C   0  0  1  0  0  3  0  0  0  0  0  0
  188.3460  175.9930  142.4030 O   0  0  0  0  0  1  0  0  0  0  0  0
  188.6900  178.9030  140.5530 O   0  0  0  0  0  1  0  0  0  0  0  0
  1 21  1  6  0  0  0
  1 20  1  0  0  0  0
  1 19  1  0  0  0  0
  2  7  1  0  0  0  0
  3 10  2  0  0  0  0
  4 12  1  0  0  0  0
  5 18  2  0  0  0  0
  6  9  2  0  0  0  0
  7  5  1  0  0  0  0
  7  4  2  0  0  0  0
  9  4  1  0  0  0  0
 10 15  1  0  0  0  0
 10 14  1  0  0  0  0
 11 20  2  0  0  0  0
 11  5  1  0  0  0  0
 12  8  2  0  0  0  0
 13 15  1  0  0  0  0
 16  6  1  0  0  0  0
 17  2  2  0  0  0  0
 17  6  1  0  0  0  0
 18 14  1  0  0  0  0
 18  8  1  0  0  0  0
 19 13  1  0  0  0  0
 22 24  1  0  0  0  0
 22 21  1  1  0  0  0
 23 26  1  0  0  0  0
 23 24  1  0  0  0  0
 23 27  1  1  0  0  0
 24 28  1  6  0  0  0
 26 25  1  6  0  0  0
 26 22  1  0  0  0  0
M  END
>  <MODEL>
2

>  <REMARK>
 VINA RESULT:      -8.7      2.541      3.784
  Name = 
  2 active torsions:
  status: ('A' for Active; 'I' for Inactive)
    1  A    between atoms: C_1  and  C_2
    2  A    between atoms: C_2  and  C_3
                            x       y       z     vdW  Elec       q    Type
                         _______ _______ _______ _____ _____    ______ ____

>  <TORSDO>
F 2

$$$$
=
 OpenBabel11052413203D

 28 31  0  0  1  0  0  0  0  0999 V2000
  187.4190  177.5230  137.8680 C   0  0  1  0  0  3  0  0  0  0  0  0
  188.1280  176.9540  142.7640 C   0  0  0  0  0  3  0  0  0  0  0  0
  190.5860  175.0890  138.5660 O   0  0  0  0  0  0  0  0  0  0  0  0
  190.4870  177.4020  143.1400 C   0  0  0  0  0  0  0  0  0  0  0  0
  189.6440  177.1830  140.8590 C   0  0  0  0  0  0  0  0  0  0  0  0
  188.9770  177.1890  145.0220 C   0  0  0  0  0  0  0  0  0  0  0  0
  189.4140  177.1690  142.2470 C   0  0  0  0  0  0  0  0  0  0  0  0
  192.0080  177.6110  141.2720 C   0  0  0  0  0  3  0  0  0  0  0  0
  190.2620  177.4110  144.5200 C   0  0  0  0  0  3  0  0  0  0  0  0
  190.7780  176.2500  138.1140 C   0  0  0  0  0  0  0  0  0  0  0  0
  188.5440  177.0230  139.9510 N   0  0  0  0  0  0  0  0  0  0  0  0
  191.7710  177.6350  142.6470 C   0  0  0  0  0  3  0  0  0  0  0  0
  189.0020  176.2280  136.3600 C   0  0  0  0  0  2  0  0  0  0  0  0
  191.2740  177.2850  138.9730 N   0  0  0  0  0  2  0  0  0  0  0  0
  190.4600  176.5560  136.6860 C   0  0  0  0  0  2  0  0  0  0  0  0
  188.7410  177.1970  146.4890 C   0  0  0  0  0  1  0  0  0  0  0  0
  187.9110  176.9620  144.1450 C   0  0  0  0  0  3  0  0  0  0  0  0
  190.9690  177.3580  140.3740 C   0  0  0  0  0  0  0  0  0  0  0  0
  188.0890  177.4460  136.4960 C   0  0  0  0  0  2  0  0  0  0  0  0
  188.4170  177.8050  138.9290 C   0  0  0  0  0  3  0  0  0  0  0  0
  186.2130  178.4770  137.9060 C   0  0  0  0  0  2  0  0  0  0  0  0
  184.9900  178.1330  138.7840 C   0  0  2  0  0  3  0  0  0  0  0  0
  183.3770  179.4300  139.3350 C   0  0  1  0  0  3  0  0  0  0  0  0
  183.6480  178.4890  138.1720 C   0  0  2  0  0  3  0  0  0  0  0  0
  184.5750  178.3910  141.1130 O   0  0  0  0  0  1  0  0  0  0  0  0
  184.7400  179.1030  139.9250 C   0  0  1  0  0  3  0  0  0  0  0  0
  183.3640  180.7490  138.8810 O   0  0  0  0  0  1  0  0  0  0  0  0
  182.7930  177.3900  138.2530 O   0  0  0  0  0  1  0  0  0  0  0  0
  1 21  1  6  0  0  0
  1 20  1  0  0  0  0
  2 17  1  0  0  0  0
  4  9  2  0  0  0  0
  5  7  1  0  0  0  0
  6 16  1  0  0  0  0
  7  2  2  0  0  0  0
  7  4  1  0  0  0  0
  8 12  2  0  0  0  0
  9  6  1  0  0  0  0
 10  3  2  0  0  0  0
 10 14  1  0  0  0  0
 11  5  1  0  0  0  0
 12  4  1  0  0  0  0
 13 19  1  0  0  0  0
 13 15  1  0  0  0  0
 14 18  1  0  0  0  0
 15 10  1  0  0  0  0
 17  6  2  0  0  0  0
 18  5  2  0  0  0  0
 18  8  1  0  0  0  0
 19  1  1  0  0  0  0
 20 11  2  0  0  0  0
 22 21  1  6  0  0  0
 22 26  1  0  0  0  0
 23 27  1  6  0  0  0
 23 26  1  0  0  0  0
 24 28  1  1  0  0  0
 24 22  1  0  0  0  0
 24 23  1  0  0  0  0
 26 25  1  1  0  0  0
M  END
>  <MODEL>
3

>  <REMARK>
 VINA RESULT:      -8.5      2.779      5.460
  Name = 
  2 active torsions:
  status: ('A' for Active; 'I' for Inactive)
    1  A    between atoms: C_1  and  C_2
    2  A    between atoms: C_2  and  C_3
                            x       y       z     vdW  Elec       q    Type
                         _______ _______ _______ _____ _____    ______ ____

>  <TORSDO>
F 2

$$$$
=
 OpenBabel11052413203D

 28 31  0  0  1  0  0  0  0  0999 V2000
  188.6740  177.7570  140.8820 C   0  0  1  0  0  3  0  0  0  0  0  0
  183.7300  178.0870  141.3750 C   0  0  0  0  0  3  0  0  0  0  0  0
  187.4660  175.9250  144.2920 O   0  0  0  0  0  0  0  0  0  0  0  0
  183.3500  178.9090  143.6310 C   0  0  0  0  0  0  0  0  0  0  0  0
  185.5910  178.2110  142.9560 C   0  0  0  0  0  0  0  0  0  0  0  0
  181.5150  178.7970  142.0550 C   0  0  0  0  0  0  0  0  0  0  0  0
  184.2290  178.3900  142.6500 C   0  0  0  0  0  0  0  0  0  0  0  0
  185.1720  179.0210  145.2170 C   0  0  0  0  0  3  0  0  0  0  0  0
  182.0000  179.1090  143.3270 C   0  0  0  0  0  3  0  0  0  0  0  0
  188.0990  177.0130  144.3580 C   0  0  0  0  0  0  0  0  0  0  0  0
  186.4980  177.7580  141.9400 N   0  0  0  0  0  0  0  0  0  0  0  0
  183.8300  179.2340  144.9000 C   0  0  0  0  0  3  0  0  0  0  0  0
  189.8870  176.4650  142.7040 C   0  0  0  0  0  2  0  0  0  0  0  0
  187.4090  178.2310  144.6660 N   0  0  0  0  0  2  0  0  0  0  0  0
  189.5680  177.0390  144.0860 C   0  0  0  0  0  2  0  0  0  0  0  0
  180.0790  179.0090  141.7360 C   0  0  0  0  0  1  0  0  0  0  0  0
  182.3780  178.2870  141.0800 C   0  0  0  0  0  3  0  0  0  0  0  0
  186.0510  178.4860  144.2730 C   0  0  0  0  0  0  0  0  0  0  0  0
  189.9890  177.5520  141.6340 C   0  0  0  0  0  2  0  0  0  0  0  0
  187.6400  178.3400  141.7720 C   0  0  0  0  0  3  0  0  0  0  0  0
  188.8390  178.5290  139.5630 C   0  0  0  0  0  2  0  0  0  0  0  0
  188.4810  177.8470  138.2230 C   0  0  2  0  0  3  0  0  0  0  0  0
  187.5800  178.7490  136.5030 C   0  0  1  0  0  3  0  0  0  0  0  0
  189.0070  178.5560  136.9890 C   0  0  2  0  0  3  0  0  0  0  0  0
  186.4710  176.8540  137.4270 O   0  0  0  0  0  1  0  0  0  0  0  0
  187.0530  178.0770  137.7610 C   0  0  1  0  0  3  0  0  0  0  0  0
  187.2560  180.1060  136.5230 O   0  0  0  0  0  1  0  0  0  0  0  0
  189.6580  177.6350  136.1660 O   0  0  0  0  0  1  0  0  0  0  0  0
  1 21  1  6  0  0  0
  1 19  1  0  0  0  0
  1 20  1  0  0  0  0
  2  7  1  0  0  0  0
  3 10  2  0  0  0  0
  4 12  1  0  0  0  0
  5 18  2  0  0  0  0
  6  9  2  0  0  0  0
  7  5  1  0  0  0  0
  7  4  2  0  0  0  0
  9  4  1  0  0  0  0
 10 14  1  0  0  0  0
 11  5  1  0  0  0  0
 12  8  2  0  0  0  0
 13 15  1  0  0  0  0
 15 10  1  0  0  0  0
 16  6  1  0  0  0  0
 17  2  2  0  0  0  0
 17  6  1  0  0  0  0
 18 14  1  0  0  0  0
 18  8  1  0  0  0  0
 19 13  1  0  0  0  0
 20 11  2  0  0  0  0
 22 21  1  1  0  0  0
 23 27  1  1  0  0  0
 23 24  1  0  0  0  0
 23 26  1  0  0  0  0
 24 28  1  6  0  0  0
 24 22  1  0  0  0  0
 26 25  1  6  0  0  0
 26 22  1  0  0  0  0
M  END
>  <MODEL>
4

>  <REMARK>
 VINA RESULT:      -8.4      1.134      1.947
  Name = 
  2 active torsions:
  status: ('A' for Active; 'I' for Inactive)
    1  A    between atoms: C_1  and  C_2
    2  A    between atoms: C_2  and  C_3
                            x       y       z     vdW  Elec       q    Type
                         _______ _______ _______ _____ _____    ______ ____

>  <TORSDO>
F 2

$$$$
=
 OpenBabel11052413203D

 28 31  0  0  1  0  0  0  0  0999 V2000
  183.5310  178.5240  141.9550 C   0  0  1  0  0  3  0  0  0  0  0  0
  188.4080  178.2250  140.9920 C   0  0  0  0  0  3  0  0  0  0  0  0
  185.6790  180.0550  145.0350 O   0  0  0  0  0  0  0  0  0  0  0  0
  189.4030  177.2070  142.9610 C   0  0  0  0  0  0  0  0  0  0  0  0
  187.0710  177.9290  143.0170 C   0  0  0  0  0  0  0  0  0  0  0  0
  190.7160  177.4900  140.9460 C   0  0  0  0  0  0  0  0  0  0  0  0
  188.2880  177.8000  142.3230 C   0  0  0  0  0  0  0  0  0  0  0  0
  188.1050  176.9230  144.9820 C   0  0  0  0  0  3  0  0  0  0  0  0
  190.6090  177.0560  142.2700 C   0  0  0  0  0  3  0  0  0  0  0  0
  185.0780  178.9570  145.1770 C   0  0  0  0  0  0  0  0  0  0  0  0
  185.9180  178.4600  142.3470 N   0  0  0  0  0  0  0  0  0  0  0  0
  189.3000  176.7600  144.2780 C   0  0  0  0  0  3  0  0  0  0  0  0
  182.9010  179.6260  144.1560 C   0  0  0  0  0  2  0  0  0  0  0  0
  185.8140  177.7260  145.1630 N   0  0  0  0  0  2  0  0  0  0  0  0
  183.5920  178.9330  145.3320 C   0  0  0  0  0  2  0  0  0  0  0  0
  192.0000  177.3300  140.2150 C   0  0  0  0  0  1  0  0  0  0  0  0
  189.6170  178.0730  140.3080 C   0  0  0  0  0  3  0  0  0  0  0  0
  187.0000  177.5280  144.3790 C   0  0  0  0  0  0  0  0  0  0  0  0
  182.4870  178.6390  143.0650 C   0  0  0  0  0  2  0  0  0  0  0  0
  184.7680  177.8780  142.4570 C   0  0  0  0  0  3  0  0  0  0  0  0
  182.9890  177.8730  140.6720 C   0  0  0  0  0  2  0  0  0  0  0  0
  183.1850  178.5780  139.3110 C   0  0  2  0  0  3  0  0  0  0  0  0
  184.9040  178.4920  138.0370 C   0  0  1  0  0  3  0  0  0  0  0  0
  183.6360  177.6670  138.1830 C   0  0  2  0  0  3  0  0  0  0  0  0
  184.1800  180.6570  138.7190 O   0  0  0  0  0  1  0  0  0  0  0  0
  184.4710  179.3770  139.1940 C   0  0  1  0  0  3  0  0  0  0  0  0
  186.0090  177.7290  138.4150 O   0  0  0  0  0  1  0  0  0  0  0  0
  182.8190  177.8670  137.0690 O   0  0  0  0  0  1  0  0  0  0  0  0
  1 21  1  6  0  0  0
  1 20  1  0  0  0  0
  1 19  1  0  0  0  0
  2  7  1  0  0  0  0
  3 10  2  0  0  0  0
  4 12  1  0  0  0  0
  5 18  2  0  0  0  0
  6  9  2  0  0  0  0
  7  4  2  0  0  0  0
  7  5  1  0  0  0  0
  9  4  1  0  0  0  0
 10 15  1  0  0  0  0
 11 20  2  0  0  0  0
 11  5  1  0  0  0  0
 12  8  2  0  0  0  0
 13 15  1  0  0  0  0
 14 10  1  0  0  0  0
 16  6  1  0  0  0  0
 17  6  1  0  0  0  0
 17  2  2  0  0  0  0
 18  8  1  0  0  0  0
 18 14  1  0  0  0  0
 19 13  1  0  0  0  0
 22 21  1  1  0  0  0
 23 24  1  0  0  0  0
 23 27  1  1  0  0  0
 23 26  1  0  0  0  0
 24 28  1  6  0  0  0
 24 22  1  0  0  0  0
 26 25  1  6  0  0  0
 26 22  1  0  0  0  0
M  END
>  <MODEL>
5

>  <REMARK>
 VINA RESULT:      -8.2      2.215      5.743
  Name = 
  2 active torsions:
  status: ('A' for Active; 'I' for Inactive)
    1  A    between atoms: C_1  and  C_2
    2  A    between atoms: C_2  and  C_3
                            x       y       z     vdW  Elec       q    Type
                         _______ _______ _______ _____ _____    ______ ____

>  <TORSDO>
F 2

$$$$
=
 OpenBabel11052413203D

 28 31  0  0  1  0  0  0  0  0999 V2000
  186.8630  178.2170  140.0870 C   0  0  1  0  0  3  0  0  0  0  0  0
  187.4530  177.4130  144.9660 C   0  0  0  0  0  3  0  0  0  0  0  0
  190.1470  175.9340  140.7590 O   0  0  0  0  0  0  0  0  0  0  0  0
  189.7680  177.9740  145.4470 C   0  0  0  0  0  0  0  0  0  0  0  0
  189.0110  177.8360  143.1300 C   0  0  0  0  0  0  0  0  0  0  0  0
  188.2160  177.5670  147.2610 C   0  0  0  0  0  0  0  0  0  0  0  0
  188.7390  177.7300  144.5060 C   0  0  0  0  0  0  0  0  0  0  0  0
  191.3320  178.3760  143.6460 C   0  0  0  0  0  3  0  0  0  0  0  0
  189.5000  177.8910  146.8170 C   0  0  0  0  0  3  0  0  0  0  0  0
  190.2830  177.1280  140.3780 C   0  0  0  0  0  0  0  0  0  0  0  0
  187.9510  177.6650  142.1770 N   0  0  0  0  0  0  0  0  0  0  0  0
  191.0500  178.3080  145.0120 C   0  0  0  0  0  3  0  0  0  0  0  0
  188.5670  177.1030  138.5660 C   0  0  0  0  0  2  0  0  0  0  0  0
  190.6900  178.1390  141.3090 N   0  0  0  0  0  2  0  0  0  0  0  0
  189.9920  177.4960  138.9590 C   0  0  0  0  0  2  0  0  0  0  0  0
  187.9340  177.4790  148.7170 C   0  0  0  0  0  1  0  0  0  0  0  0
  187.1930  177.3290  146.3370 C   0  0  0  0  0  3  0  0  0  0  0  0
  190.3370  178.1150  142.7010 C   0  0  0  0  0  0  0  0  0  0  0  0
  187.5790  178.2570  138.7370 C   0  0  0  0  0  2  0  0  0  0  0  0
  187.8090  178.4950  141.1960 C   0  0  0  0  0  3  0  0  0  0  0  0
  185.6030  179.0960  140.1360 C   0  0  0  0  0  2  0  0  0  0  0  0
  184.3270  178.6510  139.3860 C   0  0  2  0  0  3  0  0  0  0  0  0
  182.3680  178.3700  140.2030 C   0  0  1  0  0  3  0  0  0  0  0  0
  183.1200  179.5460  139.6000 C   0  0  2  0  0  3  0  0  0  0  0  0
  183.3310  176.5150  139.0600 O   0  0  0  0  0  1  0  0  0  0  0  0
  183.5930  177.4870  140.0260 C   0  0  1  0  0  3  0  0  0  0  0  0
  182.1440  178.6000  141.5610 O   0  0  0  0  0  1  0  0  0  0  0  0
  182.5590  179.8720  138.3650 O   0  0  0  0  0  1  0  0  0  0  0  0
  1 21  1  6  0  0  0
  1 20  1  0  0  0  0
  2 17  1  0  0  0  0
  4  9  2  0  0  0  0
  5  7  1  0  0  0  0
  6 16  1  0  0  0  0
  7  2  2  0  0  0  0
  7  4  1  0  0  0  0
  8 12  2  0  0  0  0
  9  6  1  0  0  0  0
 10  3  2  0  0  0  0
 10 14  1  0  0  0  0
 11  5  1  0  0  0  0
 12  4  1  0  0  0  0
 13 19  1  0  0  0  0
 13 15  1  0  0  0  0
 14 18  1  0  0  0  0
 15 10  1  0  0  0  0
 17  6  2  0  0  0  0
 18  5  2  0  0  0  0
 18  8  1  0  0  0  0
 19  1  1  0  0  0  0
 20 11  2  0  0  0  0
 22 24  1  0  0  0  0
 22 26  1  0  0  0  0
 22 21  1  1  0  0  0
 23 27  1  1  0  0  0
 24 28  1  6  0  0  0
 24 23  1  0  0  0  0
 26 25  1  6  0  0  0
 26 23  1  0  0  0  0
M  END
>  <MODEL>
6

>  <REMARK>
 VINA RESULT:      -8.2      2.608      5.048
  Name = 
  2 active torsions:
  status: ('A' for Active; 'I' for Inactive)
    1  A    between atoms: C_1  and  C_2
    2  A    between atoms: C_2  and  C_3
                            x       y       z     vdW  Elec       q    Type
                         _______ _______ _______ _____ _____    ______ ____

>  <TORSDO>
F 2

$$$$
=
 OpenBabel11052413203D

 28 31  0  0  1  0  0  0  0  0999 V2000
  190.5940  176.0340  137.1040 C   0  0  1  0  0  3  0  0  0  0  0  0
  191.1930  177.1630  141.9170 C   0  0  0  0  0  3  0  0  0  0  0  0
  189.0400  179.6940  137.9050 O   0  0  0  0  0  0  0  0  0  0  0  0
  189.0060  177.8790  142.6990 C   0  0  0  0  0  0  0  0  0  0  0  0
  189.3900  177.5450  140.3110 C   0  0  0  0  0  0  0  0  0  0  0  0
  190.7930  177.4840  144.2860 C   0  0  0  0  0  0  0  0  0  0  0  0
  189.8710  177.5360  141.6330 C   0  0  0  0  0  0  0  0  0  0  0  0
  187.2140  178.2830  141.1260 C   0  0  0  0  0  3  0  0  0  0  0  0
  189.4720  177.8510  144.0170 C   0  0  0  0  0  3  0  0  0  0  0  0
  188.2690  178.7280  137.6580 C   0  0  0  0  0  0  0  0  0  0  0  0
  190.2430  177.1240  139.2370 N   0  0  0  0  0  0  0  0  0  0  0  0
  187.6830  178.2350  142.4400 C   0  0  0  0  0  3  0  0  0  0  0  0
  189.4850  177.8210  135.6760 C   0  0  0  0  0  2  0  0  0  0  0  0
  187.5460  178.0940  138.7210 N   0  0  0  0  0  2  0  0  0  0  0  0
  188.1290  178.2230  136.2590 C   0  0  0  0  0  2  0  0  0  0  0  0
  191.2860  177.4570  145.6870 C   0  0  0  0  0  1  0  0  0  0  0  0
  191.6520  177.1400  143.2370 C   0  0  0  0  0  3  0  0  0  0  0  0
  188.0580  177.9720  140.0580 C   0  0  0  0  0  0  0  0  0  0  0  0
  189.7710  176.3290  135.8500 C   0  0  0  0  0  2  0  0  0  0  0  0
  189.8060  176.3110  138.3310 C   0  0  0  0  0  3  0  0  0  0  0  0
  191.2330  174.6360  137.1000 C   0  0  0  0  0  2  0  0  0  0  0  0
  192.7540  174.4870  137.3260 C   0  0  2  0  0  3  0  0  0  0  0  0
  194.3320  175.4280  136.2270 C   0  0  1  0  0  3  0  0  0  0  0  0
  193.5090  175.7980  137.4510 C   0  0  2  0  0  3  0  0  0  0  0  0
  194.3790  173.0500  136.3480 O   0  0  0  0  0  1  0  0  0  0  0  0
  193.5460  174.1360  136.0790 C   0  0  1  0  0  3  0  0  0  0  0  0
  194.0230  176.2910  135.1740 O   0  0  0  0  0  1  0  0  0  0  0  0
  194.3210  175.7610  138.5850 O   0  0  0  0  0  1  0  0  0  0  0  0
  1 21  1  6  0  0  0
  1 20  1  0  0  0  0
  2 17  1  0  0  0  0
  4  9  2  0  0  0  0
  5  7  1  0  0  0  0
  6 16  1  0  0  0  0
  7  2  2  0  0  0  0
  7  4  1  0  0  0  0
  8 12  2  0  0  0  0
  9  6  1  0  0  0  0
 10  3  2  0  0  0  0
 10 14  1  0  0  0  0
 11  5  1  0  0  0  0
 12  4  1  0  0  0  0
 13 19  1  0  0  0  0
 13 15  1  0  0  0  0
 14 18  1  0  0  0  0
 15 10  1  0  0  0  0
 17  6  2  0  0  0  0
 18  5  2  0  0  0  0
 18  8  1  0  0  0  0
 19  1  1  0  0  0  0
 20 11  2  0  0  0  0
 22 21  1  6  0  0  0
 22 24  1  0  0  0  0
 23 27  1  6  0  0  0
 23 24  1  0  0  0  0
 24 28  1  1  0  0  0
 26 23  1  0  0  0  0
 26 25  1  1  0  0  0
 26 22  1  0  0  0  0
M  END
>  <MODEL>
7

>  <REMARK>
 VINA RESULT:      -8.0      3.289      6.191
  Name = 
  2 active torsions:
  status: ('A' for Active; 'I' for Inactive)
    1  A    between atoms: C_1  and  C_2
    2  A    between atoms: C_2  and  C_3
                            x       y       z     vdW  Elec       q    Type
                         _______ _______ _______ _____ _____    ______ ____

>  <TORSDO>
F 2

$$$$
=
 OpenBabel11052413203D

 28 31  0  0  1  0  0  0  0  0999 V2000
  185.1210  178.4990  144.4770 C   0  0  1  0  0  3  0  0  0  0  0  0
  188.1820  178.3290  140.5520 C   0  0  0  0  0  3  0  0  0  0  0  0
  188.9680  179.0030  145.6580 O   0  0  0  0  0  0  0  0  0  0  0  0
  189.9310  176.7530  141.1540 C   0  0  0  0  0  0  0  0  0  0  0  0
  188.3420  177.5050  142.8490 C   0  0  0  0  0  0  0  0  0  0  0  0
  189.7570  177.5630  138.8780 C   0  0  0  0  0  0  0  0  0  0  0  0
  188.8160  177.5420  141.5250 C   0  0  0  0  0  0  0  0  0  0  0  0
  190.1210  175.9400  143.4240 C   0  0  0  0  0  3  0  0  0  0  0  0
  190.3940  176.7680  139.8350 C   0  0  0  0  0  3  0  0  0  0  0  0
  188.3650  177.9300  145.9330 C   0  0  0  0  0  0  0  0  0  0  0  0
  187.1660  178.2450  143.2070 N   0  0  0  0  0  0  0  0  0  0  0  0
  190.5650  175.9490  142.1010 C   0  0  0  0  0  3  0  0  0  0  0  0
  186.2230  178.9380  146.7250 C   0  0  0  0  0  2  0  0  0  0  0  0
  188.6570  176.7330  145.2010 N   0  0  0  0  0  2  0  0  0  0  0  0
  187.3230  177.9130  147.0040 C   0  0  0  0  0  2  0  0  0  0  0  0
  190.2520  177.5780  137.4770 C   0  0  0  0  0  1  0  0  0  0  0  0
  188.6520  178.3420  139.2360 C   0  0  0  0  0  3  0  0  0  0  0  0
  189.0380  176.7300  143.8160 C   0  0  0  0  0  0  0  0  0  0  0  0
  185.0300  178.3230  145.9930 C   0  0  0  0  0  2  0  0  0  0  0  0
  186.2350  177.6940  143.9170 C   0  0  0  0  0  3  0  0  0  0  0  0
  183.7850  178.2640  143.7540 C   0  0  0  0  0  2  0  0  0  0  0  0
  183.4740  179.0280  142.4470 C   0  0  2  0  0  3  0  0  0  0  0  0
  183.0640  178.1940  140.5180 C   0  0  1  0  0  3  0  0  0  0  0  0
  182.2200  178.5700  141.7260 C   0  0  2  0  0  3  0  0  0  0  0  0
  184.8610  179.7510  140.6540 O   0  0  0  0  0  1  0  0  0  0  0  0
  184.3230  178.6150  141.2580 C   0  0  1  0  0  3  0  0  0  0  0  0
  183.0550  176.8090  140.3500 O   0  0  0  0  0  1  0  0  0  0  0  0
  181.4310  179.6780  141.4160 O   0  0  0  0  0  1  0  0  0  0  0  0
  1 21  1  6  0  0  0
  1 19  1  0  0  0  0
  2  7  1  0  0  0  0
  3 10  2  0  0  0  0
  4  7  2  0  0  0  0
  4 12  1  0  0  0  0
  5 11  1  0  0  0  0
  5 18  2  0  0  0  0
  6 17  1  0  0  0  0
  6  9  2  0  0  0  0
  7  5  1  0  0  0  0
  8 18  1  0  0  0  0
  9  4  1  0  0  0  0
 10 15  1  0  0  0  0
 11 20  2  0  0  0  0
 12  8  2  0  0  0  0
 13 15  1  0  0  0  0
 14 10  1  0  0  0  0
 16  6  1  0  0  0  0
 17  2  2  0  0  0  0
 18 14  1  0  0  0  0
 19 13  1  0  0  0  0
 20  1  1  0  0  0  0
 22 21  1  1  0  0  0
 23 27  1  1  0  0  0
 23 26  1  0  0  0  0
 23 24  1  0  0  0  0
 24 28  1  6  0  0  0
 24 22  1  0  0  0  0
 26 25  1  6  0  0  0
 26 22  1  0  0  0  0
M  END
>  <MODEL>
8

>  <REMARK>
 VINA RESULT:      -8.0      2.432      6.094
  Name = 
  2 active torsions:
  status: ('A' for Active; 'I' for Inactive)
    1  A    between atoms: C_1  and  C_2
    2  A    between atoms: C_2  and  C_3
                            x       y       z     vdW  Elec       q    Type
                         _______ _______ _______ _____ _____    ______ ____

>  <TORSDO>
F 2

$$$$
=
 OpenBabel11052413203D

 28 31  0  0  1  0  0  0  0  0999 V2000
  188.3480  177.6430  137.2620 C   0  0  1  0  0  3  0  0  0  0  0  0
  187.9910  177.2050  142.2100 C   0  0  0  0  0  3  0  0  0  0  0  0
  191.1010  175.0110  138.6520 O   0  0  0  0  0  0  0  0  0  0  0  0
  190.2510  177.4920  143.0570 C   0  0  0  0  0  0  0  0  0  0  0  0
  189.8780  177.2510  140.6550 C   0  0  0  0  0  0  0  0  0  0  0  0
  188.3750  177.4610  144.5880 C   0  0  0  0  0  0  0  0  0  0  0  0
  189.3690  177.3060  141.9660 C   0  0  0  0  0  0  0  0  0  0  0  0
  192.1350  177.5200  141.5400 C   0  0  0  0  0  3  0  0  0  0  0  0
  189.7490  177.5690  144.3590 C   0  0  0  0  0  3  0  0  0  0  0  0
  191.4730  176.1370  138.2250 C   0  0  0  0  0  0  0  0  0  0  0  0
  188.9790  177.1390  139.5430 N   0  0  0  0  0  0  0  0  0  0  0  0
  191.6230  177.6130  142.8350 C   0  0  0  0  0  3  0  0  0  0  0  0
  190.0980  176.1800  136.1420 C   0  0  0  0  0  2  0  0  0  0  0  0
  191.8640  177.1630  139.1460 N   0  0  0  0  0  2  0  0  0  0  0  0
  191.4800  176.4130  136.7570 C   0  0  0  0  0  2  0  0  0  0  0  0
  187.8450  177.5400  145.9740 C   0  0  0  0  0  1  0  0  0  0  0  0
  187.4970  177.2800  143.5150 C   0  0  0  0  0  3  0  0  0  0  0  0
  191.2840  177.3110  140.4520 C   0  0  0  0  0  0  0  0  0  0  0  0
  189.2760  177.4660  136.0600 C   0  0  0  0  0  2  0  0  0  0  0  0
  189.1260  177.8900  138.5000 C   0  0  0  0  0  3  0  0  0  0  0  0
  187.2400  178.6830  137.0290 C   0  0  0  0  0  2  0  0  0  0  0  0
  185.8150  178.2160  136.6550 C   0  0  2  0  0  3  0  0  0  0  0  0
  185.0540  176.2150  136.6750 C   0  0  1  0  0  3  0  0  0  0  0  0
  185.1410  177.3400  137.6940 C   0  0  2  0  0  3  0  0  0  0  0  0
  184.8830  177.4090  134.6200 O   0  0  0  0  0  1  0  0  0  0  0  0
  185.7670  177.0810  135.6480 C   0  0  1  0  0  3  0  0  0  0  0  0
  185.8830  175.1630  137.0620 O   0  0  0  0  0  1  0  0  0  0  0  0
  183.8610  177.8300  137.9570 O   0  0  0  0  0  1  0  0  0  0  0  0
  1 21  1  6  0  0  0
  1 20  1  0  0  0  0
  2 17  1  0  0  0  0
  4  9  2  0  0  0  0
  5  7  1  0  0  0  0
  6 16  1  0  0  0  0
  7  2  2  0  0  0  0
  7  4  1  0  0  0  0
  8 12  2  0  0  0  0
  9  6  1  0  0  0  0
 10  3  2  0  0  0  0
 10 14  1  0  0  0  0
 11  5  1  0  0  0  0
 12  4  1  0  0  0  0
 13 15  1  0  0  0  0
 14 18  1  0  0  0  0
 15 10  1  0  0  0  0
 17  6  2  0  0  0  0
 18  5  2  0  0  0  0
 18  8  1  0  0  0  0
 19 13  1  0  0  0  0
 19  1  1  0  0  0  0
 20 11  2  0  0  0  0
 22 21  1  1  0  0  0
 22 24  1  0  0  0  0
 23 27  1  1  0  0  0
 23 24  1  0  0  0  0
 24 28  1  6  0  0  0
 26 25  1  6  0  0  0
 26 22  1  0  0  0  0
 26 23  1  0  0  0  0
M  END
>  <MODEL>
9

>  <REMARK>
 VINA RESULT:      -7.7      3.094      4.814
  Name = 
  2 active torsions:
  status: ('A' for Active; 'I' for Inactive)
    1  A    between atoms: C_1  and  C_2
    2  A    between atoms: C_2  and  C_3
                            x       y       z     vdW  Elec       q    Type
                         _______ _______ _______ _____ _____    ______ ____

>  <TORSDO>
F 2

$$$$
