=
 OpenBabel11052413513D

 27 31  0  0  1  0  0  0  0  0999 V2000
  187.9950  177.9160  141.7770 N   0  0  0  0  0  0  0  0  0  0  0  0
  187.1470  178.9910  141.2600 C   0  0  2  0  0  3  0  0  0  0  0  0
  188.0480  177.8540  139.3560 N   0  0  1  0  0  0  0  0  0  0  0  0
  183.4080  177.7100  139.7070 N   0  0  0  0  0  0  0  0  0  0  0  0
  183.0610  176.6440  137.5380 C   0  0  0  0  0  1  0  0  0  0  0  0
  185.8830  179.3860  142.0810 C   0  0  0  0  0  2  0  0  0  0  0  0
  185.2800  177.6390  138.3510 N   0  0  0  0  0  0  0  0  0  0  0  0
  190.9530  177.2790  139.7430 C   0  0  1  0  0  3  0  0  0  0  0  0
  188.6810  179.2740  137.4460 C   0  0  0  0  0  1  0  0  0  0  0  0
  191.8530  176.2540  139.4500 O   0  0  0  0  0  1  0  0  0  0  0  0
  185.6430  178.2080  139.4490 C   0  0  0  0  0  0  0  0  0  0  0  0
  183.8900  177.3360  138.5580 C   0  0  0  0  0  0  0  0  0  0  0  0
  184.5280  178.3080  140.3330 C   0  0  0  0  0  0  0  0  0  0  0  0
  188.4560  177.1650  140.6060 C   0  0  1  0  0  3  0  0  0  0  0  0
  186.9900  178.7780  139.7580 C   0  0  1  0  0  3  0  0  0  0  0  0
  190.3190  177.7600  138.4550 C   0  0  0  0  0  2  0  0  0  0  0  0
  184.5870  178.8110  141.5590 C   0  0  0  0  0  3  0  0  0  0  0  0
  190.2800  176.1200  141.6760 O   0  0  0  0  0  0  0  0  0  0  0  0
  189.9220  176.7990  140.7260 C   0  0  0  0  0  0  0  0  0  0  0  0
  189.1320  178.6530  138.7610 C   0  0  2  0  0  3  0  0  0  0  0  0
  187.4010  177.0260  142.7980 C   0  0  0  0  0  2  0  0  0  0  0  0
  188.4370  177.7270  146.9260 C   0  0  0  0  0  3  0  0  0  0  0  0
  187.7380  177.3270  144.2380 C   0  0  0  0  0  0  0  0  0  0  0  0
  189.0780  177.2650  144.6370 C   0  0  0  0  0  3  0  0  0  0  0  0
  189.4300  177.4770  145.9740 C   0  0  0  0  0  3  0  0  0  0  0  0
  187.0940  177.7520  146.5420 C   0  0  0  0  0  3  0  0  0  0  0  0
  186.7450  177.5390  145.2060 C   0  0  0  0  0  3  0  0  0  0  0  0
  1 21  1  0  0  0  0
  2  1  1  0  0  0  0
  2  6  1  1  0  0  0
  3 15  1  0  0  0  0
  3 14  1  0  0  0  0
  4 13  1  0  0  0  0
  5 12  1  0  0  0  0
  7 12  1  0  0  0  0
  7 11  2  0  0  0  0
  8 19  1  0  0  0  0
  9 20  1  0  0  0  0
 10  8  1  0  0  0  0
 11 15  1  0  0  0  0
 11 13  1  0  0  0  0
 12  4  2  0  0  0  0
 13 17  2  0  0  0  0
 14 19  1  0  0  0  0
 14  1  1  0  0  0  0
 15  2  1  0  0  0  0
 16 20  1  0  0  0  0
 16  8  1  0  0  0  0
 17  6  1  0  0  0  0
 19 18  2  0  0  0  0
 20  3  1  0  0  0  0
 21 23  1  0  0  0  0
 23 24  2  0  0  0  0
 23 27  1  0  0  0  0
 24 25  1  0  0  0  0
 25 22  2  0  0  0  0
 26 22  1  0  0  0  0
 27 26  2  0  0  0  0
M  END
>  <MODEL>
1

>  <REMARK>
 VINA RESULT:      -7.3      0.000      0.000
  Name = 
  2 active torsions:
  status: ('A' for Active; 'I' for Inactive)
    1  A    between atoms: N_1  and  C_15
    2  A    between atoms: C_9  and  C_15
                            x       y       z     vdW  Elec       q    Type
                         _______ _______ _______ _____ _____    ______ ____

>  <TORSDO>
F 2

$$$$
=
 OpenBabel11052413513D

 27 31  0  0  1  0  0  0  0  0999 V2000
  188.2720  177.7920  142.2050 N   0  0  0  0  0  0  0  0  0  0  0  0
  188.5960  178.4370  140.9310 C   0  0  2  0  0  3  0  0  0  0  0  0
  190.3740  176.9030  141.3930 N   0  0  1  0  0  0  0  0  0  0  0  0
  187.9770  176.0080  137.5030 N   0  0  0  0  0  0  0  0  0  0  0  0
  189.4480  174.2090  136.7530 C   0  0  0  0  0  1  0  0  0  0  0  0
  187.4180  178.8440  139.9960 C   0  0  0  0  0  2  0  0  0  0  0  0
  189.9640  175.8280  138.6730 N   0  0  0  0  0  0  0  0  0  0  0  0
  191.1930  177.0640  144.2610 C   0  0  1  0  0  3  0  0  0  0  0  0
  192.6410  177.6620  140.8020 C   0  0  0  0  0  1  0  0  0  0  0  0
  191.6040  176.1920  145.2700 O   0  0  0  0  0  1  0  0  0  0  0  0
  189.3110  176.8020  139.2080 C   0  0  0  0  0  0  0  0  0  0  0  0
  189.0970  175.3570  137.6290 C   0  0  0  0  0  0  0  0  0  0  0  0
  188.0750  176.9880  138.5200 C   0  0  0  0  0  0  0  0  0  0  0  0
  189.3120  176.7830  142.4230 C   0  0  1  0  0  3  0  0  0  0  0  0
  189.7750  177.6890  140.3170 C   0  0  1  0  0  3  0  0  0  0  0  0
  192.1390  176.9360  143.0850 C   0  0  0  0  0  2  0  0  0  0  0  0
  187.1590  177.8880  138.8550 C   0  0  0  0  0  3  0  0  0  0  0  0
  188.9500  176.5440  144.7420 O   0  0  0  0  0  0  0  0  0  0  0  0
  189.7720  176.7680  143.8680 C   0  0  0  0  0  0  0  0  0  0  0  0
  191.5580  177.6360  141.8720 C   0  0  2  0  0  3  0  0  0  0  0  0
  186.9150  177.2170  142.3380 C   0  0  0  0  0  2  0  0  0  0  0  0
  184.1120  179.2320  144.9240 C   0  0  0  0  0  3  0  0  0  0  0  0
  185.9430  177.9730  143.2090 C   0  0  0  0  0  0  0  0  0  0  0  0
  186.2080  178.0670  144.5810 C   0  0  0  0  0  3  0  0  0  0  0  0
  185.3030  178.7050  145.4350 C   0  0  0  0  0  3  0  0  0  0  0  0
  183.8230  179.1080  143.5630 C   0  0  0  0  0  3  0  0  0  0  0  0
  184.7290  178.4680  142.7120 C   0  0  0  0  0  3  0  0  0  0  0  0
  1 21  1  0  0  0  0
  1 14  1  0  0  0  0
  2  6  1  6  0  0  0
  2  1  1  0  0  0  0
  3 20  1  0  0  0  0
  3 14  1  0  0  0  0
  4 12  2  0  0  0  0
  4 13  1  0  0  0  0
  5 12  1  0  0  0  0
  7 11  2  0  0  0  0
  8 10  1  0  0  0  0
  9 20  1  0  0  0  0
 11 15  1  0  0  0  0
 12  7  1  0  0  0  0
 13 17  2  0  0  0  0
 13 11  1  0  0  0  0
 14 19  1  0  0  0  0
 15  2  1  0  0  0  0
 15  3  1  0  0  0  0
 16  8  1  0  0  0  0
 17  6  1  0  0  0  0
 19  8  1  0  0  0  0
 19 18  2  0  0  0  0
 20 16  1  0  0  0  0
 21 23  1  0  0  0  0
 22 25  1  0  0  0  0
 23 24  1  0  0  0  0
 24 25  2  0  0  0  0
 26 22  2  0  0  0  0
 27 23  2  0  0  0  0
 27 26  1  0  0  0  0
M  END
>  <MODEL>
2

>  <REMARK>
 VINA RESULT:      -7.0      2.585      4.094
  Name = 
  2 active torsions:
  status: ('A' for Active; 'I' for Inactive)
    1  A    between atoms: N_1  and  C_15
    2  A    between atoms: C_9  and  C_15
                            x       y       z     vdW  Elec       q    Type
                         _______ _______ _______ _____ _____    ______ ____

>  <TORSDO>
F 2

$$$$
=
 OpenBabel11052413513D

 27 31  0  0  1  0  0  0  0  0999 V2000
  187.4950  178.0920  143.2260 N   0  0  0  0  0  0  0  0  0  0  0  0
  188.1480  178.8870  142.1840 C   0  0  2  0  0  3  0  0  0  0  0  0
  189.8460  177.5090  143.1600 N   0  0  1  0  0  0  0  0  0  0  0  0
  189.0670  176.7460  138.6330 N   0  0  0  0  0  0  0  0  0  0  0  0
  190.9290  175.1900  138.3540 C   0  0  0  0  0  1  0  0  0  0  0  0
  187.3200  179.2560  140.9170 C   0  0  0  0  0  2  0  0  0  0  0  0
  190.5380  176.6630  140.4160 N   0  0  0  0  0  0  0  0  0  0  0  0
  189.6030  177.4800  146.1360 C   0  0  1  0  0  3  0  0  0  0  0  0
  192.0570  178.5540  143.4450 C   0  0  0  0  0  1  0  0  0  0  0  0
  189.7550  176.5630  147.1770 O   0  0  0  0  0  1  0  0  0  0  0  0
  189.6190  177.5070  140.7380 C   0  0  0  0  0  0  0  0  0  0  0  0
  190.1510  176.2060  139.1100 C   0  0  0  0  0  0  0  0  0  0  0  0
  188.6810  177.6290  139.6690 C   0  0  0  0  0  0  0  0  0  0  0  0
  188.5210  177.1810  143.7420 C   0  0  1  0  0  3  0  0  0  0  0  0
  189.5540  178.3280  141.9850 C   0  0  1  0  0  3  0  0  0  0  0  0
  190.9030  177.5640  145.3630 C   0  0  0  0  0  2  0  0  0  0  0  0
  187.5960  178.3920  139.7090 C   0  0  0  0  0  3  0  0  0  0  0  0
  187.4200  176.6850  145.7690 O   0  0  0  0  0  0  0  0  0  0  0  0
  188.4550  177.0760  145.2530 C   0  0  0  0  0  0  0  0  0  0  0  0
  190.6870  178.3130  144.0620 C   0  0  2  0  0  3  0  0  0  0  0  0
  186.2630  177.3680  142.8420 C   0  0  0  0  0  2  0  0  0  0  0  0
  182.4840  179.2010  143.8230 C   0  0  0  0  0  3  0  0  0  0  0  0
  184.9540  178.0540  143.1450 C   0  0  0  0  0  0  0  0  0  0  0  0
  184.6960  178.4510  144.4620 C   0  0  0  0  0  3  0  0  0  0  0  0
  183.4710  179.0350  144.8000 C   0  0  0  0  0  3  0  0  0  0  0  0
  182.7190  178.7720  142.5150 C   0  0  0  0  0  3  0  0  0  0  0  0
  183.9440  178.1880  142.1810 C   0  0  0  0  0  3  0  0  0  0  0  0
  1 14  1  0  0  0  0
  2  6  1  6  0  0  0
  2  1  1  0  0  0  0
  3 14  1  0  0  0  0
  3 20  1  0  0  0  0
  4 12  2  0  0  0  0
  4 13  1  0  0  0  0
  5 12  1  0  0  0  0
  7 11  2  0  0  0  0
  8 10  1  0  0  0  0
  9 20  1  0  0  0  0
 11 15  1  0  0  0  0
 12  7  1  0  0  0  0
 13 17  2  0  0  0  0
 13 11  1  0  0  0  0
 14 19  1  0  0  0  0
 15  2  1  0  0  0  0
 15  3  1  0  0  0  0
 16  8  1  0  0  0  0
 17  6  1  0  0  0  0
 19 18  2  0  0  0  0
 19  8  1  0  0  0  0
 20 16  1  0  0  0  0
 21 23  1  0  0  0  0
 21  1  1  0  0  0  0
 22 25  1  0  0  0  0
 23 24  1  0  0  0  0
 24 25  2  0  0  0  0
 26 22  2  0  0  0  0
 27 26  1  0  0  0  0
 27 23  2  0  0  0  0
M  END
>  <MODEL>
3

>  <REMARK>
 VINA RESULT:      -6.8      2.819      5.170
  Name = 
  2 active torsions:
  status: ('A' for Active; 'I' for Inactive)
    1  A    between atoms: N_1  and  C_15
    2  A    between atoms: C_9  and  C_15
                            x       y       z     vdW  Elec       q    Type
                         _______ _______ _______ _____ _____    ______ ____

>  <TORSDO>
F 2

$$$$
=
 OpenBabel11052413513D

 27 31  0  0  1  0  0  0  0  0999 V2000
  186.3680  177.9240  142.0710 N   0  0  0  0  0  0  0  0  0  0  0  0
  187.2520  176.9570  142.7250 C   0  0  2  0  0  3  0  0  0  0  0  0
  188.5000  177.9170  140.9210 N   0  0  1  0  0  0  0  0  0  0  0  0
  190.2780  178.6810  145.1560 N   0  0  0  0  0  0  0  0  0  0  0  0
  192.3290  179.7280  144.3440 C   0  0  0  0  0  1  0  0  0  0  0  0
  187.1060  176.7540  144.2620 C   0  0  0  0  0  2  0  0  0  0  0  0
  190.6390  178.4690  142.8820 N   0  0  0  0  0  0  0  0  0  0  0  0
  186.8220  178.1130  138.4590 C   0  0  1  0  0  3  0  0  0  0  0  0
  189.9700  176.3780  139.6820 C   0  0  0  0  0  1  0  0  0  0  0  0
  186.6390  179.0030  137.4000 O   0  0  0  0  0  1  0  0  0  0  0  0
  189.5170  177.8860  143.1310 C   0  0  0  0  0  0  0  0  0  0  0  0
  191.0700  178.9580  144.1620 C   0  0  0  0  0  0  0  0  0  0  0  0
  189.2370  177.9560  144.5280 C   0  0  0  0  0  0  0  0  0  0  0  0
  187.1760  178.5770  141.0380 C   0  0  1  0  0  3  0  0  0  0  0  0
  188.6550  177.1510  142.1560 C   0  0  1  0  0  3  0  0  0  0  0  0
  188.2750  177.6870  138.4980 C   0  0  0  0  0  2  0  0  0  0  0  0
  188.1360  177.4810  145.0960 C   0  0  0  0  0  3  0  0  0  0  0  0
  185.3590  179.3990  139.7780 O   0  0  0  0  0  0  0  0  0  0  0  0
  186.3930  178.7500  139.7520 C   0  0  0  0  0  0  0  0  0  0  0  0
  188.5710  176.9670  139.7990 C   0  0  2  0  0  3  0  0  0  0  0  0
  185.6930  178.9100  142.9430 C   0  0  0  0  0  2  0  0  0  0  0  0
  181.3910  178.7170  143.1790 C   0  0  0  0  0  3  0  0  0  0  0  0
  184.1940  178.7940  143.0630 C   0  0  0  0  0  0  0  0  0  0  0  0
  183.4420  178.6270  141.8940 C   0  0  0  0  0  3  0  0  0  0  0  0
  182.0450  178.5750  141.9510 C   0  0  0  0  0  3  0  0  0  0  0  0
  182.1330  178.9230  144.3440 C   0  0  0  0  0  3  0  0  0  0  0  0
  183.5280  178.9740  144.2840 C   0  0  0  0  0  3  0  0  0  0  0  0
  1  2  1  0  0  0  0
  1 21  1  0  0  0  0
  2  6  1  1  0  0  0
  3 14  1  0  0  0  0
  3 15  1  0  0  0  0
  6 17  1  0  0  0  0
  7 11  2  0  0  0  0
  7 12  1  0  0  0  0
  8 16  1  0  0  0  0
  8 19  1  0  0  0  0
  9 20  1  0  0  0  0
 10  8  1  0  0  0  0
 11 13  1  0  0  0  0
 12  5  1  0  0  0  0
 12  4  2  0  0  0  0
 13 17  2  0  0  0  0
 13  4  1  0  0  0  0
 14  1  1  0  0  0  0
 15  2  1  0  0  0  0
 15 11  1  0  0  0  0
 16 20  1  0  0  0  0
 19 18  2  0  0  0  0
 19 14  1  0  0  0  0
 20  3  1  0  0  0  0
 21 23  1  0  0  0  0
 22 26  1  0  0  0  0
 23 27  1  0  0  0  0
 24 25  1  0  0  0  0
 24 23  2  0  0  0  0
 25 22  2  0  0  0  0
 27 26  2  0  0  0  0
M  END
>  <MODEL>
4

>  <REMARK>
 VINA RESULT:      -6.6      2.656      5.684
  Name = 
  2 active torsions:
  status: ('A' for Active; 'I' for Inactive)
    1  A    between atoms: N_1  and  C_15
    2  A    between atoms: C_9  and  C_15
                            x       y       z     vdW  Elec       q    Type
                         _______ _______ _______ _____ _____    ______ ____

>  <TORSDO>
F 2

$$$$
=
 OpenBabel11052413513D

 27 31  0  0  1  0  0  0  0  0999 V2000
  186.7660  177.8740  143.0570 N   0  0  0  0  0  0  0  0  0  0  0  0
  186.8290  176.8330  144.0840 C   0  0  2  0  0  3  0  0  0  0  0  0
  189.0830  177.2570  143.3980 N   0  0  1  0  0  0  0  0  0  0  0  0
  188.1950  178.1630  147.8780 N   0  0  0  0  0  0  0  0  0  0  0  0
  190.5190  178.6280  148.4680 C   0  0  0  0  0  1  0  0  0  0  0  0
  185.7730  176.8670  145.2280 C   0  0  0  0  0  2  0  0  0  0  0  0
  189.7420  177.5850  146.2580 N   0  0  0  0  0  0  0  0  0  0  0  0
  189.2600  177.4900  140.4260 C   0  0  1  0  0  3  0  0  0  0  0  0
  190.5550  175.2900  143.2370 C   0  0  0  0  0  1  0  0  0  0  0  0
  189.9560  178.2530  139.4880 O   0  0  0  0  0  1  0  0  0  0  0  0
  188.5810  177.2950  145.7780 C   0  0  0  0  0  0  0  0  0  0  0  0
  189.4560  178.1320  147.5560 C   0  0  0  0  0  0  0  0  0  0  0  0
  187.5710  177.6050  146.7370 C   0  0  0  0  0  0  0  0  0  0  0  0
  188.1550  178.1970  142.7220 C   0  0  1  0  0  3  0  0  0  0  0  0
  188.2940  176.6430  144.4640 C   0  0  1  0  0  3  0  0  0  0  0  0
  190.2570  176.7690  141.3100 C   0  0  0  0  0  2  0  0  0  0  0  0
  186.2690  177.4560  146.5280 C   0  0  0  0  0  3  0  0  0  0  0  0
  187.6840  179.2220  140.6500 O   0  0  0  0  0  0  0  0  0  0  0  0
  188.3380  178.3660  141.2270 C   0  0  0  0  0  0  0  0  0  0  0  0
  189.5510  176.1770  142.5140 C   0  0  2  0  0  3  0  0  0  0  0  0
  185.9840  179.0880  143.3810 C   0  0  0  0  0  2  0  0  0  0  0  0
  181.7710  178.8930  142.4760 C   0  0  0  0  0  3  0  0  0  0  0  0
  184.5190  179.0650  143.0230 C   0  0  0  0  0  0  0  0  0  0  0  0
  183.5800  179.2910  144.0370 C   0  0  0  0  0  3  0  0  0  0  0  0
  182.2100  179.2180  143.7630 C   0  0  0  0  0  3  0  0  0  0  0  0
  182.7020  178.6280  141.4690 C   0  0  0  0  0  3  0  0  0  0  0  0
  184.0700  178.7000  141.7450 C   0  0  0  0  0  3  0  0  0  0  0  0
  1 21  1  0  0  0  0
  1  2  1  0  0  0  0
  2 15  1  0  0  0  0
  2  6  1  1  0  0  0
  3 15  1  0  0  0  0
  6 17  1  0  0  0  0
  7 12  1  0  0  0  0
  8 19  1  0  0  0  0
  8 16  1  0  0  0  0
 10  8  1  0  0  0  0
 11  7  2  0  0  0  0
 11 13  1  0  0  0  0
 12  4  2  0  0  0  0
 12  5  1  0  0  0  0
 13  4  1  0  0  0  0
 14  1  1  0  0  0  0
 14  3  1  0  0  0  0
 15 11  1  0  0  0  0
 16 20  1  0  0  0  0
 17 13  2  0  0  0  0
 18 19  2  0  0  0  0
 19 14  1  0  0  0  0
 20  9  1  0  0  0  0
 20  3  1  0  0  0  0
 22 25  1  0  0  0  0
 23 21  1  0  0  0  0
 23 24  1  0  0  0  0
 25 24  2  0  0  0  0
 26 27  1  0  0  0  0
 26 22  2  0  0  0  0
 27 23  2  0  0  0  0
M  END
>  <MODEL>
5

>  <REMARK>
 VINA RESULT:      -6.5      2.473      6.211
  Name = 
  2 active torsions:
  status: ('A' for Active; 'I' for Inactive)
    1  A    between atoms: N_1  and  C_15
    2  A    between atoms: C_9  and  C_15
                            x       y       z     vdW  Elec       q    Type
                         _______ _______ _______ _____ _____    ______ ____

>  <TORSDO>
F 2

$$$$
=
 OpenBabel11052413513D

 27 31  0  0  1  0  0  0  0  0999 V2000
  187.5360  177.9900  142.5850 N   0  0  0  0  0  0  0  0  0  0  0  0
  186.7240  179.0700  142.0220 C   0  0  2  0  0  3  0  0  0  0  0  0
  187.5770  177.8180  140.1690 N   0  0  1  0  0  0  0  0  0  0  0  0
  182.9360  177.8540  140.5380 N   0  0  0  0  0  0  0  0  0  0  0  0
  182.5420  176.7050  138.4190 C   0  0  0  0  0  1  0  0  0  0  0  0
  185.4780  179.5460  142.8280 C   0  0  0  0  0  2  0  0  0  0  0  0
  184.7980  177.6560  139.1810 N   0  0  0  0  0  0  0  0  0  0  0  0
  190.4610  177.1590  140.5750 C   0  0  1  0  0  3  0  0  0  0  0  0
  188.2510  179.1270  138.1960 C   0  0  0  0  0  1  0  0  0  0  0  0
  191.3230  176.0900  140.3260 O   0  0  0  0  0  1  0  0  0  0  0  0
  185.1860  178.2610  140.2510 C   0  0  0  0  0  0  0  0  0  0  0  0
  183.4000  177.4120  139.4050 C   0  0  0  0  0  0  0  0  0  0  0  0
  184.0780  178.4390  141.1330 C   0  0  0  0  0  0  0  0  0  0  0  0
  187.9650  177.1720  141.4470 C   0  0  1  0  0  3  0  0  0  0  0  0
  186.5530  178.7960  140.5310 C   0  0  1  0  0  3  0  0  0  0  0  0
  189.8390  177.6040  139.2670 C   0  0  0  0  0  2  0  0  0  0  0  0
  184.1600  178.9950  142.3350 C   0  0  0  0  0  3  0  0  0  0  0  0
  189.7550  176.1120  142.5600 O   0  0  0  0  0  0  0  0  0  0  0  0
  189.4180  176.7600  141.5810 C   0  0  0  0  0  0  0  0  0  0  0  0
  188.6860  178.5510  139.5360 C   0  0  2  0  0  3  0  0  0  0  0  0
  186.9140  177.1680  143.6470 C   0  0  0  0  0  2  0  0  0  0  0  0
  188.1290  178.1210  147.6740 C   0  0  0  0  0  3  0  0  0  0  0  0
  187.3580  177.4430  145.0620 C   0  0  0  0  0  0  0  0  0  0  0  0
  186.4130  177.9250  145.9760 C   0  0  0  0  0  3  0  0  0  0  0  0
  186.7930  178.2510  147.2820 C   0  0  0  0  0  3  0  0  0  0  0  0
  189.0840  177.6770  146.7570 C   0  0  0  0  0  3  0  0  0  0  0  0
  188.7020  177.3530  145.4520 C   0  0  0  0  0  3  0  0  0  0  0  0
  1 21  1  0  0  0  0
  2  1  1  0  0  0  0
  2  6  1  1  0  0  0
  3 15  1  0  0  0  0
  3 14  1  0  0  0  0
  4 13  1  0  0  0  0
  5 12  1  0  0  0  0
  7 12  1  0  0  0  0
  7 11  2  0  0  0  0
  8 19  1  0  0  0  0
  9 20  1  0  0  0  0
 10  8  1  0  0  0  0
 11 15  1  0  0  0  0
 11 13  1  0  0  0  0
 12  4  2  0  0  0  0
 13 17  2  0  0  0  0
 14 19  1  0  0  0  0
 14  1  1  0  0  0  0
 15  2  1  0  0  0  0
 16 20  1  0  0  0  0
 16  8  1  0  0  0  0
 17  6  1  0  0  0  0
 19 18  2  0  0  0  0
 20  3  1  0  0  0  0
 21 23  1  0  0  0  0
 23 27  2  0  0  0  0
 23 24  1  0  0  0  0
 24 25  2  0  0  0  0
 25 22  1  0  0  0  0
 26 22  2  0  0  0  0
 27 26  1  0  0  0  0
M  END
>  <MODEL>
6

>  <REMARK>
 VINA RESULT:      -6.4      0.901      1.321
  Name = 
  2 active torsions:
  status: ('A' for Active; 'I' for Inactive)
    1  A    between atoms: N_1  and  C_15
    2  A    between atoms: C_9  and  C_15
                            x       y       z     vdW  Elec       q    Type
                         _______ _______ _______ _____ _____    ______ ____

>  <TORSDO>
F 2

$$$$
=
 OpenBabel11052413513D

 27 31  0  0  1  0  0  0  0  0999 V2000
  184.0000  178.1190  139.3830 N   0  0  0  0  0  0  0  0  0  0  0  0
  182.6200  177.8420  138.9810 C   0  0  2  0  0  3  0  0  0  0  0  0
  182.5020  179.2940  140.8810 N   0  0  1  0  0  0  0  0  0  0  0  0
  180.6840  181.0410  136.9670 N   0  0  0  0  0  0  0  0  0  0  0  0
  179.7780  183.0460  138.0260 C   0  0  0  0  0  1  0  0  0  0  0  0
  182.3270  177.6320  137.4660 C   0  0  0  0  0  2  0  0  0  0  0  0
  180.7130  181.0130  139.2790 N   0  0  0  0  0  0  0  0  0  0  0  0
  184.4380  178.4380  142.9880 C   0  0  1  0  0  3  0  0  0  0  0  0
  180.6940  178.8300  142.4870 C   0  0  0  0  0  1  0  0  0  0  0  0
  185.2890  179.0400  143.9170 O   0  0  0  0  0  1  0  0  0  0  0  0
  181.2400  179.9020  138.8920 C   0  0  0  0  0  0  0  0  0  0  0  0
  180.3940  181.6930  138.0540 C   0  0  0  0  0  0  0  0  0  0  0  0
  181.2360  179.8380  137.4670 C   0  0  0  0  0  0  0  0  0  0  0  0
  183.9160  179.0880  140.4790 C   0  0  1  0  0  3  0  0  0  0  0  0
  181.7090  178.7830  139.7640 C   0  0  1  0  0  3  0  0  0  0  0  0
  183.0220  178.9150  143.2390 C   0  0  0  0  0  2  0  0  0  0  0  0
  181.7460  178.8350  136.7620 C   0  0  0  0  0  3  0  0  0  0  0  0
  186.0830  178.7010  141.3270 O   0  0  0  0  0  0  0  0  0  0  0  0
  184.8910  178.7530  141.5900 C   0  0  0  0  0  0  0  0  0  0  0  0
  182.1280  178.5240  142.0790 C   0  0  2  0  0  3  0  0  0  0  0  0
  184.9290  178.5690  138.3240 C   0  0  0  0  0  2  0  0  0  0  0  0
  188.1340  175.9530  137.1050 C   0  0  0  0  0  3  0  0  0  0  0  0
  186.0230  177.6090  137.9290 C   0  0  0  0  0  0  0  0  0  0  0  0
  187.3450  177.9270  138.2640 C   0  0  0  0  0  3  0  0  0  0  0  0
  188.3970  177.0960  137.8660 C   0  0  0  0  0  3  0  0  0  0  0  0
  186.8220  175.6490  136.7340 C   0  0  0  0  0  3  0  0  0  0  0  0
  185.7720  176.4820  137.1330 C   0  0  0  0  0  3  0  0  0  0  0  0
  1 14  1  0  0  0  0
  2  6  1  6  0  0  0
  2  1  1  0  0  0  0
  2 15  1  0  0  0  0
  3 20  1  0  0  0  0
  4 13  1  0  0  0  0
  4 12  2  0  0  0  0
  5 12  1  0  0  0  0
  8 16  1  0  0  0  0
  8 10  1  0  0  0  0
 11  7  2  0  0  0  0
 11 15  1  0  0  0  0
 12  7  1  0  0  0  0
 13 11  1  0  0  0  0
 14  3  1  0  0  0  0
 14 19  1  0  0  0  0
 15  3  1  0  0  0  0
 17  6  1  0  0  0  0
 17 13  2  0  0  0  0
 18 19  2  0  0  0  0
 19  8  1  0  0  0  0
 20  9  1  0  0  0  0
 20 16  1  0  0  0  0
 21  1  1  0  0  0  0
 22 25  1  0  0  0  0
 23 24  1  0  0  0  0
 23 21  1  0  0  0  0
 25 24  2  0  0  0  0
 26 22  2  0  0  0  0
 26 27  1  0  0  0  0
 27 23  2  0  0  0  0
M  END
>  <MODEL>
7

>  <REMARK>
 VINA RESULT:      -5.7      3.410      6.796
  Name = 
  2 active torsions:
  status: ('A' for Active; 'I' for Inactive)
    1  A    between atoms: N_1  and  C_15
    2  A    between atoms: C_9  and  C_15
                            x       y       z     vdW  Elec       q    Type
                         _______ _______ _______ _____ _____    ______ ____

>  <TORSDO>
F 2

$$$$
=
 OpenBabel11052413513D

 27 31  0  0  1  0  0  0  0  0999 V2000
  187.4810  177.6630  142.4070 N   0  0  0  0  0  0  0  0  0  0  0  0
  188.2760  176.4730  142.0970 C   0  0  2  0  0  3  0  0  0  0  0  0
  188.1710  177.7710  140.0880 N   0  0  1  0  0  0  0  0  0  0  0  0
  192.4560  177.1620  141.8030 N   0  0  0  0  0  0  0  0  0  0  0  0
  193.5960  178.1930  139.9060 C   0  0  0  0  0  1  0  0  0  0  0  0
  189.1600  175.8680  143.2280 C   0  0  0  0  0  2  0  0  0  0  0  0
  191.1130  177.5540  139.9620 N   0  0  0  0  0  0  0  0  0  0  0  0
  185.4040  178.7990  139.6350 C   0  0  1  0  0  3  0  0  0  0  0  0
  187.9410  176.5020  137.9900 C   0  0  0  0  0  1  0  0  0  0  0  0
  184.7970  179.9600  139.1540 O   0  0  0  0  0  1  0  0  0  0  0  0
  190.3550  177.0340  140.8640 C   0  0  0  0  0  0  0  0  0  0  0  0
  192.4040  177.6270  140.5890 C   0  0  0  0  0  0  0  0  0  0  0  0
  191.1240  176.7420  142.0300 C   0  0  0  0  0  0  0  0  0  0  0  0
  187.5110  178.4960  141.2020 C   0  0  1  0  0  3  0  0  0  0  0  0
  188.9090  176.6820  140.7250 C   0  0  1  0  0  3  0  0  0  0  0  0
  186.3190  178.2430  138.5630 C   0  0  0  0  0  2  0  0  0  0  0  0
  190.6230  176.2350  143.1500 C   0  0  0  0  0  3  0  0  0  0  0  0
  185.6260  179.8040  141.7500 O   0  0  0  0  0  0  0  0  0  0  0  0
  186.1490  179.0910  140.9070 C   0  0  0  0  0  0  0  0  0  0  0  0
  187.2110  177.1660  139.1490 C   0  0  2  0  0  3  0  0  0  0  0  0
  187.8640  178.4290  143.6130 C   0  0  0  0  0  2  0  0  0  0  0  0
  185.2150  178.2640  147.0130 C   0  0  0  0  0  3  0  0  0  0  0  0
  186.9510  178.3120  144.8090 C   0  0  0  0  0  0  0  0  0  0  0  0
  185.5990  178.6350  144.6510 C   0  0  0  0  0  3  0  0  0  0  0  0
  184.7290  178.5990  145.7450 C   0  0  0  0  0  3  0  0  0  0  0  0
  186.5710  177.9770  147.1860 C   0  0  0  0  0  3  0  0  0  0  0  0
  187.4380  178.0150  146.0900 C   0  0  0  0  0  3  0  0  0  0  0  0
  1 21  1  0  0  0  0
  2  1  1  0  0  0  0
  2  6  1  1  0  0  0
  3 15  1  0  0  0  0
  3 14  1  0  0  0  0
  4 13  1  0  0  0  0
  5 12  1  0  0  0  0
  7 12  1  0  0  0  0
  7 11  2  0  0  0  0
  8 19  1  0  0  0  0
  9 20  1  0  0  0  0
 10  8  1  0  0  0  0
 11 13  1  0  0  0  0
 12  4  2  0  0  0  0
 13 17  2  0  0  0  0
 14  1  1  0  0  0  0
 15 11  1  0  0  0  0
 15  2  1  0  0  0  0
 16 20  1  0  0  0  0
 16  8  1  0  0  0  0
 17  6  1  0  0  0  0
 19 14  1  0  0  0  0
 19 18  2  0  0  0  0
 20  3  1  0  0  0  0
 21 23  1  0  0  0  0
 22 26  1  0  0  0  0
 23 27  1  0  0  0  0
 24 23  2  0  0  0  0
 24 25  1  0  0  0  0
 25 22  2  0  0  0  0
 27 26  2  0  0  0  0
M  END
>  <MODEL>
8

>  <REMARK>
 VINA RESULT:      -5.5      2.674      5.172
  Name = 
  2 active torsions:
  status: ('A' for Active; 'I' for Inactive)
    1  A    between atoms: N_1  and  C_15
    2  A    between atoms: C_9  and  C_15
                            x       y       z     vdW  Elec       q    Type
                         _______ _______ _______ _____ _____    ______ ____

>  <TORSDO>
F 2

$$$$
=
 OpenBabel11052413513D

 27 31  0  0  1  0  0  0  0  0999 V2000
  190.7240  175.5610  137.0260 N   0  0  0  0  0  0  0  0  0  0  0  0
  191.0000  176.8830  137.5900 C   0  0  2  0  0  3  0  0  0  0  0  0
  188.6210  176.6190  137.5950 N   0  0  1  0  0  0  0  0  0  0  0  0
  190.5410  177.1460  141.8030 N   0  0  0  0  0  0  0  0  0  0  0  0
  188.4140  177.2860  142.9950 C   0  0  0  0  0  1  0  0  0  0  0  0
  192.3060  177.0680  138.4200 C   0  0  0  0  0  2  0  0  0  0  0  0
  188.6840  177.3840  140.4460 N   0  0  0  0  0  0  0  0  0  0  0  0
  187.6830  175.4300  135.0210 C   0  0  1  0  0  3  0  0  0  0  0  0
  187.3070  178.6260  137.0370 C   0  0  0  0  0  1  0  0  0  0  0  0
  186.7170  174.5170  134.5940 O   0  0  0  0  0  1  0  0  0  0  0  0
  189.7030  177.3060  139.6620 C   0  0  0  0  0  0  0  0  0  0  0  0
  189.2460  177.2680  141.7640 C   0  0  0  0  0  0  0  0  0  0  0  0
  190.8960  177.1790  140.4340 C   0  0  0  0  0  0  0  0  0  0  0  0
  189.2750  175.3710  137.1310 C   0  0  1  0  0  3  0  0  0  0  0  0
  189.6970  177.4220  138.1720 C   0  0  1  0  0  3  0  0  0  0  0  0
  186.9980  176.5560  135.7680 C   0  0  0  0  0  2  0  0  0  0  0  0
  192.1110  177.0390  139.9170 C   0  0  0  0  0  3  0  0  0  0  0  0
  189.1300  173.6460  135.5270 O   0  0  0  0  0  0  0  0  0  0  0  0
  188.7090  174.7390  135.8750 C   0  0  0  0  0  0  0  0  0  0  0  0
  188.0270  177.3980  136.4960 C   0  0  2  0  0  3  0  0  0  0  0  0
  191.4700  174.4190  137.6000 C   0  0  0  0  0  2  0  0  0  0  0  0
  195.0560  173.2670  135.5000 C   0  0  0  0  0  3  0  0  0  0  0  0
  192.6960  173.9640  136.8480 C   0  0  0  0  0  0  0  0  0  0  0  0
  193.8980  173.8240  137.5520 C   0  0  0  0  0  3  0  0  0  0  0  0
  195.0730  173.4640  136.8840 C   0  0  0  0  0  3  0  0  0  0  0  0
  193.8690  173.4420  134.7840 C   0  0  0  0  0  3  0  0  0  0  0  0
  192.6970  173.8030  135.4550 C   0  0  0  0  0  3  0  0  0  0  0  0
  1 14  1  0  0  0  0
  1  2  1  0  0  0  0
  1 21  1  0  0  0  0
  2 15  1  0  0  0  0
  2  6  1  1  0  0  0
  3 15  1  0  0  0  0
  6 17  1  0  0  0  0
  7 12  1  0  0  0  0
  8 16  1  0  0  0  0
  8 19  1  0  0  0  0
 10  8  1  0  0  0  0
 11 13  1  0  0  0  0
 11  7  2  0  0  0  0
 12  4  2  0  0  0  0
 12  5  1  0  0  0  0
 13  4  1  0  0  0  0
 14  3  1  0  0  0  0
 15 11  1  0  0  0  0
 16 20  1  0  0  0  0
 17 13  2  0  0  0  0
 18 19  2  0  0  0  0
 19 14  1  0  0  0  0
 20  9  1  0  0  0  0
 20  3  1  0  0  0  0
 22 25  1  0  0  0  0
 23 24  1  0  0  0  0
 23 21  1  0  0  0  0
 25 24  2  0  0  0  0
 26 27  1  0  0  0  0
 26 22  2  0  0  0  0
 27 23  2  0  0  0  0
M  END
>  <MODEL>
9

>  <REMARK>
 VINA RESULT:      -5.4      3.954      7.563
  Name = 
  2 active torsions:
  status: ('A' for Active; 'I' for Inactive)
    1  A    between atoms: N_1  and  C_15
    2  A    between atoms: C_9  and  C_15
                            x       y       z     vdW  Elec       q    Type
                         _______ _______ _______ _____ _____    ______ ____

>  <TORSDO>
F 2

$$$$
