=
 OpenBabel11052414093D

 34 39  0  0  1  0  0  0  0  0999 V2000
  190.6480  177.0380  144.6990 C   0  0  1  0  0  3  0  0  0  0  0  0
  188.3550  177.0130  145.9040 C   0  0  2  0  0  3  0  0  0  0  0  0
  188.6700  177.5160  143.3870 C   0  0  0  0  0  0  0  0  0  0  0  0
  186.7850  178.3820  142.1680 C   0  0  0  0  0  0  0  0  0  0  0  0
  190.5030  177.2950  147.2080 C   0  0  0  0  0  2  0  0  0  0  0  0
  189.1270  177.9050  146.8720 C   0  0  0  0  0  2  0  0  0  0  0  0
  186.4870  177.8580  144.3980 C   0  0  0  0  0  0  0  0  0  0  0  0
  189.1530  176.7560  144.5840 C   0  0  1  0  0  3  0  0  0  0  0  0
  185.4990  178.6010  142.4420 C   0  0  0  0  0  3  0  0  0  0  0  0
  191.1900  176.5600  146.0380 C   0  0  0  0  0  2  0  0  0  0  0  0
  190.6400  176.6530  142.1390 C   0  0  0  0  0  2  0  0  0  0  0  0
  191.4060  176.4820  143.4790 C   0  0  0  0  0  2  0  0  0  0  0  0
  186.8530  177.4070  145.7830 C   0  0  0  0  0  2  0  0  0  0  0  0
  187.5120  178.3870  140.8930 C   0  0  0  0  0  3  0  0  0  0  0  0
  188.8260  178.0440  140.8750 C   0  0  0  0  0  0  0  0  0  0  0  0
  185.3290  178.2740  143.8870 C   0  0  0  0  0  0  0  0  0  0  0  0
  187.4300  177.9210  143.3430 C   0  0  1  0  0  3  0  0  0  0  0  0
  189.5770  177.7640  142.1980 C   0  0  0  0  0  0  0  0  0  0  0  0
  188.1720  176.5570  137.6780 C   0  0  0  0  0  2  0  0  0  0  0  0
  189.6220  176.1700  137.4080 C   0  0  0  0  0  2  0  0  0  0  0  0
  189.5510  178.1070  139.6280 N   0  0  0  0  0  0  0  0  0  0  0  0
  190.3610  175.9650  138.7280 C   0  0  0  0  0  2  0  0  0  0  0  0
  189.0420  178.8530  138.4830 C   0  0  0  0  0  2  0  0  0  0  0  0
  190.7370  177.2890  139.3880 C   0  0  0  0  0  2  0  0  0  0  0  0
  187.9490  178.0730  137.7440 C   0  0  0  0  0  2  0  0  0  0  0  0
  184.0560  178.4170  144.6490 C   0  0  0  0  0  2  0  0  0  0  0  0
  183.2070  179.5110  144.0350 C   0  0  0  0  0  2  0  0  0  0  0  0
  181.8500  178.9500  143.6710 C   0  0  0  0  0  2  0  0  0  0  0  0
  181.7330  178.8530  142.1630 C   0  0  0  0  0  2  0  0  0  0  0  0
  179.3340  177.8860  142.8670 O   0  0  0  0  0  0  0  0  0  0  0  0
  180.0280  177.5550  140.5410 O   0  0  0  0  0  0  0  0  0  0  0  0
  180.0480  178.5090  141.7010 S   0  0  0  0  0  0  0  0  0  0  0  0
  179.6200  181.0510  142.0810 O   0  0  0  0  0  1  0  0  0  0  0  0
  179.2180  180.0150  141.2380 C   0  0  0  0  0  2  0  0  0  0  0  0
  1 12  1  6  0  0  0
  1 10  1  0  0  0  0
  2 13  1  6  0  0  0
  2  6  1  0  0  0  0
  4  9  2  0  0  0  0
  6  5  1  0  0  0  0
  7 13  1  0  0  0  0
  8  3  1  6  0  0  0
  8  1  1  0  0  0  0
  8  2  1  0  0  0  0
  9 16  1  0  0  0  0
 10  5  1  0  0  0  0
 11 18  1  0  0  0  0
 11 12  1  0  0  0  0
 14  4  1  0  0  0  0
 15 14  2  0  0  0  0
 15 18  1  0  0  0  0
 16  7  2  0  0  0  0
 16 26  1  0  0  0  0
 17  4  1  6  0  0  0
 17  3  1  0  0  0  0
 17  7  1  0  0  0  0
 18  3  2  0  0  0  0
 19 25  1  0  0  0  0
 20 19  1  0  0  0  0
 20 22  1  0  0  0  0
 21 15  1  0  0  0  0
 22 24  1  0  0  0  0
 23 21  1  0  0  0  0
 24 21  1  0  0  0  0
 25 23  1  0  0  0  0
 27 26  1  0  0  0  0
 28 27  1  0  0  0  0
 29 28  1  0  0  0  0
 31 32  2  0  0  0  0
 32 29  1  0  0  0  0
 32 30  2  0  0  0  0
 34 32  1  0  0  0  0
 34 33  1  0  0  0  0
M  END
>  <MODEL>
1

>  <REMARK>
 VINA RESULT:     -10.1      0.000      0.000
  Name = 
  7 active torsions:
  status: ('A' for Active; 'I' for Inactive)
    1  A    between atoms: C_3  and  C_13
    2  A    between atoms: C_3  and  C_17
    3  A    between atoms: N_12  and  C_28
    4  A    between atoms: C_13  and  C_33
    5  A    between atoms: C_14  and  S_34
    6  A    between atoms: C_17  and  C_29
    7  A    between atoms: C_33  and  S_34
                            x       y       z     vdW  Elec       q    Type
                         _______ _______ _______ _____ _____    ______ ____

>  <TORSDO>
F 7

$$$$
=
 OpenBabel11052414093D

 34 39  0  0  1  0  0  0  0  0999 V2000
  189.9620  177.2490  145.1100 C   0  0  1  0  0  3  0  0  0  0  0  0
  187.5520  177.2390  146.0610 C   0  0  2  0  0  3  0  0  0  0  0  0
  188.1370  177.6950  143.5830 C   0  0  0  0  0  0  0  0  0  0  0  0
  186.3930  178.5300  142.1500 C   0  0  0  0  0  0  0  0  0  0  0  0
  189.5460  177.5530  147.5830 C   0  0  0  0  0  2  0  0  0  0  0  0
  188.2140  178.1510  147.0890 C   0  0  0  0  0  2  0  0  0  0  0  0
  185.8570  178.0480  144.3450 C   0  0  0  0  0  0  0  0  0  0  0  0
  188.4880  176.9600  144.8390 C   0  0  1  0  0  3  0  0  0  0  0  0
  185.0850  178.7490  142.2800 C   0  0  0  0  0  3  0  0  0  0  0  0
  190.3560  176.7990  146.5090 C   0  0  0  0  0  2  0  0  0  0  0  0
  190.2310  176.8150  142.5720 C   0  0  0  0  0  2  0  0  0  0  0  0
  190.8490  176.6730  143.9900 C   0  0  0  0  0  2  0  0  0  0  0  0
  186.0720  177.6250  145.7700 C   0  0  0  0  0  2  0  0  0  0  0  0
  187.2530  178.5130  140.9620 C   0  0  0  0  0  3  0  0  0  0  0  0
  188.5630  178.1750  141.0920 C   0  0  0  0  0  0  0  0  0  0  0  0
  184.7590  178.4490  143.7030 C   0  0  0  0  0  0  0  0  0  0  0  0
  186.9080  178.0940  143.3980 C   0  0  1  0  0  3  0  0  0  0  0  0
  189.1660  177.9240  142.4940 C   0  0  0  0  0  0  0  0  0  0  0  0
  188.3380  176.5080  137.9250 C   0  0  0  0  0  2  0  0  0  0  0  0
  189.8250  176.1850  137.8350 C   0  0  0  0  0  2  0  0  0  0  0  0
  189.4180  178.2170  139.9300 N   0  0  0  0  0  0  0  0  0  0  0  0
  190.4210  176.0800  139.2370 C   0  0  0  0  0  2  0  0  0  0  0  0
  189.0050  178.8810  138.7000 C   0  0  0  0  0  2  0  0  0  0  0  0
  190.6600  177.4510  139.8640 C   0  0  0  0  0  2  0  0  0  0  0  0
  188.0380  178.0120  137.8880 C   0  0  0  0  0  2  0  0  0  0  0  0
  183.4120  178.6020  144.3210 C   0  0  0  0  0  2  0  0  0  0  0  0
  182.5400  179.4800  143.4470 C   0  0  0  0  0  2  0  0  0  0  0  0
  181.4170  178.6530  142.8630 C   0  0  0  0  0  2  0  0  0  0  0  0
  180.8290  179.3750  141.6670 C   0  0  0  0  0  2  0  0  0  0  0  0
  180.1370  178.0440  139.4460 O   0  0  0  0  0  0  0  0  0  0  0  0
  182.2740  177.4440  140.4810 O   0  0  0  0  0  0  0  0  0  0  0  0
  181.3450  178.5800  140.1590 S   0  0  0  0  0  0  0  0  0  0  0  0
  181.9430  179.4270  137.7690 O   0  0  0  0  0  1  0  0  0  0  0  0
  182.1830  179.7450  139.1060 C   0  0  0  0  0  2  0  0  0  0  0  0
  1 12  1  6  0  0  0
  1 10  1  0  0  0  0
  2 13  1  6  0  0  0
  2  6  1  0  0  0  0
  4  9  2  0  0  0  0
  6  5  1  0  0  0  0
  7 13  1  0  0  0  0
  8  3  1  6  0  0  0
  8  1  1  0  0  0  0
  8  2  1  0  0  0  0
  9 16  1  0  0  0  0
 10  5  1  0  0  0  0
 11 12  1  0  0  0  0
 14 15  2  0  0  0  0
 14  4  1  0  0  0  0
 15 18  1  0  0  0  0
 16 26  1  0  0  0  0
 16  7  2  0  0  0  0
 17  4  1  6  0  0  0
 17  3  1  0  0  0  0
 17  7  1  0  0  0  0
 18 11  1  0  0  0  0
 18  3  2  0  0  0  0
 20 19  1  0  0  0  0
 20 22  1  0  0  0  0
 21 15  1  0  0  0  0
 22 24  1  0  0  0  0
 23 21  1  0  0  0  0
 24 21  1  0  0  0  0
 25 19  1  0  0  0  0
 25 23  1  0  0  0  0
 27 26  1  0  0  0  0
 28 27  1  0  0  0  0
 29 28  1  0  0  0  0
 30 32  2  0  0  0  0
 32 31  2  0  0  0  0
 32 29  1  0  0  0  0
 33 34  1  0  0  0  0
 34 32  1  0  0  0  0
M  END
>  <MODEL>
2

>  <REMARK>
 VINA RESULT:      -9.6      1.208      1.487
  Name = 
  7 active torsions:
  status: ('A' for Active; 'I' for Inactive)
    1  A    between atoms: C_3  and  C_13
    2  A    between atoms: C_3  and  C_17
    3  A    between atoms: N_12  and  C_28
    4  A    between atoms: C_13  and  C_33
    5  A    between atoms: C_14  and  S_34
    6  A    between atoms: C_17  and  C_29
    7  A    between atoms: C_33  and  S_34
                            x       y       z     vdW  Elec       q    Type
                         _______ _______ _______ _____ _____    ______ ____

>  <TORSDO>
F 7

$$$$
=
 OpenBabel11052414093D

 34 39  0  0  1  0  0  0  0  0999 V2000
  190.1130  177.0480  143.4210 C   0  0  1  0  0  3  0  0  0  0  0  0
  188.1090  177.0410  145.0620 C   0  0  2  0  0  3  0  0  0  0  0  0
  187.9310  177.6290  142.5500 C   0  0  0  0  0  0  0  0  0  0  0  0
  185.8700  178.5920  141.7630 C   0  0  0  0  0  0  0  0  0  0  0  0
  190.4840  177.2140  145.9140 C   0  0  0  0  0  2  0  0  0  0  0  0
  189.0910  177.8740  145.8810 C   0  0  0  0  0  2  0  0  0  0  0  0
  186.0080  177.9930  143.9900 C   0  0  0  0  0  0  0  0  0  0  0  0
  188.6160  176.8120  143.6000 C   0  0  1  0  0  3  0  0  0  0  0  0
  184.6740  178.8360  142.2980 C   0  0  0  0  0  3  0  0  0  0  0  0
  190.8960  176.5050  144.6070 C   0  0  0  0  0  2  0  0  0  0  0  0
  189.5780  176.7590  140.9040 C   0  0  0  0  0  2  0  0  0  0  0  0
  190.5920  176.5170  142.0560 C   0  0  0  0  0  2  0  0  0  0  0  0
  186.6280  177.4810  145.2580 C   0  0  0  0  0  2  0  0  0  0  0  0
  186.3260  178.6240  140.3690 C   0  0  0  0  0  3  0  0  0  0  0  0
  187.5980  178.2460  140.0750 C   0  0  0  0  0  0  0  0  0  0  0  0
  184.7850  178.4600  143.7360 C   0  0  0  0  0  0  0  0  0  0  0  0
  186.7220  178.0700  142.7700 C   0  0  1  0  0  3  0  0  0  0  0  0
  188.5880  177.8970  141.2110 C   0  0  0  0  0  0  0  0  0  0  0  0
  188.3790  175.7060  137.6690 C   0  0  0  0  0  2  0  0  0  0  0  0
  189.6290  176.4000  137.1380 C   0  0  0  0  0  2  0  0  0  0  0  0
  188.0590  178.3360  138.7110 N   0  0  0  0  0  0  0  0  0  0  0  0
  190.2320  177.2880  138.2230 C   0  0  0  0  0  2  0  0  0  0  0  0
  187.1940  178.0000  137.5860 C   0  0  0  0  0  2  0  0  0  0  0  0
  189.4610  178.5950  138.3910 C   0  0  0  0  0  2  0  0  0  0  0  0
  187.0870  176.4840  137.3920 C   0  0  0  0  0  2  0  0  0  0  0  0
  183.6980  178.6100  144.7440 C   0  0  0  0  0  2  0  0  0  0  0  0
  182.5840  179.4670  144.1780 C   0  0  0  0  0  2  0  0  0  0  0  0
  181.3770  178.6010  143.8930 C   0  0  0  0  0  2  0  0  0  0  0  0
  180.3920  179.3760  143.0410 C   0  0  0  0  0  2  0  0  0  0  0  0
  178.9310  179.1880  140.8020 O   0  0  0  0  0  0  0  0  0  0  0  0
  179.3350  177.1150  142.0430 O   0  0  0  0  0  0  0  0  0  0  0  0
  179.9390  178.4210  141.6080 S   0  0  0  0  0  0  0  0  0  0  0  0
  182.0040  179.3030  140.2870 O   0  0  0  0  0  1  0  0  0  0  0  0
  181.3750  178.1000  140.6060 C   0  0  0  0  0  2  0  0  0  0  0  0
  1 12  1  6  0  0  0
  1  8  1  0  0  0  0
  1 10  1  0  0  0  0
  2 13  1  6  0  0  0
  2  6  1  0  0  0  0
  3 17  1  0  0  0  0
  4  9  2  0  0  0  0
  6  5  1  0  0  0  0
  7 13  1  0  0  0  0
  8  3  1  6  0  0  0
  8  2  1  0  0  0  0
  9 16  1  0  0  0  0
 10  5  1  0  0  0  0
 11 18  1  0  0  0  0
 11 12  1  0  0  0  0
 14  4  1  0  0  0  0
 15 14  2  0  0  0  0
 15 18  1  0  0  0  0
 16  7  2  0  0  0  0
 16 26  1  0  0  0  0
 17  4  1  6  0  0  0
 17  7  1  0  0  0  0
 18  3  2  0  0  0  0
 20 19  1  0  0  0  0
 20 22  1  0  0  0  0
 21 15  1  0  0  0  0
 22 24  1  0  0  0  0
 23 21  1  0  0  0  0
 24 21  1  0  0  0  0
 25 23  1  0  0  0  0
 25 19  1  0  0  0  0
 27 26  1  0  0  0  0
 28 27  1  0  0  0  0
 29 28  1  0  0  0  0
 30 32  2  0  0  0  0
 32 31  2  0  0  0  0
 32 29  1  0  0  0  0
 33 34  1  0  0  0  0
 34 32  1  0  0  0  0
M  END
>  <MODEL>
3

>  <REMARK>
 VINA RESULT:      -9.5      1.100      1.508
  Name = 
  7 active torsions:
  status: ('A' for Active; 'I' for Inactive)
    1  A    between atoms: C_3  and  C_13
    2  A    between atoms: C_3  and  C_17
    3  A    between atoms: N_12  and  C_28
    4  A    between atoms: C_13  and  C_33
    5  A    between atoms: C_14  and  S_34
    6  A    between atoms: C_17  and  C_29
    7  A    between atoms: C_33  and  S_34
                            x       y       z     vdW  Elec       q    Type
                         _______ _______ _______ _____ _____    ______ ____

>  <TORSDO>
F 7

$$$$
=
 OpenBabel11052414093D

 34 39  0  0  1  0  0  0  0  0999 V2000
  185.3320  178.1530  144.1870 C   0  0  1  0  0  3  0  0  0  0  0  0
  187.3790  178.2580  142.6030 C   0  0  2  0  0  3  0  0  0  0  0  0
  184.9250  178.5150  141.8280 C   0  0  0  0  0  0  0  0  0  0  0  0
  184.4810  178.4700  139.4630 C   0  0  0  0  0  0  0  0  0  0  0  0
  187.5500  177.1580  144.8740 C   0  0  0  0  0  2  0  0  0  0  0  0
  187.7180  176.9720  143.3520 C   0  0  0  0  0  2  0  0  0  0  0  0
  186.6790  178.3180  140.1580 C   0  0  0  0  0  0  0  0  0  0  0  0
  185.9280  178.7500  142.9150 C   0  0  1  0  0  3  0  0  0  0  0  0
  185.2280  178.4380  138.3600 C   0  0  0  0  0  3  0  0  0  0  0  0
  186.3770  178.0700  145.2900 C   0  0  0  0  0  2  0  0  0  0  0  0
  183.1600  179.3140  143.3870 C   0  0  0  0  0  2  0  0  0  0  0  0
  184.0470  178.9000  144.5930 C   0  0  0  0  0  2  0  0  0  0  0  0
  187.8340  178.2300  141.1140 C   0  0  0  0  0  2  0  0  0  0  0  0
  183.0470  178.7200  139.6480 C   0  0  0  0  0  3  0  0  0  0  0  0
  182.5390  178.7810  140.9060 C   0  0  0  0  0  0  0  0  0  0  0  0
  186.6400  178.3240  138.8250 C   0  0  0  0  0  0  0  0  0  0  0  0
  185.3340  178.4010  140.5940 C   0  0  0  0  0  0  0  0  0  0  0  0
  183.4400  178.4760  142.1260 C   0  0  1  0  0  3  0  0  0  0  0  0
  179.7320  177.3020  139.2340 C   0  0  0  0  0  2  0  0  0  0  0  0
  178.9320  178.5960  139.1410 C   0  0  0  0  0  2  0  0  0  0  0  0
  181.1180  178.9680  141.0810 N   0  0  0  0  0  0  0  0  0  0  0  0
  179.8770  179.7940  139.1240 C   0  0  0  0  0  2  0  0  0  0  0  0
  180.2780  177.9360  141.6790 C   0  0  0  0  0  2  0  0  0  0  0  0
  180.4200  180.1190  140.5130 C   0  0  0  0  0  2  0  0  0  0  0  0
  179.9520  176.8250  140.6760 C   0  0  0  0  0  2  0  0  0  0  0  0
  187.8260  178.2060  137.9310 C   0  0  0  0  0  2  0  0  0  0  0  0
  187.6170  177.0780  136.9430 C   0  0  0  0  0  2  0  0  0  0  0  0
  188.9010  176.2910  136.7970 C   0  0  0  0  0  2  0  0  0  0  0  0
  190.0590  177.1130  137.3270 C   0  0  0  0  0  2  0  0  0  0  0  0
  190.8840  174.6560  138.0090 O   0  0  0  0  0  0  0  0  0  0  0  0
  190.7720  176.3280  139.7970 O   0  0  0  0  0  0  0  0  0  0  0  0
  191.1090  176.1020  138.3500 S   0  0  0  0  0  0  0  0  0  0  0  0
  193.3990  176.9360  139.2680 O   0  0  0  0  0  1  0  0  0  0  0  0
  192.8180  176.5150  138.0730 C   0  0  0  0  0  2  0  0  0  0  0  0
  1 12  1  1  0  0  0
  1 10  1  0  0  0  0
  2 13  1  6  0  0  0
  2  8  1  0  0  0  0
  2  6  1  0  0  0  0
  3 18  1  0  0  0  0
  4 14  1  0  0  0  0
  4 17  1  0  0  0  0
  5 10  1  0  0  0  0
  6  5  1  0  0  0  0
  7 17  1  0  0  0  0
  7 13  1  0  0  0  0
  8  3  1  6  0  0  0
  8  1  1  0  0  0  0
  9 16  1  0  0  0  0
  9  4  2  0  0  0  0
 11 12  1  0  0  0  0
 14 15  2  0  0  0  0
 15 21  1  0  0  0  0
 15 18  1  0  0  0  0
 16  7  2  0  0  0  0
 17  3  2  0  0  0  0
 18 11  1  1  0  0  0
 19 25  1  0  0  0  0
 20 19  1  0  0  0  0
 21 23  1  0  0  0  0
 22 20  1  0  0  0  0
 22 24  1  0  0  0  0
 24 21  1  0  0  0  0
 25 23  1  0  0  0  0
 26 16  1  0  0  0  0
 27 26  1  0  0  0  0
 28 27  1  0  0  0  0
 28 29  1  0  0  0  0
 29 32  1  0  0  0  0
 30 32  2  0  0  0  0
 32 31  2  0  0  0  0
 34 32  1  0  0  0  0
 34 33  1  0  0  0  0
M  END
>  <MODEL>
4

>  <REMARK>
 VINA RESULT:      -8.8      4.655      8.268
  Name = 
  7 active torsions:
  status: ('A' for Active; 'I' for Inactive)
    1  A    between atoms: C_3  and  C_13
    2  A    between atoms: C_3  and  C_17
    3  A    between atoms: N_12  and  C_28
    4  A    between atoms: C_13  and  C_33
    5  A    between atoms: C_14  and  S_34
    6  A    between atoms: C_17  and  C_29
    7  A    between atoms: C_33  and  S_34
                            x       y       z     vdW  Elec       q    Type
                         _______ _______ _______ _____ _____    ______ ____

>  <TORSDO>
F 7

$$$$
=
 OpenBabel11052414093D

 34 39  0  0  1  0  0  0  0  0999 V2000
  184.2150  178.3600  144.8500 C   0  0  1  0  0  3  0  0  0  0  0  0
  186.6970  178.5900  144.1450 C   0  0  2  0  0  3  0  0  0  0  0  0
  184.7020  178.6880  142.5020 C   0  0  0  0  0  0  0  0  0  0  0  0
  185.1810  178.6070  140.1450 C   0  0  0  0  0  0  0  0  0  0  0  0
  186.0670  177.5110  146.3430 C   0  0  0  0  0  2  0  0  0  0  0  0
  186.8040  177.3310  145.0010 C   0  0  0  0  0  2  0  0  0  0  0  0
  186.9630  178.5980  141.6150 C   0  0  0  0  0  0  0  0  0  0  0  0
  185.2090  178.9900  143.8780 C   0  0  1  0  0  3  0  0  0  0  0  0
  186.2880  178.6190  139.4020 C   0  0  0  0  0  3  0  0  0  0  0  0
  184.7730  178.3470  146.2660 C   0  0  0  0  0  2  0  0  0  0  0  0
  182.4390  179.3780  143.2650 C   0  0  0  0  0  2  0  0  0  0  0  0
  182.8310  179.0250  144.7260 C   0  0  0  0  0  2  0  0  0  0  0  0
  187.6780  178.5870  142.9350 C   0  0  0  0  0  2  0  0  0  0  0  0
  183.7700  178.7660  139.7730 C   0  0  0  0  0  3  0  0  0  0  0  0
  182.8240  178.7980  140.7480 C   0  0  0  0  0  0  0  0  0  0  0  0
  187.4260  178.5970  140.3650 C   0  0  0  0  0  0  0  0  0  0  0  0
  185.5500  178.5960  141.5140 C   0  0  0  0  0  0  0  0  0  0  0  0
  183.2180  178.5550  142.2240 C   0  0  1  0  0  3  0  0  0  0  0  0
  180.9730  177.2480  138.0970 C   0  0  0  0  0  2  0  0  0  0  0  0
  180.1760  178.4980  137.7390 C   0  0  0  0  0  2  0  0  0  0  0  0
  181.4330  178.8950  140.3740 N   0  0  0  0  0  0  0  0  0  0  0  0
  180.9690  179.7470  138.1120 C   0  0  0  0  0  2  0  0  0  0  0  0
  180.5070  177.7880  140.5810 C   0  0  0  0  0  2  0  0  0  0  0  0
  180.9210  180.0310  139.6120 C   0  0  0  0  0  2  0  0  0  0  0  0
  180.6650  176.7120  139.5010 C   0  0  0  0  0  2  0  0  0  0  0  0
  188.8660  178.5520  139.9830 C   0  0  0  0  0  2  0  0  0  0  0  0
  189.3750  177.1270  140.0550 C   0  0  0  0  0  2  0  0  0  0  0  0
  190.5050  177.0460  141.0570 C   0  0  0  0  0  2  0  0  0  0  0  0
  190.0680  176.2120  142.2440 C   0  0  0  0  0  2  0  0  0  0  0  0
  192.0510  175.6640  143.9620 O   0  0  0  0  0  0  0  0  0  0  0  0
  190.0570  176.7530  144.8770 O   0  0  0  0  0  0  0  0  0  0  0  0
  190.9840  176.6860  143.6960 S   0  0  0  0  0  0  0  0  0  0  0  0
  190.9240  179.2740  143.9870 O   0  0  0  0  0  1  0  0  0  0  0  0
  191.7400  178.2790  143.4510 C   0  0  0  0  0  2  0  0  0  0  0  0
  1 12  1  1  0  0  0
  1 10  1  0  0  0  0
  2 13  1  6  0  0  0
  2  6  1  0  0  0  0
  4 17  1  0  0  0  0
  6  5  1  0  0  0  0
  7 13  1  0  0  0  0
  8  3  1  6  0  0  0
  8  2  1  0  0  0  0
  8  1  1  0  0  0  0
  9  4  2  0  0  0  0
  9 16  1  0  0  0  0
 10  5  1  0  0  0  0
 11 12  1  0  0  0  0
 14  4  1  0  0  0  0
 14 15  2  0  0  0  0
 15 18  1  0  0  0  0
 16  7  2  0  0  0  0
 17  7  1  0  0  0  0
 17  3  2  0  0  0  0
 18  3  1  0  0  0  0
 18 11  1  1  0  0  0
 19 25  1  0  0  0  0
 20 19  1  0  0  0  0
 20 22  1  0  0  0  0
 21 23  1  0  0  0  0
 21 15  1  0  0  0  0
 22 24  1  0  0  0  0
 24 21  1  0  0  0  0
 25 23  1  0  0  0  0
 26 27  1  0  0  0  0
 26 16  1  0  0  0  0
 27 28  1  0  0  0  0
 28 29  1  0  0  0  0
 29 32  1  0  0  0  0
 32 30  2  0  0  0  0
 32 31  2  0  0  0  0
 34 32  1  0  0  0  0
 34 33  1  0  0  0  0
M  END
>  <MODEL>
5

>  <REMARK>
 VINA RESULT:      -8.7      4.608      7.694
  Name = 
  7 active torsions:
  status: ('A' for Active; 'I' for Inactive)
    1  A    between atoms: C_3  and  C_13
    2  A    between atoms: C_3  and  C_17
    3  A    between atoms: N_12  and  C_28
    4  A    between atoms: C_13  and  C_33
    5  A    between atoms: C_14  and  S_34
    6  A    between atoms: C_17  and  C_29
    7  A    between atoms: C_33  and  S_34
                            x       y       z     vdW  Elec       q    Type
                         _______ _______ _______ _____ _____    ______ ____

>  <TORSDO>
F 7

$$$$
=
 OpenBabel11052414093D

 34 39  0  0  1  0  0  0  0  0999 V2000
  188.1190  177.8550  144.8680 C   0  0  1  0  0  3  0  0  0  0  0  0
  185.5390  177.9150  145.1050 C   0  0  2  0  0  3  0  0  0  0  0  0
  186.7990  178.1080  142.8540 C   0  0  0  0  0  0  0  0  0  0  0  0
  185.5380  178.7600  140.9110 C   0  0  0  0  0  0  0  0  0  0  0  0
  187.0360  178.4190  147.0800 C   0  0  0  0  0  2  0  0  0  0  0  0
  185.9050  178.9430  146.1720 C   0  0  0  0  0  2  0  0  0  0  0  0
  184.4030  178.5110  142.9080 C   0  0  0  0  0  0  0  0  0  0  0  0
  186.7740  177.5180  144.2300 C   0  0  1  0  0  3  0  0  0  0  0  0
  184.2490  178.9750  140.6470 C   0  0  0  0  0  3  0  0  0  0  0  0
  188.1000  177.5640  146.3620 C   0  0  0  0  0  2  0  0  0  0  0  0
  189.0760  177.1520  142.5680 C   0  0  0  0  0  2  0  0  0  0  0  0
  189.2720  177.1720  144.1080 C   0  0  0  0  0  2  0  0  0  0  0  0
  184.2060  178.2470  144.3730 C   0  0  0  0  0  2  0  0  0  0  0  0
  186.6950  178.6260  140.0180 C   0  0  0  0  0  3  0  0  0  0  0  0
  187.9100  178.3220  140.5440 C   0  0  0  0  0  0  0  0  0  0  0  0
  183.5350  178.8260  141.9470 C   0  0  0  0  0  0  0  0  0  0  0  0
  185.6780  178.4690  142.2920 C   0  0  1  0  0  3  0  0  0  0  0  0
  188.0950  178.2320  142.0780 C   0  0  0  0  0  0  0  0  0  0  0  0
  188.4910  176.4260  137.5570 C   0  0  0  0  0  2  0  0  0  0  0  0
  189.9260  176.0520  137.9090 C   0  0  0  0  0  2  0  0  0  0  0  0
  189.0560  178.2490  139.6690 N   0  0  0  0  0  0  0  0  0  0  0  0
  190.1030  176.0360  139.4250 C   0  0  0  0  0  2  0  0  0  0  0  0
  189.0350  178.8300  138.3320 C   0  0  0  0  0  2  0  0  0  0  0  0
  190.2270  177.4430  140.0040 C   0  0  0  0  0  2  0  0  0  0  0  0
  188.2900  177.9310  137.3390 C   0  0  0  0  0  2  0  0  0  0  0  0
  182.0720  179.0270  142.1450 C   0  0  0  0  0  2  0  0  0  0  0  0
  181.2990  178.2530  141.0970 C   0  0  0  0  0  2  0  0  0  0  0  0
  180.3460  179.1860  140.3820 C   0  0  0  0  0  2  0  0  0  0  0  0
  180.6140  179.1350  138.8920 C   0  0  0  0  0  2  0  0  0  0  0  0
  181.1810  180.7270  136.8110 O   0  0  0  0  0  0  0  0  0  0  0  0
  182.5260  181.0240  138.8370 O   0  0  0  0  0  0  0  0  0  0  0  0
  181.1480  180.7320  138.3130 S   0  0  0  0  0  0  0  0  0  0  0  0
  180.0280  183.0590  137.9710 O   0  0  0  0  0  1  0  0  0  0  0  0
  180.0260  181.9950  138.8740 C   0  0  0  0  0  2  0  0  0  0  0  0
  1 12  1  6  0  0  0
  1 10  1  0  0  0  0
  2 13  1  6  0  0  0
  2  6  1  0  0  0  0
  6  5  1  0  0  0  0
  7 13  1  0  0  0  0
  8  3  1  6  0  0  0
  8  1  1  0  0  0  0
  8  2  1  0  0  0  0
  9  4  2  0  0  0  0
  9 16  1  0  0  0  0
 10  5  1  0  0  0  0
 11 12  1  0  0  0  0
 14 15  2  0  0  0  0
 14  4  1  0  0  0  0
 15 18  1  0  0  0  0
 16 26  1  0  0  0  0
 16  7  2  0  0  0  0
 17  4  1  6  0  0  0
 17  3  1  0  0  0  0
 17  7  1  0  0  0  0
 18 11  1  0  0  0  0
 18  3  2  0  0  0  0
 19 20  1  0  0  0  0
 20 22  1  0  0  0  0
 21 24  1  0  0  0  0
 21 15  1  0  0  0  0
 22 24  1  0  0  0  0
 23 21  1  0  0  0  0
 25 19  1  0  0  0  0
 25 23  1  0  0  0  0
 27 26  1  0  0  0  0
 28 27  1  0  0  0  0
 29 28  1  0  0  0  0
 30 32  2  0  0  0  0
 32 31  2  0  0  0  0
 32 34  1  0  0  0  0
 32 29  1  0  0  0  0
 33 34  1  0  0  0  0
M  END
>  <MODEL>
6

>  <REMARK>
 VINA RESULT:      -8.5      2.027      2.885
  Name = 
  7 active torsions:
  status: ('A' for Active; 'I' for Inactive)
    1  A    between atoms: C_3  and  C_13
    2  A    between atoms: C_3  and  C_17
    3  A    between atoms: N_12  and  C_28
    4  A    between atoms: C_13  and  C_33
    5  A    between atoms: C_14  and  S_34
    6  A    between atoms: C_17  and  C_29
    7  A    between atoms: C_33  and  S_34
                            x       y       z     vdW  Elec       q    Type
                         _______ _______ _______ _____ _____    ______ ____

>  <TORSDO>
F 7

$$$$
=
 OpenBabel11052414093D

 34 39  0  0  1  0  0  0  0  0999 V2000
  185.6270  177.9640  143.7390 C   0  0  1  0  0  3  0  0  0  0  0  0
  187.9620  178.1030  142.6250 C   0  0  2  0  0  3  0  0  0  0  0  0
  185.7250  178.3660  141.3540 C   0  0  0  0  0  0  0  0  0  0  0  0
  185.7910  178.3620  138.9480 C   0  0  0  0  0  0  0  0  0  0  0  0
  187.6560  176.9640  144.8620 C   0  0  0  0  0  2  0  0  0  0  0  0
  188.1440  176.8060  143.4080 C   0  0  0  0  0  2  0  0  0  0  0  0
  187.7930  178.2040  140.0890 C   0  0  0  0  0  0  0  0  0  0  0  0
  186.4740  178.5850  142.6320 C   0  0  1  0  0  3  0  0  0  0  0  0
  186.7540  178.3520  138.0270 C   0  0  0  0  0  3  0  0  0  0  0  0
  186.4160  177.8650  145.0360 C   0  0  0  0  0  2  0  0  0  0  0  0
  183.6650  179.1320  142.5180 C   0  0  0  0  0  2  0  0  0  0  0  0
  184.2800  178.7000  143.8770 C   0  0  0  0  0  2  0  0  0  0  0  0
  188.7210  178.1030  141.2650 C   0  0  0  0  0  2  0  0  0  0  0  0
  184.3480  178.6030  138.8300 C   0  0  0  0  0  3  0  0  0  0  0  0
  183.5850  178.6410  139.9530 C   0  0  0  0  0  0  0  0  0  0  0  0
  188.0360  178.2340  138.7780 C   0  0  0  0  0  0  0  0  0  0  0  0
  186.3860  178.2750  140.2320 C   0  0  0  0  0  0  0  0  0  0  0  0
  184.2100  178.3170  141.3310 C   0  0  1  0  0  3  0  0  0  0  0  0
  181.2020  177.1680  137.7150 C   0  0  0  0  0  2  0  0  0  0  0  0
  180.4310  178.4600  137.4670 C   0  0  0  0  0  2  0  0  0  0  0  0
  182.1580  178.8200  139.8280 N   0  0  0  0  0  0  0  0  0  0  0  0
  181.3510  179.6610  137.6600 C   0  0  0  0  0  2  0  0  0  0  0  0
  181.2180  177.7790  140.2260 C   0  0  0  0  0  2  0  0  0  0  0  0
  181.5880  179.9730  139.1360 C   0  0  0  0  0  2  0  0  0  0  0  0
  181.1170  176.6760  139.1660 C   0  0  0  0  0  2  0  0  0  0  0  0
  189.3850  178.1360  138.1530 C   0  0  0  0  0  2  0  0  0  0  0  0
  189.7000  176.6900  137.8300 C   0  0  0  0  0  2  0  0  0  0  0  0
  190.8380  176.2140  138.7060 C   0  0  0  0  0  2  0  0  0  0  0  0
  191.7820  175.3580  137.8850 C   0  0  0  0  0  2  0  0  0  0  0  0
  193.5190  176.9610  139.1480 O   0  0  0  0  0  0  0  0  0  0  0  0
  193.8020  176.7010  136.7280 O   0  0  0  0  0  0  0  0  0  0  0  0
  193.4410  175.9920  138.0030 S   0  0  0  0  0  0  0  0  0  0  0  0
  195.5370  175.0450  139.2280 O   0  0  0  0  0  1  0  0  0  0  0  0
  194.5890  174.6600  138.2790 C   0  0  0  0  0  2  0  0  0  0  0  0
  1 12  1  1  0  0  0
  1 10  1  0  0  0  0
  2 13  1  6  0  0  0
  2  8  1  0  0  0  0
  2  6  1  0  0  0  0
  4 17  1  0  0  0  0
  5 10  1  0  0  0  0
  6  5  1  0  0  0  0
  7 17  1  0  0  0  0
  7 13  1  0  0  0  0
  8  3  1  6  0  0  0
  8  1  1  0  0  0  0
  9 16  1  0  0  0  0
  9  4  2  0  0  0  0
 11 12  1  0  0  0  0
 14  4  1  0  0  0  0
 14 15  2  0  0  0  0
 15 18  1  0  0  0  0
 16  7  2  0  0  0  0
 17  3  2  0  0  0  0
 18  3  1  0  0  0  0
 18 11  1  1  0  0  0
 19 25  1  0  0  0  0
 20 22  1  0  0  0  0
 20 19  1  0  0  0  0
 21 15  1  0  0  0  0
 21 23  1  0  0  0  0
 22 24  1  0  0  0  0
 24 21  1  0  0  0  0
 25 23  1  0  0  0  0
 26 16  1  0  0  0  0
 27 26  1  0  0  0  0
 27 28  1  0  0  0  0
 29 32  1  0  0  0  0
 29 28  1  0  0  0  0
 31 32  2  0  0  0  0
 32 34  1  0  0  0  0
 32 30  2  0  0  0  0
 34 33  1  0  0  0  0
M  END
>  <MODEL>
7

>  <REMARK>
 VINA RESULT:      -8.4      5.559      8.605
  Name = 
  7 active torsions:
  status: ('A' for Active; 'I' for Inactive)
    1  A    between atoms: C_3  and  C_13
    2  A    between atoms: C_3  and  C_17
    3  A    between atoms: N_12  and  C_28
    4  A    between atoms: C_13  and  C_33
    5  A    between atoms: C_14  and  S_34
    6  A    between atoms: C_17  and  C_29
    7  A    between atoms: C_33  and  S_34
                            x       y       z     vdW  Elec       q    Type
                         _______ _______ _______ _____ _____    ______ ____

>  <TORSDO>
F 7

$$$$
=
 OpenBabel11052414093D

 34 39  0  0  1  0  0  0  0  0999 V2000
  185.8380  178.3090  145.1250 C   0  0  1  0  0  3  0  0  0  0  0  0
  184.1270  178.2560  143.1800 C   0  0  2  0  0  3  0  0  0  0  0  0
  186.6930  178.2110  142.8620 C   0  0  0  0  0  0  0  0  0  0  0  0
  187.5570  178.5200  140.6370 C   0  0  0  0  0  0  0  0  0  0  0  0
  183.4660  179.1070  145.4680 C   0  0  0  0  0  2  0  0  0  0  0  0
  183.5660  179.4380  143.9650 C   0  0  0  0  0  2  0  0  0  0  0  0
  185.2640  178.4820  140.9160 C   0  0  0  0  0  0  0  0  0  0  0  0
  185.5290  177.8130  143.7150 C   0  0  1  0  0  3  0  0  0  0  0  0
  187.0230  178.6240  139.4210 C   0  0  0  0  0  3  0  0  0  0  0  0
  184.6060  178.2230  146.0140 C   0  0  0  0  0  2  0  0  0  0  0  0
  188.1970  177.3540  144.6470 C   0  0  0  0  0  2  0  0  0  0  0  0
  187.0780  177.5950  145.6970 C   0  0  0  0  0  2  0  0  0  0  0  0
  183.9510  178.4100  141.6410 C   0  0  0  0  0  2  0  0  0  0  0  0
  188.9470  178.3310  141.0660 C   0  0  0  0  0  3  0  0  0  0  0  0
  189.2210  178.1690  142.3870 C   0  0  0  0  0  0  0  0  0  0  0  0
  185.5460  178.6140  139.6200 C   0  0  0  0  0  0  0  0  0  0  0  0
  186.5090  178.4280  141.5890 C   0  0  0  0  0  0  0  0  0  0  0  0
  188.0930  178.3000  143.4380 C   0  0  1  0  0  3  0  0  0  0  0  0
  190.7700  176.0010  144.7860 C   0  0  0  0  0  2  0  0  0  0  0  0
  191.6800  177.0750  145.3720 C   0  0  0  0  0  2  0  0  0  0  0  0
  190.5950  178.0430  142.8090 N   0  0  0  0  0  0  0  0  0  0  0  0
  191.0450  178.4510  145.1940 C   0  0  0  0  0  2  0  0  0  0  0  0
  191.4050  176.8860  142.4430 C   0  0  0  0  0  2  0  0  0  0  0  0
  191.1920  178.9710  143.7660 C   0  0  0  0  0  2  0  0  0  0  0  0
  191.0810  175.6720  143.3210 C   0  0  0  0  0  2  0  0  0  0  0  0
  184.5370  178.7580  138.5330 C   0  0  0  0  0  2  0  0  0  0  0  0
  184.1110  177.3900  138.0400 C   0  0  0  0  0  2  0  0  0  0  0  0
  184.7310  177.1260  136.6860 C   0  0  0  0  0  2  0  0  0  0  0  0
  185.8830  176.1530  136.8410 C   0  0  0  0  0  2  0  0  0  0  0  0
  187.1980  178.3070  135.9390 O   0  0  0  0  0  0  0  0  0  0  0  0
  187.5510  176.2040  134.7340 O   0  0  0  0  0  0  0  0  0  0  0  0
  187.3530  176.8210  136.0900 S   0  0  0  0  0  0  0  0  0  0  0  0
  189.7750  177.4110  136.8460 O   0  0  0  0  0  1  0  0  0  0  0  0
  188.7730  176.4770  137.1060 C   0  0  0  0  0  2  0  0  0  0  0  0
  1 12  1  1  0  0  0
  1 10  1  0  0  0  0
  2 13  1  6  0  0  0
  2  8  1  0  0  0  0
  2  6  1  0  0  0  0
  3 18  1  0  0  0  0
  4 14  1  0  0  0  0
  4 17  1  0  0  0  0
  5 10  1  0  0  0  0
  6  5  1  0  0  0  0
  7 17  1  0  0  0  0
  7 13  1  0  0  0  0
  8  3  1  6  0  0  0
  8  1  1  0  0  0  0
  9 16  1  0  0  0  0
  9  4  2  0  0  0  0
 11 12  1  0  0  0  0
 14 15  2  0  0  0  0
 15 21  1  0  0  0  0
 15 18  1  0  0  0  0
 16  7  2  0  0  0  0
 17  3  2  0  0  0  0
 18 11  1  1  0  0  0
 19 20  1  0  0  0  0
 21 24  1  0  0  0  0
 22 20  1  0  0  0  0
 23 21  1  0  0  0  0
 23 25  1  0  0  0  0
 24 22  1  0  0  0  0
 25 19  1  0  0  0  0
 26 16  1  0  0  0  0
 27 26  1  0  0  0  0
 28 29  1  0  0  0  0
 28 27  1  0  0  0  0
 30 32  2  0  0  0  0
 31 32  2  0  0  0  0
 32 29  1  0  0  0  0
 32 34  1  0  0  0  0
 33 34  1  0  0  0  0
M  END
>  <MODEL>
8

>  <REMARK>
 VINA RESULT:      -8.2      3.701      6.337
  Name = 
  7 active torsions:
  status: ('A' for Active; 'I' for Inactive)
    1  A    between atoms: C_3  and  C_13
    2  A    between atoms: C_3  and  C_17
    3  A    between atoms: N_12  and  C_28
    4  A    between atoms: C_13  and  C_33
    5  A    between atoms: C_14  and  S_34
    6  A    between atoms: C_17  and  C_29
    7  A    between atoms: C_33  and  S_34
                            x       y       z     vdW  Elec       q    Type
                         _______ _______ _______ _____ _____    ______ ____

>  <TORSDO>
F 7

$$$$
=
 OpenBabel11052414093D

 34 39  0  0  1  0  0  0  0  0999 V2000
  185.8790  178.0950  138.5480 C   0  0  1  0  0  3  0  0  0  0  0  0
  186.1650  178.8020  141.0250 C   0  0  2  0  0  3  0  0  0  0  0  0
  188.0450  177.7680  139.5800 C   0  0  0  0  0  0  0  0  0  0  0  0
  190.0610  177.0670  140.6910 C   0  0  0  0  0  0  0  0  0  0  0  0
  183.8700  178.3630  140.0560 C   0  0  0  0  0  2  0  0  0  0  0  0
  184.8850  177.9810  141.1530 C   0  0  0  0  0  2  0  0  0  0  0  0
  188.4100  178.0620  141.9640 C   0  0  0  0  0  0  0  0  0  0  0  0
  186.8260  178.6360  139.6160 C   0  0  1  0  0  3  0  0  0  0  0  0
  190.5410  177.1620  141.9300 C   0  0  0  0  0  2  0  0  0  0  0  0
  184.4940  178.7090  138.6880 C   0  0  0  0  0  2  0  0  0  0  0  0
  188.0230  177.9710  137.1020 C   0  0  0  0  0  2  0  0  0  0  0  0
  186.4950  178.2450  137.1440 C   0  0  0  0  0  2  0  0  0  0  0  0
  187.0840  178.6930  142.2770 C   0  0  0  0  0  2  0  0  0  0  0  0
  190.7100  176.6740  139.4340 C   0  0  0  0  0  3  0  0  0  0  0  0
  190.0090  176.7430  138.2730 C   0  0  0  0  0  0  0  0  0  0  0  0
  189.4590  177.7900  142.7400 C   0  0  0  0  0  0  0  0  0  0  0  0
  188.7520  177.6120  140.6650 C   0  0  0  0  0  0  0  0  0  0  0  0
  188.5090  177.1220  138.2900 C   0  0  0  0  0  0  0  0  0  0  0  0
  190.1990  173.5000  136.7540 C   0  0  0  0  0  2  0  0  0  0  0  0
  191.6600  173.6310  136.3370 C   0  0  0  0  0  2  0  0  0  0  0  0
  190.6320  176.2990  137.0490 N   0  0  0  0  0  0  0  0  0  0  0  0
  192.3870  174.5890  137.2760 C   0  0  0  0  0  2  0  0  0  0  0  0
  189.8430  175.9080  135.8870 C   0  0  0  0  0  2  0  0  0  0  0  0
  192.0690  176.0500  136.9660 C   0  0  0  0  0  2  0  0  0  0  0  0
  189.2720  174.4940  136.0440 C   0  0  0  0  0  2  0  0  0  0  0  0
  189.5310  178.0490  144.2060 C   0  0  0  0  0  2  0  0  0  0  0  0
  188.6950  177.0300  144.9520 C   0  0  0  0  0  2  0  0  0  0  0  0
  187.7370  177.7450  145.8800 C   0  0  0  0  0  2  0  0  0  0  0  0
  186.3120  177.4570  145.4530 C   0  0  0  0  0  2  0  0  0  0  0  0
  186.0520  179.8260  146.6790 O   0  0  0  0  0  0  0  0  0  0  0  0
  184.2080  178.2330  146.9350 O   0  0  0  0  0  0  0  0  0  0  0  0
  185.2370  178.7740  145.9820 S   0  0  0  0  0  0  0  0  0  0  0  0
  183.3520  178.6860  144.1860 O   0  0  0  0  0  1  0  0  0  0  0  0
  184.4160  179.4980  144.5790 C   0  0  0  0  0  2  0  0  0  0  0  0
  1 12  1  6  0  0  0
  1 10  1  0  0  0  0
  1  8  1  0  0  0  0
  2  6  1  1  0  0  0
  2 13  1  0  0  0  0
  3 17  1  0  0  0  0
  4  9  1  0  0  0  0
  5  6  1  0  0  0  0
  7 13  1  0  0  0  0
  7 16  2  0  0  0  0
  8  3  1  1  0  0  0
  8  2  1  0  0  0  0
  9 16  1  0  0  0  0
 10  5  1  0  0  0  0
 11 12  1  0  0  0  0
 11 18  1  0  0  0  0
 14  4  1  0  0  0  0
 15 18  1  0  0  0  0
 15 14  2  0  0  0  0
 16 26  1  0  0  0  0
 17  4  2  0  0  0  0
 17  7  1  0  0  0  0
 18  3  2  0  0  0  0
 20 19  1  0  0  0  0
 20 22  1  0  0  0  0
 21 15  1  0  0  0  0
 23 25  1  0  0  0  0
 23 21  1  0  0  0  0
 24 21  1  0  0  0  0
 24 22  1  0  0  0  0
 25 19  1  0  0  0  0
 26 27  1  0  0  0  0
 27 28  1  0  0  0  0
 29 28  1  0  0  0  0
 29 32  1  0  0  0  0
 32 30  2  0  0  0  0
 32 31  2  0  0  0  0
 33 34  1  0  0  0  0
 34 32  1  0  0  0  0
M  END
>  <MODEL>
9

>  <REMARK>
 VINA RESULT:      -8.2      2.816      5.661
  Name = 
  7 active torsions:
  status: ('A' for Active; 'I' for Inactive)
    1  A    between atoms: C_3  and  C_13
    2  A    between atoms: C_3  and  C_17
    3  A    between atoms: N_12  and  C_28
    4  A    between atoms: C_13  and  C_33
    5  A    between atoms: C_14  and  S_34
    6  A    between atoms: C_17  and  C_29
    7  A    between atoms: C_33  and  S_34
                            x       y       z     vdW  Elec       q    Type
                         _______ _______ _______ _____ _____    ______ ____

>  <TORSDO>
F 7

$$$$
