=
 OpenBabel11052413153D

 31 34  0  0  1  0  0  0  0  0999 V2000
  188.5270  178.1440  140.2690 C   0  0  1  0  0  3  0  0  0  0  0  0
  185.7520  178.7860  142.8840 C   0  0  2  0  0  3  0  0  0  0  0  0
  184.3810  178.4810  142.3210 C   0  0  0  0  0  0  0  0  0  0  0  0
  182.9310  177.5780  140.5940 C   0  0  0  0  0  3  0  0  0  0  0  0
  186.9030  178.0690  142.1710 C   0  0  1  0  0  3  0  0  0  0  0  0
  189.4460  177.3300  141.1530 C   0  0  0  0  0  3  0  0  0  0  0  0
  184.2120  177.7980  141.1070 C   0  0  0  0  0  3  0  0  0  0  0  0
  186.4920  177.4650  145.0260 C   0  0  2  0  0  3  0  0  0  0  0  0
  187.8800  177.3000  139.3870 F   0  0  0  0  0  0  0  0  0  0  0  0
  183.4580  179.7100  144.2890 C   0  0  0  0  0  2  0  0  0  0  0  0
  181.8120  178.0500  141.2830 C   0  0  0  0  0  3  0  0  0  0  0  0
  187.4760  176.8000  144.1520 N   0  0  0  0  0  2  0  0  0  0  0  0
  185.8170  178.7260  144.4410 C   0  0  2  0  0  3  0  0  0  0  0  0
  187.4870  178.9410  141.0650 C   0  0  0  0  0  2  0  0  0  0  0  0
  180.5280  179.3230  143.3140 Cl  0  0  0  0  0  0  0  0  0  0  0  0
  188.0120  177.7150  143.1530 C   0  0  1  0  0  3  0  0  0  0  0  0
  189.1880  177.0930  142.4500 C   0  0  0  0  0  3  0  0  0  0  0  0
  184.4700  178.9610  145.1510 C   0  0  0  0  0  2  0  0  0  0  0  0
  183.2510  178.9610  143.0080 C   0  0  0  0  0  0  0  0  0  0  0  0
  181.9640  178.7440  142.4860 C   0  0  0  0  0  0  0  0  0  0  0  0
  187.1260  177.7920  146.3720 C   0  0  0  0  0  2  0  0  0  0  0  0
  187.9810  176.2030  147.8410 C   0  0  0  0  0  1  0  0  0  0  0  0
  188.2810  176.9340  146.6150 N   0  0  0  0  0  0  0  0  0  0  0  0
  189.5750  178.0610  148.2350 O   0  0  0  0  0  1  0  0  0  0  0  0
  189.4450  177.7930  146.8680 C   0  0  1  0  0  3  0  0  0  0  0  0
  191.1320  177.4610  145.1380 C   0  0  0  0  0  2  0  0  0  0  0  0
  190.7190  177.1610  146.3700 C   0  0  0  0  0  0  0  0  0  0  0  0
  191.5640  176.2620  147.2370 C   0  0  0  0  0  0  0  0  0  0  0  0
  192.1410  177.0040  148.2510 F   0  0  0  0  0  0  0  0  0  0  0  0
  190.8000  175.2550  147.8030 F   0  0  0  0  0  0  0  0  0  0  0  0
  192.5630  175.6840  146.4750 F   0  0  0  0  0  0  0  0  0  0  0  0
  1  9  1  6  0  0  0
  1 14  1  0  0  0  0
  1  6  1  0  0  0  0
  2  3  1  6  0  0  0
  2 13  1  0  0  0  0
  3 19  1  0  0  0  0
  4  7  1  0  0  0  0
  4 11  2  0  0  0  0
  5 14  1  6  0  0  0
  5  2  1  0  0  0  0
  5 16  1  0  0  0  0
  6 17  2  0  0  0  0
  7  3  2  0  0  0  0
  8 21  1  1  0  0  0
 10 18  1  0  0  0  0
 11 20  1  0  0  0  0
 12  8  1  0  0  0  0
 13  8  1  0  0  0  0
 13 18  1  1  0  0  0
 16 17  1  6  0  0  0
 16 12  1  0  0  0  0
 19 10  1  0  0  0  0
 20 19  2  0  0  0  0
 20 15  1  0  0  0  0
 21 23  1  0  0  0  0
 23 25  1  0  0  0  0
 23 22  1  0  0  0  0
 25 24  1  1  0  0  0
 26 27  2  0  0  0  0
 27 25  1  0  0  0  0
 27 28  1  0  0  0  0
 28 30  1  0  0  0  0
 28 29  1  0  0  0  0
 31 28  1  0  0  0  0
M  END
>  <MODEL>
1

>  <REMARK>
 VINA RESULT:      -8.8      0.000      0.000
  Name = 
  5 active torsions:
  status: ('A' for Active; 'I' for Inactive)
    1  A    between atoms: C_1  and  C_19
    2  A    between atoms: N_9  and  C_22
    3  A    between atoms: N_9  and  C_23
    4  A    between atoms: C_15  and  C_23
    5  A    between atoms: C_19  and  C_22
                            x       y       z     vdW  Elec       q    Type
                         _______ _______ _______ _____ _____    ______ ____

>  <TORSDO>
F 5

$$$$
=
 OpenBabel11052413153D

 31 34  0  0  1  0  0  0  0  0999 V2000
  190.6470  176.8500  139.9150 C   0  0  1  0  0  3  0  0  0  0  0  0
  188.0030  177.3030  142.7000 C   0  0  2  0  0  3  0  0  0  0  0  0
  188.6520  177.6090  144.0320 C   0  0  0  0  0  0  0  0  0  0  0  0
  190.5850  178.1750  145.3900 C   0  0  0  0  0  3  0  0  0  0  0  0
  188.8670  177.6480  141.4820 C   0  0  1  0  0  3  0  0  0  0  0  0
  190.0060  177.7560  138.8860 C   0  0  0  0  0  3  0  0  0  0  0  0
  190.0090  177.9470  144.1370 C   0  0  0  0  0  3  0  0  0  0  0  0
  186.2960  179.0600  141.7620 C   0  0  2  0  0  3  0  0  0  0  0  0
  191.7380  177.4920  140.4680 F   0  0  0  0  0  0  0  0  0  0  0  0
  186.4370  177.0940  145.0640 C   0  0  0  0  0  2  0  0  0  0  0  0
  189.8120  178.0540  146.5470 C   0  0  0  0  0  3  0  0  0  0  0  0
  187.3020  179.3310  140.7200 N   0  0  0  0  0  2  0  0  0  0  0  0
  186.5220  177.7810  142.6000 C   0  0  2  0  0  3  0  0  0  0  0  0
  189.6800  176.4400  141.0310 C   0  0  0  0  0  2  0  0  0  0  0  0
  187.5300  177.5590  147.9410 Cl  0  0  0  0  0  0  0  0  0  0  0  0
  188.0020  178.1180  140.3200 C   0  0  1  0  0  3  0  0  0  0  0  0
  188.8290  178.3700  139.0890 C   0  0  0  0  0  3  0  0  0  0  0  0
  185.7970  177.9200  143.9530 C   0  0  0  0  0  2  0  0  0  0  0  0
  187.8780  177.4810  145.2000 C   0  0  0  0  0  0  0  0  0  0  0  0
  188.4610  177.7040  146.4600 C   0  0  0  0  0  0  0  0  0  0  0  0
  184.9010  179.0410  141.1490 C   0  0  0  0  0  2  0  0  0  0  0  0
  184.0710  179.9930  139.1960 C   0  0  0  0  0  1  0  0  0  0  0  0
  184.9830  178.9700  139.6940 N   0  0  0  0  0  0  0  0  0  0  0  0
  183.1570  177.4750  139.7000 O   0  0  0  0  0  1  0  0  0  0  0  0
  184.4760  177.6580  139.2710 C   0  0  1  0  0  3  0  0  0  0  0  0
  183.3790  177.4690  137.1010 C   0  0  0  0  0  2  0  0  0  0  0  0
  184.5300  177.5010  137.7730 C   0  0  0  0  0  0  0  0  0  0  0  0
  185.8320  177.4470  137.0150 C   0  0  0  0  0  0  0  0  0  0  0  0
  185.5920  177.0810  135.7040 F   0  0  0  0  0  0  0  0  0  0  0  0
  186.4650  178.6790  137.0240 F   0  0  0  0  0  0  0  0  0  0  0  0
  186.6720  176.5140  137.5980 F   0  0  0  0  0  0  0  0  0  0  0  0
  1  9  1  1  0  0  0
  1 14  1  0  0  0  0
  2  3  1  1  0  0  0
  3  7  2  0  0  0  0
  3 19  1  0  0  0  0
  4 11  2  0  0  0  0
  5 14  1  6  0  0  0
  5  2  1  0  0  0  0
  6 17  2  0  0  0  0
  6  1  1  0  0  0  0
  7  4  1  0  0  0  0
  8 21  1  6  0  0  0
  8 13  1  0  0  0  0
 10 19  1  0  0  0  0
 12  8  1  0  0  0  0
 13  2  1  0  0  0  0
 13 18  1  1  0  0  0
 16 17  1  6  0  0  0
 16 12  1  0  0  0  0
 16  5  1  0  0  0  0
 18 10  1  0  0  0  0
 19 20  2  0  0  0  0
 20 11  1  0  0  0  0
 20 15  1  0  0  0  0
 22 23  1  0  0  0  0
 23 21  1  0  0  0  0
 25 23  1  0  0  0  0
 25 24  1  6  0  0  0
 26 27  2  0  0  0  0
 27 25  1  0  0  0  0
 28 30  1  0  0  0  0
 28 31  1  0  0  0  0
 28 27  1  0  0  0  0
 29 28  1  0  0  0  0
M  END
>  <MODEL>
2

>  <REMARK>
 VINA RESULT:      -8.2      3.955      7.542
  Name = 
  5 active torsions:
  status: ('A' for Active; 'I' for Inactive)
    1  A    between atoms: C_1  and  C_19
    2  A    between atoms: N_9  and  C_22
    3  A    between atoms: N_9  and  C_23
    4  A    between atoms: C_15  and  C_23
    5  A    between atoms: C_19  and  C_22
                            x       y       z     vdW  Elec       q    Type
                         _______ _______ _______ _____ _____    ______ ____

>  <TORSDO>
F 5

$$$$
=
 OpenBabel11052413153D

 31 34  0  0  1  0  0  0  0  0999 V2000
  183.4620  179.4130  144.5300 C   0  0  1  0  0  3  0  0  0  0  0  0
  185.9930  178.7450  141.6850 C   0  0  2  0  0  3  0  0  0  0  0  0
  187.1440  177.8840  142.1600 C   0  0  0  0  0  0  0  0  0  0  0  0
  188.2120  176.4690  143.8200 C   0  0  0  0  0  3  0  0  0  0  0  0
  184.7150  178.6090  142.5190 C   0  0  1  0  0  3  0  0  0  0  0  0
  182.2060  179.0630  143.7620 C   0  0  0  0  0  3  0  0  0  0  0  0
  187.1110  177.2150  143.3920 C   0  0  0  0  0  3  0  0  0  0  0  0
  184.5650  177.8410  139.6780 C   0  0  2  0  0  3  0  0  0  0  0  0
  183.7590  178.3860  145.4060 F   0  0  0  0  0  0  0  0  0  0  0  0
  188.3240  178.5590  140.0650 C   0  0  0  0  0  2  0  0  0  0  0  0
  189.3590  176.3980  143.0250 C   0  0  0  0  0  3  0  0  0  0  0  0
  183.4750  177.6830  140.6570 N   0  0  0  0  0  2  0  0  0  0  0  0
  185.7690  178.6940  140.1430 C   0  0  2  0  0  3  0  0  0  0  0  0
  184.6670  179.6660  143.6170 C   0  0  0  0  0  2  0  0  0  0  0  0
  190.8760  176.9550  140.8380 Cl  0  0  0  0  0  0  0  0  0  0  0  0
  183.4790  178.7560  141.6430 C   0  0  1  0  0  3  0  0  0  0  0  0
  182.2180  178.7180  142.4640 C   0  0  0  0  0  3  0  0  0  0  0  0
  187.0150  178.3100  139.3220 C   0  0  0  0  0  2  0  0  0  0  0  0
  188.3030  177.8150  141.3650 C   0  0  0  0  0  0  0  0  0  0  0  0
  189.4120  177.0700  141.8010 C   0  0  0  0  0  0  0  0  0  0  0  0
  184.0150  178.3890  138.3670 C   0  0  0  0  0  2  0  0  0  0  0  0
  183.0220  176.7070  137.1030 C   0  0  0  0  0  1  0  0  0  0  0  0
  182.7300  177.7730  138.0550 N   0  0  0  0  0  0  0  0  0  0  0  0
  180.9290  178.1550  136.5800 O   0  0  0  0  0  1  0  0  0  0  0  0
  181.8950  178.7750  137.3800 C   0  0  1  0  0  3  0  0  0  0  0  0
  180.3850  179.1240  139.2630 C   0  0  0  0  0  2  0  0  0  0  0  0
  181.2040  179.6780  138.3690 C   0  0  0  0  0  0  0  0  0  0  0  0
  181.4610  181.1630  138.4200 C   0  0  0  0  0  0  0  0  0  0  0  0
  180.6800  181.7360  139.4050 F   0  0  0  0  0  0  0  0  0  0  0  0
  182.7920  181.4280  138.6980 F   0  0  0  0  0  0  0  0  0  0  0  0
  181.1420  181.7330  137.2010 F   0  0  0  0  0  0  0  0  0  0  0  0
  1  9  1  1  0  0  0
  2  3  1  1  0  0  0
  2  5  1  0  0  0  0
  3  7  1  0  0  0  0
  5 14  1  1  0  0  0
  6  1  1  0  0  0  0
  7  4  2  0  0  0  0
  8 21  1  6  0  0  0
  8 13  1  0  0  0  0
  8 12  1  0  0  0  0
 10 19  1  0  0  0  0
 11  4  1  0  0  0  0
 12 16  1  0  0  0  0
 13 18  1  6  0  0  0
 13  2  1  0  0  0  0
 14  1  1  0  0  0  0
 15 20  1  0  0  0  0
 16 17  1  1  0  0  0
 16  5  1  0  0  0  0
 17  6  2  0  0  0  0
 18 10  1  0  0  0  0
 19 20  1  0  0  0  0
 19  3  2  0  0  0  0
 20 11  2  0  0  0  0
 22 23  1  0  0  0  0
 23 21  1  0  0  0  0
 25 24  1  1  0  0  0
 25 23  1  0  0  0  0
 25 27  1  0  0  0  0
 27 28  1  0  0  0  0
 27 26  2  0  0  0  0
 28 30  1  0  0  0  0
 28 29  1  0  0  0  0
 31 28  1  0  0  0  0
M  END
>  <MODEL>
3

>  <REMARK>
 VINA RESULT:      -8.1      5.069      9.192
  Name = 
  5 active torsions:
  status: ('A' for Active; 'I' for Inactive)
    1  A    between atoms: C_1  and  C_19
    2  A    between atoms: N_9  and  C_22
    3  A    between atoms: N_9  and  C_23
    4  A    between atoms: C_15  and  C_23
    5  A    between atoms: C_19  and  C_22
                            x       y       z     vdW  Elec       q    Type
                         _______ _______ _______ _____ _____    ______ ____

>  <TORSDO>
F 5

$$$$
=
 OpenBabel11052413153D

 31 34  0  0  1  0  0  0  0  0999 V2000
  187.4330  178.2580  139.0870 C   0  0  1  0  0  3  0  0  0  0  0  0
  184.3800  178.7330  141.4110 C   0  0  2  0  0  3  0  0  0  0  0  0
  183.1770  177.9660  140.9070 C   0  0  0  0  0  0  0  0  0  0  0  0
  182.1410  176.3550  139.4130 C   0  0  0  0  0  3  0  0  0  0  0  0
  185.7260  178.1950  140.9160 C   0  0  1  0  0  3  0  0  0  0  0  0
  188.4480  177.9280  140.1590 C   0  0  0  0  0  3  0  0  0  0  0  0
  183.2820  177.0080  139.8870 C   0  0  0  0  0  3  0  0  0  0  0  0
  185.2430  178.1620  143.8220 C   0  0  2  0  0  3  0  0  0  0  0  0
  187.0870  177.1000  138.4160 F   0  0  0  0  0  0  0  0  0  0  0  0
  181.8220  179.3240  142.5050 C   0  0  0  0  0  2  0  0  0  0  0  0
  180.8870  176.6640  139.9440 C   0  0  0  0  0  3  0  0  0  0  0  0
  186.4280  177.5950  143.1530 N   0  0  0  0  0  2  0  0  0  0  0  0
  184.3290  179.0420  142.9380 C   0  0  2  0  0  3  0  0  0  0  0  0
  186.1670  178.9170  139.6470 C   0  0  0  0  0  2  0  0  0  0  0  0
  179.1670  177.9860  141.5850 Cl  0  0  0  0  0  0  0  0  0  0  0  0
  186.8030  178.3690  141.9770 C   0  0  1  0  0  3  0  0  0  0  0  0
  188.1500  177.9310  141.4690 C   0  0  0  0  0  3  0  0  0  0  0  0
  182.9120  179.0750  143.5430 C   0  0  0  0  0  2  0  0  0  0  0  0
  181.9110  178.2800  141.4350 C   0  0  0  0  0  0  0  0  0  0  0  0
  180.7640  177.6270  140.9510 C   0  0  0  0  0  0  0  0  0  0  0  0
  185.6650  178.9350  145.0660 C   0  0  0  0  0  2  0  0  0  0  0  0
  184.9980  178.1070  147.1350 C   0  0  0  0  0  1  0  0  0  0  0  0
  186.0520  178.0170  146.1310 N   0  0  0  0  0  0  0  0  0  0  0  0
  187.1140  178.8050  148.0850 O   0  0  0  0  0  1  0  0  0  0  0  0
  187.2980  178.5110  146.7300 C   0  0  1  0  0  3  0  0  0  0  0  0
  188.6270  176.6630  147.6050 C   0  0  0  0  0  2  0  0  0  0  0  0
  188.4130  177.5070  146.5950 C   0  0  0  0  0  0  0  0  0  0  0  0
  189.2410  177.3860  145.3410 C   0  0  0  0  0  0  0  0  0  0  0  0
  188.7380  176.3710  144.5480 F   0  0  0  0  0  0  0  0  0  0  0  0
  189.2210  178.5660  144.6160 F   0  0  0  0  0  0  0  0  0  0  0  0
  190.5510  177.0930  145.6730 F   0  0  0  0  0  0  0  0  0  0  0  0
  1  9  1  1  0  0  0
  1 14  1  0  0  0  0
  1  6  1  0  0  0  0
  2  3  1  1  0  0  0
  2 13  1  0  0  0  0
  3 19  1  0  0  0  0
  4  7  1  0  0  0  0
  4 11  2  0  0  0  0
  5 14  1  6  0  0  0
  5  2  1  0  0  0  0
  5 16  1  0  0  0  0
  6 17  2  0  0  0  0
  7  3  2  0  0  0  0
  8 21  1  1  0  0  0
 10 18  1  0  0  0  0
 11 20  1  0  0  0  0
 12  8  1  0  0  0  0
 13 18  1  1  0  0  0
 13  8  1  0  0  0  0
 16 17  1  6  0  0  0
 16 12  1  0  0  0  0
 19 10  1  0  0  0  0
 20 19  2  0  0  0  0
 20 15  1  0  0  0  0
 21 23  1  0  0  0  0
 23 25  1  0  0  0  0
 23 22  1  0  0  0  0
 25 24  1  1  0  0  0
 27 25  1  0  0  0  0
 27 26  2  0  0  0  0
 28 31  1  0  0  0  0
 28 27  1  0  0  0  0
 29 28  1  0  0  0  0
 30 28  1  0  0  0  0
M  END
>  <MODEL>
4

>  <REMARK>
 VINA RESULT:      -7.9      1.841      2.524
  Name = 
  5 active torsions:
  status: ('A' for Active; 'I' for Inactive)
    1  A    between atoms: C_1  and  C_19
    2  A    between atoms: N_9  and  C_22
    3  A    between atoms: N_9  and  C_23
    4  A    between atoms: C_15  and  C_23
    5  A    between atoms: C_19  and  C_22
                            x       y       z     vdW  Elec       q    Type
                         _______ _______ _______ _____ _____    ______ ____

>  <TORSDO>
F 5

$$$$
=
 OpenBabel11052413153D

 31 34  0  0  1  0  0  0  0  0999 V2000
  183.8040  179.2970  144.8870 C   0  0  1  0  0  3  0  0  0  0  0  0
  186.1080  178.7390  141.8330 C   0  0  2  0  0  3  0  0  0  0  0  0
  187.2960  177.8710  142.1880 C   0  0  0  0  0  0  0  0  0  0  0  0
  188.4970  176.4110  143.7130 C   0  0  0  0  0  3  0  0  0  0  0  0
  184.9000  178.5670  142.7590 C   0  0  1  0  0  3  0  0  0  0  0  0
  182.4930  178.9640  144.2090 C   0  0  0  0  0  3  0  0  0  0  0  0
  187.3620  177.1620  143.3970 C   0  0  0  0  0  3  0  0  0  0  0  0
  184.5310  177.8900  139.9160 C   0  0  2  0  0  3  0  0  0  0  0  0
  184.1730  178.2440  145.7030 F   0  0  0  0  0  0  0  0  0  0  0  0
  188.3050  178.6210  140.0310 C   0  0  0  0  0  2  0  0  0  0  0  0
  189.5780  176.3730  142.8290 C   0  0  0  0  0  3  0  0  0  0  0  0
  183.5220  177.6930  140.9710 N   0  0  0  0  0  2  0  0  0  0  0  0
  185.7630  178.7350  140.3120 C   0  0  2  0  0  3  0  0  0  0  0  0
  184.9330  179.5880  143.8910 C   0  0  0  0  0  2  0  0  0  0  0  0
  190.9180  177.0110  140.5500 Cl  0  0  0  0  0  0  0  0  0  0  0  0
  183.5980  178.7330  141.9880 C   0  0  1  0  0  3  0  0  0  0  0  0
  182.4060  178.6600  142.9030 C   0  0  0  0  0  3  0  0  0  0  0  0
  186.9440  178.3860  139.3850 C   0  0  0  0  0  2  0  0  0  0  0  0
  188.3890  177.8360  141.3040 C   0  0  0  0  0  0  0  0  0  0  0  0
  189.5330  177.0840  141.6270 C   0  0  0  0  0  0  0  0  0  0  0  0
  183.8780  178.4750  138.6700 C   0  0  0  0  0  2  0  0  0  0  0  0
  183.3230  177.1370  136.8500 C   0  0  0  0  0  1  0  0  0  0  0  0
  182.8510  177.5730  138.1590 N   0  0  0  0  0  0  0  0  0  0  0  0
  180.9930  177.9920  136.7670 O   0  0  0  0  0  1  0  0  0  0  0  0
  181.6170  178.3460  137.9680 C   0  0  1  0  0  3  0  0  0  0  0  0
  180.2960  176.8850  139.4060 C   0  0  0  0  0  2  0  0  0  0  0  0
  180.6500  178.1340  139.1030 C   0  0  0  0  0  0  0  0  0  0  0  0
  180.1280  179.2760  139.9400 C   0  0  0  0  0  0  0  0  0  0  0  0
  179.1490  179.9550  139.2380 F   0  0  0  0  0  0  0  0  0  0  0  0
  179.5840  178.8140  141.1270 F   0  0  0  0  0  0  0  0  0  0  0  0
  181.1600  180.1470  140.2350 F   0  0  0  0  0  0  0  0  0  0  0  0
  1  9  1  6  0  0  0
  2  3  1  6  0  0  0
  2  5  1  0  0  0  0
  3  7  1  0  0  0  0
  5 14  1  1  0  0  0
  6  1  1  0  0  0  0
  7  4  2  0  0  0  0
  8 21  1  6  0  0  0
  8 13  1  0  0  0  0
  8 12  1  0  0  0  0
 10 19  1  0  0  0  0
 11  4  1  0  0  0  0
 12 16  1  0  0  0  0
 13 18  1  6  0  0  0
 13  2  1  0  0  0  0
 14  1  1  0  0  0  0
 15 20  1  0  0  0  0
 16  5  1  0  0  0  0
 16 17  1  1  0  0  0
 17  6  2  0  0  0  0
 18 10  1  0  0  0  0
 19 20  1  0  0  0  0
 19  3  2  0  0  0  0
 20 11  2  0  0  0  0
 22 23  1  0  0  0  0
 23 21  1  0  0  0  0
 25 24  1  6  0  0  0
 25 23  1  0  0  0  0
 25 27  1  0  0  0  0
 27 26  2  0  0  0  0
 27 28  1  0  0  0  0
 28 31  1  0  0  0  0
 28 30  1  0  0  0  0
 29 28  1  0  0  0  0
M  END
>  <MODEL>
5

>  <REMARK>
 VINA RESULT:      -7.7      4.990      9.056
  Name = 
  5 active torsions:
  status: ('A' for Active; 'I' for Inactive)
    1  A    between atoms: C_1  and  C_19
    2  A    between atoms: N_9  and  C_22
    3  A    between atoms: N_9  and  C_23
    4  A    between atoms: C_15  and  C_23
    5  A    between atoms: C_19  and  C_22
                            x       y       z     vdW  Elec       q    Type
                         _______ _______ _______ _____ _____    ______ ____

>  <TORSDO>
F 5

$$$$
=
 OpenBabel11052413153D

 31 34  0  0  1  0  0  0  0  0999 V2000
  183.6270  179.3130  144.7180 C   0  0  1  0  0  3  0  0  0  0  0  0
  186.0310  178.7560  141.7420 C   0  0  2  0  0  3  0  0  0  0  0  0
  187.1940  177.8690  142.1300 C   0  0  0  0  0  0  0  0  0  0  0  0
  188.3220  176.3780  143.6810 C   0  0  0  0  0  3  0  0  0  0  0  0
  184.7890  178.5900  142.6230 C   0  0  1  0  0  3  0  0  0  0  0  0
  182.3370  179.0040  143.9900 C   0  0  0  0  0  3  0  0  0  0  0  0
  187.2090  177.1470  143.3330 C   0  0  0  0  0  3  0  0  0  0  0  0
  184.5140  177.9470  139.7610 C   0  0  2  0  0  3  0  0  0  0  0  0
  183.9530  178.2470  145.5350 F   0  0  0  0  0  0  0  0  0  0  0  0
  188.2900  178.6280  140.0180 C   0  0  0  0  0  2  0  0  0  0  0  0
  189.4330  176.3340  142.8360 C   0  0  0  0  0  3  0  0  0  0  0  0
  183.4650  177.7530  140.7770 N   0  0  0  0  0  2  0  0  0  0  0  0
  185.7420  178.7730  140.2100 C   0  0  2  0  0  3  0  0  0  0  0  0
  184.7940  179.5990  143.7660 C   0  0  0  0  0  2  0  0  0  0  0  0
  190.8620  176.9780  140.6130 Cl  0  0  0  0  0  0  0  0  0  0  0  0
  183.5170  178.7810  141.8080 C   0  0  1  0  0  3  0  0  0  0  0  0
  182.2920  178.7150  142.6780 C   0  0  0  0  0  3  0  0  0  0  0  0
  186.9500  178.4170  139.3220 C   0  0  0  0  0  2  0  0  0  0  0  0
  188.3190  177.8280  141.2850 C   0  0  0  0  0  0  0  0  0  0  0  0
  189.4400  177.0590  141.6410 C   0  0  0  0  0  0  0  0  0  0  0  0
  183.9130  178.5540  138.4990 C   0  0  0  0  0  2  0  0  0  0  0  0
  182.3530  176.8900  138.0400 C   0  0  0  0  0  1  0  0  0  0  0  0
  183.5750  177.5080  137.5390 N   0  0  0  0  0  0  0  0  0  0  0  0
  184.1050  175.2110  137.6250 O   0  0  0  0  0  1  0  0  0  0  0  0
  184.6430  176.5010  137.5660 C   0  0  1  0  0  3  0  0  0  0  0  0
  185.0160  177.1120  135.2350 C   0  0  0  0  0  2  0  0  0  0  0  0
  185.5330  176.6050  136.3540 C   0  0  0  0  0  0  0  0  0  0  0  0
  186.9900  176.2180  136.3900 C   0  0  0  0  0  0  0  0  0  0  0  0
  187.2770  175.6000  137.5920 F   0  0  0  0  0  0  0  0  0  0  0  0
  187.3000  175.3490  135.3580 F   0  0  0  0  0  0  0  0  0  0  0  0
  187.7760  177.3500  136.2660 F   0  0  0  0  0  0  0  0  0  0  0  0
  1  9  1  6  0  0  0
  2  3  1  6  0  0  0
  2  5  1  0  0  0  0
  3  7  1  0  0  0  0
  5 14  1  1  0  0  0
  6  1  1  0  0  0  0
  7  4  2  0  0  0  0
  8 21  1  6  0  0  0
  8 13  1  0  0  0  0
  8 12  1  0  0  0  0
 10 19  1  0  0  0  0
 11  4  1  0  0  0  0
 12 16  1  0  0  0  0
 13 18  1  6  0  0  0
 13  2  1  0  0  0  0
 14  1  1  0  0  0  0
 15 20  1  0  0  0  0
 16  5  1  0  0  0  0
 16 17  1  1  0  0  0
 17  6  2  0  0  0  0
 18 10  1  0  0  0  0
 19 20  1  0  0  0  0
 19  3  2  0  0  0  0
 20 11  2  0  0  0  0
 23 25  1  0  0  0  0
 23 22  1  0  0  0  0
 23 21  1  0  0  0  0
 25 24  1  6  0  0  0
 26 27  2  0  0  0  0
 27 28  1  0  0  0  0
 27 25  1  0  0  0  0
 28 29  1  0  0  0  0
 30 28  1  0  0  0  0
 31 28  1  0  0  0  0
M  END
>  <MODEL>
6

>  <REMARK>
 VINA RESULT:      -7.7      4.718      8.343
  Name = 
  5 active torsions:
  status: ('A' for Active; 'I' for Inactive)
    1  A    between atoms: C_1  and  C_19
    2  A    between atoms: N_9  and  C_22
    3  A    between atoms: N_9  and  C_23
    4  A    between atoms: C_15  and  C_23
    5  A    between atoms: C_19  and  C_22
                            x       y       z     vdW  Elec       q    Type
                         _______ _______ _______ _____ _____    ______ ____

>  <TORSDO>
F 5

$$$$
=
 OpenBabel11052413153D

 31 34  0  0  1  0  0  0  0  0999 V2000
  190.5140  177.3120  136.9540 C   0  0  1  0  0  3  0  0  0  0  0  0
  187.5540  178.3130  139.2300 C   0  0  2  0  0  3  0  0  0  0  0  0
  186.2350  177.8350  138.6620 C   0  0  0  0  0  0  0  0  0  0  0  0
  184.9350  176.5400  137.0700 C   0  0  0  0  0  3  0  0  0  0  0  0
  188.7740  177.5290  138.7390 C   0  0  1  0  0  3  0  0  0  0  0  0
  191.4040  176.7340  138.0320 C   0  0  0  0  0  3  0  0  0  0  0  0
  186.1710  176.9200  137.6010 C   0  0  0  0  0  3  0  0  0  0  0  0
  188.2030  177.4750  141.6290 C   0  0  2  0  0  3  0  0  0  0  0  0
  189.9580  176.2800  136.2220 F   0  0  0  0  0  0  0  0  0  0  0  0
  185.1400  179.3780  140.2930 C   0  0  0  0  0  2  0  0  0  0  0  0
  183.7560  177.0800  137.5880 C   0  0  0  0  0  3  0  0  0  0  0  0
  189.2660  176.7030  140.9610 N   0  0  0  0  0  2  0  0  0  0  0  0
  187.5190  178.5620  140.7680 C   0  0  2  0  0  3  0  0  0  0  0  0
  189.3950  178.1950  137.5170 C   0  0  0  0  0  2  0  0  0  0  0  0
  182.2960  178.6610  139.2510 Cl  0  0  0  0  0  0  0  0  0  0  0  0
  189.8300  177.4300  139.8320 C   0  0  1  0  0  3  0  0  0  0  0  0
  191.0720  176.7430  139.3340 C   0  0  0  0  0  3  0  0  0  0  0  0
  186.1210  178.8640  141.3410 C   0  0  0  0  0  2  0  0  0  0  0  0
  185.0450  178.3830  139.1760 C   0  0  0  0  0  0  0  0  0  0  0  0
  183.8040  178.0040  138.6360 C   0  0  0  0  0  0  0  0  0  0  0  0
  188.7350  178.0910  142.9170 C   0  0  0  0  0  2  0  0  0  0  0  0
  187.1900  176.7530  144.0280 C   0  0  0  0  0  1  0  0  0  0  0  0
  188.5910  177.1560  144.0280 N   0  0  0  0  0  0  0  0  0  0  0  0
  187.6920  178.0030  146.0380 O   0  0  0  0  0  1  0  0  0  0  0  0
  188.8580  177.8830  145.2760 C   0  0  1  0  0  3  0  0  0  0  0  0
  189.5770  176.7530  147.3140 C   0  0  0  0  0  2  0  0  0  0  0  0
  189.9140  177.1950  146.1020 C   0  0  0  0  0  0  0  0  0  0  0  0
  191.3050  176.9370  145.5790 C   0  0  0  0  0  0  0  0  0  0  0  0
  191.2570  175.9760  144.5870 F   0  0  0  0  0  0  0  0  0  0  0  0
  191.8600  178.0920  145.0520 F   0  0  0  0  0  0  0  0  0  0  0  0
  192.1130  176.4870  146.6070 F   0  0  0  0  0  0  0  0  0  0  0  0
  1  9  1  1  0  0  0
  1 14  1  0  0  0  0
  1  6  1  0  0  0  0
  2  3  1  1  0  0  0
  2 13  1  0  0  0  0
  3 19  1  0  0  0  0
  4 11  2  0  0  0  0
  4  7  1  0  0  0  0
  5 14  1  6  0  0  0
  5  2  1  0  0  0  0
  5 16  1  0  0  0  0
  6 17  2  0  0  0  0
  7  3  2  0  0  0  0
  8 21  1  1  0  0  0
 10 18  1  0  0  0  0
 11 20  1  0  0  0  0
 12  8  1  0  0  0  0
 13 18  1  1  0  0  0
 13  8  1  0  0  0  0
 16 17  1  6  0  0  0
 16 12  1  0  0  0  0
 19 10  1  0  0  0  0
 20 19  2  0  0  0  0
 20 15  1  0  0  0  0
 21 23  1  0  0  0  0
 22 23  1  0  0  0  0
 23 25  1  0  0  0  0
 25 24  1  1  0  0  0
 25 27  1  0  0  0  0
 27 26  2  0  0  0  0
 28 27  1  0  0  0  0
 28 31  1  0  0  0  0
 29 28  1  0  0  0  0
 30 28  1  0  0  0  0
M  END
>  <MODEL>
7

>  <REMARK>
 VINA RESULT:      -7.7      2.536      3.690
  Name = 
  5 active torsions:
  status: ('A' for Active; 'I' for Inactive)
    1  A    between atoms: C_1  and  C_19
    2  A    between atoms: N_9  and  C_22
    3  A    between atoms: N_9  and  C_23
    4  A    between atoms: C_15  and  C_23
    5  A    between atoms: C_19  and  C_22
                            x       y       z     vdW  Elec       q    Type
                         _______ _______ _______ _____ _____    ______ ____

>  <TORSDO>
F 5

$$$$
=
 OpenBabel11052413153D

 31 34  0  0  1  0  0  0  0  0999 V2000
  183.7470  179.3570  144.8170 C   0  0  1  0  0  3  0  0  0  0  0  0
  186.0810  178.7360  141.7980 C   0  0  2  0  0  3  0  0  0  0  0  0
  187.2540  177.8590  142.1780 C   0  0  0  0  0  0  0  0  0  0  0  0
  188.4200  176.4030  143.7340 C   0  0  0  0  0  3  0  0  0  0  0  0
  184.8600  178.5890  142.7110 C   0  0  1  0  0  3  0  0  0  0  0  0
  182.4410  179.0310  144.1270 C   0  0  0  0  0  3  0  0  0  0  0  0
  187.2980  177.1640  143.3960 C   0  0  0  0  0  3  0  0  0  0  0  0
  184.5180  177.8830  139.8720 C   0  0  2  0  0  3  0  0  0  0  0  0
  184.0940  178.3100  145.6500 F   0  0  0  0  0  0  0  0  0  0  0  0
  188.2980  178.5720  140.0240 C   0  0  0  0  0  2  0  0  0  0  0  0
  189.5110  176.3420  142.8640 C   0  0  0  0  0  3  0  0  0  0  0  0
  183.4940  177.7100  140.9170 N   0  0  0  0  0  2  0  0  0  0  0  0
  185.7550  178.7190  140.2730 C   0  0  2  0  0  3  0  0  0  0  0  0
  184.8910  179.6230  143.8320 C   0  0  0  0  0  2  0  0  0  0  0  0
  190.8860  176.9370  140.5940 Cl  0  0  0  0  0  0  0  0  0  0  0  0
  183.5690  178.7610  141.9220 C   0  0  1  0  0  3  0  0  0  0  0  0
  182.3650  178.7130  142.8230 C   0  0  0  0  0  3  0  0  0  0  0  0
  186.9420  178.3450  139.3640 C   0  0  0  0  0  2  0  0  0  0  0  0
  188.3580  177.8010  141.3080 C   0  0  0  0  0  0  0  0  0  0  0  0
  189.4890  177.0400  141.6530 C   0  0  0  0  0  0  0  0  0  0  0  0
  183.8870  178.4620  138.6110 C   0  0  0  0  0  2  0  0  0  0  0  0
  184.0620  177.2550  136.6300 C   0  0  0  0  0  1  0  0  0  0  0  0
  183.2470  177.4080  137.8300 N   0  0  0  0  0  0  0  0  0  0  0  0
  181.8740  178.1100  136.0440 O   0  0  0  0  0  1  0  0  0  0  0  0
  181.9180  177.8830  137.4240 C   0  0  1  0  0  3  0  0  0  0  0  0
  180.2790  176.1830  136.8140 C   0  0  0  0  0  2  0  0  0  0  0  0
  180.8420  176.8940  137.7910 C   0  0  0  0  0  0  0  0  0  0  0  0
  180.4340  176.6430  139.2210 C   0  0  0  0  0  0  0  0  0  0  0  0
  181.2890  175.7190  139.7920 F   0  0  0  0  0  0  0  0  0  0  0  0
  180.4810  177.8100  139.9650 F   0  0  0  0  0  0  0  0  0  0  0  0
  179.1430  176.1470  139.2570 F   0  0  0  0  0  0  0  0  0  0  0  0
  1  9  1  1  0  0  0
  2  3  1  6  0  0  0
  2  5  1  0  0  0  0
  3  7  1  0  0  0  0
  5 14  1  1  0  0  0
  6  1  1  0  0  0  0
  7  4  2  0  0  0  0
  8 21  1  6  0  0  0
  8 13  1  0  0  0  0
  8 12  1  0  0  0  0
 10 19  1  0  0  0  0
 11  4  1  0  0  0  0
 12 16  1  0  0  0  0
 13 18  1  6  0  0  0
 13  2  1  0  0  0  0
 14  1  1  0  0  0  0
 15 20  1  0  0  0  0
 16  5  1  0  0  0  0
 16 17  1  1  0  0  0
 17  6  2  0  0  0  0
 18 10  1  0  0  0  0
 19 20  1  0  0  0  0
 19  3  2  0  0  0  0
 20 11  2  0  0  0  0
 22 23  1  0  0  0  0
 23 21  1  0  0  0  0
 25 24  1  6  0  0  0
 25 27  1  0  0  0  0
 25 23  1  0  0  0  0
 26 27  2  0  0  0  0
 27 28  1  0  0  0  0
 28 31  1  0  0  0  0
 28 29  1  0  0  0  0
 28 30  1  0  0  0  0
M  END
>  <MODEL>
8

>  <REMARK>
 VINA RESULT:      -7.6      4.995      9.101
  Name = 
  5 active torsions:
  status: ('A' for Active; 'I' for Inactive)
    1  A    between atoms: C_1  and  C_19
    2  A    between atoms: N_9  and  C_22
    3  A    between atoms: N_9  and  C_23
    4  A    between atoms: C_15  and  C_23
    5  A    between atoms: C_19  and  C_22
                            x       y       z     vdW  Elec       q    Type
                         _______ _______ _______ _____ _____    ______ ____

>  <TORSDO>
F 5

$$$$
=
 OpenBabel11052413153D

 31 34  0  0  1  0  0  0  0  0999 V2000
  190.0220  176.5600  145.3340 C   0  0  1  0  0  3  0  0  0  0  0  0
  187.1650  177.5610  142.9290 C   0  0  2  0  0  3  0  0  0  0  0  0
  185.9970  178.1640  143.6800 C   0  0  0  0  0  0  0  0  0  0  0  0
  184.9820  179.0510  145.7010 C   0  0  0  0  0  3  0  0  0  0  0  0
  188.5040  177.6470  143.6680 C   0  0  1  0  0  3  0  0  0  0  0  0
  191.1570  177.2060  144.5700 C   0  0  0  0  0  3  0  0  0  0  0  0
  186.0960  178.5430  145.0270 C   0  0  0  0  0  3  0  0  0  0  0  0
  188.2950  179.0370  141.0780 C   0  0  2  0  0  3  0  0  0  0  0  0
  189.7260  177.3290  146.4430 F   0  0  0  0  0  0  0  0  0  0  0  0
  184.6740  177.8450  141.5860 C   0  0  0  0  0  2  0  0  0  0  0  0
  183.7590  179.1710  145.0370 C   0  0  0  0  0  3  0  0  0  0  0  0
  189.4610  179.0920  141.9780 N   0  0  0  0  0  2  0  0  0  0  0  0
  187.2250  177.9760  141.4280 C   0  0  2  0  0  3  0  0  0  0  0  0
  188.7570  176.3860  144.4860 C   0  0  0  0  0  2  0  0  0  0  0  0
  182.0810  178.9490  142.9090 Cl  0  0  0  0  0  0  0  0  0  0  0  0
  189.6530  177.8340  142.6870 C   0  0  1  0  0  3  0  0  0  0  0  0
  190.9820  177.8270  143.3920 C   0  0  0  0  0  3  0  0  0  0  0  0
  185.8720  178.3940  140.8190 C   0  0  0  0  0  2  0  0  0  0  0  0
  184.7610  178.2800  143.0170 C   0  0  0  0  0  0  0  0  0  0  0  0
  183.6410  178.7850  143.6990 C   0  0  0  0  0  0  0  0  0  0  0  0
  188.7540  178.8560  139.6370 C   0  0  0  0  0  2  0  0  0  0  0  0
  189.7800  176.7790  139.4240 C   0  0  0  0  0  1  0  0  0  0  0  0
  188.5240  177.4850  139.1950 N   0  0  0  0  0  0  0  0  0  0  0  0
  189.3290  176.9230  137.0490 O   0  0  0  0  0  1  0  0  0  0  0  0
  188.2680  177.5070  137.7490 C   0  0  1  0  0  3  0  0  0  0  0  0
  187.0430  175.4550  137.2650 C   0  0  0  0  0  2  0  0  0  0  0  0
  186.9950  176.7800  137.4010 C   0  0  0  0  0  0  0  0  0  0  0  0
  185.6710  177.4920  137.2700 C   0  0  0  0  0  0  0  0  0  0  0  0
  185.8010  178.7970  137.7050 F   0  0  0  0  0  0  0  0  0  0  0  0
  185.2410  177.5030  135.9540 F   0  0  0  0  0  0  0  0  0  0  0  0
  184.7190  176.8510  138.0420 F   0  0  0  0  0  0  0  0  0  0  0  0
  1  9  1  1  0  0  0
  2  5  1  0  0  0  0
  2  3  1  1  0  0  0
  3  7  1  0  0  0  0
  5 14  1  6  0  0  0
  6  1  1  0  0  0  0
  7  4  2  0  0  0  0
  8 21  1  6  0  0  0
  8 13  1  0  0  0  0
  8 12  1  0  0  0  0
 10 19  1  0  0  0  0
 11  4  1  0  0  0  0
 12 16  1  0  0  0  0
 13 18  1  1  0  0  0
 13  2  1  0  0  0  0
 14  1  1  0  0  0  0
 15 20  1  0  0  0  0
 16 17  1  1  0  0  0
 16  5  1  0  0  0  0
 17  6  2  0  0  0  0
 18 10  1  0  0  0  0
 19  3  2  0  0  0  0
 19 20  1  0  0  0  0
 20 11  2  0  0  0  0
 23 22  1  0  0  0  0
 23 21  1  0  0  0  0
 25 24  1  6  0  0  0
 25 23  1  0  0  0  0
 26 27  2  0  0  0  0
 27 25  1  0  0  0  0
 28 27  1  0  0  0  0
 28 29  1  0  0  0  0
 28 31  1  0  0  0  0
 30 28  1  0  0  0  0
M  END
>  <MODEL>
9

>  <REMARK>
 VINA RESULT:      -7.5      3.091      6.880
  Name = 
  5 active torsions:
  status: ('A' for Active; 'I' for Inactive)
    1  A    between atoms: C_1  and  C_19
    2  A    between atoms: N_9  and  C_22
    3  A    between atoms: N_9  and  C_23
    4  A    between atoms: C_15  and  C_23
    5  A    between atoms: C_19  and  C_22
                            x       y       z     vdW  Elec       q    Type
                         _______ _______ _______ _____ _____    ______ ____

>  <TORSDO>
F 5

$$$$
