=
 OpenBabel11052413343D

 28 31  0  0  1  0  0  0  0  0999 V2000
  190.7770  176.8340  144.7120 C   0  0  2  0  0  3  0  0  0  0  0  0
  186.0480  177.9290  143.0030 C   0  0  0  0  0  3  0  0  0  0  0  0
  188.4230  178.3440  148.7680 C   0  0  0  0  0  1  0  0  0  0  0  0
  184.8020  178.4940  144.9860 C   0  0  0  0  0  0  0  0  0  0  0  0
  187.1540  177.8850  145.1500 C   0  0  0  0  0  0  0  0  0  0  0  0
  183.7320  178.6750  142.7770 C   0  0  0  0  0  0  0  0  0  0  0  0
  186.0160  178.1510  144.3950 C   0  0  0  0  0  0  0  0  0  0  0  0
  185.8260  178.1770  147.1780 C   0  0  0  0  0  3  0  0  0  0  0  0
  183.6860  178.8530  144.1950 C   0  0  0  0  0  3  0  0  0  0  0  0
  189.4280  177.3340  146.7450 C   0  0  0  0  0  0  0  0  0  0  0  0
  188.3440  177.5300  144.6360 C   0  0  0  0  0  3  0  0  0  0  0  0
  184.7260  178.5690  146.4070 C   0  0  0  0  0  3  0  0  0  0  0  0
  191.5510  175.9330  146.9760 C   0  0  0  0  0  2  0  0  0  0  0  0
  188.2460  177.7580  147.3400 C   0  0  0  0  0  0  0  0  0  0  0  0
  190.7410  177.0680  147.4850 C   0  0  0  0  0  2  0  0  0  0  0  0
  182.6410  178.8670  141.9530 O   0  0  0  0  0  1  0  0  0  0  0  0
  184.9380  178.1590  142.2170 C   0  0  0  0  0  3  0  0  0  0  0  0
  187.0390  177.9690  146.5860 C   0  0  0  0  0  0  0  0  0  0  0  0
  191.8490  176.1380  145.5670 C   0  0  0  0  0  2  0  0  0  0  0  0
  189.4620  177.1880  145.3640 C   0  0  0  0  0  0  0  0  0  0  0  0
  190.8020  176.2010  143.3150 C   0  0  0  0  0  2  0  0  0  0  0  0
  190.9620  177.2420  142.1760 C   0  0  0  0  0  2  0  0  0  0  0  0
  189.7600  176.8400  141.3550 C   0  0  0  0  0  2  0  0  0  0  0  0
  187.2040  178.2270  139.2650 C   0  0  0  0  0  1  0  0  0  0  0  0
  189.7140  177.4760  139.9280 N   0  0  0  0  0  0  0  0  0  0  0  0
  189.1580  179.1960  138.3390 O   0  0  0  0  0  0  0  0  0  0  0  0
  188.7550  178.3440  139.1860 C   0  0  0  0  0  0  0  0  0  0  0  0
  190.9680  177.4020  139.4070 C   0  0  0  0  0  1  0  0  0  0  0  0
  1 21  1  6  0  0  0
  1 20  1  0  0  0  0
  1 19  1  0  0  0  0
  2  7  1  0  0  0  0
  4 12  1  0  0  0  0
  5 18  1  0  0  0  0
  6  9  2  0  0  0  0
  7  4  2  0  0  0  0
  7  5  1  0  0  0  0
  9  4  1  0  0  0  0
 10 14  1  0  0  0  0
 10 15  1  0  0  0  0
 11  5  2  0  0  0  0
 11 20  1  0  0  0  0
 12  8  2  0  0  0  0
 13 15  1  0  0  0  0
 14  3  1  0  0  0  0
 16  6  1  0  0  0  0
 17  6  1  0  0  0  0
 17  2  2  0  0  0  0
 18  8  1  0  0  0  0
 18 14  2  0  0  0  0
 19 13  1  0  0  0  0
 20 10  2  0  0  0  0
 22 21  1  0  0  0  0
 23 22  1  0  0  0  0
 25 23  1  0  0  0  0
 26 27  2  0  0  0  0
 27 24  1  0  0  0  0
 27 25  1  0  0  0  0
 28 25  1  0  0  0  0
M  END
>  <MODEL>
1

>  <REMARK>
 VINA RESULT:     -11.8      0.000      0.000
  Name = 
  4 active torsions:
  status: ('A' for Active; 'I' for Inactive)
    1  A    between atoms: C_1  and  C_2
    2  A    between atoms: C_2  and  C_7
    3  A    between atoms: N_6  and  C_28
    4  A    between atoms: C_7  and  C_28
                            x       y       z     vdW  Elec       q    Type
                         _______ _______ _______ _____ _____    ______ ____

>  <TORSDO>
F 4

$$$$
=
 OpenBabel11052413343D

 28 31  0  0  1  0  0  0  0  0999 V2000
  190.8500  176.7600  144.6650 C   0  0  2  0  0  3  0  0  0  0  0  0
  186.1340  177.9300  142.9700 C   0  0  0  0  0  3  0  0  0  0  0  0
  188.5080  178.2280  148.7430 C   0  0  0  0  0  1  0  0  0  0  0  0
  184.8930  178.4750  144.9610 C   0  0  0  0  0  0  0  0  0  0  0  0
  187.2380  177.8400  145.1170 C   0  0  0  0  0  0  0  0  0  0  0  0
  183.8260  178.7020  142.7550 C   0  0  0  0  0  0  0  0  0  0  0  0
  186.1040  178.1290  144.3650 C   0  0  0  0  0  0  0  0  0  0  0  0
  185.9110  178.1120  147.1480 C   0  0  0  0  0  3  0  0  0  0  0  0
  183.7800  178.8580  144.1750 C   0  0  0  0  0  3  0  0  0  0  0  0
  189.5050  177.2400  146.7040 C   0  0  0  0  0  0  0  0  0  0  0  0
  188.4240  177.4820  144.5980 C   0  0  0  0  0  3  0  0  0  0  0  0
  184.8160  178.5270  146.3830 C   0  0  0  0  0  3  0  0  0  0  0  0
  191.6130  175.8140  146.9140 C   0  0  0  0  0  2  0  0  0  0  0  0
  188.3270  177.6670  147.3050 C   0  0  0  0  0  0  0  0  0  0  0  0
  190.8150  176.9500  147.4410 C   0  0  0  0  0  2  0  0  0  0  0  0
  182.7380  178.9190  141.9330 O   0  0  0  0  0  1  0  0  0  0  0  0
  185.0270  178.1830  142.1870 C   0  0  0  0  0  3  0  0  0  0  0  0
  187.1230  177.9020  146.5540 C   0  0  0  0  0  0  0  0  0  0  0  0
  191.9150  176.0400  145.5090 C   0  0  0  0  0  2  0  0  0  0  0  0
  189.5390  177.1160  145.3210 C   0  0  0  0  0  0  0  0  0  0  0  0
  190.8710  176.1490  143.2580 C   0  0  0  0  0  2  0  0  0  0  0  0
  191.1140  177.1980  142.1410 C   0  0  0  0  0  2  0  0  0  0  0  0
  189.8190  177.0070  141.3890 C   0  0  0  0  0  2  0  0  0  0  0  0
  192.0490  176.5430  138.6250 C   0  0  0  0  0  1  0  0  0  0  0  0
  189.8610  177.4870  139.9010 N   0  0  0  0  0  0  0  0  0  0  0  0
  190.0430  177.1600  137.5240 O   0  0  0  0  0  0  0  0  0  0  0  0
  190.5760  177.0490  138.6680 C   0  0  0  0  0  0  0  0  0  0  0  0
  188.7950  178.3070  139.7060 C   0  0  0  0  0  1  0  0  0  0  0  0
  1 21  1  6  0  0  0
  1 20  1  0  0  0  0
  1 19  1  0  0  0  0
  2  7  1  0  0  0  0
  4 12  1  0  0  0  0
  5 18  1  0  0  0  0
  6  9  2  0  0  0  0
  7  4  2  0  0  0  0
  7  5  1  0  0  0  0
  9  4  1  0  0  0  0
 10 14  1  0  0  0  0
 10 15  1  0  0  0  0
 11  5  2  0  0  0  0
 11 20  1  0  0  0  0
 12  8  2  0  0  0  0
 13 15  1  0  0  0  0
 14  3  1  0  0  0  0
 16  6  1  0  0  0  0
 17  6  1  0  0  0  0
 17  2  2  0  0  0  0
 18  8  1  0  0  0  0
 18 14  2  0  0  0  0
 19 13  1  0  0  0  0
 20 10  2  0  0  0  0
 22 21  1  0  0  0  0
 23 22  1  0  0  0  0
 24 27  1  0  0  0  0
 25 23  1  0  0  0  0
 26 27  2  0  0  0  0
 27 25  1  0  0  0  0
 28 25  1  0  0  0  0
M  END
>  <MODEL>
2

>  <REMARK>
 VINA RESULT:     -11.6      0.591      1.247
  Name = 
  4 active torsions:
  status: ('A' for Active; 'I' for Inactive)
    1  A    between atoms: C_1  and  C_2
    2  A    between atoms: C_2  and  C_7
    3  A    between atoms: N_6  and  C_28
    4  A    between atoms: C_7  and  C_28
                            x       y       z     vdW  Elec       q    Type
                         _______ _______ _______ _____ _____    ______ ____

>  <TORSDO>
F 4

$$$$
=
 OpenBabel11052413343D

 28 31  0  0  1  0  0  0  0  0999 V2000
  190.2360  176.9670  142.9370 C   0  0  2  0  0  3  0  0  0  0  0  0
  185.2580  178.2650  143.0690 C   0  0  0  0  0  3  0  0  0  0  0  0
  189.4250  177.8860  147.7090 C   0  0  0  0  0  1  0  0  0  0  0  0
  184.7650  178.5420  145.4100 C   0  0  0  0  0  0  0  0  0  0  0  0
  187.0100  177.9280  144.6960 C   0  0  0  0  0  0  0  0  0  0  0  0
  183.0310  179.0220  143.7310 C   0  0  0  0  0  0  0  0  0  0  0  0
  185.6990  178.2900  144.4070 C   0  0  0  0  0  0  0  0  0  0  0  0
  186.4430  177.9280  147.0710 C   0  0  0  0  0  3  0  0  0  0  0  0
  183.4650  179.0020  145.0930 C   0  0  0  0  0  3  0  0  0  0  0  0
  189.6590  177.1720  145.3510 C   0  0  0  0  0  0  0  0  0  0  0  0
  187.9460  177.6540  143.7710 C   0  0  0  0  0  3  0  0  0  0  0  0
  185.1680  178.4180  146.7710 C   0  0  0  0  0  3  0  0  0  0  0  0
  191.6780  175.7630  144.6710 C   0  0  0  0  0  2  0  0  0  0  0  0
  188.7610  177.5030  146.3570 C   0  0  0  0  0  0  0  0  0  0  0  0
  191.1320  176.8130  145.5670 C   0  0  0  0  0  2  0  0  0  0  0  0
  181.7380  179.3230  143.3520 O   0  0  0  0  0  1  0  0  0  0  0  0
  183.9610  178.5960  142.7360 C   0  0  0  0  0  3  0  0  0  0  0  0
  187.3820  177.8110  146.0860 C   0  0  0  0  0  0  0  0  0  0  0  0
  191.5010  176.1640  143.2840 C   0  0  0  0  0  2  0  0  0  0  0  0
  189.2280  177.2190  144.0320 C   0  0  0  0  0  0  0  0  0  0  0  0
  189.7700  176.5340  141.5410 C   0  0  0  0  0  2  0  0  0  0  0  0
  190.4760  177.3070  140.3960 C   0  0  0  0  0  2  0  0  0  0  0  0
  189.6860  176.7370  139.2410 C   0  0  0  0  0  2  0  0  0  0  0  0
  186.8300  176.4430  137.1010 C   0  0  0  0  0  1  0  0  0  0  0  0
  188.6680  177.7370  138.6030 N   0  0  0  0  0  0  0  0  0  0  0  0
  186.4610  178.5580  138.1050 O   0  0  0  0  0  0  0  0  0  0  0  0
  187.3090  177.6220  138.0000 C   0  0  0  0  0  0  0  0  0  0  0  0
  189.0560  178.9920  138.9490 C   0  0  0  0  0  1  0  0  0  0  0  0
  1 21  1  6  0  0  0
  1 19  1  0  0  0  0
  1 20  1  0  0  0  0
  2  7  1  0  0  0  0
  4 12  1  0  0  0  0
  5 18  1  0  0  0  0
  6  9  2  0  0  0  0
  7  5  1  0  0  0  0
  7  4  2  0  0  0  0
  9  4  1  0  0  0  0
 10 15  1  0  0  0  0
 10 14  1  0  0  0  0
 11 20  1  0  0  0  0
 11  5  2  0  0  0  0
 12  8  2  0  0  0  0
 13 15  1  0  0  0  0
 14  3  1  0  0  0  0
 16  6  1  0  0  0  0
 17  2  2  0  0  0  0
 17  6  1  0  0  0  0
 18 14  2  0  0  0  0
 18  8  1  0  0  0  0
 19 13  1  0  0  0  0
 20 10  2  0  0  0  0
 22 21  1  0  0  0  0
 23 22  1  0  0  0  0
 24 27  1  0  0  0  0
 25 28  1  0  0  0  0
 25 23  1  0  0  0  0
 27 26  2  0  0  0  0
 27 25  1  0  0  0  0
M  END
>  <MODEL>
3

>  <REMARK>
 VINA RESULT:     -10.8      1.183      1.658
  Name = 
  4 active torsions:
  status: ('A' for Active; 'I' for Inactive)
    1  A    between atoms: C_1  and  C_2
    2  A    between atoms: C_2  and  C_7
    3  A    between atoms: N_6  and  C_28
    4  A    between atoms: C_7  and  C_28
                            x       y       z     vdW  Elec       q    Type
                         _______ _______ _______ _____ _____    ______ ____

>  <TORSDO>
F 4

$$$$
=
 OpenBabel11052413343D

 28 31  0  0  1  0  0  0  0  0999 V2000
  186.6790  178.0600  146.1010 C   0  0  2  0  0  3  0  0  0  0  0  0
  188.4240  178.0440  141.2600 C   0  0  0  0  0  3  0  0  0  0  0  0
  191.2810  176.3620  146.5560 C   0  0  0  0  0  1  0  0  0  0  0  0
  190.7370  177.3990  141.4510 C   0  0  0  0  0  0  0  0  0  0  0  0
  189.3470  177.5740  143.4420 C   0  0  0  0  0  0  0  0  0  0  0  0
  189.7430  177.7390  139.2260 C   0  0  0  0  0  0  0  0  0  0  0  0
  189.5040  177.6210  142.0610 C   0  0  0  0  0  0  0  0  0  0  0  0
  191.7500  177.2020  143.6620 C   0  0  0  0  0  3  0  0  0  0  0  0
  190.8520  177.3560  140.0410 C   0  0  0  0  0  3  0  0  0  0  0  0
  189.0970  177.4880  146.2610 C   0  0  0  0  0  0  0  0  0  0  0  0
  188.1880  177.8000  144.0840 C   0  0  0  0  0  3  0  0  0  0  0  0
  191.8690  177.1210  142.2700 C   0  0  0  0  0  3  0  0  0  0  0  0
  187.9130  178.4620  148.3030 C   0  0  0  0  0  2  0  0  0  0  0  0
  190.3120  177.1810  145.6600 C   0  0  0  0  0  0  0  0  0  0  0  0
  188.8140  177.4140  147.7640 C   0  0  0  0  0  2  0  0  0  0  0  0
  189.8180  177.8600  137.8520 O   0  0  0  0  0  1  0  0  0  0  0  0
  188.5400  178.1260  139.8880 C   0  0  0  0  0  3  0  0  0  0  0  0
  190.5150  177.2920  144.2400 C   0  0  0  0  0  0  0  0  0  0  0  0
  186.6440  178.4280  147.5930 C   0  0  0  0  0  2  0  0  0  0  0  0
  188.0230  177.8350  145.4520 C   0  0  0  0  0  0  0  0  0  0  0  0
  185.6030  178.8850  145.3850 C   0  0  0  0  0  2  0  0  0  0  0  0
  184.2100  178.2030  145.3840 C   0  0  0  0  0  2  0  0  0  0  0  0
  183.4270  179.3250  144.7470 C   0  0  0  0  0  2  0  0  0  0  0  0
  185.1300  179.0840  141.6060 C   0  0  0  0  0  1  0  0  0  0  0  0
  182.9990  179.0530  143.2680 N   0  0  0  0  0  0  0  0  0  0  0  0
  183.1220  177.9110  141.1530 O   0  0  0  0  0  0  0  0  0  0  0  0
  183.7020  178.6240  142.0250 C   0  0  0  0  0  0  0  0  0  0  0  0
  181.6440  178.9420  143.2480 C   0  0  0  0  0  1  0  0  0  0  0  0
  1 21  1  6  0  0  0
  1 19  1  0  0  0  0
  2  7  1  0  0  0  0
  4  7  2  0  0  0  0
  4 12  1  0  0  0  0
  5 11  2  0  0  0  0
  5 18  1  0  0  0  0
  6 17  1  0  0  0  0
  6  9  2  0  0  0  0
  7  5  1  0  0  0  0
  8 18  1  0  0  0  0
  9  4  1  0  0  0  0
 10 15  1  0  0  0  0
 11 20  1  0  0  0  0
 12  8  2  0  0  0  0
 14 10  1  0  0  0  0
 14  3  1  0  0  0  0
 15 13  1  0  0  0  0
 16  6  1  0  0  0  0
 17  2  2  0  0  0  0
 18 14  2  0  0  0  0
 19 13  1  0  0  0  0
 20  1  1  0  0  0  0
 20 10  2  0  0  0  0
 22 21  1  0  0  0  0
 23 22  1  0  0  0  0
 24 27  1  0  0  0  0
 25 23  1  0  0  0  0
 26 27  2  0  0  0  0
 27 25  1  0  0  0  0
 28 25  1  0  0  0  0
M  END
>  <MODEL>
4

>  <REMARK>
 VINA RESULT:     -10.8      1.793      5.806
  Name = 
  4 active torsions:
  status: ('A' for Active; 'I' for Inactive)
    1  A    between atoms: C_1  and  C_2
    2  A    between atoms: C_2  and  C_7
    3  A    between atoms: N_6  and  C_28
    4  A    between atoms: C_7  and  C_28
                            x       y       z     vdW  Elec       q    Type
                         _______ _______ _______ _____ _____    ______ ____

>  <TORSDO>
F 4

$$$$
=
 OpenBabel11052413343D

 28 31  0  0  1  0  0  0  0  0999 V2000
  189.8250  177.2100  142.3490 C   0  0  2  0  0  3  0  0  0  0  0  0
  184.8290  178.3600  142.7920 C   0  0  0  0  0  3  0  0  0  0  0  0
  189.2520  177.9470  147.1860 C   0  0  0  0  0  1  0  0  0  0  0  0
  184.4570  178.5450  145.1640 C   0  0  0  0  0  0  0  0  0  0  0  0
  186.6760  178.0200  144.3100 C   0  0  0  0  0  0  0  0  0  0  0  0
  182.6220  179.0310  143.5980 C   0  0  0  0  0  0  0  0  0  0  0  0
  185.3410  178.3540  144.1050 C   0  0  0  0  0  0  0  0  0  0  0  0
  186.2390  177.9240  146.7110 C   0  0  0  0  0  3  0  0  0  0  0  0
  183.1300  178.9770  144.9330 C   0  0  0  0  0  3  0  0  0  0  0  0
  189.3760  177.3190  144.7950 C   0  0  0  0  0  0  0  0  0  0  0  0
  187.5670  177.8040  143.3270 C   0  0  0  0  0  3  0  0  0  0  0  0
  184.9360  178.3870  146.4970 C   0  0  0  0  0  3  0  0  0  0  0  0
  191.3920  175.9920  143.9600 C   0  0  0  0  0  2  0  0  0  0  0  0
  188.5250  177.5900  145.8600 C   0  0  0  0  0  0  0  0  0  0  0  0
  190.8670  176.9950  144.9200 C   0  0  0  0  0  2  0  0  0  0  0  0
  181.3020  179.3060  143.3000 O   0  0  0  0  0  1  0  0  0  0  0  0
  183.5070  178.6640  142.5410 C   0  0  0  0  0  3  0  0  0  0  0  0
  187.1260  177.8670  145.6730 C   0  0  0  0  0  0  0  0  0  0  0  0
  191.1280  176.4330  142.5990 C   0  0  0  0  0  2  0  0  0  0  0  0
  188.8720  177.3970  143.5040 C   0  0  0  0  0  0  0  0  0  0  0  0
  189.2960  176.8110  140.9650 C   0  0  0  0  0  2  0  0  0  0  0  0
  189.9590  177.6020  139.8070 C   0  0  0  0  0  2  0  0  0  0  0  0
  190.2620  176.4320  138.9020 C   0  0  0  0  0  2  0  0  0  0  0  0
  193.6180  177.2180  139.8750 C   0  0  0  0  0  1  0  0  0  0  0  0
  191.6400  176.5250  138.1690 N   0  0  0  0  0  0  0  0  0  0  0  0
  193.9720  176.0130  137.8660 O   0  0  0  0  0  0  0  0  0  0  0  0
  193.0680  176.5190  138.5960 C   0  0  0  0  0  0  0  0  0  0  0  0
  191.4170  176.2880  136.8490 C   0  0  0  0  0  1  0  0  0  0  0  0
  1 21  1  6  0  0  0
  1 19  1  0  0  0  0
  1 20  1  0  0  0  0
  2  7  1  0  0  0  0
  4 12  1  0  0  0  0
  5 18  1  0  0  0  0
  6  9  2  0  0  0  0
  7  5  1  0  0  0  0
  7  4  2  0  0  0  0
  9  4  1  0  0  0  0
 10 15  1  0  0  0  0
 10 14  1  0  0  0  0
 11 20  1  0  0  0  0
 11  5  2  0  0  0  0
 12  8  2  0  0  0  0
 13 15  1  0  0  0  0
 14  3  1  0  0  0  0
 16  6  1  0  0  0  0
 17  2  2  0  0  0  0
 17  6  1  0  0  0  0
 18 14  2  0  0  0  0
 18  8  1  0  0  0  0
 19 13  1  0  0  0  0
 20 10  2  0  0  0  0
 22 21  1  0  0  0  0
 23 22  1  0  0  0  0
 25 27  1  0  0  0  0
 25 23  1  0  0  0  0
 26 27  2  0  0  0  0
 27 24  1  0  0  0  0
 28 25  1  0  0  0  0
M  END
>  <MODEL>
5

>  <REMARK>
 VINA RESULT:     -10.4      1.724      2.651
  Name = 
  4 active torsions:
  status: ('A' for Active; 'I' for Inactive)
    1  A    between atoms: C_1  and  C_2
    2  A    between atoms: C_2  and  C_7
    3  A    between atoms: N_6  and  C_28
    4  A    between atoms: C_7  and  C_28
                            x       y       z     vdW  Elec       q    Type
                         _______ _______ _______ _____ _____    ______ ____

>  <TORSDO>
F 4

$$$$
=
 OpenBabel11052413343D

 28 31  0  0  1  0  0  0  0  0999 V2000
  186.7330  177.9800  141.8450 C   0  0  2  0  0  3  0  0  0  0  0  0
  190.5370  176.8210  145.1110 C   0  0  0  0  0  3  0  0  0  0  0  0
  184.5500  178.1950  146.2570 C   0  0  0  0  0  1  0  0  0  0  0  0
  189.5640  177.0970  147.2980 C   0  0  0  0  0  0  0  0  0  0  0  0
  188.2260  177.4970  145.3040 C   0  0  0  0  0  0  0  0  0  0  0  0
  191.8720  176.2690  147.0820 C   0  0  0  0  0  0  0  0  0  0  0  0
  189.4110  177.0970  145.9130 C   0  0  0  0  0  0  0  0  0  0  0  0
  187.3290  178.0520  147.5050 C   0  0  0  0  0  3  0  0  0  0  0  0
  190.7440  176.5960  147.8970 C   0  0  0  0  0  3  0  0  0  0  0  0
  185.7950  178.3440  144.1240 C   0  0  0  0  0  0  0  0  0  0  0  0
  188.0290  177.5370  143.9750 C   0  0  0  0  0  3  0  0  0  0  0  0
  188.4750  177.5250  148.1100 C   0  0  0  0  0  3  0  0  0  0  0  0
  184.7190  179.5290  142.1330 C   0  0  0  0  0  2  0  0  0  0  0  0
  185.9080  178.2670  145.5060 C   0  0  0  0  0  0  0  0  0  0  0  0
  184.5210  178.7210  143.3630 C   0  0  0  0  0  2  0  0  0  0  0  0
  193.1010  175.9090  147.5980 O   0  0  0  0  0  1  0  0  0  0  0  0
  191.7390  176.4420  145.6720 C   0  0  0  0  0  3  0  0  0  0  0  0
  187.1440  177.9250  146.1580 C   0  0  0  0  0  0  0  0  0  0  0  0
  185.6070  178.8220  141.2230 C   0  0  0  0  0  2  0  0  0  0  0  0
  186.8940  178.0010  143.3460 C   0  0  0  0  0  0  0  0  0  0  0  0
  187.9610  178.0860  140.9330 C   0  0  0  0  0  2  0  0  0  0  0  0
  187.6000  178.1320  139.4250 C   0  0  0  0  0  2  0  0  0  0  0  0
  188.8980  178.7110  138.9160 C   0  0  0  0  0  2  0  0  0  0  0  0
  191.7100  177.2510  140.5860 C   0  0  0  0  0  1  0  0  0  0  0  0
  189.9790  177.6430  138.5480 N   0  0  0  0  0  0  0  0  0  0  0  0
  191.2520  175.6330  138.9160 O   0  0  0  0  0  0  0  0  0  0  0  0
  190.9310  176.7920  139.3180 C   0  0  0  0  0  0  0  0  0  0  0  0
  189.7590  177.2670  137.2610 C   0  0  0  0  0  1  0  0  0  0  0  0
  1 21  1  6  0  0  0
  1 20  1  0  0  0  0
  2 17  2  0  0  0  0
  2  7  1  0  0  0  0
  4  9  1  0  0  0  0
  4 12  1  0  0  0  0
  5  7  1  0  0  0  0
  5 18  1  0  0  0  0
  6 16  1  0  0  0  0
  6  9  2  0  0  0  0
  7  4  2  0  0  0  0
  8 12  2  0  0  0  0
 10 14  1  0  0  0  0
 11  5  2  0  0  0  0
 13 15  1  0  0  0  0
 14 18  2  0  0  0  0
 14  3  1  0  0  0  0
 15 10  1  0  0  0  0
 17  6  1  0  0  0  0
 18  8  1  0  0  0  0
 19  1  1  0  0  0  0
 19 13  1  0  0  0  0
 20 11  1  0  0  0  0
 20 10  2  0  0  0  0
 22 21  1  0  0  0  0
 23 22  1  0  0  0  0
 25 23  1  0  0  0  0
 25 27  1  0  0  0  0
 26 27  2  0  0  0  0
 27 24  1  0  0  0  0
 28 25  1  0  0  0  0
M  END
>  <MODEL>
6

>  <REMARK>
 VINA RESULT:     -10.4      2.368      5.547
  Name = 
  4 active torsions:
  status: ('A' for Active; 'I' for Inactive)
    1  A    between atoms: C_1  and  C_2
    2  A    between atoms: C_2  and  C_7
    3  A    between atoms: N_6  and  C_28
    4  A    between atoms: C_7  and  C_28
                            x       y       z     vdW  Elec       q    Type
                         _______ _______ _______ _____ _____    ______ ____

>  <TORSDO>
F 4

$$$$
=
 OpenBabel11052413343D

 28 31  0  0  1  0  0  0  0  0999 V2000
  185.6450  178.2070  140.2360 C   0  0  2  0  0  3  0  0  0  0  0  0
  188.3270  177.6450  144.5910 C   0  0  0  0  0  3  0  0  0  0  0  0
  182.2210  178.6660  143.7480 C   0  0  0  0  0  1  0  0  0  0  0  0
  186.7270  178.0490  146.3450 C   0  0  0  0  0  0  0  0  0  0  0  0
  186.0400  178.1610  144.0130 C   0  0  0  0  0  0  0  0  0  0  0  0
  189.0250  177.3810  146.9180 C   0  0  0  0  0  0  0  0  0  0  0  0
  187.0000  177.9090  144.9870 C   0  0  0  0  0  0  0  0  0  0  0  0
  184.4940  178.8480  145.7730 C   0  0  0  0  0  3  0  0  0  0  0  0
  187.6900  177.6960  147.3200 C   0  0  0  0  0  3  0  0  0  0  0  0
  184.0460  178.7100  142.0780 C   0  0  0  0  0  0  0  0  0  0  0  0
  186.2530  178.0620  142.6890 C   0  0  0  0  0  3  0  0  0  0  0  0
  185.4250  178.4680  146.7450 C   0  0  0  0  0  3  0  0  0  0  0  0
  183.5720  179.6200  139.7390 C   0  0  0  0  0  2  0  0  0  0  0  0
  183.7380  178.7690  143.4310 C   0  0  0  0  0  0  0  0  0  0  0  0
  183.0470  178.9180  140.9370 C   0  0  0  0  0  2  0  0  0  0  0  0
  190.0550  177.1630  147.8120 O   0  0  0  0  0  1  0  0  0  0  0  0
  189.3180  177.4110  145.5220 C   0  0  0  0  0  3  0  0  0  0  0  0
  184.7320  178.5840  144.4540 C   0  0  0  0  0  0  0  0  0  0  0  0
  184.7240  178.9000  139.2170 C   0  0  0  0  0  2  0  0  0  0  0  0
  185.3420  178.3790  141.7050 C   0  0  0  0  0  0  0  0  0  0  0  0
  187.0860  178.3210  139.7240 C   0  0  0  0  0  2  0  0  0  0  0  0
  187.2080  178.1080  138.1920 C   0  0  0  0  0  2  0  0  0  0  0  0
  188.0550  176.8580  138.2210 C   0  0  0  0  0  2  0  0  0  0  0  0
  190.3840  177.0530  140.9350 C   0  0  0  0  0  1  0  0  0  0  0  0
  189.5900  177.1240  138.3520 N   0  0  0  0  0  0  0  0  0  0  0  0
  191.8200  176.6170  139.1020 O   0  0  0  0  0  0  0  0  0  0  0  0
  190.6190  176.8850  139.4040 C   0  0  0  0  0  0  0  0  0  0  0  0
  190.0680  177.3810  137.1060 C   0  0  0  0  0  1  0  0  0  0  0  0
  1 21  1  1  0  0  0
  1 20  1  0  0  0  0
  2  7  2  0  0  0  0
  2 17  1  0  0  0  0
  4 12  1  0  0  0  0
  4  9  2  0  0  0  0
  5 18  1  0  0  0  0
  5  7  1  0  0  0  0
  6  9  1  0  0  0  0
  6 16  1  0  0  0  0
  7  4  1  0  0  0  0
  8 12  2  0  0  0  0
 10 14  1  0  0  0  0
 11  5  2  0  0  0  0
 13 15  1  0  0  0  0
 14  3  1  0  0  0  0
 14 18  2  0  0  0  0
 15 10  1  0  0  0  0
 17  6  2  0  0  0  0
 18  8  1  0  0  0  0
 19 13  1  0  0  0  0
 19  1  1  0  0  0  0
 20 10  2  0  0  0  0
 20 11  1  0  0  0  0
 22 23  1  0  0  0  0
 22 21  1  0  0  0  0
 23 25  1  0  0  0  0
 25 27  1  0  0  0  0
 26 27  2  0  0  0  0
 27 24  1  0  0  0  0
 28 25  1  0  0  0  0
M  END
>  <MODEL>
7

>  <REMARK>
 VINA RESULT:      -9.7      2.329      5.740
  Name = 
  4 active torsions:
  status: ('A' for Active; 'I' for Inactive)
    1  A    between atoms: C_1  and  C_2
    2  A    between atoms: C_2  and  C_7
    3  A    between atoms: N_6  and  C_28
    4  A    between atoms: C_7  and  C_28
                            x       y       z     vdW  Elec       q    Type
                         _______ _______ _______ _____ _____    ______ ____

>  <TORSDO>
F 4

$$$$
=
 OpenBabel11052413343D

 28 31  0  0  1  0  0  0  0  0999 V2000
  184.8450  178.1290  143.4690 C   0  0  2  0  0  3  0  0  0  0  0  0
  189.3810  177.6720  141.0830 C   0  0  0  0  0  3  0  0  0  0  0  0
  187.9910  177.2740  147.1620 C   0  0  0  0  0  1  0  0  0  0  0  0
  190.9840  177.4400  142.8670 C   0  0  0  0  0  0  0  0  0  0  0  0
  188.6150  177.6850  143.3740 C   0  0  0  0  0  0  0  0  0  0  0  0
  191.7290  177.2820  140.5270 C   0  0  0  0  0  0  0  0  0  0  0  0
  189.6560  177.5500  142.4610 C   0  0  0  0  0  0  0  0  0  0  0  0
  190.2600  177.7390  145.1780 C   0  0  0  0  0  3  0  0  0  0  0  0
  192.0140  177.2070  141.9250 C   0  0  0  0  0  3  0  0  0  0  0  0
  186.5440  177.9800  145.2820 C   0  0  0  0  0  0  0  0  0  0  0  0
  187.3200  177.8160  143.0390 C   0  0  0  0  0  3  0  0  0  0  0  0
  191.2810  177.4720  144.2600 C   0  0  0  0  0  3  0  0  0  0  0  0
  184.2790  179.0460  145.7870 C   0  0  0  0  0  2  0  0  0  0  0  0
  187.8540  177.7850  145.7010 C   0  0  0  0  0  0  0  0  0  0  0  0
  185.3300  178.0870  146.2080 C   0  0  0  0  0  2  0  0  0  0  0  0
  192.7010  177.2080  139.5490 O   0  0  0  0  0  1  0  0  0  0  0  0
  190.3850  177.5660  140.1430 C   0  0  0  0  0  3  0  0  0  0  0  0
  188.9540  177.7150  144.7760 C   0  0  0  0  0  0  0  0  0  0  0  0
  183.8120  178.7040  144.4520 C   0  0  0  0  0  2  0  0  0  0  0  0
  186.2810  178.0280  143.9190 C   0  0  0  0  0  0  0  0  0  0  0  0
  184.5080  178.6560  142.0680 C   0  0  0  0  0  2  0  0  0  0  0  0
  183.4760  177.7750  141.3160 C   0  0  0  0  0  2  0  0  0  0  0  0
  182.7550  178.8790  140.5810 C   0  0  0  0  0  2  0  0  0  0  0  0
  180.3940  178.5340  143.2520 C   0  0  0  0  0  1  0  0  0  0  0  0
  181.1970  178.8110  140.6850 N   0  0  0  0  0  0  0  0  0  0  0  0
  179.0510  179.4840  141.5450 O   0  0  0  0  0  0  0  0  0  0  0  0
  180.2000  179.0010  141.7780 C   0  0  0  0  0  0  0  0  0  0  0  0
  180.7000  178.8470  139.4210 C   0  0  0  0  0  1  0  0  0  0  0  0
  1 21  1  6  0  0  0
  1 20  1  0  0  0  0
  1 19  1  0  0  0  0
  2  7  1  0  0  0  0
  4 12  1  0  0  0  0
  5 18  1  0  0  0  0
  6  9  2  0  0  0  0
  7  4  2  0  0  0  0
  7  5  1  0  0  0  0
  9  4  1  0  0  0  0
 10 14  1  0  0  0  0
 10 15  1  0  0  0  0
 11  5  2  0  0  0  0
 11 20  1  0  0  0  0
 12  8  2  0  0  0  0
 13 15  1  0  0  0  0
 14  3  1  0  0  0  0
 16  6  1  0  0  0  0
 17  6  1  0  0  0  0
 17  2  2  0  0  0  0
 18  8  1  0  0  0  0
 18 14  2  0  0  0  0
 19 13  1  0  0  0  0
 20 10  2  0  0  0  0
 22 21  1  0  0  0  0
 23 25  1  0  0  0  0
 23 22  1  0  0  0  0
 25 27  1  0  0  0  0
 26 27  2  0  0  0  0
 27 24  1  0  0  0  0
 28 25  1  0  0  0  0
M  END
>  <MODEL>
8

>  <REMARK>
 VINA RESULT:      -9.7      2.526      6.787
  Name = 
  4 active torsions:
  status: ('A' for Active; 'I' for Inactive)
    1  A    between atoms: C_1  and  C_2
    2  A    between atoms: C_2  and  C_7
    3  A    between atoms: N_6  and  C_28
    4  A    between atoms: C_7  and  C_28
                            x       y       z     vdW  Elec       q    Type
                         _______ _______ _______ _____ _____    ______ ____

>  <TORSDO>
F 4

$$$$
=
 OpenBabel11052413343D

 28 31  0  0  1  0  0  0  0  0999 V2000
  187.0450  177.8740  141.2100 C   0  0  2  0  0  3  0  0  0  0  0  0
  190.3000  177.0620  145.1120 C   0  0  0  0  0  3  0  0  0  0  0  0
  184.1710  178.2780  145.1910 C   0  0  0  0  0  1  0  0  0  0  0  0
  188.9790  177.4350  147.0920 C   0  0  0  0  0  0  0  0  0  0  0  0
  187.9710  177.6610  144.8870 C   0  0  0  0  0  0  0  0  0  0  0  0
  191.3120  176.6830  147.3040 C   0  0  0  0  0  0  0  0  0  0  0  0
  189.0520  177.3440  145.7030 C   0  0  0  0  0  0  0  0  0  0  0  0
  186.7140  178.3170  146.8750 C   0  0  0  0  0  3  0  0  0  0  0  0
  190.0590  177.0170  147.9040 C   0  0  0  0  0  3  0  0  0  0  0  0
  185.7410  178.3420  143.2790 C   0  0  0  0  0  0  0  0  0  0  0  0
  187.9910  177.6110  143.5440 C   0  0  0  0  0  3  0  0  0  0  0  0
  187.7610  177.8710  147.6890 C   0  0  0  0  0  3  0  0  0  0  0  0
  184.9700  179.3610  141.0680 C   0  0  0  0  0  2  0  0  0  0  0  0
  185.6310  178.3540  144.6640 C   0  0  0  0  0  0  0  0  0  0  0  0
  184.5980  178.6240  142.3010 C   0  0  0  0  0  2  0  0  0  0  0  0
  192.4510  176.4010  148.0330 O   0  0  0  0  0  1  0  0  0  0  0  0
  191.4040  176.7630  145.8830 C   0  0  0  0  0  3  0  0  0  0  0  0
  186.7540  178.1000  145.5260 C   0  0  0  0  0  0  0  0  0  0  0  0
  186.0120  178.6330  140.3600 C   0  0  0  0  0  2  0  0  0  0  0  0
  186.9600  177.9930  142.7120 C   0  0  0  0  0  0  0  0  0  0  0  0
  188.4020  177.9700  140.5010 C   0  0  0  0  0  2  0  0  0  0  0  0
  188.2780  178.2510  138.9800 C   0  0  0  0  0  2  0  0  0  0  0  0
  188.9710  177.0070  138.4800 C   0  0  0  0  0  2  0  0  0  0  0  0
  186.1610  175.6360  136.7340 C   0  0  0  0  0  1  0  0  0  0  0  0
  188.6540  176.6470  136.9930 N   0  0  0  0  0  0  0  0  0  0  0  0
  187.3340  176.7160  134.9810 O   0  0  0  0  0  0  0  0  0  0  0  0
  187.4120  176.3980  136.2050 C   0  0  0  0  0  0  0  0  0  0  0  0
  189.7750  176.8950  136.2650 C   0  0  0  0  0  1  0  0  0  0  0  0
  1 21  1  6  0  0  0
  1 20  1  0  0  0  0
  2  7  2  0  0  0  0
  2 17  1  0  0  0  0
  4 12  1  0  0  0  0
  4  9  2  0  0  0  0
  5 18  1  0  0  0  0
  5  7  1  0  0  0  0
  6  9  1  0  0  0  0
  6 16  1  0  0  0  0
  7  4  1  0  0  0  0
  8 12  2  0  0  0  0
 10 14  1  0  0  0  0
 11  5  2  0  0  0  0
 13 15  1  0  0  0  0
 14  3  1  0  0  0  0
 14 18  2  0  0  0  0
 15 10  1  0  0  0  0
 17  6  2  0  0  0  0
 18  8  1  0  0  0  0
 19 13  1  0  0  0  0
 19  1  1  0  0  0  0
 20 10  2  0  0  0  0
 20 11  1  0  0  0  0
 22 21  1  0  0  0  0
 23 22  1  0  0  0  0
 25 23  1  0  0  0  0
 26 27  2  0  0  0  0
 27 24  1  0  0  0  0
 27 25  1  0  0  0  0
 28 25  1  0  0  0  0
M  END
>  <MODEL>
9

>  <REMARK>
 VINA RESULT:      -9.4      2.701      5.550
  Name = 
  4 active torsions:
  status: ('A' for Active; 'I' for Inactive)
    1  A    between atoms: C_1  and  C_2
    2  A    between atoms: C_2  and  C_7
    3  A    between atoms: N_6  and  C_28
    4  A    between atoms: C_7  and  C_28
                            x       y       z     vdW  Elec       q    Type
                         _______ _______ _______ _____ _____    ______ ____

>  <TORSDO>
F 4

$$$$
