=
 OpenBabel11052416023D

 34 39  0  0  1  0  0  0  0  0999 V2000
  181.7880  177.4100  139.4720 C   0  0  1  0  0  3  0  0  0  0  0  0
  181.9900  179.0870  142.8990 C   0  0  0  0  0  0  0  0  0  0  0  0
  180.0160  179.1120  141.3990 C   0  0  1  0  0  3  0  0  0  0  0  0
  180.3790  175.9110  140.9040 C   0  0  0  0  0  2  0  0  0  0  0  0
  179.1210  176.6540  140.5020 C   0  0  0  0  0  2  0  0  0  0  0  0
  179.4320  179.0110  140.0170 C   0  0  0  0  0  2  0  0  0  0  0  0
  181.3790  175.9650  139.7550 C   0  0  0  0  0  2  0  0  0  0  0  0
  178.9310  178.0560  141.1010 C   0  0  2  0  0  3  0  0  0  0  0  0
  181.1570  179.7200  143.8200 O   0  0  0  0  0  1  0  0  0  0  0  0
  183.3480  178.8650  143.2180 C   0  0  0  0  0  0  0  0  0  0  0  0
  184.1700  178.2340  142.2820 C   0  0  0  0  0  3  0  0  0  0  0  0
  181.4600  178.6860  141.6510 C   0  0  0  0  0  0  0  0  0  0  0  0
  183.6620  177.8250  141.0560 C   0  0  0  0  0  3  0  0  0  0  0  0
  182.3250  178.0580  140.7130 C   0  0  0  0  0  0  0  0  0  0  0  0
  183.7810  176.5500  138.0360 C   0  0  1  0  0  3  0  0  0  0  0  0
  182.2730  176.0540  135.3260 C   0  0  0  0  0  2  0  0  0  0  0  0
  184.5660  172.9900  137.5360 C   0  0  0  0  0  2  0  0  0  0  0  0
  181.7900  177.9470  136.9870 C   0  0  1  0  0  3  0  0  0  0  0  0
  182.6530  177.5970  138.2180 C   0  0  1  0  0  3  0  0  0  0  0  0
  182.7360  172.8260  135.8730 C   0  0  0  0  0  0  0  0  0  0  0  0
  184.5410  174.3690  136.9060 C   0  0  2  0  0  3  0  0  0  0  0  0
  182.4350  171.7510  135.3750 O   0  0  0  0  0  0  0  0  0  0  0  0
  183.3600  175.1640  137.4810 C   0  0  2  0  0  3  0  0  0  0  0  0
  181.5110  179.3150  137.0080 O   0  0  0  0  0  1  0  0  0  0  0  0
  181.8940  178.2900  134.5950 O   0  0  0  0  0  1  0  0  0  0  0  0
  184.1990  173.1280  136.0730 C   0  0  1  0  0  3  0  0  0  0  0  0
  181.6320  173.7820  136.2330 C   0  0  2  0  0  3  0  0  0  0  0  0
  182.1270  175.1800  136.5710 C   0  0  2  0  0  3  0  0  0  0  0  0
  180.8130  173.2300  137.3870 C   0  0  0  0  0  1  0  0  0  0  0  0
  182.4330  177.5460  135.6460 C   0  0  2  0  0  3  0  0  0  0  0  0
  184.9730  177.1810  137.3250 C   0  0  0  0  0  1  0  0  0  0  0  0
  183.9400  179.2780  144.5130 C   0  0  0  0  0  0  0  0  0  0  0  0
  183.4240  178.8200  145.7200 O   0  0  0  0  0  1  0  0  0  0  0  0
  184.9310  180.0560  144.5340 O   0  0  0  0  0  0  0  0  0  0  0  0
  1  7  1  1  0  0  0
  1 14  1  0  0  0  0
  2 10  1  0  0  0  0
  2  9  1  0  0  0  0
  3  6  1  6  0  0  0
  3 12  1  0  0  0  0
  5  4  1  0  0  0  0
  5  8  1  0  0  0  0
  7  4  1  0  0  0  0
  8  6  1  6  0  0  0
  8  3  1  0  0  0  0
 10 32  1  0  0  0  0
 11 10  2  0  0  0  0
 12  2  2  0  0  0  0
 13 11  1  0  0  0  0
 14 13  2  0  0  0  0
 14 12  1  0  0  0  0
 15 31  1  6  0  0  0
 15 19  1  0  0  0  0
 16 30  1  0  0  0  0
 16 28  1  0  0  0  0
 18 24  1  6  0  0  0
 18 19  1  0  0  0  0
 19  1  1  1  0  0  0
 20 26  1  0  0  0  0
 20 27  1  0  0  0  0
 21 23  1  0  0  0  0
 21 17  1  1  0  0  0
 22 20  2  0  0  0  0
 23 15  1  0  0  0  0
 25 30  1  0  0  0  0
 26 21  1  0  0  0  0
 26 17  1  0  0  0  0
 27 28  1  0  0  0  0
 27 29  1  0  0  0  0
 28 23  1  0  0  0  0
 30 18  1  0  0  0  0
 32 34  2  0  0  0  0
 32 33  1  0  0  0  0
M  END
>  <MODEL>
1

>  <REMARK>
 VINA RESULT:      -6.5      0.000      0.000
  Name = 
  2 active torsions:
  status: ('A' for Active; 'I' for Inactive)
    1  A    between atoms: C_1  and  C_9
    2  A    between atoms: C_3  and  C_25
                            x       y       z     vdW  Elec       q    Type
                         _______ _______ _______ _____ _____    ______ ____

>  <TORSDO>
F 2

$$$$
=
 OpenBabel11052416023D

 34 39  0  0  1  0  0  0  0  0999 V2000
  184.5950  177.5050  137.2840 C   0  0  1  0  0  3  0  0  0  0  0  0
  187.8660  175.6930  136.4990 C   0  0  0  0  0  0  0  0  0  0  0  0
  185.7410  174.6020  137.1650 C   0  0  1  0  0  3  0  0  0  0  0  0
  184.1350  176.4850  135.0420 C   0  0  0  0  0  2  0  0  0  0  0  0
  183.5000  175.2700  135.6870 C   0  0  0  0  0  2  0  0  0  0  0  0
  184.4070  174.6680  137.8560 C   0  0  0  0  0  2  0  0  0  0  0  0
  183.9090  177.7000  135.9330 C   0  0  0  0  0  2  0  0  0  0  0  0
  184.4530  174.2810  136.3770 C   0  0  2  0  0  3  0  0  0  0  0  0
  188.3380  174.3960  136.3040 O   0  0  0  0  0  1  0  0  0  0  0  0
  188.7360  176.7910  136.3220 C   0  0  0  0  0  0  0  0  0  0  0  0
  188.2470  178.0830  136.5270 C   0  0  0  0  0  3  0  0  0  0  0  0
  186.5190  175.8850  136.8830 C   0  0  0  0  0  0  0  0  0  0  0  0
  186.9240  178.2890  136.8940 C   0  0  0  0  0  3  0  0  0  0  0  0
  186.0530  177.2120  137.0970 C   0  0  0  0  0  0  0  0  0  0  0  0
  182.8320  179.1380  138.2840 C   0  0  1  0  0  3  0  0  0  0  0  0
  182.8420  178.1320  141.2590 C   0  0  0  0  0  2  0  0  0  0  0  0
  179.2640  178.3220  138.6700 C   0  0  0  0  0  2  0  0  0  0  0  0
  184.8780  178.2350  139.7030 C   0  0  1  0  0  3  0  0  0  0  0  0
  184.2800  178.5890  138.3250 C   0  0  1  0  0  3  0  0  0  0  0  0
  179.7970  176.9790  140.6850 C   0  0  0  0  0  0  0  0  0  0  0  0
  180.4580  179.0430  139.2670 C   0  0  2  0  0  3  0  0  0  0  0  0
  178.9310  176.3320  141.2530 O   0  0  0  0  0  0  0  0  0  0  0  0
  181.7360  178.2570  138.9390 C   0  0  2  0  0  3  0  0  0  0  0  0
  186.2250  178.6020  139.7170 O   0  0  0  0  0  1  0  0  0  0  0  0
  184.9490  178.9500  142.0130 O   0  0  0  0  0  1  0  0  0  0  0  0
  179.4350  178.3500  140.1750 C   0  0  1  0  0  3  0  0  0  0  0  0
  181.1680  176.3750  140.5480 C   0  0  2  0  0  3  0  0  0  0  0  0
  182.2240  177.3680  140.0880 C   0  0  2  0  0  3  0  0  0  0  0  0
  181.1280  175.1870  139.6030 C   0  0  0  0  0  1  0  0  0  0  0  0
  184.1290  178.8790  140.8850 C   0  0  2  0  0  3  0  0  0  0  0  0
  182.8130  180.6000  138.7160 C   0  0  0  0  0  1  0  0  0  0  0  0
  190.1550  176.6270  135.9270 C   0  0  0  0  0  0  0  0  0  0  0  0
  191.1680  176.5840  136.8780 O   0  0  0  0  0  1  0  0  0  0  0  0
  190.4630  176.5230  134.7090 O   0  0  0  0  0  0  0  0  0  0  0  0
  1  7  1  6  0  0  0
  2 12  1  0  0  0  0
  3  6  1  1  0  0  0
  4  5  1  0  0  0  0
  4  7  1  0  0  0  0
  8  5  1  6  0  0  0
  8  3  1  0  0  0  0
  8  6  1  0  0  0  0
  9  2  1  0  0  0  0
 10  2  2  0  0  0  0
 10 11  1  0  0  0  0
 11 13  2  0  0  0  0
 12 14  2  0  0  0  0
 12  3  1  0  0  0  0
 13 14  1  0  0  0  0
 14  1  1  0  0  0  0
 15 19  1  0  0  0  0
 15 31  1  1  0  0  0
 15 23  1  0  0  0  0
 17 26  1  0  0  0  0
 18 24  1  6  0  0  0
 18 30  1  0  0  0  0
 19  1  1  6  0  0  0
 19 18  1  0  0  0  0
 20 22  2  0  0  0  0
 21 17  1  6  0  0  0
 21 26  1  0  0  0  0
 23 21  1  0  0  0  0
 23 28  1  0  0  0  0
 26 20  1  0  0  0  0
 27 20  1  0  0  0  0
 28 27  1  0  0  0  0
 28 16  1  0  0  0  0
 29 27  1  0  0  0  0
 30 16  1  0  0  0  0
 30 25  1  0  0  0  0
 32 10  1  0  0  0  0
 32 33  1  0  0  0  0
 34 32  2  0  0  0  0
M  END
>  <MODEL>
2

>  <REMARK>
 VINA RESULT:      -5.7      3.385      7.173
  Name = 
  2 active torsions:
  status: ('A' for Active; 'I' for Inactive)
    1  A    between atoms: C_1  and  C_9
    2  A    between atoms: C_3  and  C_25
                            x       y       z     vdW  Elec       q    Type
                         _______ _______ _______ _____ _____    ______ ____

>  <TORSDO>
F 2

$$$$
=
 OpenBabel11052416023D

 34 39  0  0  1  0  0  0  0  0999 V2000
  181.7060  178.4150  140.4650 C   0  0  1  0  0  3  0  0  0  0  0  0
  183.2550  178.9260  143.9210 C   0  0  0  0  0  0  0  0  0  0  0  0
  181.0140  179.7200  143.2170 C   0  0  1  0  0  3  0  0  0  0  0  0
  180.4210  176.8020  141.8900 C   0  0  0  0  0  2  0  0  0  0  0  0
  179.3260  177.8240  142.1190 C   0  0  0  0  0  2  0  0  0  0  0  0
  180.0650  180.1360  142.1260 C   0  0  0  0  0  2  0  0  0  0  0  0
  181.0460  177.0380  140.5200 C   0  0  0  0  0  2  0  0  0  0  0  0
  179.6620  178.9930  143.0590 C   0  0  2  0  0  3  0  0  0  0  0  0
  182.8920  179.3770  145.1880 O   0  0  0  0  0  1  0  0  0  0  0  0
  184.5490  178.4020  143.7050 C   0  0  0  0  0  0  0  0  0  0  0  0
  184.8970  177.9590  142.4280 C   0  0  0  0  0  3  0  0  0  0  0  0
  182.3190  179.0110  142.8640 C   0  0  0  0  0  0  0  0  0  0  0  0
  183.9860  178.0250  141.3820 C   0  0  0  0  0  3  0  0  0  0  0  0
  182.7070  178.5630  141.5710 C   0  0  0  0  0  0  0  0  0  0  0  0
  182.8540  177.6920  138.2450 C   0  0  1  0  0  3  0  0  0  0  0  0
  180.5880  178.4900  136.2220 C   0  0  0  0  0  2  0  0  0  0  0  0
  182.3070  174.4370  136.6160 C   0  0  0  0  0  2  0  0  0  0  0  0
  181.2000  179.7570  138.3660 C   0  0  1  0  0  3  0  0  0  0  0  0
  182.2090  178.8290  139.0750 C   0  0  1  0  0  3  0  0  0  0  0  0
  180.1380  175.2510  135.7330 C   0  0  0  0  0  0  0  0  0  0  0  0
  182.5470  175.9200  136.4060 C   0  0  2  0  0  3  0  0  0  0  0  0
  179.3890  174.5030  135.1220 O   0  0  0  0  0  0  0  0  0  0  0  0
  181.8820  176.7040  137.5460 C   0  0  2  0  0  3  0  0  0  0  0  0
  181.3850  181.0610  138.8300 O   0  0  0  0  0  1  0  0  0  0  0  0
  180.7510  180.8670  136.2640 O   0  0  0  0  0  1  0  0  0  0  0  0
  181.6180  175.1430  135.4660 C   0  0  1  0  0  3  0  0  0  0  0  0
  179.5350  176.2400  136.6930 C   0  0  2  0  0  3  0  0  0  0  0  0
  180.5190  177.2960  137.1730 C   0  0  2  0  0  3  0  0  0  0  0  0
  178.9310  175.5160  137.8830 C   0  0  0  0  0  1  0  0  0  0  0  0
  181.2930  179.7110  136.8290 C   0  0  2  0  0  3  0  0  0  0  0  0
  183.9430  178.2560  137.3380 C   0  0  0  0  0  1  0  0  0  0  0  0
  185.5580  178.3040  144.7870 C   0  0  0  0  0  0  0  0  0  0  0  0
  186.3870  177.1940  144.9010 O   0  0  0  0  0  0  0  0  0  0  0  0
  185.6790  179.2390  145.6240 O   0  0  0  0  0  1  0  0  0  0  0  0
  1  7  1  6  0  0  0
  1 14  1  0  0  0  0
  2  9  1  0  0  0  0
  3  6  1  6  0  0  0
  4  5  1  0  0  0  0
  6  8  1  0  0  0  0
  7  4  1  0  0  0  0
  8  5  1  6  0  0  0
  8  3  1  0  0  0  0
 10  2  1  0  0  0  0
 10 32  1  0  0  0  0
 11 10  2  0  0  0  0
 12  3  1  0  0  0  0
 12  2  2  0  0  0  0
 13 14  2  0  0  0  0
 13 11  1  0  0  0  0
 14 12  1  0  0  0  0
 15 31  1  6  0  0  0
 15 19  1  0  0  0  0
 16 30  1  0  0  0  0
 16 28  1  0  0  0  0
 18 24  1  1  0  0  0
 18 19  1  0  0  0  0
 19  1  1  1  0  0  0
 20 27  1  0  0  0  0
 21 17  1  1  0  0  0
 21 23  1  0  0  0  0
 22 20  2  0  0  0  0
 23 15  1  0  0  0  0
 25 30  1  0  0  0  0
 26 20  1  0  0  0  0
 26 21  1  0  0  0  0
 26 17  1  0  0  0  0
 27 28  1  0  0  0  0
 27 29  1  0  0  0  0
 28 23  1  0  0  0  0
 30 18  1  0  0  0  0
 32 33  2  0  0  0  0
 32 34  1  0  0  0  0
M  END
>  <MODEL>
3

>  <REMARK>
 VINA RESULT:      -5.6      1.741      2.371
  Name = 
  2 active torsions:
  status: ('A' for Active; 'I' for Inactive)
    1  A    between atoms: C_1  and  C_9
    2  A    between atoms: C_3  and  C_25
                            x       y       z     vdW  Elec       q    Type
                         _______ _______ _______ _____ _____    ______ ____

>  <TORSDO>
F 2

$$$$
=
 OpenBabel11052416023D

 34 39  0  0  1  0  0  0  0  0999 V2000
  183.1690  177.8300  138.3900 C   0  0  1  0  0  3  0  0  0  0  0  0
  180.6060  180.5070  139.3200 C   0  0  0  0  0  0  0  0  0  0  0  0
  181.4600  178.7430  140.8390 C   0  0  1  0  0  3  0  0  0  0  0  0
  184.4970  179.3830  139.8400 C   0  0  0  0  0  2  0  0  0  0  0  0
  184.2090  178.5400  141.0660 C   0  0  0  0  0  2  0  0  0  0  0  0
  182.0750  177.3850  141.0390 C   0  0  0  0  0  2  0  0  0  0  0  0
  184.5320  178.4830  138.6110 C   0  0  0  0  0  2  0  0  0  0  0  0
  182.7800  178.6080  141.6270 C   0  0  2  0  0  3  0  0  0  0  0  0
  179.9550  181.0040  140.4480 O   0  0  0  0  0  1  0  0  0  0  0  0
  180.4080  181.1240  138.0660 C   0  0  0  0  0  0  0  0  0  0  0  0
  181.0640  180.6090  136.9460 C   0  0  0  0  0  3  0  0  0  0  0  0
  181.4500  179.3800  139.4520 C   0  0  0  0  0  0  0  0  0  0  0  0
  181.9050  179.5100  137.0600 C   0  0  0  0  0  3  0  0  0  0  0  0
  182.0950  178.8710  138.2910 C   0  0  0  0  0  0  0  0  0  0  0  0
  183.9330  177.1250  136.0050 C   0  0  1  0  0  3  0  0  0  0  0  0
  185.4390  174.4640  136.7230 C   0  0  0  0  0  2  0  0  0  0  0  0
  187.2470  177.8940  134.6000 C   0  0  0  0  0  2  0  0  0  0  0  0
  183.3220  175.3460  137.8690 C   0  0  1  0  0  3  0  0  0  0  0  0
  183.1410  176.7630  137.2860 C   0  0  1  0  0  3  0  0  0  0  0  0
  188.2320  176.0470  135.9290 C   0  0  0  0  0  0  0  0  0  0  0  0
  186.1230  176.8790  134.6780 C   0  0  2  0  0  3  0  0  0  0  0  0
  189.4380  175.8550  135.9380 O   0  0  0  0  0  0  0  0  0  0  0  0
  185.4740  176.9520  136.0670 C   0  0  2  0  0  3  0  0  0  0  0  0
  182.0890  174.8950  138.3450 O   0  0  0  0  0  1  0  0  0  0  0  0
  183.6110  173.0270  137.2420 O   0  0  0  0  0  1  0  0  0  0  0  0
  187.5830  176.4170  134.6200 C   0  0  1  0  0  3  0  0  0  0  0  0
  187.4720  175.8850  137.2180 C   0  0  2  0  0  3  0  0  0  0  0  0
  185.9620  175.8660  137.0330 C   0  0  2  0  0  3  0  0  0  0  0  0
  187.8600  176.9770  138.1980 C   0  0  0  0  0  1  0  0  0  0  0  0
  183.9170  174.3370  136.8680 C   0  0  2  0  0  3  0  0  0  0  0  0
  183.2740  176.4920  134.7840 C   0  0  0  0  0  1  0  0  0  0  0  0
  179.5250  182.3020  137.8880 C   0  0  0  0  0  0  0  0  0  0  0  0
  179.3090  183.2030  138.9240 O   0  0  0  0  0  1  0  0  0  0  0  0
  178.9560  182.5030  136.7810 O   0  0  0  0  0  0  0  0  0  0  0  0
  1  7  1  6  0  0  0
  2 12  1  0  0  0  0
  2  9  1  0  0  0  0
  3  6  1  6  0  0  0
  3  8  1  0  0  0  0
  4  5  1  0  0  0  0
  5  8  1  0  0  0  0
  7  4  1  0  0  0  0
  8  6  1  6  0  0  0
 10  2  2  0  0  0  0
 11 13  2  0  0  0  0
 11 10  1  0  0  0  0
 12  3  1  0  0  0  0
 13 14  1  0  0  0  0
 14  1  1  0  0  0  0
 14 12  2  0  0  0  0
 15 31  1  6  0  0  0
 15 23  1  0  0  0  0
 15 19  1  0  0  0  0
 16 30  1  0  0  0  0
 16 28  1  0  0  0  0
 17 26  1  0  0  0  0
 18 24  1  6  0  0  0
 19 18  1  0  0  0  0
 19  1  1  1  0  0  0
 20 22  2  0  0  0  0
 20 27  1  0  0  0  0
 21 17  1  1  0  0  0
 21 23  1  0  0  0  0
 23 28  1  0  0  0  0
 26 21  1  0  0  0  0
 26 20  1  0  0  0  0
 27 29  1  0  0  0  0
 28 27  1  0  0  0  0
 30 25  1  0  0  0  0
 30 18  1  0  0  0  0
 32 10  1  0  0  0  0
 32 33  1  0  0  0  0
 34 32  2  0  0  0  0
M  END
>  <MODEL>
4

>  <REMARK>
 VINA RESULT:      -5.6      2.869      5.265
  Name = 
  2 active torsions:
  status: ('A' for Active; 'I' for Inactive)
    1  A    between atoms: C_1  and  C_9
    2  A    between atoms: C_3  and  C_25
                            x       y       z     vdW  Elec       q    Type
                         _______ _______ _______ _____ _____    ______ ____

>  <TORSDO>
F 2

$$$$
=
 OpenBabel11052416023D

 34 39  0  0  1  0  0  0  0  0999 V2000
  183.4020  176.7500  137.3610 C   0  0  1  0  0  3  0  0  0  0  0  0
  187.2080  176.5120  137.1200 C   0  0  0  0  0  0  0  0  0  0  0  0
  185.6110  174.7260  136.4790 C   0  0  1  0  0  3  0  0  0  0  0  0
  183.8110  176.9350  134.8950 C   0  0  0  0  0  2  0  0  0  0  0  0
  183.6060  175.4450  134.7150 C   0  0  0  0  0  2  0  0  0  0  0  0
  184.2590  174.0820  136.6140 C   0  0  0  0  0  2  0  0  0  0  0  0
  182.9580  177.4190  136.0620 C   0  0  0  0  0  2  0  0  0  0  0  0
  184.7280  174.5290  135.2290 C   0  0  2  0  0  3  0  0  0  0  0  0
  188.1850  175.6700  136.5930 O   0  0  0  0  0  1  0  0  0  0  0  0
  187.5830  177.7290  137.7300 C   0  0  0  0  0  0  0  0  0  0  0  0
  186.5910  178.5580  138.2570 C   0  0  0  0  0  3  0  0  0  0  0  0
  185.8500  176.1240  137.0440 C   0  0  0  0  0  0  0  0  0  0  0  0
  185.2530  178.1970  138.1800 C   0  0  0  0  0  3  0  0  0  0  0  0
  184.8630  176.9830  137.6010 C   0  0  0  0  0  0  0  0  0  0  0  0
  182.5190  178.4870  139.0850 C   0  0  1  0  0  3  0  0  0  0  0  0
  179.4450  178.2830  138.4790 C   0  0  0  0  0  2  0  0  0  0  0  0
  181.8160  182.0080  138.2760 C   0  0  0  0  0  2  0  0  0  0  0  0
  181.1200  176.3440  138.4070 C   0  0  1  0  0  3  0  0  0  0  0  0
  182.4940  177.0280  138.5680 C   0  0  1  0  0  3  0  0  0  0  0  0
  179.6790  181.3310  137.2170 C   0  0  0  0  0  0  0  0  0  0  0  0
  181.3910  180.7980  139.0860 C   0  0  2  0  0  3  0  0  0  0  0  0
  178.9800  182.1480  136.6370 O   0  0  0  0  0  0  0  0  0  0  0  0
  181.6900  179.5240  138.2830 C   0  0  2  0  0  3  0  0  0  0  0  0
  181.2360  175.0060  138.7910 O   0  0  0  0  0  1  0  0  0  0  0  0
  178.9310  176.1550  139.4190 O   0  0  0  0  0  1  0  0  0  0  0  0
  180.3400  181.7520  138.5040 C   0  0  1  0  0  3  0  0  0  0  0  0
  179.8190  179.9560  136.6200 C   0  0  2  0  0  3  0  0  0  0  0  0
  180.4660  178.9510  137.5600 C   0  0  2  0  0  3  0  0  0  0  0  0
  180.5970  180.0250  135.3180 C   0  0  0  0  0  1  0  0  0  0  0  0
  179.9890  177.0370  139.1890 C   0  0  2  0  0  3  0  0  0  0  0  0
  182.2800  178.5150  140.5910 C   0  0  0  0  0  1  0  0  0  0  0  0
  188.9970  178.1650  137.8340 C   0  0  0  0  0  0  0  0  0  0  0  0
  189.8140  177.7170  138.8660 O   0  0  0  0  0  1  0  0  0  0  0  0
  189.4790  178.9540  136.9780 O   0  0  0  0  0  0  0  0  0  0  0  0
  1  7  1  6  0  0  0
  1 14  1  0  0  0  0
  2 10  1  0  0  0  0
  3  6  1  1  0  0  0
  3 12  1  0  0  0  0
  4  7  1  0  0  0  0
  5  4  1  0  0  0  0
  8  5  1  1  0  0  0
  8  3  1  0  0  0  0
  8  6  1  0  0  0  0
  9  2  1  0  0  0  0
 10 32  1  0  0  0  0
 10 11  2  0  0  0  0
 12  2  2  0  0  0  0
 12 14  1  0  0  0  0
 13 11  1  0  0  0  0
 14 13  2  0  0  0  0
 15 31  1  1  0  0  0
 16 30  1  0  0  0  0
 17 26  1  0  0  0  0
 18 19  1  0  0  0  0
 18 24  1  1  0  0  0
 18 30  1  0  0  0  0
 19  1  1  6  0  0  0
 19 15  1  0  0  0  0
 20 26  1  0  0  0  0
 21 17  1  6  0  0  0
 22 20  2  0  0  0  0
 23 15  1  0  0  0  0
 23 21  1  0  0  0  0
 26 21  1  0  0  0  0
 27 20  1  0  0  0  0
 27 28  1  0  0  0  0
 28 23  1  0  0  0  0
 28 16  1  0  0  0  0
 29 27  1  0  0  0  0
 30 25  1  0  0  0  0
 32 33  1  0  0  0  0
 34 32  2  0  0  0  0
M  END
>  <MODEL>
5

>  <REMARK>
 VINA RESULT:      -5.6      3.288      6.915
  Name = 
  2 active torsions:
  status: ('A' for Active; 'I' for Inactive)
    1  A    between atoms: C_1  and  C_9
    2  A    between atoms: C_3  and  C_25
                            x       y       z     vdW  Elec       q    Type
                         _______ _______ _______ _____ _____    ______ ____

>  <TORSDO>
F 2

$$$$
=
 OpenBabel11052416023D

 34 39  0  0  1  0  0  0  0  0999 V2000
  186.7730  177.4840  136.5170 C   0  0  1  0  0  3  0  0  0  0  0  0
  189.5060  176.5070  139.0020 C   0  0  0  0  0  0  0  0  0  0  0  0
  189.0490  175.3720  136.8450 C   0  0  1  0  0  3  0  0  0  0  0  0
  188.8610  178.2790  135.3800 C   0  0  0  0  0  2  0  0  0  0  0  0
  188.9680  176.9840  134.6000 C   0  0  0  0  0  2  0  0  0  0  0  0
  188.0960  175.0250  135.7340 C   0  0  0  0  0  2  0  0  0  0  0  0
  187.3910  178.5790  135.6490 C   0  0  0  0  0  2  0  0  0  0  0  0
  189.4030  175.7390  135.3880 C   0  0  2  0  0  3  0  0  0  0  0  0
  190.6100  175.6620  139.0820 O   0  0  0  0  0  1  0  0  0  0  0  0
  189.2140  177.3850  140.0680 C   0  0  0  0  0  0  0  0  0  0  0  0
  188.1000  178.2210  139.9720 C   0  0  0  0  0  3  0  0  0  0  0  0
  188.6860  176.4620  137.8500 C   0  0  0  0  0  0  0  0  0  0  0  0
  187.2910  178.1970  138.8430 C   0  0  0  0  0  3  0  0  0  0  0  0
  187.5510  177.3170  137.7870 C   0  0  0  0  0  0  0  0  0  0  0  0
  184.4120  176.7340  135.7210 C   0  0  1  0  0  3  0  0  0  0  0  0
  183.3300  175.5320  138.4130 C   0  0  0  0  0  2  0  0  0  0  0  0
  183.6130  173.3220  134.5960 C   0  0  0  0  0  2  0  0  0  0  0  0
  184.8620  177.5760  138.1910 C   0  0  1  0  0  3  0  0  0  0  0  0
  185.2520  177.5930  136.6980 C   0  0  1  0  0  3  0  0  0  0  0  0
  183.5300  172.5700  136.9570 C   0  0  0  0  0  0  0  0  0  0  0  0
  183.1130  174.5470  135.3370 C   0  0  2  0  0  3  0  0  0  0  0  0
  183.3720  171.3900  137.2340 O   0  0  0  0  0  0  0  0  0  0  0  0
  184.2950  175.2220  136.0480 C   0  0  2  0  0  3  0  0  0  0  0  0
  185.0230  178.8620  138.7130 O   0  0  0  0  0  1  0  0  0  0  0  0
  182.9600  177.5130  139.6850 O   0  0  0  0  0  1  0  0  0  0  0  0
  182.7300  173.1410  135.8130 C   0  0  1  0  0  3  0  0  0  0  0  0
  184.4940  173.3770  137.7830 C   0  0  2  0  0  3  0  0  0  0  0  0
  184.3960  174.8750  137.5380 C   0  0  2  0  0  3  0  0  0  0  0  0
  185.9160  172.9040  137.5430 C   0  0  0  0  0  1  0  0  0  0  0  0
  183.4330  177.0620  138.4510 C   0  0  2  0  0  3  0  0  0  0  0  0
  183.0830  177.4220  135.4260 C   0  0  0  0  0  1  0  0  0  0  0  0
  190.0460  177.4550  141.2930 C   0  0  0  0  0  0  0  0  0  0  0  0
  191.4200  177.6520  141.2210 O   0  0  0  0  0  0  0  0  0  0  0  0
  189.5090  177.3370  142.4280 O   0  0  0  0  0  1  0  0  0  0  0  0
  1  7  1  1  0  0  0
  1 14  1  0  0  0  0
  2  9  1  0  0  0  0
  2 10  1  0  0  0  0
  3  6  1  6  0  0  0
  3 12  1  0  0  0  0
  4  7  1  0  0  0  0
  5  4  1  0  0  0  0
  8  5  1  1  0  0  0
  8  6  1  0  0  0  0
  8  3  1  0  0  0  0
 10 32  1  0  0  0  0
 11 10  2  0  0  0  0
 12  2  2  0  0  0  0
 13 11  1  0  0  0  0
 14 12  1  0  0  0  0
 14 13  2  0  0  0  0
 15 31  1  1  0  0  0
 15 23  1  0  0  0  0
 15 19  1  0  0  0  0
 16 30  1  0  0  0  0
 17 26  1  0  0  0  0
 18 30  1  0  0  0  0
 18 24  1  6  0  0  0
 19  1  1  1  0  0  0
 19 18  1  0  0  0  0
 20 22  2  0  0  0  0
 20 27  1  0  0  0  0
 21 17  1  6  0  0  0
 21 26  1  0  0  0  0
 21 23  1  0  0  0  0
 23 28  1  0  0  0  0
 26 20  1  0  0  0  0
 28 27  1  0  0  0  0
 28 16  1  0  0  0  0
 29 27  1  0  0  0  0
 30 25  1  0  0  0  0
 32 34  1  0  0  0  0
 33 32  2  0  0  0  0
M  END
>  <MODEL>
6

>  <REMARK>
 VINA RESULT:      -5.5      3.738      6.511
  Name = 
  2 active torsions:
  status: ('A' for Active; 'I' for Inactive)
    1  A    between atoms: C_1  and  C_9
    2  A    between atoms: C_3  and  C_25
                            x       y       z     vdW  Elec       q    Type
                         _______ _______ _______ _____ _____    ______ ____

>  <TORSDO>
F 2

$$$$
=
 OpenBabel11052416023D

 34 39  0  0  1  0  0  0  0  0999 V2000
  181.4150  178.9380  140.9080 C   0  0  1  0  0  3  0  0  0  0  0  0
  183.3290  178.7620  144.2100 C   0  0  0  0  0  0  0  0  0  0  0  0
  180.9900  179.5400  143.9420 C   0  0  1  0  0  3  0  0  0  0  0  0
  180.3730  176.9620  142.0440 C   0  0  0  0  0  2  0  0  0  0  0  0
  179.2690  177.8300  142.6140 C   0  0  0  0  0  2  0  0  0  0  0  0
  179.9050  180.1250  143.0810 C   0  0  0  0  0  2  0  0  0  0  0  0
  180.8250  177.5430  140.7090 C   0  0  0  0  0  2  0  0  0  0  0  0
  179.6610  178.7760  143.7600 C   0  0  2  0  0  3  0  0  0  0  0  0
  183.0950  178.8900  145.5780 O   0  0  0  0  0  1  0  0  0  0  0  0
  184.6100  178.3890  143.7480 C   0  0  0  0  0  0  0  0  0  0  0  0
  184.8280  178.2710  142.3740 C   0  0  0  0  0  3  0  0  0  0  0  0
  182.2750  179.0190  143.3030 C   0  0  0  0  0  0  0  0  0  0  0  0
  183.8000  178.5080  141.4710 C   0  0  0  0  0  3  0  0  0  0  0  0
  182.5300  178.9020  141.9090 C   0  0  0  0  0  0  0  0  0  0  0  0
  183.1900  179.5250  139.0980 C   0  0  1  0  0  3  0  0  0  0  0  0
  181.7030  178.4300  136.5580 C   0  0  0  0  0  2  0  0  0  0  0  0
  185.7290  177.1610  137.8690 C   0  0  0  0  0  2  0  0  0  0  0  0
  180.5930  179.5490  138.5800 C   0  0  1  0  0  3  0  0  0  0  0  0
  181.7360  179.6890  139.6070 C   0  0  1  0  0  3  0  0  0  0  0  0
  184.0150  176.0680  136.4500 C   0  0  0  0  0  0  0  0  0  0  0  0
  184.7960  178.3000  137.5050 C   0  0  2  0  0  3  0  0  0  0  0  0
  184.2790  175.0620  135.8100 O   0  0  0  0  0  0  0  0  0  0  0  0
  183.5240  178.2020  138.3610 C   0  0  2  0  0  3  0  0  0  0  0  0
  179.6000  180.4830  138.8830 O   0  0  0  0  0  1  0  0  0  0  0  0
  179.9820  180.0570  136.2960 O   0  0  0  0  0  1  0  0  0  0  0  0
  185.0520  177.1600  136.5140 C   0  0  1  0  0  3  0  0  0  0  0  0
  182.6680  176.1600  137.1150 C   0  0  2  0  0  3  0  0  0  0  0  0
  182.3420  177.5520  137.6330 C   0  0  2  0  0  3  0  0  0  0  0  0
  182.5690  175.1500  138.2450 C   0  0  0  0  0  1  0  0  0  0  0  0
  181.0530  179.7020  137.1180 C   0  0  2  0  0  3  0  0  0  0  0  0
  183.6350  180.7870  138.3660 C   0  0  0  0  0  1  0  0  0  0  0  0
  185.7410  178.1190  144.6680 C   0  0  0  0  0  0  0  0  0  0  0  0
  186.0350  178.9780  145.7200 O   0  0  0  0  0  1  0  0  0  0  0  0
  186.4560  177.0940  144.5050 O   0  0  0  0  0  0  0  0  0  0  0  0
  1  7  1  6  0  0  0
  1 14  1  0  0  0  0
  2  9  1  0  0  0  0
  3  6  1  6  0  0  0
  4  5  1  0  0  0  0
  6  8  1  0  0  0  0
  7  4  1  0  0  0  0
  8  5  1  6  0  0  0
  8  3  1  0  0  0  0
 10  2  1  0  0  0  0
 10 32  1  0  0  0  0
 11 10  2  0  0  0  0
 12  3  1  0  0  0  0
 12  2  2  0  0  0  0
 13 14  2  0  0  0  0
 13 11  1  0  0  0  0
 14 12  1  0  0  0  0
 15 31  1  6  0  0  0
 15 19  1  0  0  0  0
 16 30  1  0  0  0  0
 16 28  1  0  0  0  0
 18 24  1  1  0  0  0
 18 19  1  0  0  0  0
 19  1  1  1  0  0  0
 20 26  1  0  0  0  0
 20 27  1  0  0  0  0
 21 17  1  1  0  0  0
 21 23  1  0  0  0  0
 22 20  2  0  0  0  0
 23 15  1  0  0  0  0
 25 30  1  0  0  0  0
 26 21  1  0  0  0  0
 26 17  1  0  0  0  0
 27 28  1  0  0  0  0
 27 29  1  0  0  0  0
 28 23  1  0  0  0  0
 30 18  1  0  0  0  0
 32 33  1  0  0  0  0
 34 32  2  0  0  0  0
M  END
>  <MODEL>
7

>  <REMARK>
 VINA RESULT:      -5.1      1.909      2.822
  Name = 
  2 active torsions:
  status: ('A' for Active; 'I' for Inactive)
    1  A    between atoms: C_1  and  C_9
    2  A    between atoms: C_3  and  C_25
                            x       y       z     vdW  Elec       q    Type
                         _______ _______ _______ _____ _____    ______ ____

>  <TORSDO>
F 2

$$$$
=
 OpenBabel11052416023D

 34 39  0  0  1  0  0  0  0  0999 V2000
  186.1930  177.8090  137.5400 C   0  0  1  0  0  3  0  0  0  0  0  0
  189.5300  175.9820  137.9040 C   0  0  0  0  0  0  0  0  0  0  0  0
  187.3850  174.9400  137.2220 C   0  0  1  0  0  3  0  0  0  0  0  0
  186.8660  177.4110  135.1590 C   0  0  0  0  0  2  0  0  0  0  0  0
  186.0560  176.1310  135.1090 C   0  0  0  0  0  2  0  0  0  0  0  0
  185.8810  174.9430  137.2180 C   0  0  0  0  0  2  0  0  0  0  0  0
  186.2020  178.3840  136.1250 C   0  0  0  0  0  2  0  0  0  0  0  0
  186.6220  174.9280  135.8800 C   0  0  2  0  0  3  0  0  0  0  0  0
  190.0920  174.7390  137.6220 O   0  0  0  0  0  1  0  0  0  0  0  0
  190.3350  177.0150  138.4310 C   0  0  0  0  0  0  0  0  0  0  0  0
  189.7530  178.2530  138.7120 C   0  0  0  0  0  3  0  0  0  0  0  0
  188.1510  176.1840  137.6650 C   0  0  0  0  0  0  0  0  0  0  0  0
  188.4030  178.4710  138.4720 C   0  0  0  0  0  3  0  0  0  0  0  0
  187.5840  177.4520  137.9730 C   0  0  0  0  0  0  0  0  0  0  0  0
  183.9840  179.0740  138.0800 C   0  0  1  0  0  3  0  0  0  0  0  0
  183.0930  177.4690  140.6280 C   0  0  0  0  0  2  0  0  0  0  0  0
  180.6560  177.9580  136.9730 C   0  0  0  0  0  2  0  0  0  0  0  0
  185.5080  178.0320  139.9790 C   0  0  1  0  0  3  0  0  0  0  0  0
  185.3880  178.6270  138.5600 C   0  0  1  0  0  3  0  0  0  0  0  0
  180.6310  176.2610  138.7790 C   0  0  0  0  0  0  0  0  0  0  0  0
  181.4530  178.6160  138.0830 C   0  0  2  0  0  3  0  0  0  0  0  0
  179.7200  175.4520  138.8670 O   0  0  0  0  0  0  0  0  0  0  0  0
  182.8610  178.0040  138.1220 C   0  0  2  0  0  3  0  0  0  0  0  0
  186.7010  178.4770  140.5530 O   0  0  0  0  0  1  0  0  0  0  0  0
  184.6680  178.2480  142.2370 O   0  0  0  0  0  1  0  0  0  0  0  0
  180.2840  177.6820  138.4150 C   0  0  1  0  0  3  0  0  0  0  0  0
  182.0340  175.7920  139.0580 C   0  0  2  0  0  3  0  0  0  0  0  0
  183.0350  176.9280  139.2000 C   0  0  2  0  0  3  0  0  0  0  0  0
  182.4910  174.8300  137.9770 C   0  0  0  0  0  1  0  0  0  0  0  0
  184.3120  178.3620  140.8910 C   0  0  2  0  0  3  0  0  0  0  0  0
  183.6120  180.4080  138.7180 C   0  0  0  0  0  1  0  0  0  0  0  0
  191.7820  176.8380  138.7010 C   0  0  0  0  0  0  0  0  0  0  0  0
  192.6470  176.3720  137.7180 O   0  0  0  0  0  0  0  0  0  0  0  0
  192.2500  177.1120  139.8390 O   0  0  0  0  0  1  0  0  0  0  0  0
  1  7  1  6  0  0  0
  1 14  1  0  0  0  0
  2 10  1  0  0  0  0
  3  6  1  1  0  0  0
  3 12  1  0  0  0  0
  4  7  1  0  0  0  0
  5  4  1  0  0  0  0
  8  5  1  6  0  0  0
  8  6  1  0  0  0  0
  8  3  1  0  0  0  0
  9  2  1  0  0  0  0
 10 32  1  0  0  0  0
 10 11  2  0  0  0  0
 12  2  2  0  0  0  0
 12 14  1  0  0  0  0
 13 11  1  0  0  0  0
 14 13  2  0  0  0  0
 15 23  1  0  0  0  0
 15 19  1  0  0  0  0
 15 31  1  1  0  0  0
 16 30  1  0  0  0  0
 17 26  1  0  0  0  0
 18 24  1  1  0  0  0
 18 30  1  0  0  0  0
 19  1  1  6  0  0  0
 19 18  1  0  0  0  0
 20 22  2  0  0  0  0
 20 27  1  0  0  0  0
 21 17  1  6  0  0  0
 21 23  1  0  0  0  0
 21 26  1  0  0  0  0
 23 28  1  0  0  0  0
 26 20  1  0  0  0  0
 27 28  1  0  0  0  0
 28 16  1  0  0  0  0
 29 27  1  0  0  0  0
 30 25  1  0  0  0  0
 32 34  1  0  0  0  0
 33 32  2  0  0  0  0
M  END
>  <MODEL>
8

>  <REMARK>
 VINA RESULT:      -4.9      4.063      7.123
  Name = 
  2 active torsions:
  status: ('A' for Active; 'I' for Inactive)
    1  A    between atoms: C_1  and  C_9
    2  A    between atoms: C_3  and  C_25
                            x       y       z     vdW  Elec       q    Type
                         _______ _______ _______ _____ _____    ______ ____

>  <TORSDO>
F 2

$$$$
=
 OpenBabel11052416023D

 34 39  0  0  1  0  0  0  0  0999 V2000
  183.6620  176.1360  137.2260 C   0  0  1  0  0  3  0  0  0  0  0  0
  186.3710  173.9920  135.5940 C   0  0  0  0  0  0  0  0  0  0  0  0
  185.6060  176.2070  134.7830 C   0  0  1  0  0  3  0  0  0  0  0  0
  185.7680  177.3540  137.8300 C   0  0  0  0  0  2  0  0  0  0  0  0
  185.6250  178.2660  136.6290 C   0  0  0  0  0  2  0  0  0  0  0  0
  184.5400  177.2650  134.7030 C   0  0  0  0  0  2  0  0  0  0  0  0
  184.3820  176.9380  138.3090 C   0  0  0  0  0  2  0  0  0  0  0  0
  185.9150  177.6440  135.2540 C   0  0  2  0  0  3  0  0  0  0  0  0
  187.3370  174.0860  134.5940 O   0  0  0  0  0  1  0  0  0  0  0  0
  186.2870  172.8230  136.3820 C   0  0  0  0  0  0  0  0  0  0  0  0
  185.3100  172.7440  137.3760 C   0  0  0  0  0  3  0  0  0  0  0  0
  185.4800  175.0710  135.7950 C   0  0  0  0  0  0  0  0  0  0  0  0
  184.4350  173.8000  137.5940 C   0  0  0  0  0  3  0  0  0  0  0  0
  184.4880  174.9570  136.8070 C   0  0  0  0  0  0  0  0  0  0  0  0
  181.7640  176.0520  139.0040 C   0  0  1  0  0  3  0  0  0  0  0  0
  179.7030  177.9860  137.6350 C   0  0  0  0  0  2  0  0  0  0  0  0
  181.3610  178.5280  141.6960 C   0  0  0  0  0  2  0  0  0  0  0  0
  181.2600  176.3490  136.4210 C   0  0  1  0  0  3  0  0  0  0  0  0
  182.1910  175.8210  137.5330 C   0  0  1  0  0  3  0  0  0  0  0  0
  180.3620  180.1170  140.0760 C   0  0  0  0  0  0  0  0  0  0  0  0
  180.6510  177.6220  140.7090 C   0  0  2  0  0  3  0  0  0  0  0  0
  180.0770  181.2570  140.4110 O   0  0  0  0  0  0  0  0  0  0  0  0
  181.4890  177.5190  139.4270 C   0  0  2  0  0  3  0  0  0  0  0  0
  181.2460  175.4280  135.3710 O   0  0  0  0  0  1  0  0  0  0  0  0
  178.9310  176.6330  135.8320 O   0  0  0  0  0  1  0  0  0  0  0  0
  180.0760  179.0020  141.0500 C   0  0  1  0  0  3  0  0  0  0  0  0
  180.9590  179.8980  138.7130 C   0  0  2  0  0  3  0  0  0  0  0  0
  181.0040  178.4350  138.2980 C   0  0  2  0  0  3  0  0  0  0  0  0
  182.3520  180.4990  138.6470 C   0  0  0  0  0  1  0  0  0  0  0  0
  179.8270  176.6430  136.9030 C   0  0  2  0  0  3  0  0  0  0  0  0
  180.6680  175.0650  139.3930 C   0  0  0  0  0  1  0  0  0  0  0  0
  187.1990  171.6690  136.1940 C   0  0  0  0  0  0  0  0  0  0  0  0
  186.8700  170.6220  135.3410 O   0  0  0  0  0  0  0  0  0  0  0  0
  188.2960  171.6240  136.8130 O   0  0  0  0  0  1  0  0  0  0  0  0
  1  7  1  1  0  0  0
  2 12  2  0  0  0  0
  2 10  1  0  0  0  0
  3  6  1  1  0  0  0
  3  8  1  0  0  0  0
  3 12  1  0  0  0  0
  4  7  1  0  0  0  0
  5  4  1  0  0  0  0
  8  6  1  6  0  0  0
  8  5  1  0  0  0  0
  9  2  1  0  0  0  0
 10 11  2  0  0  0  0
 11 13  1  0  0  0  0
 12 14  1  0  0  0  0
 14  1  1  0  0  0  0
 14 13  2  0  0  0  0
 15 31  1  6  0  0  0
 15 23  1  0  0  0  0
 16 28  1  0  0  0  0
 18 24  1  6  0  0  0
 18 30  1  0  0  0  0
 18 19  1  0  0  0  0
 19  1  1  1  0  0  0
 19 15  1  0  0  0  0
 20 22  2  0  0  0  0
 20 26  1  0  0  0  0
 21 26  1  0  0  0  0
 21 17  1  1  0  0  0
 23 21  1  0  0  0  0
 25 30  1  0  0  0  0
 26 17  1  0  0  0  0
 27 20  1  0  0  0  0
 28 27  1  0  0  0  0
 28 23  1  0  0  0  0
 29 27  1  0  0  0  0
 30 16  1  0  0  0  0
 32 10  1  0  0  0  0
 32 34  1  0  0  0  0
 33 32  2  0  0  0  0
M  END
>  <MODEL>
9

>  <REMARK>
 VINA RESULT:      -4.9      2.615      7.539
  Name = 
  2 active torsions:
  status: ('A' for Active; 'I' for Inactive)
    1  A    between atoms: C_1  and  C_9
    2  A    between atoms: C_3  and  C_25
                            x       y       z     vdW  Elec       q    Type
                         _______ _______ _______ _____ _____    ______ ____

>  <TORSDO>
F 2

$$$$
