=
 OpenBabel11052413303D

 28 32  0  0  1  0  0  0  0  0999 V2000
  189.9680  177.4580  143.3360 C   0  0  1  0  0  3  0  0  0  0  0  0
  184.8950  178.5700  142.9070 C   0  0  0  0  0  3  0  0  0  0  0  0
  188.4250  177.5750  148.0680 C   0  0  0  0  0  1  0  0  0  0  0  0
  184.1760  178.6000  145.2270 C   0  0  0  0  0  0  0  0  0  0  0  0
  186.5510  178.1400  144.7480 C   0  0  0  0  0  0  0  0  0  0  0  0
  182.5770  179.0160  143.4560 C   0  0  0  0  0  0  0  0  0  0  0  0
  185.1920  178.4400  144.2700 C   0  0  0  0  0  0  0  0  0  0  0  0
  185.7670  178.1840  147.0520 C   0  0  0  0  0  3  0  0  0  0  0  0
  182.8710  178.8870  144.8180 C   0  0  0  0  0  3  0  0  0  0  0  0
  189.1670  177.5700  145.6710 C   0  0  0  0  0  0  0  0  0  0  0  0
  187.5410  177.9810  143.9190 N   0  0  0  0  0  0  0  0  0  0  0  0
  184.4720  178.4710  146.5920 O   0  0  0  0  0  0  0  0  0  0  0  0
  191.5240  177.3130  145.2810 C   0  0  0  0  0  3  0  0  0  0  0  0
  188.1210  177.7210  146.6500 N   0  0  0  0  0  0  0  0  0  0  0  0
  190.5070  177.2510  146.0890 N   0  0  0  0  0  0  0  0  0  0  0  0
  181.1890  179.3210  143.0230 C   0  0  0  0  0  1  0  0  0  0  0  0
  183.5880  178.8580  142.5030 C   0  0  0  0  0  3  0  0  0  0  0  0
  186.7880  178.0190  146.2000 C   0  0  0  0  0  0  0  0  0  0  0  0
  191.3600  177.8080  143.8730 C   0  0  0  0  0  2  0  0  0  0  0  0
  188.8850  177.7050  144.3570 C   0  0  0  0  0  0  0  0  0  0  0  0
  189.7080  178.1270  142.0980 O   0  0  0  0  0  0  0  0  0  0  0  0
  189.7720  177.5320  140.8290 C   0  0  0  0  0  0  0  0  0  0  0  0
  189.8260  176.3750  138.2730 C   0  0  0  0  0  0  0  0  0  0  0  0
  190.9390  176.9090  140.3550 C   0  0  0  0  0  3  0  0  0  0  0  0
  188.6360  177.5690  140.0120 C   0  0  0  0  0  3  0  0  0  0  0  0
  188.6620  176.9920  138.7390 C   0  0  0  0  0  3  0  0  0  0  0  0
  189.8510  175.8180  137.0400 F   0  0  0  0  0  0  0  0  0  0  0  0
  190.9650  176.3330  139.0820 C   0  0  0  0  0  3  0  0  0  0  0  0
  1 21  1  6  0  0  0
  1 19  1  0  0  0  0
  1 20  1  0  0  0  0
  2  7  1  0  0  0  0
  4 12  1  0  0  0  0
  5 18  1  0  0  0  0
  6  9  2  0  0  0  0
  7  5  1  0  0  0  0
  7  4  2  0  0  0  0
  9  4  1  0  0  0  0
 10 15  1  0  0  0  0
 10 14  1  0  0  0  0
 11 20  1  0  0  0  0
 11  5  2  0  0  0  0
 12  8  1  0  0  0  0
 13 15  2  0  0  0  0
 14  3  1  0  0  0  0
 16  6  1  0  0  0  0
 17  2  2  0  0  0  0
 17  6  1  0  0  0  0
 18 14  1  0  0  0  0
 18  8  2  0  0  0  0
 19 13  1  0  0  0  0
 20 10  2  0  0  0  0
 22 21  1  0  0  0  0
 23 26  2  0  0  0  0
 23 28  1  0  0  0  0
 24 22  1  0  0  0  0
 25 22  2  0  0  0  0
 26 25  1  0  0  0  0
 27 23  1  0  0  0  0
 28 24  2  0  0  0  0
M  END
>  <MODEL>
1

>  <REMARK>
 VINA RESULT:     -10.5      0.000      0.000
  Name = 
  2 active torsions:
  status: ('A' for Active; 'I' for Inactive)
    1  A    between atoms: C_1  and  O_2
    2  A    between atoms: O_2  and  C_3
                            x       y       z     vdW  Elec       q    Type
                         _______ _______ _______ _____ _____    ______ ____

>  <TORSDO>
F 2

$$$$
=
 OpenBabel11052413303D

 28 32  0  0  1  0  0  0  0  0999 V2000
  190.0800  177.0970  143.5710 C   0  0  1  0  0  3  0  0  0  0  0  0
  185.0670  178.3620  142.9170 C   0  0  0  0  0  3  0  0  0  0  0  0
  188.4400  177.6960  148.2330 C   0  0  0  0  0  1  0  0  0  0  0  0
  184.2990  178.6270  145.2060 C   0  0  0  0  0  0  0  0  0  0  0  0
  186.6640  178.0350  144.8300 C   0  0  0  0  0  0  0  0  0  0  0  0
  182.7580  178.9450  143.3660 C   0  0  0  0  0  0  0  0  0  0  0  0
  185.3280  178.3430  144.2930 C   0  0  0  0  0  0  0  0  0  0  0  0
  185.8320  178.3140  147.1010 C   0  0  0  0  0  3  0  0  0  0  0  0
  183.0160  178.9260  144.7400 C   0  0  0  0  0  3  0  0  0  0  0  0
  189.2330  177.4480  145.8660 C   0  0  0  0  0  0  0  0  0  0  0  0
  187.6640  177.7640  144.0440 N   0  0  0  0  0  0  0  0  0  0  0  0
  184.5600  178.6090  146.5850 O   0  0  0  0  0  0  0  0  0  0  0  0
  191.5850  177.0660  145.5600 C   0  0  0  0  0  3  0  0  0  0  0  0
  188.1730  177.7270  146.8010 N   0  0  0  0  0  0  0  0  0  0  0  0
  190.5490  177.1170  146.3440 N   0  0  0  0  0  0  0  0  0  0  0  0
  181.3930  179.2630  142.8720 C   0  0  0  0  0  1  0  0  0  0  0  0
  183.7820  178.6630  142.4560 C   0  0  0  0  0  3  0  0  0  0  0  0
  186.8640  178.0350  146.2920 C   0  0  0  0  0  0  0  0  0  0  0  0
  191.4720  177.4400  144.1110 C   0  0  0  0  0  2  0  0  0  0  0  0
  188.9850  177.4760  144.5380 C   0  0  0  0  0  0  0  0  0  0  0  0
  189.8740  177.6630  142.2720 O   0  0  0  0  0  0  0  0  0  0  0  0
  190.5970  177.3220  141.1190 C   0  0  0  0  0  0  0  0  0  0  0  0
  191.9720  176.6240  138.7750 C   0  0  0  0  0  0  0  0  0  0  0  0
  191.9770  177.5640  141.0050 C   0  0  0  0  0  3  0  0  0  0  0  0
  189.9160  176.7280  140.0510 C   0  0  0  0  0  3  0  0  0  0  0  0
  190.6000  176.3790  138.8830 C   0  0  0  0  0  3  0  0  0  0  0  0
  192.6340  176.2870  137.6430 F   0  0  0  0  0  0  0  0  0  0  0  0
  192.6610  177.2170  139.8370 C   0  0  0  0  0  3  0  0  0  0  0  0
  1 21  1  6  0  0  0
  1 19  1  0  0  0  0
  1 20  1  0  0  0  0
  2  7  1  0  0  0  0
  4 12  1  0  0  0  0
  5 18  1  0  0  0  0
  6  9  2  0  0  0  0
  7  5  1  0  0  0  0
  7  4  2  0  0  0  0
  9  4  1  0  0  0  0
 10 15  1  0  0  0  0
 10 14  1  0  0  0  0
 11 20  1  0  0  0  0
 11  5  2  0  0  0  0
 12  8  1  0  0  0  0
 13 15  2  0  0  0  0
 14  3  1  0  0  0  0
 16  6  1  0  0  0  0
 17  2  2  0  0  0  0
 17  6  1  0  0  0  0
 18 14  1  0  0  0  0
 18  8  2  0  0  0  0
 19 13  1  0  0  0  0
 20 10  2  0  0  0  0
 22 21  1  0  0  0  0
 23 26  2  0  0  0  0
 23 28  1  0  0  0  0
 24 22  1  0  0  0  0
 25 22  2  0  0  0  0
 26 25  1  0  0  0  0
 27 23  1  0  0  0  0
 28 24  2  0  0  0  0
M  END
>  <MODEL>
2

>  <REMARK>
 VINA RESULT:     -10.5      0.814      1.006
  Name = 
  2 active torsions:
  status: ('A' for Active; 'I' for Inactive)
    1  A    between atoms: C_1  and  O_2
    2  A    between atoms: O_2  and  C_3
                            x       y       z     vdW  Elec       q    Type
                         _______ _______ _______ _____ _____    ______ ____

>  <TORSDO>
F 2

$$$$
=
 OpenBabel11052413303D

 28 32  0  0  1  0  0  0  0  0999 V2000
  189.2420  177.2280  143.2630 C   0  0  1  0  0  3  0  0  0  0  0  0
  184.1650  178.3260  143.6940 C   0  0  0  0  0  3  0  0  0  0  0  0
  187.9430  178.4490  138.6140 C   0  0  0  0  0  1  0  0  0  0  0  0
  183.5740  178.9340  141.4170 C   0  0  0  0  0  0  0  0  0  0  0  0
  185.9040  178.2680  141.8790 C   0  0  0  0  0  0  0  0  0  0  0  0
  181.8960  178.9890  143.1620 C   0  0  0  0  0  0  0  0  0  0  0  0
  184.5320  178.5100  142.3540 C   0  0  0  0  0  0  0  0  0  0  0  0
  185.2480  178.8890  139.6190 C   0  0  0  0  0  3  0  0  0  0  0  0
  182.2590  179.1730  141.8240 C   0  0  0  0  0  3  0  0  0  0  0  0
  188.5420  177.7990  140.9630 C   0  0  0  0  0  0  0  0  0  0  0  0
  186.8410  177.8730  142.6900 N   0  0  0  0  0  0  0  0  0  0  0  0
  183.9400  179.1170  140.0750 O   0  0  0  0  0  0  0  0  0  0  0  0
  190.7710  176.9730  141.3090 C   0  0  0  0  0  3  0  0  0  0  0  0
  187.5620  178.2470  140.0070 N   0  0  0  0  0  0  0  0  0  0  0  0
  189.9020  177.5750  140.5510 N   0  0  0  0  0  0  0  0  0  0  0  0
  180.4970  179.2440  143.5920 C   0  0  0  0  0  1  0  0  0  0  0  0
  182.8480  178.5660  144.0950 C   0  0  0  0  0  3  0  0  0  0  0  0
  186.2150  178.4820  140.4530 C   0  0  0  0  0  0  0  0  0  0  0  0
  190.3690  176.4010  142.6370 C   0  0  0  0  0  2  0  0  0  0  0  0
  188.1880  177.6120  142.2530 C   0  0  0  0  0  0  0  0  0  0  0  0
  188.6830  176.5640  144.4020 O   0  0  0  0  0  0  0  0  0  0  0  0
  188.6970  177.0610  145.7140 C   0  0  0  0  0  0  0  0  0  0  0  0
  188.6420  178.0620  148.3340 C   0  0  0  0  0  0  0  0  0  0  0  0
  189.8580  177.0480  146.5040 C   0  0  0  0  0  3  0  0  0  0  0  0
  187.5120  177.5800  146.2470 C   0  0  0  0  0  3  0  0  0  0  0  0
  187.4840  178.0790  147.5530 C   0  0  0  0  0  3  0  0  0  0  0  0
  188.6140  178.5440  149.5990 F   0  0  0  0  0  0  0  0  0  0  0  0
  189.8300  177.5460  147.8100 C   0  0  0  0  0  3  0  0  0  0  0  0
  1 21  1  1  0  0  0
  2 17  1  0  0  0  0
  3 14  1  0  0  0  0
  4  9  2  0  0  0  0
  4  7  1  0  0  0  0
  5  7  1  0  0  0  0
  5 11  2  0  0  0  0
  6 16  1  0  0  0  0
  6 17  2  0  0  0  0
  7  2  2  0  0  0  0
  8 12  1  0  0  0  0
  8 18  2  0  0  0  0
  9  6  1  0  0  0  0
 10 20  2  0  0  0  0
 12  4  1  0  0  0  0
 13 19  1  0  0  0  0
 14 18  1  0  0  0  0
 14 10  1  0  0  0  0
 15 10  1  0  0  0  0
 15 13  2  0  0  0  0
 18  5  1  0  0  0  0
 19  1  1  0  0  0  0
 20 11  1  0  0  0  0
 20  1  1  0  0  0  0
 21 22  1  0  0  0  0
 22 25  2  0  0  0  0
 22 24  1  0  0  0  0
 23 27  1  0  0  0  0
 24 28  2  0  0  0  0
 25 26  1  0  0  0  0
 26 23  2  0  0  0  0
 28 23  1  0  0  0  0
M  END
>  <MODEL>
3

>  <REMARK>
 VINA RESULT:      -9.8      3.237      5.787
  Name = 
  2 active torsions:
  status: ('A' for Active; 'I' for Inactive)
    1  A    between atoms: C_1  and  O_2
    2  A    between atoms: O_2  and  C_3
                            x       y       z     vdW  Elec       q    Type
                         _______ _______ _______ _____ _____    ______ ____

>  <TORSDO>
F 2

$$$$
=
 OpenBabel11052413303D

 28 32  0  0  1  0  0  0  0  0999 V2000
  187.2850  178.5350  140.8270 C   0  0  1  0  0  3  0  0  0  0  0  0
  190.4510  176.9790  144.6630 C   0  0  0  0  0  3  0  0  0  0  0  0
  184.3830  178.7750  144.8660 C   0  0  0  0  0  1  0  0  0  0  0  0
  189.0100  177.1280  146.6130 C   0  0  0  0  0  0  0  0  0  0  0  0
  188.0640  177.7260  144.4160 C   0  0  0  0  0  0  0  0  0  0  0  0
  191.3090  176.4060  146.8550 C   0  0  0  0  0  0  0  0  0  0  0  0
  189.2030  177.2710  145.2290 C   0  0  0  0  0  0  0  0  0  0  0  0
  186.6720  177.8540  146.4080 C   0  0  0  0  0  3  0  0  0  0  0  0
  190.0640  176.6960  147.4230 C   0  0  0  0  0  3  0  0  0  0  0  0
  185.8700  178.5970  142.8520 C   0  0  0  0  0  0  0  0  0  0  0  0
  188.1690  177.8800  143.1280 N   0  0  0  0  0  0  0  0  0  0  0  0
  187.7600  177.4180  147.1800 O   0  0  0  0  0  0  0  0  0  0  0  0
  184.8370  179.0030  140.7210 C   0  0  0  0  0  3  0  0  0  0  0  0
  185.6780  178.4620  144.2730 N   0  0  0  0  0  0  0  0  0  0  0  0
  184.7920  179.0630  142.0190 N   0  0  0  0  0  0  0  0  0  0  0  0
  192.4280  175.9480  147.7180 C   0  0  0  0  0  1  0  0  0  0  0  0
  191.5020  176.5470  145.4770 C   0  0  0  0  0  3  0  0  0  0  0  0
  186.7790  178.0130  145.0820 C   0  0  0  0  0  0  0  0  0  0  0  0
  185.9950  178.3550  140.0200 C   0  0  0  0  0  2  0  0  0  0  0  0
  187.0690  178.3060  142.3030 C   0  0  0  0  0  0  0  0  0  0  0  0
  188.3420  177.7250  140.3030 O   0  0  0  0  0  0  0  0  0  0  0  0
  188.6940  177.6340  138.9480 C   0  0  0  0  0  0  0  0  0  0  0  0
  189.3730  177.3730  136.2380 C   0  0  0  0  0  0  0  0  0  0  0  0
  189.0550  178.7630  138.1930 C   0  0  0  0  0  3  0  0  0  0  0  0
  188.6770  176.3770  138.3330 C   0  0  0  0  0  3  0  0  0  0  0  0
  189.0160  176.2460  136.9830 C   0  0  0  0  0  3  0  0  0  0  0  0
  189.7000  177.2460  134.9300 F   0  0  0  0  0  0  0  0  0  0  0  0
  189.3930  178.6320  136.8440 C   0  0  0  0  0  3  0  0  0  0  0  0
  1 21  1  6  0  0  0
  1 20  1  0  0  0  0
  2  7  2  0  0  0  0
  2 17  1  0  0  0  0
  4 12  1  0  0  0  0
  4  9  2  0  0  0  0
  5 18  1  0  0  0  0
  5  7  1  0  0  0  0
  6  9  1  0  0  0  0
  6 16  1  0  0  0  0
  7  4  1  0  0  0  0
  8 12  1  0  0  0  0
 10 14  1  0  0  0  0
 11  5  2  0  0  0  0
 13 15  2  0  0  0  0
 14  3  1  0  0  0  0
 14 18  1  0  0  0  0
 15 10  1  0  0  0  0
 17  6  2  0  0  0  0
 18  8  2  0  0  0  0
 19 13  1  0  0  0  0
 19  1  1  0  0  0  0
 20 10  2  0  0  0  0
 20 11  1  0  0  0  0
 22 21  1  0  0  0  0
 23 28  2  0  0  0  0
 23 26  1  0  0  0  0
 24 22  2  0  0  0  0
 25 22  1  0  0  0  0
 26 25  2  0  0  0  0
 27 23  1  0  0  0  0
 28 24  1  0  0  0  0
M  END
>  <MODEL>
4

>  <REMARK>
 VINA RESULT:      -9.7      1.996      5.335
  Name = 
  2 active torsions:
  status: ('A' for Active; 'I' for Inactive)
    1  A    between atoms: C_1  and  O_2
    2  A    between atoms: O_2  and  C_3
                            x       y       z     vdW  Elec       q    Type
                         _______ _______ _______ _____ _____    ______ ____

>  <TORSDO>
F 2

$$$$
=
 OpenBabel11052413303D

 28 32  0  0  1  0  0  0  0  0999 V2000
  187.6060  177.8970  138.8110 C   0  0  1  0  0  3  0  0  0  0  0  0
  187.6530  177.6580  144.0170 C   0  0  0  0  0  3  0  0  0  0  0  0
  192.4140  177.1590  139.8730 C   0  0  0  0  0  1  0  0  0  0  0  0
  190.0040  177.2790  144.4940 C   0  0  0  0  0  0  0  0  0  0  0  0
  189.3160  177.5130  142.1370 C   0  0  0  0  0  0  0  0  0  0  0  0
  188.4050  177.4200  146.3070 C   0  0  0  0  0  0  0  0  0  0  0  0
  188.9680  177.4840  143.5670 C   0  0  0  0  0  0  0  0  0  0  0  0
  191.6570  177.1320  142.6820 C   0  0  0  0  0  3  0  0  0  0  0  0
  189.7200  177.2470  145.8620 C   0  0  0  0  0  3  0  0  0  0  0  0
  189.9870  177.5740  139.3870 C   0  0  0  0  0  0  0  0  0  0  0  0
  188.4090  177.7010  141.2240 N   0  0  0  0  0  0  0  0  0  0  0  0
  191.3220  177.1070  144.0460 O   0  0  0  0  0  0  0  0  0  0  0  0
  189.4110  177.9890  137.0920 C   0  0  0  0  0  3  0  0  0  0  0  0
  191.0460  177.3500  140.3380 N   0  0  0  0  0  0  0  0  0  0  0  0
  190.2740  177.5850  137.9770 N   0  0  0  0  0  0  0  0  0  0  0  0
  188.1050  177.3840  147.7620 C   0  0  0  0  0  1  0  0  0  0  0  0
  187.3740  177.6250  145.3860 C   0  0  0  0  0  3  0  0  0  0  0  0
  190.7240  177.3250  141.7400 C   0  0  0  0  0  0  0  0  0  0  0  0
  188.0840  178.5520  137.5110 C   0  0  0  0  0  2  0  0  0  0  0  0
  188.7200  177.7510  139.8190 C   0  0  0  0  0  0  0  0  0  0  0  0
  186.4730  178.5860  139.3510 O   0  0  0  0  0  0  0  0  0  0  0  0
  185.1650  178.5070  138.8500 C   0  0  0  0  0  0  0  0  0  0  0  0
  182.5320  178.4220  137.8840 C   0  0  0  0  0  0  0  0  0  0  0  0
  184.7860  177.5420  137.9020 C   0  0  0  0  0  3  0  0  0  0  0  0
  184.2150  179.4260  139.3080 C   0  0  0  0  0  3  0  0  0  0  0  0
  182.9020  179.3840  138.8280 C   0  0  0  0  0  3  0  0  0  0  0  0
  181.2620  178.3820  137.4180 F   0  0  0  0  0  0  0  0  0  0  0  0
  183.4750  177.5000  137.4210 C   0  0  0  0  0  3  0  0  0  0  0  0
  1 21  1  1  0  0  0
  1 20  1  0  0  0  0
  2 17  1  0  0  0  0
  3 14  1  0  0  0  0
  4  9  2  0  0  0  0
  5  7  1  0  0  0  0
  6 16  1  0  0  0  0
  7  2  2  0  0  0  0
  7  4  1  0  0  0  0
  8 12  1  0  0  0  0
  9  6  1  0  0  0  0
 10 20  2  0  0  0  0
 10 14  1  0  0  0  0
 11  5  2  0  0  0  0
 12  4  1  0  0  0  0
 13 19  1  0  0  0  0
 13 15  2  0  0  0  0
 14 18  1  0  0  0  0
 15 10  1  0  0  0  0
 17  6  2  0  0  0  0
 18  5  1  0  0  0  0
 18  8  2  0  0  0  0
 19  1  1  0  0  0  0
 20 11  1  0  0  0  0
 22 25  1  0  0  0  0
 22 21  1  0  0  0  0
 23 26  1  0  0  0  0
 24 22  2  0  0  0  0
 26 25  2  0  0  0  0
 27 23  1  0  0  0  0
 28 23  2  0  0  0  0
 28 24  1  0  0  0  0
M  END
>  <MODEL>
5

>  <REMARK>
 VINA RESULT:      -9.5      3.469      6.497
  Name = 
  2 active torsions:
  status: ('A' for Active; 'I' for Inactive)
    1  A    between atoms: C_1  and  O_2
    2  A    between atoms: O_2  and  C_3
                            x       y       z     vdW  Elec       q    Type
                         _______ _______ _______ _____ _____    ______ ____

>  <TORSDO>
F 2

$$$$
=
 OpenBabel11052413303D

 28 32  0  0  1  0  0  0  0  0999 V2000
  187.1160  177.9690  145.6180 C   0  0  1  0  0  3  0  0  0  0  0  0
  188.1340  178.0780  140.5080 C   0  0  0  0  0  3  0  0  0  0  0  0
  182.6830  178.9930  143.5950 C   0  0  0  0  0  1  0  0  0  0  0  0
  185.9510  178.5590  139.5570 C   0  0  0  0  0  0  0  0  0  0  0  0
  186.1450  178.3990  142.0100 C   0  0  0  0  0  0  0  0  0  0  0  0
  187.8650  178.2510  138.1060 C   0  0  0  0  0  0  0  0  0  0  0  0
  186.7690  178.3390  140.6780 C   0  0  0  0  0  0  0  0  0  0  0  0
  183.9850  178.8780  140.9960 C   0  0  0  0  0  3  0  0  0  0  0  0
  186.5010  178.5140  138.2730 C   0  0  0  0  0  3  0  0  0  0  0  0
  184.9450  178.5190  144.5730 C   0  0  0  0  0  0  0  0  0  0  0  0
  186.8410  178.2080  143.0930 N   0  0  0  0  0  0  0  0  0  0  0  0
  184.5840  178.8220  139.7270 O   0  0  0  0  0  0  0  0  0  0  0  0
  185.1070  178.5710  146.9690 C   0  0  0  0  0  3  0  0  0  0  0  0
  184.1060  178.7310  143.4200 N   0  0  0  0  0  0  0  0  0  0  0  0
  184.3760  178.5420  145.8940 N   0  0  0  0  0  0  0  0  0  0  0  0
  188.4490  178.2030  136.7400 C   0  0  0  0  0  1  0  0  0  0  0  0
  188.6800  178.0340  139.2210 C   0  0  0  0  0  3  0  0  0  0  0  0
  184.7010  178.6820  142.1120 C   0  0  0  0  0  0  0  0  0  0  0  0
  186.6030  178.6690  146.8800 C   0  0  0  0  0  2  0  0  0  0  0  0
  186.2640  178.2770  144.4100 C   0  0  0  0  0  0  0  0  0  0  0  0
  188.4990  178.2590  145.3910 O   0  0  0  0  0  0  0  0  0  0  0  0
  189.5740  177.5040  145.8850 C   0  0  0  0  0  0  0  0  0  0  0  0
  191.7610  176.0040  146.8000 C   0  0  0  0  0  0  0  0  0  0  0  0
  189.6600  177.1230  147.2340 C   0  0  0  0  0  3  0  0  0  0  0  0
  190.5910  177.1260  145.0010 C   0  0  0  0  0  3  0  0  0  0  0  0
  191.6810  176.3780  145.4550 C   0  0  0  0  0  3  0  0  0  0  0  0
  192.8180  175.2800  147.2400 F   0  0  0  0  0  0  0  0  0  0  0  0
  190.7500  176.3760  147.6890 C   0  0  0  0  0  3  0  0  0  0  0  0
  1 21  1  6  0  0  0
  1 19  1  0  0  0  0
  2  7  1  0  0  0  0
  4 12  1  0  0  0  0
  4  7  2  0  0  0  0
  5 18  1  0  0  0  0
  5 11  2  0  0  0  0
  6  9  2  0  0  0  0
  6 17  1  0  0  0  0
  7  5  1  0  0  0  0
  8 18  2  0  0  0  0
  9  4  1  0  0  0  0
 10 15  1  0  0  0  0
 11 20  1  0  0  0  0
 12  8  1  0  0  0  0
 14  3  1  0  0  0  0
 14 10  1  0  0  0  0
 15 13  2  0  0  0  0
 16  6  1  0  0  0  0
 17  2  2  0  0  0  0
 18 14  1  0  0  0  0
 19 13  1  0  0  0  0
 20 10  2  0  0  0  0
 20  1  1  0  0  0  0
 21 22  1  0  0  0  0
 22 24  1  0  0  0  0
 23 27  1  0  0  0  0
 23 28  1  0  0  0  0
 24 28  2  0  0  0  0
 25 26  1  0  0  0  0
 25 22  2  0  0  0  0
 26 23  2  0  0  0  0
M  END
>  <MODEL>
6

>  <REMARK>
 VINA RESULT:      -9.4      2.923      6.280
  Name = 
  2 active torsions:
  status: ('A' for Active; 'I' for Inactive)
    1  A    between atoms: C_1  and  O_2
    2  A    between atoms: O_2  and  C_3
                            x       y       z     vdW  Elec       q    Type
                         _______ _______ _______ _____ _____    ______ ____

>  <TORSDO>
F 2

$$$$
=
 OpenBabel11052413303D

 28 32  0  0  1  0  0  0  0  0999 V2000
  189.2520  177.5880  139.9680 C   0  0  1  0  0  3  0  0  0  0  0  0
  188.4410  177.5430  145.1160 C   0  0  0  0  0  3  0  0  0  0  0  0
  184.5440  179.1500  140.3920 C   0  0  0  0  0  1  0  0  0  0  0  0
  186.1470  178.3270  145.2830 C   0  0  0  0  0  0  0  0  0  0  0  0
  187.1410  178.0990  143.0370 C   0  0  0  0  0  0  0  0  0  0  0  0
  187.3950  177.7910  147.2880 C   0  0  0  0  0  0  0  0  0  0  0  0
  187.2620  177.9840  144.5000 C   0  0  0  0  0  0  0  0  0  0  0  0
  184.8470  178.8800  143.2720 C   0  0  0  0  0  3  0  0  0  0  0  0
  186.2170  178.2300  146.6750 C   0  0  0  0  0  3  0  0  0  0  0  0
  186.9050  178.3170  140.2240 C   0  0  0  0  0  0  0  0  0  0  0  0
  188.1320  177.7970  142.2500 N   0  0  0  0  0  0  0  0  0  0  0  0
  184.9660  178.7670  144.6670 O   0  0  0  0  0  0  0  0  0  0  0  0
  187.7480  177.9290  138.0080 C   0  0  0  0  0  3  0  0  0  0  0  0
  185.7670  178.6810  141.0300 N   0  0  0  0  0  0  0  0  0  0  0  0
  186.8430  178.4370  138.7910 N   0  0  0  0  0  0  0  0  0  0  0  0
  187.4680  177.6900  148.7690 C   0  0  0  0  0  1  0  0  0  0  0  0
  188.5050  177.4480  146.5090 C   0  0  0  0  0  3  0  0  0  0  0  0
  185.8670  178.5690  142.4600 C   0  0  0  0  0  0  0  0  0  0  0  0
  188.8730  177.1060  138.5640 C   0  0  0  0  0  2  0  0  0  0  0  0
  188.0390  177.8820  140.8160 C   0  0  0  0  0  0  0  0  0  0  0  0
  190.1480  176.6710  140.6060 O   0  0  0  0  0  0  0  0  0  0  0  0
  190.6520  176.8080  141.9080 C   0  0  0  0  0  0  0  0  0  0  0  0
  191.6530  177.0020  144.5220 C   0  0  0  0  0  0  0  0  0  0  0  0
  191.2180  178.0100  142.3650 C   0  0  0  0  0  3  0  0  0  0  0  0
  190.5920  175.7090  142.7700 C   0  0  0  0  0  3  0  0  0  0  0  0
  191.0900  175.8040  144.0740 C   0  0  0  0  0  3  0  0  0  0  0  0
  192.1360  177.0940  145.7830 F   0  0  0  0  0  0  0  0  0  0  0  0
  191.7160  178.1060  143.6680 C   0  0  0  0  0  3  0  0  0  0  0  0
  1 21  1  1  0  0  0
  1 20  1  0  0  0  0
  2 17  1  0  0  0  0
  3 14  1  0  0  0  0
  4  9  2  0  0  0  0
  5  7  1  0  0  0  0
  6 16  1  0  0  0  0
  7  2  2  0  0  0  0
  7  4  1  0  0  0  0
  8 12  1  0  0  0  0
  9  6  1  0  0  0  0
 10 20  2  0  0  0  0
 10 14  1  0  0  0  0
 11  5  2  0  0  0  0
 12  4  1  0  0  0  0
 13 19  1  0  0  0  0
 13 15  2  0  0  0  0
 14 18  1  0  0  0  0
 15 10  1  0  0  0  0
 17  6  2  0  0  0  0
 18  5  1  0  0  0  0
 18  8  2  0  0  0  0
 19  1  1  0  0  0  0
 20 11  1  0  0  0  0
 21 22  1  0  0  0  0
 22 24  2  0  0  0  0
 22 25  1  0  0  0  0
 23 27  1  0  0  0  0
 24 28  1  0  0  0  0
 25 26  2  0  0  0  0
 26 23  1  0  0  0  0
 28 23  2  0  0  0  0
M  END
>  <MODEL>
7

>  <REMARK>
 VINA RESULT:      -9.4      2.584      5.343
  Name = 
  2 active torsions:
  status: ('A' for Active; 'I' for Inactive)
    1  A    between atoms: C_1  and  O_2
    2  A    between atoms: O_2  and  C_3
                            x       y       z     vdW  Elec       q    Type
                         _______ _______ _______ _____ _____    ______ ____

>  <TORSDO>
F 2

$$$$
=
 OpenBabel11052413303D

 28 32  0  0  1  0  0  0  0  0999 V2000
  188.9380  177.9120  142.6270 C   0  0  1  0  0  3  0  0  0  0  0  0
  183.8650  178.5710  143.6210 C   0  0  0  0  0  3  0  0  0  0  0  0
  186.9470  178.4180  138.0930 C   0  0  0  0  0  1  0  0  0  0  0  0
  182.9330  178.8330  141.3930 C   0  0  0  0  0  0  0  0  0  0  0  0
  185.3610  178.4530  141.6040 C   0  0  0  0  0  0  0  0  0  0  0  0
  181.4880  178.9460  143.3330 C   0  0  0  0  0  0  0  0  0  0  0  0
  184.0400  178.6210  142.2320 C   0  0  0  0  0  0  0  0  0  0  0  0
  184.3660  178.7230  139.3990 C   0  0  0  0  0  3  0  0  0  0  0  0
  181.6600  178.9950  141.9450 C   0  0  0  0  0  3  0  0  0  0  0  0
  187.9000  178.1240  140.3950 C   0  0  0  0  0  0  0  0  0  0  0  0
  186.4290  178.2510  142.3190 N   0  0  0  0  0  0  0  0  0  0  0  0
  183.1070  178.8820  140.0010 O   0  0  0  0  0  0  0  0  0  0  0  0
  190.2320  177.5620  140.5240 C   0  0  0  0  0  3  0  0  0  0  0  0
  186.7660  178.3550  139.5370 N   0  0  0  0  0  0  0  0  0  0  0  0
  189.2150  177.9800  139.8290 N   0  0  0  0  0  0  0  0  0  0  0  0
  180.1340  179.1190  143.9190 C   0  0  0  0  0  1  0  0  0  0  0  0
  182.5890  178.7340  144.1690 C   0  0  0  0  0  3  0  0  0  0  0  0
  185.4670  178.5160  140.1340 C   0  0  0  0  0  0  0  0  0  0  0  0
  190.0630  177.1230  141.9490 C   0  0  0  0  0  2  0  0  0  0  0  0
  187.7310  178.0660  141.7340 C   0  0  0  0  0  0  0  0  0  0  0  0
  188.6010  177.3450  143.8980 O   0  0  0  0  0  0  0  0  0  0  0  0
  189.4980  177.1520  144.9600 C   0  0  0  0  0  0  0  0  0  0  0  0
  191.2280  176.7700  147.1360 C   0  0  0  0  0  0  0  0  0  0  0  0
  190.8470  176.8220  144.7470 C   0  0  0  0  0  3  0  0  0  0  0  0
  189.0260  177.2890  146.2700 C   0  0  0  0  0  3  0  0  0  0  0  0
  189.8880  177.0990  147.3550 C   0  0  0  0  0  3  0  0  0  0  0  0
  192.0610  176.5850  148.1870 F   0  0  0  0  0  0  0  0  0  0  0  0
  191.7080  176.6320  145.8310 C   0  0  0  0  0  3  0  0  0  0  0  0
  1 21  1  1  0  0  0
  2 17  1  0  0  0  0
  3 14  1  0  0  0  0
  4  9  2  0  0  0  0
  4  7  1  0  0  0  0
  5  7  1  0  0  0  0
  5 11  2  0  0  0  0
  6 16  1  0  0  0  0
  6 17  2  0  0  0  0
  7  2  2  0  0  0  0
  8 12  1  0  0  0  0
  8 18  2  0  0  0  0
  9  6  1  0  0  0  0
 10 20  2  0  0  0  0
 12  4  1  0  0  0  0
 13 19  1  0  0  0  0
 14 18  1  0  0  0  0
 14 10  1  0  0  0  0
 15 10  1  0  0  0  0
 15 13  2  0  0  0  0
 18  5  1  0  0  0  0
 19  1  1  0  0  0  0
 20 11  1  0  0  0  0
 20  1  1  0  0  0  0
 21 22  1  0  0  0  0
 22 25  1  0  0  0  0
 23 26  1  0  0  0  0
 23 27  1  0  0  0  0
 24 22  2  0  0  0  0
 24 28  1  0  0  0  0
 25 26  2  0  0  0  0
 28 23  2  0  0  0  0
M  END
>  <MODEL>
8

>  <REMARK>
 VINA RESULT:      -9.2      3.155      5.608
  Name = 
  2 active torsions:
  status: ('A' for Active; 'I' for Inactive)
    1  A    between atoms: C_1  and  O_2
    2  A    between atoms: O_2  and  C_3
                            x       y       z     vdW  Elec       q    Type
                         _______ _______ _______ _____ _____    ______ ____

>  <TORSDO>
F 2

$$$$
=
 OpenBabel11052413303D

 28 32  0  0  1  0  0  0  0  0999 V2000
  189.7470  177.3030  143.5160 C   0  0  1  0  0  3  0  0  0  0  0  0
  184.7440  178.2830  142.4300 C   0  0  0  0  0  3  0  0  0  0  0  0
  189.8000  178.2030  138.6200 C   0  0  0  0  0  1  0  0  0  0  0  0
  184.8140  178.7350  140.0450 C   0  0  0  0  0  0  0  0  0  0  0  0
  186.9250  178.1640  141.1850 C   0  0  0  0  0  0  0  0  0  0  0  0
  182.7110  178.8490  141.2400 C   0  0  0  0  0  0  0  0  0  0  0  0
  185.4720  178.3950  141.2390 C   0  0  0  0  0  0  0  0  0  0  0  0
  186.9270  178.6280  138.7950 C   0  0  0  0  0  3  0  0  0  0  0  0
  183.4350  178.9610  140.0490 C   0  0  0  0  0  3  0  0  0  0  0  0
  189.7180  177.7140  141.0800 C   0  0  0  0  0  0  0  0  0  0  0  0
  187.5990  177.8450  142.2510 N   0  0  0  0  0  0  0  0  0  0  0  0
  185.5410  178.8460  138.8500 O   0  0  0  0  0  0  0  0  0  0  0  0
  191.7670  176.9730  142.0920 C   0  0  0  0  0  3  0  0  0  0  0  0
  189.0430  178.0750  139.8590 N   0  0  0  0  0  0  0  0  0  0  0  0
  191.1420  177.5030  141.0820 N   0  0  0  0  0  0  0  0  0  0  0  0
  181.2450  179.0900  141.2430 C   0  0  0  0  0  1  0  0  0  0  0  0
  183.3650  178.5100  142.4290 C   0  0  0  0  0  3  0  0  0  0  0  0
  187.6230  178.2990  139.8930 C   0  0  0  0  0  0  0  0  0  0  0  0
  191.0120  176.4710  143.2880 C   0  0  0  0  0  2  0  0  0  0  0  0
  189.0170  177.5950  142.2280 C   0  0  0  0  0  0  0  0  0  0  0  0
  188.8960  176.6940  144.4930 O   0  0  0  0  0  0  0  0  0  0  0  0
  188.6830  177.1780  145.7930 C   0  0  0  0  0  0  0  0  0  0  0  0
  188.1780  178.1560  148.3740 C   0  0  0  0  0  0  0  0  0  0  0  0
  189.6810  177.1270  146.7810 C   0  0  0  0  0  3  0  0  0  0  0  0
  187.4340  177.7240  146.1100 C   0  0  0  0  0  3  0  0  0  0  0  0
  187.1810  178.2120  147.3950 C   0  0  0  0  0  3  0  0  0  0  0  0
  187.9320  178.6270  149.6190 F   0  0  0  0  0  0  0  0  0  0  0  0
  189.4280  177.6130  148.0660 C   0  0  0  0  0  3  0  0  0  0  0  0
  1 21  1  1  0  0  0
  3 14  1  0  0  0  0
  4  9  2  0  0  0  0
  4  7  1  0  0  0  0
  5  7  1  0  0  0  0
  5 11  2  0  0  0  0
  6 16  1  0  0  0  0
  6 17  2  0  0  0  0
  7  2  2  0  0  0  0
  8 12  1  0  0  0  0
  8 18  2  0  0  0  0
  9  6  1  0  0  0  0
 10 15  1  0  0  0  0
 10 20  2  0  0  0  0
 12  4  1  0  0  0  0
 13 19  1  0  0  0  0
 14 18  1  0  0  0  0
 14 10  1  0  0  0  0
 15 13  2  0  0  0  0
 17  2  1  0  0  0  0
 18  5  1  0  0  0  0
 19  1  1  0  0  0  0
 20 11  1  0  0  0  0
 20  1  1  0  0  0  0
 21 22  1  0  0  0  0
 22 25  2  0  0  0  0
 22 24  1  0  0  0  0
 23 27  1  0  0  0  0
 24 28  2  0  0  0  0
 25 26  1  0  0  0  0
 26 23  2  0  0  0  0
 28 23  1  0  0  0  0
M  END
>  <MODEL>
9

>  <REMARK>
 VINA RESULT:      -9.2      3.305      6.022
  Name = 
  2 active torsions:
  status: ('A' for Active; 'I' for Inactive)
    1  A    between atoms: C_1  and  O_2
    2  A    between atoms: O_2  and  C_3
                            x       y       z     vdW  Elec       q    Type
                         _______ _______ _______ _____ _____    ______ ____

>  <TORSDO>
F 2

$$$$
