=
 OpenBabel11052412273D

 30 33  0  0  1  0  0  0  0  0999 V2000
  183.8160  178.2630  140.8680 C   0  0  0  0  0  2  0  0  0  0  0  0
  185.8180  178.2240  142.4890 C   0  0  2  0  0  3  0  0  0  0  0  0
  181.1470  179.4770  143.9460 N   0  0  0  0  0  0  0  0  0  0  0  0
  182.2690  178.2750  140.7910 C   0  0  1  0  0  3  0  0  0  0  0  0
  180.1190  179.6260  143.1790 C   0  0  0  0  0  0  0  0  0  0  0  0
  186.2110  177.8580  143.9290 C   0  0  0  0  0  2  0  0  0  0  0  0
  186.3510  179.6060  142.1390 C   0  0  0  0  0  1  0  0  0  0  0  0
  182.1240  178.8680  143.0600 C   0  0  1  0  0  3  0  0  0  0  0  0
  185.2250  178.3070  144.9910 C   0  0  0  0  0  3  0  0  0  0  0  0
  184.3000  178.1370  142.3290 C   0  0  1  0  0  3  0  0  0  0  0  0
  181.7790  179.2980  141.7160 N   0  0  2  0  0  0  0  0  0  0  0  0
  178.9310  180.0980  143.6250 F   0  0  0  0  0  0  0  0  0  0  0  0
  180.3850  179.3590  141.8070 N   0  0  0  0  0  2  0  0  0  0  0  0
  184.0190  178.8280  144.7080 C   0  0  0  0  0  3  0  0  0  0  0  0
  183.5960  179.1100  143.2940 C   0  0  2  0  0  3  0  0  0  0  0  0
  180.7000  177.8970  137.4940 O   0  0  0  0  0  0  0  0  0  0  0  0
  180.9620  177.6680  138.7060 C   0  0  0  0  0  0  0  0  0  0  0  0
  181.8510  178.5580  139.4150 N   0  0  0  0  0  0  0  0  0  0  0  0
  180.5730  175.1520  138.9680 C   0  0  0  0  0  3  0  0  0  0  0  0
  179.5200  176.5370  140.3250 O   0  0  0  0  0  0  0  0  0  0  0  0
  180.3590  176.4690  139.3220 C   0  0  0  0  0  0  0  0  0  0  0  0
  179.7830  174.4180  139.8340 C   0  0  0  0  0  3  0  0  0  0  0  0
  179.1440  175.3280  140.6560 C   0  0  0  0  0  3  0  0  0  0  0  0
  182.5240  179.6210  138.6710 C   0  0  0  0  0  2  0  0  0  0  0  0
  181.7510  180.9220  138.8100 C   0  0  0  0  0  2  0  0  0  0  0  0
  181.1510  181.3330  137.4800 C   0  0  0  0  0  2  0  0  0  0  0  0
  180.4650  182.6830  137.6000 C   0  0  0  0  0  2  0  0  0  0  0  0
  181.9780  184.6330  137.2780 O   0  0  0  0  0  1  0  0  0  0  0  0
  181.1560  183.6640  136.7210 C   0  0  0  0  0  0  0  0  0  0  0  0
  181.0020  183.6120  135.4730 O   0  0  0  0  0  0  0  0  0  0  0  0
  2  7  1  1  0  0  0
  2  6  1  0  0  0  0
  4 18  1  6  0  0  0
  4  1  1  0  0  0  0
  4 11  1  0  0  0  0
  5 12  1  0  0  0  0
  5  3  2  0  0  0  0
  6  9  1  0  0  0  0
  8 15  1  0  0  0  0
  8  3  1  1  0  0  0
 10  1  1  6  0  0  0
 10  2  1  0  0  0  0
 10 15  1  0  0  0  0
 11 13  1  1  0  0  0
 11  8  1  0  0  0  0
 13  5  1  0  0  0  0
 14  9  2  0  0  0  0
 15 14  1  1  0  0  0
 16 17  2  0  0  0  0
 17 21  1  0  0  0  0
 17 18  1  0  0  0  0
 19 21  2  0  0  0  0
 19 22  1  0  0  0  0
 20 23  1  0  0  0  0
 21 20  1  0  0  0  0
 22 23  2  0  0  0  0
 24 25  1  0  0  0  0
 24 18  1  0  0  0  0
 26 27  1  0  0  0  0
 26 25  1  0  0  0  0
 29 28  1  0  0  0  0
 29 27  1  0  0  0  0
 30 29  2  0  0  0  0
M  END
>  <MODEL>
1

>  <REMARK>
 VINA RESULT:      -6.1      0.000      0.000
  Name = 
  7 active torsions:
  status: ('A' for Active; 'I' for Inactive)
    1  A    between atoms: C_4  and  N_13
    2  A    between atoms: C_7  and  C_15
    3  A    between atoms: C_7  and  C_16
    4  A    between atoms: C_8  and  C_12
    5  A    between atoms: N_13  and  C_27
    6  A    between atoms: C_16  and  C_30
    7  A    between atoms: C_27  and  C_30
                            x       y       z     vdW  Elec       q    Type
                         _______ _______ _______ _____ _____    ______ ____

>  <TORSDO>
F 7

$$$$
=
 OpenBabel11052412273D

 30 33  0  0  1  0  0  0  0  0999 V2000
  188.5730  177.3020  140.5960 C   0  0  0  0  0  2  0  0  0  0  0  0
  188.9550  177.2270  143.1430 C   0  0  2  0  0  3  0  0  0  0  0  0
  184.8100  179.2250  141.0580 N   0  0  0  0  0  0  0  0  0  0  0  0
  187.4990  177.4940  139.4980 C   0  0  1  0  0  3  0  0  0  0  0  0
  184.5950  179.3990  139.7970 C   0  0  0  0  0  0  0  0  0  0  0  0
  188.2250  177.0060  144.4770 C   0  0  0  0  0  2  0  0  0  0  0  0
  189.8220  178.4760  143.2250 C   0  0  0  0  0  1  0  0  0  0  0  0
  186.0000  178.3900  141.0690 C   0  0  1  0  0  3  0  0  0  0  0  0
  186.8840  177.7080  144.5930 C   0  0  0  0  0  3  0  0  0  0  0  0
  187.9380  177.3080  142.0040 C   0  0  1  0  0  3  0  0  0  0  0  0
  186.7140  178.6820  139.8380 N   0  0  2  0  0  0  0  0  0  0  0  0
  183.5180  180.0680  139.3200 F   0  0  0  0  0  0  0  0  0  0  0  0
  185.6480  178.9250  138.9660 N   0  0  0  0  0  2  0  0  0  0  0  0
  186.2850  178.3320  143.5640 C   0  0  0  0  0  3  0  0  0  0  0  0
  186.9620  178.4780  142.2300 C   0  0  2  0  0  3  0  0  0  0  0  0
  188.3080  177.0350  135.9470 O   0  0  0  0  0  0  0  0  0  0  0  0
  187.6620  176.9530  137.0270 C   0  0  0  0  0  0  0  0  0  0  0  0
  188.1540  177.6450  138.1950 N   0  0  0  0  0  0  0  0  0  0  0  0
  186.3770  174.7460  137.1910 C   0  0  0  0  0  3  0  0  0  0  0  0
  185.2450  176.6170  136.8960 O   0  0  0  0  0  0  0  0  0  0  0  0
  186.4460  176.1160  137.0350 C   0  0  0  0  0  0  0  0  0  0  0  0
  185.0280  174.4490  137.1220 C   0  0  0  0  0  3  0  0  0  0  0  0
  184.3660  175.6470  136.9340 C   0  0  0  0  0  3  0  0  0  0  0  0
  189.4530  178.3110  138.1250 C   0  0  0  0  0  2  0  0  0  0  0  0
  190.4820  177.3770  137.5080 C   0  0  0  0  0  2  0  0  0  0  0  0
  190.8780  176.2920  138.4890 C   0  0  0  0  0  2  0  0  0  0  0  0
  192.0870  175.5270  137.9780 C   0  0  0  0  0  2  0  0  0  0  0  0
  193.9830  176.6640  136.8360 O   0  0  0  0  0  0  0  0  0  0  0  0
  193.2780  176.4180  138.0050 C   0  0  0  0  0  0  0  0  0  0  0  0
  193.6430  176.9520  139.0840 O   0  0  0  0  0  1  0  0  0  0  0  0
  2  7  1  1  0  0  0
  2  6  1  0  0  0  0
  4 18  1  6  0  0  0
  4 11  1  0  0  0  0
  4  1  1  0  0  0  0
  5  3  2  0  0  0  0
  6  9  1  0  0  0  0
  8  3  1  1  0  0  0
  8 15  1  0  0  0  0
 10  1  1  6  0  0  0
 10 15  1  0  0  0  0
 10  2  1  0  0  0  0
 11 13  1  6  0  0  0
 11  8  1  0  0  0  0
 12  5  1  0  0  0  0
 13  5  1  0  0  0  0
 14  9  2  0  0  0  0
 15 14  1  1  0  0  0
 16 17  2  0  0  0  0
 17 21  1  0  0  0  0
 17 18  1  0  0  0  0
 20 23  1  0  0  0  0
 20 21  1  0  0  0  0
 21 19  2  0  0  0  0
 22 19  1  0  0  0  0
 23 22  2  0  0  0  0
 24 18  1  0  0  0  0
 25 24  1  0  0  0  0
 25 26  1  0  0  0  0
 27 29  1  0  0  0  0
 27 26  1  0  0  0  0
 28 29  2  0  0  0  0
 29 30  1  0  0  0  0
M  END
>  <MODEL>
2

>  <REMARK>
 VINA RESULT:      -6.0      5.826      7.578
  Name = 
  7 active torsions:
  status: ('A' for Active; 'I' for Inactive)
    1  A    between atoms: C_4  and  N_13
    2  A    between atoms: C_7  and  C_15
    3  A    between atoms: C_7  and  C_16
    4  A    between atoms: C_8  and  C_12
    5  A    between atoms: N_13  and  C_27
    6  A    between atoms: C_16  and  C_30
    7  A    between atoms: C_27  and  C_30
                            x       y       z     vdW  Elec       q    Type
                         _______ _______ _______ _____ _____    ______ ____

>  <TORSDO>
F 7

$$$$
=
 OpenBabel11052412273D

 30 33  0  0  1  0  0  0  0  0999 V2000
  183.2770  177.1210  138.8990 C   0  0  0  0  0  2  0  0  0  0  0  0
  181.3320  175.5100  138.3910 C   0  0  2  0  0  3  0  0  0  0  0  0
  180.9250  180.5220  137.9140 N   0  0  0  0  0  0  0  0  0  0  0  0
  183.7940  178.5640  138.6820 C   0  0  1  0  0  3  0  0  0  0  0  0
  181.8120  181.3980  138.2510 C   0  0  0  0  0  0  0  0  0  0  0  0
  180.1600  175.2830  137.4230 C   0  0  0  0  0  2  0  0  0  0  0  0
  180.8560  175.3550  139.8290 C   0  0  0  0  0  1  0  0  0  0  0  0
  181.6560  179.2690  138.0130 C   0  0  1  0  0  3  0  0  0  0  0  0
  179.3540  176.5270  137.0970 C   0  0  0  0  0  3  0  0  0  0  0  0
  181.9550  176.8830  138.1380 C   0  0  1  0  0  3  0  0  0  0  0  0
  182.7030  179.4870  138.9970 N   0  0  2  0  0  0  0  0  0  0  0  0
  181.5760  182.7310  138.2210 F   0  0  0  0  0  0  0  0  0  0  0  0
  183.0120  180.8300  138.7630 N   0  0  0  0  0  2  0  0  0  0  0  0
  179.7190  177.7650  137.4730 C   0  0  0  0  0  3  0  0  0  0  0  0
  180.9150  177.9980  138.3540 C   0  0  2  0  0  3  0  0  0  0  0  0
  187.2460  178.5600  139.9330 O   0  0  0  0  0  0  0  0  0  0  0  0
  186.2860  178.4250  139.1260 C   0  0  0  0  0  0  0  0  0  0  0  0
  184.9560  178.8010  139.5440 N   0  0  0  0  0  0  0  0  0  0  0  0
  186.9920  178.5360  136.6690 C   0  0  0  0  0  3  0  0  0  0  0  0
  186.4950  176.5730  137.5450 O   0  0  0  0  0  0  0  0  0  0  0  0
  186.5850  177.8540  137.7980 C   0  0  0  0  0  0  0  0  0  0  0  0
  187.1330  177.5620  135.6970 C   0  0  0  0  0  3  0  0  0  0  0  0
  186.8070  176.3580  136.2920 C   0  0  0  0  0  3  0  0  0  0  0  0
  184.7410  179.2010  140.9340 C   0  0  0  0  0  2  0  0  0  0  0  0
  184.6730  177.9700  141.8240 C   0  0  0  0  0  2  0  0  0  0  0  0
  185.3460  178.2340  143.1560 C   0  0  0  0  0  2  0  0  0  0  0  0
  184.7340  179.4500  143.8290 C   0  0  0  0  0  2  0  0  0  0  0  0
  184.0510  178.8840  146.1540 O   0  0  0  0  0  1  0  0  0  0  0  0
  183.7130  179.0040  144.8140 C   0  0  0  0  0  0  0  0  0  0  0  0
  182.5420  178.7430  144.4350 O   0  0  0  0  0  0  0  0  0  0  0  0
  2  7  1  1  0  0  0
  3  5  2  0  0  0  0
  4  1  1  0  0  0  0
  4 11  1  0  0  0  0
  4 18  1  1  0  0  0
  5 13  1  0  0  0  0
  6  2  1  0  0  0  0
  8  3  1  1  0  0  0
  8 15  1  0  0  0  0
  8 11  1  0  0  0  0
  9  6  1  0  0  0  0
  9 14  2  0  0  0  0
 10 15  1  0  0  0  0
 10  2  1  0  0  0  0
 10  1  1  1  0  0  0
 11 13  1  6  0  0  0
 12  5  1  0  0  0  0
 15 14  1  6  0  0  0
 17 18  1  0  0  0  0
 17 16  2  0  0  0  0
 18 24  1  0  0  0  0
 19 21  2  0  0  0  0
 20 21  1  0  0  0  0
 21 17  1  0  0  0  0
 22 23  2  0  0  0  0
 22 19  1  0  0  0  0
 23 20  1  0  0  0  0
 24 25  1  0  0  0  0
 25 26  1  0  0  0  0
 26 27  1  0  0  0  0
 27 29  1  0  0  0  0
 29 28  1  0  0  0  0
 30 29  2  0  0  0  0
M  END
>  <MODEL>
3

>  <REMARK>
 VINA RESULT:      -5.8      3.623      7.008
  Name = 
  7 active torsions:
  status: ('A' for Active; 'I' for Inactive)
    1  A    between atoms: C_4  and  N_13
    2  A    between atoms: C_7  and  C_15
    3  A    between atoms: C_7  and  C_16
    4  A    between atoms: C_8  and  C_12
    5  A    between atoms: N_13  and  C_27
    6  A    between atoms: C_16  and  C_30
    7  A    between atoms: C_27  and  C_30
                            x       y       z     vdW  Elec       q    Type
                         _______ _______ _______ _____ _____    ______ ____

>  <TORSDO>
F 7

$$$$
=
 OpenBabel11052412273D

 30 33  0  0  1  0  0  0  0  0999 V2000
  188.7880  177.7270  143.0640 C   0  0  0  0  0  2  0  0  0  0  0  0
  191.0540  177.4230  144.2530 C   0  0  2  0  0  3  0  0  0  0  0  0
  186.6790  177.7570  146.7550 N   0  0  0  0  0  0  0  0  0  0  0  0
  187.2550  177.6120  143.2470 C   0  0  1  0  0  3  0  0  0  0  0  0
  185.5220  178.0180  146.2430 C   0  0  0  0  0  0  0  0  0  0  0  0
  191.7210  176.7040  145.4360 C   0  0  0  0  0  2  0  0  0  0  0  0
  191.4520  178.8930  144.2450 C   0  0  0  0  0  1  0  0  0  0  0  0
  187.5030  177.5200  145.5810 C   0  0  1  0  0  3  0  0  0  0  0  0
  190.9280  176.7370  146.7290 C   0  0  0  0  0  3  0  0  0  0  0  0
  189.5370  177.2400  144.3230 C   0  0  1  0  0  3  0  0  0  0  0  0
  186.8980  178.2790  144.4990 N   0  0  2  0  0  0  0  0  0  0  0  0
  184.4160  178.2280  146.9960 F   0  0  0  0  0  0  0  0  0  0  0  0
  185.5430  178.1770  144.8300 N   0  0  0  0  0  2  0  0  0  0  0  0
  189.6670  177.1980  146.8130 C   0  0  0  0  0  3  0  0  0  0  0  0
  188.9800  177.8270  145.6330 C   0  0  2  0  0  3  0  0  0  0  0  0
  186.6550  178.9700  139.8890 O   0  0  0  0  0  0  0  0  0  0  0  0
  187.2340  178.3480  140.8210 C   0  0  0  0  0  0  0  0  0  0  0  0
  186.5790  178.2310  142.1030 N   0  0  0  0  0  0  0  0  0  0  0  0
  189.7910  178.4100  140.7820 C   0  0  0  0  0  3  0  0  0  0  0  0
  188.7600  176.6110  140.0300 O   0  0  0  0  0  0  0  0  0  0  0  0
  188.5760  177.7990  140.5470 C   0  0  0  0  0  0  0  0  0  0  0  0
  190.7370  177.4960  140.3540 C   0  0  0  0  0  3  0  0  0  0  0  0
  190.0440  176.3950  139.8910 C   0  0  0  0  0  3  0  0  0  0  0  0
  185.3250  178.9510  142.3220 C   0  0  0  0  0  2  0  0  0  0  0  0
  184.1470  178.0670  141.9460 C   0  0  0  0  0  2  0  0  0  0  0  0
  182.8590  178.8660  141.9400 C   0  0  0  0  0  2  0  0  0  0  0  0
  182.2300  178.8710  143.3220 C   0  0  0  0  0  2  0  0  0  0  0  0
  179.8590  178.1180  143.3970 O   0  0  0  0  0  1  0  0  0  0  0  0
  180.7720  179.1420  143.1980 C   0  0  0  0  0  0  0  0  0  0  0  0
  180.3670  180.3010  142.9180 O   0  0  0  0  0  0  0  0  0  0  0  0
  1  4  1  0  0  0  0
  2  7  1  1  0  0  0
  2 10  1  0  0  0  0
  2  6  1  0  0  0  0
  4 18  1  6  0  0  0
  4 11  1  0  0  0  0
  5  3  2  0  0  0  0
  5 12  1  0  0  0  0
  6  9  1  0  0  0  0
  8 15  1  0  0  0  0
  8  3  1  1  0  0  0
  9 14  2  0  0  0  0
 10  1  1  6  0  0  0
 10 15  1  0  0  0  0
 11 13  1  1  0  0  0
 11  8  1  0  0  0  0
 13  5  1  0  0  0  0
 15 14  1  1  0  0  0
 16 17  2  0  0  0  0
 17 18  1  0  0  0  0
 18 24  1  0  0  0  0
 20 21  1  0  0  0  0
 21 19  2  0  0  0  0
 21 17  1  0  0  0  0
 22 19  1  0  0  0  0
 23 20  1  0  0  0  0
 23 22  2  0  0  0  0
 25 24  1  0  0  0  0
 26 25  1  0  0  0  0
 26 27  1  0  0  0  0
 29 27  1  0  0  0  0
 29 28  1  0  0  0  0
 30 29  2  0  0  0  0
M  END
>  <MODEL>
4

>  <REMARK>
 VINA RESULT:      -5.8      4.508      7.070
  Name = 
  7 active torsions:
  status: ('A' for Active; 'I' for Inactive)
    1  A    between atoms: C_4  and  N_13
    2  A    between atoms: C_7  and  C_15
    3  A    between atoms: C_7  and  C_16
    4  A    between atoms: C_8  and  C_12
    5  A    between atoms: N_13  and  C_27
    6  A    between atoms: C_16  and  C_30
    7  A    between atoms: C_27  and  C_30
                            x       y       z     vdW  Elec       q    Type
                         _______ _______ _______ _____ _____    ______ ____

>  <TORSDO>
F 7

$$$$
=
 OpenBabel11052412273D

 30 33  0  0  1  0  0  0  0  0999 V2000
  185.3900  178.4640  138.7740 C   0  0  0  0  0  2  0  0  0  0  0  0
  187.7760  178.3570  137.8090 C   0  0  2  0  0  3  0  0  0  0  0  0
  183.9220  175.7370  135.8630 N   0  0  0  0  0  0  0  0  0  0  0  0
  183.9030  178.1580  138.4700 C   0  0  1  0  0  3  0  0  0  0  0  0
  182.7290  175.6510  136.3510 C   0  0  0  0  0  0  0  0  0  0  0  0
  188.5510  178.2770  136.4840 C   0  0  0  0  0  2  0  0  0  0  0  0
  188.3140  177.3230  138.7890 C   0  0  0  0  0  1  0  0  0  0  0  0
  184.5160  176.8030  136.6510 C   0  0  1  0  0  3  0  0  0  0  0  0
  187.9860  177.2950  135.4750 C   0  0  0  0  0  3  0  0  0  0  0  0
  186.2810  178.1760  137.5470 C   0  0  1  0  0  3  0  0  0  0  0  0
  183.8230  176.8010  137.9280 N   0  0  2  0  0  0  0  0  0  0  0  0
  181.7870  174.8180  135.8490 F   0  0  0  0  0  0  0  0  0  0  0  0
  182.5370  176.4240  137.5300 N   0  0  0  0  0  2  0  0  0  0  0  0
  186.8090  176.6650  135.6350 C   0  0  0  0  0  3  0  0  0  0  0  0
  186.0060  176.8070  136.8980 C   0  0  2  0  0  3  0  0  0  0  0  0
  181.4070  179.3480  140.8840 O   0  0  0  0  0  0  0  0  0  0  0  0
  182.0000  179.1990  139.7810 C   0  0  0  0  0  0  0  0  0  0  0  0
  183.1160  178.2860  139.7000 N   0  0  0  0  0  0  0  0  0  0  0  0
  181.6270  181.3700  138.4790 C   0  0  0  0  0  3  0  0  0  0  0  0
  180.9430  179.4690  137.5940 O   0  0  0  0  0  0  0  0  0  0  0  0
  181.5280  180.0020  138.6360 C   0  0  0  0  0  0  0  0  0  0  0  0
  181.0400  181.6300  137.2540 C   0  0  0  0  0  3  0  0  0  0  0  0
  180.6260  180.4140  136.7450 C   0  0  0  0  0  3  0  0  0  0  0  0
  183.6080  177.6640  140.9280 C   0  0  0  0  0  2  0  0  0  0  0  0
  184.3790  178.6820  141.7530 C   0  0  0  0  0  2  0  0  0  0  0  0
  183.9360  178.6430  143.2020 C   0  0  0  0  0  2  0  0  0  0  0  0
  185.1420  178.6150  144.1260 C   0  0  0  0  0  2  0  0  0  0  0  0
  185.6780  179.3450  146.4430 O   0  0  0  0  0  1  0  0  0  0  0  0
  184.7210  179.0170  145.4950 C   0  0  0  0  0  0  0  0  0  0  0  0
  183.4990  179.0660  145.7900 O   0  0  0  0  0  0  0  0  0  0  0  0
  2  7  1  1  0  0  0
  3  5  2  0  0  0  0
  4  1  1  0  0  0  0
  4 18  1  1  0  0  0
  5 13  1  0  0  0  0
  6  2  1  0  0  0  0
  8  3  1  6  0  0  0
  8 15  1  0  0  0  0
  8 11  1  0  0  0  0
  9 14  2  0  0  0  0
  9  6  1  0  0  0  0
 10  2  1  0  0  0  0
 10  1  1  1  0  0  0
 11 13  1  6  0  0  0
 11  4  1  0  0  0  0
 12  5  1  0  0  0  0
 15 14  1  6  0  0  0
 15 10  1  0  0  0  0
 17 16  2  0  0  0  0
 18 17  1  0  0  0  0
 18 24  1  0  0  0  0
 19 21  2  0  0  0  0
 20 21  1  0  0  0  0
 21 17  1  0  0  0  0
 22 19  1  0  0  0  0
 23 22  2  0  0  0  0
 23 20  1  0  0  0  0
 24 25  1  0  0  0  0
 25 26  1  0  0  0  0
 26 27  1  0  0  0  0
 27 29  1  0  0  0  0
 29 30  2  0  0  0  0
 29 28  1  0  0  0  0
M  END
>  <MODEL>
5

>  <REMARK>
 VINA RESULT:      -5.7      4.243      7.027
  Name = 
  7 active torsions:
  status: ('A' for Active; 'I' for Inactive)
    1  A    between atoms: C_4  and  N_13
    2  A    between atoms: C_7  and  C_15
    3  A    between atoms: C_7  and  C_16
    4  A    between atoms: C_8  and  C_12
    5  A    between atoms: N_13  and  C_27
    6  A    between atoms: C_16  and  C_30
    7  A    between atoms: C_27  and  C_30
                            x       y       z     vdW  Elec       q    Type
                         _______ _______ _______ _____ _____    ______ ____

>  <TORSDO>
F 7

$$$$
=
 OpenBabel11052412273D

 30 33  0  0  1  0  0  0  0  0999 V2000
  189.0230  177.6000  143.2910 C   0  0  0  0  0  2  0  0  0  0  0  0
  191.2360  177.1940  144.5460 C   0  0  2  0  0  3  0  0  0  0  0  0
  186.8040  177.6930  146.9150 N   0  0  0  0  0  0  0  0  0  0  0  0
  187.4820  177.5480  143.4260 C   0  0  1  0  0  3  0  0  0  0  0  0
  185.6750  178.0060  146.3710 C   0  0  0  0  0  0  0  0  0  0  0  0
  191.8360  176.4400  145.7430 C   0  0  0  0  0  2  0  0  0  0  0  0
  191.6950  178.6450  144.5620 C   0  0  0  0  0  1  0  0  0  0  0  0
  187.6530  177.4310  145.7660 C   0  0  1  0  0  3  0  0  0  0  0  0
  191.0050  176.4970  147.0120 C   0  0  0  0  0  3  0  0  0  0  0  0
  189.7120  177.0740  144.5690 C   0  0  1  0  0  3  0  0  0  0  0  0
  187.1140  178.2210  144.6720 N   0  0  2  0  0  0  0  0  0  0  0  0
  184.5560  178.2570  147.0910 F   0  0  0  0  0  0  0  0  0  0  0  0
  185.7470  178.1730  144.9600 N   0  0  0  0  0  2  0  0  0  0  0  0
  189.7630  177.0100  147.0600 C   0  0  0  0  0  3  0  0  0  0  0  0
  189.1400  177.6750  145.8660 C   0  0  2  0  0  3  0  0  0  0  0  0
  187.0420  178.9510  140.0620 O   0  0  0  0  0  0  0  0  0  0  0  0
  187.5650  178.3000  141.0060 C   0  0  0  0  0  0  0  0  0  0  0  0
  186.8680  178.2030  142.2670 N   0  0  0  0  0  0  0  0  0  0  0  0
  189.1620  176.4960  140.1420 C   0  0  0  0  0  3  0  0  0  0  0  0
  190.0060  178.2730  141.1410 O   0  0  0  0  0  0  0  0  0  0  0  0
  188.8910  177.6960  140.7680 C   0  0  0  0  0  0  0  0  0  0  0  0
  190.5400  176.3810  140.1740 C   0  0  0  0  0  3  0  0  0  0  0  0
  191.0180  177.5110  140.8110 C   0  0  0  0  0  3  0  0  0  0  0  0
  185.6390  178.9730  142.4530 C   0  0  0  0  0  2  0  0  0  0  0  0
  184.4310  178.1140  142.1160 C   0  0  0  0  0  2  0  0  0  0  0  0
  183.3640  178.9390  141.4230 C   0  0  0  0  0  2  0  0  0  0  0  0
  182.9750  178.3020  140.1010 C   0  0  0  0  0  2  0  0  0  0  0  0
  184.1610  180.2440  139.0950 O   0  0  0  0  0  1  0  0  0  0  0  0
  183.7740  178.9160  139.0060 C   0  0  0  0  0  0  0  0  0  0  0  0
  184.1030  178.2300  138.0040 O   0  0  0  0  0  0  0  0  0  0  0  0
  1  4  1  0  0  0  0
  2  7  1  1  0  0  0
  2 10  1  0  0  0  0
  2  6  1  0  0  0  0
  4 18  1  6  0  0  0
  4 11  1  0  0  0  0
  5  3  2  0  0  0  0
  5 12  1  0  0  0  0
  6  9  1  0  0  0  0
  8 15  1  0  0  0  0
  8  3  1  1  0  0  0
  9 14  2  0  0  0  0
 10  1  1  6  0  0  0
 10 15  1  0  0  0  0
 11 13  1  1  0  0  0
 11  8  1  0  0  0  0
 13  5  1  0  0  0  0
 15 14  1  1  0  0  0
 16 17  2  0  0  0  0
 17 18  1  0  0  0  0
 18 24  1  0  0  0  0
 19 22  1  0  0  0  0
 19 21  2  0  0  0  0
 21 17  1  0  0  0  0
 21 20  1  0  0  0  0
 22 23  2  0  0  0  0
 23 20  1  0  0  0  0
 25 24  1  0  0  0  0
 26 25  1  0  0  0  0
 27 26  1  0  0  0  0
 29 28  1  0  0  0  0
 29 27  1  0  0  0  0
 30 29  2  0  0  0  0
M  END
>  <MODEL>
6

>  <REMARK>
 VINA RESULT:      -5.7      4.674      6.986
  Name = 
  7 active torsions:
  status: ('A' for Active; 'I' for Inactive)
    1  A    between atoms: C_4  and  N_13
    2  A    between atoms: C_7  and  C_15
    3  A    between atoms: C_7  and  C_16
    4  A    between atoms: C_8  and  C_12
    5  A    between atoms: N_13  and  C_27
    6  A    between atoms: C_16  and  C_30
    7  A    between atoms: C_27  and  C_30
                            x       y       z     vdW  Elec       q    Type
                         _______ _______ _______ _____ _____    ______ ____

>  <TORSDO>
F 7

$$$$
=
 OpenBabel11052412273D

 30 33  0  0  1  0  0  0  0  0999 V2000
  183.8800  177.7450  140.8490 C   0  0  0  0  0  2  0  0  0  0  0  0
  185.6720  177.9780  142.6850 C   0  0  2  0  0  3  0  0  0  0  0  0
  181.0210  179.8930  143.1480 N   0  0  0  0  0  0  0  0  0  0  0  0
  182.3620  177.8480  140.5630 C   0  0  1  0  0  3  0  0  0  0  0  0
  180.1070  179.9140  142.2360 C   0  0  0  0  0  0  0  0  0  0  0  0
  185.8620  177.9640  144.2100 C   0  0  0  0  0  2  0  0  0  0  0  0
  186.3810  179.1830  142.0830 C   0  0  0  0  0  1  0  0  0  0  0  0
  182.0240  179.0080  142.5770 C   0  0  1  0  0  3  0  0  0  0  0  0
  184.8140  178.7390  144.9870 C   0  0  0  0  0  3  0  0  0  0  0  0
  184.1810  177.9620  142.3470 C   0  0  1  0  0  3  0  0  0  0  0  0
  181.8790  179.1050  141.1350 N   0  0  2  0  0  0  0  0  0  0  0  0
  178.9320  180.5680  142.3890 F   0  0  0  0  0  0  0  0  0  0  0  0
  180.4970  179.2870  141.0200 N   0  0  0  0  0  2  0  0  0  0  0  0
  183.7070  179.2550  144.4250 C   0  0  0  0  0  3  0  0  0  0  0  0
  183.4780  179.1970  142.9410 C   0  0  2  0  0  3  0  0  0  0  0  0
  181.1360  176.7590  137.2790 O   0  0  0  0  0  0  0  0  0  0  0  0
  181.2350  176.8290  138.5340 C   0  0  0  0  0  0  0  0  0  0  0  0
  182.1320  177.7990  139.1160 N   0  0  0  0  0  0  0  0  0  0  0  0
  180.3520  174.5130  139.1680 C   0  0  0  0  0  3  0  0  0  0  0  0
  179.7020  176.2590  140.3500 O   0  0  0  0  0  0  0  0  0  0  0  0
  180.4390  175.8800  139.3370 C   0  0  0  0  0  0  0  0  0  0  0  0
  179.4860  174.0870  140.1600 C   0  0  0  0  0  3  0  0  0  0  0  0
  179.1060  175.2130  140.8650 C   0  0  0  0  0  3  0  0  0  0  0  0
  182.9970  178.5790  138.2320 C   0  0  0  0  0  2  0  0  0  0  0  0
  184.0240  177.6700  137.5770 C   0  0  0  0  0  2  0  0  0  0  0  0
  185.4310  178.1560  137.8650 C   0  0  0  0  0  2  0  0  0  0  0  0
  186.3910  177.6720  136.7920 C   0  0  0  0  0  2  0  0  0  0  0  0
  188.7420  178.1220  136.1110 O   0  0  0  0  0  0  0  0  0  0  0  0
  187.7550  178.1910  137.0830 C   0  0  0  0  0  0  0  0  0  0  0  0
  188.0110  178.6970  138.2060 O   0  0  0  0  0  1  0  0  0  0  0  0
  2  7  1  1  0  0  0
  2  6  1  0  0  0  0
  4 18  1  6  0  0  0
  4  1  1  0  0  0  0
  4 11  1  0  0  0  0
  5 12  1  0  0  0  0
  5  3  2  0  0  0  0
  6  9  1  0  0  0  0
  8 15  1  0  0  0  0
  8  3  1  1  0  0  0
 10  1  1  6  0  0  0
 10  2  1  0  0  0  0
 10 15  1  0  0  0  0
 11 13  1  1  0  0  0
 11  8  1  0  0  0  0
 13  5  1  0  0  0  0
 14  9  2  0  0  0  0
 15 14  1  1  0  0  0
 16 17  2  0  0  0  0
 17 18  1  0  0  0  0
 17 21  1  0  0  0  0
 19 21  2  0  0  0  0
 19 22  1  0  0  0  0
 20 23  1  0  0  0  0
 21 20  1  0  0  0  0
 22 23  2  0  0  0  0
 24 18  1  0  0  0  0
 25 26  1  0  0  0  0
 25 24  1  0  0  0  0
 27 29  1  0  0  0  0
 27 26  1  0  0  0  0
 28 29  2  0  0  0  0
 29 30  1  0  0  0  0
M  END
>  <MODEL>
7

>  <REMARK>
 VINA RESULT:      -5.7      2.609      3.480
  Name = 
  7 active torsions:
  status: ('A' for Active; 'I' for Inactive)
    1  A    between atoms: C_4  and  N_13
    2  A    between atoms: C_7  and  C_15
    3  A    between atoms: C_7  and  C_16
    4  A    between atoms: C_8  and  C_12
    5  A    between atoms: N_13  and  C_27
    6  A    between atoms: C_16  and  C_30
    7  A    between atoms: C_27  and  C_30
                            x       y       z     vdW  Elec       q    Type
                         _______ _______ _______ _____ _____    ______ ____

>  <TORSDO>
F 7

$$$$
=
 OpenBabel11052412273D

 30 33  0  0  1  0  0  0  0  0999 V2000
  190.8400  176.1800  139.7140 C   0  0  0  0  0  2  0  0  0  0  0  0
  190.6170  176.6660  142.2340 C   0  0  2  0  0  3  0  0  0  0  0  0
  187.3890  178.4890  138.8040 N   0  0  0  0  0  0  0  0  0  0  0  0
  190.0820  176.2070  138.3640 C   0  0  1  0  0  3  0  0  0  0  0  0
  187.4930  178.3830  137.5220 C   0  0  0  0  0  0  0  0  0  0  0  0
  189.5790  176.8280  143.3560 C   0  0  0  0  0  2  0  0  0  0  0  0
  191.6140  177.8160  142.2770 C   0  0  0  0  0  1  0  0  0  0  0  0
  188.4110  177.5760  139.2870 C   0  0  1  0  0  3  0  0  0  0  0  0
  188.3630  177.6550  142.9820 C   0  0  0  0  0  3  0  0  0  0  0  0
  189.9090  176.5710  140.8830 C   0  0  1  0  0  3  0  0  0  0  0  0
  189.4200  177.5070  138.2440 N   0  0  2  0  0  0  0  0  0  0  0  0
  186.6610  179.0170  136.6610 F   0  0  0  0  0  0  0  0  0  0  0  0
  188.6270  177.6350  137.1000 N   0  0  0  0  0  2  0  0  0  0  0  0
  188.1100  178.0740  141.7300 C   0  0  0  0  0  3  0  0  0  0  0  0
  189.0860  177.8440  140.6110 C   0  0  2  0  0  3  0  0  0  0  0  0
  191.6280  174.8270  135.3340 O   0  0  0  0  0  0  0  0  0  0  0  0
  190.7470  175.0530  136.2070 C   0  0  0  0  0  0  0  0  0  0  0  0
  191.0310  175.9910  137.2670 N   0  0  0  0  0  0  0  0  0  0  0  0
  189.1480  173.1280  136.7410 C   0  0  0  0  0  3  0  0  0  0  0  0
  188.4750  174.7190  135.3690 O   0  0  0  0  0  0  0  0  0  0  0  0
  189.4760  174.3080  136.1060 C   0  0  0  0  0  0  0  0  0  0  0  0
  187.8610  172.8430  136.3200 C   0  0  0  0  0  3  0  0  0  0  0  0
  187.4900  173.8630  135.4630 C   0  0  0  0  0  3  0  0  0  0  0  0
  192.3780  176.5500  137.3710 C   0  0  0  0  0  2  0  0  0  0  0  0
  193.3650  175.4590  137.7550 C   0  0  0  0  0  2  0  0  0  0  0  0
  194.5910  175.5080  136.8660 C   0  0  0  0  0  2  0  0  0  0  0  0
  195.3280  174.1810  136.9020 C   0  0  0  0  0  2  0  0  0  0  0  0
  195.5080  172.9400  139.0510 O   0  0  0  0  0  1  0  0  0  0  0  0
  195.9290  173.9900  138.2500 C   0  0  0  0  0  0  0  0  0  0  0  0
  196.8230  174.7750  138.6600 O   0  0  0  0  0  0  0  0  0  0  0  0
  2  7  1  6  0  0  0
  2  6  1  0  0  0  0
  4 18  1  6  0  0  0
  4  1  1  0  0  0  0
  5  3  2  0  0  0  0
  8  3  1  6  0  0  0
  8 15  1  0  0  0  0
  9  6  1  0  0  0  0
 10  1  1  6  0  0  0
 10  2  1  0  0  0  0
 11 13  1  6  0  0  0
 11  4  1  0  0  0  0
 11  8  1  0  0  0  0
 12  5  1  0  0  0  0
 13  5  1  0  0  0  0
 14  9  2  0  0  0  0
 15 10  1  0  0  0  0
 15 14  1  1  0  0  0
 16 17  2  0  0  0  0
 17 18  1  0  0  0  0
 18 24  1  0  0  0  0
 20 23  1  0  0  0  0
 20 21  1  0  0  0  0
 21 17  1  0  0  0  0
 21 19  2  0  0  0  0
 22 19  1  0  0  0  0
 23 22  2  0  0  0  0
 24 25  1  0  0  0  0
 26 27  1  0  0  0  0
 26 25  1  0  0  0  0
 27 29  1  0  0  0  0
 29 30  2  0  0  0  0
 29 28  1  0  0  0  0
M  END
>  <MODEL>
8

>  <REMARK>
 VINA RESULT:      -5.6      8.538     10.584
  Name = 
  7 active torsions:
  status: ('A' for Active; 'I' for Inactive)
    1  A    between atoms: C_4  and  N_13
    2  A    between atoms: C_7  and  C_15
    3  A    between atoms: C_7  and  C_16
    4  A    between atoms: C_8  and  C_12
    5  A    between atoms: N_13  and  C_27
    6  A    between atoms: C_16  and  C_30
    7  A    between atoms: C_27  and  C_30
                            x       y       z     vdW  Elec       q    Type
                         _______ _______ _______ _____ _____    ______ ____

>  <TORSDO>
F 7

$$$$
=
 OpenBabel11052412273D

 30 33  0  0  1  0  0  0  0  0999 V2000
  188.8960  177.4280  138.5760 C   0  0  0  0  0  2  0  0  0  0  0  0
  186.6220  178.0930  137.5640 C   0  0  2  0  0  3  0  0  0  0  0  0
  189.0070  173.8110  136.3460 N   0  0  0  0  0  0  0  0  0  0  0  0
  189.8690  176.2430  138.7950 C   0  0  1  0  0  3  0  0  0  0  0  0
  190.1910  173.4600  136.7230 C   0  0  0  0  0  0  0  0  0  0  0  0
  185.2700  177.5120  137.1220 C   0  0  0  0  0  2  0  0  0  0  0  0
  187.1760  179.0070  136.4800 C   0  0  0  0  0  1  0  0  0  0  0  0
  188.7310  174.9640  137.1860 C   0  0  1  0  0  3  0  0  0  0  0  0
  185.3600  176.2180  136.3340 C   0  0  0  0  0  3  0  0  0  0  0  0
  187.5870  176.9580  137.9060 C   0  0  1  0  0  3  0  0  0  0  0  0
  190.0220  175.5430  137.5190 N   0  0  2  0  0  0  0  0  0  0  0  0
  190.8190  172.3600  136.2430 F   0  0  0  0  0  0  0  0  0  0  0  0
  190.8150  174.3950  137.5950 N   0  0  0  0  0  2  0  0  0  0  0  0
  186.5030  175.5280  136.1750 C   0  0  0  0  0  3  0  0  0  0  0  0
  187.8170  176.0540  136.6800 C   0  0  2  0  0  3  0  0  0  0  0  0
  192.4310  177.6400  141.0230 O   0  0  0  0  0  0  0  0  0  0  0  0
  191.3390  177.1200  140.6650 C   0  0  0  0  0  0  0  0  0  0  0  0
  191.1550  176.7510  139.2800 N   0  0  0  0  0  0  0  0  0  0  0  0
  189.3650  177.8860  142.1020 C   0  0  0  0  0  3  0  0  0  0  0  0
  190.1260  175.8300  142.3500 O   0  0  0  0  0  0  0  0  0  0  0  0
  190.2930  176.9500  141.6920 C   0  0  0  0  0  0  0  0  0  0  0  0
  188.6220  177.2470  143.0770 C   0  0  0  0  0  3  0  0  0  0  0  0
  189.1380  175.9700  143.1970 C   0  0  0  0  0  3  0  0  0  0  0  0
  192.1880  177.1130  138.3120 C   0  0  0  0  0  2  0  0  0  0  0  0
  193.3750  176.1720  138.4430 C   0  0  0  0  0  2  0  0  0  0  0  0
  193.9260  175.8100  137.0780 C   0  0  0  0  0  2  0  0  0  0  0  0
  194.4130  174.3710  137.0650 C   0  0  0  0  0  2  0  0  0  0  0  0
  195.4340  173.3600  139.0960 O   0  0  0  0  0  1  0  0  0  0  0  0
  195.5450  174.2280  138.0200 C   0  0  0  0  0  0  0  0  0  0  0  0
  196.6030  174.8870  137.8500 O   0  0  0  0  0  0  0  0  0  0  0  0
  1  4  1  0  0  0  0
  2  7  1  6  0  0  0
  2 10  1  0  0  0  0
  3  5  2  0  0  0  0
  4 18  1  6  0  0  0
  5 13  1  0  0  0  0
  6  2  1  0  0  0  0
  8  3  1  6  0  0  0
  8 11  1  0  0  0  0
  9  6  1  0  0  0  0
 10  1  1  6  0  0  0
 11 13  1  1  0  0  0
 11  4  1  0  0  0  0
 12  5  1  0  0  0  0
 14  9  2  0  0  0  0
 15 14  1  1  0  0  0
 15  8  1  0  0  0  0
 15 10  1  0  0  0  0
 17 16  2  0  0  0  0
 17 21  1  0  0  0  0
 18 17  1  0  0  0  0
 19 22  1  0  0  0  0
 20 23  1  0  0  0  0
 21 19  2  0  0  0  0
 21 20  1  0  0  0  0
 22 23  2  0  0  0  0
 24 25  1  0  0  0  0
 24 18  1  0  0  0  0
 26 25  1  0  0  0  0
 27 26  1  0  0  0  0
 27 29  1  0  0  0  0
 29 28  1  0  0  0  0
 30 29  2  0  0  0  0
M  END
>  <MODEL>
9

>  <REMARK>
 VINA RESULT:      -5.4      8.768     11.444
  Name = 
  7 active torsions:
  status: ('A' for Active; 'I' for Inactive)
    1  A    between atoms: C_4  and  N_13
    2  A    between atoms: C_7  and  C_15
    3  A    between atoms: C_7  and  C_16
    4  A    between atoms: C_8  and  C_12
    5  A    between atoms: N_13  and  C_27
    6  A    between atoms: C_16  and  C_30
    7  A    between atoms: C_27  and  C_30
                            x       y       z     vdW  Elec       q    Type
                         _______ _______ _______ _____ _____    ______ ____

>  <TORSDO>
F 7

$$$$
