=
 OpenBabel11052413513D

 27 31  0  0  0  0  0  0  0  0999 V2000
  185.3510  178.7570  141.0150 N   0  0  0  0  0  0  0  0  0  0  0  0
  185.0060  178.7800  142.3190 C   0  0  0  0  0  0  0  0  0  0  0  0
  187.1470  178.2070  142.2610 C   0  0  0  0  0  0  0  0  0  0  0  0
  184.4780  178.6740  146.4230 N   0  0  0  0  0  0  0  0  0  0  0  0
  185.4860  178.3330  147.2710 C   0  0  0  0  0  3  0  0  0  0  0  0
  183.7520  179.0950  142.8440 C   0  0  0  0  0  3  0  0  0  0  0  0
  186.9680  178.0390  145.3930 C   0  0  0  0  0  3  0  0  0  0  0  0
  188.9100  177.9420  140.0200 N   0  0  0  0  0  0  0  0  0  0  0  0
  189.0760  177.8740  143.6280 O   0  0  0  0  0  0  0  0  0  0  0  0
  189.8270  177.9210  138.8910 C   0  0  0  0  0  1  0  0  0  0  0  0
  185.9330  178.3940  144.5250 C   0  0  0  0  0  0  0  0  0  0  0  0
  186.7470  178.0080  146.7710 C   0  0  0  0  0  3  0  0  0  0  0  0
  184.6620  178.7110  145.0760 C   0  0  0  0  0  0  0  0  0  0  0  0
  186.6570  178.4080  140.9890 C   0  0  0  0  0  0  0  0  0  0  0  0
  186.0790  178.4440  143.1280 C   0  0  0  0  0  0  0  0  0  0  0  0
  189.4040  177.4280  141.3050 C   0  0  0  0  0  2  0  0  0  0  0  0
  183.5890  179.0590  144.2360 C   0  0  0  0  0  3  0  0  0  0  0  0
  187.0820  178.4940  138.6530 O   0  0  0  0  0  0  0  0  0  0  0  0
  187.5270  178.2860  139.8130 C   0  0  0  0  0  0  0  0  0  0  0  0
  188.5600  177.8520  142.4820 C   0  0  0  0  0  0  0  0  0  0  0  0
  184.5040  179.1200  139.8830 C   0  0  0  0  0  2  0  0  0  0  0  0
  182.6310  175.6770  138.2030 C   0  0  0  0  0  3  0  0  0  0  0  0
  183.8610  177.9030  139.3100 C   0  0  0  0  0  0  0  0  0  0  0  0
  182.9320  177.1840  140.0670 C   0  0  0  0  0  3  0  0  0  0  0  0
  182.3180  176.0620  139.5070 C   0  0  0  0  0  3  0  0  0  0  0  0
  183.5600  176.4250  137.4750 C   0  0  0  0  0  3  0  0  0  0  0  0
  184.1480  177.5140  138.0380 N   0  0  0  0  0  0  0  0  0  0  0  0
  1  2  1  0  0  0  0
  2  6  2  0  0  0  0
  2 15  1  0  0  0  0
  3 20  1  0  0  0  0
  3 15  1  0  0  0  0
  4  5  2  0  0  0  0
  6 17  1  0  0  0  0
  7 12  2  0  0  0  0
  8 16  1  0  0  0  0
 10  8  1  0  0  0  0
 11 13  1  0  0  0  0
 11  7  1  0  0  0  0
 12  5  1  0  0  0  0
 13  4  1  0  0  0  0
 14  1  1  0  0  0  0
 14  3  2  0  0  0  0
 15 11  2  0  0  0  0
 16 20  1  0  0  0  0
 17 13  2  0  0  0  0
 18 19  2  0  0  0  0
 19  8  1  0  0  0  0
 19 14  1  0  0  0  0
 20  9  2  0  0  0  0
 21  1  1  0  0  0  0
 22 25  1  0  0  0  0
 23 21  1  0  0  0  0
 23 24  1  0  0  0  0
 25 24  2  0  0  0  0
 26 27  1  0  0  0  0
 26 22  2  0  0  0  0
 27 23  2  0  0  0  0
M  END
>  <MODEL>
1

>  <REMARK>
 VINA RESULT:      -9.4      0.000      0.000
  Name = 
  2 active torsions:
  status: ('A' for Active; 'I' for Inactive)
    1  A    between atoms: N_1  and  C_15
    2  A    between atoms: C_9  and  C_15
                            x       y       z     vdW  Elec       q    Type
                         _______ _______ _______ _____ _____    ______ ____

>  <TORSDO>
F 2

$$$$
=
 OpenBabel11052413513D

 27 31  0  0  0  0  0  0  0  0999 V2000
  188.7230  178.4440  141.4900 N   0  0  0  0  0  0  0  0  0  0  0  0
  189.5750  178.0990  142.4760 C   0  0  0  0  0  0  0  0  0  0  0  0
  187.5390  177.9230  143.3360 C   0  0  0  0  0  0  0  0  0  0  0  0
  191.7300  176.9860  145.8320 N   0  0  0  0  0  0  0  0  0  0  0  0
  191.1220  176.6730  147.0080 C   0  0  0  0  0  3  0  0  0  0  0  0
  190.9680  178.0550  142.3980 C   0  0  0  0  0  3  0  0  0  0  0  0
  188.9680  177.0780  146.0040 C   0  0  0  0  0  3  0  0  0  0  0  0
  184.9890  178.3330  142.0990 N   0  0  0  0  0  0  0  0  0  0  0  0
  186.3250  177.1270  145.2310 O   0  0  0  0  0  0  0  0  0  0  0  0
  183.6990  178.4310  141.4360 C   0  0  0  0  0  1  0  0  0  0  0  0
  189.5950  177.3950  144.7960 C   0  0  0  0  0  0  0  0  0  0  0  0
  189.7310  176.7150  147.1140 C   0  0  0  0  0  3  0  0  0  0  0  0
  191.0140  177.3460  144.7320 C   0  0  0  0  0  0  0  0  0  0  0  0
  187.4840  178.3330  142.0220 C   0  0  0  0  0  0  0  0  0  0  0  0
  188.8940  177.7730  143.6380 C   0  0  0  0  0  0  0  0  0  0  0  0
  184.9920  178.1940  143.5630 C   0  0  0  0  0  2  0  0  0  0  0  0
  191.6840  177.6720  143.5390 C   0  0  0  0  0  3  0  0  0  0  0  0
  186.1520  178.9040  140.1390 O   0  0  0  0  0  0  0  0  0  0  0  0
  186.1980  178.5520  141.3490 C   0  0  0  0  0  0  0  0  0  0  0  0
  186.3070  177.7000  144.1130 C   0  0  0  0  0  0  0  0  0  0  0  0
  189.0730  178.7810  140.1140 C   0  0  0  0  0  2  0  0  0  0  0  0
  189.8290  175.2640  137.8240 C   0  0  0  0  0  3  0  0  0  0  0  0
  189.3230  177.5400  139.3270 C   0  0  0  0  0  0  0  0  0  0  0  0
  188.3040  176.9960  138.5410 C   0  0  0  0  0  3  0  0  0  0  0  0
  188.5620  175.8480  137.7880 C   0  0  0  0  0  3  0  0  0  0  0  0
  190.8240  175.8410  138.6160 C   0  0  0  0  0  3  0  0  0  0  0  0
  190.5540  176.9590  139.3430 N   0  0  0  0  0  0  0  0  0  0  0  0
  1 14  1  0  0  0  0
  1  2  1  0  0  0  0
  2 15  1  0  0  0  0
  3 15  1  0  0  0  0
  3 20  1  0  0  0  0
  4  5  2  0  0  0  0
  5 12  1  0  0  0  0
  6  2  2  0  0  0  0
  6 17  1  0  0  0  0
  7 12  2  0  0  0  0
  8 16  1  0  0  0  0
 10  8  1  0  0  0  0
 11  7  1  0  0  0  0
 13 11  1  0  0  0  0
 13  4  1  0  0  0  0
 14  3  2  0  0  0  0
 15 11  2  0  0  0  0
 16 20  1  0  0  0  0
 17 13  2  0  0  0  0
 18 19  2  0  0  0  0
 19 14  1  0  0  0  0
 19  8  1  0  0  0  0
 20  9  2  0  0  0  0
 21  1  1  0  0  0  0
 22 26  1  0  0  0  0
 23 27  1  0  0  0  0
 23 21  1  0  0  0  0
 24 23  2  0  0  0  0
 25 22  2  0  0  0  0
 25 24  1  0  0  0  0
 26 27  2  0  0  0  0
M  END
>  <MODEL>
2

>  <REMARK>
 VINA RESULT:      -9.0      2.512      5.158
  Name = 
  2 active torsions:
  status: ('A' for Active; 'I' for Inactive)
    1  A    between atoms: N_1  and  C_15
    2  A    between atoms: C_9  and  C_15
                            x       y       z     vdW  Elec       q    Type
                         _______ _______ _______ _____ _____    ______ ____

>  <TORSDO>
F 2

$$$$
=
 OpenBabel11052413513D

 27 31  0  0  0  0  0  0  0  0999 V2000
  188.9630  178.1210  140.1660 N   0  0  0  0  0  0  0  0  0  0  0  0
  189.7120  177.7920  141.2390 C   0  0  0  0  0  0  0  0  0  0  0  0
  187.6510  178.0940  141.9990 C   0  0  0  0  0  0  0  0  0  0  0  0
  191.5360  176.8600  144.8360 N   0  0  0  0  0  0  0  0  0  0  0  0
  190.8470  176.8370  146.0090 C   0  0  0  0  0  3  0  0  0  0  0  0
  191.0770  177.5030  141.2460 C   0  0  0  0  0  3  0  0  0  0  0  0
  188.8290  177.4400  144.8370 C   0  0  0  0  0  3  0  0  0  0  0  0
  185.2500  178.7330  140.5740 N   0  0  0  0  0  0  0  0  0  0  0  0
  186.2590  177.8130  143.9190 O   0  0  0  0  0  0  0  0  0  0  0  0
  184.0180  178.9440  139.8320 C   0  0  0  0  0  1  0  0  0  0  0  0
  189.5380  177.4580  143.6340 C   0  0  0  0  0  0  0  0  0  0  0  0
  189.4820  177.1280  146.0300 C   0  0  0  0  0  3  0  0  0  0  0  0
  190.9270  177.1620  143.6580 C   0  0  0  0  0  0  0  0  0  0  0  0
  187.7090  178.3020  140.6380 C   0  0  0  0  0  0  0  0  0  0  0  0
  188.9490  177.7660  142.3950 C   0  0  0  0  0  0  0  0  0  0  0  0
  185.1840  178.8210  142.0400 C   0  0  0  0  0  2  0  0  0  0  0  0
  191.6810  177.1840  142.4700 C   0  0  0  0  0  3  0  0  0  0  0  0
  186.5540  178.7930  138.6210 O   0  0  0  0  0  0  0  0  0  0  0  0
  186.5020  178.6280  139.8690 C   0  0  0  0  0  0  0  0  0  0  0  0
  186.3750  178.2030  142.7290 C   0  0  0  0  0  0  0  0  0  0  0  0
  189.4080  178.1800  138.7780 C   0  0  0  0  0  2  0  0  0  0  0  0
  189.4520  174.2440  137.1360 C   0  0  0  0  0  3  0  0  0  0  0  0
  189.4350  176.8120  138.1860 C   0  0  0  0  0  0  0  0  0  0  0  0
  190.6370  176.1020  138.1250 C   0  0  0  0  0  3  0  0  0  0  0  0
  190.6420  174.8110  137.5940 C   0  0  0  0  0  3  0  0  0  0  0  0
  188.2680  174.9810  137.2200 C   0  0  0  0  0  3  0  0  0  0  0  0
  188.2840  176.2380  137.7410 N   0  0  0  0  0  0  0  0  0  0  0  0
  1 14  1  0  0  0  0
  1  2  1  0  0  0  0
  2  6  2  0  0  0  0
  2 15  1  0  0  0  0
  3 15  1  0  0  0  0
  3 20  1  0  0  0  0
  4  5  2  0  0  0  0
  5 12  1  0  0  0  0
  6 17  1  0  0  0  0
  7 12  2  0  0  0  0
  8 16  1  0  0  0  0
 10  8  1  0  0  0  0
 11 13  1  0  0  0  0
 11  7  1  0  0  0  0
 13  4  1  0  0  0  0
 14  3  2  0  0  0  0
 15 11  2  0  0  0  0
 16 20  1  0  0  0  0
 17 13  2  0  0  0  0
 18 19  2  0  0  0  0
 19  8  1  0  0  0  0
 19 14  1  0  0  0  0
 20  9  2  0  0  0  0
 21  1  1  0  0  0  0
 22 26  2  0  0  0  0
 22 25  1  0  0  0  0
 23 21  1  0  0  0  0
 24 23  1  0  0  0  0
 25 24  2  0  0  0  0
 26 27  1  0  0  0  0
 27 23  2  0  0  0  0
M  END
>  <MODEL>
3

>  <REMARK>
 VINA RESULT:      -8.6      2.383      5.149
  Name = 
  2 active torsions:
  status: ('A' for Active; 'I' for Inactive)
    1  A    between atoms: N_1  and  C_15
    2  A    between atoms: C_9  and  C_15
                            x       y       z     vdW  Elec       q    Type
                         _______ _______ _______ _____ _____    ______ ____

>  <TORSDO>
F 2

$$$$
=
 OpenBabel11052413513D

 27 31  0  0  0  0  0  0  0  0999 V2000
  183.5890  178.7580  141.1200 N   0  0  0  0  0  0  0  0  0  0  0  0
  183.6930  178.7620  142.4640 C   0  0  0  0  0  0  0  0  0  0  0  0
  185.7470  178.4460  141.6920 C   0  0  0  0  0  0  0  0  0  0  0  0
  184.5630  178.6650  146.5110 N   0  0  0  0  0  0  0  0  0  0  0  0
  185.8260  178.4610  146.9720 C   0  0  0  0  0  3  0  0  0  0  0  0
  182.6540  178.9360  143.3800 C   0  0  0  0  0  3  0  0  0  0  0  0
  186.6310  178.3120  144.7040 C   0  0  0  0  0  3  0  0  0  0  0  0
  186.6920  178.3530  138.9900 N   0  0  0  0  0  0  0  0  0  0  0  0
  188.0440  178.3670  142.3400 O   0  0  0  0  0  0  0  0  0  0  0  0
  187.1810  178.4210  137.6230 C   0  0  0  0  0  1  0  0  0  0  0  0
  185.3330  178.5270  144.2330 C   0  0  0  0  0  0  0  0  0  0  0  0
  186.8810  178.2790  146.0760 C   0  0  0  0  0  3  0  0  0  0  0  0
  184.2870  178.7010  145.1790 C   0  0  0  0  0  0  0  0  0  0  0  0
  184.8450  178.5660  140.6570 C   0  0  0  0  0  0  0  0  0  0  0  0
  185.0040  178.5700  142.8680 C   0  0  0  0  0  0  0  0  0  0  0  0
  187.6380  177.9220  140.0300 C   0  0  0  0  0  2  0  0  0  0  0  0
  182.9640  178.9060  144.7470 C   0  0  0  0  0  3  0  0  0  0  0  0
  184.4630  178.6610  138.3140 O   0  0  0  0  0  0  0  0  0  0  0  0
  185.2880  178.5270  139.2580 C   0  0  0  0  0  0  0  0  0  0  0  0
  187.1850  178.2650  141.4280 C   0  0  0  0  0  0  0  0  0  0  0  0
  182.3810  178.9990  140.3380 C   0  0  0  0  0  2  0  0  0  0  0  0
  180.0510  175.4410  140.0150 C   0  0  0  0  0  3  0  0  0  0  0  0
  181.5690  177.7520  140.2470 C   0  0  0  0  0  0  0  0  0  0  0  0
  180.2970  177.7040  140.8240 C   0  0  0  0  0  3  0  0  0  0  0  0
  179.5380  176.5380  140.7070 C   0  0  0  0  0  3  0  0  0  0  0  0
  181.3240  175.5280  139.4460 C   0  0  0  0  0  3  0  0  0  0  0  0
  182.0490  176.6730  139.5710 N   0  0  0  0  0  0  0  0  0  0  0  0
  1  2  1  0  0  0  0
  2 15  2  0  0  0  0
  2  6  1  0  0  0  0
  3 15  1  0  0  0  0
  4  5  1  0  0  0  0
  6 17  2  0  0  0  0
  7 12  1  0  0  0  0
  8 19  1  0  0  0  0
  8 16  1  0  0  0  0
 10  8  1  0  0  0  0
 11  7  2  0  0  0  0
 11 13  1  0  0  0  0
 12  5  2  0  0  0  0
 13  4  2  0  0  0  0
 14  1  1  0  0  0  0
 14  3  2  0  0  0  0
 15 11  1  0  0  0  0
 16 20  1  0  0  0  0
 17 13  1  0  0  0  0
 18 19  2  0  0  0  0
 19 14  1  0  0  0  0
 20  3  1  0  0  0  0
 20  9  2  0  0  0  0
 21  1  1  0  0  0  0
 22 25  1  0  0  0  0
 23 21  1  0  0  0  0
 23 24  1  0  0  0  0
 25 24  2  0  0  0  0
 26 27  1  0  0  0  0
 26 22  2  0  0  0  0
 27 23  2  0  0  0  0
M  END
>  <MODEL>
4

>  <REMARK>
 VINA RESULT:      -8.5      1.616      2.017
  Name = 
  2 active torsions:
  status: ('A' for Active; 'I' for Inactive)
    1  A    between atoms: N_1  and  C_15
    2  A    between atoms: C_9  and  C_15
                            x       y       z     vdW  Elec       q    Type
                         _______ _______ _______ _____ _____    ______ ____

>  <TORSDO>
F 2

$$$$
=
 OpenBabel11052413513D

 27 31  0  0  0  0  0  0  0  0999 V2000
  185.1130  178.7720  140.7270 N   0  0  0  0  0  0  0  0  0  0  0  0
  186.4110  178.4810  140.9500 C   0  0  0  0  0  0  0  0  0  0  0  0
  185.4180  178.4180  142.9320 C   0  0  0  0  0  0  0  0  0  0  0  0
  190.2550  177.5710  142.1870 N   0  0  0  0  0  0  0  0  0  0  0  0
  190.5610  177.3600  143.4960 C   0  0  0  0  0  3  0  0  0  0  0  0
  187.4230  178.3980  139.9930 C   0  0  0  0  0  3  0  0  0  0  0  0
  188.2570  177.7410  144.0960 C   0  0  0  0  0  3  0  0  0  0  0  0
  182.6620  178.7960  143.6100 N   0  0  0  0  0  0  0  0  0  0  0  0
  185.7400  177.7950  145.2140 O   0  0  0  0  0  0  0  0  0  0  0  0
  181.2460  178.8740  143.9330 C   0  0  0  0  0  1  0  0  0  0  0  0
  187.9450  177.9520  142.7500 C   0  0  0  0  0  0  0  0  0  0  0  0
  189.5670  177.4430  144.4730 C   0  0  0  0  0  3  0  0  0  0  0  0
  188.9880  177.8640  141.7890 C   0  0  0  0  0  0  0  0  0  0  0  0
  184.5150  178.7310  141.9390 C   0  0  0  0  0  0  0  0  0  0  0  0
  186.6510  178.2580  142.2960 C   0  0  0  0  0  0  0  0  0  0  0  0
  183.6130  178.7660  144.7310 C   0  0  0  0  0  2  0  0  0  0  0  0
  188.7190  178.0840  140.4250 C   0  0  0  0  0  3  0  0  0  0  0  0
  182.2650  179.1900  141.3290 O   0  0  0  0  0  0  0  0  0  0  0  0
  183.0930  178.9280  142.2430 C   0  0  0  0  0  0  0  0  0  0  0  0
  184.9870  178.2830  144.3340 C   0  0  0  0  0  0  0  0  0  0  0  0
  184.4810  178.9970  139.4310 C   0  0  0  0  0  2  0  0  0  0  0  0
  183.6690  175.2410  137.5810 C   0  0  0  0  0  3  0  0  0  0  0  0
  184.1890  177.6950  138.7660 C   0  0  0  0  0  0  0  0  0  0  0  0
  184.9300  177.3010  137.6490 C   0  0  0  0  0  3  0  0  0  0  0  0
  184.6630  176.0660  137.0540 C   0  0  0  0  0  3  0  0  0  0  0  0
  182.9530  175.6660  138.7030 C   0  0  0  0  0  3  0  0  0  0  0  0
  183.2270  176.8730  139.2680 N   0  0  0  0  0  0  0  0  0  0  0  0
  1  2  1  0  0  0  0
  1 14  1  0  0  0  0
  2 15  1  0  0  0  0
  3 20  1  0  0  0  0
  4  5  2  0  0  0  0
  5 12  1  0  0  0  0
  6 17  1  0  0  0  0
  6  2  2  0  0  0  0
  7 12  2  0  0  0  0
  8 10  1  0  0  0  0
  8 16  1  0  0  0  0
 11  7  1  0  0  0  0
 13  4  1  0  0  0  0
 13 11  1  0  0  0  0
 14 19  1  0  0  0  0
 14  3  2  0  0  0  0
 15 11  2  0  0  0  0
 15  3  1  0  0  0  0
 17 13  2  0  0  0  0
 18 19  2  0  0  0  0
 19  8  1  0  0  0  0
 20 16  1  0  0  0  0
 20  9  2  0  0  0  0
 21  1  1  0  0  0  0
 22 26  1  0  0  0  0
 23 27  1  0  0  0  0
 23 21  1  0  0  0  0
 24 23  2  0  0  0  0
 25 22  2  0  0  0  0
 25 24  1  0  0  0  0
 26 27  2  0  0  0  0
M  END
>  <MODEL>
5

>  <REMARK>
 VINA RESULT:      -7.9      1.950      4.479
  Name = 
  2 active torsions:
  status: ('A' for Active; 'I' for Inactive)
    1  A    between atoms: N_1  and  C_15
    2  A    between atoms: C_9  and  C_15
                            x       y       z     vdW  Elec       q    Type
                         _______ _______ _______ _____ _____    ______ ____

>  <TORSDO>
F 2

$$$$
=
 OpenBabel11052413513D

 27 31  0  0  0  0  0  0  0  0999 V2000
  184.4310  178.9170  140.3280 N   0  0  0  0  0  0  0  0  0  0  0  0
  185.4670  178.6240  141.1400 C   0  0  0  0  0  0  0  0  0  0  0  0
  183.6840  178.7710  142.4490 C   0  0  0  0  0  0  0  0  0  0  0  0
  188.2730  177.7630  144.0600 N   0  0  0  0  0  0  0  0  0  0  0  0
  187.9400  177.6730  145.3760 C   0  0  0  0  0  3  0  0  0  0  0  0
  186.7960  178.4300  140.7600 C   0  0  0  0  0  3  0  0  0  0  0  0
  185.6420  178.1540  144.8280 C   0  0  0  0  0  3  0  0  0  0  0  0
  180.9470  179.2640  141.7650 N   0  0  0  0  0  0  0  0  0  0  0  0
  182.9000  178.3630  144.6670 O   0  0  0  0  0  0  0  0  0  0  0  0
  179.5460  179.4010  141.4000 C   0  0  0  0  0  1  0  0  0  0  0  0
  185.9860  178.2410  143.4770 C   0  0  0  0  0  0  0  0  0  0  0  0
  186.6190  177.8690  145.7820 C   0  0  0  0  0  3  0  0  0  0  0  0
  187.3430  178.0410  143.1060 C   0  0  0  0  0  0  0  0  0  0  0  0
  183.3480  179.0040  141.1330 C   0  0  0  0  0  0  0  0  0  0  0  0
  185.0580  178.5270  142.4600 C   0  0  0  0  0  0  0  0  0  0  0  0
  181.2850  179.3240  143.1940 C   0  0  0  0  0  2  0  0  0  0  0  0
  187.7340  178.1340  141.7580 C   0  0  0  0  0  3  0  0  0  0  0  0
  181.6500  179.4460  139.5310 O   0  0  0  0  0  0  0  0  0  0  0  0
  181.9570  179.2570  140.7390 C   0  0  0  0  0  0  0  0  0  0  0  0
  182.6570  178.7790  143.5060 C   0  0  0  0  0  0  0  0  0  0  0  0
  184.4680  179.0280  138.8730 C   0  0  0  0  0  2  0  0  0  0  0  0
  184.5810  175.1270  137.1560 C   0  0  0  0  0  3  0  0  0  0  0  0
  184.5050  177.6730  138.2530 C   0  0  0  0  0  0  0  0  0  0  0  0
  185.5870  177.3030  137.4490 C   0  0  0  0  0  3  0  0  0  0  0  0
  185.6200  176.0210  136.8970 C   0  0  0  0  0  3  0  0  0  0  0  0
  183.5190  175.5300  137.9690 C   0  0  0  0  0  3  0  0  0  0  0  0
  183.5040  176.7840  138.4980 N   0  0  0  0  0  0  0  0  0  0  0  0
  1 14  1  0  0  0  0
  1  2  1  0  0  0  0
  2 15  1  0  0  0  0
  3 15  1  0  0  0  0
  3 20  1  0  0  0  0
  4  5  2  0  0  0  0
  5 12  1  0  0  0  0
  6  2  2  0  0  0  0
  6 17  1  0  0  0  0
  7 12  2  0  0  0  0
  8 16  1  0  0  0  0
 10  8  1  0  0  0  0
 11  7  1  0  0  0  0
 13 11  1  0  0  0  0
 13  4  1  0  0  0  0
 14  3  2  0  0  0  0
 15 11  2  0  0  0  0
 16 20  1  0  0  0  0
 17 13  2  0  0  0  0
 18 19  2  0  0  0  0
 19 14  1  0  0  0  0
 19  8  1  0  0  0  0
 20  9  2  0  0  0  0
 21  1  1  0  0  0  0
 22 26  1  0  0  0  0
 23 27  1  0  0  0  0
 23 21  1  0  0  0  0
 24 23  2  0  0  0  0
 25 22  2  0  0  0  0
 25 24  1  0  0  0  0
 26 27  2  0  0  0  0
M  END
>  <MODEL>
6

>  <REMARK>
 VINA RESULT:      -7.7      2.477      4.515
  Name = 
  2 active torsions:
  status: ('A' for Active; 'I' for Inactive)
    1  A    between atoms: N_1  and  C_15
    2  A    between atoms: C_9  and  C_15
                            x       y       z     vdW  Elec       q    Type
                         _______ _______ _______ _____ _____    ______ ____

>  <TORSDO>
F 2

$$$$
=
 OpenBabel11052413513D

 27 31  0  0  0  0  0  0  0  0999 V2000
  185.6700  178.7010  140.6060 N   0  0  0  0  0  0  0  0  0  0  0  0
  186.9740  178.3690  140.6940 C   0  0  0  0  0  0  0  0  0  0  0  0
  186.1690  178.2490  142.7570 C   0  0  0  0  0  0  0  0  0  0  0  0
  190.8890  177.3110  141.5280 N   0  0  0  0  0  0  0  0  0  0  0  0
  191.3080  177.0390  142.7930 C   0  0  0  0  0  3  0  0  0  0  0  0
  187.8900  178.3000  139.6440 C   0  0  0  0  0  3  0  0  0  0  0  0
  189.0820  177.4520  143.6210 C   0  0  0  0  0  3  0  0  0  0  0  0
  183.4990  178.6670  143.7060 N   0  0  0  0  0  0  0  0  0  0  0  0
  186.6830  177.5230  144.9730 O   0  0  0  0  0  0  0  0  0  0  0  0
  182.1230  178.7680  144.1640 C   0  0  0  0  0  1  0  0  0  0  0  0
  188.6530  177.7270  142.3200 C   0  0  0  0  0  0  0  0  0  0  0  0
  190.4130  177.1060  143.8610 C   0  0  0  0  0  3  0  0  0  0  0  0
  189.5990  177.6530  141.2620 C   0  0  0  0  0  0  0  0  0  0  0  0
  185.1870  178.6250  141.8660 C   0  0  0  0  0  0  0  0  0  0  0  0
  187.3320  178.0840  142.0020 C   0  0  0  0  0  0  0  0  0  0  0  0
  184.5500  178.5670  144.7300 C   0  0  0  0  0  2  0  0  0  0  0  0
  189.2110  177.9360  139.9400 C   0  0  0  0  0  3  0  0  0  0  0  0
  182.9040  179.1660  141.4890 O   0  0  0  0  0  0  0  0  0  0  0  0
  183.8050  178.8460  142.3100 C   0  0  0  0  0  0  0  0  0  0  0  0
  185.8650  178.0660  144.1870 C   0  0  0  0  0  0  0  0  0  0  0  0
  184.9270  178.9960  139.3850 C   0  0  0  0  0  2  0  0  0  0  0  0
  183.8560  175.4110  137.3380 C   0  0  0  0  0  3  0  0  0  0  0  0
  184.5580  177.7310  138.6870 C   0  0  0  0  0  0  0  0  0  0  0  0
  183.4380  177.0070  139.1030 C   0  0  0  0  0  3  0  0  0  0  0  0
  183.0890  175.8380  138.4230 C   0  0  0  0  0  3  0  0  0  0  0  0
  184.9650  176.1650  136.9480 C   0  0  0  0  0  3  0  0  0  0  0  0
  185.2890  177.3000  137.6230 N   0  0  0  0  0  0  0  0  0  0  0  0
  1  2  1  0  0  0  0
  1 14  1  0  0  0  0
  2 15  1  0  0  0  0
  3 20  1  0  0  0  0
  4  5  2  0  0  0  0
  5 12  1  0  0  0  0
  6 17  1  0  0  0  0
  6  2  2  0  0  0  0
  7 12  2  0  0  0  0
  8 10  1  0  0  0  0
  8 16  1  0  0  0  0
 11  7  1  0  0  0  0
 13  4  1  0  0  0  0
 13 11  1  0  0  0  0
 14 19  1  0  0  0  0
 14  3  2  0  0  0  0
 15 11  2  0  0  0  0
 15  3  1  0  0  0  0
 17 13  2  0  0  0  0
 18 19  2  0  0  0  0
 19  8  1  0  0  0  0
 20 16  1  0  0  0  0
 20  9  2  0  0  0  0
 21  1  1  0  0  0  0
 22 25  1  0  0  0  0
 23 24  1  0  0  0  0
 23 21  1  0  0  0  0
 25 24  2  0  0  0  0
 26 22  2  0  0  0  0
 26 27  1  0  0  0  0
 27 23  2  0  0  0  0
M  END
>  <MODEL>
7

>  <REMARK>
 VINA RESULT:      -7.6      1.703      4.480
  Name = 
  2 active torsions:
  status: ('A' for Active; 'I' for Inactive)
    1  A    between atoms: N_1  and  C_15
    2  A    between atoms: C_9  and  C_15
                            x       y       z     vdW  Elec       q    Type
                         _______ _______ _______ _____ _____    ______ ____

>  <TORSDO>
F 2

$$$$
=
 OpenBabel11052413513D

 27 31  0  0  0  0  0  0  0  0999 V2000
  187.5710  178.2350  139.5080 N   0  0  0  0  0  0  0  0  0  0  0  0
  188.6390  177.9420  140.2770 C   0  0  0  0  0  0  0  0  0  0  0  0
  186.9380  178.2270  141.6710 C   0  0  0  0  0  0  0  0  0  0  0  0
  191.5690  177.1150  143.0830 N   0  0  0  0  0  0  0  0  0  0  0  0
  191.3070  177.1060  144.4170 C   0  0  0  0  0  3  0  0  0  0  0  0
  189.9350  177.6740  139.8370 C   0  0  0  0  0  3  0  0  0  0  0  0
  189.0020  177.6520  143.9700 C   0  0  0  0  0  3  0  0  0  0  0  0
  184.1890  178.7980  141.1110 N   0  0  0  0  0  0  0  0  0  0  0  0
  186.2650  177.9660  143.9470 O   0  0  0  0  0  0  0  0  0  0  0  0
  182.7760  178.9730  140.8150 C   0  0  0  0  0  1  0  0  0  0  0  0
  189.2730  177.6560  142.5990 C   0  0  0  0  0  0  0  0  0  0  0  0
  190.0190  177.3760  144.8840 C   0  0  0  0  0  3  0  0  0  0  0  0
  190.5980  177.3820  142.1670 C   0  0  0  0  0  0  0  0  0  0  0  0
  186.5390  178.4070  140.3650 C   0  0  0  0  0  0  0  0  0  0  0  0
  188.3010  177.9280  141.6210 C   0  0  0  0  0  0  0  0  0  0  0  0
  184.6090  178.9160  142.5150 C   0  0  0  0  0  2  0  0  0  0  0  0
  190.9160  177.3910  140.7970 C   0  0  0  0  0  3  0  0  0  0  0  0
  184.7720  178.8370  138.8360 O   0  0  0  0  0  0  0  0  0  0  0  0
  185.1390  178.6970  140.0340 C   0  0  0  0  0  0  0  0  0  0  0  0
  185.9740  178.3320  142.7800 C   0  0  0  0  0  0  0  0  0  0  0  0
  187.5310  178.2710  138.0490 C   0  0  0  0  0  2  0  0  0  0  0  0
  186.7020  174.4070  136.4480 C   0  0  0  0  0  3  0  0  0  0  0  0
  187.2290  176.9150  137.5080 C   0  0  0  0  0  0  0  0  0  0  0  0
  185.9280  176.5980  137.1090 C   0  0  0  0  0  3  0  0  0  0  0  0
  185.6670  175.3330  136.5780 C   0  0  0  0  0  3  0  0  0  0  0  0
  187.9910  174.7630  136.8520 C   0  0  0  0  0  3  0  0  0  0  0  0
  188.2260  176.0000  137.3670 N   0  0  0  0  0  0  0  0  0  0  0  0
  1  2  1  0  0  0  0
  1 14  1  0  0  0  0
  2 15  1  0  0  0  0
  3 20  1  0  0  0  0
  4  5  2  0  0  0  0
  5 12  1  0  0  0  0
  6  2  2  0  0  0  0
  6 17  1  0  0  0  0
  7 12  2  0  0  0  0
  8 16  1  0  0  0  0
 10  8  1  0  0  0  0
 11  7  1  0  0  0  0
 13 11  1  0  0  0  0
 13  4  1  0  0  0  0
 14  3  2  0  0  0  0
 15  3  1  0  0  0  0
 15 11  2  0  0  0  0
 16 20  1  0  0  0  0
 17 13  2  0  0  0  0
 18 19  2  0  0  0  0
 19 14  1  0  0  0  0
 19  8  1  0  0  0  0
 20  9  2  0  0  0  0
 21  1  1  0  0  0  0
 22 25  2  0  0  0  0
 22 26  1  0  0  0  0
 23 21  1  0  0  0  0
 24 23  2  0  0  0  0
 25 24  1  0  0  0  0
 26 27  2  0  0  0  0
 27 23  1  0  0  0  0
M  END
>  <MODEL>
8

>  <REMARK>
 VINA RESULT:      -7.5      2.370      4.726
  Name = 
  2 active torsions:
  status: ('A' for Active; 'I' for Inactive)
    1  A    between atoms: N_1  and  C_15
    2  A    between atoms: C_9  and  C_15
                            x       y       z     vdW  Elec       q    Type
                         _______ _______ _______ _____ _____    ______ ____

>  <TORSDO>
F 2

$$$$
=
 OpenBabel11052413513D

 27 31  0  0  0  0  0  0  0  0999 V2000
  185.6790  179.0040  141.1230 N   0  0  0  0  0  0  0  0  0  0  0  0
  184.6050  179.0080  141.9380 C   0  0  0  0  0  0  0  0  0  0  0  0
  183.8980  178.1970  139.9990 C   0  0  0  0  0  0  0  0  0  0  0  0
  181.0160  178.8280  143.9950 N   0  0  0  0  0  0  0  0  0  0  0  0
  179.8720  178.3800  143.4100 C   0  0  0  0  0  3  0  0  0  0  0  0
  184.5700  179.4280  143.2680 C   0  0  0  0  0  3  0  0  0  0  0  0
  181.0710  177.9970  141.3540 C   0  0  0  0  0  3  0  0  0  0  0  0
  185.3600  177.6760  137.5930 N   0  0  0  0  0  0  0  0  0  0  0  0
  182.0510  177.1240  138.9330 O   0  0  0  0  0  0  0  0  0  0  0  0
  186.1290  177.3070  136.4150 C   0  0  0  0  0  1  0  0  0  0  0  0
  182.2450  178.4530  141.9580 C   0  0  0  0  0  0  0  0  0  0  0  0
  179.8800  177.9590  142.0800 C   0  0  0  0  0  3  0  0  0  0  0  0
  182.1930  178.8780  143.3130 C   0  0  0  0  0  0  0  0  0  0  0  0
  185.2400  178.5080  139.9430 C   0  0  0  0  0  0  0  0  0  0  0  0
  183.4800  178.5230  141.2910 C   0  0  0  0  0  0  0  0  0  0  0  0
  183.8950  177.6100  137.4950 C   0  0  0  0  0  2  0  0  0  0  0  0
  183.3490  179.3580  143.9540 C   0  0  0  0  0  3  0  0  0  0  0  0
  187.2590  178.5170  138.6910 O   0  0  0  0  0  0  0  0  0  0  0  0
  186.0270  178.2540  138.7310 C   0  0  0  0  0  0  0  0  0  0  0  0
  183.2070  177.6090  138.8380 C   0  0  0  0  0  0  0  0  0  0  0  0
  187.0440  179.3780  141.4770 C   0  0  0  0  0  2  0  0  0  0  0  0
  189.1240  175.9770  142.9910 C   0  0  0  0  0  3  0  0  0  0  0  0
  187.7760  178.2010  142.0250 C   0  0  0  0  0  0  0  0  0  0  0  0
  187.2480  177.4950  143.1090 C   0  0  0  0  0  3  0  0  0  0  0  0
  187.9310  176.3780  143.5940 C   0  0  0  0  0  3  0  0  0  0  0  0
  189.6170  176.7040  141.9040 C   0  0  0  0  0  3  0  0  0  0  0  0
  188.9370  177.7900  141.4470 N   0  0  0  0  0  0  0  0  0  0  0  0
  1 21  1  0  0  0  0
  1  2  1  0  0  0  0
  2  6  1  0  0  0  0
  3 15  1  0  0  0  0
  5  4  1  0  0  0  0
  6 17  2  0  0  0  0
  7 11  2  0  0  0  0
  7 12  1  0  0  0  0
  8 19  1  0  0  0  0
 10  8  1  0  0  0  0
 11 13  1  0  0  0  0
 12  5  2  0  0  0  0
 13 17  1  0  0  0  0
 13  4  2  0  0  0  0
 14  3  2  0  0  0  0
 14  1  1  0  0  0  0
 15  2  2  0  0  0  0
 15 11  1  0  0  0  0
 16  8  1  0  0  0  0
 16 20  1  0  0  0  0
 18 19  2  0  0  0  0
 19 14  1  0  0  0  0
 20  9  2  0  0  0  0
 20  3  1  0  0  0  0
 21 23  1  0  0  0  0
 22 25  1  0  0  0  0
 23 24  1  0  0  0  0
 24 25  2  0  0  0  0
 26 22  2  0  0  0  0
 27 26  1  0  0  0  0
 27 23  2  0  0  0  0
M  END
>  <MODEL>
9

>  <REMARK>
 VINA RESULT:      -7.4      2.180      5.128
  Name = 
  2 active torsions:
  status: ('A' for Active; 'I' for Inactive)
    1  A    between atoms: N_1  and  C_15
    2  A    between atoms: C_9  and  C_15
                            x       y       z     vdW  Elec       q    Type
                         _______ _______ _______ _____ _____    ______ ____

>  <TORSDO>
F 2

$$$$
