=
 OpenBabel11052416463D

 32 37  0  0  1  0  0  0  0  0999 V2000
  188.6250  176.5820  136.7590 C   0  0  0  0  0  3  0  0  0  0  0  0
  188.8690  177.7080  141.8430 C   0  0  0  0  0  0  0  0  0  0  0  0
  184.0390  178.8120  142.3940 C   0  0  0  0  0  3  0  0  0  0  0  0
  184.1990  178.6470  143.7040 C   0  0  0  0  0  3  0  0  0  0  0  0
  190.2850  177.3240  143.9010 N   0  0  0  0  0  0  0  0  0  0  0  0
  190.2600  177.1180  145.3130 C   0  0  0  0  0  0  0  0  0  0  0  0
  189.8030  177.7800  139.4900 C   0  0  2  0  0  3  0  0  0  0  0  0
  187.5130  178.2510  139.7800 C   0  0  0  0  0  2  0  0  0  0  0  0
  189.3420  177.0900  147.3160 N   0  0  0  0  0  0  0  0  0  0  0  0
  188.2980  177.7560  137.6410 C   0  0  0  0  0  2  0  0  0  0  0  0
  185.1830  178.6620  141.4320 C   0  0  0  0  0  2  0  0  0  0  0  0
  187.6200  178.0390  141.2710 C   0  0  0  0  0  0  0  0  0  0  0  0
  186.4960  178.2670  142.0830 C   0  0  0  0  0  0  0  0  0  0  0  0
  187.8330  177.7820  144.0740 C   0  0  0  0  0  0  0  0  0  0  0  0
  190.6640  176.8330  147.4520 C   0  0  0  0  0  3  0  0  0  0  0  0
  190.5640  175.7690  138.1510 C   0  0  0  0  0  2  0  0  0  0  0  0
  188.4500  177.4080  139.0480 N   0  0  1  0  0  0  0  0  0  0  0  0
  191.2900  176.8480  146.1980 C   0  0  0  0  0  3  0  0  0  0  0  0
  190.9080  177.1830  138.6050 C   0  0  0  0  0  2  0  0  0  0  0  0
  189.6640  175.7440  136.9390 C   0  0  0  0  0  0  0  0  0  0  0  0
  185.5130  178.2990  144.2580 C   0  0  0  0  0  3  0  0  0  0  0  0
  186.5970  178.1200  143.4840 C   0  0  0  0  0  0  0  0  0  0  0  0
  187.8960  177.6190  145.3760 N   0  0  0  0  0  0  0  0  0  0  0  0
  190.0050  177.3140  140.9280 C   0  0  0  0  0  2  0  0  0  0  0  0
  191.5820  177.4720  143.2530 C   0  0  0  0  0  1  0  0  0  0  0  0
  188.3680  177.1850  148.3880 C   0  0  0  0  0  1  0  0  0  0  0  0
  189.0030  177.6100  143.2530 C   0  0  0  0  0  0  0  0  0  0  0  0
  189.1210  177.2610  146.0090 C   0  0  0  0  0  0  0  0  0  0  0  0
  189.8650  174.6500  135.9410 C   0  0  0  0  0  2  0  0  0  0  0  0
  188.6080  173.8070  135.7930 C   0  0  2  0  0  3  0  0  0  0  0  0
  188.4930  172.9120  136.9300 N   0  0  0  0  0  1  0  0  0  0  0  0
  188.6740  173.0550  134.6190 O   0  0  0  0  0  1  0  0  0  0  0  0
  1 20  2  0  0  0  0
  1 10  1  0  0  0  0
  2 27  2  0  0  0  0
  3  4  2  0  0  0  0
  4 21  1  0  0  0  0
  5  6  1  0  0  0  0
  6 28  2  0  0  0  0
  6 18  1  0  0  0  0
  7 19  1  6  0  0  0
  7 24  1  0  0  0  0
  8 12  1  0  0  0  0
  9 15  1  0  0  0  0
  9 26  1  0  0  0  0
 11 13  1  0  0  0  0
 11  3  1  0  0  0  0
 12  2  1  0  0  0  0
 12 13  2  0  0  0  0
 13 22  1  0  0  0  0
 14 23  2  0  0  0  0
 16 19  1  0  0  0  0
 17 10  1  6  0  0  0
 17  7  1  0  0  0  0
 17  8  1  0  0  0  0
 18 15  2  0  0  0  0
 20 16  1  0  0  0  0
 22 14  1  0  0  0  0
 22 21  2  0  0  0  0
 23 28  1  0  0  0  0
 24  2  1  0  0  0  0
 25  5  1  0  0  0  0
 27  5  1  0  0  0  0
 27 14  1  0  0  0  0
 28  9  1  0  0  0  0
 29 20  1  0  0  0  0
 30 32  1  6  0  0  0
 30 29  1  0  0  0  0
 30 31  1  0  0  0  0
M  END
>  <MODEL>
1

>  <REMARK>
 VINA RESULT:     -10.2      0.000      0.000
  Name = 
  2 active torsions:
  status: ('A' for Active; 'I' for Inactive)
    1  A    between atoms: C_1  and  C_10
    2  A    between atoms: C_10  and  C_24
                            x       y       z     vdW  Elec       q    Type
                         _______ _______ _______ _____ _____    ______ ____

>  <TORSDO>
F 2

$$$$
=
 OpenBabel11052416463D

 32 37  0  0  1  0  0  0  0  0999 V2000
  180.1380  178.1160  142.1680 C   0  0  0  0  0  3  0  0  0  0  0  0
  185.3370  178.4310  142.3720 C   0  0  0  0  0  0  0  0  0  0  0  0
  185.6980  178.3680  147.3430 C   0  0  0  0  0  3  0  0  0  0  0  0
  186.9760  178.0310  147.2000 C   0  0  0  0  0  3  0  0  0  0  0  0
  187.4120  178.0320  140.9830 N   0  0  0  0  0  0  0  0  0  0  0  0
  188.7720  177.6000  141.0140 C   0  0  0  0  0  0  0  0  0  0  0  0
  183.0950  179.0810  141.3900 C   0  0  2  0  0  3  0  0  0  0  0  0
  183.2860  178.9960  143.7370 C   0  0  0  0  0  2  0  0  0  0  0  0
  190.6760  177.0520  141.9770 N   0  0  0  0  0  0  0  0  0  0  0  0
  181.1600  179.0330  142.7820 C   0  0  0  0  0  2  0  0  0  0  0  0
  184.8080  178.6240  146.1600 C   0  0  0  0  0  3  0  0  0  0  0  0
  184.7330  178.5730  143.6410 C   0  0  0  0  0  0  0  0  0  0  0  0
  185.4860  178.4200  144.8170 C   0  0  0  0  0  0  0  0  0  0  0  0
  187.4740  177.9190  143.4810 C   0  0  0  0  0  0  0  0  0  0  0  0
  190.8670  177.0660  140.6380 C   0  0  0  0  0  3  0  0  0  0  0  0
  181.5290  177.5240  140.1490 C   0  0  0  0  0  2  0  0  0  0  0  0
  182.5070  178.5030  142.6080 N   0  0  1  0  0  0  0  0  0  0  0  0
  189.6780  177.4180  139.9840 C   0  0  0  0  0  3  0  0  0  0  0  0
  182.2130  178.8870  140.1470 C   0  0  0  0  0  2  0  0  0  0  0  0
  180.2650  177.5020  140.9750 C   0  0  0  0  0  0  0  0  0  0  0  0
  187.5650  177.8890  145.8630 C   0  0  0  0  0  3  0  0  0  0  0  0
  186.8530  178.0740  144.7380 C   0  0  2  0  0  3  0  0  0  0  0  0
  188.7380  177.5640  143.4320 N   0  0  0  0  0  0  0  0  0  0  0  0
  184.4580  178.4430  141.1440 C   0  0  0  0  0  2  0  0  0  0  0  0
  186.8880  178.5580  139.7290 C   0  0  0  0  0  1  0  0  0  0  0  0
  191.6780  176.7610  142.9870 C   0  0  0  0  0  1  0  0  0  0  0  0
  186.7230  178.1380  142.2720 C   0  0  0  0  0  0  0  0  0  0  0  0
  189.3970  177.3800  142.1820 C   0  0  0  0  0  0  0  0  0  0  0  0
  179.1320  176.6530  140.4980 C   0  0  0  0  0  2  0  0  0  0  0  0
  179.4850  175.1760  140.5740 C   0  0  2  0  0  3  0  0  0  0  0  0
  178.9310  174.4890  139.4220 N   0  0  0  0  0  1  0  0  0  0  0  0
  178.9600  174.6200  141.7400 O   0  0  0  0  0  1  0  0  0  0  0  0
  1 10  1  0  0  0  0
  2 12  1  0  0  0  0
  4  3  1  0  0  0  0
  5  6  1  0  0  0  0
  5 27  1  0  0  0  0
  6 28  2  0  0  0  0
  7 19  1  6  0  0  0
  7 17  1  0  0  0  0
  9 28  1  0  0  0  0
  9 26  1  0  0  0  0
 11  3  2  0  0  0  0
 12  8  1  0  0  0  0
 12 13  2  0  0  0  0
 13 11  1  0  0  0  0
 14 22  1  0  0  0  0
 15  9  1  0  0  0  0
 16 20  1  0  0  0  0
 17 10  1  1  0  0  0
 17  8  1  0  0  0  0
 18 15  2  0  0  0  0
 18  6  1  0  0  0  0
 19 16  1  0  0  0  0
 20  1  2  0  0  0  0
 21  4  2  0  0  0  0
 22 13  1  0  0  0  0
 22 21  1  6  0  0  0
 23 14  2  0  0  0  0
 24  7  1  0  0  0  0
 24  2  1  0  0  0  0
 25  5  1  0  0  0  0
 27  2  2  0  0  0  0
 27 14  1  0  0  0  0
 28 23  1  0  0  0  0
 29 30  1  0  0  0  0
 29 20  1  0  0  0  0
 30 31  1  6  0  0  0
 30 32  1  0  0  0  0
M  END
>  <MODEL>
2

>  <REMARK>
 VINA RESULT:     -10.2      3.795      6.835
  Name = 
  2 active torsions:
  status: ('A' for Active; 'I' for Inactive)
    1  A    between atoms: C_1  and  C_10
    2  A    between atoms: C_10  and  C_24
                            x       y       z     vdW  Elec       q    Type
                         _______ _______ _______ _____ _____    ______ ____

>  <TORSDO>
F 2

$$$$
=
 OpenBabel11052416463D

 32 37  0  0  1  0  0  0  0  0999 V2000
  186.8340  177.1770  137.0010 C   0  0  0  0  0  3  0  0  0  0  0  0
  187.7500  178.0730  142.0540 C   0  0  0  0  0  0  0  0  0  0  0  0
  183.0180  179.0020  143.3160 C   0  0  0  0  0  3  0  0  0  0  0  0
  183.3610  178.7820  144.5810 C   0  0  0  0  0  3  0  0  0  0  0  0
  189.4460  177.6380  143.8770 N   0  0  0  0  0  0  0  0  0  0  0  0
  189.6220  177.3660  145.2670 C   0  0  0  0  0  0  0  0  0  0  0  0
  188.3480  178.2830  139.6020 C   0  0  2  0  0  3  0  0  0  0  0  0
  186.1100  178.6690  140.2260 C   0  0  0  0  0  2  0  0  0  0  0  0
  188.9900  177.2170  147.3730 N   0  0  0  0  0  0  0  0  0  0  0  0
  186.6030  178.2980  137.9780 C   0  0  0  0  0  2  0  0  0  0  0  0
  184.0210  178.9320  142.1990 C   0  0  0  0  0  2  0  0  0  0  0  0
  186.4270  178.3920  141.6760 C   0  0  0  0  0  0  0  0  0  0  0  0
  185.4210  178.5470  142.6440 C   0  0  0  0  0  0  0  0  0  0  0  0
  187.0310  178.0120  144.4070 C   0  0  0  0  0  0  0  0  0  0  0  0
  190.3230  176.9940  147.3140 C   0  0  0  0  0  3  0  0  0  0  0  0
  188.9660  176.3600  138.0730 C   0  0  0  0  0  2  0  0  0  0  0  0
  186.9570  177.8900  139.3320 N   0  0  1  0  0  0  0  0  0  0  0  0
  190.7700  177.0860  145.9880 C   0  0  0  0  0  3  0  0  0  0  0  0
  189.3350  177.7620  138.5450 C   0  0  0  0  0  2  0  0  0  0  0  0
  187.9070  176.3640  136.9950 C   0  0  0  0  0  0  0  0  0  0  0  0
  184.7470  178.4490  144.9320 C   0  0  0  0  0  3  0  0  0  0  0  0
  185.7180  178.3390  144.0090 C   0  0  0  0  0  0  0  0  0  0  0  0
  187.2770  177.7900  145.6780 N   0  0  0  0  0  0  0  0  0  0  0  0
  188.7580  177.7570  140.9730 C   0  0  0  0  0  2  0  0  0  0  0  0
  190.6370  177.8550  143.0660 C   0  0  0  0  0  1  0  0  0  0  0  0
  188.1710  177.2320  148.5720 C   0  0  0  0  0  1  0  0  0  0  0  0
  188.0810  177.9150  143.4260 C   0  0  0  0  0  0  0  0  0  0  0  0
  188.5870  177.4410  146.1190 C   0  0  0  0  0  0  0  0  0  0  0  0
  187.9950  175.3240  135.9250 C   0  0  0  0  0  2  0  0  0  0  0  0
  188.0600  173.9280  136.5240 C   0  0  2  0  0  3  0  0  0  0  0  0
  188.2820  172.9600  135.4650 N   0  0  0  0  0  1  0  0  0  0  0  0
  186.8620  173.6320  137.1750 O   0  0  0  0  0  1  0  0  0  0  0  0
  1 10  1  0  0  0  0
  2 27  2  0  0  0  0
  3  4  2  0  0  0  0
  4 21  1  0  0  0  0
  5  6  1  0  0  0  0
  6 18  1  0  0  0  0
  6 28  2  0  0  0  0
  7 19  1  6  0  0  0
  7 24  1  0  0  0  0
  8 12  1  0  0  0  0
  9 26  1  0  0  0  0
 11 13  1  0  0  0  0
 11  3  1  0  0  0  0
 12  2  1  0  0  0  0
 12 13  2  0  0  0  0
 13 22  1  0  0  0  0
 14 23  2  0  0  0  0
 15  9  1  0  0  0  0
 16 19  1  0  0  0  0
 17 10  1  6  0  0  0
 17  7  1  0  0  0  0
 17  8  1  0  0  0  0
 18 15  2  0  0  0  0
 20  1  2  0  0  0  0
 20 16  1  0  0  0  0
 22 14  1  0  0  0  0
 22 21  2  0  0  0  0
 23 28  1  0  0  0  0
 24  2  1  0  0  0  0
 25  5  1  0  0  0  0
 27  5  1  0  0  0  0
 27 14  1  0  0  0  0
 28  9  1  0  0  0  0
 29 30  1  0  0  0  0
 29 20  1  0  0  0  0
 30 31  1  6  0  0  0
 30 32  1  0  0  0  0
M  END
>  <MODEL>
3

>  <REMARK>
 VINA RESULT:     -10.2      1.185      1.372
  Name = 
  2 active torsions:
  status: ('A' for Active; 'I' for Inactive)
    1  A    between atoms: C_1  and  C_10
    2  A    between atoms: C_10  and  C_24
                            x       y       z     vdW  Elec       q    Type
                         _______ _______ _______ _____ _____    ______ ____

>  <TORSDO>
F 2

$$$$
=
 OpenBabel11052416463D

 32 37  0  0  1  0  0  0  0  0999 V2000
  188.6820  176.5880  136.7870 C   0  0  0  0  0  3  0  0  0  0  0  0
  188.9060  177.7040  141.8740 C   0  0  0  0  0  0  0  0  0  0  0  0
  184.0770  178.8230  142.4050 C   0  0  0  0  0  3  0  0  0  0  0  0
  184.2300  178.6550  143.7150 C   0  0  0  0  0  3  0  0  0  0  0  0
  190.3110  177.3130  143.9380 N   0  0  0  0  0  0  0  0  0  0  0  0
  190.2790  177.1040  145.3500 C   0  0  0  0  0  0  0  0  0  0  0  0
  189.8510  177.7770  139.5260 C   0  0  2  0  0  3  0  0  0  0  0  0
  187.5610  178.2550  139.8060 C   0  0  0  0  0  2  0  0  0  0  0  0
  189.3510  177.0760  147.3480 N   0  0  0  0  0  0  0  0  0  0  0  0
  188.3540  177.7610  137.6700 C   0  0  0  0  0  2  0  0  0  0  0  0
  185.2240  178.6700  141.4470 C   0  0  0  0  0  2  0  0  0  0  0  0
  187.6600  178.0400  141.2970 C   0  0  0  0  0  0  0  0  0  0  0  0
  186.5340  178.2700  142.1040 C   0  0  0  0  0  0  0  0  0  0  0  0
  187.8600  177.7780  144.1010 C   0  0  0  0  0  0  0  0  0  0  0  0
  190.6710  176.8150  147.4900 C   0  0  0  0  0  3  0  0  0  0  0  0
  190.6120  175.7660  138.1880 C   0  0  0  0  0  2  0  0  0  0  0  0
  188.4990  177.4100  139.0780 N   0  0  1  0  0  0  0  0  0  0  0  0
  191.3040  176.8290  146.2390 C   0  0  0  0  0  3  0  0  0  0  0  0
  190.9580  177.1780  138.6450 C   0  0  0  0  0  2  0  0  0  0  0  0
  189.7170  175.7460  136.9710 C   0  0  0  0  0  0  0  0  0  0  0  0
  185.5410  178.3030  144.2740 C   0  0  0  0  0  3  0  0  0  0  0  0
  186.6270  178.1210  143.5050 C   0  0  0  0  0  0  0  0  0  0  0  0
  187.9150  177.6120  145.4030 N   0  0  0  0  0  0  0  0  0  0  0  0
  190.0440  177.3090  140.9640 C   0  0  0  0  0  2  0  0  0  0  0  0
  191.6120  177.4570  143.2960 C   0  0  0  0  0  1  0  0  0  0  0  0
  188.3730  177.1720  148.4160 C   0  0  0  0  0  1  0  0  0  0  0  0
  189.0330  177.6040  143.2850 C   0  0  0  0  0  0  0  0  0  0  0  0
  189.1370  177.2500  146.0410 C   0  0  0  0  0  0  0  0  0  0  0  0
  189.9200  174.6530  135.9720 C   0  0  0  0  0  2  0  0  0  0  0  0
  191.3640  174.6030  135.5000 C   0  0  2  0  0  3  0  0  0  0  0  0
  191.6760  175.8240  134.7790 N   0  0  0  0  0  1  0  0  0  0  0  0
  191.5530  173.5080  134.6570 O   0  0  0  0  0  1  0  0  0  0  0  0
  1 20  2  0  0  0  0
  1 10  1  0  0  0  0
  2 27  2  0  0  0  0
  3  4  2  0  0  0  0
  4 21  1  0  0  0  0
  5  6  1  0  0  0  0
  6 28  2  0  0  0  0
  6 18  1  0  0  0  0
  7 19  1  6  0  0  0
  7 24  1  0  0  0  0
  8 12  1  0  0  0  0
  9 15  1  0  0  0  0
  9 26  1  0  0  0  0
 11 13  1  0  0  0  0
 11  3  1  0  0  0  0
 12  2  1  0  0  0  0
 12 13  2  0  0  0  0
 13 22  1  0  0  0  0
 14 23  2  0  0  0  0
 16 19  1  0  0  0  0
 17 10  1  6  0  0  0
 17  7  1  0  0  0  0
 17  8  1  0  0  0  0
 18 15  2  0  0  0  0
 20 16  1  0  0  0  0
 22 14  1  0  0  0  0
 22 21  2  0  0  0  0
 23 28  1  0  0  0  0
 24  2  1  0  0  0  0
 25  5  1  0  0  0  0
 27  5  1  0  0  0  0
 27 14  1  0  0  0  0
 28  9  1  0  0  0  0
 29 20  1  0  0  0  0
 30 32  1  6  0  0  0
 30 29  1  0  0  0  0
 31 30  1  0  0  0  0
M  END
>  <MODEL>
4

>  <REMARK>
 VINA RESULT:     -10.1      1.035      1.120
  Name = 
  2 active torsions:
  status: ('A' for Active; 'I' for Inactive)
    1  A    between atoms: C_1  and  C_10
    2  A    between atoms: C_10  and  C_24
                            x       y       z     vdW  Elec       q    Type
                         _______ _______ _______ _____ _____    ______ ____

>  <TORSDO>
F 2

$$$$
=
 OpenBabel11052416463D

 32 37  0  0  1  0  0  0  0  0999 V2000
  185.2410  177.4200  137.1370 C   0  0  0  0  0  3  0  0  0  0  0  0
  187.6090  178.0500  141.7380 C   0  0  0  0  0  0  0  0  0  0  0  0
  183.4820  179.0420  144.3510 C   0  0  0  0  0  3  0  0  0  0  0  0
  184.1660  178.7530  145.4530 C   0  0  0  0  0  3  0  0  0  0  0  0
  189.7410  177.4850  142.9740 N   0  0  0  0  0  0  0  0  0  0  0  0
  190.2990  177.1420  144.2420 C   0  0  0  0  0  0  0  0  0  0  0  0
  187.4830  178.3600  139.2270 C   0  0  2  0  0  3  0  0  0  0  0  0
  185.5360  178.7750  140.4870 C   0  0  0  0  0  2  0  0  0  0  0  0
  190.2950  176.9110  146.4330 N   0  0  0  0  0  0  0  0  0  0  0  0
  185.3460  178.4980  138.1800 C   0  0  0  0  0  2  0  0  0  0  0  0
  184.1170  178.9980  142.9900 C   0  0  0  0  0  2  0  0  0  0  0  0
  186.2460  178.4210  141.7720 C   0  0  0  0  0  0  0  0  0  0  0  0
  185.5690  178.5570  142.9950 C   0  0  0  0  0  0  0  0  0  0  0  0
  187.5970  177.8970  144.1940 C   0  0  0  0  0  0  0  0  0  0  0  0
  191.5450  176.6560  145.9820 C   0  0  0  0  0  3  0  0  0  0  0  0
  187.5580  176.4970  137.5130 C   0  0  0  0  0  2  0  0  0  0  0  0
  186.0590  178.0170  139.3570 N   0  0  1  0  0  0  0  0  0  0  0  0
  191.5940  176.7990  144.5880 C   0  0  0  0  0  3  0  0  0  0  0  0
  188.1020  177.8640  137.9110 C   0  0  0  0  0  2  0  0  0  0  0  0
  186.2350  176.5790  136.7890 C   0  0  0  0  0  0  0  0  0  0  0  0
  185.5800  178.3680  145.3740 C   0  0  0  0  0  3  0  0  0  0  0  0
  186.2390  178.2760  144.2060 C   0  0  0  0  0  0  0  0  0  0  0  0
  188.1900  177.6080  145.3310 N   0  0  0  0  0  0  0  0  0  0  0  0
  188.2500  177.7600  140.4010 C   0  0  0  0  0  2  0  0  0  0  0  0
  190.6550  177.7090  141.8610 C   0  0  0  0  0  1  0  0  0  0  0  0
  189.8580  176.8900  147.8180 C   0  0  0  0  0  1  0  0  0  0  0  0
  188.3150  177.8180  142.9480 C   0  0  0  0  0  0  0  0  0  0  0  0
  189.5570  177.2040  145.3590 C   0  0  0  0  0  0  0  0  0  0  0  0
  185.9700  175.5890  135.7020 C   0  0  0  0  0  2  0  0  0  0  0  0
  184.7930  174.6930  136.0530 C   0  0  2  0  0  3  0  0  0  0  0  0
  185.1940  173.7570  137.0880 N   0  0  0  0  0  1  0  0  0  0  0  0
  184.3800  173.9840  134.9250 O   0  0  0  0  0  1  0  0  0  0  0  0
  1 10  1  0  0  0  0
  2 12  1  0  0  0  0
  2 27  2  0  0  0  0
  3  4  2  0  0  0  0
  5  6  1  0  0  0  0
  6 18  1  0  0  0  0
  6 28  2  0  0  0  0
  7 19  1  6  0  0  0
  7 17  1  0  0  0  0
  7 24  1  0  0  0  0
  8 12  1  0  0  0  0
  9 26  1  0  0  0  0
 11 13  1  0  0  0  0
 11  3  1  0  0  0  0
 12 13  2  0  0  0  0
 13 22  1  0  0  0  0
 14 22  1  0  0  0  0
 14 23  2  0  0  0  0
 15  9  1  0  0  0  0
 16 19  1  0  0  0  0
 17 10  1  6  0  0  0
 17  8  1  0  0  0  0
 18 15  2  0  0  0  0
 20  1  2  0  0  0  0
 20 16  1  0  0  0  0
 21  4  1  0  0  0  0
 22 21  2  0  0  0  0
 23 28  1  0  0  0  0
 24  2  1  0  0  0  0
 25  5  1  0  0  0  0
 27  5  1  0  0  0  0
 27 14  1  0  0  0  0
 28  9  1  0  0  0  0
 29 30  1  0  0  0  0
 29 20  1  0  0  0  0
 30 32  1  6  0  0  0
 30 31  1  0  0  0  0
M  END
>  <MODEL>
5

>  <REMARK>
 VINA RESULT:      -9.7      1.829      2.312
  Name = 
  2 active torsions:
  status: ('A' for Active; 'I' for Inactive)
    1  A    between atoms: C_1  and  C_10
    2  A    between atoms: C_10  and  C_24
                            x       y       z     vdW  Elec       q    Type
                         _______ _______ _______ _____ _____    ______ ____

>  <TORSDO>
F 2

$$$$
=
 OpenBabel11052416463D

 32 37  0  0  1  0  0  0  0  0999 V2000
  181.3440  177.9800  139.7210 C   0  0  0  0  0  3  0  0  0  0  0  0
  186.0560  178.3690  141.9160 C   0  0  0  0  0  0  0  0  0  0  0  0
  184.4560  178.4890  146.6360 C   0  0  0  0  0  3  0  0  0  0  0  0
  185.6890  178.1650  147.0130 C   0  0  0  0  0  3  0  0  0  0  0  0
  188.5060  177.9480  141.4580 N   0  0  0  0  0  0  0  0  0  0  0  0
  189.7460  177.5350  142.0320 C   0  0  0  0  0  0  0  0  0  0  0  0
  184.3720  178.9550  140.1160 C   0  0  2  0  0  3  0  0  0  0  0  0
  183.6360  178.9560  142.3550 C   0  0  0  0  0  2  0  0  0  0  0  0
  191.1260  177.0470  143.6790 N   0  0  0  0  0  0  0  0  0  0  0  0
  182.0490  178.9320  140.6480 C   0  0  0  0  0  2  0  0  0  0  0  0
  184.0970  178.6910  145.1910 C   0  0  0  0  0  3  0  0  0  0  0  0
  185.0060  178.5490  142.8440 C   0  0  0  0  0  0  0  0  0  0  0  0
  185.2430  178.4480  144.2250 C   0  0  0  0  0  0  0  0  0  0  0  0
  187.5930  177.9250  143.7860 C   0  0  0  0  0  0  0  0  0  0  0  0
  191.8220  177.0160  142.5190 C   0  0  0  0  0  3  0  0  0  0  0  0
  183.4090  177.3340  138.4250 C   0  0  0  0  0  2  0  0  0  0  0  0
  183.3560  178.4130  141.0310 N   0  0  1  0  0  0  0  0  0  0  0  0
  190.9810  177.3280  141.4420 C   0  0  0  0  0  3  0  0  0  0  0  0
  184.0420  178.7040  138.6370 C   0  0  0  0  0  2  0  0  0  0  0  0
  181.9230  177.3260  138.6950 C   0  0  0  0  0  0  0  0  0  0  0  0
  186.7510  177.9820  146.0160 C   0  0  0  0  0  3  0  0  0  0  0  0
  186.5320  178.1170  144.6970 C   0  0  2  0  0  3  0  0  0  0  0  0
  188.7750  177.5860  144.2460 N   0  0  0  0  0  0  0  0  0  0  0  0
  185.7230  178.3260  140.4430 C   0  0  0  0  0  2  0  0  0  0  0  0
  188.5120  178.4220  140.0800 C   0  0  0  0  0  1  0  0  0  0  0  0
  191.6550  176.8050  145.0090 C   0  0  0  0  0  1  0  0  0  0  0  0
  187.3710  178.0910  142.3730 C   0  0  0  0  0  0  0  0  0  0  0  0
  189.8680  177.3660  143.3580 C   0  0  0  0  0  0  0  0  0  0  0  0
  181.0630  176.4450  137.8480 C   0  0  0  0  0  2  0  0  0  0  0  0
  181.1760  174.9910  138.2790 C   0  0  2  0  0  3  0  0  0  0  0  0
  181.3500  174.1540  137.1060 N   0  0  0  0  0  1  0  0  0  0  0  0
  180.0200  174.6030  138.9550 O   0  0  0  0  0  1  0  0  0  0  0  0
  1 10  1  0  0  0  0
  2 27  2  0  0  0  0
  2 12  1  0  0  0  0
  3  4  1  0  0  0  0
  5  6  1  0  0  0  0
  5 27  1  0  0  0  0
  6 28  2  0  0  0  0
  7 19  1  6  0  0  0
  7 24  1  0  0  0  0
  7 17  1  0  0  0  0
  8 12  1  0  0  0  0
  9 26  1  0  0  0  0
 11  3  2  0  0  0  0
 12 13  2  0  0  0  0
 13 22  1  0  0  0  0
 13 11  1  0  0  0  0
 14 23  2  0  0  0  0
 14 22  1  0  0  0  0
 15  9  1  0  0  0  0
 16 19  1  0  0  0  0
 16 20  1  0  0  0  0
 17 10  1  6  0  0  0
 17  8  1  0  0  0  0
 18  6  1  0  0  0  0
 18 15  2  0  0  0  0
 20  1  2  0  0  0  0
 21  4  2  0  0  0  0
 22 21  1  6  0  0  0
 24  2  1  0  0  0  0
 25  5  1  0  0  0  0
 27 14  1  0  0  0  0
 28  9  1  0  0  0  0
 28 23  1  0  0  0  0
 29 30  1  0  0  0  0
 29 20  1  0  0  0  0
 30 31  1  6  0  0  0
 30 32  1  0  0  0  0
M  END
>  <MODEL>
6

>  <REMARK>
 VINA RESULT:      -9.6      3.370      5.306
  Name = 
  2 active torsions:
  status: ('A' for Active; 'I' for Inactive)
    1  A    between atoms: C_1  and  C_10
    2  A    between atoms: C_10  and  C_24
                            x       y       z     vdW  Elec       q    Type
                         _______ _______ _______ _____ _____    ______ ____

>  <TORSDO>
F 2

$$$$
=
 OpenBabel11052416463D

 32 37  0  0  1  0  0  0  0  0999 V2000
  189.6600  176.1400  136.2810 C   0  0  0  0  0  3  0  0  0  0  0  0
  188.1040  177.8960  140.9360 C   0  0  0  0  0  0  0  0  0  0  0  0
  183.4580  179.0640  139.5590 C   0  0  0  0  0  3  0  0  0  0  0  0
  183.1260  179.0650  140.8460 C   0  0  0  0  0  3  0  0  0  0  0  0
  188.6630  177.7730  143.3980 N   0  0  0  0  0  0  0  0  0  0  0  0
  188.1200  177.7460  144.7180 C   0  0  0  0  0  0  0  0  0  0  0  0
  189.8270  177.6700  139.0930 C   0  0  2  0  0  3  0  0  0  0  0  0
  187.6110  178.1760  138.4730 C   0  0  0  0  0  2  0  0  0  0  0  0
  186.5410  177.9710  146.2380 N   0  0  0  0  0  0  0  0  0  0  0  0
  189.0910  177.4150  136.8400 C   0  0  0  0  0  2  0  0  0  0  0  0
  184.8640  178.7920  139.1030 C   0  0  0  0  0  2  0  0  0  0  0  0
  187.1620  178.1520  139.9140 C   0  0  0  0  0  0  0  0  0  0  0  0
  185.8330  178.4820  140.2290 C   0  0  0  0  0  0  0  0  0  0  0  0
  186.3370  178.2500  142.6120 C   0  0  0  0  0  0  0  0  0  0  0  0
  187.7100  177.7320  146.8740 C   0  0  0  0  0  3  0  0  0  0  0  0
  190.9260  175.5060  138.3680 C   0  0  0  0  0  2  0  0  0  0  0  0
  188.7090  177.2460  138.2370 N   0  0  1  0  0  0  0  0  0  0  0  0
  188.7470  177.5880  145.9420 C   0  0  0  0  0  3  0  0  0  0  0  0
  191.1480  176.9660  138.7470 C   0  0  0  0  0  2  0  0  0  0  0  0
  190.5240  175.3300  136.9230 C   0  0  0  0  0  0  0  0  0  0  0  0
  184.1340  178.7880  141.8770 C   0  0  0  0  0  3  0  0  0  0  0  0
  185.4150  178.5120  141.5770 C   0  0  0  0  0  0  0  0  0  0  0  0
  185.9180  178.2520  143.8570 N   0  0  0  0  0  0  0  0  0  0  0  0
  189.4740  177.3890  140.5500 C   0  0  0  0  0  2  0  0  0  0  0  0
  190.1120  177.8370  143.2540 C   0  0  0  0  0  1  0  0  0  0  0  0
  185.2510  178.2000  146.8630 C   0  0  0  0  0  1  0  0  0  0  0  0
  187.7160  177.9760  142.2990 C   0  0  0  0  0  0  0  0  0  0  0  0
  186.8150  177.9760  144.9300 C   0  0  0  0  0  0  0  0  0  0  0  0
  191.0210  174.1190  136.2020 C   0  0  0  0  0  2  0  0  0  0  0  0
  192.4940  173.8760  136.4910 C   0  0  2  0  0  3  0  0  0  0  0  0
  193.2990  174.6830  135.5920 N   0  0  0  0  0  1  0  0  0  0  0  0
  192.8020  172.5290  136.3010 O   0  0  0  0  0  1  0  0  0  0  0  0
  1 10  1  0  0  0  0
  1 20  2  0  0  0  0
  2 27  2  0  0  0  0
  3  4  2  0  0  0  0
  4 21  1  0  0  0  0
  5  6  1  0  0  0  0
  6 28  2  0  0  0  0
  6 18  1  0  0  0  0
  7 19  1  6  0  0  0
  7 24  1  0  0  0  0
  8 12  1  0  0  0  0
  9 26  1  0  0  0  0
  9 15  1  0  0  0  0
 11  3  1  0  0  0  0
 11 13  1  0  0  0  0
 12 13  2  0  0  0  0
 12  2  1  0  0  0  0
 13 22  1  0  0  0  0
 14 23  2  0  0  0  0
 16 19  1  0  0  0  0
 17 10  1  6  0  0  0
 17  8  1  0  0  0  0
 17  7  1  0  0  0  0
 18 15  2  0  0  0  0
 20 16  1  0  0  0  0
 22 21  2  0  0  0  0
 22 14  1  0  0  0  0
 23 28  1  0  0  0  0
 24  2  1  0  0  0  0
 25  5  1  0  0  0  0
 27 14  1  0  0  0  0
 27  5  1  0  0  0  0
 28  9  1  0  0  0  0
 29 30  1  0  0  0  0
 29 20  1  0  0  0  0
 30 31  1  6  0  0  0
 32 30  1  0  0  0  0
M  END
>  <MODEL>
7

>  <REMARK>
 VINA RESULT:      -8.7      1.844      2.424
  Name = 
  2 active torsions:
  status: ('A' for Active; 'I' for Inactive)
    1  A    between atoms: C_1  and  C_10
    2  A    between atoms: C_10  and  C_24
                            x       y       z     vdW  Elec       q    Type
                         _______ _______ _______ _____ _____    ______ ____

>  <TORSDO>
F 2

$$$$
=
 OpenBabel11052416463D

 32 37  0  0  1  0  0  0  0  0999 V2000
  183.0960  178.2890  141.3730 C   0  0  0  0  0  3  0  0  0  0  0  0
  188.0060  177.9330  139.6600 C   0  0  0  0  0  0  0  0  0  0  0  0
  190.1440  177.7160  144.1580 C   0  0  0  0  0  3  0  0  0  0  0  0
  191.2280  177.2230  143.5680 C   0  0  0  0  0  3  0  0  0  0  0  0
  189.3630  177.3040  137.6230 N   0  0  0  0  0  0  0  0  0  0  0  0
  190.5740  176.7010  137.1670 C   0  0  0  0  0  0  0  0  0  0  0  0
  185.6620  178.8860  139.5460 C   0  0  2  0  0  3  0  0  0  0  0  0
  186.6840  178.7250  141.6630 C   0  0  0  0  0  2  0  0  0  0  0  0
  192.6130  175.8930  137.3850 N   0  0  0  0  0  0  0  0  0  0  0  0
  184.3790  179.0550  141.5480 C   0  0  0  0  0  2  0  0  0  0  0  0
  188.9240  178.1100  143.3740 C   0  0  0  0  0  3  0  0  0  0  0  0
  187.9300  178.1240  141.0580 C   0  0  0  0  0  0  0  0  0  0  0  0
  189.0340  177.8500  141.8820 C   0  0  0  0  0  0  0  0  0  0  0  0
  190.3170  177.1290  139.9280 C   0  0  0  0  0  0  0  0  0  0  0  0
  192.3030  175.9120  136.0680 C   0  0  0  0  0  3  0  0  0  0  0  0
  183.5680  177.5680  139.0020 C   0  0  0  0  0  2  0  0  0  0  0  0
  185.4900  178.3610  140.9090 N   0  0  1  0  0  0  0  0  0  0  0  0
  191.0120  176.4270  135.8830 C   0  0  0  0  0  3  0  0  0  0  0  0
  184.3710  178.8330  138.7150 C   0  0  0  0  0  2  0  0  0  0  0  0
  182.7000  177.6910  140.2320 C   0  0  0  0  0  0  0  0  0  0  0  0
  191.2650  177.0360  142.1130 C   0  0  0  0  0  3  0  0  0  0  0  0
  190.2220  177.3340  141.3200 C   0  0  2  0  0  3  0  0  0  0  0  0
  191.4200  176.6170  139.4310 N   0  0  0  0  0  0  0  0  0  0  0  0
  186.7490  178.0850  138.8370 C   0  0  0  0  0  2  0  0  0  0  0  0
  188.4890  177.9190  136.6320 C   0  0  0  0  0  1  0  0  0  0  0  0
  193.8680  175.4550  137.9680 C   0  0  0  0  0  1  0  0  0  0  0  0
  189.2110  177.4680  139.0700 C   0  0  0  0  0  0  0  0  0  0  0  0
  191.5490  176.3780  138.0320 C   0  0  0  0  0  0  0  0  0  0  0  0
  181.3730  177.0040  140.2230 C   0  0  0  0  0  2  0  0  0  0  0  0
  180.3410  177.7970  141.0100 C   0  0  2  0  0  3  0  0  0  0  0  0
  179.3060  176.8980  141.4870 N   0  0  0  0  0  1  0  0  0  0  0  0
  179.7660  178.7710  140.1940 O   0  0  0  0  0  1  0  0  0  0  0  0
  1 10  1  0  0  0  0
  2 12  1  0  0  0  0
  4  3  1  0  0  0  0
  5 27  1  0  0  0  0
  6  5  1  0  0  0  0
  6 28  2  0  0  0  0
  7 19  1  6  0  0  0
  7 17  1  0  0  0  0
  9 26  1  0  0  0  0
  9 28  1  0  0  0  0
 11  3  2  0  0  0  0
 12  8  1  0  0  0  0
 12 13  2  0  0  0  0
 13 11  1  0  0  0  0
 14 22  1  0  0  0  0
 15  9  1  0  0  0  0
 16 20  1  0  0  0  0
 17 10  1  1  0  0  0
 17  8  1  0  0  0  0
 18 15  2  0  0  0  0
 18  6  1  0  0  0  0
 19 16  1  0  0  0  0
 20  1  2  0  0  0  0
 21  4  2  0  0  0  0
 22 13  1  0  0  0  0
 22 21  1  1  0  0  0
 23 14  2  0  0  0  0
 24  7  1  0  0  0  0
 24  2  1  0  0  0  0
 25  5  1  0  0  0  0
 27  2  2  0  0  0  0
 27 14  1  0  0  0  0
 28 23  1  0  0  0  0
 29 20  1  0  0  0  0
 29 30  1  0  0  0  0
 30 32  1  6  0  0  0
 30 31  1  0  0  0  0
M  END
>  <MODEL>
8

>  <REMARK>
 VINA RESULT:      -8.0      3.440      7.429
  Name = 
  2 active torsions:
  status: ('A' for Active; 'I' for Inactive)
    1  A    between atoms: C_1  and  C_10
    2  A    between atoms: C_10  and  C_24
                            x       y       z     vdW  Elec       q    Type
                         _______ _______ _______ _____ _____    ______ ____

>  <TORSDO>
F 2

$$$$
=
 OpenBabel11052416463D

 32 37  0  0  1  0  0  0  0  0999 V2000
  191.9500  176.6960  143.2460 C   0  0  0  0  0  3  0  0  0  0  0  0
  187.9310  178.1070  140.2420 C   0  0  0  0  0  0  0  0  0  0  0  0
  189.9060  176.5830  135.9270 C   0  0  0  0  0  3  0  0  0  0  0  0
  188.6810  176.6080  135.4100 C   0  0  0  0  0  3  0  0  0  0  0  0
  185.4630  178.6450  140.3420 N   0  0  0  0  0  0  0  0  0  0  0  0
  184.2180  178.5460  139.6510 C   0  0  0  0  0  0  0  0  0  0  0  0
  189.5320  178.5020  142.1630 C   0  0  2  0  0  3  0  0  0  0  0  0
  190.4280  177.7360  140.1230 C   0  0  0  0  0  2  0  0  0  0  0  0
  182.9180  178.1750  137.9110 N   0  0  0  0  0  0  0  0  0  0  0  0
  191.7290  177.5840  142.0520 C   0  0  0  0  0  2  0  0  0  0  0  0
  190.1750  176.9850  137.3490 C   0  0  0  0  0  2  0  0  0  0  0  0
  189.0570  177.7060  139.4900 C   0  0  0  0  0  0  0  0  0  0  0  0
  188.9320  177.3700  138.1320 C   0  0  0  0  0  0  0  0  0  0  0  0
  186.5230  177.7760  138.2500 C   0  0  0  0  0  0  0  0  0  0  0  0
  182.1510  178.6490  138.9190 C   0  0  0  0  0  3  0  0  0  0  0  0
  189.6780  177.0950  144.2650 C   0  0  0  0  0  2  0  0  0  0  0  0
  190.3660  177.4560  141.5530 N   0  0  1  0  0  0  0  0  0  0  0  0
  182.9410  178.9060  140.0480 C   0  0  0  0  0  3  0  0  0  0  0  0
  189.6070  178.5090  143.6980 C   0  0  0  0  0  2  0  0  0  0  0  0
  191.0780  176.5300  144.2600 C   0  0  0  0  0  0  0  0  0  0  0  0
  187.5360  177.0280  136.2270 C   0  0  0  0  0  3  0  0  0  0  0  0
  187.6620  177.3860  137.5160 C   0  0  0  0  0  0  0  0  0  0  0  0
  185.3460  177.7530  137.6660 N   0  0  0  0  0  0  0  0  0  0  0  0
  188.0840  178.3010  141.7320 C   0  0  0  0  0  2  0  0  0  0  0  0
  185.4970  179.4010  141.5870 C   0  0  0  0  0  1  0  0  0  0  0  0
  182.4660  177.8200  136.5780 C   0  0  0  0  0  1  0  0  0  0  0  0
  186.6540  178.1840  139.6250 C   0  0  0  0  0  0  0  0  0  0  0  0
  184.1690  178.1230  138.3780 C   0  0  0  0  0  0  0  0  0  0  0  0
  191.4770  175.6370  145.3900 C   0  0  0  0  0  2  0  0  0  0  0  0
  191.6500  176.4290  146.6770 C   0  0  2  0  0  3  0  0  0  0  0  0
  192.6780  175.8050  147.4900 N   0  0  0  0  0  1  0  0  0  0  0  0
  190.4500  176.4510  147.3880 O   0  0  0  0  0  1  0  0  0  0  0  0
  1 20  2  0  0  0  0
  2 24  1  0  0  0  0
  3 11  1  0  0  0  0
  4  3  2  0  0  0  0
  4 21  1  0  0  0  0
  5 25  1  0  0  0  0
  6 18  1  0  0  0  0
  6  5  1  0  0  0  0
  7 24  1  1  0  0  0
  7 19  1  0  0  0  0
  9 28  1  0  0  0  0
  9 15  1  0  0  0  0
 10  1  1  0  0  0  0
 11 13  1  0  0  0  0
 12  8  1  0  0  0  0
 12  2  1  0  0  0  0
 13 12  2  0  0  0  0
 14 27  1  0  0  0  0
 15 18  2  0  0  0  0
 17  8  1  6  0  0  0
 17 10  1  0  0  0  0
 17  7  1  0  0  0  0
 19 16  1  0  0  0  0
 20 16  1  0  0  0  0
 20 29  1  0  0  0  0
 21 22  2  0  0  0  0
 22 13  1  0  0  0  0
 22 14  1  0  0  0  0
 23 14  2  0  0  0  0
 23 28  1  0  0  0  0
 26  9  1  0  0  0  0
 27  2  2  0  0  0  0
 27  5  1  0  0  0  0
 28  6  2  0  0  0  0
 29 30  1  0  0  0  0
 30 32  1  1  0  0  0
 30 31  1  0  0  0  0
M  END
>  <MODEL>
9

>  <REMARK>
 VINA RESULT:      -8.0      3.297      8.031
  Name = 
  2 active torsions:
  status: ('A' for Active; 'I' for Inactive)
    1  A    between atoms: C_1  and  C_10
    2  A    between atoms: C_10  and  C_24
                            x       y       z     vdW  Elec       q    Type
                         _______ _______ _______ _____ _____    ______ ____

>  <TORSDO>
F 2

$$$$
