=
 OpenBabel11052414323D

 32 37  0  0  1  0  0  0  0  0999 V2000
  189.0020  177.7300  137.7990 C   0  0  0  0  0  0  0  0  0  0  0  0
  188.6670  177.1180  136.4290 C   0  0  1  0  0  3  0  0  0  0  0  0
  187.8900  178.5400  138.4360 C   0  0  0  0  0  2  0  0  0  0  0  0
  192.6370  176.4260  137.2530 C   0  0  0  0  0  2  0  0  0  0  0  0
  192.6820  175.1690  134.5940 C   0  0  0  0  0  3  0  0  0  0  0  0
  191.7810  175.1950  136.9900 C   0  0  2  0  0  3  0  0  0  0  0  0
  189.4250  173.5900  136.2200 C   0  0  2  0  0  3  0  0  0  0  0  0
  191.4890  175.0420  135.4850 C   0  0  2  0  0  0  0  0  0  0  0  0
  189.9680  176.9040  135.6650 C   0  0  0  0  0  2  0  0  0  0  0  0
  190.3620  174.1080  135.1030 C   0  0  2  0  0  3  0  0  0  0  0  0
  187.9270  175.9450  136.5790 O   0  0  0  0  0  1  0  0  0  0  0  0
  190.2330  175.6400  134.8200 C   0  0  2  0  0  3  0  0  0  0  0  0
  189.9710  175.6500  138.6620 N   0  0  0  0  0  0  0  0  0  0  0  0
  193.7890  175.7880  135.0410 C   0  0  0  0  0  3  0  0  0  0  0  0
  190.1060  177.0990  138.6980 C   0  0  2  0  0  3  0  0  0  0  0  0
  190.0030  173.6590  137.5220 O   0  0  0  0  0  0  0  0  0  0  0  0
  193.9520  176.2910  136.4690 C   0  0  0  0  0  2  0  0  0  0  0  0
  189.0560  179.2430  137.7530 C   0  0  0  0  0  2  0  0  0  0  0  0
  190.6060  174.8500  137.8590 C   0  0  0  0  0  0  0  0  0  0  0  0
  191.4840  177.7320  142.2700 C   0  0  0  0  0  2  0  0  0  0  0  0
  188.9620  177.7050  142.3660 C   0  0  0  0  0  2  0  0  0  0  0  0
  190.1390  177.6160  140.1470 C   0  0  1  0  0  3  0  0  0  0  0  0
  190.2630  177.2680  143.0630 C   0  0  2  0  0  3  0  0  0  0  0  0
  188.9190  177.1450  140.9500 C   0  0  0  0  0  2  0  0  0  0  0  0
  191.4370  177.1900  140.8440 C   0  0  1  0  0  3  0  0  0  0  0  0
  192.5290  177.6730  140.1470 F   0  0  0  0  0  0  0  0  0  0  0  0
  189.1030  177.4890  145.1760 C   0  0  0  0  0  1  0  0  0  0  0  0
  191.3830  176.9130  145.1300 C   0  0  0  0  0  1  0  0  0  0  0  0
  190.3590  177.7030  144.4640 N   0  0  0  0  0  0  0  0  0  0  0  0
  189.0050  172.1650  135.9130 C   0  0  0  0  0  2  0  0  0  0  0  0
  186.7630  172.5770  136.8730 C   0  0  0  0  0  1  0  0  0  0  0  0
  187.5140  172.1050  135.6460 C   0  0  0  0  0  2  0  0  0  0  0  0
  1  3  1  0  0  0  0
  1 15  1  0  0  0  0
  2 11  1  1  0  0  0
  2  1  1  0  0  0  0
  5 14  2  0  0  0  0
  6  4  1  6  0  0  0
  6 19  1  0  0  0  0
  7 30  1  6  0  0  0
  7 16  1  0  0  0  0
  8  5  1  6  0  0  0
  8  6  1  0  0  0  0
  9  2  1  0  0  0  0
 10  8  1  0  0  0  0
 10  7  1  0  0  0  0
 12 10  1  0  0  0  0
 12  8  1  0  0  0  0
 12  9  1  0  0  0  0
 13 15  1  0  0  0  0
 14 17  1  0  0  0  0
 15 22  1  0  0  0  0
 16 19  1  0  0  0  0
 17  4  1  0  0  0  0
 18  1  1  0  0  0  0
 18  3  1  0  0  0  0
 19 13  2  0  0  0  0
 20 23  1  0  0  0  0
 21 23  1  0  0  0  0
 22 25  1  0  0  0  0
 22 24  1  0  0  0  0
 23 29  1  0  0  0  0
 24 21  1  0  0  0  0
 25 20  1  0  0  0  0
 26 25  1  0  0  0  0
 29 28  1  0  0  0  0
 29 27  1  0  0  0  0
 32 30  1  0  0  0  0
 32 31  1  0  0  0  0
M  END
>  <MODEL>
1

>  <REMARK>
 VINA RESULT:      -6.7      0.000      0.000
  Name = 
  4 active torsions:
  status: ('A' for Active; 'I' for Inactive)
    1  A    between atoms: C_11  and  C_12
    2  A    between atoms: C_11  and  C_31
    3  A    between atoms: C_16  and  C_27
    4  A    between atoms: C_19  and  N_26
                            x       y       z     vdW  Elec       q    Type
                         _______ _______ _______ _____ _____    ______ ____

>  <TORSDO>
F 4

$$$$
=
 OpenBabel11052414323D

 32 37  0  0  1  0  0  0  0  0999 V2000
  181.8230  179.1490  138.8180 C   0  0  0  0  0  0  0  0  0  0  0  0
  181.0470  178.5860  137.6170 C   0  0  1  0  0  3  0  0  0  0  0  0
  181.0540  180.1260  139.6860 C   0  0  0  0  0  2  0  0  0  0  0  0
  184.9470  177.2990  137.3960 C   0  0  0  0  0  2  0  0  0  0  0  0
  184.0930  176.0290  134.8820 C   0  0  0  0  0  3  0  0  0  0  0  0
  183.8820  176.2120  137.4280 C   0  0  2  0  0  3  0  0  0  0  0  0
  181.1980  174.9820  137.3860 C   0  0  2  0  0  3  0  0  0  0  0  0
  183.1770  176.0940  136.0620 C   0  0  2  0  0  0  0  0  0  0  0  0
  182.0500  178.1690  136.5470 C   0  0  0  0  0  2  0  0  0  0  0  0
  181.8660  175.3410  136.0370 C   0  0  2  0  0  3  0  0  0  0  0  0
  180.2120  177.5420  138.0130 O   0  0  0  0  0  1  0  0  0  0  0  0
  181.8910  176.8730  135.7250 C   0  0  2  0  0  3  0  0  0  0  0  0
  182.6740  176.9520  139.4940 N   0  0  0  0  0  0  0  0  0  0  0  0
  185.3580  176.4750  134.9920 C   0  0  0  0  0  3  0  0  0  0  0  0
  183.0240  178.3630  139.4230 C   0  0  2  0  0  3  0  0  0  0  0  0
  182.1080  174.9710  138.4840 O   0  0  0  0  0  0  0  0  0  0  0  0
  185.9690  176.9570  136.2990 C   0  0  0  0  0  2  0  0  0  0  0  0
  182.0830  180.6360  138.6860 C   0  0  0  0  0  2  0  0  0  0  0  0
  182.9460  176.0580  138.5920 C   0  0  0  0  0  0  0  0  0  0  0  0
  185.5020  179.0870  142.3200 C   0  0  0  0  0  2  0  0  0  0  0  0
  183.1740  178.8850  143.2750 C   0  0  0  0  0  2  0  0  0  0  0  0
  183.5200  178.8800  140.7850 C   0  0  1  0  0  3  0  0  0  0  0  0
  184.6610  178.5380  143.4720 C   0  0  2  0  0  3  0  0  0  0  0  0
  182.6830  178.3250  141.9460 C   0  0  0  0  0  2  0  0  0  0  0  0
  185.0020  178.5430  140.9840 C   0  0  1  0  0  3  0  0  0  0  0  0
  185.7550  179.1020  139.9670 F   0  0  0  0  0  0  0  0  0  0  0  0
  184.2400  178.7800  145.8440 C   0  0  0  0  0  1  0  0  0  0  0  0
  186.3800  178.1790  145.0740 C   0  0  0  0  0  1  0  0  0  0  0  0
  185.2040  178.9780  144.7660 N   0  0  0  0  0  0  0  0  0  0  0  0
  180.5070  173.6360  137.2700 C   0  0  0  0  0  2  0  0  0  0  0  0
  182.0890  171.7570  136.9760 C   0  0  0  0  0  1  0  0  0  0  0  0
  181.2220  172.7670  136.2540 C   0  0  0  0  0  2  0  0  0  0  0  0
  1 15  1  0  0  0  0
  1  3  1  0  0  0  0
  2 11  1  1  0  0  0
  2  1  1  0  0  0  0
  5 14  2  0  0  0  0
  6  4  1  6  0  0  0
  6 19  1  0  0  0  0
  7 30  1  6  0  0  0
  7 16  1  0  0  0  0
  8  5  1  6  0  0  0
  8  6  1  0  0  0  0
  9  2  1  0  0  0  0
 10  8  1  0  0  0  0
 10  7  1  0  0  0  0
 12 10  1  0  0  0  0
 12  8  1  0  0  0  0
 12  9  1  0  0  0  0
 14 17  1  0  0  0  0
 15 13  1  0  0  0  0
 15 22  1  0  0  0  0
 16 19  1  0  0  0  0
 17  4  1  0  0  0  0
 18  1  1  0  0  0  0
 18  3  1  0  0  0  0
 19 13  2  0  0  0  0
 20 23  1  0  0  0  0
 21 23  1  0  0  0  0
 22 25  1  0  0  0  0
 22 24  1  0  0  0  0
 23 29  1  0  0  0  0
 24 21  1  0  0  0  0
 25 20  1  0  0  0  0
 26 25  1  0  0  0  0
 29 28  1  0  0  0  0
 29 27  1  0  0  0  0
 32 31  1  0  0  0  0
 32 30  1  0  0  0  0
M  END
>  <MODEL>
2

>  <REMARK>
 VINA RESULT:      -6.2      5.570      7.305
  Name = 
  4 active torsions:
  status: ('A' for Active; 'I' for Inactive)
    1  A    between atoms: C_11  and  C_12
    2  A    between atoms: C_11  and  C_31
    3  A    between atoms: C_16  and  C_27
    4  A    between atoms: C_19  and  N_26
                            x       y       z     vdW  Elec       q    Type
                         _______ _______ _______ _____ _____    ______ ____

>  <TORSDO>
F 4

$$$$
=
 OpenBabel11052414323D

 32 37  0  0  1  0  0  0  0  0999 V2000
  180.3610  178.6510  142.3980 C   0  0  0  0  0  0  0  0  0  0  0  0
  179.2040  178.0190  141.6080 C   0  0  1  0  0  3  0  0  0  0  0  0
  180.1870  178.6640  143.9040 C   0  0  0  0  0  2  0  0  0  0  0  0
  181.8860  179.6480  138.9500 C   0  0  0  0  0  2  0  0  0  0  0  0
  179.9720  178.7570  136.9010 C   0  0  0  0  0  3  0  0  0  0  0  0
  181.5980  178.1620  138.7880 C   0  0  2  0  0  3  0  0  0  0  0  0
  180.2950  175.5450  139.2100 C   0  0  2  0  0  3  0  0  0  0  0  0
  180.2230  177.9390  138.1270 C   0  0  2  0  0  0  0  0  0  0  0  0
  179.1980  178.6110  140.2040 C   0  0  0  0  0  2  0  0  0  0  0  0
  179.6320  176.5520  138.2390 C   0  0  2  0  0  3  0  0  0  0  0  0
  179.3040  176.6280  141.6100 O   0  0  0  0  0  1  0  0  0  0  0  0
  178.9310  177.7560  138.9470 C   0  0  2  0  0  3  0  0  0  0  0  0
  182.0820  177.4410  141.1380 N   0  0  0  0  0  0  0  0  0  0  0  0
  180.6920  179.8710  136.6810 C   0  0  0  0  0  3  0  0  0  0  0  0
  181.7940  178.7110  141.7890 C   0  0  2  0  0  3  0  0  0  0  0  0
  181.6480  175.8690  139.5240 O   0  0  0  0  0  0  0  0  0  0  0  0
  181.8500  180.3130  137.5640 C   0  0  0  0  0  2  0  0  0  0  0  0
  179.9500  179.9310  143.0940 C   0  0  0  0  0  2  0  0  0  0  0  0
  181.8960  177.1760  139.8800 C   0  0  0  0  0  0  0  0  0  0  0  0
  185.3890  179.1160  143.1920 C   0  0  0  0  0  2  0  0  0  0  0  0
  183.7850  178.8730  145.1260 C   0  0  0  0  0  2  0  0  0  0  0  0
  182.9070  179.0900  142.7810 C   0  0  1  0  0  3  0  0  0  0  0  0
  185.1630  178.4800  144.5640 C   0  0  2  0  0  3  0  0  0  0  0  0
  182.6890  178.4480  144.1580 C   0  0  0  0  0  2  0  0  0  0  0  0
  184.2820  178.7080  142.2220 C   0  0  1  0  0  3  0  0  0  0  0  0
  184.4950  179.3420  141.0120 F   0  0  0  0  0  0  0  0  0  0  0  0
  185.8480  178.8140  146.8610 C   0  0  0  0  0  1  0  0  0  0  0  0
  187.2880  177.7450  145.3380 C   0  0  0  0  0  1  0  0  0  0  0  0
  186.2810  178.7880  145.4680 N   0  0  0  0  0  0  0  0  0  0  0  0
  180.2180  174.1480  138.6260 C   0  0  0  0  0  2  0  0  0  0  0  0
  181.6670  173.7610  136.6600 C   0  0  0  0  0  1  0  0  0  0  0  0
  180.2930  174.2070  137.1140 C   0  0  0  0  0  2  0  0  0  0  0  0
  1 18  1  0  0  0  0
  1  3  1  0  0  0  0
  2 11  1  6  0  0  0
  2  1  1  0  0  0  0
  6  4  1  1  0  0  0
  6 19  1  0  0  0  0
  7 30  1  6  0  0  0
  7 16  1  0  0  0  0
  8  5  1  6  0  0  0
  8 10  1  0  0  0  0
  8  6  1  0  0  0  0
  8 12  1  0  0  0  0
  9  2  1  0  0  0  0
 10 12  1  0  0  0  0
 10  7  1  0  0  0  0
 12  9  1  0  0  0  0
 13 15  1  0  0  0  0
 14  5  2  0  0  0  0
 14 17  1  0  0  0  0
 15  1  1  0  0  0  0
 15 22  1  0  0  0  0
 16 19  1  0  0  0  0
 17  4  1  0  0  0  0
 18  3  1  0  0  0  0
 19 13  2  0  0  0  0
 20 23  1  0  0  0  0
 22 24  1  0  0  0  0
 23 21  1  0  0  0  0
 23 29  1  0  0  0  0
 24 21  1  0  0  0  0
 25 22  1  0  0  0  0
 25 20  1  0  0  0  0
 26 25  1  0  0  0  0
 28 29  1  0  0  0  0
 29 27  1  0  0  0  0
 31 32  1  0  0  0  0
 32 30  1  0  0  0  0
M  END
>  <MODEL>
3

>  <REMARK>
 VINA RESULT:      -5.7      7.602      9.415
  Name = 
  4 active torsions:
  status: ('A' for Active; 'I' for Inactive)
    1  A    between atoms: C_11  and  C_12
    2  A    between atoms: C_11  and  C_31
    3  A    between atoms: C_16  and  C_27
    4  A    between atoms: C_19  and  N_26
                            x       y       z     vdW  Elec       q    Type
                         _______ _______ _______ _____ _____    ______ ____

>  <TORSDO>
F 4

$$$$
=
 OpenBabel11052414323D

 32 37  0  0  1  0  0  0  0  0999 V2000
  181.4610  177.4510  136.2900 C   0  0  0  0  0  0  0  0  0  0  0  0
  182.1490  176.7410  135.1120 C   0  0  1  0  0  3  0  0  0  0  0  0
  179.9740  177.6940  136.1210 C   0  0  0  0  0  2  0  0  0  0  0  0
  185.0170  177.8770  137.8320 C   0  0  0  0  0  2  0  0  0  0  0  0
  186.9120  176.7450  135.8870 C   0  0  0  0  0  3  0  0  0  0  0  0
  184.9560  176.3930  137.5010 C   0  0  2  0  0  3  0  0  0  0  0  0
  184.1490  173.9070  136.1270 C   0  0  2  0  0  3  0  0  0  0  0  0
  185.5780  176.1130  136.1190 C   0  0  2  0  0  0  0  0  0  0  0  0
  183.6260  177.1160  135.1190 C   0  0  0  0  0  2  0  0  0  0  0  0
  185.2600  174.7740  135.4890 C   0  0  2  0  0  3  0  0  0  0  0  0
  181.9380  175.3640  135.1730 O   0  0  0  0  0  1  0  0  0  0  0  0
  184.7410  176.0910  134.8240 C   0  0  2  0  0  3  0  0  0  0  0  0
  182.5240  176.0190  137.9720 N   0  0  0  0  0  0  0  0  0  0  0  0
  187.2960  177.7930  136.6380 C   0  0  0  0  0  3  0  0  0  0  0  0
  182.0710  177.3790  137.7210 C   0  0  2  0  0  3  0  0  0  0  0  0
  183.8850  174.2350  137.4890 O   0  0  0  0  0  0  0  0  0  0  0  0
  186.4870  178.3280  137.8100 C   0  0  0  0  0  2  0  0  0  0  0  0
  180.9650  178.8320  135.9160 C   0  0  0  0  0  2  0  0  0  0  0  0
  183.7280  175.5730  137.7750 C   0  0  0  0  0  0  0  0  0  0  0  0
  180.9000  179.4770  140.7690 C   0  0  0  0  0  2  0  0  0  0  0  0
  179.7460  177.2340  140.8360 C   0  0  0  0  0  2  0  0  0  0  0  0
  181.1450  177.8710  138.8480 C   0  0  1  0  0  3  0  0  0  0  0  0
  180.4430  178.3270  141.6650 C   0  0  2  0  0  3  0  0  0  0  0  0
  180.6900  176.7210  139.7560 C   0  0  0  0  0  2  0  0  0  0  0  0
  181.8320  178.9660  139.6730 C   0  0  1  0  0  3  0  0  0  0  0  0
  182.1810  180.0250  138.8550 F   0  0  0  0  0  0  0  0  0  0  0  0
  180.1580  178.3930  144.0680 C   0  0  0  0  0  1  0  0  0  0  0  0
  179.6640  180.2870  142.7640 C   0  0  0  0  0  1  0  0  0  0  0  0
  179.6290  178.8330  142.7810 N   0  0  0  0  0  0  0  0  0  0  0  0
  184.5160  172.4400  136.0080 C   0  0  0  0  0  2  0  0  0  0  0  0
  183.3890  170.2500  136.2340 C   0  0  0  0  0  1  0  0  0  0  0  0
  183.6060  171.6010  136.8830 C   0  0  0  0  0  2  0  0  0  0  0  0
  1 15  1  0  0  0  0
  2  9  1  0  0  0  0
  2 11  1  1  0  0  0
  2  1  1  0  0  0  0
  3  1  1  0  0  0  0
  5 14  2  0  0  0  0
  6 19  1  0  0  0  0
  6  4  1  6  0  0  0
  7 30  1  1  0  0  0
  7 16  1  0  0  0  0
  8  5  1  6  0  0  0
  8  6  1  0  0  0  0
 10  8  1  0  0  0  0
 10  7  1  0  0  0  0
 12  9  1  0  0  0  0
 12 10  1  0  0  0  0
 12  8  1  0  0  0  0
 14 17  1  0  0  0  0
 15 13  1  0  0  0  0
 15 22  1  0  0  0  0
 16 19  1  0  0  0  0
 17  4  1  0  0  0  0
 18  3  1  0  0  0  0
 18  1  1  0  0  0  0
 19 13  2  0  0  0  0
 20 23  1  0  0  0  0
 21 23  1  0  0  0  0
 22 25  1  0  0  0  0
 22 24  1  0  0  0  0
 23 29  1  0  0  0  0
 24 21  1  0  0  0  0
 25 20  1  0  0  0  0
 26 25  1  0  0  0  0
 28 29  1  0  0  0  0
 29 27  1  0  0  0  0
 30 32  1  0  0  0  0
 31 32  1  0  0  0  0
M  END
>  <MODEL>
4

>  <REMARK>
 VINA RESULT:      -5.5      6.279      7.872
  Name = 
  4 active torsions:
  status: ('A' for Active; 'I' for Inactive)
    1  A    between atoms: C_11  and  C_12
    2  A    between atoms: C_11  and  C_31
    3  A    between atoms: C_16  and  C_27
    4  A    between atoms: C_19  and  N_26
                            x       y       z     vdW  Elec       q    Type
                         _______ _______ _______ _____ _____    ______ ____

>  <TORSDO>
F 4

$$$$
=
 OpenBabel11052414323D

 32 37  0  0  1  0  0  0  0  0999 V2000
  182.3680  176.4830  138.1610 C   0  0  0  0  0  0  0  0  0  0  0  0
  180.9410  176.8080  138.6310 C   0  0  1  0  0  3  0  0  0  0  0  0
  182.4600  175.5710  136.9530 C   0  0  0  0  0  2  0  0  0  0  0  0
  183.6160  178.3860  141.3270 C   0  0  0  0  0  2  0  0  0  0  0  0
  181.2110  179.2230  142.8010 C   0  0  0  0  0  3  0  0  0  0  0  0
  182.6480  179.3710  140.6870 C   0  0  2  0  0  3  0  0  0  0  0  0
  180.3630  180.3470  139.0910 C   0  0  2  0  0  3  0  0  0  0  0  0
  181.2430  179.2410  141.3060 C   0  0  2  0  0  0  0  0  0  0  0  0
  180.9900  177.1610  140.1130 C   0  0  0  0  0  2  0  0  0  0  0  0
  180.1000  179.8660  140.5380 C   0  0  2  0  0  3  0  0  0  0  0  0
  180.3820  177.8200  137.8510 O   0  0  0  0  0  1  0  0  0  0  0  0
  180.1610  178.3140  140.7160 C   0  0  2  0  0  3  0  0  0  0  0  0
  183.1060  178.8180  138.2860 N   0  0  0  0  0  0  0  0  0  0  0  0
  182.3220  178.9080  143.4900 C   0  0  0  0  0  3  0  0  0  0  0  0
  183.5480  177.4460  138.4890 C   0  0  2  0  0  3  0  0  0  0  0  0
  181.7420  180.5860  138.8140 O   0  0  0  0  0  0  0  0  0  0  0  0
  183.6750  178.6630  142.8380 C   0  0  0  0  0  2  0  0  0  0  0  0
  182.7150  175.0210  138.3490 C   0  0  0  0  0  2  0  0  0  0  0  0
  182.6220  179.6010  139.2030 C   0  0  0  0  0  0  0  0  0  0  0  0
  187.2290  177.8930  137.3470 C   0  0  0  0  0  2  0  0  0  0  0  0
  185.9230  176.8190  135.4730 C   0  0  0  0  0  2  0  0  0  0  0  0
  184.8510  177.1640  137.7200 C   0  0  1  0  0  3  0  0  0  0  0  0
  186.9970  177.8600  135.8370 C   0  0  2  0  0  3  0  0  0  0  0  0
  184.6240  177.1380  136.2020 C   0  0  0  0  0  2  0  0  0  0  0  0
  185.9260  178.1940  138.0840 C   0  0  1  0  0  3  0  0  0  0  0  0
  186.1680  178.1650  139.4460 F   0  0  0  0  0  0  0  0  0  0  0  0
  189.4110  177.8380  136.0140 C   0  0  0  0  0  1  0  0  0  0  0  0
  188.3120  176.3180  134.5940 C   0  0  0  0  0  1  0  0  0  0  0  0
  188.2680  177.6740  135.1210 N   0  0  0  0  0  0  0  0  0  0  0  0
  179.5530  181.5990  138.8140 C   0  0  0  0  0  2  0  0  0  0  0  0
  179.8730  182.6340  136.5910 C   0  0  0  0  0  1  0  0  0  0  0  0
  180.3780  182.5900  138.0180 C   0  0  0  0  0  2  0  0  0  0  0  0
  1 18  1  0  0  0  0
  1 15  1  0  0  0  0
  1  2  1  0  0  0  0
  2 11  1  6  0  0  0
  2  9  1  0  0  0  0
  3  1  1  0  0  0  0
  3 18  1  0  0  0  0
  4 17  1  0  0  0  0
  5 14  2  0  0  0  0
  6  8  1  0  0  0  0
  6  4  1  6  0  0  0
  7 30  1  1  0  0  0
  7 10  1  0  0  0  0
  8  5  1  1  0  0  0
  9 12  1  0  0  0  0
 10 12  1  0  0  0  0
 10  8  1  0  0  0  0
 12  8  1  0  0  0  0
 13 15  1  0  0  0  0
 13 19  2  0  0  0  0
 16  7  1  0  0  0  0
 16 19  1  0  0  0  0
 17 14  1  0  0  0  0
 19  6  1  0  0  0  0
 20 25  1  0  0  0  0
 21 23  1  0  0  0  0
 21 24  1  0  0  0  0
 22 25  1  0  0  0  0
 22 15  1  0  0  0  0
 23 20  1  0  0  0  0
 24 22  1  0  0  0  0
 25 26  1  0  0  0  0
 28 29  1  0  0  0  0
 29 23  1  0  0  0  0
 29 27  1  0  0  0  0
 31 32  1  0  0  0  0
 32 30  1  0  0  0  0
M  END
>  <MODEL>
5

>  <REMARK>
 VINA RESULT:      -5.3      6.166      9.992
  Name = 
  4 active torsions:
  status: ('A' for Active; 'I' for Inactive)
    1  A    between atoms: C_11  and  C_12
    2  A    between atoms: C_11  and  C_31
    3  A    between atoms: C_16  and  C_27
    4  A    between atoms: C_19  and  N_26
                            x       y       z     vdW  Elec       q    Type
                         _______ _______ _______ _____ _____    ______ ____

>  <TORSDO>
F 4

$$$$
=
 OpenBabel11052414323D

 32 37  0  0  1  0  0  0  0  0999 V2000
  180.3080  177.4810  140.1570 C   0  0  0  0  0  0  0  0  0  0  0  0
  179.5850  177.3020  138.8130 C   0  0  1  0  0  3  0  0  0  0  0  0
  180.0560  176.3900  141.1790 C   0  0  0  0  0  2  0  0  0  0  0  0
  181.4540  180.9650  138.8330 C   0  0  0  0  0  2  0  0  0  0  0  0
  180.2370  181.2900  136.1740 C   0  0  0  0  0  3  0  0  0  0  0  0
  181.8450  180.0180  137.7070 C   0  0  2  0  0  3  0  0  0  0  0  0
  181.7780  177.6390  135.9590 C   0  0  2  0  0  3  0  0  0  0  0  0
  180.7430  179.9590  136.6310 C   0  0  2  0  0  0  0  0  0  0  0  0
  179.4080  178.6730  138.1730 C   0  0  0  0  0  2  0  0  0  0  0  0
  180.8040  178.8030  135.6580 C   0  0  2  0  0  3  0  0  0  0  0  0
  180.2760  176.4070  137.9950 O   0  0  0  0  0  1  0  0  0  0  0  0
  179.6110  178.9140  136.6620 C   0  0  2  0  0  3  0  0  0  0  0  0
  182.4540  178.0290  139.1050 N   0  0  0  0  0  0  0  0  0  0  0  0
  180.4170  182.3760  136.9460 C   0  0  0  0  0  3  0  0  0  0  0  0
  181.6070  178.3350  140.2490 C   0  0  2  0  0  3  0  0  0  0  0  0
  182.8370  177.9990  136.8430 O   0  0  0  0  0  0  0  0  0  0  0  0
  181.2170  182.3640  138.2410 C   0  0  0  0  0  2  0  0  0  0  0  0
  179.3430  177.7290  141.2980 C   0  0  0  0  0  2  0  0  0  0  0  0
  182.4750  178.6820  137.9820 C   0  0  0  0  0  0  0  0  0  0  0  0
  182.8470  179.2230  143.8170 C   0  0  0  0  0  2  0  0  0  0  0  0
  184.6340  177.8780  142.6480 C   0  0  0  0  0  2  0  0  0  0  0  0
  182.3870  178.1950  141.5680 C   0  0  1  0  0  3  0  0  0  0  0  0
  184.3480  179.0750  143.5720 C   0  0  2  0  0  3  0  0  0  0  0  0
  183.8960  178.0540  141.3270 C   0  0  0  0  0  2  0  0  0  0  0  0
  182.1000  179.3810  142.4950 C   0  0  1  0  0  3  0  0  0  0  0  0
  180.7440  179.4610  142.7570 F   0  0  0  0  0  0  0  0  0  0  0  0
  184.2050  178.6310  145.9470 C   0  0  0  0  0  1  0  0  0  0  0  0
  186.1350  178.0300  144.7430 C   0  0  0  0  0  1  0  0  0  0  0  0
  185.0790  179.0260  144.8470 N   0  0  0  0  0  0  0  0  0  0  0  0
  182.3460  177.1010  134.6590 C   0  0  0  0  0  2  0  0  0  0  0  0
  183.5940  174.9820  134.9250 C   0  0  0  0  0  1  0  0  0  0  0  0
  182.2390  175.5890  134.6280 C   0  0  0  0  0  2  0  0  0  0  0  0
  1 15  1  0  0  0  0
  1  3  1  0  0  0  0
  1 18  1  0  0  0  0
  2 11  1  6  0  0  0
  2  1  1  0  0  0  0
  3 18  1  0  0  0  0
  5 14  2  0  0  0  0
  6 19  1  0  0  0  0
  6  4  1  1  0  0  0
  7 30  1  6  0  0  0
  7 16  1  0  0  0  0
  8  5  1  6  0  0  0
  8 12  1  0  0  0  0
  8  6  1  0  0  0  0
  9  2  1  0  0  0  0
 10  7  1  0  0  0  0
 10  8  1  0  0  0  0
 10 12  1  0  0  0  0
 12  9  1  0  0  0  0
 13 15  1  0  0  0  0
 14 17  1  0  0  0  0
 15 22  1  0  0  0  0
 16 19  1  0  0  0  0
 17  4  1  0  0  0  0
 19 13  2  0  0  0  0
 21 23  1  0  0  0  0
 22 25  1  0  0  0  0
 23 20  1  0  0  0  0
 23 29  1  0  0  0  0
 24 22  1  0  0  0  0
 24 21  1  0  0  0  0
 25 26  1  0  0  0  0
 25 20  1  0  0  0  0
 28 29  1  0  0  0  0
 29 27  1  0  0  0  0
 32 30  1  0  0  0  0
 32 31  1  0  0  0  0
M  END
>  <MODEL>
6

>  <REMARK>
 VINA RESULT:      -5.2      7.108      9.451
  Name = 
  4 active torsions:
  status: ('A' for Active; 'I' for Inactive)
    1  A    between atoms: C_11  and  C_12
    2  A    between atoms: C_11  and  C_31
    3  A    between atoms: C_16  and  C_27
    4  A    between atoms: C_19  and  N_26
                            x       y       z     vdW  Elec       q    Type
                         _______ _______ _______ _____ _____    ______ ____

>  <TORSDO>
F 4

$$$$
=
 OpenBabel11052414323D

 32 37  0  0  1  0  0  0  0  0999 V2000
  185.3080  177.8340  138.1680 C   0  0  0  0  0  0  0  0  0  0  0  0
  184.8410  178.9840  139.0760 C   0  0  1  0  0  3  0  0  0  0  0  0
  186.7280  177.3590  138.4030 C   0  0  0  0  0  2  0  0  0  0  0  0
  181.9250  178.2430  136.2720 C   0  0  0  0  0  2  0  0  0  0  0  0
  180.5240  180.4980  137.5400 C   0  0  0  0  0  3  0  0  0  0  0  0
  181.4980  178.1370  137.7290 C   0  0  2  0  0  3  0  0  0  0  0  0
  181.6620  178.3400  140.6700 C   0  0  2  0  0  3  0  0  0  0  0  0
  181.3290  179.5360  138.3540 C   0  0  2  0  0  0  0  0  0  0  0  0
  183.7310  179.7440  138.3600 C   0  0  0  0  0  2  0  0  0  0  0  0
  181.2800  179.6040  139.8640 C   0  0  2  0  0  3  0  0  0  0  0  0
  184.4500  178.5000  140.3240 O   0  0  0  0  0  1  0  0  0  0  0  0
  182.4740  180.2560  139.0930 C   0  0  2  0  0  3  0  0  0  0  0  0
  183.2580  176.5320  138.5050 N   0  0  0  0  0  0  0  0  0  0  0  0
  180.3590  180.2850  136.2220 C   0  0  0  0  0  3  0  0  0  0  0  0
  184.2720  176.8700  137.5170 C   0  0  2  0  0  3  0  0  0  0  0  0
  181.5530  177.1340  139.9180 O   0  0  0  0  0  0  0  0  0  0  0  0
  180.8610  179.0420  135.5020 C   0  0  0  0  0  2  0  0  0  0  0  0
  186.4090  178.2630  137.2210 C   0  0  0  0  0  2  0  0  0  0  0  0
  182.1230  177.1420  138.6650 C   0  0  0  0  0  0  0  0  0  0  0  0
  185.1440  174.2860  134.7570 C   0  0  0  0  0  2  0  0  0  0  0  0
  185.0570  173.0980  136.9830 C   0  0  0  0  0  2  0  0  0  0  0  0
  184.8720  175.6030  136.8830 C   0  0  1  0  0  3  0  0  0  0  0  0
  184.6940  173.0210  135.4890 C   0  0  2  0  0  3  0  0  0  0  0  0
  184.4160  174.3300  137.6090 C   0  0  0  0  0  2  0  0  0  0  0  0
  184.5200  175.5250  135.3930 C   0  0  1  0  0  3  0  0  0  0  0  0
  184.9910  176.6480  134.7360 F   0  0  0  0  0  0  0  0  0  0  0  0
  186.6070  171.5740  135.1630 C   0  0  0  0  0  1  0  0  0  0  0  0
  184.4380  170.6690  135.2540 C   0  0  0  0  0  1  0  0  0  0  0  0
  185.2120  171.8210  134.8150 N   0  0  0  0  0  0  0  0  0  0  0  0
  180.8040  178.2530  141.9180 C   0  0  0  0  0  2  0  0  0  0  0  0
  182.4630  179.0030  143.5930 C   0  0  0  0  0  1  0  0  0  0  0  0
  181.1740  179.3610  142.8850 C   0  0  0  0  0  2  0  0  0  0  0  0
  1  3  1  0  0  0  0
  1  2  1  0  0  0  0
  2 11  1  1  0  0  0
  6  4  1  6  0  0  0
  6  8  1  0  0  0  0
  6 19  1  0  0  0  0
  7 30  1  1  0  0  0
  8  5  1  6  0  0  0
  8 12  1  0  0  0  0
  8 10  1  0  0  0  0
  9  2  1  0  0  0  0
  9 12  1  0  0  0  0
 10  7  1  0  0  0  0
 12 10  1  0  0  0  0
 13 19  2  0  0  0  0
 14  5  2  0  0  0  0
 15  1  1  0  0  0  0
 15 13  1  0  0  0  0
 16  7  1  0  0  0  0
 17 14  1  0  0  0  0
 17  4  1  0  0  0  0
 18  1  1  0  0  0  0
 18  3  1  0  0  0  0
 19 16  1  0  0  0  0
 20 25  1  0  0  0  0
 20 23  1  0  0  0  0
 21 24  1  0  0  0  0
 22 15  1  0  0  0  0
 22 24  1  0  0  0  0
 23 21  1  0  0  0  0
 25 22  1  0  0  0  0
 26 25  1  0  0  0  0
 29 27  1  0  0  0  0
 29 28  1  0  0  0  0
 29 23  1  0  0  0  0
 30 32  1  0  0  0  0
 32 31  1  0  0  0  0
M  END
>  <MODEL>
7

>  <REMARK>
 VINA RESULT:      -5.2      5.697      9.772
  Name = 
  4 active torsions:
  status: ('A' for Active; 'I' for Inactive)
    1  A    between atoms: C_11  and  C_12
    2  A    between atoms: C_11  and  C_31
    3  A    between atoms: C_16  and  C_27
    4  A    between atoms: C_19  and  N_26
                            x       y       z     vdW  Elec       q    Type
                         _______ _______ _______ _____ _____    ______ ____

>  <TORSDO>
F 4

$$$$
=
 OpenBabel11052414323D

 32 37  0  0  1  0  0  0  0  0999 V2000
  182.6260  177.4200  136.7600 C   0  0  0  0  0  0  0  0  0  0  0  0
  182.8310  178.7990  137.4070 C   0  0  1  0  0  3  0  0  0  0  0  0
  183.2930  177.2310  135.4120 C   0  0  0  0  0  2  0  0  0  0  0  0
  180.1860  176.6410  139.7010 C   0  0  0  0  0  2  0  0  0  0  0  0
  180.0520  179.0790  141.3430 C   0  0  0  0  0  3  0  0  0  0  0  0
  181.4380  177.1390  140.4090 C   0  0  2  0  0  3  0  0  0  0  0  0
  183.9610  178.6140  140.8350 C   0  0  2  0  0  3  0  0  0  0  0  0
  181.3360  178.6470  140.7090 C   0  0  2  0  0  0  0  0  0  0  0  0
  181.6700  179.0640  138.3580 C   0  0  0  0  0  2  0  0  0  0  0  0
  182.6230  179.3600  141.0580 C   0  0  2  0  0  3  0  0  0  0  0  0
  184.0740  178.8720  138.0350 O   0  0  0  0  0  1  0  0  0  0  0  0
  181.8660  179.7220  139.7390 C   0  0  2  0  0  3  0  0  0  0  0  0
  183.1420  176.2050  138.8270 N   0  0  0  0  0  0  0  0  0  0  0  0
  178.9600  178.3000  141.2410 C   0  0  0  0  0  3  0  0  0  0  0  0
  182.3020  176.1750  137.6390 C   0  0  2  0  0  3  0  0  0  0  0  0
  183.8170  177.1960  140.7830 O   0  0  0  0  0  0  0  0  0  0  0  0
  178.9680  176.9220  140.5960 C   0  0  0  0  0  2  0  0  0  0  0  0
  181.7970  177.4970  135.4960 C   0  0  0  0  0  2  0  0  0  0  0  0
  182.8120  176.7140  139.9760 C   0  0  0  0  0  0  0  0  0  0  0  0
  181.2230  172.6820  136.3380 C   0  0  0  0  0  2  0  0  0  0  0  0
  183.7290  172.6980  136.6400 C   0  0  0  0  0  2  0  0  0  0  0  0
  182.4130  174.8210  136.9150 C   0  0  1  0  0  3  0  0  0  0  0  0
  182.4340  171.8840  136.8190 C   0  0  2  0  0  3  0  0  0  0  0  0
  183.6240  174.0130  137.4010 C   0  0  0  0  0  2  0  0  0  0  0  0
  181.1240  174.0100  137.0850 C   0  0  1  0  0  3  0  0  0  0  0  0
  180.0480  174.7220  136.5870 F   0  0  0  0  0  0  0  0  0  0  0  0
  181.6050  170.5150  135.0030 C   0  0  0  0  0  1  0  0  0  0  0  0
  183.8320  170.2990  135.7300 C   0  0  0  0  0  1  0  0  0  0  0  0
  182.4720  170.5620  136.1760 N   0  0  0  0  0  0  0  0  0  0  0  0
  184.9450  178.9970  141.9230 C   0  0  0  0  0  2  0  0  0  0  0  0
  185.2290  179.0490  144.3800 C   0  0  0  0  0  1  0  0  0  0  0  0
  184.5760  178.3170  143.2260 C   0  0  0  0  0  2  0  0  0  0  0  0
  1  2  1  0  0  0  0
  1 15  1  0  0  0  0
  2 11  1  1  0  0  0
  2  9  1  0  0  0  0
  3 18  1  0  0  0  0
  3  1  1  0  0  0  0
  4 17  1  0  0  0  0
  6  4  1  6  0  0  0
  6  8  1  0  0  0  0
  7 10  1  0  0  0  0
  7 30  1  1  0  0  0
  8 10  1  0  0  0  0
  8  5  1  1  0  0  0
  9 12  1  0  0  0  0
 12  8  1  0  0  0  0
 12 10  1  0  0  0  0
 13 19  2  0  0  0  0
 14  5  2  0  0  0  0
 15 13  1  0  0  0  0
 16  7  1  0  0  0  0
 17 14  1  0  0  0  0
 18  1  1  0  0  0  0
 19  6  1  0  0  0  0
 19 16  1  0  0  0  0
 20 23  1  0  0  0  0
 20 25  1  0  0  0  0
 21 23  1  0  0  0  0
 21 24  1  0  0  0  0
 22 25  1  0  0  0  0
 22 24  1  0  0  0  0
 22 15  1  0  0  0  0
 26 25  1  0  0  0  0
 27 29  1  0  0  0  0
 28 29  1  0  0  0  0
 29 23  1  0  0  0  0
 30 32  1  0  0  0  0
 32 31  1  0  0  0  0
M  END
>  <MODEL>
8

>  <REMARK>
 VINA RESULT:      -5.2      7.134     10.729
  Name = 
  4 active torsions:
  status: ('A' for Active; 'I' for Inactive)
    1  A    between atoms: C_11  and  C_12
    2  A    between atoms: C_11  and  C_31
    3  A    between atoms: C_16  and  C_27
    4  A    between atoms: C_19  and  N_26
                            x       y       z     vdW  Elec       q    Type
                         _______ _______ _______ _____ _____    ______ ____

>  <TORSDO>
F 4

$$$$
=
 OpenBabel11052414323D

 32 37  0  0  1  0  0  0  0  0999 V2000
  182.2790  177.1220  136.2980 C   0  0  0  0  0  0  0  0  0  0  0  0
  181.6910  178.2870  137.1090 C   0  0  1  0  0  3  0  0  0  0  0  0
  182.8820  177.5030  134.9600 C   0  0  0  0  0  2  0  0  0  0  0  0
  180.8280  174.7600  139.0400 C   0  0  0  0  0  2  0  0  0  0  0  0
  179.4000  176.4800  140.9540 C   0  0  0  0  0  3  0  0  0  0  0  0
  181.6040  175.7940  139.8440 C   0  0  2  0  0  3  0  0  0  0  0  0
  182.8600  178.3780  140.5280 C   0  0  2  0  0  3  0  0  0  0  0  0
  180.6760  176.9300  140.3170 C   0  0  2  0  0  0  0  0  0  0  0  0
  180.6230  177.7330  138.0450 C   0  0  0  0  0  2  0  0  0  0  0  0
  181.3460  178.2010  140.7920 C   0  0  2  0  0  3  0  0  0  0  0  0
  182.6970  178.9780  137.7840 O   0  0  0  0  0  1  0  0  0  0  0  0
  180.4650  178.2200  139.5000 C   0  0  2  0  0  3  0  0  0  0  0  0
  183.4730  176.1830  138.2220 N   0  0  0  0  0  0  0  0  0  0  0  0
  178.9390  175.2380  140.7230 C   0  0  0  0  0  3  0  0  0  0  0  0
  182.7520  175.8200  137.0110 C   0  0  2  0  0  3  0  0  0  0  0  0
  183.5440  177.1460  140.3040 O   0  0  0  0  0  0  0  0  0  0  0  0
  179.7020  174.1930  139.9200 C   0  0  0  0  0  2  0  0  0  0  0  0
  181.5030  176.8610  135.0240 C   0  0  0  0  0  2  0  0  0  0  0  0
  182.9580  176.2770  139.4110 C   0  0  0  0  0  0  0  0  0  0  0  0
  183.8830  172.4810  135.3900 C   0  0  0  0  0  2  0  0  0  0  0  0
  185.8780  174.0180  135.5590 C   0  0  0  0  0  2  0  0  0  0  0  0
  183.5830  174.8640  136.1370 C   0  0  1  0  0  3  0  0  0  0  0  0
  185.3730  172.5720  135.7150 C   0  0  2  0  0  3  0  0  0  0  0  0
  185.0800  174.9460  136.4660 C   0  0  0  0  0  2  0  0  0  0  0  0
  183.0800  173.4240  136.2830 C   0  0  1  0  0  3  0  0  0  0  0  0
  181.7460  173.3500  135.9240 F   0  0  0  0  0  0  0  0  0  0  0  0
  187.4070  171.2670  135.5670 C   0  0  0  0  0  1  0  0  0  0  0  0
  185.3620  170.3620  134.8370 C   0  0  0  0  0  1  0  0  0  0  0  0
  186.1360  171.5910  134.9280 N   0  0  0  0  0  0  0  0  0  0  0  0
  183.4960  179.1220  141.6870 C   0  0  0  0  0  2  0  0  0  0  0  0
  184.6440  178.6170  143.8190 C   0  0  0  0  0  1  0  0  0  0  0  0
  184.5460  178.2540  142.3520 C   0  0  0  0  0  2  0  0  0  0  0  0
  1 15  1  0  0  0  0
  1  2  1  0  0  0  0
  2 11  1  1  0  0  0
  2  9  1  0  0  0  0
  3 18  1  0  0  0  0
  3  1  1  0  0  0  0
  4 17  1  0  0  0  0
  6  4  1  6  0  0  0
  6  8  1  0  0  0  0
  7 10  1  0  0  0  0
  7 30  1  1  0  0  0
  8 10  1  0  0  0  0
  8  5  1  1  0  0  0
  9 12  1  0  0  0  0
 12  8  1  0  0  0  0
 12 10  1  0  0  0  0
 13 19  2  0  0  0  0
 14  5  2  0  0  0  0
 15 13  1  0  0  0  0
 16  7  1  0  0  0  0
 17 14  1  0  0  0  0
 18  1  1  0  0  0  0
 19  6  1  0  0  0  0
 19 16  1  0  0  0  0
 20 23  1  0  0  0  0
 20 25  1  0  0  0  0
 21 23  1  0  0  0  0
 21 24  1  0  0  0  0
 22 25  1  0  0  0  0
 22 24  1  0  0  0  0
 22 15  1  0  0  0  0
 26 25  1  0  0  0  0
 28 29  1  0  0  0  0
 29 27  1  0  0  0  0
 29 23  1  0  0  0  0
 30 32  1  0  0  0  0
 32 31  1  0  0  0  0
M  END
>  <MODEL>
9

>  <REMARK>
 VINA RESULT:      -5.1      6.216     10.338
  Name = 
  4 active torsions:
  status: ('A' for Active; 'I' for Inactive)
    1  A    between atoms: C_11  and  C_12
    2  A    between atoms: C_11  and  C_31
    3  A    between atoms: C_16  and  C_27
    4  A    between atoms: C_19  and  N_26
                            x       y       z     vdW  Elec       q    Type
                         _______ _______ _______ _____ _____    ______ ____

>  <TORSDO>
F 4

$$$$
