=
 OpenBabel11052413453D

 27 31  0  0  1  0  0  0  0  0999 V2000
  189.2740  176.7660  140.8260 C   0  0  0  0  0  3  0  0  0  0  0  0
  187.6300  178.1530  141.9960 C   0  0  0  0  0  0  0  0  0  0  0  0
  187.5580  178.9750  139.6820 N   0  0  0  0  0  0  0  0  0  0  0  0
  183.1040  177.9200  141.7720 S   0  0  0  0  0  0  0  0  0  0  0  0
  183.6600  176.9810  139.2600 C   0  0  0  0  0  1  0  0  0  0  0  0
  186.9260  177.9260  143.3200 C   0  0  0  0  0  2  0  0  0  0  0  0
  184.6780  179.1190  139.9540 C   0  0  0  0  0  0  0  0  0  0  0  0
  188.5680  177.4230  136.7330 C   0  0  0  0  0  2  0  0  0  0  0  0
  184.9430  179.7720  138.9560 O   0  0  0  0  0  0  0  0  0  0  0  0
  189.4980  176.2890  137.1680 C   0  0  2  0  0  3  0  0  0  0  0  0
  185.5200  179.1940  141.1910 C   0  0  1  0  0  3  0  0  0  0  0  0
  189.0980  177.8340  141.8570 C   0  0  1  0  0  3  0  0  0  0  0  0
  183.4430  178.2770  140.0170 C   0  0  2  0  0  3  0  0  0  0  0  0
  184.8040  178.3040  142.1610 C   0  0  0  0  0  0  0  0  0  0  0  0
  188.9990  176.9840  139.5430 C   0  0  0  0  0  0  0  0  0  0  0  0
  186.9500  178.7180  140.9660 C   0  0  0  0  0  0  0  0  0  0  0  0
  188.7710  178.6390  137.6340 C   0  0  0  0  0  2  0  0  0  0  0  0
  185.4630  177.6530  143.1220 C   0  0  0  0  0  3  0  0  0  0  0  0
  189.2400  175.1060  136.3680 N   0  0  0  0  0  1  0  0  0  0  0  0
  189.3240  175.9720  138.5850 N   0  0  0  0  0  2  0  0  0  0  0  0
  188.4530  178.2700  139.0460 C   0  0  0  0  0  0  0  0  0  0  0  0
  191.5850  177.0560  145.3020 C   0  0  0  0  0  2  0  0  0  0  0  0
  189.8060  177.4800  143.1780 C   0  0  2  0  0  3  0  0  0  0  0  0
  190.7300  178.5940  143.5990 C   0  0  0  0  0  3  0  0  0  0  0  0
  191.5800  178.3890  144.6100 C   0  0  0  0  0  3  0  0  0  0  0  0
  191.5390  175.9090  144.2810 C   0  0  0  0  0  2  0  0  0  0  0  0
  190.6210  176.1760  143.0680 C   0  0  0  0  0  2  0  0  0  0  0  0
  2  6  1  0  0  0  0
  3 16  1  0  0  0  0
  4 14  1  0  0  0  0
  7 13  1  0  0  0  0
  8 10  1  0  0  0  0
  8 17  1  0  0  0  0
  9  7  2  0  0  0  0
 10 19  1  6  0  0  0
 10 20  1  0  0  0  0
 11  7  1  6  0  0  0
 11 14  1  0  0  0  0
 12  1  1  6  0  0  0
 12  2  1  0  0  0  0
 12 23  1  0  0  0  0
 13  5  1  6  0  0  0
 13  4  1  0  0  0  0
 14 18  2  0  0  0  0
 15  1  2  0  0  0  0
 16 11  1  0  0  0  0
 16  2  2  0  0  0  0
 17 21  1  0  0  0  0
 18  6  1  0  0  0  0
 20 15  1  0  0  0  0
 21 15  1  0  0  0  0
 21  3  2  0  0  0  0
 23 27  1  6  0  0  0
 23 24  1  0  0  0  0
 24 25  2  0  0  0  0
 25 22  1  0  0  0  0
 26 22  1  0  0  0  0
 27 26  1  0  0  0  0
M  END
>  <MODEL>
1

>  <REMARK>
 VINA RESULT:      -7.9      0.000      0.000
  Name = 
  1 active torsions:
  status: ('A' for Active; 'I' for Inactive)
    1  A    between atoms: C_9  and  C_15
                            x       y       z     vdW  Elec       q    Type
                         _______ _______ _______ _____ _____    ______ ____

>  <TORSDO>
F 1

$$$$
=
 OpenBabel11052413453D

 27 31  0  0  1  0  0  0  0  0999 V2000
  189.0030  177.0730  141.7090 C   0  0  0  0  0  3  0  0  0  0  0  0
  186.9690  178.4130  141.9690 C   0  0  0  0  0  0  0  0  0  0  0  0
  187.6700  178.8440  139.6550 N   0  0  0  0  0  0  0  0  0  0  0  0
  182.8380  177.5860  140.2840 S   0  0  0  0  0  0  0  0  0  0  0  0
  184.3030  176.3390  138.3340 C   0  0  0  0  0  1  0  0  0  0  0  0
  185.8570  178.3110  142.9960 C   0  0  0  0  0  2  0  0  0  0  0  0
  184.8760  178.6700  138.9090 C   0  0  0  0  0  0  0  0  0  0  0  0
  189.7510  176.9840  137.5730 C   0  0  0  0  0  2  0  0  0  0  0  0
  185.4360  179.1860  137.9530 O   0  0  0  0  0  0  0  0  0  0  0  0
  190.5340  176.0570  138.5030 C   0  0  2  0  0  3  0  0  0  0  0  0
  185.2200  179.0430  140.3180 C   0  0  1  0  0  3  0  0  0  0  0  0
  188.4080  178.2600  142.3970 C   0  0  1  0  0  3  0  0  0  0  0  0
  183.7530  177.7020  138.7120 C   0  0  2  0  0  3  0  0  0  0  0  0
  184.2640  178.2350  141.1410 C   0  0  0  0  0  0  0  0  0  0  0  0
  189.1860  177.0500  140.3920 C   0  0  0  0  0  0  0  0  0  0  0  0
  186.6640  178.7180  140.6830 C   0  0  0  0  0  0  0  0  0  0  0  0
  189.5470  178.3430  138.2390 C   0  0  0  0  0  2  0  0  0  0  0  0
  184.5790  177.8310  142.3740 C   0  0  0  0  0  3  0  0  0  0  0  0
  190.6490  174.7400  137.9050 N   0  0  0  0  0  1  0  0  0  0  0  0
  189.8900  175.9490  139.8120 N   0  0  0  0  0  2  0  0  0  0  0  0
  188.7730  178.1640  139.5040 C   0  0  0  0  0  0  0  0  0  0  0  0
  189.3590  177.6380  146.5640 C   0  0  0  0  0  2  0  0  0  0  0  0
  188.6240  178.2100  143.9210 C   0  0  2  0  0  3  0  0  0  0  0  0
  190.0740  177.9550  144.2440 C   0  0  0  0  0  3  0  0  0  0  0  0
  190.4220  177.6790  145.5040 C   0  0  0  0  0  3  0  0  0  0  0  0
  188.1250  176.8660  146.0730 C   0  0  0  0  0  2  0  0  0  0  0  0
  187.7670  177.1170  144.5920 C   0  0  0  0  0  2  0  0  0  0  0  0
  2 12  1  0  0  0  0
  2  6  1  0  0  0  0
  3 16  1  0  0  0  0
  4 14  1  0  0  0  0
  8 17  1  0  0  0  0
  8 10  1  0  0  0  0
  9  7  2  0  0  0  0
 10 19  1  6  0  0  0
 10 20  1  0  0  0  0
 11  7  1  6  0  0  0
 11 16  1  0  0  0  0
 11 14  1  0  0  0  0
 12  1  1  6  0  0  0
 12 23  1  0  0  0  0
 13  5  1  1  0  0  0
 13  7  1  0  0  0  0
 13  4  1  0  0  0  0
 14 18  2  0  0  0  0
 15  1  2  0  0  0  0
 16  2  2  0  0  0  0
 17 21  1  0  0  0  0
 18  6  1  0  0  0  0
 20 15  1  0  0  0  0
 21  3  2  0  0  0  0
 21 15  1  0  0  0  0
 23 24  1  6  0  0  0
 23 27  1  0  0  0  0
 24 25  2  0  0  0  0
 25 22  1  0  0  0  0
 26 22  1  0  0  0  0
 27 26  1  0  0  0  0
M  END
>  <MODEL>
2

>  <REMARK>
 VINA RESULT:      -7.3      1.347      1.619
  Name = 
  1 active torsions:
  status: ('A' for Active; 'I' for Inactive)
    1  A    between atoms: C_9  and  C_15
                            x       y       z     vdW  Elec       q    Type
                         _______ _______ _______ _____ _____    ______ ____

>  <TORSDO>
F 1

$$$$
=
 OpenBabel11052413453D

 27 31  0  0  1  0  0  0  0  0999 V2000
  189.1880  176.6170  139.8910 C   0  0  0  0  0  3  0  0  0  0  0  0
  188.0080  178.1100  141.4330 C   0  0  0  0  0  0  0  0  0  0  0  0
  187.3370  178.9050  139.2080 N   0  0  0  0  0  0  0  0  0  0  0  0
  183.5930  178.1300  142.4790 S   0  0  0  0  0  0  0  0  0  0  0  0
  183.3790  177.1300  139.9380 C   0  0  0  0  0  1  0  0  0  0  0  0
  187.6890  177.9390  142.9060 C   0  0  0  0  0  2  0  0  0  0  0  0
  184.6570  179.2160  140.2640 C   0  0  0  0  0  0  0  0  0  0  0  0
  187.4060  177.2620  136.1380 C   0  0  0  0  0  2  0  0  0  0  0  0
  184.6670  179.8410  139.2140 O   0  0  0  0  0  0  0  0  0  0  0  0
  188.3610  176.0840  136.3290 C   0  0  2  0  0  3  0  0  0  0  0  0
  185.8130  179.2580  141.2160 C   0  0  1  0  0  3  0  0  0  0  0  0
  189.3610  177.7060  140.9010 C   0  0  1  0  0  3  0  0  0  0  0  0
  183.4470  178.4460  140.6900 C   0  0  2  0  0  3  0  0  0  0  0  0
  185.3510  178.4220  142.3700 C   0  0  0  0  0  0  0  0  0  0  0  0
  188.5780  176.8340  138.7290 C   0  0  0  0  0  0  0  0  0  0  0  0
  187.0970  178.6990  140.6160 C   0  0  0  0  0  0  0  0  0  0  0  0
  187.9130  178.4770  136.9140 C   0  0  0  0  0  2  0  0  0  0  0  0
  186.2180  177.7470  143.1290 C   0  0  0  0  0  3  0  0  0  0  0  0
  187.8310  174.9070  135.6660 N   0  0  0  0  0  1  0  0  0  0  0  0
  188.5720  175.7950  137.7480 N   0  0  0  0  0  2  0  0  0  0  0  0
  187.9820  178.1440  138.3680 C   0  0  0  0  0  0  0  0  0  0  0  0
  191.7770  176.4390  144.2490 C   0  0  0  0  0  2  0  0  0  0  0  0
  190.3900  177.3290  141.9840 C   0  0  2  0  0  3  0  0  0  0  0  0
  190.1150  175.9480  142.5200 C   0  0  0  0  0  3  0  0  0  0  0  0
  190.7750  175.5260  143.6030 C   0  0  0  0  0  3  0  0  0  0  0  0
  191.2200  177.8650  144.3730 C   0  0  0  0  0  2  0  0  0  0  0  0
  190.3860  178.3270  143.1590 C   0  0  0  0  0  2  0  0  0  0  0  0
  2  6  1  0  0  0  0
  3 16  1  0  0  0  0
  6 18  1  0  0  0  0
  7 13  1  0  0  0  0
  8 10  1  0  0  0  0
  8 17  1  0  0  0  0
  9  7  2  0  0  0  0
 10 19  1  6  0  0  0
 10 20  1  0  0  0  0
 11  7  1  6  0  0  0
 11 14  1  0  0  0  0
 12  1  1  6  0  0  0
 12  2  1  0  0  0  0
 12 23  1  0  0  0  0
 13  5  1  6  0  0  0
 13  4  1  0  0  0  0
 14  4  1  0  0  0  0
 14 18  2  0  0  0  0
 15  1  2  0  0  0  0
 16 11  1  0  0  0  0
 16  2  2  0  0  0  0
 17 21  1  0  0  0  0
 20 15  1  0  0  0  0
 21 15  1  0  0  0  0
 21  3  2  0  0  0  0
 22 26  1  0  0  0  0
 23 24  1  1  0  0  0
 23 27  1  0  0  0  0
 24 25  2  0  0  0  0
 25 22  1  0  0  0  0
 27 26  1  0  0  0  0
M  END
>  <MODEL>
3

>  <REMARK>
 VINA RESULT:      -6.7      0.874      1.325
  Name = 
  1 active torsions:
  status: ('A' for Active; 'I' for Inactive)
    1  A    between atoms: C_9  and  C_15
                            x       y       z     vdW  Elec       q    Type
                         _______ _______ _______ _____ _____    ______ ____

>  <TORSDO>
F 1

$$$$
=
 OpenBabel11052413453D

 27 31  0  0  1  0  0  0  0  0999 V2000
  182.3380  180.9980  138.4830 C   0  0  0  0  0  3  0  0  0  0  0  0
  180.0900  180.7210  139.4150 C   0  0  0  0  0  0  0  0  0  0  0  0
  180.9890  178.4360  139.3490 N   0  0  0  0  0  0  0  0  0  0  0  0
  178.9310  179.8550  143.7150 S   0  0  0  0  0  0  0  0  0  0  0  0
  181.3800  178.6300  143.7260 C   0  0  0  0  0  1  0  0  0  0  0  0
  179.1660  181.7390  140.0560 C   0  0  0  0  0  2  0  0  0  0  0  0
  179.7810  178.0190  141.9480 C   0  0  0  0  0  0  0  0  0  0  0  0
  184.2910  177.3430  139.1940 C   0  0  0  0  0  2  0  0  0  0  0  0
  180.0570  176.9020  141.5360 O   0  0  0  0  0  0  0  0  0  0  0  0
  185.0970  178.5510  138.7150 C   0  0  2  0  0  3  0  0  0  0  0  0
  179.2040  179.0700  141.0500 C   0  0  1  0  0  3  0  0  0  0  0  0
  180.8760  181.0870  138.1810 C   0  0  1  0  0  3  0  0  0  0  0  0
  179.9230  178.3610  143.3980 C   0  0  2  0  0  3  0  0  0  0  0  0
  178.9650  180.2280  141.9700 C   0  0  0  0  0  0  0  0  0  0  0  0
  182.9240  179.8350  138.7520 C   0  0  0  0  0  0  0  0  0  0  0  0
  180.1430  179.4600  139.9140 C   0  0  0  0  0  0  0  0  0  0  0  0
  182.9340  177.3110  138.4950 C   0  0  0  0  0  2  0  0  0  0  0  0
  179.0090  181.4870  141.5270 C   0  0  0  0  0  3  0  0  0  0  0  0
  186.3490  178.6300  139.4460 N   0  0  0  0  0  1  0  0  0  0  0  0
  184.3470  179.7950  138.8900 N   0  0  0  0  0  2  0  0  0  0  0  0
  182.1760  178.5560  138.8230 C   0  0  0  0  0  0  0  0  0  0  0  0
  180.2440  184.7740  136.0220 C   0  0  0  0  0  2  0  0  0  0  0  0
  180.4990  182.4430  137.5570 C   0  0  2  0  0  3  0  0  0  0  0  0
  180.4080  182.3310  136.0560 C   0  0  0  0  0  3  0  0  0  0  0  0
  180.2900  183.4440  135.3260 C   0  0  0  0  0  3  0  0  0  0  0  0
  181.3180  184.8570  137.1170 C   0  0  0  0  0  2  0  0  0  0  0  0
  181.5170  183.5470  137.9100 C   0  0  0  0  0  2  0  0  0  0  0  0
  1 15  2  0  0  0  0
  2 16  2  0  0  0  0
  2  6  1  0  0  0  0
  3 16  1  0  0  0  0
  6 18  1  0  0  0  0
  7 13  1  0  0  0  0
  9  7  2  0  0  0  0
 10 20  1  0  0  0  0
 10  8  1  0  0  0  0
 10 19  1  1  0  0  0
 11 16  1  6  0  0  0
 11  7  1  0  0  0  0
 11 14  1  0  0  0  0
 12  1  1  1  0  0  0
 12  2  1  0  0  0  0
 13  4  1  0  0  0  0
 13  5  1  6  0  0  0
 14  4  1  0  0  0  0
 15 21  1  0  0  0  0
 15 20  1  0  0  0  0
 17 21  1  0  0  0  0
 17  8  1  0  0  0  0
 18 14  2  0  0  0  0
 21  3  2  0  0  0  0
 22 26  1  0  0  0  0
 23 24  1  6  0  0  0
 23 27  1  0  0  0  0
 23 12  1  0  0  0  0
 25 22  1  0  0  0  0
 25 24  2  0  0  0  0
 26 27  1  0  0  0  0
M  END
>  <MODEL>
4

>  <REMARK>
 VINA RESULT:      -6.7      5.231      8.960
  Name = 
  1 active torsions:
  status: ('A' for Active; 'I' for Inactive)
    1  A    between atoms: C_9  and  C_15
                            x       y       z     vdW  Elec       q    Type
                         _______ _______ _______ _____ _____    ______ ____

>  <TORSDO>
F 1

$$$$
=
 OpenBabel11052413453D

 27 31  0  0  1  0  0  0  0  0999 V2000
  186.6420  177.7100  142.5010 C   0  0  0  0  0  3  0  0  0  0  0  0
  185.6470  178.6140  140.4550 C   0  0  0  0  0  0  0  0  0  0  0  0
  188.0560  178.5840  139.9780 N   0  0  0  0  0  0  0  0  0  0  0  0
  185.1000  176.5410  136.4560 S   0  0  0  0  0  0  0  0  0  0  0  0
  187.3250  175.1780  137.2910 C   0  0  0  0  0  1  0  0  0  0  0  0
  184.2180  178.5430  139.9500 C   0  0  0  0  0  2  0  0  0  0  0  0
  187.3920  177.6450  137.3190 C   0  0  0  0  0  0  0  0  0  0  0  0
  190.6020  176.7380  141.4740 C   0  0  0  0  0  2  0  0  0  0  0  0
  188.5570  178.0090  137.2540 O   0  0  0  0  0  0  0  0  0  0  0  0
  190.0290  176.2630  142.8090 C   0  0  2  0  0  3  0  0  0  0  0  0
  186.3660  178.4260  138.0810 C   0  0  1  0  0  3  0  0  0  0  0  0
  185.9200  178.8790  141.9150 C   0  0  1  0  0  3  0  0  0  0  0  0
  186.9170  176.4450  136.5630 C   0  0  2  0  0  3  0  0  0  0  0  0
  185.0950  177.6690  137.8390 C   0  0  0  0  0  0  0  0  0  0  0  0
  187.8780  177.3940  142.1250 C   0  0  0  0  0  0  0  0  0  0  0  0
  186.6730  178.5140  139.5720 C   0  0  0  0  0  0  0  0  0  0  0  0
  190.1020  178.1480  141.1630 C   0  0  0  0  0  2  0  0  0  0  0  0
  184.1080  177.6650  138.7380 C   0  0  0  0  0  3  0  0  0  0  0  0
  190.4330  174.8920  143.0590 N   0  0  0  0  0  1  0  0  0  0  0  0
  188.5690  176.3550  142.8250 N   0  0  0  0  0  2  0  0  0  0  0  0
  188.6110  178.1360  141.0700 C   0  0  0  0  0  0  0  0  0  0  0  0
  182.5030  179.4180  144.5010 C   0  0  0  0  0  2  0  0  0  0  0  0
  184.6770  179.2620  142.7410 C   0  0  2  0  0  3  0  0  0  0  0  0
  184.8800  178.9170  144.1940 C   0  0  0  0  0  3  0  0  0  0  0  0
  183.8400  178.9890  145.0310 C   0  0  0  0  0  3  0  0  0  0  0  0
  182.1880  178.7130  143.1730 C   0  0  0  0  0  2  0  0  0  0  0  0
  183.4050  178.5530  142.2360 C   0  0  0  0  0  2  0  0  0  0  0  0
  2 12  1  0  0  0  0
  3 21  2  0  0  0  0
  4 13  1  0  0  0  0
  4 14  1  0  0  0  0
  6  2  1  0  0  0  0
  8 10  1  0  0  0  0
  9  7  2  0  0  0  0
 10 20  1  0  0  0  0
 10 19  1  6  0  0  0
 11  7  1  6  0  0  0
 11 16  1  0  0  0  0
 12  1  1  1  0  0  0
 12 23  1  0  0  0  0
 13  5  1  1  0  0  0
 13  7  1  0  0  0  0
 14 11  1  0  0  0  0
 14 18  2  0  0  0  0
 15  1  2  0  0  0  0
 15 20  1  0  0  0  0
 16  3  1  0  0  0  0
 16  2  2  0  0  0  0
 17  8  1  0  0  0  0
 18  6  1  0  0  0  0
 21 17  1  0  0  0  0
 21 15  1  0  0  0  0
 22 25  1  0  0  0  0
 23 27  1  6  0  0  0
 23 24  1  0  0  0  0
 24 25  2  0  0  0  0
 26 22  1  0  0  0  0
 27 26  1  0  0  0  0
M  END
>  <MODEL>
5

>  <REMARK>
 VINA RESULT:      -6.4      2.446      5.228
  Name = 
  1 active torsions:
  status: ('A' for Active; 'I' for Inactive)
    1  A    between atoms: C_9  and  C_15
                            x       y       z     vdW  Elec       q    Type
                         _______ _______ _______ _____ _____    ______ ____

>  <TORSDO>
F 1

$$$$
=
 OpenBabel11052413453D

 27 31  0  0  1  0  0  0  0  0999 V2000
  187.1650  178.0150  141.2270 C   0  0  0  0  0  3  0  0  0  0  0  0
  184.9400  178.3000  140.2420 C   0  0  0  0  0  0  0  0  0  0  0  0
  186.4720  178.6270  138.3500 N   0  0  0  0  0  0  0  0  0  0  0  0
  182.6740  175.4210  137.5670 S   0  0  0  0  0  0  0  0  0  0  0  0
  185.2140  174.6860  136.8520 C   0  0  0  0  0  1  0  0  0  0  0  0
  183.5820  177.8680  140.7580 C   0  0  0  0  0  2  0  0  0  0  0  0
  184.6210  177.0800  136.7460 C   0  0  0  0  0  0  0  0  0  0  0  0
  189.7810  177.6170  137.9590 C   0  0  0  0  0  2  0  0  0  0  0  0
  185.3590  177.6340  135.9450 O   0  0  0  0  0  0  0  0  0  0  0  0
  190.2830  177.3130  139.3710 C   0  0  2  0  0  3  0  0  0  0  0  0
  184.1000  177.7890  137.9580 C   0  0  1  0  0  3  0  0  0  0  0  0
  185.9550  178.8920  141.1900 C   0  0  1  0  0  3  0  0  0  0  0  0
  184.1290  175.6880  136.5030 C   0  0  2  0  0  3  0  0  0  0  0  0
  183.2020  176.7760  138.6010 C   0  0  0  0  0  0  0  0  0  0  0  0
  187.9520  177.8680  140.1640 C   0  0  0  0  0  0  0  0  0  0  0  0
  185.2060  178.2220  138.9130 C   0  0  0  0  0  0  0  0  0  0  0  0
  188.8400  178.8190  137.9870 C   0  0  0  0  0  2  0  0  0  0  0  0
  183.0040  176.7640  139.9210 C   0  0  0  0  0  3  0  0  0  0  0  0
  191.1050  176.1170  139.3560 N   0  0  0  0  0  1  0  0  0  0  0  0
  189.1710  177.1330  140.3040 N   0  0  0  0  0  2  0  0  0  0  0  0
  187.6670  178.5120  138.8590 C   0  0  0  0  0  0  0  0  0  0  0  0
  184.3690  179.1340  145.2000 C   0  0  0  0  0  2  0  0  0  0  0  0
  185.4170  179.1910  142.6020 C   0  0  2  0  0  3  0  0  0  0  0  0
  185.9780  178.2120  143.6010 C   0  0  0  0  0  3  0  0  0  0  0  0
  185.4750  178.1850  144.8390 C   0  0  0  0  0  3  0  0  0  0  0  0
  183.3050  179.1820  144.0930 C   0  0  0  0  0  2  0  0  0  0  0  0
  183.8770  179.1300  142.6600 C   0  0  0  0  0  2  0  0  0  0  0  0
  2  6  1  0  0  0  0
  2 12  1  0  0  0  0
  3 21  2  0  0  0  0
  3 16  1  0  0  0  0
  4 14  1  0  0  0  0
  8 17  1  0  0  0  0
  8 10  1  0  0  0  0
  9  7  2  0  0  0  0
 10 19  1  6  0  0  0
 10 20  1  0  0  0  0
 11  7  1  6  0  0  0
 11 14  1  0  0  0  0
 11 16  1  0  0  0  0
 12  1  1  1  0  0  0
 12 23  1  0  0  0  0
 13  7  1  0  0  0  0
 13  5  1  1  0  0  0
 13  4  1  0  0  0  0
 14 18  2  0  0  0  0
 15 20  1  0  0  0  0
 15  1  2  0  0  0  0
 16  2  2  0  0  0  0
 17 21  1  0  0  0  0
 18  6  1  0  0  0  0
 21 15  1  0  0  0  0
 23 27  1  6  0  0  0
 23 24  1  0  0  0  0
 24 25  2  0  0  0  0
 25 22  1  0  0  0  0
 26 22  1  0  0  0  0
 27 26  1  0  0  0  0
M  END
>  <MODEL>
6

>  <REMARK>
 VINA RESULT:      -6.3      2.851      4.273
  Name = 
  1 active torsions:
  status: ('A' for Active; 'I' for Inactive)
    1  A    between atoms: C_9  and  C_15
                            x       y       z     vdW  Elec       q    Type
                         _______ _______ _______ _____ _____    ______ ____

>  <TORSDO>
F 1

$$$$
=
 OpenBabel11052413453D

 27 31  0  0  1  0  0  0  0  0999 V2000
  187.3110  178.4240  141.8910 C   0  0  0  0  0  3  0  0  0  0  0  0
  185.7970  178.1910  143.8020 C   0  0  0  0  0  0  0  0  0  0  0  0
  187.5160  176.4810  144.1960 N   0  0  0  0  0  0  0  0  0  0  0  0
  186.4870  179.4920  148.0940 S   0  0  0  0  0  0  0  0  0  0  0  0
  189.1000  179.0350  147.4090 C   0  0  0  0  0  1  0  0  0  0  0  0
  184.7720  179.1590  144.3600 C   0  0  0  0  0  2  0  0  0  0  0  0
  187.4560  177.2420  146.9910 C   0  0  0  0  0  0  0  0  0  0  0  0
  190.7490  176.2350  142.9250 C   0  0  0  0  0  2  0  0  0  0  0  0
  188.0410  176.1700  146.9590 O   0  0  0  0  0  0  0  0  0  0  0  0
  190.7750  177.1510  141.7010 C   0  0  2  0  0  3  0  0  0  0  0  0
  186.2440  177.5030  146.1500 C   0  0  1  0  0  3  0  0  0  0  0  0
  185.9360  178.0140  142.3110 C   0  0  1  0  0  3  0  0  0  0  0  0
  187.8730  178.3190  147.9420 C   0  0  2  0  0  3  0  0  0  0  0  0
  185.8260  178.8850  146.5510 C   0  0  0  0  0  0  0  0  0  0  0  0
  188.3880  177.7420  142.2700 C   0  0  0  0  0  0  0  0  0  0  0  0
  186.5320  177.4310  144.6550 C   0  0  0  0  0  0  0  0  0  0  0  0
  189.3930  175.5380  143.0270 C   0  0  0  0  0  2  0  0  0  0  0  0
  185.1930  179.6930  145.6970 C   0  0  0  0  0  3  0  0  0  0  0  0
  192.0300  177.8780  141.6570 N   0  0  0  0  0  1  0  0  0  0  0  0
  189.6600  178.0970  141.7210 N   0  0  0  0  0  2  0  0  0  0  0  0
  188.3170  176.5650  143.1710 C   0  0  0  0  0  0  0  0  0  0  0  0
  182.7810  179.4360  139.7260 C   0  0  0  0  0  2  0  0  0  0  0  0
  184.8470  178.7140  141.4760 C   0  0  2  0  0  3  0  0  0  0  0  0
  183.5930  177.8780  141.4320 C   0  0  0  0  0  3  0  0  0  0  0  0
  182.6100  178.2220  140.5940 C   0  0  0  0  0  3  0  0  0  0  0  0
  184.1810  179.4650  139.0940 C   0  0  0  0  0  2  0  0  0  0  0  0
  185.3100  178.9890  140.0320 C   0  0  0  0  0  2  0  0  0  0  0  0
  1 15  2  0  0  0  0
  2  6  1  0  0  0  0
  2 16  2  0  0  0  0
  3 16  1  0  0  0  0
  6 18  1  0  0  0  0
  7 13  1  0  0  0  0
  8 17  1  0  0  0  0
  9  7  2  0  0  0  0
 10 19  1  1  0  0  0
 10 20  1  0  0  0  0
 10  8  1  0  0  0  0
 11 16  1  6  0  0  0
 11 14  1  0  0  0  0
 11  7  1  0  0  0  0
 12  1  1  6  0  0  0
 12  2  1  0  0  0  0
 13  5  1  6  0  0  0
 13  4  1  0  0  0  0
 14  4  1  0  0  0  0
 15 21  1  0  0  0  0
 17 21  1  0  0  0  0
 18 14  2  0  0  0  0
 20 15  1  0  0  0  0
 21  3  2  0  0  0  0
 22 25  1  0  0  0  0
 23 27  1  6  0  0  0
 23 12  1  0  0  0  0
 24 23  1  0  0  0  0
 25 24  2  0  0  0  0
 26 22  1  0  0  0  0
 26 27  1  0  0  0  0
M  END
>  <MODEL>
7

>  <REMARK>
 VINA RESULT:      -6.2      3.469      6.512
  Name = 
  1 active torsions:
  status: ('A' for Active; 'I' for Inactive)
    1  A    between atoms: C_9  and  C_15
                            x       y       z     vdW  Elec       q    Type
                         _______ _______ _______ _____ _____    ______ ____

>  <TORSDO>
F 1

$$$$
=
 OpenBabel11052413453D

 27 31  0  0  1  0  0  0  0  0999 V2000
  186.6220  178.5200  141.5760 C   0  0  0  0  0  3  0  0  0  0  0  0
  187.1900  177.3890  143.6730 C   0  0  0  0  0  0  0  0  0  0  0  0
  188.7450  176.4200  142.0370 N   0  0  0  0  0  0  0  0  0  0  0  0
  190.8130  178.0590  146.3220 S   0  0  0  0  0  0  0  0  0  0  0  0
  191.9530  178.7600  143.9320 C   0  0  0  0  0  1  0  0  0  0  0  0
  186.8830  177.7790  145.1060 C   0  0  0  0  0  2  0  0  0  0  0  0
  190.7960  176.5840  144.0760 C   0  0  0  0  0  0  0  0  0  0  0  0
  189.7930  177.6530  138.9540 C   0  0  0  0  0  2  0  0  0  0  0  0
  191.2490  175.8400  143.2200 O   0  0  0  0  0  0  0  0  0  0  0  0
  188.7620  178.7150  138.5690 C   0  0  2  0  0  3  0  0  0  0  0  0
  189.3630  176.5120  144.5050 C   0  0  1  0  0  3  0  0  0  0  0  0
  186.1370  177.5500  142.6050 C   0  0  1  0  0  3  0  0  0  0  0  0
  191.6800  177.5480  144.8030 C   0  0  2  0  0  3  0  0  0  0  0  0
  189.2680  177.5350  145.5960 C   0  0  0  0  0  0  0  0  0  0  0  0
  187.6580  178.2420  140.7900 C   0  0  0  0  0  0  0  0  0  0  0  0
  188.3890  176.8260  143.3760 C   0  0  0  0  0  0  0  0  0  0  0  0
  189.1030  176.4880  139.6610 C   0  0  0  0  0  2  0  0  0  0  0  0
  188.1270  178.1820  145.8430 C   0  0  0  0  0  3  0  0  0  0  0  0
  189.4310  179.8590  137.9780 N   0  0  0  0  0  1  0  0  0  0  0  0
  187.9840  179.1460  139.7300 N   0  0  0  0  0  2  0  0  0  0  0  0
  188.4380  176.9850  140.9030 C   0  0  0  0  0  0  0  0  0  0  0  0
  182.2080  179.0090  143.6480 C   0  0  0  0  0  2  0  0  0  0  0  0
  184.7380  177.9220  143.1320 C   0  0  2  0  0  3  0  0  0  0  0  0
  183.7760  178.1220  141.9900 C   0  0  0  0  0  3  0  0  0  0  0  0
  182.5700  178.6430  142.2370 C   0  0  0  0  0  3  0  0  0  0  0  0
  183.3630  179.7510  144.3360 C   0  0  0  0  0  2  0  0  0  0  0  0
  184.7640  179.2050  143.9880 C   0  0  0  0  0  2  0  0  0  0  0  0
  2  6  1  0  0  0  0
  3 16  1  0  0  0  0
  6 18  1  0  0  0  0
  7 11  1  0  0  0  0
  7 13  1  0  0  0  0
  8 17  1  0  0  0  0
  9  7  2  0  0  0  0
 10 19  1  1  0  0  0
 10  8  1  0  0  0  0
 10 20  1  0  0  0  0
 11 16  1  6  0  0  0
 11 14  1  0  0  0  0
 12  1  1  6  0  0  0
 12 23  1  0  0  0  0
 12  2  1  0  0  0  0
 13  5  1  6  0  0  0
 13  4  1  0  0  0  0
 14 18  2  0  0  0  0
 14  4  1  0  0  0  0
 15 21  1  0  0  0  0
 15  1  2  0  0  0  0
 16  2  2  0  0  0  0
 17 21  1  0  0  0  0
 20 15  1  0  0  0  0
 21  3  2  0  0  0  0
 22 26  1  0  0  0  0
 23 24  1  6  0  0  0
 23 27  1  0  0  0  0
 24 25  2  0  0  0  0
 25 22  1  0  0  0  0
 27 26  1  0  0  0  0
M  END
>  <MODEL>
8

>  <REMARK>
 VINA RESULT:      -6.0      2.971      6.049
  Name = 
  1 active torsions:
  status: ('A' for Active; 'I' for Inactive)
    1  A    between atoms: C_9  and  C_15
                            x       y       z     vdW  Elec       q    Type
                         _______ _______ _______ _____ _____    ______ ____

>  <TORSDO>
F 1

$$$$
=
 OpenBabel11052413453D

 27 31  0  0  1  0  0  0  0  0999 V2000
  190.4500  176.1670  139.4360 C   0  0  0  0  0  3  0  0  0  0  0  0
  188.7490  177.8960  139.0960 C   0  0  0  0  0  0  0  0  0  0  0  0
  189.8050  177.6630  136.8900 N   0  0  0  0  0  0  0  0  0  0  0  0
  184.7760  177.5260  136.9360 S   0  0  0  0  0  0  0  0  0  0  0  0
  186.1530  175.6220  135.5290 C   0  0  0  0  0  1  0  0  0  0  0  0
  187.5260  178.2380  139.9240 C   0  0  0  0  0  2  0  0  0  0  0  0
  187.1560  177.8680  135.7380 C   0  0  0  0  0  0  0  0  0  0  0  0
  191.6590  175.0250  135.5740 C   0  0  0  0  0  2  0  0  0  0  0  0
  187.9290  178.0420  134.8080 O   0  0  0  0  0  0  0  0  0  0  0  0
  192.0980  174.1940  136.7810 C   0  0  2  0  0  3  0  0  0  0  0  0
  187.3990  178.4700  137.0880 C   0  0  1  0  0  3  0  0  0  0  0  0
  190.0550  177.5680  139.7770 C   0  0  1  0  0  3  0  0  0  0  0  0
  185.8780  177.1140  135.5450 C   0  0  2  0  0  3  0  0  0  0  0  0
  186.1940  178.0620  137.8790 C   0  0  0  0  0  0  0  0  0  0  0  0
  190.7830  175.8190  138.1960 C   0  0  0  0  0  0  0  0  0  0  0  0
  188.6790  177.9630  137.7420 C   0  0  0  0  0  0  0  0  0  0  0  0
  191.6830  176.5110  135.9270 C   0  0  0  0  0  2  0  0  0  0  0  0
  186.2590  177.8880  139.2010 C   0  0  0  0  0  3  0  0  0  0  0  0
  191.9890  172.7810  136.4720 N   0  0  0  0  0  1  0  0  0  0  0  0
  191.2900  174.5030  137.9610 N   0  0  0  0  0  2  0  0  0  0  0  0
  190.7400  176.7680  137.0570 C   0  0  0  0  0  0  0  0  0  0  0  0
  190.4950  177.8190  144.0660 C   0  0  0  0  0  2  0  0  0  0  0  0
  190.0660  177.8160  141.2970 C   0  0  2  0  0  3  0  0  0  0  0  0
  191.4780  177.8170  141.8240 C   0  0  0  0  0  3  0  0  0  0  0  0
  191.6800  177.8160  143.1450 C   0  0  0  0  0  3  0  0  0  0  0  0
  189.4320  176.8150  143.5960 C   0  0  0  0  0  2  0  0  0  0  0  0
  189.2530  176.7530  142.0630 C   0  0  0  0  0  2  0  0  0  0  0  0
  2 12  1  0  0  0  0
  2  6  1  0  0  0  0
  3 21  2  0  0  0  0
  3 16  1  0  0  0  0
  4 14  1  0  0  0  0
  8 17  1  0  0  0  0
  8 10  1  0  0  0  0
  9  7  2  0  0  0  0
 10 19  1  6  0  0  0
 10 20  1  0  0  0  0
 11  7  1  6  0  0  0
 11 16  1  0  0  0  0
 11 14  1  0  0  0  0
 12  1  1  1  0  0  0
 12 23  1  0  0  0  0
 13  5  1  1  0  0  0
 13  7  1  0  0  0  0
 13  4  1  0  0  0  0
 14 18  2  0  0  0  0
 15  1  2  0  0  0  0
 16  2  2  0  0  0  0
 17 21  1  0  0  0  0
 18  6  1  0  0  0  0
 20 15  1  0  0  0  0
 21 15  1  0  0  0  0
 23 24  1  1  0  0  0
 23 27  1  0  0  0  0
 24 25  2  0  0  0  0
 25 22  1  0  0  0  0
 26 22  1  0  0  0  0
 27 26  1  0  0  0  0
M  END
>  <MODEL>
9

>  <REMARK>
 VINA RESULT:      -5.7      2.516      3.603
  Name = 
  1 active torsions:
  status: ('A' for Active; 'I' for Inactive)
    1  A    between atoms: C_9  and  C_15
                            x       y       z     vdW  Elec       q    Type
                         _______ _______ _______ _____ _____    ______ ____

>  <TORSDO>
F 1

$$$$
