=
 OpenBabel11052415573D

 34 39  0  0  1  0  0  0  0  0999 V2000
  185.7270  177.8340  143.9590 C   0  0  0  0  0  0  0  0  0  0  0  0
  182.2050  178.9910  143.9260 C   0  0  0  0  0  3  0  0  0  0  0  0
  183.8190  179.1450  145.5550 N   0  0  0  0  0  0  0  0  0  0  0  0
  188.0820  177.1230  144.0120 C   0  0  0  0  0  0  0  0  0  0  0  0
  186.8600  177.3040  143.2960 C   0  0  0  0  0  3  0  0  0  0  0  0
  187.0380  178.0020  145.9880 C   0  0  0  0  0  0  0  0  0  0  0  0
  186.8350  178.6190  147.2660 N   0  0  0  0  0  0  0  0  0  0  0  0
  188.1880  177.5040  145.3780 C   0  0  0  0  0  3  0  0  0  0  0  0
  185.0280  178.7780  146.0400 C   0  0  0  0  0  0  0  0  0  0  0  0
  185.8990  178.1170  145.2850 C   0  0  0  0  0  0  0  0  0  0  0  0
  185.6360  179.0820  147.2980 N   0  0  0  0  0  0  0  0  0  0  0  0
  181.5350  178.4390  142.7150 C   0  0  0  0  0  2  0  0  0  0  0  0
  182.1060  178.9640  141.4460 C   0  0  0  0  0  0  0  0  0  0  0  0
  183.3820  178.7460  141.1390 C   0  0  0  0  0  3  0  0  0  0  0  0
  183.4880  178.8200  144.2570 C   0  0  0  0  0  0  0  0  0  0  0  0
  184.4150  178.1940  142.0330 C   0  0  0  0  0  3  0  0  0  0  0  0
  184.4880  178.2240  143.3780 C   0  0  0  0  0  0  0  0  0  0  0  0
  181.2350  179.5620  140.4740 N   0  0  0  0  0  0  0  0  0  0  0  0
  180.1480  180.0650  140.8270 O   0  0  0  0  0  0  0  0  0  0  0  0
  181.5970  179.6120  139.1470 O   0  0  0  0  0  0  0  0  0  0  0  0
  189.2650  176.5440  143.3110 C   0  0  0  0  0  2  0  0  0  0  0  0
  191.0230  176.7750  140.0940 C   0  0  0  0  0  3  0  0  0  0  0  0
  188.4040  177.7390  141.3730 C   0  0  0  0  0  3  0  0  0  0  0  0
  189.6330  177.3850  136.7170 C   0  0  2  0  0  3  0  0  0  0  0  0
  190.6260  176.7140  137.6730 C   0  0  0  0  0  2  0  0  0  0  0  0
  190.3300  177.2070  139.0420 C   0  0  0  0  0  0  0  0  0  0  0  0
  188.4040  178.4100  140.0580 C   0  0  0  0  0  3  0  0  0  0  0  0
  189.2950  178.2360  139.0750 C   0  0  0  0  0  0  0  0  0  0  0  0
  188.9970  178.9300  137.4680 S   0  0  0  0  0  0  0  0  0  0  0  0
  189.4600  177.1880  141.9790 C   0  0  0  0  0  0  0  0  0  0  0  0
  190.8550  177.3490  141.4610 C   0  0  0  0  0  2  0  0  0  0  0  0
  188.5090  176.4610  136.3740 C   0  0  0  0  0  0  0  0  0  0  0  0
  188.7340  175.2550  136.0840 O   0  0  0  0  0  0  0  0  0  0  0  0
  187.1730  176.9480  136.3780 N   0  0  0  0  0  1  0  0  0  0  0  0
  1 10  1  0  0  0  0
  2 15  2  0  0  0  0
  3  9  2  0  0  0  0
  4  8  2  0  0  0  0
  5  1  2  0  0  0  0
  5  4  1  0  0  0  0
  6  7  1  0  0  0  0
  7 11  2  0  0  0  0
  8  6  1  0  0  0  0
  9 11  1  0  0  0  0
 10  6  2  0  0  0  0
 10  9  1  0  0  0  0
 12  2  1  0  0  0  0
 13 12  1  0  0  0  0
 14 13  2  0  0  0  0
 14 16  1  0  0  0  0
 15  3  1  0  0  0  0
 16 17  2  0  0  0  0
 17  1  1  0  0  0  0
 17 15  1  0  0  0  0
 18 19  2  0  0  0  0
 18 13  1  0  0  0  0
 20 18  2  0  0  0  0
 21  4  1  0  0  0  0
 22 31  1  0  0  0  0
 23 30  2  0  0  0  0
 24 32  1  1  0  0  0
 24 29  1  0  0  0  0
 24 25  1  0  0  0  0
 25 26  1  0  0  0  0
 26 28  1  0  0  0  0
 26 22  2  0  0  0  0
 27 23  1  0  0  0  0
 28 27  2  0  0  0  0
 29 28  1  0  0  0  0
 30 21  1  0  0  0  0
 31 30  1  0  0  0  0
 32 34  1  0  0  0  0
 33 32  2  0  0  0  0
M  END
>  <MODEL>
1

>  <REMARK>
 VINA RESULT:     -11.1      0.000      0.000
  Name = 
  4 active torsions:
  status: ('A' for Active; 'I' for Inactive)
    1  A    between atoms: N_3  and  C_25
    2  A    between atoms: C_7  and  C_11
    3  A    between atoms: C_8  and  C_18
    4  A    between atoms: C_18  and  C_30
                            x       y       z     vdW  Elec       q    Type
                         _______ _______ _______ _____ _____    ______ ____

>  <TORSDO>
F 4

$$$$
=
 OpenBabel11052415573D

 34 39  0  0  1  0  0  0  0  0999 V2000
  187.0120  178.0050  144.5940 C   0  0  0  0  0  0  0  0  0  0  0  0
  183.5880  178.6570  143.3290 C   0  0  0  0  0  3  0  0  0  0  0  0
  184.4740  178.8720  145.4390 N   0  0  0  0  0  0  0  0  0  0  0  0
  189.2790  177.6280  145.4720 C   0  0  0  0  0  0  0  0  0  0  0  0
  188.3770  177.7070  144.3690 C   0  0  0  0  0  3  0  0  0  0  0  0
  187.4740  178.1510  146.9660 C   0  0  0  0  0  0  0  0  0  0  0  0
  186.7330  178.6040  148.1070 N   0  0  0  0  0  0  0  0  0  0  0  0
  188.8310  177.8820  146.7970 C   0  0  0  0  0  3  0  0  0  0  0  0
  185.4770  178.6300  146.3160 C   0  0  0  0  0  0  0  0  0  0  0  0
  186.6550  178.1760  145.9030 C   0  0  0  0  0  0  0  0  0  0  0  0
  185.5410  178.8890  147.7200 N   0  0  0  0  0  0  0  0  0  0  0  0
  183.4910  178.1390  141.9350 C   0  0  0  0  0  2  0  0  0  0  0  0
  184.3780  178.8630  140.9840 C   0  0  0  0  0  0  0  0  0  0  0  0
  185.6970  178.8570  141.1540 C   0  0  0  0  0  3  0  0  0  0  0  0
  184.6810  178.6340  144.0970 C   0  0  0  0  0  0  0  0  0  0  0  0
  186.4250  178.3680  142.3400 C   0  0  0  0  0  3  0  0  0  0  0  0
  186.0120  178.2740  143.6190 C   0  0  0  0  0  0  0  0  0  0  0  0
  183.8210  179.4270  139.7890 N   0  0  0  0  0  0  0  0  0  0  0  0
  184.5270  180.1270  139.0330 O   0  0  0  0  0  0  0  0  0  0  0  0
  182.5090  179.1850  139.4460 O   0  0  0  0  0  0  0  0  0  0  0  0
  190.7120  177.2920  145.2270 C   0  0  0  0  0  2  0  0  0  0  0  0
  189.6990  175.8180  142.0190 C   0  0  0  0  0  3  0  0  0  0  0  0
  191.6420  177.9470  143.0750 C   0  0  0  0  0  3  0  0  0  0  0  0
  189.9170  177.2640  138.6180 C   0  0  2  0  0  3  0  0  0  0  0  0
  189.2180  176.4200  139.6890 C   0  0  0  0  0  2  0  0  0  0  0  0
  190.0670  176.4500  140.9060 C   0  0  0  0  0  0  0  0  0  0  0  0
  191.9730  177.8720  141.6380 C   0  0  0  0  0  3  0  0  0  0  0  0
  191.3330  177.1510  140.7110 C   0  0  0  0  0  0  0  0  0  0  0  0
  191.7070  177.3790  138.9890 S   0  0  0  0  0  0  0  0  0  0  0  0
  190.9580  177.0390  143.7770 C   0  0  0  0  0  0  0  0  0  0  0  0
  190.5860  175.7030  143.2130 C   0  0  0  0  0  2  0  0  0  0  0  0
  189.3070  178.6250  138.5230 C   0  0  0  0  0  0  0  0  0  0  0  0
  188.9970  179.2650  139.5640 O   0  0  0  0  0  0  0  0  0  0  0  0
  189.0770  179.2050  137.2440 N   0  0  0  0  0  1  0  0  0  0  0  0
  1 10  1  0  0  0  0
  2 15  2  0  0  0  0
  3  9  2  0  0  0  0
  4  8  2  0  0  0  0
  5  1  2  0  0  0  0
  5  4  1  0  0  0  0
  6  7  1  0  0  0  0
  8  6  1  0  0  0  0
  9 11  1  0  0  0  0
 10  9  1  0  0  0  0
 10  6  2  0  0  0  0
 11  7  2  0  0  0  0
 12  2  1  0  0  0  0
 13 14  2  0  0  0  0
 13 12  1  0  0  0  0
 14 16  1  0  0  0  0
 15  3  1  0  0  0  0
 16 17  2  0  0  0  0
 17 15  1  0  0  0  0
 17  1  1  0  0  0  0
 18 13  1  0  0  0  0
 19 18  2  0  0  0  0
 20 18  2  0  0  0  0
 21  4  1  0  0  0  0
 22 31  1  0  0  0  0
 23 30  2  0  0  0  0
 24 32  1  1  0  0  0
 24 29  1  0  0  0  0
 24 25  1  0  0  0  0
 25 26  1  0  0  0  0
 26 22  2  0  0  0  0
 27 23  1  0  0  0  0
 28 26  1  0  0  0  0
 28 27  2  0  0  0  0
 29 28  1  0  0  0  0
 30 21  1  0  0  0  0
 31 30  1  0  0  0  0
 32 33  2  0  0  0  0
 34 32  1  0  0  0  0
M  END
>  <MODEL>
2

>  <REMARK>
 VINA RESULT:     -10.9      1.829      2.468
  Name = 
  4 active torsions:
  status: ('A' for Active; 'I' for Inactive)
    1  A    between atoms: N_3  and  C_25
    2  A    between atoms: C_7  and  C_11
    3  A    between atoms: C_8  and  C_18
    4  A    between atoms: C_18  and  C_30
                            x       y       z     vdW  Elec       q    Type
                         _______ _______ _______ _____ _____    ______ ____

>  <TORSDO>
F 4

$$$$
=
 OpenBabel11052415573D

 34 39  0  0  1  0  0  0  0  0999 V2000
  187.9450  177.9860  144.5740 C   0  0  0  0  0  0  0  0  0  0  0  0
  191.2230  176.9320  143.2000 C   0  0  0  0  0  3  0  0  0  0  0  0
  190.3220  176.6670  145.2970 N   0  0  0  0  0  0  0  0  0  0  0  0
  185.7660  178.6260  145.5190 C   0  0  0  0  0  0  0  0  0  0  0  0
  186.6410  178.5090  144.3980 C   0  0  0  0  0  3  0  0  0  0  0  0
  187.4730  177.7000  146.9320 C   0  0  0  0  0  0  0  0  0  0  0  0
  188.1380  177.0380  148.0160 N   0  0  0  0  0  0  0  0  0  0  0  0
  186.1730  178.1890  146.8100 C   0  0  0  0  0  3  0  0  0  0  0  0
  189.3700  176.9800  146.2080 C   0  0  0  0  0  0  0  0  0  0  0  0
  188.2750  177.6450  145.8560 C   0  0  0  0  0  0  0  0  0  0  0  0
  189.2700  176.6090  147.5850 N   0  0  0  0  0  0  0  0  0  0  0  0
  191.3950  177.5510  141.8550 C   0  0  0  0  0  2  0  0  0  0  0  0
  190.4050  177.0610  140.8600 C   0  0  0  0  0  0  0  0  0  0  0  0
  189.1030  177.2540  141.0510 C   0  0  0  0  0  3  0  0  0  0  0  0
  190.1490  177.0530  143.9850 C   0  0  0  0  0  0  0  0  0  0  0  0
  188.4630  177.7400  142.2870 C   0  0  0  0  0  3  0  0  0  0  0  0
  188.8890  177.6550  143.5630 C   0  0  0  0  0  0  0  0  0  0  0  0
  190.8650  176.5270  139.6100 N   0  0  0  0  0  0  0  0  0  0  0  0
  190.1120  175.8140  138.9130 O   0  0  0  0  0  0  0  0  0  0  0  0
  192.1310  176.8130  139.1500 O   0  0  0  0  0  0  0  0  0  0  0  0
  184.4010  179.1990  145.3290 C   0  0  0  0  0  2  0  0  0  0  0  0
  181.5850  179.0470  142.9750 C   0  0  0  0  0  3  0  0  0  0  0  0
  184.6110  178.5310  142.9980 C   0  0  0  0  0  3  0  0  0  0  0  0
  181.6220  179.2750  139.2800 C   0  0  2  0  0  3  0  0  0  0  0  0
  180.9900  179.5520  140.6480 C   0  0  0  0  0  2  0  0  0  0  0  0
  181.8700  178.9450  141.6780 C   0  0  0  0  0  0  0  0  0  0  0  0
  184.2020  178.0780  141.6530 C   0  0  0  0  0  3  0  0  0  0  0  0
  182.9830  178.1870  141.1130 C   0  0  0  0  0  0  0  0  0  0  0  0
  182.7340  177.8230  139.3930 S   0  0  0  0  0  0  0  0  0  0  0  0
  183.8040  178.7300  144.0430 C   0  0  0  0  0  0  0  0  0  0  0  0
  182.3610  178.3320  144.0300 C   0  0  0  0  0  2  0  0  0  0  0  0
  182.3630  180.4720  138.7770 C   0  0  0  0  0  0  0  0  0  0  0  0
  183.6210  180.5230  138.8400 O   0  0  0  0  0  0  0  0  0  0  0  0
  181.6400  181.5620  138.2190 N   0  0  0  0  0  1  0  0  0  0  0  0
  1 10  1  0  0  0  0
  2 15  2  0  0  0  0
  3  9  2  0  0  0  0
  4  8  2  0  0  0  0
  5  1  2  0  0  0  0
  5  4  1  0  0  0  0
  6  7  1  0  0  0  0
  8  6  1  0  0  0  0
  9 11  1  0  0  0  0
 10  9  1  0  0  0  0
 10  6  2  0  0  0  0
 11  7  2  0  0  0  0
 12  2  1  0  0  0  0
 13 14  2  0  0  0  0
 13 12  1  0  0  0  0
 14 16  1  0  0  0  0
 15  3  1  0  0  0  0
 16 17  2  0  0  0  0
 17 15  1  0  0  0  0
 17  1  1  0  0  0  0
 18 13  1  0  0  0  0
 19 18  2  0  0  0  0
 20 18  2  0  0  0  0
 21  4  1  0  0  0  0
 22 31  1  0  0  0  0
 23 30  2  0  0  0  0
 24 32  1  1  0  0  0
 24 29  1  0  0  0  0
 24 25  1  0  0  0  0
 25 26  1  0  0  0  0
 26 22  2  0  0  0  0
 27 23  1  0  0  0  0
 28 27  2  0  0  0  0
 28 26  1  0  0  0  0
 29 28  1  0  0  0  0
 30 21  1  0  0  0  0
 31 30  1  0  0  0  0
 32 33  2  0  0  0  0
 34 32  1  0  0  0  0
M  END
>  <MODEL>
3

>  <REMARK>
 VINA RESULT:     -10.9      2.606      7.008
  Name = 
  4 active torsions:
  status: ('A' for Active; 'I' for Inactive)
    1  A    between atoms: N_3  and  C_25
    2  A    between atoms: C_7  and  C_11
    3  A    between atoms: C_8  and  C_18
    4  A    between atoms: C_18  and  C_30
                            x       y       z     vdW  Elec       q    Type
                         _______ _______ _______ _____ _____    ______ ____

>  <TORSDO>
F 4

$$$$
=
 OpenBabel11052415573D

 34 39  0  0  1  0  0  0  0  0999 V2000
  188.3490  177.6810  144.2450 C   0  0  0  0  0  0  0  0  0  0  0  0
  191.6360  177.0710  142.6420 C   0  0  0  0  0  3  0  0  0  0  0  0
  190.9690  176.8440  144.8300 N   0  0  0  0  0  0  0  0  0  0  0  0
  186.1770  178.0310  145.3450 C   0  0  0  0  0  0  0  0  0  0  0  0
  186.9640  177.9630  144.1570 C   0  0  0  0  0  3  0  0  0  0  0  0
  188.1280  177.5280  146.6510 C   0  0  0  0  0  0  0  0  0  0  0  0
  188.9850  177.0840  147.7110 N   0  0  0  0  0  0  0  0  0  0  0  0
  186.7580  177.7810  146.6190 C   0  0  0  0  0  3  0  0  0  0  0  0
  190.0560  177.0730  145.8030 C   0  0  0  0  0  0  0  0  0  0  0  0
  188.8370  177.5130  145.5110 C   0  0  0  0  0  0  0  0  0  0  0  0
  190.1350  176.8130  147.2060 N   0  0  0  0  0  0  0  0  0  0  0  0
  191.5870  177.5900  141.2470 C   0  0  0  0  0  2  0  0  0  0  0  0
  190.6190  176.8570  140.3880 C   0  0  0  0  0  0  0  0  0  0  0  0
  189.3230  176.8470  140.6890 C   0  0  0  0  0  3  0  0  0  0  0  0
  190.6260  177.0800  143.5160 C   0  0  0  0  0  0  0  0  0  0  0  0
  188.7120  177.3260  141.9420 C   0  0  0  0  0  3  0  0  0  0  0  0
  189.2500  177.4250  143.1740 C   0  0  0  0  0  0  0  0  0  0  0  0
  191.0600  176.2990  139.1420 N   0  0  0  0  0  0  0  0  0  0  0  0
  190.3110  175.5450  138.4880 O   0  0  0  0  0  0  0  0  0  0  0  0
  192.3040  176.6080  138.6380 O   0  0  0  0  0  0  0  0  0  0  0  0
  184.7220  178.3490  145.2460 C   0  0  0  0  0  2  0  0  0  0  0  0
  185.7010  179.2260  141.8160 C   0  0  0  0  0  3  0  0  0  0  0  0
  183.1780  178.4180  143.3660 C   0  0  0  0  0  3  0  0  0  0  0  0
  184.0660  178.3170  138.6210 C   0  0  2  0  0  3  0  0  0  0  0  0
  185.3060  178.5920  139.4780 C   0  0  0  0  0  2  0  0  0  0  0  0
  184.8370  178.9540  140.8390 C   0  0  0  0  0  0  0  0  0  0  0  0
  182.6580  178.7400  142.0210 C   0  0  0  0  0  3  0  0  0  0  0  0
  183.3840  179.0550  140.9430 C   0  0  0  0  0  0  0  0  0  0  0  0
  182.6110  179.1600  139.3470 S   0  0  0  0  0  0  0  0  0  0  0  0
  184.3660  178.7760  143.8600 C   0  0  0  0  0  0  0  0  0  0  0  0
  185.2740  179.7320  143.1530 C   0  0  0  0  0  2  0  0  0  0  0  0
  183.8160  176.8490  138.4910 C   0  0  0  0  0  0  0  0  0  0  0  0
  182.9850  176.2690  139.2400 O   0  0  0  0  0  0  0  0  0  0  0  0
  184.5230  176.1000  137.5090 N   0  0  0  0  0  1  0  0  0  0  0  0
  1 10  1  0  0  0  0
  2 15  2  0  0  0  0
  3  9  2  0  0  0  0
  4  8  2  0  0  0  0
  5  1  2  0  0  0  0
  5  4  1  0  0  0  0
  6  7  1  0  0  0  0
  8  6  1  0  0  0  0
  9 11  1  0  0  0  0
 10  9  1  0  0  0  0
 10  6  2  0  0  0  0
 11  7  2  0  0  0  0
 12  2  1  0  0  0  0
 13 14  2  0  0  0  0
 13 12  1  0  0  0  0
 14 16  1  0  0  0  0
 15  3  1  0  0  0  0
 16 17  2  0  0  0  0
 17 15  1  0  0  0  0
 17  1  1  0  0  0  0
 18 13  1  0  0  0  0
 19 18  2  0  0  0  0
 20 18  2  0  0  0  0
 21  4  1  0  0  0  0
 22 31  1  0  0  0  0
 23 30  2  0  0  0  0
 24 32  1  1  0  0  0
 24 29  1  0  0  0  0
 24 25  1  0  0  0  0
 25 26  1  0  0  0  0
 26 28  1  0  0  0  0
 26 22  2  0  0  0  0
 27 23  1  0  0  0  0
 28 27  2  0  0  0  0
 29 28  1  0  0  0  0
 30 21  1  0  0  0  0
 31 30  1  0  0  0  0
 32 33  2  0  0  0  0
 34 32  1  0  0  0  0
M  END
>  <MODEL>
4

>  <REMARK>
 VINA RESULT:     -10.8      2.751      6.410
  Name = 
  4 active torsions:
  status: ('A' for Active; 'I' for Inactive)
    1  A    between atoms: N_3  and  C_25
    2  A    between atoms: C_7  and  C_11
    3  A    between atoms: C_8  and  C_18
    4  A    between atoms: C_18  and  C_30
                            x       y       z     vdW  Elec       q    Type
                         _______ _______ _______ _____ _____    ______ ____

>  <TORSDO>
F 4

$$$$
=
 OpenBabel11052415573D

 34 39  0  0  1  0  0  0  0  0999 V2000
  187.5120  177.9940  142.5080 C   0  0  0  0  0  0  0  0  0  0  0  0
  191.0800  177.0480  142.1650 C   0  0  0  0  0  3  0  0  0  0  0  0
  189.6790  176.9810  143.9860 N   0  0  0  0  0  0  0  0  0  0  0  0
  185.1340  178.5680  142.7750 C   0  0  0  0  0  0  0  0  0  0  0  0
  186.2750  178.3810  141.9380 C   0  0  0  0  0  3  0  0  0  0  0  0
  186.4580  177.9750  144.6880 C   0  0  0  0  0  0  0  0  0  0  0  0
  186.8500  177.5150  145.9880 N   0  0  0  0  0  0  0  0  0  0  0  0
  185.2130  178.3350  144.1750 C   0  0  0  0  0  3  0  0  0  0  0  0
  188.5110  177.3280  144.5740 C   0  0  0  0  0  0  0  0  0  0  0  0
  187.5140  177.8490  143.8670 C   0  0  0  0  0  0  0  0  0  0  0  0
  188.0750  177.1300  145.9220 N   0  0  0  0  0  0  0  0  0  0  0  0
  191.5650  177.5020  140.8310 C   0  0  0  0  0  2  0  0  0  0  0  0
  190.8910  176.8080  139.7020 C   0  0  0  0  0  0  0  0  0  0  0  0
  189.5760  176.9150  139.5320 C   0  0  0  0  0  3  0  0  0  0  0  0
  189.8350  177.1800  142.6300 C   0  0  0  0  0  0  0  0  0  0  0  0
  188.6160  177.5020  140.4840 C   0  0  0  0  0  3  0  0  0  0  0  0
  188.7000  177.6160  141.8240 C   0  0  0  0  0  0  0  0  0  0  0  0
  191.6840  176.1580  138.6980 N   0  0  0  0  0  0  0  0  0  0  0  0
  192.7180  176.7050  138.2600 O   0  0  0  0  0  0  0  0  0  0  0  0
  191.3320  174.9140  138.2230 O   0  0  0  0  0  0  0  0  0  0  0  0
  183.8400  178.9960  142.1680 C   0  0  0  0  0  2  0  0  0  0  0  0
  185.0430  178.7720  138.7040 C   0  0  0  0  0  3  0  0  0  0  0  0
  183.1400  177.2770  140.5930 C   0  0  0  0  0  3  0  0  0  0  0  0
  185.2040  175.8170  136.4800 C   0  0  2  0  0  3  0  0  0  0  0  0
  185.7580  177.1410  137.0160 C   0  0  0  0  0  2  0  0  0  0  0  0
  184.8100  177.6400  138.0420 C   0  0  0  0  0  0  0  0  0  0  0  0
  182.9310  176.5990  139.2980 C   0  0  0  0  0  3  0  0  0  0  0  0
  183.6070  176.8200  138.1660 C   0  0  0  0  0  0  0  0  0  0  0  0
  183.3980  175.7350  136.7750 S   0  0  0  0  0  0  0  0  0  0  0  0
  183.7080  178.4720  140.7760 C   0  0  0  0  0  0  0  0  0  0  0  0
  184.0500  179.3810  139.6370 C   0  0  0  0  0  2  0  0  0  0  0  0
  185.8970  174.6500  137.1090 C   0  0  0  0  0  0  0  0  0  0  0  0
  187.1520  174.6310  137.2210 O   0  0  0  0  0  0  0  0  0  0  0  0
  185.1290  173.5530  137.5900 N   0  0  0  0  0  1  0  0  0  0  0  0
  1 10  1  0  0  0  0
  2 15  2  0  0  0  0
  3  9  2  0  0  0  0
  4  8  2  0  0  0  0
  5  1  2  0  0  0  0
  5  4  1  0  0  0  0
  6  7  1  0  0  0  0
  8  6  1  0  0  0  0
  9 11  1  0  0  0  0
 10  9  1  0  0  0  0
 10  6  2  0  0  0  0
 11  7  2  0  0  0  0
 12  2  1  0  0  0  0
 13 12  1  0  0  0  0
 14 13  2  0  0  0  0
 14 16  1  0  0  0  0
 15  3  1  0  0  0  0
 16 17  2  0  0  0  0
 17  1  1  0  0  0  0
 17 15  1  0  0  0  0
 18 13  1  0  0  0  0
 19 18  2  0  0  0  0
 20 18  2  0  0  0  0
 21  4  1  0  0  0  0
 22 31  1  0  0  0  0
 23 30  2  0  0  0  0
 24 29  1  0  0  0  0
 24 25  1  0  0  0  0
 24 32  1  1  0  0  0
 25 26  1  0  0  0  0
 26 28  1  0  0  0  0
 26 22  2  0  0  0  0
 27 23  1  0  0  0  0
 28 27  2  0  0  0  0
 29 28  1  0  0  0  0
 30 21  1  0  0  0  0
 31 30  1  0  0  0  0
 32 33  2  0  0  0  0
 32 34  1  0  0  0  0
M  END
>  <MODEL>
5

>  <REMARK>
 VINA RESULT:     -10.6      3.217      6.309
  Name = 
  4 active torsions:
  status: ('A' for Active; 'I' for Inactive)
    1  A    between atoms: N_3  and  C_25
    2  A    between atoms: C_7  and  C_11
    3  A    between atoms: C_8  and  C_18
    4  A    between atoms: C_18  and  C_30
                            x       y       z     vdW  Elec       q    Type
                         _______ _______ _______ _____ _____    ______ ____

>  <TORSDO>
F 4

$$$$
=
 OpenBabel11052415573D

 34 39  0  0  1  0  0  0  0  0999 V2000
  184.4690  178.5000  142.1910 C   0  0  0  0  0  0  0  0  0  0  0  0
  184.0100  177.9760  138.5490 C   0  0  0  0  0  3  0  0  0  0  0  0
  182.5160  178.6210  140.1710 N   0  0  0  0  0  0  0  0  0  0  0  0
  184.7340  178.9030  144.6030 C   0  0  0  0  0  0  0  0  0  0  0  0
  185.3050  178.6140  143.3270 C   0  0  0  0  0  3  0  0  0  0  0  0
  182.5550  178.9730  143.5960 C   0  0  0  0  0  0  0  0  0  0  0  0
  181.1750  179.2710  143.3460 N   0  0  0  0  0  0  0  0  0  0  0  0
  183.3350  179.1160  144.7430 C   0  0  0  0  0  3  0  0  0  0  0  0
  182.2030  178.7680  141.4800 C   0  0  0  0  0  0  0  0  0  0  0  0
  183.1320  178.6610  142.4240 C   0  0  0  0  0  0  0  0  0  0  0  0
  180.9640  179.1490  142.0840 N   0  0  0  0  0  0  0  0  0  0  0  0
  185.2420  177.3410  138.0020 C   0  0  0  0  0  2  0  0  0  0  0  0
  186.4390  178.2190  138.0980 C   0  0  0  0  0  0  0  0  0  0  0  0
  186.8820  178.6280  139.2840 C   0  0  0  0  0  3  0  0  0  0  0  0
  183.8200  178.3490  139.8170 C   0  0  0  0  0  0  0  0  0  0  0  0
  186.1870  178.4820  140.5760 C   0  0  0  0  0  3  0  0  0  0  0  0
  184.8690  178.3720  140.8310 C   0  0  0  0  0  0  0  0  0  0  0  0
  187.2150  178.4880  136.9210 N   0  0  0  0  0  0  0  0  0  0  0  0
  186.8930  177.9820  135.8260 O   0  0  0  0  0  0  0  0  0  0  0  0
  188.3060  179.3250  136.9780 O   0  0  0  0  0  0  0  0  0  0  0  0
  185.6200  179.0000  145.8000 C   0  0  0  0  0  2  0  0  0  0  0  0
  187.4930  176.4280  143.9630 C   0  0  0  0  0  3  0  0  0  0  0  0
  188.0020  178.5890  146.0840 C   0  0  0  0  0  3  0  0  0  0  0  0
  191.1130  176.2790  143.2030 C   0  0  2  0  0  3  0  0  0  0  0  0
  189.6420  176.0420  142.8440 C   0  0  0  0  0  2  0  0  0  0  0  0
  188.8230  176.4920  143.9970 C   0  0  0  0  0  0  0  0  0  0  0  0
  189.2960  177.8820  146.0060 C   0  0  0  0  0  3  0  0  0  0  0  0
  189.6210  176.9090  145.1460 C   0  0  0  0  0  0  0  0  0  0  0  0
  191.3030  176.3520  145.0240 S   0  0  0  0  0  0  0  0  0  0  0  0
  186.8270  178.1360  145.6380 C   0  0  0  0  0  0  0  0  0  0  0  0
  186.6400  176.7340  145.1490 C   0  0  0  0  0  2  0  0  0  0  0  0
  191.6270  177.5300  142.5670 C   0  0  0  0  0  0  0  0  0  0  0  0
  191.6830  178.6070  143.2190 O   0  0  0  0  0  0  0  0  0  0  0  0
  192.0600  177.5030  141.2120 N   0  0  0  0  0  1  0  0  0  0  0  0
  1 10  2  0  0  0  0
  1  5  1  0  0  0  0
  2 15  2  0  0  0  0
  3  9  2  0  0  0  0
  4  8  1  0  0  0  0
  4 21  1  0  0  0  0
  5  4  2  0  0  0  0
  6  8  2  0  0  0  0
  7  6  1  0  0  0  0
  9 11  1  0  0  0  0
  9 10  1  0  0  0  0
 10  6  1  0  0  0  0
 11  7  2  0  0  0  0
 12 13  1  0  0  0  0
 12  2  1  0  0  0  0
 13 14  2  0  0  0  0
 14 16  1  0  0  0  0
 15  3  1  0  0  0  0
 15 17  1  0  0  0  0
 16 17  2  0  0  0  0
 17  1  1  0  0  0  0
 18 20  2  0  0  0  0
 18 13  1  0  0  0  0
 19 18  2  0  0  0  0
 22 26  2  0  0  0  0
 22 31  1  0  0  0  0
 24 32  1  6  0  0  0
 24 29  1  0  0  0  0
 25 24  1  0  0  0  0
 25 26  1  0  0  0  0
 26 28  1  0  0  0  0
 27 23  1  0  0  0  0
 28 27  2  0  0  0  0
 29 28  1  0  0  0  0
 30 21  1  0  0  0  0
 30 23  2  0  0  0  0
 31 30  1  0  0  0  0
 32 33  2  0  0  0  0
 34 32  1  0  0  0  0
M  END
>  <MODEL>
6

>  <REMARK>
 VINA RESULT:     -10.2      3.400      5.726
  Name = 
  4 active torsions:
  status: ('A' for Active; 'I' for Inactive)
    1  A    between atoms: N_3  and  C_25
    2  A    between atoms: C_7  and  C_11
    3  A    between atoms: C_8  and  C_18
    4  A    between atoms: C_18  and  C_30
                            x       y       z     vdW  Elec       q    Type
                         _______ _______ _______ _____ _____    ______ ____

>  <TORSDO>
F 4

$$$$
=
 OpenBabel11052415573D

 34 39  0  0  1  0  0  0  0  0999 V2000
  188.3410  177.8450  141.0320 C   0  0  0  0  0  0  0  0  0  0  0  0
  187.9110  177.3330  144.6790 C   0  0  0  0  0  3  0  0  0  0  0  0
  189.8110  177.3960  143.3880 N   0  0  0  0  0  0  0  0  0  0  0  0
  188.6800  178.2230  138.6250 C   0  0  0  0  0  0  0  0  0  0  0  0
  187.8170  178.1830  139.7610 C   0  0  0  0  0  3  0  0  0  0  0  0
  190.5320  177.6170  140.0280 C   0  0  0  0  0  0  0  0  0  0  0  0
  191.8610  177.4590  140.5430 N   0  0  0  0  0  0  0  0  0  0  0  0
  190.0720  177.9640  138.7590 C   0  0  0  0  0  3  0  0  0  0  0  0
  190.3940  177.3860  142.1660 C   0  0  0  0  0  0  0  0  0  0  0  0
  189.6760  177.5530  141.0610 C   0  0  0  0  0  0  0  0  0  0  0  0
  191.7790  177.3200  141.8190 N   0  0  0  0  0  0  0  0  0  0  0  0
  186.4600  177.1540  144.9650 C   0  0  0  0  0  2  0  0  0  0  0  0
  185.6560  178.3700  144.6680 C   0  0  0  0  0  0  0  0  0  0  0  0
  185.6020  178.8580  143.4320 C   0  0  0  0  0  3  0  0  0  0  0  0
  188.4470  177.5770  143.4810 C   0  0  0  0  0  0  0  0  0  0  0  0
  186.4400  178.4460  142.2910 C   0  0  0  0  0  3  0  0  0  0  0  0
  187.6730  177.9030  142.2870 C   0  0  0  0  0  0  0  0  0  0  0  0
  184.8040  178.9200  145.6840 N   0  0  0  0  0  0  0  0  0  0  0  0
  183.5950  179.1230  145.4500 O   0  0  0  0  0  0  0  0  0  0  0  0
  185.3020  179.2050  146.9360 O   0  0  0  0  0  0  0  0  0  0  0  0
  188.1160  178.5590  137.2850 C   0  0  0  0  0  2  0  0  0  0  0  0
  188.5060  174.9750  136.5860 C   0  0  0  0  0  3  0  0  0  0  0  0
  186.4220  177.1950  136.1930 C   0  0  0  0  0  3  0  0  0  0  0  0
  185.8930  172.3960  136.1050 C   0  0  2  0  0  3  0  0  0  0  0  0
  187.2610  172.8600  136.6160 C   0  0  0  0  0  2  0  0  0  0  0  0
  187.4150  174.2900  136.2480 C   0  0  0  0  0  0  0  0  0  0  0  0
  185.8300  176.0460  135.4770 C   0  0  0  0  0  3  0  0  0  0  0  0
  186.3130  174.8000  135.4370 C   0  0  0  0  0  0  0  0  0  0  0  0
  185.3380  173.4880  134.7430 S   0  0  0  0  0  0  0  0  0  0  0  0
  187.7010  177.3230  136.5590 C   0  0  0  0  0  0  0  0  0  0  0  0
  188.7630  176.3670  136.1140 C   0  0  0  0  0  2  0  0  0  0  0  0
  184.8860  172.3740  137.2090 C   0  0  0  0  0  0  0  0  0  0  0  0
  185.1120  172.9670  138.2980 O   0  0  0  0  0  0  0  0  0  0  0  0
  183.6590  171.6780  137.0270 N   0  0  0  0  0  1  0  0  0  0  0  0
  1 10  1  0  0  0  0
  1 17  1  0  0  0  0
  2 12  1  0  0  0  0
  3 15  1  0  0  0  0
  4  8  2  0  0  0  0
  4  5  1  0  0  0  0
  5  1  2  0  0  0  0
  6  7  1  0  0  0  0
  6 10  2  0  0  0  0
  7 11  2  0  0  0  0
  8  6  1  0  0  0  0
  9  3  2  0  0  0  0
 10  9  1  0  0  0  0
 11  9  1  0  0  0  0
 13 12  1  0  0  0  0
 13 18  1  0  0  0  0
 14 13  2  0  0  0  0
 15  2  2  0  0  0  0
 16 14  1  0  0  0  0
 17 16  2  0  0  0  0
 17 15  1  0  0  0  0
 18 20  2  0  0  0  0
 19 18  2  0  0  0  0
 21  4  1  0  0  0  0
 23 30  2  0  0  0  0
 24 25  1  0  0  0  0
 24 32  1  1  0  0  0
 26 22  2  0  0  0  0
 26 25  1  0  0  0  0
 27 23  1  0  0  0  0
 28 27  2  0  0  0  0
 28 26  1  0  0  0  0
 29 28  1  0  0  0  0
 29 24  1  0  0  0  0
 30 21  1  0  0  0  0
 31 30  1  0  0  0  0
 31 22  1  0  0  0  0
 32 33  2  0  0  0  0
 34 32  1  0  0  0  0
M  END
>  <MODEL>
7

>  <REMARK>
 VINA RESULT:     -10.2      3.624      5.882
  Name = 
  4 active torsions:
  status: ('A' for Active; 'I' for Inactive)
    1  A    between atoms: N_3  and  C_25
    2  A    between atoms: C_7  and  C_11
    3  A    between atoms: C_8  and  C_18
    4  A    between atoms: C_18  and  C_30
                            x       y       z     vdW  Elec       q    Type
                         _______ _______ _______ _____ _____    ______ ____

>  <TORSDO>
F 4

$$$$
=
 OpenBabel11052415573D

 34 39  0  0  1  0  0  0  0  0999 V2000
  186.6740  178.0170  144.0610 C   0  0  0  0  0  0  0  0  0  0  0  0
  189.2400  177.5350  146.6950 C   0  0  0  0  0  3  0  0  0  0  0  0
  186.9900  177.9750  146.8560 N   0  0  0  0  0  0  0  0  0  0  0  0
  184.9290  178.3010  142.3520 C   0  0  0  0  0  0  0  0  0  0  0  0
  186.2720  177.9710  142.7050 C   0  0  0  0  0  3  0  0  0  0  0  0
  184.4290  178.6900  144.6680 C   0  0  0  0  0  0  0  0  0  0  0  0
  183.7230  178.8290  145.9080 N   0  0  0  0  0  0  0  0  0  0  0  0
  183.9750  178.6410  143.3500 C   0  0  0  0  0  3  0  0  0  0  0  0
  185.8280  178.3510  146.2710 C   0  0  0  0  0  0  0  0  0  0  0  0
  185.7120  178.4100  144.9490 C   0  0  0  0  0  0  0  0  0  0  0  0
  184.5570  178.6280  146.8650 N   0  0  0  0  0  0  0  0  0  0  0  0
  190.5820  177.5030  146.0490 C   0  0  0  0  0  2  0  0  0  0  0  0
  190.7630  176.3370  145.1430 C   0  0  0  0  0  0  0  0  0  0  0  0
  189.9780  176.1810  144.0800 C   0  0  0  0  0  3  0  0  0  0  0  0
  188.0700  177.6560  146.0610 C   0  0  0  0  0  0  0  0  0  0  0  0
  188.7550  176.9450  143.7750 C   0  0  0  0  0  3  0  0  0  0  0  0
  187.9110  177.5790  144.6130 C   0  0  0  0  0  0  0  0  0  0  0  0
  191.8930  175.4720  145.3230 N   0  0  0  0  0  0  0  0  0  0  0  0
  192.3980  174.8840  144.3440 O   0  0  0  0  0  0  0  0  0  0  0  0
  192.4500  175.2980  146.5690 O   0  0  0  0  0  0  0  0  0  0  0  0
  184.5180  178.2710  140.9170 C   0  0  0  0  0  2  0  0  0  0  0  0
  188.1460  178.1300  140.3550 C   0  0  0  0  0  3  0  0  0  0  0  0
  185.5520  178.2030  138.7150 C   0  0  0  0  0  3  0  0  0  0  0  0
  190.0000  176.8460  137.4190 C   0  0  2  0  0  3  0  0  0  0  0  0
  189.8330  177.0650  138.9270 C   0  0  0  0  0  2  0  0  0  0  0  0
  188.5680  177.8140  139.1320 C   0  0  0  0  0  0  0  0  0  0  0  0
  186.6050  178.3030  137.6840 C   0  0  0  0  0  3  0  0  0  0  0  0
  187.9250  178.2150  137.8840 C   0  0  0  0  0  0  0  0  0  0  0  0
  189.0310  178.0980  136.5000 S   0  0  0  0  0  0  0  0  0  0  0  0
  185.7030  178.4290  140.0230 C   0  0  0  0  0  0  0  0  0  0  0  0
  186.9600  179.0030  140.5980 C   0  0  0  0  0  2  0  0  0  0  0  0
  189.5870  175.4630  137.0270 C   0  0  0  0  0  0  0  0  0  0  0  0
  188.6540  175.2820  136.1990 O   0  0  0  0  0  0  0  0  0  0  0  0
  190.2550  174.3430  137.5940 N   0  0  0  0  0  1  0  0  0  0  0  0
  1 17  1  0  0  0  0
  1 10  1  0  0  0  0
  4  5  1  0  0  0  0
  4  8  2  0  0  0  0
  5  1  2  0  0  0  0
  6 10  2  0  0  0  0
  6  7  1  0  0  0  0
  7 11  2  0  0  0  0
  8  6  1  0  0  0  0
  9  3  2  0  0  0  0
  9 11  1  0  0  0  0
 10  9  1  0  0  0  0
 12  2  1  0  0  0  0
 13 18  1  0  0  0  0
 13 12  1  0  0  0  0
 14 13  2  0  0  0  0
 15  2  2  0  0  0  0
 15  3  1  0  0  0  0
 16 14  1  0  0  0  0
 16 17  2  0  0  0  0
 17 15  1  0  0  0  0
 18 20  2  0  0  0  0
 19 18  2  0  0  0  0
 21  4  1  0  0  0  0
 22 31  1  0  0  0  0
 23 30  2  0  0  0  0
 24 32  1  1  0  0  0
 24 25  1  0  0  0  0
 25 26  1  0  0  0  0
 26 22  2  0  0  0  0
 27 28  2  0  0  0  0
 27 23  1  0  0  0  0
 28 26  1  0  0  0  0
 29 24  1  0  0  0  0
 29 28  1  0  0  0  0
 30 31  1  0  0  0  0
 30 21  1  0  0  0  0
 32 34  1  0  0  0  0
 33 32  2  0  0  0  0
M  END
>  <MODEL>
8

>  <REMARK>
 VINA RESULT:     -10.2      3.093      5.730
  Name = 
  4 active torsions:
  status: ('A' for Active; 'I' for Inactive)
    1  A    between atoms: N_3  and  C_25
    2  A    between atoms: C_7  and  C_11
    3  A    between atoms: C_8  and  C_18
    4  A    between atoms: C_18  and  C_30
                            x       y       z     vdW  Elec       q    Type
                         _______ _______ _______ _____ _____    ______ ____

>  <TORSDO>
F 4

$$$$
=
 OpenBabel11052415573D

 34 39  0  0  1  0  0  0  0  0999 V2000
  187.8770  177.6130  144.0630 C   0  0  0  0  0  0  0  0  0  0  0  0
  191.3510  176.3600  144.3870 C   0  0  0  0  0  3  0  0  0  0  0  0
  190.2680  177.3330  142.6100 N   0  0  0  0  0  0  0  0  0  0  0  0
  185.5950  178.4980  143.8130 C   0  0  0  0  0  0  0  0  0  0  0  0
  186.6260  177.9510  144.6340 C   0  0  0  0  0  3  0  0  0  0  0  0
  187.0610  178.3770  141.9150 C   0  0  0  0  0  0  0  0  0  0  0  0
  187.6700  178.6280  140.6420 N   0  0  0  0  0  0  0  0  0  0  0  0
  185.8200  178.7460  142.4310 C   0  0  0  0  0  3  0  0  0  0  0  0
  189.1190  177.7470  142.0260 C   0  0  0  0  0  0  0  0  0  0  0  0
  187.9880  177.8280  142.7170 C   0  0  0  0  0  0  0  0  0  0  0  0
  188.8980  178.2520  140.7060 N   0  0  0  0  0  0  0  0  0  0  0  0
  191.4700  175.6180  145.6740 C   0  0  0  0  0  2  0  0  0  0  0  0
  191.2810  176.4890  146.8660 C   0  0  0  0  0  0  0  0  0  0  0  0
  190.1300  177.1280  147.0590 C   0  0  0  0  0  3  0  0  0  0  0  0
  190.2580  176.9850  143.9440 C   0  0  0  0  0  0  0  0  0  0  0  0
  189.0260  177.2530  146.0900 C   0  0  0  0  0  3  0  0  0  0  0  0
  189.0580  177.2070  144.7440 C   0  0  0  0  0  0  0  0  0  0  0  0
  192.2820  176.5060  147.8940 N   0  0  0  0  0  0  0  0  0  0  0  0
  193.1690  175.6280  147.9240 O   0  0  0  0  0  0  0  0  0  0  0  0
  192.2930  177.5030  148.8430 O   0  0  0  0  0  0  0  0  0  0  0  0
  184.2720  178.8300  144.4180 C   0  0  0  0  0  2  0  0  0  0  0  0
  180.8840  179.5850  143.2180 C   0  0  0  0  0  3  0  0  0  0  0  0
  183.4940  178.3640  142.1600 C   0  0  0  0  0  3  0  0  0  0  0  0
  179.7120  180.1590  139.7530 C   0  0  2  0  0  3  0  0  0  0  0  0
  179.6810  180.4430  141.2590 C   0  0  0  0  0  2  0  0  0  0  0  0
  180.6720  179.5460  141.9040 C   0  0  0  0  0  0  0  0  0  0  0  0
  182.5480  178.1560  141.0450 C   0  0  0  0  0  3  0  0  0  0  0  0
  181.2900  178.6040  140.9750 C   0  0  0  0  0  0  0  0  0  0  0  0
  180.3830  178.4810  139.4530 S   0  0  0  0  0  0  0  0  0  0  0  0
  183.1730  178.6460  143.4260 C   0  0  0  0  0  0  0  0  0  0  0  0
  181.7620  178.6060  143.9230 C   0  0  0  0  0  2  0  0  0  0  0  0
  180.5190  181.1890  139.0290 C   0  0  0  0  0  0  0  0  0  0  0  0
  180.0710  182.3550  138.8620 O   0  0  0  0  0  0  0  0  0  0  0  0
  181.8040  180.8480  138.5250 N   0  0  0  0  0  1  0  0  0  0  0  0
  1  5  1  0  0  0  0
  1 17  1  0  0  0  0
  2 12  1  0  0  0  0
  3 15  1  0  0  0  0
  4 21  1  0  0  0  0
  4  5  2  0  0  0  0
  6  8  2  0  0  0  0
  6 10  1  0  0  0  0
  7 11  2  0  0  0  0
  7  6  1  0  0  0  0
  8  4  1  0  0  0  0
  9  3  2  0  0  0  0
  9 10  1  0  0  0  0
 10  1  2  0  0  0  0
 11  9  1  0  0  0  0
 12 13  1  0  0  0  0
 13 14  2  0  0  0  0
 13 18  1  0  0  0  0
 15  2  2  0  0  0  0
 15 17  1  0  0  0  0
 16 14  1  0  0  0  0
 17 16  2  0  0  0  0
 18 19  2  0  0  0  0
 18 20  2  0  0  0  0
 22 31  1  0  0  0  0
 23 30  2  0  0  0  0
 24 32  1  6  0  0  0
 24 25  1  0  0  0  0
 25 26  1  0  0  0  0
 26 22  2  0  0  0  0
 27 23  1  0  0  0  0
 28 27  2  0  0  0  0
 28 26  1  0  0  0  0
 29 24  1  0  0  0  0
 29 28  1  0  0  0  0
 30 31  1  0  0  0  0
 30 21  1  0  0  0  0
 33 32  2  0  0  0  0
 34 32  1  0  0  0  0
M  END
>  <MODEL>
9

>  <REMARK>
 VINA RESULT:     -10.1      4.333      8.646
  Name = 
  4 active torsions:
  status: ('A' for Active; 'I' for Inactive)
    1  A    between atoms: N_3  and  C_25
    2  A    between atoms: C_7  and  C_11
    3  A    between atoms: C_8  and  C_18
    4  A    between atoms: C_18  and  C_30
                            x       y       z     vdW  Elec       q    Type
                         _______ _______ _______ _____ _____    ______ ____

>  <TORSDO>
F 4

$$$$
