=
 OpenBabel11052412203D

 30 32  0  0  1  0  0  0  0  0999 V2000
  184.3720  178.6720  140.7470 N   0  0  1  0  0  0  0  0  0  0  0  0
  183.7560  179.6670  139.8390 C   0  0  1  0  0  3  0  0  0  0  0  0
  184.9150  178.8610  139.3830 C   0  0  2  0  0  3  0  0  0  0  0  0
  186.6270  178.5580  141.5930 C   0  0  0  0  0  0  0  0  0  0  0  0
  187.0550  177.6950  142.7100 C   0  0  0  0  0  3  0  0  0  0  0  0
  187.3330  178.6280  140.5490 O   0  0  0  0  0  0  0  0  0  0  0  0
  184.7860  179.3780  143.0840 C   0  0  0  0  0  3  0  0  0  0  0  0
  184.6620  178.7700  145.4470 C   0  0  0  0  0  1  0  0  0  0  0  0
  185.3200  179.3110  141.6600 C   0  0  2  0  0  3  0  0  0  0  0  0
  186.4060  177.7330  143.8810 C   0  0  0  0  0  3  0  0  0  0  0  0
  185.2640  178.6360  144.0860 C   0  0  0  0  0  0  0  0  0  0  0  0
  185.1090  176.2230  136.6300 C   0  0  0  0  0  3  0  0  0  0  0  0
  185.3860  177.3810  137.3760 C   0  0  0  0  0  0  0  0  0  0  0  0
  183.6230  176.7450  138.9300 C   0  0  0  0  0  3  0  0  0  0  0  0
  184.6130  177.6600  138.5210 C   0  0  0  0  0  0  0  0  0  0  0  0
  184.1050  175.3340  137.0340 C   0  0  0  0  0  3  0  0  0  0  0  0
  183.3670  175.5890  138.1880 C   0  0  0  0  0  3  0  0  0  0  0  0
  186.4320  178.2530  137.0200 O   0  0  0  0  0  0  0  0  0  0  0  0
  188.0940  177.5130  135.4120 C   0  0  0  0  0  1  0  0  0  0  0  0
  188.6740  179.0770  137.2180 C   0  0  0  0  0  1  0  0  0  0  0  0
  188.1760  176.7400  137.7820 C   0  0  0  0  0  1  0  0  0  0  0  0
  187.8070  177.8890  136.8550 C   0  0  0  0  0  0  0  0  0  0  0  0
  182.3640  179.1690  139.4200 C   0  0  2  0  0  3  0  0  0  0  0  0
  181.1050  178.1630  136.9480 O   0  0  0  0  0  0  0  0  0  0  0  0
  181.2430  179.4060  137.1060 C   0  0  0  0  0  0  0  0  0  0  0  0
  180.7840  180.3270  136.0380 C   0  0  0  0  0  1  0  0  0  0  0  0
  181.8230  179.9500  138.3030 N   0  0  0  0  0  2  0  0  0  0  0  0
  180.4690  180.1300  140.5970 O   0  0  0  0  0  1  0  0  0  0  0  0
  180.6460  177.7440  140.5710 C   0  0  0  0  0  1  0  0  0  0  0  0
  181.3860  179.0730  140.6010 C   0  0  1  0  0  3  0  0  0  0  0  0
  1  9  1  1  0  0  0
  2 23  1  6  0  0  0
  2  1  1  0  0  0  0
  3 15  1  6  0  0  0
  3  2  1  0  0  0  0
  3  1  1  0  0  0  0
  4  9  1  0  0  0  0
  4  5  1  0  0  0  0
  5 10  2  0  0  0  0
  6  4  2  0  0  0  0
  7 11  2  0  0  0  0
  9  7  1  1  0  0  0
 10 11  1  0  0  0  0
 11  8  1  0  0  0  0
 12 16  2  0  0  0  0
 12 13  1  0  0  0  0
 13 15  2  0  0  0  0
 15 14  1  0  0  0  0
 16 17  1  0  0  0  0
 17 14  2  0  0  0  0
 18 13  1  0  0  0  0
 19 22  1  0  0  0  0
 22 18  1  0  0  0  0
 22 20  1  0  0  0  0
 22 21  1  0  0  0  0
 23 27  1  6  0  0  0
 23 30  1  0  0  0  0
 24 25  2  0  0  0  0
 25 27  1  0  0  0  0
 26 25  1  0  0  0  0
 28 30  1  0  0  0  0
 30 29  1  6  0  0  0
M  END
>  <MODEL>
1

>  <REMARK>
 VINA RESULT:      -6.2      0.000      0.000
  Name = 
  7 active torsions:
  status: ('A' for Active; 'I' for Inactive)
    1  A    between atoms: N_1  and  C_22
    2  A    between atoms: C_4  and  C_23
    3  A    between atoms: C_5  and  C_12
    4  A    between atoms: C_8  and  O_13
    5  A    between atoms: O_13  and  C_30
    6  A    between atoms: C_23  and  N_25
    7  A    between atoms: C_23  and  C_26
                            x       y       z     vdW  Elec       q    Type
                         _______ _______ _______ _____ _____    ______ ____

>  <TORSDO>
F 7

$$$$
=
 OpenBabel11052412203D

 30 32  0  0  1  0  0  0  0  0999 V2000
  189.2720  177.7730  138.6670 N   0  0  1  0  0  0  0  0  0  0  0  0
  188.9590  176.3330  138.8100 C   0  0  1  0  0  3  0  0  0  0  0  0
  187.8660  177.3140  138.6000 C   0  0  2  0  0  3  0  0  0  0  0  0
  190.3810  177.5640  140.7970 C   0  0  0  0  0  0  0  0  0  0  0  0
  189.8780  176.7530  141.9230 C   0  0  0  0  0  3  0  0  0  0  0  0
  191.6020  177.5130  140.4850 O   0  0  0  0  0  0  0  0  0  0  0  0
  188.1050  178.6090  140.6840 C   0  0  0  0  0  3  0  0  0  0  0  0
  186.3930  178.1770  142.3720 C   0  0  0  0  0  1  0  0  0  0  0  0
  189.4370  178.4070  139.9740 C   0  0  2  0  0  3  0  0  0  0  0  0
  188.6250  176.9170  142.3660 C   0  0  0  0  0  3  0  0  0  0  0  0
  187.7270  177.9080  141.7560 C   0  0  0  0  0  0  0  0  0  0  0  0
  185.4900  177.4430  135.6140 C   0  0  0  0  0  3  0  0  0  0  0  0
  185.9610  177.2550  136.9250 C   0  0  0  0  0  0  0  0  0  0  0  0
  188.1870  177.8820  136.1660 C   0  0  0  0  0  3  0  0  0  0  0  0
  187.3300  177.4470  137.1960 C   0  0  0  0  0  0  0  0  0  0  0  0
  186.3570  177.8510  134.5940 C   0  0  0  0  0  3  0  0  0  0  0  0
  187.7050  178.0790  134.8700 C   0  0  0  0  0  3  0  0  0  0  0  0
  185.0910  176.9060  137.9760 O   0  0  0  0  0  0  0  0  0  0  0  0
  182.9160  177.8530  137.4600 C   0  0  0  0  0  1  0  0  0  0  0  0
  183.4520  177.0470  139.7200 C   0  0  0  0  0  1  0  0  0  0  0  0
  184.5400  179.0880  138.8950 C   0  0  0  0  0  1  0  0  0  0  0  0
  184.0260  177.7150  138.4870 C   0  0  0  0  0  0  0  0  0  0  0  0
  189.4600  175.5840  137.5650 C   0  0  2  0  0  3  0  0  0  0  0  0
  187.7490  174.3630  135.4940 O   0  0  0  0  0  0  0  0  0  0  0  0
  188.0920  173.6750  136.4940 C   0  0  0  0  0  0  0  0  0  0  0  0
  187.6120  172.2760  136.6080 C   0  0  0  0  0  1  0  0  0  0  0  0
  188.9470  174.2110  137.5160 N   0  0  0  0  0  2  0  0  0  0  0  0
  191.6100  174.5260  137.9600 O   0  0  0  0  0  1  0  0  0  0  0  0
  191.3620  175.7800  135.9380 C   0  0  0  0  0  1  0  0  0  0  0  0
  190.9870  175.6490  137.4060 C   0  0  1  0  0  3  0  0  0  0  0  0
  1  2  1  0  0  0  0
  1  9  1  1  0  0  0
  2 23  1  6  0  0  0
  3 15  1  6  0  0  0
  3  1  1  0  0  0  0
  3  2  1  0  0  0  0
  4  5  1  0  0  0  0
  5 10  2  0  0  0  0
  6  4  2  0  0  0  0
  7 11  2  0  0  0  0
  9  7  1  1  0  0  0
  9  4  1  0  0  0  0
 11 10  1  0  0  0  0
 11  8  1  0  0  0  0
 12 13  1  0  0  0  0
 13 15  2  0  0  0  0
 13 18  1  0  0  0  0
 14 15  1  0  0  0  0
 16 17  1  0  0  0  0
 16 12  2  0  0  0  0
 17 14  2  0  0  0  0
 18 22  1  0  0  0  0
 19 22  1  0  0  0  0
 22 21  1  0  0  0  0
 22 20  1  0  0  0  0
 23 27  1  1  0  0  0
 24 25  2  0  0  0  0
 25 26  1  0  0  0  0
 25 27  1  0  0  0  0
 30 29  1  6  0  0  0
 30 23  1  0  0  0  0
 30 28  1  0  0  0  0
M  END
>  <MODEL>
2

>  <REMARK>
 VINA RESULT:      -5.8      3.069      6.381
  Name = 
  7 active torsions:
  status: ('A' for Active; 'I' for Inactive)
    1  A    between atoms: N_1  and  C_22
    2  A    between atoms: C_4  and  C_23
    3  A    between atoms: C_5  and  C_12
    4  A    between atoms: C_8  and  O_13
    5  A    between atoms: O_13  and  C_30
    6  A    between atoms: C_23  and  N_25
    7  A    between atoms: C_23  and  C_26
                            x       y       z     vdW  Elec       q    Type
                         _______ _______ _______ _____ _____    ______ ____

>  <TORSDO>
F 7

$$$$
=
 OpenBabel11052412203D

 30 32  0  0  1  0  0  0  0  0999 V2000
  192.4750  175.7380  137.1780 N   0  0  1  0  0  0  0  0  0  0  0  0
  191.7030  174.5350  137.5670 C   0  0  1  0  0  3  0  0  0  0  0  0
  191.7320  175.7210  138.4580 C   0  0  2  0  0  3  0  0  0  0  0  0
  194.7150  175.9860  136.3220 C   0  0  0  0  0  0  0  0  0  0  0  0
  195.4190  174.9660  135.5210 C   0  0  0  0  0  3  0  0  0  0  0  0
  194.7600  177.1970  135.9720 O   0  0  0  0  0  0  0  0  0  0  0  0
  194.2180  174.1740  137.9810 C   0  0  0  0  0  3  0  0  0  0  0  0
  195.1930  171.9410  137.7960 C   0  0  0  0  0  1  0  0  0  0  0  0
  193.8890  175.5870  137.5210 C   0  0  2  0  0  3  0  0  0  0  0  0
  195.5150  173.7060  135.9650 C   0  0  0  0  0  3  0  0  0  0  0  0
  194.9350  173.3100  137.2570 C   0  0  0  0  0  0  0  0  0  0  0  0
  188.6820  177.7940  139.4480 C   0  0  0  0  0  3  0  0  0  0  0  0
  189.7460  176.8790  139.5320 C   0  0  0  0  0  0  0  0  0  0  0  0
  190.3030  177.3860  137.2180 C   0  0  0  0  0  3  0  0  0  0  0  0
  190.5450  176.6500  138.3940 C   0  0  0  0  0  0  0  0  0  0  0  0
  188.4370  178.5010  138.2650 C   0  0  0  0  0  3  0  0  0  0  0  0
  189.2530  178.3040  137.1510 C   0  0  0  0  0  3  0  0  0  0  0  0
  190.0440  176.2060  140.7330 O   0  0  0  0  0  0  0  0  0  0  0  0
  191.7960  177.5220  141.7790 C   0  0  0  0  0  1  0  0  0  0  0  0
  189.4310  177.8560  142.3600 C   0  0  0  0  0  1  0  0  0  0  0  0
  190.5510  175.7910  143.0740 C   0  0  0  0  0  1  0  0  0  0  0  0
  190.4610  176.8210  141.9570 C   0  0  0  0  0  0  0  0  0  0  0  0
  190.4840  174.4000  136.6410 C   0  0  2  0  0  3  0  0  0  0  0  0
  187.5960  174.2050  136.0710 O   0  0  0  0  0  0  0  0  0  0  0  0
  188.1280  173.3670  136.8490 C   0  0  0  0  0  0  0  0  0  0  0  0
  187.2830  172.3160  137.4680 C   0  0  0  0  0  1  0  0  0  0  0  0
  189.5350  173.3990  137.1370 N   0  0  0  0  0  2  0  0  0  0  0  0
  191.4110  175.3210  134.5940 O   0  0  0  0  0  1  0  0  0  0  0  0
  191.8720  173.0210  135.0660 C   0  0  0  0  0  1  0  0  0  0  0  0
  190.8760  174.1660  135.1730 C   0  0  1  0  0  3  0  0  0  0  0  0
  1  9  1  1  0  0  0
  1  2  1  0  0  0  0
  1  3  1  0  0  0  0
  2 23  1  6  0  0  0
  2  3  1  0  0  0  0
  3 15  1  6  0  0  0
  4  9  1  0  0  0  0
  5 10  2  0  0  0  0
  5  4  1  0  0  0  0
  6  4  2  0  0  0  0
  9  7  1  6  0  0  0
 10 11  1  0  0  0  0
 11  8  1  0  0  0  0
 11  7  2  0  0  0  0
 12 13  1  0  0  0  0
 13 18  1  0  0  0  0
 14 15  1  0  0  0  0
 15 13  2  0  0  0  0
 16 12  2  0  0  0  0
 17 14  2  0  0  0  0
 17 16  1  0  0  0  0
 18 22  1  0  0  0  0
 19 22  1  0  0  0  0
 22 20  1  0  0  0  0
 22 21  1  0  0  0  0
 23 27  1  1  0  0  0
 24 25  2  0  0  0  0
 25 27  1  0  0  0  0
 25 26  1  0  0  0  0
 28 30  1  0  0  0  0
 30 29  1  1  0  0  0
 30 23  1  0  0  0  0
M  END
>  <MODEL>
3

>  <REMARK>
 VINA RESULT:      -5.8      5.598      9.449
  Name = 
  7 active torsions:
  status: ('A' for Active; 'I' for Inactive)
    1  A    between atoms: N_1  and  C_22
    2  A    between atoms: C_4  and  C_23
    3  A    between atoms: C_5  and  C_12
    4  A    between atoms: C_8  and  O_13
    5  A    between atoms: O_13  and  C_30
    6  A    between atoms: C_23  and  N_25
    7  A    between atoms: C_23  and  C_26
                            x       y       z     vdW  Elec       q    Type
                         _______ _______ _______ _____ _____    ______ ____

>  <TORSDO>
F 7

$$$$
=
 OpenBabel11052412203D

 30 32  0  0  1  0  0  0  0  0999 V2000
  184.6600  177.3120  138.1470 N   0  0  1  0  0  0  0  0  0  0  0  0
  184.0950  178.6130  138.5750 C   0  0  1  0  0  3  0  0  0  0  0  0
  183.4570  177.8510  137.4720 C   0  0  2  0  0  3  0  0  0  0  0  0
  186.2390  176.1480  136.7460 C   0  0  0  0  0  0  0  0  0  0  0  0
  187.5180  175.5860  137.2210 C   0  0  0  0  0  3  0  0  0  0  0  0
  185.5030  175.4690  135.9790 O   0  0  0  0  0  0  0  0  0  0  0  0
  186.9110  178.2990  137.8450 C   0  0  0  0  0  3  0  0  0  0  0  0
  189.1340  178.6290  138.8020 C   0  0  0  0  0  1  0  0  0  0  0  0
  185.7740  177.5050  137.2180 C   0  0  2  0  0  3  0  0  0  0  0  0
  188.3820  176.3500  137.9000 C   0  0  0  0  0  3  0  0  0  0  0  0
  188.0870  177.7630  138.1820 C   0  0  0  0  0  0  0  0  0  0  0  0
  179.8420  176.6650  137.7870 C   0  0  0  0  0  3  0  0  0  0  0  0
  180.9470  177.4820  137.4920 C   0  0  0  0  0  0  0  0  0  0  0  0
  182.4060  175.7510  138.3870 C   0  0  0  0  0  3  0  0  0  0  0  0
  182.2400  177.0320  137.8250 C   0  0  0  0  0  0  0  0  0  0  0  0
  180.0190  175.4040  138.3690 C   0  0  0  0  0  3  0  0  0  0  0  0
  181.3010  174.9420  138.6630 C   0  0  0  0  0  3  0  0  0  0  0  0
  180.7920  178.7250  136.8500 O   0  0  0  0  0  0  0  0  0  0  0  0
  181.1030  177.8860  134.5940 C   0  0  0  0  0  1  0  0  0  0  0  0
  178.9320  178.7660  135.3380 C   0  0  0  0  0  1  0  0  0  0  0  0
  180.8020  180.3250  135.0190 C   0  0  0  0  0  1  0  0  0  0  0  0
  180.4320  178.9220  135.4780 C   0  0  0  0  0  0  0  0  0  0  0  0
  183.4720  178.4540  139.9710 C   0  0  2  0  0  3  0  0  0  0  0  0
  180.7590  177.8910  140.9850 O   0  0  0  0  0  0  0  0  0  0  0  0
  181.0610  179.0710  140.6590 C   0  0  0  0  0  0  0  0  0  0  0  0
  180.0390  180.1400  140.7780 C   0  0  0  0  0  1  0  0  0  0  0  0
  182.3760  179.4040  140.1860 N   0  0  0  0  0  2  0  0  0  0  0  0
  185.3950  179.5720  140.9460 O   0  0  0  0  0  1  0  0  0  0  0  0
  183.8340  178.5650  142.4530 C   0  0  0  0  0  1  0  0  0  0  0  0
  184.5170  178.4930  141.0960 C   0  0  1  0  0  3  0  0  0  0  0  0
  1  9  1  6  0  0  0
  1  2  1  0  0  0  0
  2 23  1  1  0  0  0
  3 15  1  1  0  0  0
  3  1  1  0  0  0  0
  3  2  1  0  0  0  0
  4  9  1  0  0  0  0
  4  5  1  0  0  0  0
  5 10  2  0  0  0  0
  6  4  2  0  0  0  0
  7 11  2  0  0  0  0
  9  7  1  1  0  0  0
 10 11  1  0  0  0  0
 11  8  1  0  0  0  0
 12 16  1  0  0  0  0
 13 12  2  0  0  0  0
 13 15  1  0  0  0  0
 14 17  1  0  0  0  0
 15 14  2  0  0  0  0
 16 17  2  0  0  0  0
 18 13  1  0  0  0  0
 19 22  1  0  0  0  0
 20 22  1  0  0  0  0
 21 22  1  0  0  0  0
 22 18  1  0  0  0  0
 23 27  1  1  0  0  0
 23 30  1  0  0  0  0
 25 26  1  0  0  0  0
 25 24  2  0  0  0  0
 27 25  1  0  0  0  0
 28 30  1  0  0  0  0
 30 29  1  1  0  0  0
M  END
>  <MODEL>
4

>  <REMARK>
 VINA RESULT:      -5.4      1.880      5.243
  Name = 
  7 active torsions:
  status: ('A' for Active; 'I' for Inactive)
    1  A    between atoms: N_1  and  C_22
    2  A    between atoms: C_4  and  C_23
    3  A    between atoms: C_5  and  C_12
    4  A    between atoms: C_8  and  O_13
    5  A    between atoms: O_13  and  C_30
    6  A    between atoms: C_23  and  N_25
    7  A    between atoms: C_23  and  C_26
                            x       y       z     vdW  Elec       q    Type
                         _______ _______ _______ _____ _____    ______ ____

>  <TORSDO>
F 7

$$$$
=
 OpenBabel11052412203D

 30 32  0  0  1  0  0  0  0  0999 V2000
  189.5010  177.6850  138.7270 N   0  0  1  0  0  0  0  0  0  0  0  0
  189.2590  176.2270  138.8250 C   0  0  1  0  0  3  0  0  0  0  0  0
  188.1190  177.1600  138.6440 C   0  0  2  0  0  3  0  0  0  0  0  0
  190.6020  177.4510  140.8590 C   0  0  0  0  0  0  0  0  0  0  0  0
  190.1190  176.5910  141.9570 C   0  0  0  0  0  3  0  0  0  0  0  0
  191.8260  177.4520  140.5560 O   0  0  0  0  0  0  0  0  0  0  0  0
  188.2920  178.4190  140.7580 C   0  0  0  0  0  3  0  0  0  0  0  0
  186.5830  177.8780  142.4190 C   0  0  0  0  0  1  0  0  0  0  0  0
  189.6340  178.2850  140.0540 C   0  0  2  0  0  3  0  0  0  0  0  0
  188.8580  176.6980  142.3940 C   0  0  0  0  0  3  0  0  0  0  0  0
  187.9300  177.6740  141.8060 C   0  0  0  0  0  0  0  0  0  0  0  0
  186.0790  176.6330  135.4600 C   0  0  0  0  0  3  0  0  0  0  0  0
  186.5980  176.4270  136.7490 C   0  0  0  0  0  0  0  0  0  0  0  0
  187.9720  178.4150  136.4630 C   0  0  0  0  0  3  0  0  0  0  0  0
  187.5790  177.3100  137.2420 C   0  0  0  0  0  0  0  0  0  0  0  0
  186.4980  177.7210  134.6840 C   0  0  0  0  0  3  0  0  0  0  0  0
  187.4390  178.6180  135.1880 C   0  0  0  0  0  3  0  0  0  0  0  0
  186.1430  175.3740  137.5660 O   0  0  0  0  0  0  0  0  0  0  0  0
  183.7400  175.0290  137.5700 C   0  0  0  0  0  1  0  0  0  0  0  0
  185.1480  174.1680  135.7490 C   0  0  0  0  0  1  0  0  0  0  0  0
  185.3040  173.1280  137.9670 C   0  0  0  0  0  1  0  0  0  0  0  0
  185.1020  174.4470  137.2370 C   0  0  0  0  0  0  0  0  0  0  0  0
  189.7960  175.5420  137.5590 C   0  0  2  0  0  3  0  0  0  0  0  0
  188.7560  174.1660  135.1640 O   0  0  0  0  0  0  0  0  0  0  0  0
  188.8000  173.5450  136.2610 C   0  0  0  0  0  0  0  0  0  0  0  0
  188.3140  172.1440  136.3200 C   0  0  0  0  0  1  0  0  0  0  0  0
  189.3240  174.1580  137.4500 N   0  0  0  0  0  2  0  0  0  0  0  0
  191.9690  174.5080  137.8900 O   0  0  0  0  0  1  0  0  0  0  0  0
  191.7070  175.9170  135.9740 C   0  0  0  0  0  1  0  0  0  0  0  0
  191.3220  175.6580  137.4220 C   0  0  1  0  0  3  0  0  0  0  0  0
  1  2  1  0  0  0  0
  1  9  1  1  0  0  0
  2 23  1  6  0  0  0
  3 15  1  6  0  0  0
  3  1  1  0  0  0  0
  3  2  1  0  0  0  0
  4  5  1  0  0  0  0
  5 10  2  0  0  0  0
  6  4  2  0  0  0  0
  7 11  2  0  0  0  0
  9  7  1  1  0  0  0
  9  4  1  0  0  0  0
 11 10  1  0  0  0  0
 11  8  1  0  0  0  0
 12 13  1  0  0  0  0
 13 15  2  0  0  0  0
 13 18  1  0  0  0  0
 14 15  1  0  0  0  0
 16 17  1  0  0  0  0
 16 12  2  0  0  0  0
 17 14  2  0  0  0  0
 20 22  1  0  0  0  0
 22 18  1  0  0  0  0
 22 19  1  0  0  0  0
 22 21  1  0  0  0  0
 23 27  1  1  0  0  0
 24 25  2  0  0  0  0
 25 26  1  0  0  0  0
 25 27  1  0  0  0  0
 30 29  1  6  0  0  0
 30 23  1  0  0  0  0
 30 28  1  0  0  0  0
M  END
>  <MODEL>
5

>  <REMARK>
 VINA RESULT:      -5.3      3.893      6.641
  Name = 
  7 active torsions:
  status: ('A' for Active; 'I' for Inactive)
    1  A    between atoms: N_1  and  C_22
    2  A    between atoms: C_4  and  C_23
    3  A    between atoms: C_5  and  C_12
    4  A    between atoms: C_8  and  O_13
    5  A    between atoms: O_13  and  C_30
    6  A    between atoms: C_23  and  N_25
    7  A    between atoms: C_23  and  C_26
                            x       y       z     vdW  Elec       q    Type
                         _______ _______ _______ _____ _____    ______ ____

>  <TORSDO>
F 7

$$$$
=
 OpenBabel11052412203D

 30 32  0  0  1  0  0  0  0  0999 V2000
  189.5680  177.2720  140.0380 N   0  0  1  0  0  0  0  0  0  0  0  0
  190.2720  176.1440  139.3850 C   0  0  1  0  0  3  0  0  0  0  0  0
  188.8370  176.3920  139.0990 C   0  0  2  0  0  3  0  0  0  0  0  0
  188.7510  178.1660  142.1220 C   0  0  0  0  0  0  0  0  0  0  0  0
  189.6130  178.6830  143.2030 C   0  0  0  0  0  3  0  0  0  0  0  0
  187.7220  178.8120  141.7790 O   0  0  0  0  0  0  0  0  0  0  0  0
  190.1710  176.1010  142.1340 C   0  0  0  0  0  3  0  0  0  0  0  0
  191.8870  175.7150  143.8300 C   0  0  0  0  0  1  0  0  0  0  0  0
  189.1200  176.9040  141.3810 C   0  0  2  0  0  3  0  0  0  0  0  0
  190.6120  177.9340  143.6860 C   0  0  0  0  0  3  0  0  0  0  0  0
  190.8700  176.5840  143.1650 C   0  0  0  0  0  0  0  0  0  0  0  0
  187.6410  177.1790  135.5590 C   0  0  0  0  0  3  0  0  0  0  0  0
  187.9810  176.4480  136.7110 C   0  0  0  0  0  0  0  0  0  0  0  0
  188.6350  178.5330  137.7840 C   0  0  0  0  0  3  0  0  0  0  0  0
  188.5130  177.1300  137.8230 C   0  0  0  0  0  0  0  0  0  0  0  0
  187.7910  178.5710  135.5250 C   0  0  0  0  0  3  0  0  0  0  0  0
  188.2800  179.2500  136.6390 C   0  0  0  0  0  3  0  0  0  0  0  0
  187.7790  175.0570  136.7850 O   0  0  0  0  0  0  0  0  0  0  0  0
  186.3480  173.9980  135.1330 C   0  0  0  0  0  1  0  0  0  0  0  0
  186.5310  173.1110  137.4180 C   0  0  0  0  0  1  0  0  0  0  0  0
  185.3700  175.2440  137.0600 C   0  0  0  0  0  1  0  0  0  0  0  0
  186.5320  174.3790  136.5910 C   0  0  0  0  0  0  0  0  0  0  0  0
  191.2820  176.7030  138.3700 C   0  0  2  0  0  3  0  0  0  0  0  0
  191.4820  173.8430  137.6720 O   0  0  0  0  0  0  0  0  0  0  0  0
  191.2570  174.6850  136.7600 C   0  0  0  0  0  0  0  0  0  0  0  0
  191.1160  174.2160  135.3600 C   0  0  0  0  0  1  0  0  0  0  0  0
  191.1220  176.0850  137.0500 N   0  0  0  0  0  2  0  0  0  0  0  0
  193.6420  176.9880  137.8750 O   0  0  0  0  0  1  0  0  0  0  0  0
  192.9090  177.5590  140.0800 C   0  0  0  0  0  1  0  0  0  0  0  0
  192.7300  176.6430  138.8790 C   0  0  1  0  0  3  0  0  0  0  0  0
  1  9  1  1  0  0  0
  2 23  1  6  0  0  0
  2  1  1  0  0  0  0
  3 15  1  6  0  0  0
  3  2  1  0  0  0  0
  3  1  1  0  0  0  0
  4  5  1  0  0  0  0
  5 10  2  0  0  0  0
  6  4  2  0  0  0  0
  7 11  2  0  0  0  0
  9  4  1  0  0  0  0
  9  7  1  1  0  0  0
 11 10  1  0  0  0  0
 11  8  1  0  0  0  0
 12 13  1  0  0  0  0
 13 18  1  0  0  0  0
 13 15  2  0  0  0  0
 14 15  1  0  0  0  0
 16 12  2  0  0  0  0
 16 17  1  0  0  0  0
 17 14  2  0  0  0  0
 19 22  1  0  0  0  0
 22 18  1  0  0  0  0
 22 21  1  0  0  0  0
 22 20  1  0  0  0  0
 23 27  1  6  0  0  0
 23 30  1  0  0  0  0
 25 27  1  0  0  0  0
 25 24  2  0  0  0  0
 26 25  1  0  0  0  0
 28 30  1  0  0  0  0
 30 29  1  1  0  0  0
M  END
>  <MODEL>
6

>  <REMARK>
 VINA RESULT:      -5.2      4.441      7.265
  Name = 
  7 active torsions:
  status: ('A' for Active; 'I' for Inactive)
    1  A    between atoms: N_1  and  C_22
    2  A    between atoms: C_4  and  C_23
    3  A    between atoms: C_5  and  C_12
    4  A    between atoms: C_8  and  O_13
    5  A    between atoms: O_13  and  C_30
    6  A    between atoms: C_23  and  N_25
    7  A    between atoms: C_23  and  C_26
                            x       y       z     vdW  Elec       q    Type
                         _______ _______ _______ _____ _____    ______ ____

>  <TORSDO>
F 7

$$$$
=
 OpenBabel11052412203D

 30 32  0  0  1  0  0  0  0  0999 V2000
  183.7640  178.0640  140.1570 N   0  0  1  0  0  0  0  0  0  0  0  0
  184.5100  178.7970  139.1080 C   0  0  1  0  0  3  0  0  0  0  0  0
  184.6770  179.1670  140.5350 C   0  0  2  0  0  3  0  0  0  0  0  0
  181.4550  177.6330  139.6160 C   0  0  0  0  0  0  0  0  0  0  0  0
  180.8180  177.9940  138.3350 C   0  0  0  0  0  3  0  0  0  0  0  0
  181.2460  176.4950  140.1200 O   0  0  0  0  0  0  0  0  0  0  0  0
  182.2760  179.9980  139.7420 C   0  0  0  0  0  3  0  0  0  0  0  0
  181.5540  181.7090  138.1550 C   0  0  0  0  0  1  0  0  0  0  0  0
  182.4060  178.5870  140.2980 C   0  0  2  0  0  3  0  0  0  0  0  0
  180.9000  179.2470  137.8690 C   0  0  0  0  0  3  0  0  0  0  0  0
  181.6140  180.2910  138.6200 C   0  0  0  0  0  0  0  0  0  0  0  0
  186.9380  177.4740  143.1050 C   0  0  0  0  0  3  0  0  0  0  0  0
  185.7870  178.0140  142.5050 C   0  0  0  0  0  0  0  0  0  0  0  0
  187.1400  178.6320  140.5770 C   0  0  0  0  0  3  0  0  0  0  0  0
  185.8970  178.6270  141.2410 C   0  0  0  0  0  0  0  0  0  0  0  0
  188.1730  177.5080  142.4450 C   0  0  0  0  0  3  0  0  0  0  0  0
  188.2730  178.0790  141.1770 C   0  0  0  0  0  3  0  0  0  0  0  0
  184.5270  177.9340  143.1270 O   0  0  0  0  0  0  0  0  0  0  0  0
  184.3780  178.2540  145.5290 C   0  0  0  0  0  1  0  0  0  0  0  0
  184.7100  180.1560  144.0070 C   0  0  0  0  0  1  0  0  0  0  0  0
  182.5390  179.0090  144.0230 C   0  0  0  0  0  1  0  0  0  0  0  0
  184.0410  178.8050  144.1550 C   0  0  0  0  0  0  0  0  0  0  0  0
  185.5770  177.8690  138.5080 C   0  0  2  0  0  3  0  0  0  0  0  0
  188.1890  176.8660  137.5690 O   0  0  0  0  0  0  0  0  0  0  0  0
  187.9190  178.0910  137.4450 C   0  0  0  0  0  0  0  0  0  0  0  0
  188.9280  178.9980  136.8440 C   0  0  0  0  0  1  0  0  0  0  0  0
  186.6520  178.6260  137.8590 N   0  0  0  0  0  2  0  0  0  0  0  0
  184.2130  175.8690  138.3170 O   0  0  0  0  0  1  0  0  0  0  0  0
  184.1320  177.4260  136.5030 C   0  0  0  0  0  1  0  0  0  0  0  0
  184.9790  176.7890  137.5930 C   0  0  1  0  0  3  0  0  0  0  0  0
  1  9  1  6  0  0  0
  1  3  1  0  0  0  0
  2 23  1  1  0  0  0
  2  1  1  0  0  0  0
  2  3  1  0  0  0  0
  3 15  1  1  0  0  0
  4  6  2  0  0  0  0
  4  9  1  0  0  0  0
  5  4  1  0  0  0  0
  8 11  1  0  0  0  0
  9  7  1  6  0  0  0
 10  5  2  0  0  0  0
 10 11  1  0  0  0  0
 11  7  2  0  0  0  0
 13 12  1  0  0  0  0
 13 18  1  0  0  0  0
 14 17  2  0  0  0  0
 14 15  1  0  0  0  0
 15 13  2  0  0  0  0
 16 12  2  0  0  0  0
 17 16  1  0  0  0  0
 18 22  1  0  0  0  0
 20 22  1  0  0  0  0
 21 22  1  0  0  0  0
 22 19  1  0  0  0  0
 23 27  1  6  0  0  0
 25 24  2  0  0  0  0
 25 27  1  0  0  0  0
 26 25  1  0  0  0  0
 30 29  1  6  0  0  0
 30 28  1  0  0  0  0
 30 23  1  0  0  0  0
M  END
>  <MODEL>
7

>  <REMARK>
 VINA RESULT:      -5.1      1.835      6.342
  Name = 
  7 active torsions:
  status: ('A' for Active; 'I' for Inactive)
    1  A    between atoms: N_1  and  C_22
    2  A    between atoms: C_4  and  C_23
    3  A    between atoms: C_5  and  C_12
    4  A    between atoms: C_8  and  O_13
    5  A    between atoms: O_13  and  C_30
    6  A    between atoms: C_23  and  N_25
    7  A    between atoms: C_23  and  C_26
                            x       y       z     vdW  Elec       q    Type
                         _______ _______ _______ _____ _____    ______ ____

>  <TORSDO>
F 7

$$$$
=
 OpenBabel11052412203D

 30 32  0  0  1  0  0  0  0  0999 V2000
  185.0060  178.3550  140.8120 N   0  0  1  0  0  0  0  0  0  0  0  0
  184.1700  179.3780  141.4830 C   0  0  1  0  0  3  0  0  0  0  0  0
  183.9050  179.0110  140.0700 C   0  0  2  0  0  3  0  0  0  0  0  0
  186.5450  178.3360  138.9570 C   0  0  0  0  0  0  0  0  0  0  0  0
  187.6420  177.3630  138.7930 C   0  0  0  0  0  3  0  0  0  0  0  0
  185.8150  178.6290  137.9700 O   0  0  0  0  0  0  0  0  0  0  0  0
  187.4060  178.7430  141.2750 C   0  0  0  0  0  3  0  0  0  0  0  0
  189.5090  177.7820  142.0660 C   0  0  0  0  0  1  0  0  0  0  0  0
  186.2480  178.9400  140.3080 C   0  0  2  0  0  3  0  0  0  0  0  0
  188.5210  177.1640  139.7830 C   0  0  0  0  0  3  0  0  0  0  0  0
  188.4250  177.9110  141.0460 C   0  0  0  0  0  0  0  0  0  0  0  0
  180.4720  177.5570  139.2440 C   0  0  0  0  0  3  0  0  0  0  0  0
  181.4810  178.4950  139.5270 C   0  0  0  0  0  0  0  0  0  0  0  0
  183.0590  176.6570  139.7590 C   0  0  0  0  0  3  0  0  0  0  0  0
  182.7800  178.0360  139.8180 C   0  0  0  0  0  0  0  0  0  0  0  0
  180.7570  176.1860  139.2130 C   0  0  0  0  0  3  0  0  0  0  0  0
  182.0530  175.7350  139.4620 C   0  0  0  0  0  3  0  0  0  0  0  0
  181.2260  179.8790  139.5020 O   0  0  0  0  0  0  0  0  0  0  0  0
  181.1750  179.8770  137.0740 C   0  0  0  0  0  1  0  0  0  0  0  0
  179.3690  180.9070  138.3860 C   0  0  0  0  0  1  0  0  0  0  0  0
  181.5740  181.9870  138.3420 C   0  0  0  0  0  1  0  0  0  0  0  0
  180.8600  180.6430  138.3470 C   0  0  0  0  0  0  0  0  0  0  0  0
  183.2980  178.6940  142.5470 C   0  0  2  0  0  3  0  0  0  0  0  0
  180.4770  177.8370  142.6740 O   0  0  0  0  0  0  0  0  0  0  0  0
  180.7660  179.0420  142.9090 C   0  0  0  0  0  0  0  0  0  0  0  0
  179.6770  179.9980  143.2280 C   0  0  0  0  0  1  0  0  0  0  0  0
  182.1250  179.5050  142.8900 N   0  0  0  0  0  2  0  0  0  0  0  0
  185.3750  178.8340  143.7970 O   0  0  0  0  0  1  0  0  0  0  0  0
  183.3520  178.6320  145.0570 C   0  0  0  0  0  1  0  0  0  0  0  0
  184.0990  178.2610  143.7850 C   0  0  1  0  0  3  0  0  0  0  0  0
  1  9  1  6  0  0  0
  1  2  1  0  0  0  0
  2 23  1  1  0  0  0
  3 15  1  1  0  0  0
  3  1  1  0  0  0  0
  3  2  1  0  0  0  0
  4  9  1  0  0  0  0
  5  4  1  0  0  0  0
  5 10  2  0  0  0  0
  6  4  2  0  0  0  0
  9  7  1  1  0  0  0
 10 11  1  0  0  0  0
 11  7  2  0  0  0  0
 11  8  1  0  0  0  0
 12 13  1  0  0  0  0
 13 15  2  0  0  0  0
 14 15  1  0  0  0  0
 16 12  2  0  0  0  0
 16 17  1  0  0  0  0
 17 14  2  0  0  0  0
 18 13  1  0  0  0  0
 19 22  1  0  0  0  0
 21 22  1  0  0  0  0
 22 20  1  0  0  0  0
 22 18  1  0  0  0  0
 23 27  1  1  0  0  0
 23 30  1  0  0  0  0
 24 25  2  0  0  0  0
 25 26  1  0  0  0  0
 27 25  1  0  0  0  0
 30 28  1  0  0  0  0
 30 29  1  1  0  0  0
M  END
>  <MODEL>
8

>  <REMARK>
 VINA RESULT:      -5.1      2.047      5.009
  Name = 
  7 active torsions:
  status: ('A' for Active; 'I' for Inactive)
    1  A    between atoms: N_1  and  C_22
    2  A    between atoms: C_4  and  C_23
    3  A    between atoms: C_5  and  C_12
    4  A    between atoms: C_8  and  O_13
    5  A    between atoms: O_13  and  C_30
    6  A    between atoms: C_23  and  N_25
    7  A    between atoms: C_23  and  C_26
                            x       y       z     vdW  Elec       q    Type
                         _______ _______ _______ _____ _____    ______ ____

>  <TORSDO>
F 7

$$$$
=
 OpenBabel11052412203D

 30 32  0  0  1  0  0  0  0  0999 V2000
  182.7280  178.8900  139.5630 N   0  0  1  0  0  0  0  0  0  0  0  0
  183.3220  178.3600  138.3140 C   0  0  1  0  0  3  0  0  0  0  0  0
  184.0570  179.3670  139.1180 C   0  0  2  0  0  3  0  0  0  0  0  0
  180.4920  179.6760  140.0000 C   0  0  0  0  0  0  0  0  0  0  0  0
  179.2950  179.2450  139.2510 C   0  0  0  0  0  3  0  0  0  0  0  0
  180.4490  179.7490  141.2590 O   0  0  0  0  0  0  0  0  0  0  0  0
  181.5630  180.1580  137.7860 C   0  0  0  0  0  3  0  0  0  0  0  0
  180.3150  180.0460  135.6880 C   0  0  0  0  0  1  0  0  0  0  0  0
  181.7850  179.9710  139.2800 C   0  0  2  0  0  3  0  0  0  0  0  0
  179.2740  179.3170  137.9140 C   0  0  0  0  0  3  0  0  0  0  0  0
  180.4280  179.8320  137.1620 C   0  0  0  0  0  0  0  0  0  0  0  0
  187.4490  178.2340  140.4560 C   0  0  0  0  0  3  0  0  0  0  0  0
  186.4550  178.6640  139.5600 C   0  0  0  0  0  0  0  0  0  0  0  0
  184.8620  178.6640  141.4010 C   0  0  0  0  0  3  0  0  0  0  0  0
  185.1410  178.8500  140.0330 C   0  0  0  0  0  0  0  0  0  0  0  0
  187.1530  178.0280  141.8090 C   0  0  0  0  0  3  0  0  0  0  0  0
  185.8610  178.2500  142.2840 C   0  0  0  0  0  3  0  0  0  0  0  0
  186.7490  178.9360  138.2100 O   0  0  0  0  0  0  0  0  0  0  0  0
  189.0530  178.9800  137.4460 C   0  0  0  0  0  1  0  0  0  0  0  0
  187.9220  176.8600  137.9680 C   0  0  0  0  0  1  0  0  0  0  0  0
  187.2350  178.1160  135.9740 C   0  0  0  0  0  1  0  0  0  0  0  0
  187.7200  178.2530  137.4090 C   0  0  0  0  0  0  0  0  0  0  0  0
  183.7140  176.8900  138.5280 C   0  0  2  0  0  3  0  0  0  0  0  0
  184.4130  174.0780  137.9690 O   0  0  0  0  0  0  0  0  0  0  0  0
  184.8070  174.9790  137.1800 C   0  0  0  0  0  0  0  0  0  0  0  0
  185.6260  174.6020  136.0010 C   0  0  0  0  0  1  0  0  0  0  0  0
  184.4710  176.3600  137.3890 N   0  0  0  0  0  2  0  0  0  0  0  0
  182.0930  176.2430  140.2160 O   0  0  0  0  0  1  0  0  0  0  0  0
  181.3630  176.2310  137.9380 C   0  0  0  0  0  1  0  0  0  0  0  0
  182.5160  176.0040  138.9040 C   0  0  1  0  0  3  0  0  0  0  0  0
  1  9  1  6  0  0  0
  2 23  1  1  0  0  0
  2  3  1  0  0  0  0
  2  1  1  0  0  0  0
  3  1  1  0  0  0  0
  3 15  1  1  0  0  0
  4  6  2  0  0  0  0
  5  4  1  0  0  0  0
  8 11  1  0  0  0  0
  9  7  1  6  0  0  0
  9  4  1  0  0  0  0
 10  5  2  0  0  0  0
 11  7  2  0  0  0  0
 11 10  1  0  0  0  0
 12 16  1  0  0  0  0
 13 15  1  0  0  0  0
 13 12  2  0  0  0  0
 14 17  1  0  0  0  0
 15 14  2  0  0  0  0
 16 17  2  0  0  0  0
 18 13  1  0  0  0  0
 21 22  1  0  0  0  0
 22 19  1  0  0  0  0
 22 20  1  0  0  0  0
 22 18  1  0  0  0  0
 23 27  1  6  0  0  0
 23 30  1  0  0  0  0
 25 27  1  0  0  0  0
 25 24  2  0  0  0  0
 26 25  1  0  0  0  0
 30 29  1  6  0  0  0
 30 28  1  0  0  0  0
M  END
>  <MODEL>
9

>  <REMARK>
 VINA RESULT:      -5.0      1.808      5.275
  Name = 
  7 active torsions:
  status: ('A' for Active; 'I' for Inactive)
    1  A    between atoms: N_1  and  C_22
    2  A    between atoms: C_4  and  C_23
    3  A    between atoms: C_5  and  C_12
    4  A    between atoms: C_8  and  O_13
    5  A    between atoms: O_13  and  C_30
    6  A    between atoms: C_23  and  N_25
    7  A    between atoms: C_23  and  C_26
                            x       y       z     vdW  Elec       q    Type
                         _______ _______ _______ _____ _____    ______ ____

>  <TORSDO>
F 7

$$$$
