=
 OpenBabel11052413343D

 28 32  0  0  1  0  0  0  0  0999 V2000
  182.8680  178.7260  141.4600 C   0  0  1  0  0  3  0  0  0  0  0  0
  188.1620  178.5720  140.5940 C   0  0  0  0  0  3  0  0  0  0  0  0
  185.6810  179.3680  145.5360 C   0  0  0  0  0  1  0  0  0  0  0  0
  188.7220  177.0510  142.4040 C   0  0  0  0  0  0  0  0  0  0  0  0
  186.6190  178.4810  142.5820 C   0  0  1  0  0  3  0  0  0  0  0  0
  190.1650  177.2230  140.4620 C   0  0  0  0  0  0  0  0  0  0  0  0
  187.8360  177.9930  141.8290 C   0  0  0  0  0  0  0  0  0  0  0  0
  187.5180  177.2390  144.5980 C   0  0  0  0  0  2  0  0  0  0  0  0
  189.8680  176.6590  141.7050 C   0  0  0  0  0  3  0  0  0  0  0  0
  184.0330  178.8300  143.7520 C   0  0  2  0  0  3  0  0  0  0  0  0
  185.3950  178.6470  141.6610 C   0  0  0  0  0  2  0  0  0  0  0  0
  188.4280  176.3890  143.7200 C   0  0  0  0  0  2  0  0  0  0  0  0
  181.6110  179.3040  143.5790 C   0  0  0  0  0  2  0  0  0  0  0  0
  185.1530  178.2560  144.6390 C   0  0  1  0  0  3  0  0  0  0  0  0
  182.6810  178.6280  144.4170 C   0  0  0  0  0  2  0  0  0  0  0  0
  191.3070  176.8310  139.7780 O   0  0  0  0  0  1  0  0  0  0  0  0
  189.3160  178.1840  139.9100 C   0  0  0  0  0  3  0  0  0  0  0  0
  186.2740  177.6110  143.8000 C   0  0  1  0  0  3  0  0  0  0  0  0
  181.5400  178.6290  142.2200 C   0  0  0  0  0  2  0  0  0  0  0  0
  184.0630  178.2530  142.3190 C   0  0  2  0  0  3  0  0  0  0  0  0
  182.7040  177.9540  140.1370 C   0  0  1  0  0  3  0  0  0  0  0  0
  181.3890  177.2550  139.9430 C   0  0  0  0  0  3  0  0  0  0  0  0
  180.5270  179.0390  138.4740 C   0  0  0  0  0  0  0  0  0  0  0  0
  183.2730  178.8300  138.6350 S   0  0  0  0  0  0  0  0  0  0  0  0
  179.2150  177.0310  139.0960 O   0  0  0  0  0  1  0  0  0  0  0  0
  180.4040  177.7450  139.1840 C   0  0  0  0  0  0  0  0  0  0  0  0
  179.2970  179.7550  138.0360 C   0  0  0  0  0  1  0  0  0  0  0  0
  181.7030  179.6380  138.2900 C   0  0  0  0  0  3  0  0  0  0  0  0
  1 19  1  1  0  0  0
  1 20  1  0  0  0  0
  2  7  1  0  0  0  0
  4 12  1  0  0  0  0
  5 11  1  6  0  0  0
  5 18  1  0  0  0  0
  6  9  2  0  0  0  0
  7  4  2  0  0  0  0
  7  5  1  0  0  0  0
  9  4  1  0  0  0  0
 10 15  1  1  0  0  0
 10 14  1  0  0  0  0
 12  8  1  0  0  0  0
 13 15  1  0  0  0  0
 14  3  1  6  0  0  0
 16  6  1  0  0  0  0
 17  6  1  0  0  0  0
 17  2  2  0  0  0  0
 18  8  1  1  0  0  0
 18 14  1  0  0  0  0
 19 13  1  0  0  0  0
 20 11  1  6  0  0  0
 20 10  1  0  0  0  0
 21 22  1  6  0  0  0
 21  1  1  0  0  0  0
 23 26  1  0  0  0  0
 24 21  1  0  0  0  0
 25 26  1  0  0  0  0
 26 22  2  0  0  0  0
 27 23  1  0  0  0  0
 28 23  2  0  0  0  0
 28 24  1  0  0  0  0
M  END
>  <MODEL>
1

>  <REMARK>
 VINA RESULT:      -9.5      0.000      0.000
  Name = 
  1 active torsions:
  status: ('A' for Active; 'I' for Inactive)
    1  A    between atoms: C_1  and  C_2
                            x       y       z     vdW  Elec       q    Type
                         _______ _______ _______ _____ _____    ______ ____

>  <TORSDO>
F 1

$$$$
=
 OpenBabel11052413343D

 28 32  0  0  1  0  0  0  0  0999 V2000
  190.4630  177.0260  143.0630 C   0  0  1  0  0  3  0  0  0  0  0  0
  185.1390  177.6980  143.1440 C   0  0  0  0  0  3  0  0  0  0  0  0
  188.3060  176.1460  147.4790 C   0  0  0  0  0  1  0  0  0  0  0  0
  185.0340  179.0410  145.1660 C   0  0  0  0  0  0  0  0  0  0  0  0
  186.9880  177.4380  144.8350 C   0  0  1  0  0  3  0  0  0  0  0  0
  183.2840  179.2090  143.4960 C   0  0  0  0  0  0  0  0  0  0  0  0
  185.7180  178.1040  144.3560 C   0  0  0  0  0  0  0  0  0  0  0  0
  186.5560  178.5070  147.0890 C   0  0  0  0  0  2  0  0  0  0  0  0
  183.8330  179.6000  144.7190 C   0  0  0  0  0  3  0  0  0  0  0  0
  189.6840  176.7530  145.4990 C   0  0  2  0  0  3  0  0  0  0  0  0
  188.0230  177.2820  143.7040 C   0  0  0  0  0  2  0  0  0  0  0  0
  185.6020  179.5230  146.4720 C   0  0  0  0  0  2  0  0  0  0  0  0
  191.9880  176.1100  144.8640 C   0  0  0  0  0  2  0  0  0  0  0  0
  188.7850  177.3080  146.6190 C   0  0  1  0  0  3  0  0  0  0  0  0
  191.1400  176.7690  145.9370 C   0  0  0  0  0  2  0  0  0  0  0  0
  182.0890  179.7660  143.0620 O   0  0  0  0  0  1  0  0  0  0  0  0
  183.9330  178.2530  142.7120 C   0  0  0  0  0  3  0  0  0  0  0  0
  187.6110  178.1320  146.0550 C   0  0  1  0  0  3  0  0  0  0  0  0
  191.9010  176.9290  143.5870 C   0  0  0  0  0  2  0  0  0  0  0  0
  189.4770  177.4910  144.1580 C   0  0  2  0  0  3  0  0  0  0  0  0
  190.4840  177.9290  141.8150 C   0  0  1  0  0  3  0  0  0  0  0  0
  191.7290  177.8650  140.9780 C   0  0  0  0  0  3  0  0  0  0  0  0
  190.6750  176.3780  139.3160 C   0  0  0  0  0  0  0  0  0  0  0  0
  188.9530  177.9280  140.8120 S   0  0  0  0  0  0  0  0  0  0  0  0
  193.0250  177.1510  139.1600 O   0  0  0  0  0  1  0  0  0  0  0  0
  191.8140  177.1650  139.8420 C   0  0  0  0  0  0  0  0  0  0  0  0
  190.9310  175.2800  138.3430 C   0  0  0  0  0  1  0  0  0  0  0  0
  189.4290  176.5540  139.7530 C   0  0  0  0  0  3  0  0  0  0  0  0
  1 19  1  1  0  0  0
  1 20  1  0  0  0  0
  2  7  1  0  0  0  0
  4 12  1  0  0  0  0
  5 11  1  6  0  0  0
  5 18  1  0  0  0  0
  6  9  2  0  0  0  0
  7  5  1  0  0  0  0
  7  4  2  0  0  0  0
  9  4  1  0  0  0  0
 10 15  1  1  0  0  0
 10 14  1  0  0  0  0
 12  8  1  0  0  0  0
 13 15  1  0  0  0  0
 14  3  1  6  0  0  0
 16  6  1  0  0  0  0
 17  2  2  0  0  0  0
 17  6  1  0  0  0  0
 18 14  1  0  0  0  0
 18  8  1  1  0  0  0
 19 13  1  0  0  0  0
 20 11  1  6  0  0  0
 20 10  1  0  0  0  0
 21 22  1  6  0  0  0
 21  1  1  0  0  0  0
 23 28  2  0  0  0  0
 23 26  1  0  0  0  0
 24 21  1  0  0  0  0
 25 26  1  0  0  0  0
 26 22  2  0  0  0  0
 27 23  1  0  0  0  0
 28 24  1  0  0  0  0
M  END
>  <MODEL>
2

>  <REMARK>
 VINA RESULT:      -9.0      3.077      7.841
  Name = 
  1 active torsions:
  status: ('A' for Active; 'I' for Inactive)
    1  A    between atoms: C_1  and  C_2
                            x       y       z     vdW  Elec       q    Type
                         _______ _______ _______ _____ _____    ______ ____

>  <TORSDO>
F 1

$$$$
=
 OpenBabel11052413343D

 28 32  0  0  1  0  0  0  0  0999 V2000
  182.9270  177.7610  140.1840 C   0  0  1  0  0  3  0  0  0  0  0  0
  188.1530  178.0780  141.3650 C   0  0  0  0  0  3  0  0  0  0  0  0
  183.9760  180.1670  144.4320 C   0  0  0  0  0  1  0  0  0  0  0  0
  187.9830  177.3720  143.6830 C   0  0  0  0  0  0  0  0  0  0  0  0
  185.9690  178.4590  142.5600 C   0  0  1  0  0  3  0  0  0  0  0  0
  190.0570  177.0680  142.4620 C   0  0  0  0  0  0  0  0  0  0  0  0
  187.3820  177.9200  142.5260 C   0  0  0  0  0  0  0  0  0  0  0  0
  186.0350  178.1320  145.0710 C   0  0  0  0  0  2  0  0  0  0  0  0
  189.3100  176.9320  143.6340 C   0  0  0  0  0  3  0  0  0  0  0  0
  183.1320  178.8150  142.5210 C   0  0  2  0  0  3  0  0  0  0  0  0
  185.1880  178.1190  141.2760 C   0  0  0  0  0  2  0  0  0  0  0  0
  187.2120  177.1710  144.9570 C   0  0  0  0  0  2  0  0  0  0  0  0
  180.9570  178.8480  141.3420 C   0  0  0  0  0  2  0  0  0  0  0  0
  183.8310  178.7500  143.8920 C   0  0  1  0  0  3  0  0  0  0  0  0
  181.6280  178.6640  142.6910 C   0  0  0  0  0  2  0  0  0  0  0  0
  191.3740  176.6320  142.4250 O   0  0  0  0  0  1  0  0  0  0  0  0
  189.4810  177.6470  141.3300 C   0  0  0  0  0  3  0  0  0  0  0  0
  185.1880  178.0230  143.8090 C   0  0  1  0  0  3  0  0  0  0  0  0
  181.4100  177.7430  140.4030 C   0  0  0  0  0  2  0  0  0  0  0  0
  183.7060  177.7900  141.5190 C   0  0  2  0  0  3  0  0  0  0  0  0
  183.2800  176.5650  139.2800 C   0  0  1  0  0  3  0  0  0  0  0  0
  182.2410  175.4850  139.1830 C   0  0  0  0  0  3  0  0  0  0  0  0
  181.4280  176.3010  137.0020 C   0  0  0  0  0  0  0  0  0  0  0  0
  184.0180  176.9890  137.6590 S   0  0  0  0  0  0  0  0  0  0  0  0
  180.4600  174.3430  138.1730 O   0  0  0  0  0  1  0  0  0  0  0  0
  181.4040  175.3630  138.1470 C   0  0  0  0  0  0  0  0  0  0  0  0
  180.2310  176.4190  136.1270 C   0  0  0  0  0  1  0  0  0  0  0  0
  182.4560  177.1190  136.7770 C   0  0  0  0  0  3  0  0  0  0  0  0
  1 19  1  1  0  0  0
  1 20  1  0  0  0  0
  2  7  1  0  0  0  0
  4 12  1  0  0  0  0
  5 11  1  6  0  0  0
  5 18  1  0  0  0  0
  6  9  2  0  0  0  0
  7  5  1  0  0  0  0
  7  4  2  0  0  0  0
  9  4  1  0  0  0  0
 10 15  1  1  0  0  0
 10 14  1  0  0  0  0
 12  8  1  0  0  0  0
 13 15  1  0  0  0  0
 14  3  1  6  0  0  0
 16  6  1  0  0  0  0
 17  2  2  0  0  0  0
 17  6  1  0  0  0  0
 18 14  1  0  0  0  0
 18  8  1  1  0  0  0
 19 13  1  0  0  0  0
 20 11  1  6  0  0  0
 20 10  1  0  0  0  0
 21 22  1  6  0  0  0
 21  1  1  0  0  0  0
 23 26  1  0  0  0  0
 24 21  1  0  0  0  0
 26 25  1  0  0  0  0
 26 22  2  0  0  0  0
 27 23  1  0  0  0  0
 28 23  2  0  0  0  0
 28 24  1  0  0  0  0
M  END
>  <MODEL>
3

>  <REMARK>
 VINA RESULT:      -8.2      1.675      2.091
  Name = 
  1 active torsions:
  status: ('A' for Active; 'I' for Inactive)
    1  A    between atoms: C_1  and  C_2
                            x       y       z     vdW  Elec       q    Type
                         _______ _______ _______ _____ _____    ______ ____

>  <TORSDO>
F 1

$$$$
=
 OpenBabel11052413343D

 28 32  0  0  1  0  0  0  0  0999 V2000
  186.0360  178.2920  139.7390 C   0  0  1  0  0  3  0  0  0  0  0  0
  187.1200  176.9960  144.8330 C   0  0  0  0  0  3  0  0  0  0  0  0
  190.6360  176.5090  140.5170 C   0  0  0  0  0  1  0  0  0  0  0  0
  189.2660  178.1250  144.9830 C   0  0  0  0  0  0  0  0  0  0  0  0
  188.4220  177.3490  142.7060 C   0  0  1  0  0  3  0  0  0  0  0  0
  187.9560  177.7190  146.9840 C   0  0  0  0  0  0  0  0  0  0  0  0
  188.2500  177.5320  144.1970 C   0  0  0  0  0  0  0  0  0  0  0  0
  190.8230  178.0950  143.0150 C   0  0  0  0  0  2  0  0  0  0  0  0
  189.1000  178.2310  146.3680 C   0  0  0  0  0  3  0  0  0  0  0  0
  188.5260  177.6550  139.8650 C   0  0  2  0  0  3  0  0  0  0  0  0
  187.1180  177.6240  141.9340 C   0  0  0  0  0  2  0  0  0  0  0  0
  190.4980  178.7230  144.3650 C   0  0  0  0  0  2  0  0  0  0  0  0
  187.4310  177.9130  137.6610 C   0  0  0  0  0  2  0  0  0  0  0  0
  189.8400  177.8010  140.6530 C   0  0  1  0  0  3  0  0  0  0  0  0
  188.7020  178.1760  138.4480 C   0  0  0  0  0  2  0  0  0  0  0  0
  187.8020  177.8260  148.3590 O   0  0  0  0  0  1  0  0  0  0  0  0
  186.9690  177.0950  146.2170 C   0  0  0  0  0  3  0  0  0  0  0  0
  189.5850  178.1690  142.1280 C   0  0  1  0  0  3  0  0  0  0  0  0
  186.2880  178.6980  138.2820 C   0  0  0  0  0  2  0  0  0  0  0  0
  187.3320  178.3240  140.5810 C   0  0  2  0  0  3  0  0  0  0  0  0
  184.9130  179.1930  140.2850 C   0  0  1  0  0  3  0  0  0  0  0  0
  184.0170  179.8230  139.2570 C   0  0  0  0  0  3  0  0  0  0  0  0
  182.2330  178.1610  139.6250 C   0  0  0  0  0  0  0  0  0  0  0  0
  183.9910  178.5260  141.7190 S   0  0  0  0  0  0  0  0  0  0  0  0
  182.0650  179.9990  137.9720 O   0  0  0  0  0  1  0  0  0  0  0  0
  182.7990  179.3570  138.9620 C   0  0  0  0  0  0  0  0  0  0  0  0
  181.1190  177.4200  138.9730 C   0  0  0  0  0  1  0  0  0  0  0  0
  182.7460  177.6630  140.7490 C   0  0  0  0  0  3  0  0  0  0  0  0
  1 19  1  6  0  0  0
  1 21  1  0  0  0  0
  1 20  1  0  0  0  0
  2 17  1  0  0  0  0
  4  9  2  0  0  0  0
  5 11  1  6  0  0  0
  5  7  1  0  0  0  0
  6 16  1  0  0  0  0
  7  2  2  0  0  0  0
  7  4  1  0  0  0  0
  8 12  1  0  0  0  0
  9  6  1  0  0  0  0
 10 15  1  6  0  0  0
 10 20  1  0  0  0  0
 10 14  1  0  0  0  0
 12  4  1  0  0  0  0
 13 19  1  0  0  0  0
 13 15  1  0  0  0  0
 14  3  1  1  0  0  0
 14 18  1  0  0  0  0
 17  6  2  0  0  0  0
 18  5  1  0  0  0  0
 18  8  1  1  0  0  0
 20 11  1  1  0  0  0
 21 22  1  6  0  0  0
 21 24  1  0  0  0  0
 23 28  2  0  0  0  0
 25 26  1  0  0  0  0
 26 22  2  0  0  0  0
 26 23  1  0  0  0  0
 27 23  1  0  0  0  0
 28 24  1  0  0  0  0
M  END
>  <MODEL>
4

>  <REMARK>
 VINA RESULT:      -8.0      2.718      5.042
  Name = 
  1 active torsions:
  status: ('A' for Active; 'I' for Inactive)
    1  A    between atoms: C_1  and  C_2
                            x       y       z     vdW  Elec       q    Type
                         _______ _______ _______ _____ _____    ______ ____

>  <TORSDO>
F 1

$$$$
=
 OpenBabel11052413343D

 28 32  0  0  1  0  0  0  0  0999 V2000
  187.5640  178.0930  142.8600 C   0  0  1  0  0  3  0  0  0  0  0  0
  183.6790  179.3200  139.3670 C   0  0  0  0  0  3  0  0  0  0  0  0
  189.1280  178.9350  138.1930 C   0  0  0  0  0  1  0  0  0  0  0  0
  184.3560  177.7860  137.6090 C   0  0  0  0  0  0  0  0  0  0  0  0
  186.1010  178.6370  139.2620 C   0  0  1  0  0  3  0  0  0  0  0  0
  182.0490  178.5180  137.7700 C   0  0  0  0  0  0  0  0  0  0  0  0
  184.6770  178.5450  138.7590 C   0  0  0  0  0  0  0  0  0  0  0  0
  186.7970  177.4320  137.1460 C   0  0  0  0  0  2  0  0  0  0  0  0
  183.0400  177.7640  137.1370 C   0  0  0  0  0  3  0  0  0  0  0  0
  188.6330  178.2180  140.5230 C   0  0  2  0  0  3  0  0  0  0  0  0
  186.1760  178.6040  140.8000 C   0  0  0  0  0  2  0  0  0  0  0  0
  185.3770  176.9300  136.9140 C   0  0  0  0  0  2  0  0  0  0  0  0
  190.0740  178.1090  142.5310 C   0  0  0  0  0  2  0  0  0  0  0  0
  188.4960  177.8360  139.0370 C   0  0  1  0  0  3  0  0  0  0  0  0
  189.9060  177.6220  141.1040 C   0  0  0  0  0  2  0  0  0  0  0  0
  180.7470  178.4920  137.2920 O   0  0  0  0  0  1  0  0  0  0  0  0
  182.3700  179.3010  138.8810 C   0  0  0  0  0  3  0  0  0  0  0  0
  187.0280  177.5790  138.6450 C   0  0  1  0  0  3  0  0  0  0  0  0
  188.9200  177.5930  143.3740 C   0  0  0  0  0  2  0  0  0  0  0  0
  187.3860  177.8290  141.3480 C   0  0  2  0  0  3  0  0  0  0  0  0
  186.4710  177.4570  143.7390 C   0  0  1  0  0  3  0  0  0  0  0  0
  186.9180  176.9500  145.0800 C   0  0  0  0  0  3  0  0  0  0  0  0
  186.0530  178.9410  146.2500 C   0  0  0  0  0  0  0  0  0  0  0  0
  184.8870  178.3710  143.8170 S   0  0  0  0  0  0  0  0  0  0  0  0
  187.2050  177.0740  147.4030 O   0  0  0  0  0  1  0  0  0  0  0  0
  186.7240  177.6220  146.2200 C   0  0  0  0  0  0  0  0  0  0  0  0
  186.2600  179.8410  147.4180 C   0  0  0  0  0  1  0  0  0  0  0  0
  185.3380  179.3980  145.2230 C   0  0  0  0  0  3  0  0  0  0  0  0
  1 19  1  1  0  0  0
  1 21  1  0  0  0  0
  4  7  1  0  0  0  0
  5 11  1  1  0  0  0
  6 17  2  0  0  0  0
  7  5  1  0  0  0  0
  7  2  2  0  0  0  0
  9  4  2  0  0  0  0
  9  6  1  0  0  0  0
 10 15  1  1  0  0  0
 10 20  1  0  0  0  0
 12  8  1  0  0  0  0
 12  4  1  0  0  0  0
 13 19  1  0  0  0  0
 14  3  1  6  0  0  0
 14 10  1  0  0  0  0
 15 13  1  0  0  0  0
 16  6  1  0  0  0  0
 17  2  1  0  0  0  0
 18  8  1  6  0  0  0
 18 14  1  0  0  0  0
 18  5  1  0  0  0  0
 20 11  1  6  0  0  0
 20  1  1  0  0  0  0
 21 24  1  0  0  0  0
 21 22  1  1  0  0  0
 22 26  2  0  0  0  0
 23 27  1  0  0  0  0
 24 28  1  0  0  0  0
 26 23  1  0  0  0  0
 26 25  1  0  0  0  0
 28 23  2  0  0  0  0
M  END
>  <MODEL>
5

>  <REMARK>
 VINA RESULT:      -7.2      2.725      7.437
  Name = 
  1 active torsions:
  status: ('A' for Active; 'I' for Inactive)
    1  A    between atoms: C_1  and  C_2
                            x       y       z     vdW  Elec       q    Type
                         _______ _______ _______ _____ _____    ______ ____

>  <TORSDO>
F 1

$$$$
=
 OpenBabel11052413343D

 28 32  0  0  1  0  0  0  0  0999 V2000
  190.8650  176.3690  144.9890 C   0  0  1  0  0  3  0  0  0  0  0  0
  185.8650  177.1850  143.2190 C   0  0  0  0  0  3  0  0  0  0  0  0
  187.4050  176.7360  148.5710 C   0  0  0  0  0  1  0  0  0  0  0  0
  185.3070  179.0130  144.7180 C   0  0  0  0  0  0  0  0  0  0  0  0
  187.0850  177.3250  145.4170 C   0  0  1  0  0  3  0  0  0  0  0  0
  184.1630  178.7850  142.5910 C   0  0  0  0  0  0  0  0  0  0  0  0
  186.0960  177.8780  144.4160 C   0  0  0  0  0  0  0  0  0  0  0  0
  186.1180  178.9600  147.0930 C   0  0  0  0  0  2  0  0  0  0  0  0
  184.3610  179.4680  143.7930 C   0  0  0  0  0  3  0  0  0  0  0  0
  189.3690  176.7650  147.0440 C   0  0  2  0  0  3  0  0  0  0  0  0
  188.3870  176.8510  144.7440 C   0  0  0  0  0  2  0  0  0  0  0  0
  185.5070  179.8040  145.9800 C   0  0  0  0  0  2  0  0  0  0  0  0
  191.6740  175.9160  147.3440 C   0  0  0  0  0  2  0  0  0  0  0  0
  188.2430  177.6190  147.6540 C   0  0  1  0  0  3  0  0  0  0  0  0
  190.6210  176.8550  147.9020 C   0  0  0  0  0  2  0  0  0  0  0  0
  183.2200  179.2410  141.6810 O   0  0  0  0  0  1  0  0  0  0  0  0
  184.9100  177.6400  142.3070 C   0  0  0  0  0  3  0  0  0  0  0  0
  187.3860  178.2980  146.5670 C   0  0  1  0  0  3  0  0  0  0  0  0
  192.0610  176.3730  145.9470 C   0  0  0  0  0  2  0  0  0  0  0  0
  189.6530  177.1310  145.5700 C   0  0  2  0  0  3  0  0  0  0  0  0
  191.3550  176.9130  143.6330 C   0  0  1  0  0  3  0  0  0  0  0  0
  190.6280  176.4060  142.4210 C   0  0  0  0  0  3  0  0  0  0  0  0
  189.2740  178.4600  142.2330 C   0  0  0  0  0  0  0  0  0  0  0  0
  191.6720  178.7140  143.5710 S   0  0  0  0  0  0  0  0  0  0  0  0
  189.0550  176.5350  140.6870 O   0  0  0  0  0  1  0  0  0  0  0  0
  189.6870  177.1110  141.7830 C   0  0  0  0  0  0  0  0  0  0  0  0
  187.9550  179.0030  141.8060 C   0  0  0  0  0  1  0  0  0  0  0  0
  190.0030  179.1770  143.0870 C   0  0  0  0  0  3  0  0  0  0  0  0
  1 20  1  0  0  0  0
  1 19  1  1  0  0  0
  2  7  1  0  0  0  0
  4 12  1  0  0  0  0
  5 11  1  6  0  0  0
  5 18  1  0  0  0  0
  6  9  2  0  0  0  0
  7  4  2  0  0  0  0
  7  5  1  0  0  0  0
  9  4  1  0  0  0  0
 10 14  1  0  0  0  0
 10 15  1  1  0  0  0
 12  8  1  0  0  0  0
 13 15  1  0  0  0  0
 14  3  1  6  0  0  0
 16  6  1  0  0  0  0
 17  6  1  0  0  0  0
 17  2  2  0  0  0  0
 18  8  1  1  0  0  0
 18 14  1  0  0  0  0
 19 13  1  0  0  0  0
 20 11  1  6  0  0  0
 20 10  1  0  0  0  0
 21 22  1  6  0  0  0
 21  1  1  0  0  0  0
 23 28  2  0  0  0  0
 24 21  1  0  0  0  0
 25 26  1  0  0  0  0
 26 23  1  0  0  0  0
 26 22  2  0  0  0  0
 27 23  1  0  0  0  0
 28 24  1  0  0  0  0
M  END
>  <MODEL>
6

>  <REMARK>
 VINA RESULT:      -7.2      3.400      7.537
  Name = 
  1 active torsions:
  status: ('A' for Active; 'I' for Inactive)
    1  A    between atoms: C_1  and  C_2
                            x       y       z     vdW  Elec       q    Type
                         _______ _______ _______ _____ _____    ______ ____

>  <TORSDO>
F 1

$$$$
=
 OpenBabel11052413343D

 28 32  0  0  1  0  0  0  0  0999 V2000
  189.7530  177.2180  139.9910 C   0  0  1  0  0  3  0  0  0  0  0  0
  184.8160  179.0780  139.0070 C   0  0  0  0  0  3  0  0  0  0  0  0
  188.6330  177.7360  135.1530 C   0  0  0  0  0  1  0  0  0  0  0  0
  184.2030  177.4350  137.3250 C   0  0  0  0  0  0  0  0  0  0  0  0
  186.6650  177.9810  137.6960 C   0  0  1  0  0  3  0  0  0  0  0  0
  182.4860  178.5600  138.6180 C   0  0  0  0  0  0  0  0  0  0  0  0
  185.2020  178.1350  138.0430 C   0  0  0  0  0  0  0  0  0  0  0  0
  185.9210  176.6560  135.6700 C   0  0  0  0  0  2  0  0  0  0  0  0
  182.8540  177.6400  137.6340 C   0  0  0  0  0  3  0  0  0  0  0  0
  189.3860  177.1360  137.4460 C   0  0  2  0  0  3  0  0  0  0  0  0
  187.5580  177.9480  138.9510 C   0  0  0  0  0  2  0  0  0  0  0  0
  184.5480  176.4080  136.2840 C   0  0  0  0  0  2  0  0  0  0  0  0
  191.6530  176.7930  138.3750 C   0  0  0  0  0  2  0  0  0  0  0  0
  188.4120  176.7720  136.3110 C   0  0  1  0  0  3  0  0  0  0  0  0
  190.6690  176.3310  137.3150 C   0  0  0  0  0  2  0  0  0  0  0  0
  181.1450  178.7590  138.9140 O   0  0  0  0  0  1  0  0  0  0  0  0
  183.4660  179.2840  139.2990 C   0  0  0  0  0  3  0  0  0  0  0  0
  186.9470  176.7730  136.7910 C   0  0  1  0  0  3  0  0  0  0  0  0
  191.0830  176.4940  139.7510 C   0  0  0  0  0  2  0  0  0  0  0  0
  188.7460  176.9780  138.8440 C   0  0  2  0  0  3  0  0  0  0  0  0
  189.2350  176.7910  141.3780 C   0  0  1  0  0  3  0  0  0  0  0  0
  190.2110  176.0460  142.2430 C   0  0  0  0  0  3  0  0  0  0  0  0
  190.7420  178.0550  143.5720 C   0  0  0  0  0  0  0  0  0  0  0  0
  188.2960  178.0630  142.2980 S   0  0  0  0  0  0  0  0  0  0  0  0
  191.7920  175.8450  143.9610 O   0  0  0  0  0  1  0  0  0  0  0  0
  190.8910  176.6200  143.2420 C   0  0  0  0  0  0  0  0  0  0  0  0
  191.8100  178.7430  144.3480 C   0  0  0  0  0  1  0  0  0  0  0  0
  189.7240  178.7850  143.1200 C   0  0  0  0  0  3  0  0  0  0  0  0
  1 19  1  6  0  0  0
  1 21  1  0  0  0  0
  2 17  1  0  0  0  0
  4  9  2  0  0  0  0
  4  7  1  0  0  0  0
  5  7  1  0  0  0  0
  5 11  1  1  0  0  0
  6 16  1  0  0  0  0
  6 17  2  0  0  0  0
  7  2  2  0  0  0  0
  8 12  1  0  0  0  0
  9  6  1  0  0  0  0
 10 15  1  1  0  0  0
 10 20  1  0  0  0  0
 12  4  1  0  0  0  0
 13 19  1  0  0  0  0
 14  3  1  6  0  0  0
 14 18  1  0  0  0  0
 14 10  1  0  0  0  0
 15 13  1  0  0  0  0
 18  8  1  6  0  0  0
 18  5  1  0  0  0  0
 20 11  1  1  0  0  0
 20  1  1  0  0  0  0
 21 22  1  1  0  0  0
 21 24  1  0  0  0  0
 22 26  2  0  0  0  0
 23 27  1  0  0  0  0
 24 28  1  0  0  0  0
 26 23  1  0  0  0  0
 26 25  1  0  0  0  0
 28 23  2  0  0  0  0
M  END
>  <MODEL>
7

>  <REMARK>
 VINA RESULT:      -7.2      3.251      8.882
  Name = 
  1 active torsions:
  status: ('A' for Active; 'I' for Inactive)
    1  A    between atoms: C_1  and  C_2
                            x       y       z     vdW  Elec       q    Type
                         _______ _______ _______ _____ _____    ______ ____

>  <TORSDO>
F 1

$$$$
=
 OpenBabel11052413343D

 28 32  0  0  1  0  0  0  0  0999 V2000
  189.5530  177.5110  139.9130 C   0  0  1  0  0  3  0  0  0  0  0  0
  186.4480  177.1240  144.2740 C   0  0  0  0  0  3  0  0  0  0  0  0
  191.7560  175.4240  143.8800 C   0  0  0  0  0  1  0  0  0  0  0  0
  188.0490  178.0200  145.8660 C   0  0  0  0  0  0  0  0  0  0  0  0
  188.8990  176.9110  143.7340 C   0  0  1  0  0  3  0  0  0  0  0  0
  185.6690  178.1590  146.3160 C   0  0  0  0  0  0  0  0  0  0  0  0
  187.7780  177.4000  144.6240 C   0  0  0  0  0  0  0  0  0  0  0  0
  190.4790  177.4380  145.6420 C   0  0  0  0  0  2  0  0  0  0  0  0
  186.9900  178.4130  146.6920 C   0  0  0  0  0  3  0  0  0  0  0  0
  191.0230  176.6430  141.8390 C   0  0  2  0  0  3  0  0  0  0  0  0
  188.6110  177.1710  142.2430 C   0  0  0  0  0  2  0  0  0  0  0  0
  189.4500  178.3490  146.2990 C   0  0  0  0  0  2  0  0  0  0  0  0
  191.8750  176.5840  139.5160 C   0  0  0  0  0  2  0  0  0  0  0  0
  191.3990  176.7970  143.3240 C   0  0  1  0  0  3  0  0  0  0  0  0
  192.2470  176.8550  140.9620 C   0  0  0  0  0  2  0  0  0  0  0  0
  184.6260  178.5480  147.1440 O   0  0  0  0  0  1  0  0  0  0  0  0
  185.3990  177.5080  145.1110 C   0  0  0  0  0  3  0  0  0  0  0  0
  190.2730  177.4710  144.1320 C   0  0  1  0  0  3  0  0  0  0  0  0
  190.8310  177.5950  139.0710 C   0  0  0  0  0  2  0  0  0  0  0  0
  189.8540  177.5650  141.4290 C   0  0  2  0  0  3  0  0  0  0  0  0
  188.6010  178.6180  139.4240 C   0  0  1  0  0  3  0  0  0  0  0  0
  188.7030  178.9770  137.9690 C   0  0  0  0  0  3  0  0  0  0  0  0
  186.7110  177.6450  137.3830 C   0  0  0  0  0  0  0  0  0  0  0  0
  186.8700  178.4870  140.0050 S   0  0  0  0  0  0  0  0  0  0  0  0
  188.0460  178.9080  135.7200 O   0  0  0  0  0  1  0  0  0  0  0  0
  187.8420  178.5390  137.0440 C   0  0  0  0  0  0  0  0  0  0  0  0
  186.0750  176.8300  136.3110 C   0  0  0  0  0  1  0  0  0  0  0  0
  186.2960  177.4700  138.6370 C   0  0  0  0  0  3  0  0  0  0  0  0
  1 19  1  6  0  0  0
  1 20  1  0  0  0  0
  2  7  2  0  0  0  0
  2 17  1  0  0  0  0
  4 12  1  0  0  0  0
  4  9  2  0  0  0  0
  5 11  1  6  0  0  0
  5 18  1  0  0  0  0
  5  7  1  0  0  0  0
  6  9  1  0  0  0  0
  6 16  1  0  0  0  0
  7  4  1  0  0  0  0
  8 12  1  0  0  0  0
 10 15  1  6  0  0  0
 10 14  1  0  0  0  0
 13 15  1  0  0  0  0
 14  3  1  1  0  0  0
 14 18  1  0  0  0  0
 17  6  2  0  0  0  0
 18  8  1  1  0  0  0
 19 13  1  0  0  0  0
 20 10  1  0  0  0  0
 20 11  1  1  0  0  0
 21 22  1  6  0  0  0
 21  1  1  0  0  0  0
 21 24  1  0  0  0  0
 23 28  2  0  0  0  0
 25 26  1  0  0  0  0
 26 23  1  0  0  0  0
 26 22  2  0  0  0  0
 27 23  1  0  0  0  0
 28 24  1  0  0  0  0
M  END
>  <MODEL>
8

>  <REMARK>
 VINA RESULT:      -7.1      3.993      6.806
  Name = 
  1 active torsions:
  status: ('A' for Active; 'I' for Inactive)
    1  A    between atoms: C_1  and  C_2
                            x       y       z     vdW  Elec       q    Type
                         _______ _______ _______ _____ _____    ______ ____

>  <TORSDO>
F 1

$$$$
=
 OpenBabel11052413343D

 28 32  0  0  1  0  0  0  0  0999 V2000
  188.7510  177.8420  143.0650 C   0  0  1  0  0  3  0  0  0  0  0  0
  187.3420  177.7650  137.8870 C   0  0  0  0  0  3  0  0  0  0  0  0
  192.5720  177.8780  139.8500 C   0  0  0  0  0  1  0  0  0  0  0  0
  188.8560  175.9990  137.1860 C   0  0  0  0  0  0  0  0  0  0  0  0
  189.4430  177.4080  139.2280 C   0  0  1  0  0  3  0  0  0  0  0  0
  186.8210  176.4300  135.9380 C   0  0  0  0  0  0  0  0  0  0  0  0
  188.5100  177.0200  138.1030 C   0  0  0  0  0  0  0  0  0  0  0  0
  191.1650  175.8870  138.1630 C   0  0  0  0  0  2  0  0  0  0  0  0
  187.9970  175.7000  136.1240 C   0  0  0  0  0  3  0  0  0  0  0  0
  190.9050  177.6110  141.6770 C   0  0  2  0  0  3  0  0  0  0  0  0
  188.6820  177.7130  140.5330 C   0  0  0  0  0  2  0  0  0  0  0  0
  190.0900  175.1600  137.3640 C   0  0  0  0  0  2  0  0  0  0  0  0
  191.0460  178.1270  144.0930 C   0  0  0  0  0  2  0  0  0  0  0  0
  191.5860  176.9080  140.4890 C   0  0  1  0  0  3  0  0  0  0  0  0
  191.6690  177.3300  142.9620 C   0  0  0  0  0  2  0  0  0  0  0  0
  185.9770  176.1290  134.8790 O   0  0  0  0  0  1  0  0  0  0  0  0
  186.4970  177.4670  136.8150 C   0  0  0  0  0  3  0  0  0  0  0  0
  190.5560  176.3790  139.4710 C   0  0  1  0  0  3  0  0  0  0  0  0
  189.6200  177.6510  144.3130 C   0  0  0  0  0  2  0  0  0  0  0  0
  189.4100  177.2420  141.8020 C   0  0  2  0  0  3  0  0  0  0  0  0
  187.3570  177.2660  143.3760 C   0  0  1  0  0  3  0  0  0  0  0  0
  187.1550  176.7530  144.7730 C   0  0  0  0  0  3  0  0  0  0  0  0
  185.9600  178.7940  145.4730 C   0  0  0  0  0  0  0  0  0  0  0  0
  185.9400  178.2520  142.7690 S   0  0  0  0  0  0  0  0  0  0  0  0
  186.4110  176.8880  146.9920 O   0  0  0  0  0  1  0  0  0  0  0  0
  186.5160  177.4450  145.7230 C   0  0  0  0  0  0  0  0  0  0  0  0
  185.6810  179.6960  146.6240 C   0  0  0  0  0  1  0  0  0  0  0  0
  185.7830  179.2720  144.2420 C   0  0  0  0  0  3  0  0  0  0  0  0
  1 21  1  0  0  0  0
  1 19  1  1  0  0  0
  2  7  1  0  0  0  0
  4 12  1  0  0  0  0
  4  7  2  0  0  0  0
  5 18  1  0  0  0  0
  5 11  1  1  0  0  0
  6  9  2  0  0  0  0
  6 17  1  0  0  0  0
  7  5  1  0  0  0  0
  9  4  1  0  0  0  0
 10 20  1  0  0  0  0
 10 15  1  1  0  0  0
 12  8  1  0  0  0  0
 13 19  1  0  0  0  0
 14  3  1  6  0  0  0
 14 10  1  0  0  0  0
 15 13  1  0  0  0  0
 16  6  1  0  0  0  0
 17  2  2  0  0  0  0
 18  8  1  6  0  0  0
 18 14  1  0  0  0  0
 20 11  1  6  0  0  0
 20  1  1  0  0  0  0
 21 22  1  1  0  0  0
 22 26  2  0  0  0  0
 23 26  1  0  0  0  0
 23 27  1  0  0  0  0
 24 21  1  0  0  0  0
 24 28  1  0  0  0  0
 26 25  1  0  0  0  0
 28 23  2  0  0  0  0
M  END
>  <MODEL>
9

>  <REMARK>
 VINA RESULT:      -7.1      4.128      7.139
  Name = 
  1 active torsions:
  status: ('A' for Active; 'I' for Inactive)
    1  A    between atoms: C_1  and  C_2
                            x       y       z     vdW  Elec       q    Type
                         _______ _______ _______ _____ _____    ______ ____

>  <TORSDO>
F 1

$$$$
