=
 OpenBabel11052413333D

 28 32  0  0  1  0  0  0  0  0999 V2000
  189.4430  178.2170  139.4140 C   0  0  0  0  0  0  0  0  0  0  0  0
  184.2990  178.7970  140.0520 S   0  0  0  0  0  0  0  0  0  0  0  0
  188.7230  176.9110  144.2560 C   0  0  0  0  0  1  0  0  0  0  0  0
  184.3010  178.9110  142.7020 C   0  0  1  0  0  3  0  0  0  0  0  0
  186.4910  178.5790  141.6590 N   0  0  0  0  0  0  0  0  0  0  0  0
  185.1970  179.2700  141.5680 C   0  0  1  0  0  3  0  0  0  0  0  0
  185.9450  177.6380  143.9790 C   0  0  0  0  0  2  0  0  0  0  0  0
  183.0400  178.6520  142.3980 C   0  0  0  0  0  2  0  0  0  0  0  0
  189.2230  177.9550  141.9450 C   0  0  1  0  0  3  0  0  0  0  0  0
  187.3400  178.6110  140.5360 N   0  0  0  0  0  0  0  0  0  0  0  0
  184.8610  178.7020  144.0650 C   0  0  0  0  0  2  0  0  0  0  0  0
  190.9670  176.8050  140.6960 C   0  0  0  0  0  3  0  0  0  0  0  0
  188.2240  177.5630  143.0030 C   0  0  0  0  0  0  0  0  0  0  0  0
  190.3060  176.9730  141.8060 N   0  0  0  0  0  0  0  0  0  0  0  0
  182.7120  178.8230  140.9580 C   0  0  2  0  0  3  0  0  0  0  0  0
  186.9410  177.9540  142.8890 C   0  0  0  0  0  0  0  0  0  0  0  0
  190.5830  177.5240  139.4640 C   0  0  0  0  0  3  0  0  0  0  0  0
  188.5880  178.2640  140.6130 C   0  0  0  0  0  0  0  0  0  0  0  0
  181.8140  177.6900  140.4980 C   0  0  0  0  0  2  0  0  0  0  0  0
  182.6200  176.6540  139.7380 C   0  0  0  0  0  1  0  0  0  0  0  0
  189.0460  178.9000  138.1430 C   0  0  0  0  0  2  0  0  0  0  0  0
  188.3730  177.9430  137.2170 C   0  0  0  0  0  0  0  0  0  0  0  0
  187.1010  176.1830  135.4520 C   0  0  0  0  0  0  0  0  0  0  0  0
  189.1250  177.2240  136.2810 C   0  0  0  0  0  3  0  0  0  0  0  0
  186.9830  177.7850  137.2630 C   0  0  0  0  0  3  0  0  0  0  0  0
  186.3480  176.9050  136.3820 C   0  0  0  0  0  3  0  0  0  0  0  0
  186.4850  175.3310  134.5980 F   0  0  0  0  0  0  0  0  0  0  0  0
  188.4890  176.3430  135.4000 C   0  0  0  0  0  3  0  0  0  0  0  0
  1 17  2  0  0  0  0
  1 18  1  0  0  0  0
  2 15  1  0  0  0  0
  4  8  1  6  0  0  0
  4 11  1  0  0  0  0
  5 16  1  0  0  0  0
  6  2  1  6  0  0  0
  6  5  1  0  0  0  0
  6  4  1  0  0  0  0
  7 11  1  0  0  0  0
  9 18  1  6  0  0  0
  9 13  1  0  0  0  0
 10 18  2  0  0  0  0
 10  5  1  0  0  0  0
 12 14  2  0  0  0  0
 13  3  1  0  0  0  0
 14  9  1  0  0  0  0
 15 19  1  6  0  0  0
 15  8  1  0  0  0  0
 16 13  2  0  0  0  0
 16  7  1  0  0  0  0
 17 12  1  0  0  0  0
 20 19  1  0  0  0  0
 21  1  1  0  0  0  0
 22 25  1  0  0  0  0
 22 21  1  0  0  0  0
 23 26  1  0  0  0  0
 24 22  2  0  0  0  0
 26 25  2  0  0  0  0
 27 23  1  0  0  0  0
 28 23  2  0  0  0  0
 28 24  1  0  0  0  0
M  END
>  <MODEL>
1

>  <REMARK>
 VINA RESULT:      -8.3      0.000      0.000
  Name = 
  3 active torsions:
  status: ('A' for Active; 'I' for Inactive)
    1  A    between atoms: C_1  and  C_2
    2  A    between atoms: C_2  and  C_3
    3  A    between atoms: C_12  and  C_24
                            x       y       z     vdW  Elec       q    Type
                         _______ _______ _______ _____ _____    ______ ____

>  <TORSDO>
F 3

$$$$
=
 OpenBabel11052413333D

 28 32  0  0  1  0  0  0  0  0999 V2000
  184.1730  178.3240  142.6340 C   0  0  0  0  0  0  0  0  0  0  0  0
  189.1980  177.0590  142.0500 S   0  0  0  0  0  0  0  0  0  0  0  0
  186.0740  178.9610  147.2870 C   0  0  0  0  0  1  0  0  0  0  0  0
  189.7380  176.6380  144.6130 C   0  0  1  0  0  3  0  0  0  0  0  0
  187.4480  177.3510  144.1200 N   0  0  0  0  0  0  0  0  0  0  0  0
  188.5820  176.5250  143.6820 C   0  0  1  0  0  3  0  0  0  0  0  0
  188.5980  177.9420  146.3320 C   0  0  0  0  0  2  0  0  0  0  0  0
  190.9310  176.7780  144.0580 C   0  0  0  0  0  2  0  0  0  0  0  0
  184.9550  178.2610  145.0640 C   0  0  1  0  0  3  0  0  0  0  0  0
  186.3860  177.5520  143.2180 N   0  0  0  0  0  0  0  0  0  0  0  0
  189.5130  176.7530  146.0790 C   0  0  0  0  0  2  0  0  0  0  0  0
  183.1700  179.7500  144.3440 C   0  0  0  0  0  3  0  0  0  0  0  0
  186.2000  178.4050  145.9020 C   0  0  0  0  0  0  0  0  0  0  0  0
  184.0190  179.3760  145.2580 N   0  0  0  0  0  0  0  0  0  0  0  0
  190.9200  176.7370  142.5720 C   0  0  2  0  0  3  0  0  0  0  0  0
  187.3600  177.8780  145.4690 C   0  0  0  0  0  0  0  0  0  0  0  0
  183.1790  179.1380  142.9990 C   0  0  0  0  0  3  0  0  0  0  0  0
  185.2450  178.0360  143.6020 C   0  0  0  0  0  0  0  0  0  0  0  0
  191.8540  177.8000  142.0230 C   0  0  0  0  0  2  0  0  0  0  0  0
  192.1980  177.5030  140.5760 C   0  0  0  0  0  1  0  0  0  0  0  0
  184.1910  177.7510  141.2520 C   0  0  0  0  0  2  0  0  0  0  0  0
  183.1980  178.4420  140.3800 C   0  0  0  0  0  0  0  0  0  0  0  0
  181.3460  179.7120  138.7090 C   0  0  0  0  0  0  0  0  0  0  0  0
  181.8630  178.0210  140.3660 C   0  0  0  0  0  3  0  0  0  0  0  0
  183.6050  179.4950  139.5530 C   0  0  0  0  0  3  0  0  0  0  0  0
  182.6810  180.1290  138.7190 C   0  0  0  0  0  3  0  0  0  0  0  0
  180.4510  180.3270  137.9010 F   0  0  0  0  0  0  0  0  0  0  0  0
  180.9380  178.6580  139.5310 C   0  0  0  0  0  3  0  0  0  0  0  0
  1 17  2  0  0  0  0
  1 18  1  0  0  0  0
  2 15  1  0  0  0  0
  4  8  1  6  0  0  0
  4 11  1  0  0  0  0
  5 16  1  0  0  0  0
  6  2  1  6  0  0  0
  6  5  1  0  0  0  0
  6  4  1  0  0  0  0
  9 18  1  6  0  0  0
  9 14  1  0  0  0  0
  9 13  1  0  0  0  0
 10 18  2  0  0  0  0
 10  5  1  0  0  0  0
 11  7  1  0  0  0  0
 12 14  2  0  0  0  0
 13  3  1  0  0  0  0
 15 19  1  6  0  0  0
 15  8  1  0  0  0  0
 16 13  2  0  0  0  0
 16  7  1  0  0  0  0
 17 12  1  0  0  0  0
 20 19  1  0  0  0  0
 21  1  1  0  0  0  0
 22 21  1  0  0  0  0
 23 26  2  0  0  0  0
 23 28  1  0  0  0  0
 24 22  1  0  0  0  0
 25 22  2  0  0  0  0
 26 25  1  0  0  0  0
 27 23  1  0  0  0  0
 28 24  2  0  0  0  0
M  END
>  <MODEL>
2

>  <REMARK>
 VINA RESULT:      -8.1      3.654      6.620
  Name = 
  3 active torsions:
  status: ('A' for Active; 'I' for Inactive)
    1  A    between atoms: C_1  and  C_2
    2  A    between atoms: C_2  and  C_3
    3  A    between atoms: C_12  and  C_24
                            x       y       z     vdW  Elec       q    Type
                         _______ _______ _______ _____ _____    ______ ____

>  <TORSDO>
F 3

$$$$
=
 OpenBabel11052413333D

 28 32  0  0  1  0  0  0  0  0999 V2000
  187.3410  177.8780  143.2860 C   0  0  0  0  0  0  0  0  0  0  0  0
  190.5170  176.5620  139.3640 S   0  0  0  0  0  0  0  0  0  0  0  0
  184.5910  178.9350  139.1650 C   0  0  0  0  0  1  0  0  0  0  0  0
  189.2890  177.9420  137.4610 C   0  0  1  0  0  3  0  0  0  0  0  0
  188.2610  178.0610  139.6800 N   0  0  0  0  0  0  0  0  0  0  0  0
  189.5240  178.0290  138.9280 C   0  0  1  0  0  3  0  0  0  0  0  0
  186.8680  178.2420  137.5380 C   0  0  0  0  0  2  0  0  0  0  0  0
  190.0420  177.0830  136.7930 C   0  0  0  0  0  2  0  0  0  0  0  0
  186.0720  178.8200  141.2810 C   0  0  1  0  0  3  0  0  0  0  0  0
  188.3160  177.8810  141.0760 N   0  0  0  0  0  0  0  0  0  0  0  0
  188.1500  178.6700  136.8380 C   0  0  0  0  0  2  0  0  0  0  0  0
  184.9050  178.0250  143.2640 C   0  0  0  0  0  3  0  0  0  0  0  0
  185.9140  178.6280  139.7940 C   0  0  0  0  0  0  0  0  0  0  0  0
  184.8670  178.4280  142.0250 N   0  0  0  0  0  0  0  0  0  0  0  0
  191.0530  176.3820  137.6260 C   0  0  2  0  0  3  0  0  0  0  0  0
  186.9950  178.3570  139.0380 C   0  0  0  0  0  0  0  0  0  0  0  0
  186.1910  177.8260  143.9620 C   0  0  0  0  0  3  0  0  0  0  0  0
  187.3030  178.1530  141.8400 C   0  0  0  0  0  0  0  0  0  0  0  0
  191.1160  174.9180  137.2330 C   0  0  0  0  0  2  0  0  0  0  0  0
  189.7230  174.3220  137.1990 C   0  0  0  0  0  1  0  0  0  0  0  0
  188.6320  177.6270  144.0010 C   0  0  0  0  0  2  0  0  0  0  0  0
  188.4370  177.6790  145.4790 C   0  0  0  0  0  0  0  0  0  0  0  0
  188.0950  177.8140  148.2530 C   0  0  0  0  0  0  0  0  0  0  0  0
  187.2780  178.2530  146.0150 C   0  0  0  0  0  3  0  0  0  0  0  0
  189.4270  177.1790  146.3330 C   0  0  0  0  0  3  0  0  0  0  0  0
  189.2560  177.2460  147.7180 C   0  0  0  0  0  3  0  0  0  0  0  0
  187.9300  177.8780  149.5950 F   0  0  0  0  0  0  0  0  0  0  0  0
  187.1080  178.3180  147.4020 C   0  0  0  0  0  3  0  0  0  0  0  0
  1 17  2  0  0  0  0
  1 21  1  0  0  0  0
  3 13  1  0  0  0  0
  4  8  1  1  0  0  0
  4  6  1  0  0  0  0
  5 10  1  0  0  0  0
  6  2  1  1  0  0  0
  6  5  1  0  0  0  0
  7 16  1  0  0  0  0
  8 15  1  0  0  0  0
  9 13  1  6  0  0  0
  9 18  1  0  0  0  0
  9 14  1  0  0  0  0
 10 18  2  0  0  0  0
 11  4  1  0  0  0  0
 11  7  1  0  0  0  0
 12 17  1  0  0  0  0
 14 12  2  0  0  0  0
 15 19  1  6  0  0  0
 15  2  1  0  0  0  0
 16  5  1  0  0  0  0
 16 13  2  0  0  0  0
 18  1  1  0  0  0  0
 20 19  1  0  0  0  0
 21 22  1  0  0  0  0
 22 24  2  0  0  0  0
 22 25  1  0  0  0  0
 23 27  1  0  0  0  0
 24 28  1  0  0  0  0
 25 26  2  0  0  0  0
 26 23  1  0  0  0  0
 28 23  2  0  0  0  0
M  END
>  <MODEL>
3

>  <REMARK>
 VINA RESULT:      -8.0      3.713      7.985
  Name = 
  3 active torsions:
  status: ('A' for Active; 'I' for Inactive)
    1  A    between atoms: C_1  and  C_2
    2  A    between atoms: C_2  and  C_3
    3  A    between atoms: C_12  and  C_24
                            x       y       z     vdW  Elec       q    Type
                         _______ _______ _______ _____ _____    ______ ____

>  <TORSDO>
F 3

$$$$
=
 OpenBabel11052413333D

 28 32  0  0  1  0  0  0  0  0999 V2000
  189.3280  177.8770  140.5700 C   0  0  0  0  0  0  0  0  0  0  0  0
  184.1750  178.6770  140.6420 S   0  0  0  0  0  0  0  0  0  0  0  0
  188.1070  177.1200  145.4280 C   0  0  0  0  0  1  0  0  0  0  0  0
  183.9340  179.0740  143.2530 C   0  0  1  0  0  3  0  0  0  0  0  0
  186.1970  178.5660  142.4680 N   0  0  0  0  0  0  0  0  0  0  0  0
  184.9460  179.2820  142.1810 C   0  0  1  0  0  3  0  0  0  0  0  0
  185.3990  177.8960  144.8080 C   0  0  0  0  0  2  0  0  0  0  0  0
  182.6970  178.8210  142.8560 C   0  0  0  0  0  2  0  0  0  0  0  0
  188.8630  177.8950  143.0810 C   0  0  1  0  0  3  0  0  0  0  0  0
  187.1480  178.4530  141.4360 N   0  0  0  0  0  0  0  0  0  0  0  0
  184.3550  178.9950  144.6780 C   0  0  0  0  0  2  0  0  0  0  0  0
  190.6680  176.5660  142.1330 C   0  0  0  0  0  3  0  0  0  0  0  0
  187.7540  177.6480  144.0720 C   0  0  0  0  0  0  0  0  0  0  0  0
  189.9130  176.8710  143.1500 N   0  0  0  0  0  0  0  0  0  0  0  0
  182.5130  178.8470  141.3820 C   0  0  2  0  0  3  0  0  0  0  0  0
  186.5050  178.0630  143.7940 C   0  0  0  0  0  0  0  0  0  0  0  0
  190.4300  177.1600  140.8020 C   0  0  0  0  0  3  0  0  0  0  0  0
  188.3680  178.0780  141.6690 C   0  0  0  0  0  0  0  0  0  0  0  0
  181.6170  177.6990  140.9570 C   0  0  0  0  0  2  0  0  0  0  0  0
  180.2970  178.2280  140.4300 C   0  0  0  0  0  1  0  0  0  0  0  0
  189.0800  178.4320  139.2030 C   0  0  0  0  0  2  0  0  0  0  0  0
  188.4580  177.4030  138.3190 C   0  0  0  0  0  0  0  0  0  0  0  0
  187.2850  175.4470  136.6970 C   0  0  0  0  0  0  0  0  0  0  0  0
  187.1190  177.5240  137.9330 C   0  0  0  0  0  3  0  0  0  0  0  0
  189.2080  176.2980  137.8980 C   0  0  0  0  0  3  0  0  0  0  0  0
  188.6220  175.3220  137.0870 C   0  0  0  0  0  3  0  0  0  0  0  0
  186.7180  174.5010  135.9120 F   0  0  0  0  0  0  0  0  0  0  0  0
  186.5340  176.5470  137.1210 C   0  0  0  0  0  3  0  0  0  0  0  0
  1 17  2  0  0  0  0
  1 18  1  0  0  0  0
  2 15  1  0  0  0  0
  4  8  1  6  0  0  0
  4 11  1  0  0  0  0
  5 16  1  0  0  0  0
  6  2  1  6  0  0  0
  6  5  1  0  0  0  0
  6  4  1  0  0  0  0
  9 18  1  6  0  0  0
  9 14  1  0  0  0  0
  9 13  1  0  0  0  0
 10 18  2  0  0  0  0
 10  5  1  0  0  0  0
 11  7  1  0  0  0  0
 12 14  2  0  0  0  0
 13  3  1  0  0  0  0
 15 19  1  6  0  0  0
 15  8  1  0  0  0  0
 16 13  2  0  0  0  0
 16  7  1  0  0  0  0
 17 12  1  0  0  0  0
 20 19  1  0  0  0  0
 21  1  1  0  0  0  0
 22 21  1  0  0  0  0
 23 26  2  0  0  0  0
 23 28  1  0  0  0  0
 24 22  1  0  0  0  0
 25 22  2  0  0  0  0
 26 25  1  0  0  0  0
 27 23  1  0  0  0  0
 28 24  2  0  0  0  0
M  END
>  <MODEL>
4

>  <REMARK>
 VINA RESULT:      -8.0      1.094      1.525
  Name = 
  3 active torsions:
  status: ('A' for Active; 'I' for Inactive)
    1  A    between atoms: C_1  and  C_2
    2  A    between atoms: C_2  and  C_3
    3  A    between atoms: C_12  and  C_24
                            x       y       z     vdW  Elec       q    Type
                         _______ _______ _______ _____ _____    ______ ____

>  <TORSDO>
F 3

$$$$
=
 OpenBabel11052413333D

 28 32  0  0  1  0  0  0  0  0999 V2000
  189.6620  177.4830  141.3940 C   0  0  0  0  0  0  0  0  0  0  0  0
  184.5960  178.5350  140.7370 S   0  0  0  0  0  0  0  0  0  0  0  0
  187.8200  177.3000  146.1100 C   0  0  0  0  0  1  0  0  0  0  0  0
  184.0670  179.2150  143.2450 C   0  0  1  0  0  3  0  0  0  0  0  0
  186.3720  178.5190  142.8050 N   0  0  0  0  0  0  0  0  0  0  0  0
  185.2110  179.2600  142.2940 C   0  0  1  0  0  3  0  0  0  0  0  0
  185.2590  178.1370  145.0810 C   0  0  0  0  0  2  0  0  0  0  0  0
  182.8730  178.9830  142.7220 C   0  0  0  0  0  2  0  0  0  0  0  0
  188.8990  177.7870  143.8120 C   0  0  1  0  0  3  0  0  0  0  0  0
  187.4320  178.2510  141.9170 N   0  0  0  0  0  0  0  0  0  0  0  0
  184.3080  179.2670  144.7120 C   0  0  0  0  0  2  0  0  0  0  0  0
  190.7210  176.2790  143.2350 C   0  0  0  0  0  3  0  0  0  0  0  0
  187.6660  177.6990  144.6750 C   0  0  0  0  0  0  0  0  0  0  0  0
  189.8690  176.7260  144.1140 N   0  0  0  0  0  0  0  0  0  0  0  0
  182.8700  178.8630  141.2410 C   0  0  2  0  0  3  0  0  0  0  0  0
  186.4870  178.1430  144.2020 C   0  0  0  0  0  0  0  0  0  0  0  0
  190.6820  176.7410  141.8320 C   0  0  0  0  0  3  0  0  0  0  0  0
  188.5900  177.8440  142.3380 C   0  0  0  0  0  0  0  0  0  0  0  0
  181.9630  177.7210  140.8210 C   0  0  0  0  0  2  0  0  0  0  0  0
  182.6810  176.8100  139.8440 C   0  0  0  0  0  1  0  0  0  0  0  0
  189.6140  177.9020  139.9580 C   0  0  0  0  0  2  0  0  0  0  0  0
  190.4490  176.9980  139.1150 C   0  0  0  0  0  0  0  0  0  0  0  0
  192.0220  175.2770  137.5680 C   0  0  0  0  0  0  0  0  0  0  0  0
  189.8440  176.0010  138.3410 C   0  0  0  0  0  3  0  0  0  0  0  0
  191.8420  177.1280  139.1180 C   0  0  0  0  0  3  0  0  0  0  0  0
  192.6280  176.2690  138.3450 C   0  0  0  0  0  3  0  0  0  0  0  0
  192.7840  174.4450  136.8200 F   0  0  0  0  0  0  0  0  0  0  0  0
  190.6310  175.1420  137.5680 C   0  0  0  0  0  3  0  0  0  0  0  0
  1 17  2  0  0  0  0
  1 18  1  0  0  0  0
  2 15  1  0  0  0  0
  4  8  1  1  0  0  0
  4 11  1  0  0  0  0
  5 16  1  0  0  0  0
  6  2  1  6  0  0  0
  6  5  1  0  0  0  0
  6  4  1  0  0  0  0
  9 18  1  6  0  0  0
  9 14  1  0  0  0  0
  9 13  1  0  0  0  0
 10 18  2  0  0  0  0
 10  5  1  0  0  0  0
 11  7  1  0  0  0  0
 12 14  2  0  0  0  0
 13  3  1  0  0  0  0
 15 19  1  1  0  0  0
 15  8  1  0  0  0  0
 16 13  2  0  0  0  0
 16  7  1  0  0  0  0
 17 12  1  0  0  0  0
 20 19  1  0  0  0  0
 21  1  1  0  0  0  0
 22 25  1  0  0  0  0
 22 21  1  0  0  0  0
 23 26  1  0  0  0  0
 24 22  2  0  0  0  0
 26 25  2  0  0  0  0
 27 23  1  0  0  0  0
 28 23  2  0  0  0  0
 28 24  1  0  0  0  0
M  END
>  <MODEL>
5

>  <REMARK>
 VINA RESULT:      -7.7      2.235      2.831
  Name = 
  3 active torsions:
  status: ('A' for Active; 'I' for Inactive)
    1  A    between atoms: C_1  and  C_2
    2  A    between atoms: C_2  and  C_3
    3  A    between atoms: C_12  and  C_24
                            x       y       z     vdW  Elec       q    Type
                         _______ _______ _______ _____ _____    ______ ____

>  <TORSDO>
F 3

$$$$
=
 OpenBabel11052413333D

 28 32  0  0  1  0  0  0  0  0999 V2000
  187.0150  178.2450  143.1070 C   0  0  0  0  0  0  0  0  0  0  0  0
  184.9110  177.8580  138.3500 S   0  0  0  0  0  0  0  0  0  0  0  0
  182.0600  178.8340  143.9810 C   0  0  0  0  0  1  0  0  0  0  0  0
  182.5900  179.0080  138.9170 C   0  0  1  0  0  3  0  0  0  0  0  0
  184.1450  178.7920  140.7950 N   0  0  0  0  0  0  0  0  0  0  0  0
  184.0080  179.0800  139.3600 C   0  0  1  0  0  3  0  0  0  0  0  0
  181.6060  178.7480  141.1340 C   0  0  0  0  0  2  0  0  0  0  0  0
  182.3580  178.3730  137.7780 C   0  0  0  0  0  2  0  0  0  0  0  0
  184.6080  178.9630  143.5680 C   0  0  1  0  0  3  0  0  0  0  0  0
  185.4370  178.5670  141.3060 N   0  0  0  0  0  0  0  0  0  0  0  0
  181.4980  179.4860  139.8080 C   0  0  0  0  0  2  0  0  0  0  0  0
  185.9440  177.8370  145.2620 C   0  0  0  0  0  3  0  0  0  0  0  0
  183.2110  178.8070  143.0240 C   0  0  0  0  0  0  0  0  0  0  0  0
  184.7870  178.2760  144.8540 N   0  0  0  0  0  0  0  0  0  0  0  0
  183.5840  177.8830  137.0950 C   0  0  2  0  0  3  0  0  0  0  0  0
  183.0060  178.8220  141.6940 C   0  0  0  0  0  0  0  0  0  0  0  0
  187.1360  177.9040  144.3920 C   0  0  0  0  0  3  0  0  0  0  0  0
  185.6770  178.5680  142.5810 C   0  0  0  0  0  0  0  0  0  0  0  0
  183.3410  176.4900  136.5440 C   0  0  0  0  0  2  0  0  0  0  0  0
  183.4190  175.4620  137.6570 C   0  0  0  0  0  1  0  0  0  0  0  0
  188.2260  178.2610  142.2280 C   0  0  0  0  0  2  0  0  0  0  0  0
  189.3290  177.4590  142.8330 C   0  0  0  0  0  0  0  0  0  0  0  0
  191.4200  175.9560  143.9280 C   0  0  0  0  0  0  0  0  0  0  0  0
  190.3560  178.0970  143.5390 C   0  0  0  0  0  3  0  0  0  0  0  0
  189.3530  176.0690  142.6710 C   0  0  0  0  0  3  0  0  0  0  0  0
  190.3970  175.3180  143.2180 C   0  0  0  0  0  3  0  0  0  0  0  0
  192.4300  175.2270  144.4580 F   0  0  0  0  0  0  0  0  0  0  0  0
  191.3990  177.3440  144.0870 C   0  0  0  0  0  3  0  0  0  0  0  0
  1 17  2  0  0  0  0
  4  8  1  1  0  0  0
  4  6  1  0  0  0  0
  4 11  1  0  0  0  0
  5 10  1  0  0  0  0
  5 16  1  0  0  0  0
  6  2  1  6  0  0  0
  6  5  1  0  0  0  0
  7 16  1  0  0  0  0
  9 18  1  6  0  0  0
  9 14  1  0  0  0  0
 10 18  2  0  0  0  0
 11  7  1  0  0  0  0
 13  9  1  0  0  0  0
 13  3  1  0  0  0  0
 14 12  2  0  0  0  0
 15 19  1  1  0  0  0
 15  8  1  0  0  0  0
 15  2  1  0  0  0  0
 16 13  2  0  0  0  0
 17 12  1  0  0  0  0
 18  1  1  0  0  0  0
 19 20  1  0  0  0  0
 21 22  1  0  0  0  0
 21  1  1  0  0  0  0
 22 24  1  0  0  0  0
 23 28  1  0  0  0  0
 23 27  1  0  0  0  0
 24 28  2  0  0  0  0
 25 22  2  0  0  0  0
 25 26  1  0  0  0  0
 26 23  2  0  0  0  0
M  END
>  <MODEL>
6

>  <REMARK>
 VINA RESULT:      -7.4      3.564      5.831
  Name = 
  3 active torsions:
  status: ('A' for Active; 'I' for Inactive)
    1  A    between atoms: C_1  and  C_2
    2  A    between atoms: C_2  and  C_3
    3  A    between atoms: C_12  and  C_24
                            x       y       z     vdW  Elec       q    Type
                         _______ _______ _______ _____ _____    ______ ____

>  <TORSDO>
F 3

$$$$
=
 OpenBabel11052413333D

 28 32  0  0  1  0  0  0  0  0999 V2000
  189.8770  177.3940  139.3430 C   0  0  0  0  0  0  0  0  0  0  0  0
  189.6400  177.0340  144.5400 S   0  0  0  0  0  0  0  0  0  0  0  0
  185.3180  179.3190  140.4300 C   0  0  0  0  0  1  0  0  0  0  0  0
  187.0070  177.2550  144.7710 C   0  0  1  0  0  3  0  0  0  0  0  0
  187.8810  177.3960  142.4880 N   0  0  0  0  0  0  0  0  0  0  0  0
  188.0020  176.7330  143.7950 C   0  0  1  0  0  3  0  0  0  0  0  0
  185.7540  178.6360  143.1980 C   0  0  0  0  0  2  0  0  0  0  0  0
  187.4540  177.5070  145.9920 C   0  0  0  0  0  2  0  0  0  0  0  0
  187.4280  177.9790  139.7710 C   0  0  1  0  0  3  0  0  0  0  0  0
  188.9090  177.2000  141.5480 N   0  0  0  0  0  0  0  0  0  0  0  0
  185.6360  177.6200  144.3240 C   0  0  0  0  0  2  0  0  0  0  0  0
  188.6460  178.9160  137.8830 C   0  0  0  0  0  3  0  0  0  0  0  0
  186.5210  178.5280  140.8420 C   0  0  0  0  0  0  0  0  0  0  0  0
  187.5890  178.9070  138.6440 N   0  0  0  0  0  0  0  0  0  0  0  0
  188.8850  177.1640  146.1990 C   0  0  2  0  0  3  0  0  0  0  0  0
  186.7020  178.1590  142.1230 C   0  0  0  0  0  0  0  0  0  0  0  0
  189.8100  178.0570  138.1860 C   0  0  0  0  0  3  0  0  0  0  0  0
  188.7640  177.5210  140.2990 C   0  0  0  0  0  0  0  0  0  0  0  0
  189.5610  178.2530  147.0110 C   0  0  0  0  0  2  0  0  0  0  0  0
  189.0340  178.2530  148.4330 C   0  0  0  0  0  1  0  0  0  0  0  0
  191.0840  176.5670  139.6530 C   0  0  0  0  0  2  0  0  0  0  0  0
  191.6790  176.0090  138.4040 C   0  0  0  0  0  0  0  0  0  0  0  0
  192.7700  174.9910  136.0370 C   0  0  0  0  0  0  0  0  0  0  0  0
  192.9220  176.4670  137.9510 C   0  0  0  0  0  3  0  0  0  0  0  0
  190.9810  175.0450  137.6670 C   0  0  0  0  0  3  0  0  0  0  0  0
  191.5260  174.5360  136.4850 C   0  0  0  0  0  3  0  0  0  0  0  0
  193.2980  174.4970  134.8920 F   0  0  0  0  0  0  0  0  0  0  0  0
  193.4670  175.9560  136.7690 C   0  0  0  0  0  3  0  0  0  0  0  0
  1 21  1  0  0  0  0
  1 18  1  0  0  0  0
  2 15  1  0  0  0  0
  3 13  1  0  0  0  0
  4 11  1  6  0  0  0
  4  8  1  0  0  0  0
  5  6  1  0  0  0  0
  6  2  1  1  0  0  0
  6  4  1  0  0  0  0
  7 11  1  0  0  0  0
  8 15  1  0  0  0  0
  9 14  1  6  0  0  0
  9 18  1  0  0  0  0
  9 13  1  0  0  0  0
 10  5  1  0  0  0  0
 12 17  1  0  0  0  0
 12 14  2  0  0  0  0
 13 16  2  0  0  0  0
 15 19  1  1  0  0  0
 16  5  1  0  0  0  0
 16  7  1  0  0  0  0
 17  1  2  0  0  0  0
 18 10  2  0  0  0  0
 19 20  1  0  0  0  0
 22 21  1  0  0  0  0
 23 26  2  0  0  0  0
 23 28  1  0  0  0  0
 24 22  1  0  0  0  0
 25 22  2  0  0  0  0
 26 25  1  0  0  0  0
 27 23  1  0  0  0  0
 28 24  2  0  0  0  0
M  END
>  <MODEL>
7

>  <REMARK>
 VINA RESULT:      -7.4      2.896      5.086
  Name = 
  3 active torsions:
  status: ('A' for Active; 'I' for Inactive)
    1  A    between atoms: C_1  and  C_2
    2  A    between atoms: C_2  and  C_3
    3  A    between atoms: C_12  and  C_24
                            x       y       z     vdW  Elec       q    Type
                         _______ _______ _______ _____ _____    ______ ____

>  <TORSDO>
F 3

$$$$
=
 OpenBabel11052413333D

 28 32  0  0  1  0  0  0  0  0999 V2000
  184.4840  178.9570  141.1040 C   0  0  0  0  0  0  0  0  0  0  0  0
  189.2500  178.0590  139.1850 S   0  0  0  0  0  0  0  0  0  0  0  0
  183.5420  176.5860  136.7260 C   0  0  0  0  0  1  0  0  0  0  0  0
  188.5250  177.6470  136.6680 C   0  0  1  0  0  3  0  0  0  0  0  0
  186.6960  178.1010  138.2300 N   0  0  0  0  0  0  0  0  0  0  0  0
  188.0730  178.4390  137.8440 C   0  0  1  0  0  3  0  0  0  0  0  0
  186.3710  176.6150  136.1690 C   0  0  0  0  0  2  0  0  0  0  0  0
  189.7450  177.1370  136.7330 C   0  0  0  0  0  2  0  0  0  0  0  0
  183.9270  178.1560  138.7430 C   0  0  1  0  0  3  0  0  0  0  0  0
  186.2210  178.5700  139.4700 N   0  0  0  0  0  0  0  0  0  0  0  0
  187.5750  177.3260  135.5680 C   0  0  0  0  0  2  0  0  0  0  0  0
  182.4140  177.7620  140.6080 C   0  0  0  0  0  3  0  0  0  0  0  0
  184.4910  177.3200  137.6230 C   0  0  0  0  0  0  0  0  0  0  0  0
  182.7560  177.5320  139.3720 N   0  0  0  0  0  0  0  0  0  0  0  0
  190.4900  177.4980  137.9670 C   0  0  2  0  0  3  0  0  0  0  0  0
  185.8040  177.3830  137.3380 C   0  0  0  0  0  0  0  0  0  0  0  0
  183.2620  178.5850  141.4940 C   0  0  0  0  0  3  0  0  0  0  0  0
  184.9590  178.5460  139.7710 C   0  0  0  0  0  0  0  0  0  0  0  0
  191.2410  176.2850  138.4860 C   0  0  0  0  0  2  0  0  0  0  0  0
  192.6640  176.2830  137.9630 C   0  0  0  0  0  1  0  0  0  0  0  0
  185.3480  179.7510  142.0320 C   0  0  0  0  0  2  0  0  0  0  0  0
  185.7040  178.9490  143.2390 C   0  0  0  0  0  0  0  0  0  0  0  0
  186.4070  177.4700  145.5080 C   0  0  0  0  0  0  0  0  0  0  0  0
  185.1420  179.2630  144.4820 C   0  0  0  0  0  3  0  0  0  0  0  0
  186.6220  177.8980  143.1350 C   0  0  0  0  0  3  0  0  0  0  0  0
  186.9730  177.1590  144.2680 C   0  0  0  0  0  3  0  0  0  0  0  0
  186.7470  176.7540  146.6050 F   0  0  0  0  0  0  0  0  0  0  0  0
  185.4930  178.5230  145.6150 C   0  0  0  0  0  3  0  0  0  0  0  0
  1 17  2  0  0  0  0
  1 21  1  0  0  0  0
  3 13  1  0  0  0  0
  4 11  1  1  0  0  0
  4  8  1  0  0  0  0
  4  6  1  0  0  0  0
  5 10  1  0  0  0  0
  6  5  1  0  0  0  0
  6  2  1  1  0  0  0
  7 16  1  0  0  0  0
  8 15  1  0  0  0  0
  9 13  1  6  0  0  0
  9 14  1  0  0  0  0
  9 18  1  0  0  0  0
 10 18  2  0  0  0  0
 11  7  1  0  0  0  0
 12 17  1  0  0  0  0
 14 12  2  0  0  0  0
 15 19  1  1  0  0  0
 15  2  1  0  0  0  0
 16 13  2  0  0  0  0
 16  5  1  0  0  0  0
 18  1  1  0  0  0  0
 20 19  1  0  0  0  0
 21 22  1  0  0  0  0
 22 24  1  0  0  0  0
 23 28  1  0  0  0  0
 23 27  1  0  0  0  0
 24 28  2  0  0  0  0
 25 22  2  0  0  0  0
 25 26  1  0  0  0  0
 26 23  2  0  0  0  0
M  END
>  <MODEL>
8

>  <REMARK>
 VINA RESULT:      -7.3      3.005      7.731
  Name = 
  3 active torsions:
  status: ('A' for Active; 'I' for Inactive)
    1  A    between atoms: C_1  and  C_2
    2  A    between atoms: C_2  and  C_3
    3  A    between atoms: C_12  and  C_24
                            x       y       z     vdW  Elec       q    Type
                         _______ _______ _______ _____ _____    ______ ____

>  <TORSDO>
F 3

$$$$
=
 OpenBabel11052413333D

 28 32  0  0  1  0  0  0  0  0999 V2000
  189.1240  177.7890  143.0060 C   0  0  0  0  0  0  0  0  0  0  0  0
  190.5190  176.7550  138.0880 S   0  0  0  0  0  0  0  0  0  0  0  0
  184.8650  178.6260  140.3940 C   0  0  0  0  0  1  0  0  0  0  0  0
  188.5240  178.0340  136.8980 C   0  0  1  0  0  3  0  0  0  0  0  0
  188.4820  178.0590  139.3460 N   0  0  0  0  0  0  0  0  0  0  0  0
  189.3280  178.1350  138.1460 C   0  0  1  0  0  3  0  0  0  0  0  0
  186.3290  178.1300  137.9590 C   0  0  0  0  0  2  0  0  0  0  0  0
  189.0020  177.2440  135.9500 C   0  0  0  0  0  2  0  0  0  0  0  0
  187.0820  178.6280  141.7220 C   0  0  1  0  0  3  0  0  0  0  0  0
  189.1120  177.8810  140.5920 N   0  0  0  0  0  0  0  0  0  0  0  0
  187.1790  178.6660  136.8170 C   0  0  0  0  0  2  0  0  0  0  0  0
  186.8850  177.7320  143.9770 C   0  0  0  0  0  3  0  0  0  0  0  0
  186.3490  178.4280  140.4210 C   0  0  0  0  0  0  0  0  0  0  0  0
  186.3170  178.1350  142.8760 N   0  0  0  0  0  0  0  0  0  0  0  0
  190.3150  176.6270  136.2770 C   0  0  2  0  0  3  0  0  0  0  0  0
  187.0450  178.2510  139.2830 C   0  0  0  0  0  0  0  0  0  0  0  0
  188.3560  177.6390  144.0870 C   0  0  0  0  0  3  0  0  0  0  0  0
  188.4800  178.0650  141.7100 C   0  0  0  0  0  0  0  0  0  0  0  0
  190.3220  175.1740  135.8380 C   0  0  0  0  0  2  0  0  0  0  0  0
  190.6730  174.2730  137.0060 C   0  0  0  0  0  1  0  0  0  0  0  0
  190.6080  177.6450  143.1270 C   0  0  0  0  0  2  0  0  0  0  0  0
  190.9760  177.0400  144.4400 C   0  0  0  0  0  0  0  0  0  0  0  0
  191.7050  175.9240  146.9000 C   0  0  0  0  0  0  0  0  0  0  0  0
  190.6320  177.6870  145.6320 C   0  0  0  0  0  3  0  0  0  0  0  0
  191.6910  175.8370  144.4810 C   0  0  0  0  0  3  0  0  0  0  0  0
  192.0550  175.2800  145.7100 C   0  0  0  0  0  3  0  0  0  0  0  0
  192.0580  175.3830  148.0900 F   0  0  0  0  0  0  0  0  0  0  0  0
  190.9960  177.1270  146.8610 C   0  0  0  0  0  3  0  0  0  0  0  0
  1 21  1  0  0  0  0
  1 17  2  0  0  0  0
  3 13  1  0  0  0  0
  4  8  1  1  0  0  0
  4  6  1  0  0  0  0
  5 10  1  0  0  0  0
  6  2  1  1  0  0  0
  6  5  1  0  0  0  0
  7 16  1  0  0  0  0
  8 15  1  0  0  0  0
  9 13  1  6  0  0  0
  9 14  1  0  0  0  0
 10 18  2  0  0  0  0
 11  4  1  0  0  0  0
 11  7  1  0  0  0  0
 12 17  1  0  0  0  0
 14 12  2  0  0  0  0
 15 19  1  1  0  0  0
 15  2  1  0  0  0  0
 16  5  1  0  0  0  0
 16 13  2  0  0  0  0
 18  9  1  0  0  0  0
 18  1  1  0  0  0  0
 19 20  1  0  0  0  0
 21 22  1  0  0  0  0
 22 25  2  0  0  0  0
 22 24  1  0  0  0  0
 23 27  1  0  0  0  0
 24 28  2  0  0  0  0
 25 26  1  0  0  0  0
 26 23  2  0  0  0  0
 28 23  1  0  0  0  0
M  END
>  <MODEL>
9

>  <REMARK>
 VINA RESULT:      -7.3      3.651      7.585
  Name = 
  3 active torsions:
  status: ('A' for Active; 'I' for Inactive)
    1  A    between atoms: C_1  and  C_2
    2  A    between atoms: C_2  and  C_3
    3  A    between atoms: C_12  and  C_24
                            x       y       z     vdW  Elec       q    Type
                         _______ _______ _______ _____ _____    ______ ____

>  <TORSDO>
F 3

$$$$
