=
 OpenBabel11052413163D

 31 34  0  0  1  0  0  0  0  0999 V2000
  184.9420  178.5830  143.9700 C   0  0  0  0  0  0  0  0  0  0  0  0
  188.4700  177.1210  143.6110 C   0  0  1  0  0  3  0  0  0  0  0  0
  189.0380  177.2080  145.0240 C   0  0  0  0  0  0  0  0  0  0  0  0
  188.5680  177.2540  147.5170 C   0  0  0  0  0  2  0  0  0  0  0  0
  187.1710  177.8540  143.3220 C   0  0  0  0  0  0  0  0  0  0  0  0
  184.7190  179.0740  142.6820 C   0  0  0  0  0  3  0  0  0  0  0  0
  188.2200  177.5960  146.1400 N   0  0  0  0  0  2  0  0  0  0  0  0
  189.0350  177.3320  141.1680 C   0  0  2  0  0  3  0  0  0  0  0  0
  183.8880  178.7160  145.0090 C   0  0  0  0  0  1  0  0  0  0  0  0
  191.1720  176.4130  144.1020 C   0  0  0  0  0  3  0  0  0  0  0  0
  190.0160  177.2450  147.6890 N   0  0  0  0  0  2  0  0  0  0  0  0
  187.8670  178.1360  140.9950 O   0  0  0  0  0  0  0  0  0  0  0  0
  189.5640  177.4930  142.5910 C   0  0  2  0  0  3  0  0  0  0  0  0
  186.1550  177.9650  144.2820 C   0  0  0  0  0  3  0  0  0  0  0  0
  192.0850  176.6360  146.8170 O   0  0  0  0  0  0  0  0  0  0  0  0
  186.9150  178.3020  142.0070 C   0  0  0  0  0  0  0  0  0  0  0  0
  185.7030  178.9290  141.7010 C   0  0  0  0  0  3  0  0  0  0  0  0
  190.8050  176.6790  142.8470 C   0  0  0  0  0  3  0  0  0  0  0  0
  190.3170  176.8260  145.2390 C   0  0  0  0  0  0  0  0  0  0  0  0
  190.8680  176.8750  146.6040 C   0  0  0  0  0  0  0  0  0  0  0  0
  190.0810  177.7410  140.1390 C   0  0  0  0  0  2  0  0  0  0  0  0
  188.3830  177.1330  136.8400 F   0  0  0  0  0  0  0  0  0  0  0  0
  190.9550  175.5160  138.6460 O   0  0  0  0  0  0  0  0  0  0  0  0
  188.9800  179.1300  138.5650 O   0  0  0  0  0  0  0  0  0  0  0  0
  189.4350  177.9830  138.8130 C   0  0  0  0  0  0  0  0  0  0  0  0
  189.9310  175.6630  137.9260 C   0  0  0  0  0  0  0  0  0  0  0  0
  189.2520  176.9270  137.8550 N   0  0  0  0  0  0  0  0  0  0  0  0
  189.4230  174.4990  137.1450 C   0  0  0  0  0  2  0  0  0  0  0  0
  190.2930  174.2580  135.9600 C   0  0  0  0  0  0  0  0  0  0  0  0
  190.2830  175.0690  134.9970 O   0  0  0  0  0  0  0  0  0  0  0  0
  191.1630  173.1340  135.9320 N   0  0  0  0  0  1  0  0  0  0  0  0
  1 14  1  0  0  0  0
  1  9  1  0  0  0  0
  2  5  1  1  0  0  0
  2  3  1  0  0  0  0
  3 19  2  0  0  0  0
  3  7  1  0  0  0  0
  4 11  1  0  0  0  0
  5 14  2  0  0  0  0
  6  1  2  0  0  0  0
  7  4  1  0  0  0  0
  8 21  1  6  0  0  0
  8 13  1  0  0  0  0
 10 19  1  0  0  0  0
 12  8  1  0  0  0  0
 12 16  1  0  0  0  0
 13 18  1  6  0  0  0
 13  2  1  0  0  0  0
 16  5  1  0  0  0  0
 17 16  2  0  0  0  0
 17  6  1  0  0  0  0
 18 10  2  0  0  0  0
 19 20  1  0  0  0  0
 20 15  2  0  0  0  0
 20 11  1  0  0  0  0
 22 27  1  0  0  0  0
 24 25  2  0  0  0  0
 25 21  1  0  0  0  0
 26 23  2  0  0  0  0
 27 26  1  0  0  0  0
 27 25  1  0  0  0  0
 28 26  1  0  0  0  0
 29 28  1  0  0  0  0
 30 29  2  0  0  0  0
 31 29  1  0  0  0  0
M  END
>  <MODEL>
1

>  <REMARK>
 VINA RESULT:     -10.5      0.000      0.000
  Name = 
  4 active torsions:
  status: ('A' for Active; 'I' for Inactive)
    1  A    between atoms: C_1  and  C_24
    2  A    between atoms: C_9  and  C_23
    3  A    between atoms: C_15  and  C_23
    4  A    between atoms: C_19  and  C_24
                            x       y       z     vdW  Elec       q    Type
                         _______ _______ _______ _____ _____    ______ ____

>  <TORSDO>
F 4

$$$$
=
 OpenBabel11052413163D

 31 34  0  0  1  0  0  0  0  0999 V2000
  184.8370  178.6480  144.2070 C   0  0  0  0  0  0  0  0  0  0  0  0
  188.3180  177.1330  143.6520 C   0  0  1  0  0  3  0  0  0  0  0  0
  188.9660  177.2150  145.0300 C   0  0  0  0  0  0  0  0  0  0  0  0
  188.6390  177.2700  147.5450 C   0  0  0  0  0  2  0  0  0  0  0  0
  187.0150  177.8850  143.4350 C   0  0  0  0  0  0  0  0  0  0  0  0
  184.5480  179.1400  142.9340 C   0  0  0  0  0  3  0  0  0  0  0  0
  188.2180  177.6160  146.1890 N   0  0  0  0  0  2  0  0  0  0  0  0
  188.7450  177.3330  141.1800 C   0  0  2  0  0  3  0  0  0  0  0  0
  183.8460  178.7970  145.3040 C   0  0  0  0  0  1  0  0  0  0  0  0
  191.0320  176.3870  143.9900 C   0  0  0  0  0  3  0  0  0  0  0  0
  190.0940  177.2410  147.6350 N   0  0  0  0  0  2  0  0  0  0  0  0
  187.5810  178.1530  141.0720 O   0  0  0  0  0  0  0  0  0  0  0  0
  189.3570  177.4880  142.5710 C   0  0  2  0  0  3  0  0  0  0  0  0
  186.0570  178.0120  144.4520 C   0  0  0  0  0  3  0  0  0  0  0  0
  192.1010  176.6010  146.6490 O   0  0  0  0  0  0  0  0  0  0  0  0
  186.6900  178.3350  142.1360 C   0  0  0  0  0  0  0  0  0  0  0  0
  185.4720  178.9790  141.8980 C   0  0  0  0  0  3  0  0  0  0  0  0
  190.5980  176.6570  142.7580 C   0  0  0  0  0  3  0  0  0  0  0  0
  190.2490  176.8140  145.1730 C   0  0  0  0  0  0  0  0  0  0  0  0
  190.8780  176.8570  146.5040 C   0  0  0  0  0  0  0  0  0  0  0  0
  189.7370  177.7260  140.0920 C   0  0  0  0  0  2  0  0  0  0  0  0
  189.8130  175.4050  137.1360 F   0  0  0  0  0  0  0  0  0  0  0  0
  192.2700  177.1040  139.0230 O   0  0  0  0  0  0  0  0  0  0  0  0
  188.2060  177.2040  138.3600 O   0  0  0  0  0  0  0  0  0  0  0  0
  189.3760  177.0650  138.8010 C   0  0  0  0  0  0  0  0  0  0  0  0
  191.7110  176.1810  138.3720 C   0  0  0  0  0  0  0  0  0  0  0  0
  190.3010  176.2180  138.0980 N   0  0  0  0  0  0  0  0  0  0  0  0
  192.5340  175.0350  137.8910 C   0  0  0  0  0  2  0  0  0  0  0  0
  193.9380  175.4740  137.6600 C   0  0  0  0  0  0  0  0  0  0  0  0
  194.8530  175.0940  138.4380 O   0  0  0  0  0  0  0  0  0  0  0  0
  194.2550  176.2910  136.5390 N   0  0  0  0  0  1  0  0  0  0  0  0
  1 14  1  0  0  0  0
  1  9  1  0  0  0  0
  2  5  1  1  0  0  0
  2  3  1  0  0  0  0
  3 19  2  0  0  0  0
  3  7  1  0  0  0  0
  4 11  1  0  0  0  0
  5 14  2  0  0  0  0
  6  1  2  0  0  0  0
  7  4  1  0  0  0  0
  8 21  1  6  0  0  0
  8 13  1  0  0  0  0
 10 19  1  0  0  0  0
 12  8  1  0  0  0  0
 12 16  1  0  0  0  0
 13 18  1  6  0  0  0
 13  2  1  0  0  0  0
 16  5  1  0  0  0  0
 17 16  2  0  0  0  0
 17  6  1  0  0  0  0
 18 10  2  0  0  0  0
 19 20  1  0  0  0  0
 20 15  2  0  0  0  0
 20 11  1  0  0  0  0
 22 27  1  0  0  0  0
 24 25  2  0  0  0  0
 25 21  1  0  0  0  0
 26 23  2  0  0  0  0
 27 26  1  0  0  0  0
 27 25  1  0  0  0  0
 28 26  1  0  0  0  0
 29 28  1  0  0  0  0
 29 30  2  0  0  0  0
 31 29  1  0  0  0  0
M  END
>  <MODEL>
2

>  <REMARK>
 VINA RESULT:     -10.4      1.603      1.812
  Name = 
  4 active torsions:
  status: ('A' for Active; 'I' for Inactive)
    1  A    between atoms: C_1  and  C_24
    2  A    between atoms: C_9  and  C_23
    3  A    between atoms: C_15  and  C_23
    4  A    between atoms: C_19  and  C_24
                            x       y       z     vdW  Elec       q    Type
                         _______ _______ _______ _____ _____    ______ ____

>  <TORSDO>
F 4

$$$$
=
 OpenBabel11052413163D

 31 34  0  0  1  0  0  0  0  0999 V2000
  184.8130  178.6110  144.3710 C   0  0  0  0  0  0  0  0  0  0  0  0
  188.3150  177.1880  143.7170 C   0  0  1  0  0  3  0  0  0  0  0  0
  188.9820  177.2370  145.0880 C   0  0  0  0  0  0  0  0  0  0  0  0
  188.6900  177.2010  147.6080 C   0  0  0  0  0  2  0  0  0  0  0  0
  186.9950  177.9200  143.5440 C   0  0  0  0  0  0  0  0  0  0  0  0
  184.4970  179.1390  143.1180 C   0  0  0  0  0  3  0  0  0  0  0  0
  188.2430  177.5840  146.2710 N   0  0  0  0  0  2  0  0  0  0  0  0
  188.7040  177.4800  141.2470 C   0  0  2  0  0  3  0  0  0  0  0  0
  183.8350  178.7020  145.4860 C   0  0  0  0  0  1  0  0  0  0  0  0
  191.0490  176.4880  143.9930 C   0  0  0  0  0  3  0  0  0  0  0  0
  190.1470  177.1990  147.6770 N   0  0  0  0  0  2  0  0  0  0  0  0
  187.5220  178.2790  141.1830 O   0  0  0  0  0  0  0  0  0  0  0  0
  189.3320  177.6010  142.6340 C   0  0  2  0  0  3  0  0  0  0  0  0
  186.0490  177.9930  144.5770 C   0  0  0  0  0  3  0  0  0  0  0  0
  192.1520  176.6340  146.6420 O   0  0  0  0  0  0  0  0  0  0  0  0
  186.6430  178.4060  142.2650 C   0  0  0  0  0  0  0  0  0  0  0  0
  185.4080  179.0320  142.0660 C   0  0  0  0  0  3  0  0  0  0  0  0
  190.5920  176.7900  142.7760 C   0  0  0  0  0  3  0  0  0  0  0  0
  190.2750  176.8580  145.2000 C   0  0  0  0  0  0  0  0  0  0  0  0
  190.9210  176.8700  146.5230 C   0  0  0  0  0  0  0  0  0  0  0  0
  189.6720  177.9290  140.1600 C   0  0  0  0  0  2  0  0  0  0  0  0
  189.8480  176.0740  136.8950 F   0  0  0  0  0  0  0  0  0  0  0  0
  187.6580  178.4840  138.2680 O   0  0  0  0  0  0  0  0  0  0  0  0
  190.5700  175.8390  139.4920 O   0  0  0  0  0  0  0  0  0  0  0  0
  189.8720  176.8340  139.1630 C   0  0  0  0  0  0  0  0  0  0  0  0
  188.3640  177.8800  137.4170 C   0  0  0  0  0  0  0  0  0  0  0  0
  189.3580  176.9260  137.8230 N   0  0  0  0  0  0  0  0  0  0  0  0
  188.1610  178.1730  135.9690 C   0  0  0  0  0  2  0  0  0  0  0  0
  187.1310  177.2590  135.4010 C   0  0  0  0  0  0  0  0  0  0  0  0
  185.9090  177.4840  135.6040 O   0  0  0  0  0  0  0  0  0  0  0  0
  187.5250  176.1540  134.5970 N   0  0  0  0  0  1  0  0  0  0  0  0
  1 14  1  0  0  0  0
  1  9  1  0  0  0  0
  2  5  1  1  0  0  0
  2  3  1  0  0  0  0
  3 19  2  0  0  0  0
  3  7  1  0  0  0  0
  4 11  1  0  0  0  0
  5 14  2  0  0  0  0
  6  1  2  0  0  0  0
  7  4  1  0  0  0  0
  8 21  1  6  0  0  0
  8 13  1  0  0  0  0
 10 19  1  0  0  0  0
 12  8  1  0  0  0  0
 12 16  1  0  0  0  0
 13 18  1  6  0  0  0
 13  2  1  0  0  0  0
 16  5  1  0  0  0  0
 17 16  2  0  0  0  0
 17  6  1  0  0  0  0
 18 10  2  0  0  0  0
 19 20  1  0  0  0  0
 20 15  2  0  0  0  0
 20 11  1  0  0  0  0
 22 27  1  0  0  0  0
 25 24  2  0  0  0  0
 25 21  1  0  0  0  0
 26 27  1  0  0  0  0
 26 23  2  0  0  0  0
 27 25  1  0  0  0  0
 28 26  1  0  0  0  0
 29 30  2  0  0  0  0
 29 28  1  0  0  0  0
 31 29  1  0  0  0  0
M  END
>  <MODEL>
3

>  <REMARK>
 VINA RESULT:     -10.2      1.626      2.078
  Name = 
  4 active torsions:
  status: ('A' for Active; 'I' for Inactive)
    1  A    between atoms: C_1  and  C_24
    2  A    between atoms: C_9  and  C_23
    3  A    between atoms: C_15  and  C_23
    4  A    between atoms: C_19  and  C_24
                            x       y       z     vdW  Elec       q    Type
                         _______ _______ _______ _____ _____    ______ ____

>  <TORSDO>
F 4

$$$$
=
 OpenBabel11052413163D

 31 34  0  0  1  0  0  0  0  0999 V2000
  190.9050  176.7530  146.2810 C   0  0  0  0  0  0  0  0  0  0  0  0
  188.1140  178.0620  143.9970 C   0  0  1  0  0  3  0  0  0  0  0  0
  186.9050  178.1450  144.9230 C   0  0  0  0  0  0  0  0  0  0  0  0
  186.0430  178.4390  147.2910 C   0  0  0  0  0  2  0  0  0  0  0  0
  189.3470  177.3320  144.5030 C   0  0  0  0  0  0  0  0  0  0  0  0
  191.7280  176.1040  145.3590 C   0  0  0  0  0  3  0  0  0  0  0  0
  187.0260  177.9280  146.3380 N   0  0  0  0  0  2  0  0  0  0  0  0
  188.8580  177.5170  141.6550 C   0  0  2  0  0  3  0  0  0  0  0  0
  191.2790  176.7850  147.7180 C   0  0  0  0  0  1  0  0  0  0  0  0
  185.5710  178.7560  142.9530 C   0  0  0  0  0  3  0  0  0  0  0  0
  184.7100  178.4320  146.7000 N   0  0  0  0  0  2  0  0  0  0  0  0
  189.9160  176.7290  142.2030 O   0  0  0  0  0  0  0  0  0  0  0  0
  187.6740  177.5310  142.6190 C   0  0  2  0  0  3  0  0  0  0  0  0
  189.7290  177.3740  145.8520 C   0  0  0  0  0  3  0  0  0  0  0  0
  183.3980  178.8670  144.8290 O   0  0  0  0  0  0  0  0  0  0  0  0
  190.2150  176.7220  143.5700 C   0  0  0  0  0  0  0  0  0  0  0  0
  191.3850  176.0930  144.0050 C   0  0  0  0  0  3  0  0  0  0  0  0
  186.5120  178.3380  142.1040 C   0  0  0  0  0  3  0  0  0  0  0  0
  185.7130  178.5190  144.4070 C   0  0  0  0  0  0  0  0  0  0  0  0
  184.5440  178.6340  145.2970 C   0  0  0  0  0  0  0  0  0  0  0  0
  188.4610  176.9490  140.2980 C   0  0  0  0  0  2  0  0  0  0  0  0
  189.8040  178.3650  137.0850 F   0  0  0  0  0  0  0  0  0  0  0  0
  190.9550  175.9730  139.4180 O   0  0  0  0  0  0  0  0  0  0  0  0
  188.1770  179.0030  139.1490 O   0  0  0  0  0  0  0  0  0  0  0  0
  188.8080  177.9160  139.2120 C   0  0  0  0  0  0  0  0  0  0  0  0
  190.7180  176.5200  138.3080 C   0  0  0  0  0  0  0  0  0  0  0  0
  189.7810  177.6030  138.2010 N   0  0  0  0  0  0  0  0  0  0  0  0
  191.4220  176.0210  137.0920 C   0  0  0  0  0  2  0  0  0  0  0  0
  192.8610  175.7810  137.3950 C   0  0  0  0  0  0  0  0  0  0  0  0
  193.6280  176.7540  137.6190 O   0  0  0  0  0  0  0  0  0  0  0  0
  193.3600  174.4510  137.4720 N   0  0  0  0  0  1  0  0  0  0  0  0
  1  9  1  0  0  0  0
  2  5  1  1  0  0  0
  2  3  1  0  0  0  0
  3  7  1  0  0  0  0
  5 14  2  0  0  0  0
  6  1  2  0  0  0  0
  7  4  1  0  0  0  0
  8 21  1  6  0  0  0
  8 12  1  0  0  0  0
  8 13  1  0  0  0  0
 10 19  1  0  0  0  0
 11  4  1  0  0  0  0
 12 16  1  0  0  0  0
 13 18  1  6  0  0  0
 13  2  1  0  0  0  0
 14  1  1  0  0  0  0
 15 20  2  0  0  0  0
 16 17  2  0  0  0  0
 16  5  1  0  0  0  0
 17  6  1  0  0  0  0
 18 10  2  0  0  0  0
 19  3  2  0  0  0  0
 19 20  1  0  0  0  0
 20 11  1  0  0  0  0
 22 27  1  0  0  0  0
 24 25  2  0  0  0  0
 25 21  1  0  0  0  0
 26 23  2  0  0  0  0
 27 26  1  0  0  0  0
 27 25  1  0  0  0  0
 28 29  1  0  0  0  0
 28 26  1  0  0  0  0
 29 31  1  0  0  0  0
 29 30  2  0  0  0  0
M  END
>  <MODEL>
4

>  <REMARK>
 VINA RESULT:     -10.1      1.944      4.359
  Name = 
  4 active torsions:
  status: ('A' for Active; 'I' for Inactive)
    1  A    between atoms: C_1  and  C_24
    2  A    between atoms: C_9  and  C_23
    3  A    between atoms: C_15  and  C_23
    4  A    between atoms: C_19  and  C_24
                            x       y       z     vdW  Elec       q    Type
                         _______ _______ _______ _____ _____    ______ ____

>  <TORSDO>
F 4

$$$$
=
 OpenBabel11052413163D

 31 34  0  0  1  0  0  0  0  0999 V2000
  187.2160  177.8470  147.1510 C   0  0  0  0  0  0  0  0  0  0  0  0
  187.7150  177.5020  143.3630 C   0  0  1  0  0  3  0  0  0  0  0  0
  189.2320  177.5040  143.2020 C   0  0  0  0  0  0  0  0  0  0  0  0
  191.4910  176.9950  144.2370 C   0  0  0  0  0  2  0  0  0  0  0  0
  187.1450  177.8850  144.7180 C   0  0  0  0  0  0  0  0  0  0  0  0
  185.9660  178.4670  147.2040 C   0  0  0  0  0  3  0  0  0  0  0  0
  190.1080  177.4550  144.3390 N   0  0  0  0  0  2  0  0  0  0  0  0
  185.5520  178.2710  142.3320 C   0  0  2  0  0  3  0  0  0  0  0  0
  187.9310  177.5050  148.4080 C   0  0  0  0  0  1  0  0  0  0  0  0
  188.8680  177.4980  140.7720 C   0  0  0  0  0  3  0  0  0  0  0  0
  192.0560  177.3590  142.9430 N   0  0  0  0  0  2  0  0  0  0  0  0
  185.1360  178.7370  143.6160 O   0  0  0  0  0  0  0  0  0  0  0  0
  187.0750  178.3290  142.2310 C   0  0  2  0  0  3  0  0  0  0  0  0
  187.7940  177.5460  145.9150 C   0  0  0  0  0  3  0  0  0  0  0  0
  191.7380  177.5030  140.6430 O   0  0  0  0  0  0  0  0  0  0  0  0
  185.8570  178.4600  144.7840 C   0  0  0  0  0  0  0  0  0  0  0  0
  185.2860  178.7680  146.0220 C   0  0  0  0  0  3  0  0  0  0  0  0
  187.5890  177.8600  140.8970 C   0  0  0  0  0  3  0  0  0  0  0  0
  189.7560  177.4600  141.9570 C   0  0  0  0  0  0  0  0  0  0  0  0
  191.2190  177.4280  141.7870 C   0  0  0  0  0  0  0  0  0  0  0  0
  184.8930  179.1220  141.2530 C   0  0  0  0  0  2  0  0  0  0  0  0
  182.8490  176.8860  139.0280 F   0  0  0  0  0  0  0  0  0  0  0  0
  185.5380  179.1190  138.5090 O   0  0  0  0  0  0  0  0  0  0  0  0
  182.6900  178.2530  141.3570 O   0  0  0  0  0  0  0  0  0  0  0  0
  183.7290  178.3950  140.6610 C   0  0  0  0  0  0  0  0  0  0  0  0
  184.8190  178.0900  138.3950 C   0  0  0  0  0  0  0  0  0  0  0  0
  183.7960  177.7920  139.3570 N   0  0  0  0  0  0  0  0  0  0  0  0
  185.0490  177.1720  137.2430 C   0  0  0  0  0  2  0  0  0  0  0  0
  186.4960  177.1450  136.8900 C   0  0  0  0  0  0  0  0  0  0  0  0
  187.3040  176.4840  137.5930 O   0  0  0  0  0  0  0  0  0  0  0  0
  186.9600  177.8340  135.7340 N   0  0  0  0  0  1  0  0  0  0  0  0
  1  6  1  0  0  0  0
  1  9  1  0  0  0  0
  2  3  1  1  0  0  0
  2  5  1  0  0  0  0
  3  7  1  0  0  0  0
  4  7  1  0  0  0  0
  5 16  2  0  0  0  0
  5 14  1  0  0  0  0
  8 21  1  6  0  0  0
  8 12  1  0  0  0  0
 10 18  2  0  0  0  0
 10 19  1  0  0  0  0
 11  4  1  0  0  0  0
 12 16  1  0  0  0  0
 13 18  1  6  0  0  0
 13  8  1  0  0  0  0
 13  2  1  0  0  0  0
 14  1  2  0  0  0  0
 15 20  2  0  0  0  0
 16 17  1  0  0  0  0
 17  6  2  0  0  0  0
 19  3  2  0  0  0  0
 20 19  1  0  0  0  0
 20 11  1  0  0  0  0
 22 27  1  0  0  0  0
 25 21  1  0  0  0  0
 25 24  2  0  0  0  0
 26 23  2  0  0  0  0
 26 27  1  0  0  0  0
 27 25  1  0  0  0  0
 28 26  1  0  0  0  0
 29 28  1  0  0  0  0
 29 30  2  0  0  0  0
 31 29  1  0  0  0  0
M  END
>  <MODEL>
5

>  <REMARK>
 VINA RESULT:     -10.0      2.975      4.641
  Name = 
  4 active torsions:
  status: ('A' for Active; 'I' for Inactive)
    1  A    between atoms: C_1  and  C_24
    2  A    between atoms: C_9  and  C_23
    3  A    between atoms: C_15  and  C_23
    4  A    between atoms: C_19  and  C_24
                            x       y       z     vdW  Elec       q    Type
                         _______ _______ _______ _____ _____    ______ ____

>  <TORSDO>
F 4

$$$$
=
 OpenBabel11052413163D

 31 34  0  0  1  0  0  0  0  0999 V2000
  183.6690  179.1020  140.1570 C   0  0  0  0  0  0  0  0  0  0  0  0
  186.9240  178.5980  142.1230 C   0  0  1  0  0  3  0  0  0  0  0  0
  187.9350  178.2150  141.0470 C   0  0  0  0  0  0  0  0  0  0  0  0
  188.6270  178.3750  138.6120 C   0  0  0  0  0  2  0  0  0  0  0  0
  185.4540  178.6220  141.7390 C   0  0  0  0  0  0  0  0  0  0  0  0
  182.7140  178.8090  141.1320 C   0  0  0  0  0  3  0  0  0  0  0  0
  187.6040  178.2750  139.6500 N   0  0  0  0  0  2  0  0  0  0  0  0
  186.2090  178.1680  144.4980 C   0  0  2  0  0  3  0  0  0  0  0  0
  183.2390  179.5020  138.7910 C   0  0  0  0  0  1  0  0  0  0  0  0
  189.5580  177.8440  142.8540 C   0  0  0  0  0  3  0  0  0  0  0  0
  189.8300  177.6520  139.0090 N   0  0  0  0  0  2  0  0  0  0  0  0
  184.8590  178.0630  144.0440 O   0  0  0  0  0  0  0  0  0  0  0  0
  187.1610  177.7420  143.3820 C   0  0  2  0  0  3  0  0  0  0  0  0
  185.0290  179.0220  140.4640 C   0  0  0  0  0  3  0  0  0  0  0  0
  191.3380  177.1520  140.7070 O   0  0  0  0  0  0  0  0  0  0  0  0
  184.4810  178.3830  142.7350 C   0  0  0  0  0  0  0  0  0  0  0  0
  183.1200  178.4550  142.4200 C   0  0  0  0  0  3  0  0  0  0  0  0
  188.6080  177.8180  143.7910 C   0  0  0  0  0  3  0  0  0  0  0  0
  189.1960  177.9000  141.4190 C   0  0  0  0  0  0  0  0  0  0  0  0
  190.1910  177.5600  140.3870 C   0  0  0  0  0  0  0  0  0  0  0  0
  186.3880  177.3040  145.7400 C   0  0  0  0  0  2  0  0  0  0  0  0
  187.9970  179.2550  148.5210 F   0  0  0  0  0  0  0  0  0  0  0  0
  188.6540  176.1540  146.9590 O   0  0  0  0  0  0  0  0  0  0  0  0
  185.6070  178.9040  147.3040 O   0  0  0  0  0  0  0  0  0  0  0  0
  186.5620  178.1660  146.9480 C   0  0  0  0  0  0  0  0  0  0  0  0
  188.8680  177.2730  147.4970 C   0  0  0  0  0  0  0  0  0  0  0  0
  187.8090  178.2300  147.6610 N   0  0  0  0  0  0  0  0  0  0  0  0
  190.2460  177.6010  147.9610 C   0  0  0  0  0  2  0  0  0  0  0  0
  191.2470  176.8000  147.2010 C   0  0  0  0  0  0  0  0  0  0  0  0
  191.7120  175.7410  147.6960 O   0  0  0  0  0  0  0  0  0  0  0  0
  191.6460  177.2100  145.8990 N   0  0  0  0  0  1  0  0  0  0  0  0
  1 14  2  0  0  0  0
  1  6  1  0  0  0  0
  2  3  1  6  0  0  0
  2 13  1  0  0  0  0
  3 19  2  0  0  0  0
  4 11  1  0  0  0  0
  4  7  1  0  0  0  0
  5  2  1  0  0  0  0
  5 16  2  0  0  0  0
  6 17  2  0  0  0  0
  7  3  1  0  0  0  0
  8 21  1  1  0  0  0
  9  1  1  0  0  0  0
 10 18  2  0  0  0  0
 11 20  1  0  0  0  0
 12  8  1  0  0  0  0
 13 18  1  1  0  0  0
 13  8  1  0  0  0  0
 14  5  1  0  0  0  0
 16 12  1  0  0  0  0
 17 16  1  0  0  0  0
 19 10  1  0  0  0  0
 20 15  2  0  0  0  0
 20 19  1  0  0  0  0
 21 25  1  0  0  0  0
 23 26  2  0  0  0  0
 25 24  2  0  0  0  0
 25 27  1  0  0  0  0
 26 27  1  0  0  0  0
 26 28  1  0  0  0  0
 27 22  1  0  0  0  0
 29 30  2  0  0  0  0
 29 28  1  0  0  0  0
 31 29  1  0  0  0  0
M  END
>  <MODEL>
6

>  <REMARK>
 VINA RESULT:     -10.0      3.305      7.264
  Name = 
  4 active torsions:
  status: ('A' for Active; 'I' for Inactive)
    1  A    between atoms: C_1  and  C_24
    2  A    between atoms: C_9  and  C_23
    3  A    between atoms: C_15  and  C_23
    4  A    between atoms: C_19  and  C_24
                            x       y       z     vdW  Elec       q    Type
                         _______ _______ _______ _____ _____    ______ ____

>  <TORSDO>
F 4

$$$$
=
 OpenBabel11052413163D

 31 34  0  0  1  0  0  0  0  0999 V2000
  190.8170  176.8870  146.2660 C   0  0  0  0  0  0  0  0  0  0  0  0
  188.0670  178.1730  143.9210 C   0  0  1  0  0  3  0  0  0  0  0  0
  186.8290  178.2160  144.8120 C   0  0  0  0  0  0  0  0  0  0  0  0
  185.8930  178.4530  147.1580 C   0  0  0  0  0  2  0  0  0  0  0  0
  189.2990  177.4610  144.4520 C   0  0  0  0  0  0  0  0  0  0  0  0
  191.6800  176.2700  145.3590 C   0  0  0  0  0  3  0  0  0  0  0  0
  186.9140  177.9790  146.2270 N   0  0  0  0  0  2  0  0  0  0  0  0
  188.8900  177.6820  141.5940 C   0  0  2  0  0  3  0  0  0  0  0  0
  191.1480  176.9040  147.7140 C   0  0  0  0  0  1  0  0  0  0  0  0
  185.5400  178.8300  142.8130 C   0  0  0  0  0  3  0  0  0  0  0  0
  184.5780  178.4280  146.5290 N   0  0  0  0  0  2  0  0  0  0  0  0
  189.9480  176.9080  142.1610 O   0  0  0  0  0  0  0  0  0  0  0  0
  187.6780  177.6550  142.5230 C   0  0  2  0  0  3  0  0  0  0  0  0
  189.6410  177.4900  145.8120 C   0  0  0  0  0  3  0  0  0  0  0  0
  183.3120  178.8650  144.6270 O   0  0  0  0  0  0  0  0  0  0  0  0
  190.2070  176.8850  143.5360 C   0  0  0  0  0  0  0  0  0  0  0  0
  191.3780  176.2740  143.9950 C   0  0  0  0  0  3  0  0  0  0  0  0
  186.5140  178.4460  141.9860 C   0  0  0  0  0  3  0  0  0  0  0  0
  185.6450  178.5720  144.2680 C   0  0  0  0  0  0  0  0  0  0  0  0
  184.4480  178.6480  145.1240 C   0  0  0  0  0  0  0  0  0  0  0  0
  188.5450  177.1280  140.2170 C   0  0  0  0  0  2  0  0  0  0  0  0
  189.8060  178.4520  136.9320 F   0  0  0  0  0  0  0  0  0  0  0  0
  190.5560  175.6320  138.9270 O   0  0  0  0  0  0  0  0  0  0  0  0
  188.6800  179.2870  139.2470 O   0  0  0  0  0  0  0  0  0  0  0  0
  189.0000  178.0720  139.1520 C   0  0  0  0  0  0  0  0  0  0  0  0
  190.3370  176.3260  137.8970 C   0  0  0  0  0  0  0  0  0  0  0  0
  189.7190  177.6190  137.9930 N   0  0  0  0  0  0  0  0  0  0  0  0
  190.7240  175.7810  136.5640 C   0  0  0  0  0  2  0  0  0  0  0  0
  189.5240  175.2490  135.8600 C   0  0  0  0  0  0  0  0  0  0  0  0
  189.0400  174.1360  136.1950 O   0  0  0  0  0  0  0  0  0  0  0  0
  188.9000  176.0150  134.8360 N   0  0  0  0  0  1  0  0  0  0  0  0
  1  9  1  0  0  0  0
  2  5  1  1  0  0  0
  2  3  1  0  0  0  0
  3  7  1  0  0  0  0
  5 14  2  0  0  0  0
  6  1  2  0  0  0  0
  7  4  1  0  0  0  0
  8 21  1  6  0  0  0
  8 12  1  0  0  0  0
  8 13  1  0  0  0  0
 10 19  1  0  0  0  0
 11  4  1  0  0  0  0
 12 16  1  0  0  0  0
 13 18  1  6  0  0  0
 13  2  1  0  0  0  0
 14  1  1  0  0  0  0
 15 20  2  0  0  0  0
 16 17  2  0  0  0  0
 16  5  1  0  0  0  0
 17  6  1  0  0  0  0
 18 10  2  0  0  0  0
 19  3  2  0  0  0  0
 19 20  1  0  0  0  0
 20 11  1  0  0  0  0
 22 27  1  0  0  0  0
 25 24  2  0  0  0  0
 25 21  1  0  0  0  0
 26 27  1  0  0  0  0
 26 23  2  0  0  0  0
 27 25  1  0  0  0  0
 28 26  1  0  0  0  0
 29 30  2  0  0  0  0
 29 28  1  0  0  0  0
 31 29  1  0  0  0  0
M  END
>  <MODEL>
7

>  <REMARK>
 VINA RESULT:      -9.8      1.819      4.267
  Name = 
  4 active torsions:
  status: ('A' for Active; 'I' for Inactive)
    1  A    between atoms: C_1  and  C_24
    2  A    between atoms: C_9  and  C_23
    3  A    between atoms: C_15  and  C_23
    4  A    between atoms: C_19  and  C_24
                            x       y       z     vdW  Elec       q    Type
                         _______ _______ _______ _____ _____    ______ ____

>  <TORSDO>
F 4

$$$$
=
 OpenBabel11052413163D

 31 34  0  0  1  0  0  0  0  0999 V2000
  187.7220  177.6510  147.0280 C   0  0  0  0  0  0  0  0  0  0  0  0
  187.8160  177.4380  143.1990 C   0  0  1  0  0  3  0  0  0  0  0  0
  189.3060  177.4590  142.8760 C   0  0  0  0  0  0  0  0  0  0  0  0
  191.6660  176.9350  143.6470 C   0  0  0  0  0  2  0  0  0  0  0  0
  187.3920  177.7700  144.6190 C   0  0  0  0  0  0  0  0  0  0  0  0
  186.4820  178.2570  147.2350 C   0  0  0  0  0  3  0  0  0  0  0  0
  190.2990  177.3800  143.9120 N   0  0  0  0  0  2  0  0  0  0  0  0
  185.5510  178.2230  142.4310 C   0  0  2  0  0  3  0  0  0  0  0  0
  188.5690  177.2730  148.1880 C   0  0  0  0  0  1  0  0  0  0  0  0
  188.6850  177.5320  140.5010 C   0  0  0  0  0  3  0  0  0  0  0  0
  192.0870  177.3480  142.3130 N   0  0  0  0  0  2  0  0  0  0  0  0
  185.2720  178.6410  143.7680 O   0  0  0  0  0  0  0  0  0  0  0  0
  187.0540  178.2970  142.1710 C   0  0  2  0  0  3  0  0  0  0  0  0
  188.1660  177.3970  145.7280 C   0  0  0  0  0  3  0  0  0  0  0  0
  191.5250  177.5670  140.0670 O   0  0  0  0  0  0  0  0  0  0  0  0
  186.1150  178.3310  144.8420 C   0  0  0  0  0  0  0  0  0  0  0  0
  185.6780  178.5920  146.1440 C   0  0  0  0  0  3  0  0  0  0  0  0
  187.4250  177.8780  140.7730 C   0  0  0  0  0  3  0  0  0  0  0  0
  189.6950  177.4610  141.5820 C   0  0  0  0  0  0  0  0  0  0  0  0
  191.1320  177.4490  141.2570 C   0  0  0  0  0  0  0  0  0  0  0  0
  184.7760  179.1040  141.4590 C   0  0  0  0  0  2  0  0  0  0  0  0
  181.4440  177.9310  140.1720 F   0  0  0  0  0  0  0  0  0  0  0  0
  182.5930  179.2710  143.2330 O   0  0  0  0  0  0  0  0  0  0  0  0
  184.0970  177.5410  139.8110 O   0  0  0  0  0  0  0  0  0  0  0  0
  183.7360  178.2990  140.7490 C   0  0  0  0  0  0  0  0  0  0  0  0
  181.8400  179.0630  142.2440 C   0  0  0  0  0  0  0  0  0  0  0  0
  182.3370  178.4270  141.0560 N   0  0  0  0  0  0  0  0  0  0  0  0
  180.4150  179.4960  142.3160 C   0  0  0  0  0  2  0  0  0  0  0  0
  179.5960  178.4510  142.9920 C   0  0  0  0  0  0  0  0  0  0  0  0
  179.3050  177.3880  142.3840 O   0  0  0  0  0  0  0  0  0  0  0  0
  179.1760  178.6360  144.3380 N   0  0  0  0  0  1  0  0  0  0  0  0
  1  6  1  0  0  0  0
  1  9  1  0  0  0  0
  2  3  1  1  0  0  0
  2  5  1  0  0  0  0
  3  7  1  0  0  0  0
  4  7  1  0  0  0  0
  5 16  2  0  0  0  0
  5 14  1  0  0  0  0
  8 21  1  6  0  0  0
  8 12  1  0  0  0  0
 10 18  2  0  0  0  0
 10 19  1  0  0  0  0
 11  4  1  0  0  0  0
 12 16  1  0  0  0  0
 13 18  1  6  0  0  0
 13  8  1  0  0  0  0
 13  2  1  0  0  0  0
 14  1  2  0  0  0  0
 15 20  2  0  0  0  0
 16 17  1  0  0  0  0
 17  6  2  0  0  0  0
 19  3  2  0  0  0  0
 20 19  1  0  0  0  0
 20 11  1  0  0  0  0
 22 27  1  0  0  0  0
 24 25  2  0  0  0  0
 25 27  1  0  0  0  0
 25 21  1  0  0  0  0
 26 28  1  0  0  0  0
 26 23  2  0  0  0  0
 27 26  1  0  0  0  0
 28 29  1  0  0  0  0
 29 31  1  0  0  0  0
 30 29  2  0  0  0  0
M  END
>  <MODEL>
8

>  <REMARK>
 VINA RESULT:      -9.6      3.892      6.970
  Name = 
  4 active torsions:
  status: ('A' for Active; 'I' for Inactive)
    1  A    between atoms: C_1  and  C_24
    2  A    between atoms: C_9  and  C_23
    3  A    between atoms: C_15  and  C_23
    4  A    between atoms: C_19  and  C_24
                            x       y       z     vdW  Elec       q    Type
                         _______ _______ _______ _____ _____    ______ ____

>  <TORSDO>
F 4

$$$$
=
 OpenBabel11052413163D

 31 34  0  0  1  0  0  0  0  0999 V2000
  184.5380  178.6810  139.3580 C   0  0  0  0  0  0  0  0  0  0  0  0
  186.2270  177.7790  142.6820 C   0  0  1  0  0  3  0  0  0  0  0  0
  185.2410  178.2810  143.7310 C   0  0  0  0  0  0  0  0  0  0  0  0
  182.8310  178.8190  144.3140 C   0  0  0  0  0  2  0  0  0  0  0  0
  186.0050  178.2010  141.2390 C   0  0  0  0  0  0  0  0  0  0  0  0
  185.6460  178.8190  138.5190 C   0  0  0  0  0  3  0  0  0  0  0  0
  183.9420  178.7740  143.3650 N   0  0  0  0  0  2  0  0  0  0  0  0
  188.6700  177.5140  142.1390 C   0  0  2  0  0  3  0  0  0  0  0  0
  183.1680  178.8730  138.8170 C   0  0  0  0  0  1  0  0  0  0  0  0
  186.8980  177.6590  145.4340 C   0  0  0  0  0  3  0  0  0  0  0  0
  183.3210  179.0890  145.6600 N   0  0  0  0  0  2  0  0  0  0  0  0
  188.4130  178.0520  140.8410 O   0  0  0  0  0  0  0  0  0  0  0  0
  187.6670  178.0820  143.1400 C   0  0  2  0  0  3  0  0  0  0  0  0
  184.7180  178.3600  140.7050 C   0  0  0  0  0  3  0  0  0  0  0  0
  184.9300  178.6470  147.2800 O   0  0  0  0  0  0  0  0  0  0  0  0
  187.1160  178.2870  140.3700 C   0  0  0  0  0  0  0  0  0  0  0  0
  186.9320  178.6170  139.0240 C   0  0  0  0  0  3  0  0  0  0  0  0
  187.8820  177.5650  144.5380 C   0  0  0  0  0  3  0  0  0  0  0  0
  185.5670  178.1740  145.0380 C   0  0  0  0  0  0  0  0  0  0  0  0
  184.6100  178.6260  146.0630 C   0  0  0  0  0  0  0  0  0  0  0  0
  190.1020  177.8430  142.5420 C   0  0  0  0  0  2  0  0  0  0  0  0
  192.0040  174.7920  143.6400 F   0  0  0  0  0  0  0  0  0  0  0  0
  191.5370  178.0360  144.9600 O   0  0  0  0  0  0  0  0  0  0  0  0
  191.0760  176.0040  141.4060 O   0  0  0  0  0  0  0  0  0  0  0  0
  190.9460  176.6100  142.5020 C   0  0  0  0  0  0  0  0  0  0  0  0
  191.6620  176.7830  144.9250 C   0  0  0  0  0  0  0  0  0  0  0  0
  191.5430  176.0610  143.6890 N   0  0  0  0  0  0  0  0  0  0  0  0
  191.9310  176.0470  146.1940 C   0  0  0  0  0  2  0  0  0  0  0  0
  191.2400  176.7180  147.3310 C   0  0  0  0  0  0  0  0  0  0  0  0
  191.9140  177.2780  148.2360 O   0  0  0  0  0  0  0  0  0  0  0  0
  189.8190  176.7610  147.3750 N   0  0  0  0  0  1  0  0  0  0  0  0
  1 14  1  0  0  0  0
  2  5  1  6  0  0  0
  2 13  1  0  0  0  0
  2  3  1  0  0  0  0
  3 19  2  0  0  0  0
  4 11  1  0  0  0  0
  6 17  1  0  0  0  0
  6  1  2  0  0  0  0
  7  3  1  0  0  0  0
  7  4  1  0  0  0  0
  8 21  1  1  0  0  0
  8 13  1  0  0  0  0
  9  1  1  0  0  0  0
 11 20  1  0  0  0  0
 12  8  1  0  0  0  0
 13 18  1  1  0  0  0
 14  5  2  0  0  0  0
 16 12  1  0  0  0  0
 16  5  1  0  0  0  0
 17 16  2  0  0  0  0
 18 10  2  0  0  0  0
 19 10  1  0  0  0  0
 19 20  1  0  0  0  0
 20 15  2  0  0  0  0
 22 27  1  0  0  0  0
 24 25  2  0  0  0  0
 25 21  1  0  0  0  0
 25 27  1  0  0  0  0
 26 23  2  0  0  0  0
 26 28  1  0  0  0  0
 27 26  1  0  0  0  0
 28 29  1  0  0  0  0
 29 31  1  0  0  0  0
 29 30  2  0  0  0  0
M  END
>  <MODEL>
9

>  <REMARK>
 VINA RESULT:      -9.5      3.406      6.293
  Name = 
  4 active torsions:
  status: ('A' for Active; 'I' for Inactive)
    1  A    between atoms: C_1  and  C_24
    2  A    between atoms: C_9  and  C_23
    3  A    between atoms: C_15  and  C_23
    4  A    between atoms: C_19  and  C_24
                            x       y       z     vdW  Elec       q    Type
                         _______ _______ _______ _____ _____    ______ ____

>  <TORSDO>
F 4

$$$$
