=
 OpenBabel11052416463D

 32 38  0  0  1  0  0  0  0  0999 V2000
  188.2730  176.7530  144.4610 C   0  0  0  0  0  3  0  0  0  0  0  0
  190.0350  177.4230  139.7460 C   0  0  0  0  0  0  0  0  0  0  0  0
  186.0630  179.0040  137.4350 O   0  0  0  0  0  0  0  0  0  0  0  0
  186.0310  177.6100  137.2450 C   0  0  2  0  0  3  0  0  0  0  0  0
  191.6860  176.3390  138.1190 C   0  0  0  0  0  0  0  0  0  0  0  0
  192.9620  176.3360  138.7190 C   0  0  0  0  0  0  0  0  0  0  0  0
  190.1960  177.3660  142.1400 C   0  0  0  0  0  0  0  0  0  0  0  0
  188.0790  178.1490  141.0340 C   0  0  0  0  0  3  0  0  0  0  0  0
  192.3960  174.7020  136.4880 C   0  0  0  0  0  0  0  0  0  0  0  0
  187.9740  177.0320  143.1930 C   0  0  0  0  0  3  0  0  0  0  0  0
  186.4410  178.2170  138.5390 C   0  0  1  0  0  3  0  0  0  0  0  0
  188.6460  177.9050  139.8510 C   0  0  0  0  0  0  0  0  0  0  0  0
  187.9500  178.0930  138.5430 C   0  0  1  0  0  3  0  0  0  0  0  0
  189.6640  177.1250  137.2500 C   0  0  2  0  0  3  0  0  0  0  0  0
  193.6440  174.6230  137.1190 C   0  0  0  0  0  3  0  0  0  0  0  0
  190.6800  177.3440  144.6000 C   0  0  0  0  0  3  0  0  0  0  0  0
  188.8040  177.9240  142.3330 C   0  0  0  0  0  0  0  0  0  0  0  0
  193.9310  175.4510  138.2180 C   0  0  0  0  0  3  0  0  0  0  0  0
  191.0190  177.1800  143.1720 C   0  0  0  0  0  3  0  0  0  0  0  0
  189.4780  177.2050  145.1840 C   0  0  0  0  0  0  0  0  0  0  0  0
  187.3260  177.1340  136.5940 C   0  0  0  0  0  2  0  0  0  0  0  0
  188.2720  176.9700  137.6840 N   0  0  2  0  0  0  0  0  0  0  0  0
  190.1160  175.9110  136.4140 C   0  0  0  0  0  2  0  0  0  0  0  0
  190.7140  177.1520  140.8200 N   0  0  0  0  0  2  0  0  0  0  0  0
  193.4650  177.5030  139.9300 Cl  0  0  0  0  0  0  0  0  0  0  0  0
  192.1240  173.9210  135.3720 O   0  0  0  0  0  1  0  0  0  0  0  0
  190.5680  177.1680  138.4230 N   0  0  0  0  0  0  0  0  0  0  0  0
  191.4440  175.5860  136.9950 C   0  0  0  0  0  0  0  0  0  0  0  0
  188.2270  177.8780  147.3300 C   0  0  0  0  0  0  0  0  0  0  0  0
  189.3480  177.3500  146.6070 N   0  0  0  0  0  2  0  0  0  0  0  0
  187.1750  178.2360  146.7370 O   0  0  0  0  0  0  0  0  0  0  0  0
  188.3060  177.9930  148.8090 C   0  0  0  0  0  1  0  0  0  0  0  0
  1 20  1  0  0  0  0
  2 12  2  0  0  0  0
  2 24  1  0  0  0  0
  4 21  1  6  0  0  0
  4  3  1  0  0  0  0
  4 11  1  0  0  0  0
  5 27  1  0  0  0  0
  5  6  1  0  0  0  0
  6 25  1  0  0  0  0
  7 17  1  0  0  0  0
  7 19  2  0  0  0  0
  8 17  2  0  0  0  0
  9 28  1  0  0  0  0
  9 15  2  0  0  0  0
 10  1  2  0  0  0  0
 11  3  1  6  0  0  0
 11 13  1  0  0  0  0
 12  8  1  0  0  0  0
 13 12  1  1  0  0  0
 14 23  1  6  0  0  0
 14 22  1  0  0  0  0
 14 27  1  0  0  0  0
 15 18  1  0  0  0  0
 16 20  2  0  0  0  0
 17 10  1  0  0  0  0
 18  6  2  0  0  0  0
 19 16  1  0  0  0  0
 20 30  1  0  0  0  0
 22 21  1  6  0  0  0
 22 13  1  0  0  0  0
 23 28  1  0  0  0  0
 24  7  1  0  0  0  0
 26  9  1  0  0  0  0
 27  2  1  0  0  0  0
 28  5  2  0  0  0  0
 29 32  1  0  0  0  0
 30 29  1  0  0  0  0
 31 29  2  0  0  0  0
M  END
>  <MODEL>
1

>  <REMARK>
 VINA RESULT:     -10.1      0.000      0.000
  Name = 
  1 active torsions:
  status: ('A' for Active; 'I' for Inactive)
    1  A    between atoms: N_10  and  C_24
                            x       y       z     vdW  Elec       q    Type
                         _______ _______ _______ _____ _____    ______ ____

>  <TORSDO>
F 1

$$$$
=
 OpenBabel11052416463D

 32 38  0  0  1  0  0  0  0  0999 V2000
  187.8320  176.8960  144.7160 C   0  0  0  0  0  3  0  0  0  0  0  0
  186.2620  178.4740  140.1530 C   0  0  0  0  0  0  0  0  0  0  0  0
  181.5630  179.3820  140.9980 O   0  0  0  0  0  0  0  0  0  0  0  0
  181.5740  178.0470  140.5540 C   0  0  2  0  0  3  0  0  0  0  0  0
  186.6810  177.9780  137.6780 C   0  0  0  0  0  0  0  0  0  0  0  0
  188.0480  178.1910  137.4080 C   0  0  0  0  0  0  0  0  0  0  0  0
  187.8570  178.1830  141.9230 C   0  0  0  0  0  0  0  0  0  0  0  0
  185.4360  178.5950  142.4590 C   0  0  0  0  0  3  0  0  0  0  0  0
  186.4200  176.7370  135.6200 C   0  0  0  0  0  0  0  0  0  0  0  0
  186.7940  177.2430  143.9590 C   0  0  0  0  0  3  0  0  0  0  0  0
  182.6200  178.5790  141.4660 C   0  0  1  0  0  3  0  0  0  0  0  0
  185.1840  178.6190  141.1480 C   0  0  0  0  0  0  0  0  0  0  0  0
  183.8190  178.7950  140.5690 C   0  0  1  0  0  3  0  0  0  0  0  0
  184.4790  178.3870  138.3450 C   0  0  2  0  0  3  0  0  0  0  0  0
  187.7930  176.8670  135.3740 C   0  0  0  0  0  3  0  0  0  0  0  0
  189.7420  177.9890  143.5650 C   0  0  0  0  0  3  0  0  0  0  0  0
  186.8210  178.3900  143.0060 C   0  0  0  0  0  0  0  0  0  0  0  0
  188.5990  177.6080  136.2560 C   0  0  0  0  0  3  0  0  0  0  0  0
  189.1530  178.0680  142.2130 C   0  0  0  0  0  3  0  0  0  0  0  0
  189.1700  177.5200  144.6880 C   0  0  0  0  0  0  0  0  0  0  0  0
  182.2440  177.9490  139.1870 C   0  0  0  0  0  2  0  0  0  0  0  0
  183.6690  177.8770  139.4560 N   0  0  2  0  0  0  0  0  0  0  0  0
  184.4550  177.4070  137.1540 C   0  0  0  0  0  2  0  0  0  0  0  0
  187.4800  178.2410  140.5400 N   0  0  0  0  0  2  0  0  0  0  0  0
  189.0560  179.2950  138.3290 Cl  0  0  0  0  0  0  0  0  0  0  0  0
  185.6100  176.0470  134.7270 O   0  0  0  0  0  1  0  0  0  0  0  0
  185.8990  178.4960  138.7500 N   0  0  0  0  0  0  0  0  0  0  0  0
  185.8870  177.3230  136.7680 C   0  0  0  0  0  0  0  0  0  0  0  0
  191.1130  176.7130  146.1690 C   0  0  0  0  0  0  0  0  0  0  0  0
  189.9210  177.4690  145.9100 N   0  0  0  0  0  2  0  0  0  0  0  0
  191.6610  176.0240  145.2690 O   0  0  0  0  0  0  0  0  0  0  0  0
  191.7180  176.7530  147.5250 C   0  0  0  0  0  1  0  0  0  0  0  0
  2 24  1  0  0  0  0
  2 12  2  0  0  0  0
  4 21  1  6  0  0  0
  4  3  1  0  0  0  0
  4 11  1  0  0  0  0
  5 27  1  0  0  0  0
  6  5  1  0  0  0  0
  6 25  1  0  0  0  0
  7 19  2  0  0  0  0
  7 17  1  0  0  0  0
  8 17  2  0  0  0  0
  9 28  1  0  0  0  0
 10  1  2  0  0  0  0
 11  3  1  6  0  0  0
 12  8  1  0  0  0  0
 13 12  1  1  0  0  0
 13 11  1  0  0  0  0
 14 23  1  6  0  0  0
 14 27  1  0  0  0  0
 14 22  1  0  0  0  0
 15  9  2  0  0  0  0
 15 18  1  0  0  0  0
 16 20  2  0  0  0  0
 17 10  1  0  0  0  0
 18  6  2  0  0  0  0
 19 16  1  0  0  0  0
 20  1  1  0  0  0  0
 20 30  1  0  0  0  0
 22 21  1  6  0  0  0
 22 13  1  0  0  0  0
 24  7  1  0  0  0  0
 26  9  1  0  0  0  0
 27  2  1  0  0  0  0
 28 23  1  0  0  0  0
 28  5  2  0  0  0  0
 29 32  1  0  0  0  0
 30 29  1  0  0  0  0
 31 29  2  0  0  0  0
M  END
>  <MODEL>
2

>  <REMARK>
 VINA RESULT:      -9.4      3.349      4.558
  Name = 
  1 active torsions:
  status: ('A' for Active; 'I' for Inactive)
    1  A    between atoms: N_10  and  C_24
                            x       y       z     vdW  Elec       q    Type
                         _______ _______ _______ _____ _____    ______ ____

>  <TORSDO>
F 1

$$$$
=
 OpenBabel11052416463D

 32 38  0  0  1  0  0  0  0  0999 V2000
  189.1630  176.7530  144.6910 C   0  0  0  0  0  3  0  0  0  0  0  0
  188.7570  177.4250  139.6750 C   0  0  0  0  0  0  0  0  0  0  0  0
  184.6240  179.9630  139.3610 O   0  0  0  0  0  0  0  0  0  0  0  0
  184.2080  178.6250  139.2350 C   0  0  2  0  0  3  0  0  0  0  0  0
  189.2370  176.1610  137.5030 C   0  0  0  0  0  0  0  0  0  0  0  0
  190.6110  175.8500  137.4650 C   0  0  0  0  0  0  0  0  0  0  0  0
  189.9430  177.1450  141.7420 C   0  0  0  0  0  0  0  0  0  0  0  0
  187.7830  178.4300  141.6890 C   0  0  0  0  0  3  0  0  0  0  0  0
  188.7760  174.5500  135.7610 C   0  0  0  0  0  0  0  0  0  0  0  0
  188.4030  177.1880  143.6870 C   0  0  0  0  0  3  0  0  0  0  0  0
  185.2700  179.0300  140.1940 C   0  0  1  0  0  3  0  0  0  0  0  0
  187.6990  178.1710  140.3820 C   0  0  0  0  0  0  0  0  0  0  0  0
  186.5570  178.6010  139.5230 C   0  0  1  0  0  3  0  0  0  0  0  0
  187.2650  177.4100  137.6180 C   0  0  2  0  0  3  0  0  0  0  0  0
  190.1230  174.1670  135.7660 C   0  0  0  0  0  3  0  0  0  0  0  0
  191.4480  176.8280  143.7230 C   0  0  0  0  0  3  0  0  0  0  0  0
  188.9390  177.9580  142.5280 C   0  0  0  0  0  0  0  0  0  0  0  0
  191.0390  174.8290  136.6020 C   0  0  0  0  0  3  0  0  0  0  0  0
  191.0750  176.7130  142.2990 C   0  0  0  0  0  3  0  0  0  0  0  0
  190.6300  176.8910  144.7880 C   0  0  0  0  0  0  0  0  0  0  0  0
  184.9430  177.9490  138.0820 C   0  0  0  0  0  2  0  0  0  0  0  0
  186.2120  177.5080  138.6340 N   0  0  2  0  0  0  0  0  0  0  0  0
  187.0240  176.2000  136.6930 C   0  0  0  0  0  2  0  0  0  0  0  0
  189.7630  176.9370  140.3350 N   0  0  0  0  0  2  0  0  0  0  0  0
  191.8390  176.7890  138.2970 Cl  0  0  0  0  0  0  0  0  0  0  0  0
  187.8750  173.9320  134.9020 O   0  0  0  0  0  1  0  0  0  0  0  0
  188.5790  177.1740  138.2590 N   0  0  0  0  0  0  0  0  0  0  0  0
  188.3650  175.5660  136.6230 C   0  0  0  0  0  0  0  0  0  0  0  0
  192.0030  175.9620  146.7550 C   0  0  0  0  0  0  0  0  0  0  0  0
  191.1770  176.9440  146.1140 N   0  0  0  0  0  2  0  0  0  0  0  0
  192.3800  174.9250  146.1480 O   0  0  0  0  0  0  0  0  0  0  0  0
  192.4300  176.1790  148.1610 C   0  0  0  0  0  1  0  0  0  0  0  0
  1 20  1  0  0  0  0
  2 24  1  0  0  0  0
  2 12  2  0  0  0  0
  4 21  1  6  0  0  0
  4  3  1  0  0  0  0
  4 11  1  0  0  0  0
  5 27  1  0  0  0  0
  6  5  1  0  0  0  0
  6 25  1  0  0  0  0
  7 19  2  0  0  0  0
  7 17  1  0  0  0  0
  8 17  2  0  0  0  0
  9 15  2  0  0  0  0
  9 28  1  0  0  0  0
 10  1  2  0  0  0  0
 11  3  1  6  0  0  0
 12  8  1  0  0  0  0
 13 11  1  0  0  0  0
 13 12  1  1  0  0  0
 14 23  1  6  0  0  0
 14 27  1  0  0  0  0
 14 22  1  0  0  0  0
 15 18  1  0  0  0  0
 16 20  2  0  0  0  0
 17 10  1  0  0  0  0
 18  6  2  0  0  0  0
 19 16  1  0  0  0  0
 20 30  1  0  0  0  0
 22 21  1  6  0  0  0
 22 13  1  0  0  0  0
 24  7  1  0  0  0  0
 26  9  1  0  0  0  0
 27  2  1  0  0  0  0
 28 23  1  0  0  0  0
 28  5  2  0  0  0  0
 29 32  1  0  0  0  0
 30 29  1  0  0  0  0
 31 29  2  0  0  0  0
M  END
>  <MODEL>
3

>  <REMARK>
 VINA RESULT:      -9.4      2.171      2.711
  Name = 
  1 active torsions:
  status: ('A' for Active; 'I' for Inactive)
    1  A    between atoms: N_10  and  C_24
                            x       y       z     vdW  Elec       q    Type
                         _______ _______ _______ _____ _____    ______ ____

>  <TORSDO>
F 1

$$$$
=
 OpenBabel11052416463D

 32 38  0  0  1  0  0  0  0  0999 V2000
  186.8850  177.1290  144.8030 C   0  0  0  0  0  3  0  0  0  0  0  0
  187.2320  178.0580  139.8240 C   0  0  0  0  0  0  0  0  0  0  0  0
  182.9190  180.1030  138.9100 O   0  0  0  0  0  0  0  0  0  0  0  0
  182.7030  178.7360  138.6590 C   0  0  2  0  0  3  0  0  0  0  0  0
  188.2210  176.9970  137.7160 C   0  0  0  0  0  0  0  0  0  0  0  0
  189.6110  176.8540  137.9020 C   0  0  0  0  0  0  0  0  0  0  0  0
  188.0860  177.7930  142.0510 C   0  0  0  0  0  0  0  0  0  0  0  0
  185.8190  178.8130  141.6800 C   0  0  0  0  0  3  0  0  0  0  0  0
  188.2640  175.4530  135.8560 C   0  0  0  0  0  0  0  0  0  0  0  0
  186.2530  177.5320  143.7030 C   0  0  0  0  0  3  0  0  0  0  0  0
  183.5310  179.2030  139.8020 C   0  0  1  0  0  3  0  0  0  0  0  0
  185.9860  178.6280  140.3690 C   0  0  0  0  0  0  0  0  0  0  0  0
  184.9560  178.9720  139.3450 C   0  0  1  0  0  3  0  0  0  0  0  0
  186.1150  177.9940  137.5420 C   0  0  2  0  0  3  0  0  0  0  0  0
  189.6290  175.2340  136.0770 C   0  0  0  0  0  3  0  0  0  0  0  0
  189.2700  177.5340  144.2460 C   0  0  0  0  0  3  0  0  0  0  0  0
  186.8700  178.4310  142.6860 C   0  0  0  0  0  0  0  0  0  0  0  0
  190.3030  175.9470  137.0840 C   0  0  0  0  0  3  0  0  0  0  0  0
  189.1560  177.4640  142.7750 C   0  0  0  0  0  3  0  0  0  0  0  0
  188.2860  177.4330  145.1560 C   0  0  0  0  0  0  0  0  0  0  0  0
  183.6980  178.2240  137.6220 C   0  0  0  0  0  2  0  0  0  0  0  0
  184.9040  177.9030  138.3650 N   0  0  2  0  0  0  0  0  0  0  0  0
  186.1860  176.8240  136.5410 C   0  0  0  0  0  2  0  0  0  0  0  0
  188.1690  177.6520  140.6260 N   0  0  0  0  0  2  0  0  0  0  0  0
  190.5550  177.8780  138.9710 Cl  0  0  0  0  0  0  0  0  0  0  0  0
  187.6030  174.7880  134.8310 O   0  0  0  0  0  1  0  0  0  0  0  0
  187.3240  177.8760  138.3890 N   0  0  0  0  0  0  0  0  0  0  0  0
  187.5890  176.3590  136.6760 C   0  0  0  0  0  0  0  0  0  0  0  0
  187.8270  178.0790  147.6040 C   0  0  0  0  0  0  0  0  0  0  0  0
  188.5960  177.4680  146.5570 N   0  0  0  0  0  2  0  0  0  0  0  0
  186.7190  178.6280  147.3680 O   0  0  0  0  0  0  0  0  0  0  0  0
  188.3450  178.0530  148.9950 C   0  0  0  0  0  1  0  0  0  0  0  0
  1 20  1  0  0  0  0
  2 12  2  0  0  0  0
  2 24  1  0  0  0  0
  4 21  1  6  0  0  0
  4  3  1  0  0  0  0
  4 11  1  0  0  0  0
  5  6  1  0  0  0  0
  5 27  1  0  0  0  0
  6 25  1  0  0  0  0
  7 17  1  0  0  0  0
  7 19  2  0  0  0  0
  8 17  2  0  0  0  0
  9 15  2  0  0  0  0
  9 28  1  0  0  0  0
 10  1  2  0  0  0  0
 11  3  1  6  0  0  0
 12  8  1  0  0  0  0
 13 11  1  0  0  0  0
 13 12  1  1  0  0  0
 14 23  1  6  0  0  0
 14 22  1  0  0  0  0
 14 27  1  0  0  0  0
 15 18  1  0  0  0  0
 16 20  2  0  0  0  0
 17 10  1  0  0  0  0
 18  6  2  0  0  0  0
 19 16  1  0  0  0  0
 20 30  1  0  0  0  0
 22 21  1  6  0  0  0
 22 13  1  0  0  0  0
 23 28  1  0  0  0  0
 24  7  1  0  0  0  0
 26  9  1  0  0  0  0
 27  2  1  0  0  0  0
 28  5  2  0  0  0  0
 29 32  1  0  0  0  0
 30 29  1  0  0  0  0
 31 29  2  0  0  0  0
M  END
>  <MODEL>
4

>  <REMARK>
 VINA RESULT:      -9.1      2.076      3.020
  Name = 
  1 active torsions:
  status: ('A' for Active; 'I' for Inactive)
    1  A    between atoms: N_10  and  C_24
                            x       y       z     vdW  Elec       q    Type
                         _______ _______ _______ _____ _____    ______ ____

>  <TORSDO>
F 1

$$$$
=
 OpenBabel11052416463D

 32 38  0  0  1  0  0  0  0  0999 V2000
  182.9600  177.8890  142.5990 C   0  0  0  0  0  3  0  0  0  0  0  0
  187.9960  178.2530  143.1350 C   0  0  0  0  0  0  0  0  0  0  0  0
  189.4300  178.8160  138.5260 O   0  0  0  0  0  0  0  0  0  0  0  0
  189.4900  177.4260  138.7300 C   0  0  2  0  0  3  0  0  0  0  0  0
  189.8700  177.2750  144.5780 C   0  0  0  0  0  0  0  0  0  0  0  0
  189.5900  177.5690  145.9280 C   0  0  0  0  0  0  0  0  0  0  0  0
  185.7110  178.5280  143.8160 C   0  0  0  0  0  0  0  0  0  0  0  0
  186.3490  178.7870  141.3990 C   0  0  0  0  0  3  0  0  0  0  0  0
  191.4790  175.5930  145.2280 C   0  0  0  0  0  0  0  0  0  0  0  0
  184.1400  177.9500  141.9850 C   0  0  0  0  0  3  0  0  0  0  0  0
  188.3850  178.2530  139.2810 C   0  0  1  0  0  3  0  0  0  0  0  0
  187.6080  178.4970  141.7340 C   0  0  0  0  0  0  0  0  0  0  0  0
  188.7260  178.3940  140.7500 C   0  0  1  0  0  3  0  0  0  0  0  0
  190.3010  177.5820  142.3010 C   0  0  2  0  0  3  0  0  0  0  0  0
  191.1550  175.8120  146.5740 C   0  0  0  0  0  3  0  0  0  0  0  0
  183.4410  178.9020  144.8140 C   0  0  0  0  0  3  0  0  0  0  0  0
  185.2430  178.8560  142.4160 C   0  0  1  0  0  3  0  0  0  0  0  0
  190.2280  176.8100  146.9210 C   0  0  0  0  0  3  0  0  0  0  0  0
  184.8900  178.6190  144.8630 C   0  0  0  0  0  3  0  0  0  0  0  0
  182.5810  178.6310  143.8180 C   0  0  0  0  0  0  0  0  0  0  0  0
  190.3850  177.1030  139.9220 C   0  0  0  0  0  2  0  0  0  0  0  0
  189.5400  177.2440  141.0940 N   0  0  2  0  0  0  0  0  0  0  0  0
  191.1150  176.3690  142.7930 C   0  0  0  0  0  2  0  0  0  0  0  0
  187.0940  178.2420  144.0700 N   0  0  0  0  0  0  0  0  0  0  0  0
  188.6330  178.9490  146.4390 Cl  0  0  0  0  0  0  0  0  0  0  0  0
  192.4300  174.6420  144.8820 O   0  0  0  0  0  1  0  0  0  0  0  0
  189.3810  177.9290  143.4100 N   0  0  0  0  0  0  0  0  0  0  0  0
  190.8380  176.3560  144.2520 C   0  0  0  0  0  0  0  0  0  0  0  0
  180.3510  179.6810  143.0780 C   0  0  0  0  0  0  0  0  0  0  0  0
  181.1850  178.9300  143.9720 N   0  0  0  0  0  2  0  0  0  0  0  0
  180.7960  180.1280  141.9870 O   0  0  0  0  0  0  0  0  0  0  0  0
  178.9320  179.9270  143.4420 C   0  0  0  0  0  1  0  0  0  0  0  0
  1 20  1  0  0  0  0
  2 27  1  0  0  0  0
  2 24  2  0  0  0  0
  3  4  1  0  0  0  0
  4 11  1  0  0  0  0
  4 21  1  1  0  0  0
  5  6  1  0  0  0  0
  6 25  1  0  0  0  0
  6 18  2  0  0  0  0
  7 24  1  0  0  0  0
  7 19  2  0  0  0  0
  8 12  2  0  0  0  0
  9 15  2  0  0  0  0
 10 17  1  0  0  0  0
 10  1  2  0  0  0  0
 11  3  1  6  0  0  0
 11 13  1  0  0  0  0
 12  2  1  0  0  0  0
 13 22  1  0  0  0  0
 13 12  1  1  0  0  0
 14 23  1  1  0  0  0
 14 27  1  0  0  0  0
 15 18  1  0  0  0  0
 16 19  1  0  0  0  0
 17  8  1  6  0  0  0
 17  7  1  0  0  0  0
 20 30  1  0  0  0  0
 20 16  2  0  0  0  0
 22 21  1  6  0  0  0
 22 14  1  0  0  0  0
 23 28  1  0  0  0  0
 26  9  1  0  0  0  0
 27  5  1  0  0  0  0
 28  5  2  0  0  0  0
 28  9  1  0  0  0  0
 29 32  1  0  0  0  0
 29 30  1  0  0  0  0
 31 29  2  0  0  0  0
M  END
>  <MODEL>
5

>  <REMARK>
 VINA RESULT:      -8.7      4.245      6.586
  Name = 
  1 active torsions:
  status: ('A' for Active; 'I' for Inactive)
    1  A    between atoms: N_10  and  C_24
                            x       y       z     vdW  Elec       q    Type
                         _______ _______ _______ _____ _____    ______ ____

>  <TORSDO>
F 1

$$$$
=
 OpenBabel11052416463D

 32 38  0  0  1  0  0  0  0  0999 V2000
  186.0550  177.4900  145.8490 C   0  0  0  0  0  3  0  0  0  0  0  0
  183.3410  178.5160  141.6820 C   0  0  0  0  0  0  0  0  0  0  0  0
  179.2810  180.3790  143.5960 O   0  0  0  0  0  0  0  0  0  0  0  0
  178.9940  179.0070  143.4680 C   0  0  2  0  0  3  0  0  0  0  0  0
  182.9070  177.5360  139.3590 C   0  0  0  0  0  0  0  0  0  0  0  0
  184.1380  177.4530  138.6760 C   0  0  0  0  0  0  0  0  0  0  0  0
  185.3610  178.2530  142.9520 C   0  0  2  0  0  3  0  0  0  0  0  0
  183.2930  179.1760  144.0430 C   0  0  0  0  0  3  0  0  0  0  0  0
  181.8740  176.0270  137.7780 C   0  0  0  0  0  0  0  0  0  0  0  0
  184.8810  177.8820  145.3580 C   0  0  0  0  0  3  0  0  0  0  0  0
  180.3280  179.4920  143.9110 C   0  0  1  0  0  3  0  0  0  0  0  0
  182.6510  179.0200  142.8840 C   0  0  0  0  0  0  0  0  0  0  0  0
  181.2050  179.3340  142.6880 C   0  0  1  0  0  3  0  0  0  0  0  0
  181.0870  178.4390  140.5120 C   0  0  2  0  0  3  0  0  0  0  0  0
  183.1070  175.8660  137.1340 C   0  0  0  0  0  3  0  0  0  0  0  0
  187.6270  178.0120  143.9990 C   0  0  0  0  0  3  0  0  0  0  0  0
  184.7460  178.8250  144.2100 C   0  0  0  0  0  0  0  0  0  0  0  0
  184.2290  176.5920  137.5710 C   0  0  0  0  0  3  0  0  0  0  0  0
  186.6600  177.9610  142.8840 C   0  0  0  0  0  3  0  0  0  0  0  0
  187.3820  177.8520  145.3110 C   0  0  0  0  0  0  0  0  0  0  0  0
  179.1890  178.5580  142.0230 C   0  0  0  0  0  2  0  0  0  0  0  0
  180.6080  178.2800  141.8890 N   0  0  2  0  0  0  0  0  0  0  0  0
  180.5780  177.2900  139.6190 C   0  0  0  0  0  2  0  0  0  0  0  0
  184.5820  178.1400  141.7520 N   0  0  0  0  0  0  0  0  0  0  0  0
  185.5050  178.5010  139.0130 Cl  0  0  0  0  0  0  0  0  0  0  0  0
  180.7510  175.3500  137.3210 O   0  0  0  0  0  1  0  0  0  0  0  0
  182.5650  178.3620  140.4680 N   0  0  0  0  0  0  0  0  0  0  0  0
  181.7980  176.8870  138.8740 C   0  0  0  0  0  0  0  0  0  0  0  0
  189.7240  177.1990  146.1520 C   0  0  0  0  0  0  0  0  0  0  0  0
  188.4640  177.8780  146.2530 N   0  0  0  0  0  2  0  0  0  0  0  0
  190.0210  176.5170  145.1360 O   0  0  0  0  0  0  0  0  0  0  0  0
  190.7010  177.3110  147.2650 C   0  0  0  0  0  1  0  0  0  0  0  0
  2 24  2  0  0  0  0
  2 12  1  0  0  0  0
  4 21  1  6  0  0  0
  4  3  1  0  0  0  0
  4 11  1  0  0  0  0
  5 27  1  0  0  0  0
  6 25  1  0  0  0  0
  6  5  2  0  0  0  0
  7 19  1  6  0  0  0
  7 17  1  0  0  0  0
  8 17  1  0  0  0  0
  9 28  2  0  0  0  0
 10  1  1  0  0  0  0
 11  3  1  6  0  0  0
 12  8  2  0  0  0  0
 13 12  1  1  0  0  0
 13 11  1  0  0  0  0
 14 23  1  6  0  0  0
 14 22  1  0  0  0  0
 15 18  2  0  0  0  0
 15  9  1  0  0  0  0
 16 20  1  0  0  0  0
 17 10  2  0  0  0  0
 18  6  1  0  0  0  0
 19 16  2  0  0  0  0
 20  1  2  0  0  0  0
 20 30  1  0  0  0  0
 22 21  1  6  0  0  0
 22 13  1  0  0  0  0
 24  7  1  0  0  0  0
 26  9  1  0  0  0  0
 27 14  1  0  0  0  0
 27  2  1  0  0  0  0
 28  5  1  0  0  0  0
 28 23  1  0  0  0  0
 29 30  1  0  0  0  0
 29 32  1  0  0  0  0
 31 29  2  0  0  0  0
M  END
>  <MODEL>
6

>  <REMARK>
 VINA RESULT:      -8.7      5.415      7.545
  Name = 
  1 active torsions:
  status: ('A' for Active; 'I' for Inactive)
    1  A    between atoms: N_10  and  C_24
                            x       y       z     vdW  Elec       q    Type
                         _______ _______ _______ _____ _____    ______ ____

>  <TORSDO>
F 1

$$$$
=
 OpenBabel11052416463D

 32 38  0  0  1  0  0  0  0  0999 V2000
  182.8390  177.4870  140.5780 C   0  0  0  0  0  3  0  0  0  0  0  0
  187.0370  178.3960  143.2850 C   0  0  0  0  0  0  0  0  0  0  0  0
  190.4860  178.0740  139.8760 O   0  0  0  0  0  0  0  0  0  0  0  0
  190.4070  176.7710  140.4000 C   0  0  2  0  0  3  0  0  0  0  0  0
  187.9860  177.9190  145.6140 C   0  0  0  0  0  0  0  0  0  0  0  0
  187.1120  178.4720  146.5710 C   0  0  0  0  0  0  0  0  0  0  0  0
  184.7090  178.6110  142.7460 C   0  0  0  0  0  0  0  0  0  0  0  0
  186.4150  178.3960  140.9140 C   0  0  0  0  0  3  0  0  0  0  0  0
  189.0570  176.5630  147.3050 C   0  0  0  0  0  0  0  0  0  0  0  0
  184.1710  177.5160  140.5860 C   0  0  0  0  0  3  0  0  0  0  0  0
  189.1940  177.5980  140.1690 C   0  0  1  0  0  3  0  0  0  0  0  0
  187.3610  178.2960  141.8500 C   0  0  0  0  0  0  0  0  0  0  0  0
  188.8070  178.0810  141.5500 C   0  0  1  0  0  3  0  0  0  0  0  0
  189.4460  177.7640  143.7950 C   0  0  2  0  0  3  0  0  0  0  0  0
  188.1440  177.0380  148.2550 C   0  0  0  0  0  3  0  0  0  0  0  0
  182.2460  178.9920  142.4620 C   0  0  0  0  0  3  0  0  0  0  0  0
  184.9630  178.5870  141.2560 C   0  0  1  0  0  3  0  0  0  0  0  0
  187.1880  178.0030  147.8920 C   0  0  0  0  0  3  0  0  0  0  0  0
  183.4940  178.8540  143.2400 C   0  0  0  0  0  3  0  0  0  0  0  0
  181.9500  178.4390  141.2740 C   0  0  0  0  0  0  0  0  0  0  0  0
  190.6280  176.7920  141.9090 C   0  0  0  0  0  2  0  0  0  0  0  0
  189.3340  177.1090  142.4880 N   0  0  2  0  0  0  0  0  0  0  0  0
  189.9020  176.7610  144.8740 C   0  0  0  0  0  2  0  0  0  0  0  0
  185.8020  178.5080  143.6700 N   0  0  0  0  0  0  0  0  0  0  0  0
  186.0620  179.8410  146.2460 Cl  0  0  0  0  0  0  0  0  0  0  0  0
  190.0350  175.6470  147.6690 O   0  0  0  0  0  1  0  0  0  0  0  0
  188.1220  178.2600  144.2370 N   0  0  0  0  0  0  0  0  0  0  0  0
  188.9700  177.0390  145.9960 C   0  0  0  0  0  0  0  0  0  0  0  0
  180.3500  179.2970  139.4510 C   0  0  0  0  0  0  0  0  0  0  0  0
  180.6540  178.6410  140.6900 N   0  0  0  0  0  2  0  0  0  0  0  0
  181.2610  179.7350  138.7000 O   0  0  0  0  0  0  0  0  0  0  0  0
  178.9310  179.4510  139.0400 C   0  0  0  0  0  1  0  0  0  0  0  0
  1 10  2  0  0  0  0
  1 20  1  0  0  0  0
  2 24  2  0  0  0  0
  2 27  1  0  0  0  0
  3  4  1  0  0  0  0
  4 21  1  1  0  0  0
  5 28  2  0  0  0  0
  5  6  1  0  0  0  0
  6 18  2  0  0  0  0
  7 19  2  0  0  0  0
  7 24  1  0  0  0  0
  8 17  1  0  0  0  0
  8 12  2  0  0  0  0
  9 26  1  0  0  0  0
  9 15  2  0  0  0  0
 11  3  1  6  0  0  0
 11  4  1  0  0  0  0
 11 13  1  0  0  0  0
 12  2  1  0  0  0  0
 13 12  1  6  0  0  0
 13 22  1  0  0  0  0
 14 27  1  0  0  0  0
 14 23  1  1  0  0  0
 16 19  1  0  0  0  0
 17 10  1  6  0  0  0
 17  7  1  0  0  0  0
 18 15  1  0  0  0  0
 20 16  2  0  0  0  0
 22 21  1  6  0  0  0
 22 14  1  0  0  0  0
 23 28  1  0  0  0  0
 25  6  1  0  0  0  0
 27  5  1  0  0  0  0
 28  9  1  0  0  0  0
 29 30  1  0  0  0  0
 30 20  1  0  0  0  0
 31 29  2  0  0  0  0
 32 29  1  0  0  0  0
M  END
>  <MODEL>
7

>  <REMARK>
 VINA RESULT:      -8.5      4.059      8.238
  Name = 
  1 active torsions:
  status: ('A' for Active; 'I' for Inactive)
    1  A    between atoms: N_10  and  C_24
                            x       y       z     vdW  Elec       q    Type
                         _______ _______ _______ _____ _____    ______ ____

>  <TORSDO>
F 1

$$$$
=
 OpenBabel11052416463D

 32 38  0  0  1  0  0  0  0  0999 V2000
  182.6350  176.8740  138.0960 C   0  0  0  0  0  3  0  0  0  0  0  0
  186.0000  178.5460  141.5110 C   0  0  0  0  0  0  0  0  0  0  0  0
  190.1560  178.2520  139.0100 O   0  0  0  0  0  0  0  0  0  0  0  0
  190.0730  177.0130  139.6700 C   0  0  2  0  0  3  0  0  0  0  0  0
  186.4240  178.4360  144.0320 C   0  0  0  0  0  0  0  0  0  0  0  0
  185.3070  178.9870  144.6940 C   0  0  0  0  0  0  0  0  0  0  0  0
  183.8490  178.4340  140.4520 C   0  0  0  0  0  0  0  0  0  0  0  0
  185.9440  178.2170  139.0810 C   0  0  0  0  0  3  0  0  0  0  0  0
  187.1890  177.4050  146.0800 C   0  0  0  0  0  0  0  0  0  0  0  0
  183.9210  177.0560  138.3900 C   0  0  0  0  0  3  0  0  0  0  0  0
  188.8780  177.6660  139.0730 C   0  0  1  0  0  3  0  0  0  0  0  0
  186.6530  178.3290  140.2060 C   0  0  0  0  0  0  0  0  0  0  0  0
  188.1430  178.2490  140.2600 C   0  0  1  0  0  3  0  0  0  0  0  0
  188.2710  178.2530  142.6120 C   0  0  2  0  0  3  0  0  0  0  0  0
  186.0440  177.8730  146.7370 C   0  0  0  0  0  3  0  0  0  0  0  0
  181.4950  178.4970  139.5900 C   0  0  0  0  0  3  0  0  0  0  0  0
  184.4410  178.2770  139.0700 C   0  0  1  0  0  3  0  0  0  0  0  0
  185.1170  178.6760  146.0490 C   0  0  0  0  0  3  0  0  0  0  0  0
  182.5370  178.5880  140.6330 C   0  0  0  0  0  3  0  0  0  0  0  0
  181.5300  177.7880  138.4490 C   0  0  0  0  0  0  0  0  0  0  0  0
  189.9360  177.2230  141.1750 C   0  0  0  0  0  2  0  0  0  0  0  0
  188.5210  177.4510  141.4100 N   0  0  2  0  0  0  0  0  0  0  0  0
  188.5510  177.4320  143.8870 C   0  0  0  0  0  2  0  0  0  0  0  0
  184.7040  178.5570  141.5980 N   0  0  0  0  0  0  0  0  0  0  0  0
  184.2460  180.1830  143.9700 Cl  0  0  0  0  0  0  0  0  0  0  0  0
  188.1320  176.6510  146.7660 O   0  0  0  0  0  1  0  0  0  0  0  0
  186.8430  178.6400  142.6850 N   0  0  0  0  0  0  0  0  0  0  0  0
  187.3650  177.7220  144.7330 C   0  0  0  0  0  0  0  0  0  0  0  0
  180.2140  178.5250  136.3650 C   0  0  0  0  0  0  0  0  0  0  0  0
  180.3910  177.7750  137.5750 N   0  0  0  0  0  2  0  0  0  0  0  0
  181.1260  179.2690  135.9150 O   0  0  0  0  0  0  0  0  0  0  0  0
  178.9330  178.4130  135.6220 C   0  0  0  0  0  1  0  0  0  0  0  0
  1 10  2  0  0  0  0
  1 20  1  0  0  0  0
  2 24  2  0  0  0  0
  2 27  1  0  0  0  0
  3  4  1  0  0  0  0
  4 21  1  1  0  0  0
  5  6  2  0  0  0  0
  5 28  1  0  0  0  0
  6 18  1  0  0  0  0
  7 19  2  0  0  0  0
  7 24  1  0  0  0  0
  8 12  2  0  0  0  0
  9 15  1  0  0  0  0
  9 26  1  0  0  0  0
 11  3  1  6  0  0  0
 11  4  1  0  0  0  0
 11 13  1  0  0  0  0
 12  2  1  0  0  0  0
 13 12  1  6  0  0  0
 13 22  1  0  0  0  0
 14 27  1  0  0  0  0
 14 23  1  1  0  0  0
 16 19  1  0  0  0  0
 17 10  1  1  0  0  0
 17  8  1  0  0  0  0
 17  7  1  0  0  0  0
 18 15  2  0  0  0  0
 20 16  2  0  0  0  0
 22 21  1  6  0  0  0
 22 14  1  0  0  0  0
 23 28  1  0  0  0  0
 25  6  1  0  0  0  0
 27  5  1  0  0  0  0
 28  9  2  0  0  0  0
 29 30  1  0  0  0  0
 30 20  1  0  0  0  0
 31 29  2  0  0  0  0
 32 29  1  0  0  0  0
M  END
>  <MODEL>
8

>  <REMARK>
 VINA RESULT:      -8.2      4.029      8.821
  Name = 
  1 active torsions:
  status: ('A' for Active; 'I' for Inactive)
    1  A    between atoms: N_10  and  C_24
                            x       y       z     vdW  Elec       q    Type
                         _______ _______ _______ _____ _____    ______ ____

>  <TORSDO>
F 1

$$$$
=
 OpenBabel11052416463D

 32 38  0  0  1  0  0  0  0  0999 V2000
  189.7030  176.6520  140.8830 C   0  0  0  0  0  3  0  0  0  0  0  0
  185.2840  178.8900  141.9950 C   0  0  0  0  0  0  0  0  0  0  0  0
  185.6800  179.5000  146.8000 O   0  0  0  0  0  0  0  0  0  0  0  0
  185.0390  178.2540  146.6710 C   0  0  2  0  0  3  0  0  0  0  0  0
  182.8310  178.8100  141.2690 C   0  0  0  0  0  0  0  0  0  0  0  0
  182.7670  179.1080  139.8930 C   0  0  0  0  0  0  0  0  0  0  0  0
  187.1680  178.3700  140.6030 C   0  0  2  0  0  3  0  0  0  0  0  0
  187.4620  178.6130  143.0870 C   0  0  0  0  0  3  0  0  0  0  0  0
  180.5890  177.9070  141.2280 C   0  0  0  0  0  0  0  0  0  0  0  0
  188.8880  177.0830  141.8440 C   0  0  0  0  0  3  0  0  0  0  0  0
  186.1440  178.6660  145.7650 C   0  0  1  0  0  3  0  0  0  0  0  0
  186.1500  178.8390  143.1870 C   0  0  0  0  0  0  0  0  0  0  0  0
  185.4430  179.0610  144.4830 C   0  0  1  0  0  3  0  0  0  0  0  0
  183.2800  179.0360  143.5510 C   0  0  2  0  0  3  0  0  0  0  0  0
  180.5360  178.1190  139.8440 C   0  0  0  0  0  3  0  0  0  0  0  0
  188.9780  177.9770  138.9120 C   0  0  0  0  0  3  0  0  0  0  0  0
  188.1360  178.3680  141.7650 C   0  0  0  0  0  0  0  0  0  0  0  0
  181.6140  178.7350  139.1840 C   0  0  0  0  0  3  0  0  0  0  0  0
  187.5930  178.2520  139.3440 C   0  0  0  0  0  3  0  0  0  0  0  0
  189.9360  177.3150  139.5840 C   0  0  0  0  0  0  0  0  0  0  0  0
  183.7650  178.3980  145.8440 C   0  0  0  0  0  2  0  0  0  0  0  0
  184.1910  178.3290  144.4570 N   0  0  2  0  0  0  0  0  0  0  0  0
  181.9580  178.2600  143.3880 C   0  0  0  0  0  2  0  0  0  0  0  0
  185.7750  178.6370  140.8200 N   0  0  0  0  0  0  0  0  0  0  0  0
  183.9630  180.0820  139.0560 Cl  0  0  0  0  0  0  0  0  0  0  0  0
  179.5080  177.3440  141.8930 O   0  0  0  0  0  1  0  0  0  0  0  0
  183.8680  179.1250  142.1950 N   0  0  0  0  0  0  0  0  0  0  0  0
  181.7410  178.2850  141.9190 C   0  0  0  0  0  0  0  0  0  0  0  0
  191.6800  175.8990  138.3320 C   0  0  0  0  0  0  0  0  0  0  0  0
  191.2180  177.0930  138.9770 N   0  0  0  0  0  2  0  0  0  0  0  0
  190.9310  174.8960  138.1940 O   0  0  0  0  0  0  0  0  0  0  0  0
  193.0690  175.8480  137.8070 C   0  0  0  0  0  1  0  0  0  0  0  0
  1 10  1  0  0  0  0
  2 27  1  0  0  0  0
  2 12  1  0  0  0  0
  4 21  1  6  0  0  0
  4  3  1  0  0  0  0
  5 28  1  0  0  0  0
  5 27  1  0  0  0  0
  6  5  2  0  0  0  0
  7 19  1  6  0  0  0
  7 24  1  0  0  0  0
  7 17  1  0  0  0  0
  8 12  2  0  0  0  0
  9 26  1  0  0  0  0
  9 28  2  0  0  0  0
 11  4  1  0  0  0  0
 11  3  1  1  0  0  0
 13 12  1  6  0  0  0
 13 11  1  0  0  0  0
 14 23  1  6  0  0  0
 14 22  1  0  0  0  0
 15  9  1  0  0  0  0
 16 19  2  0  0  0  0
 16 20  1  0  0  0  0
 17 10  2  0  0  0  0
 17  8  1  0  0  0  0
 18 15  2  0  0  0  0
 18  6  1  0  0  0  0
 20  1  2  0  0  0  0
 22 13  1  0  0  0  0
 22 21  1  1  0  0  0
 24  2  2  0  0  0  0
 25  6  1  0  0  0  0
 27 14  1  0  0  0  0
 28 23  1  0  0  0  0
 29 30  1  0  0  0  0
 30 20  1  0  0  0  0
 31 29  2  0  0  0  0
 32 29  1  0  0  0  0
M  END
>  <MODEL>
9

>  <REMARK>
 VINA RESULT:      -8.2      4.291      8.816
  Name = 
  1 active torsions:
  status: ('A' for Active; 'I' for Inactive)
    1  A    between atoms: N_10  and  C_24
                            x       y       z     vdW  Elec       q    Type
                         _______ _______ _______ _____ _____    ______ ____

>  <TORSDO>
F 1

$$$$
