=
 OpenBabel11052413343D

 28 32  0  0  1  0  0  0  0  0999 V2000
  190.0650  177.0500  143.8310 C   0  0  0  0  0  0  0  0  0  0  0  0
  185.0590  178.3620  142.9490 C   0  0  0  0  0  3  0  0  0  0  0  0
  188.2530  177.7480  148.4020 C   0  0  0  0  0  1  0  0  0  0  0  0
  184.2530  178.6840  145.2170 C   0  0  0  0  0  0  0  0  0  0  0  0
  186.6170  178.0310  144.9060 C   0  0  0  0  0  0  0  0  0  0  0  0
  182.7560  179.0020  143.3400 C   0  0  0  0  0  0  0  0  0  0  0  0
  185.2970  178.3610  144.3330 C   0  0  0  0  0  0  0  0  0  0  0  0
  185.7340  178.3720  147.1510 C   0  0  0  0  0  3  0  0  0  0  0  0
  182.9870  179.0030  144.7190 C   0  0  0  0  0  3  0  0  0  0  0  0
  189.1670  177.3960  146.0820 C   0  0  0  0  0  0  0  0  0  0  0  0
  187.6550  177.7160  144.1270 C   0  0  0  0  0  3  0  0  0  0  0  0
  184.4820  178.6850  146.5990 O   0  0  0  0  0  0  0  0  0  0  0  0
  191.4900  176.7530  145.7720 C   0  0  0  0  0  3  0  0  0  0  0  0
  188.0660  177.7320  146.9520 N   0  0  0  0  0  0  0  0  0  0  0  0
  190.4270  177.0780  146.6130 C   0  0  0  0  0  3  0  0  0  0  0  0
  181.5280  179.3120  142.8600 F   0  0  0  0  0  0  0  0  0  0  0  0
  183.7910  178.6830  142.4560 C   0  0  0  0  0  3  0  0  0  0  0  0
  186.7830  178.0530  146.3780 C   0  0  0  0  0  0  0  0  0  0  0  0
  191.3080  176.7390  144.3890 C   0  0  0  0  0  3  0  0  0  0  0  0
  188.9830  177.3820  144.6820 C   0  0  0  0  0  0  0  0  0  0  0  0
  189.9550  177.0120  142.3320 C   0  0  1  0  0  3  0  0  0  0  0  0
  188.9870  178.0800  141.8110 C   0  0  0  0  0  2  0  0  0  0  0  0
  190.0650  177.5680  139.5330 C   0  0  0  0  0  0  0  0  0  0  0  0
  191.3270  177.1280  141.6630 C   0  0  0  0  0  2  0  0  0  0  0  0
  187.9180  178.5580  139.7300 O   0  0  0  0  0  0  0  0  0  0  0  0
  188.9280  178.0810  140.3120 C   0  0  0  0  0  0  0  0  0  0  0  0
  190.0370  177.5800  138.2730 O   0  0  0  0  0  0  0  0  0  0  0  0
  191.1920  177.0150  140.2140 N   0  0  0  0  0  2  0  0  0  0  0  0
  1 19  2  0  0  0  0
  1 20  1  0  0  0  0
  2  7  1  0  0  0  0
  4 12  1  0  0  0  0
  5 18  1  0  0  0  0
  6  9  2  0  0  0  0
  7  5  1  0  0  0  0
  7  4  2  0  0  0  0
  9  4  1  0  0  0  0
 10 15  1  0  0  0  0
 10 14  1  0  0  0  0
 11 20  1  0  0  0  0
 11  5  2  0  0  0  0
 12  8  1  0  0  0  0
 13 15  2  0  0  0  0
 14  3  1  0  0  0  0
 16  6  1  0  0  0  0
 17  2  2  0  0  0  0
 17  6  1  0  0  0  0
 18 14  1  0  0  0  0
 18  8  2  0  0  0  0
 19 13  1  0  0  0  0
 20 10  2  0  0  0  0
 21  1  1  1  0  0  0
 22 21  1  0  0  0  0
 23 28  1  0  0  0  0
 23 26  1  0  0  0  0
 24 21  1  0  0  0  0
 25 26  2  0  0  0  0
 26 22  1  0  0  0  0
 27 23  2  0  0  0  0
 28 24  1  0  0  0  0
M  END
>  <MODEL>
1

>  <REMARK>
 VINA RESULT:     -12.9      0.000      0.000
  Name = 
  1 active torsions:
  status: ('A' for Active; 'I' for Inactive)
    1  A    between atoms: C_1  and  C_2
                            x       y       z     vdW  Elec       q    Type
                         _______ _______ _______ _____ _____    ______ ____

>  <TORSDO>
F 1

$$$$
=
 OpenBabel11052413343D

 28 32  0  0  1  0  0  0  0  0999 V2000
  187.0230  178.1910  146.1210 C   0  0  0  0  0  0  0  0  0  0  0  0
  188.5150  178.0640  141.0900 C   0  0  0  0  0  3  0  0  0  0  0  0
  191.6990  176.5360  146.3660 C   0  0  0  0  0  1  0  0  0  0  0  0
  190.7930  177.2500  141.2970 C   0  0  0  0  0  0  0  0  0  0  0  0
  189.4740  177.5490  143.3660 C   0  0  0  0  0  0  0  0  0  0  0  0
  189.8750  177.7440  139.1120 C   0  0  0  0  0  0  0  0  0  0  0  0
  189.5790  177.6280  141.8950 C   0  0  0  0  0  0  0  0  0  0  0  0
  191.7670  176.7370  143.4920 C   0  0  0  0  0  3  0  0  0  0  0  0
  190.9380  177.3090  139.9090 C   0  0  0  0  0  3  0  0  0  0  0  0
  189.3280  177.3750  146.2370 C   0  0  0  0  0  0  0  0  0  0  0  0
  188.3510  177.8920  144.0030 C   0  0  0  0  0  3  0  0  0  0  0  0
  191.8600  176.8140  142.0940 O   0  0  0  0  0  0  0  0  0  0  0  0
  188.0270  177.6720  148.2680 C   0  0  0  0  0  3  0  0  0  0  0  0
  190.5560  176.9980  145.5800 N   0  0  0  0  0  0  0  0  0  0  0  0
  189.2140  177.3060  147.6340 C   0  0  0  0  0  3  0  0  0  0  0  0
  190.0180  177.7990  137.7660 F   0  0  0  0  0  0  0  0  0  0  0  0
  188.6650  178.1200  139.7010 C   0  0  0  0  0  3  0  0  0  0  0  0
  190.6450  177.0790  144.1430 C   0  0  0  0  0  0  0  0  0  0  0  0
  186.9400  178.1110  147.5140 C   0  0  0  0  0  3  0  0  0  0  0  0
  188.2260  177.8210  145.4740 C   0  0  0  0  0  0  0  0  0  0  0  0
  185.8040  178.6750  145.3860 C   0  0  1  0  0  3  0  0  0  0  0  0
  185.6230  177.9410  144.0520 C   0  0  0  0  0  2  0  0  0  0  0  0
  183.2550  178.9420  144.1250 C   0  0  0  0  0  0  0  0  0  0  0  0
  184.5470  178.5760  146.2520 C   0  0  0  0  0  2  0  0  0  0  0  0
  184.2730  178.2310  142.1040 O   0  0  0  0  0  0  0  0  0  0  0  0
  184.3720  178.3810  143.3510 C   0  0  0  0  0  0  0  0  0  0  0  0
  182.1910  179.2970  143.5520 O   0  0  0  0  0  0  0  0  0  0  0  0
  183.3970  179.1200  145.5360 N   0  0  0  0  0  2  0  0  0  0  0  0
  1 19  1  0  0  0  0
  2  7  1  0  0  0  0
  4  7  2  0  0  0  0
  4 12  1  0  0  0  0
  5 11  2  0  0  0  0
  5 18  1  0  0  0  0
  6 17  1  0  0  0  0
  6  9  2  0  0  0  0
  7  5  1  0  0  0  0
  8 18  2  0  0  0  0
  9  4  1  0  0  0  0
 10 15  2  0  0  0  0
 11 20  1  0  0  0  0
 12  8  1  0  0  0  0
 14 10  1  0  0  0  0
 14  3  1  0  0  0  0
 15 13  1  0  0  0  0
 16  6  1  0  0  0  0
 17  2  2  0  0  0  0
 18 14  1  0  0  0  0
 19 13  2  0  0  0  0
 20  1  2  0  0  0  0
 20 10  1  0  0  0  0
 21  1  1  1  0  0  0
 21 24  1  0  0  0  0
 22 21  1  0  0  0  0
 23 28  1  0  0  0  0
 25 26  2  0  0  0  0
 26 22  1  0  0  0  0
 26 23  1  0  0  0  0
 27 23  2  0  0  0  0
 28 24  1  0  0  0  0
M  END
>  <MODEL>
2

>  <REMARK>
 VINA RESULT:     -12.5      2.709      6.180
  Name = 
  1 active torsions:
  status: ('A' for Active; 'I' for Inactive)
    1  A    between atoms: C_1  and  C_2
                            x       y       z     vdW  Elec       q    Type
                         _______ _______ _______ _____ _____    ______ ____

>  <TORSDO>
F 1

$$$$
=
 OpenBabel11052413343D

 28 32  0  0  1  0  0  0  0  0999 V2000
  187.1570  177.6970  145.6020 C   0  0  0  0  0  0  0  0  0  0  0  0
  189.2500  177.4860  140.7930 C   0  0  0  0  0  3  0  0  0  0  0  0
  183.4710  179.3070  142.6890 C   0  0  0  0  0  1  0  0  0  0  0  0
  187.3980  178.2840  139.4410 C   0  0  0  0  0  0  0  0  0  0  0  0
  187.0700  178.1330  141.8860 C   0  0  0  0  0  0  0  0  0  0  0  0
  189.4890  177.6640  138.3900 C   0  0  0  0  0  0  0  0  0  0  0  0
  187.9320  177.9590  140.7000 C   0  0  0  0  0  0  0  0  0  0  0  0
  185.2580  178.9230  140.4620 C   0  0  0  0  0  3  0  0  0  0  0  0
  188.1770  178.1350  138.2910 C   0  0  0  0  0  3  0  0  0  0  0  0
  185.3430  178.4900  144.1620 C   0  0  0  0  0  0  0  0  0  0  0  0
  187.5100  177.8450  143.1140 C   0  0  0  0  0  3  0  0  0  0  0  0
  186.0830  178.7560  139.3390 O   0  0  0  0  0  0  0  0  0  0  0  0
  185.0250  178.3390  146.5670 C   0  0  0  0  0  3  0  0  0  0  0  0
  184.8370  178.8100  142.8500 N   0  0  0  0  0  0  0  0  0  0  0  0
  184.5350  178.6490  145.2990 C   0  0  0  0  0  3  0  0  0  0  0  0
  190.2430  177.5220  137.2730 F   0  0  0  0  0  0  0  0  0  0  0  0
  190.0260  177.3400  139.6390 C   0  0  0  0  0  3  0  0  0  0  0  0
  185.6890  178.6370  141.7000 C   0  0  0  0  0  0  0  0  0  0  0  0
  186.3280  177.8660  146.7150 C   0  0  0  0  0  3  0  0  0  0  0  0
  186.6630  178.0110  144.3130 C   0  0  0  0  0  0  0  0  0  0  0  0
  188.5470  177.1820  145.8520 C   0  0  1  0  0  3  0  0  0  0  0  0
  189.6010  178.0400  145.1420 C   0  0  0  0  0  2  0  0  0  0  0  0
  191.2550  176.8120  146.6800 C   0  0  0  0  0  0  0  0  0  0  0  0
  188.8430  177.0600  147.3480 C   0  0  0  0  0  2  0  0  0  0  0  0
  191.9290  177.8410  144.6520 O   0  0  0  0  0  0  0  0  0  0  0  0
  190.9900  177.5620  145.4440 C   0  0  0  0  0  0  0  0  0  0  0  0
  192.4200  176.4210  146.9570 O   0  0  0  0  0  0  0  0  0  0  0  0
  190.1710  176.4910  147.5550 N   0  0  0  0  0  2  0  0  0  0  0  0
  1 19  1  0  0  0  0
  3 14  1  0  0  0  0
  4  7  2  0  0  0  0
  5 11  2  0  0  0  0
  6 17  1  0  0  0  0
  7  2  1  0  0  0  0
  7  5  1  0  0  0  0
  8 18  2  0  0  0  0
  9  6  2  0  0  0  0
  9  4  1  0  0  0  0
 10 20  1  0  0  0  0
 10 15  2  0  0  0  0
 11 20  1  0  0  0  0
 12  4  1  0  0  0  0
 12  8  1  0  0  0  0
 13 19  2  0  0  0  0
 14 10  1  0  0  0  0
 15 13  1  0  0  0  0
 16  6  1  0  0  0  0
 17  2  2  0  0  0  0
 18  5  1  0  0  0  0
 18 14  1  0  0  0  0
 20  1  2  0  0  0  0
 21  1  1  1  0  0  0
 21 24  1  0  0  0  0
 22 26  1  0  0  0  0
 22 21  1  0  0  0  0
 23 27  2  0  0  0  0
 23 28  1  0  0  0  0
 24 28  1  0  0  0  0
 25 26  2  0  0  0  0
 26 23  1  0  0  0  0
M  END
>  <MODEL>
3

>  <REMARK>
 VINA RESULT:     -11.8      3.220      6.229
  Name = 
  1 active torsions:
  status: ('A' for Active; 'I' for Inactive)
    1  A    between atoms: C_1  and  C_2
                            x       y       z     vdW  Elec       q    Type
                         _______ _______ _______ _____ _____    ______ ____

>  <TORSDO>
F 1

$$$$
=
 OpenBabel11052413343D

 28 32  0  0  1  0  0  0  0  0999 V2000
  189.0470  177.2530  143.6560 C   0  0  0  0  0  0  0  0  0  0  0  0
  184.2800  178.2850  141.7170 C   0  0  0  0  0  3  0  0  0  0  0  0
  186.4240  178.4860  147.6890 C   0  0  0  0  0  1  0  0  0  0  0  0
  183.0700  178.8750  143.7380 C   0  0  0  0  0  0  0  0  0  0  0  0
  185.4540  178.2600  143.9500 C   0  0  0  0  0  0  0  0  0  0  0  0
  181.9400  178.9000  141.5960 C   0  0  0  0  0  0  0  0  0  0  0  0
  184.2600  178.4720  143.1080 C   0  0  0  0  0  0  0  0  0  0  0  0
  184.1730  178.8640  145.9310 C   0  0  0  0  0  3  0  0  0  0  0  0
  181.9150  179.0870  142.9800 C   0  0  0  0  0  3  0  0  0  0  0  0
  187.7500  177.8620  145.6420 C   0  0  0  0  0  0  0  0  0  0  0  0
  186.6200  177.8770  143.4200 C   0  0  0  0  0  3  0  0  0  0  0  0
  183.0420  179.0640  145.1250 O   0  0  0  0  0  0  0  0  0  0  0  0
  190.0950  177.2550  145.8450 C   0  0  0  0  0  3  0  0  0  0  0  0
  186.5070  178.2750  146.2450 N   0  0  0  0  0  0  0  0  0  0  0  0
  188.8940  177.6550  146.4290 C   0  0  0  0  0  3  0  0  0  0  0  0
  180.8200  179.1070  140.8640 F   0  0  0  0  0  0  0  0  0  0  0  0
  183.1220  178.5000  140.9640 C   0  0  0  0  0  3  0  0  0  0  0  0
  185.3480  178.4790  145.4110 C   0  0  0  0  0  0  0  0  0  0  0  0
  190.1690  177.0560  144.4670 C   0  0  0  0  0  3  0  0  0  0  0  0
  187.8260  177.6600  144.2460 C   0  0  0  0  0  0  0  0  0  0  0  0
  189.2150  177.0160  142.1810 C   0  0  1  0  0  3  0  0  0  0  0  0
  188.7240  178.2140  141.3600 C   0  0  0  0  0  2  0  0  0  0  0  0
  190.0080  177.0850  139.4380 C   0  0  0  0  0  0  0  0  0  0  0  0
  190.6580  176.6510  141.8290 C   0  0  0  0  0  2  0  0  0  0  0  0
  188.2560  178.6380  139.0570 O   0  0  0  0  0  0  0  0  0  0  0  0
  188.9500  178.0000  139.8920 C   0  0  0  0  0  0  0  0  0  0  0  0
  190.2220  176.9110  138.2090 O   0  0  0  0  0  0  0  0  0  0  0  0
  190.7710  176.3580  140.4040 N   0  0  0  0  0  2  0  0  0  0  0  0
  1 20  2  0  0  0  0
  1 19  1  0  0  0  0
  2  7  1  0  0  0  0
  4 12  1  0  0  0  0
  5 18  1  0  0  0  0
  6  9  2  0  0  0  0
  7  4  2  0  0  0  0
  7  5  1  0  0  0  0
  9  4  1  0  0  0  0
 10 14  1  0  0  0  0
 10 15  2  0  0  0  0
 11  5  2  0  0  0  0
 11 20  1  0  0  0  0
 12  8  1  0  0  0  0
 13 15  1  0  0  0  0
 14  3  1  0  0  0  0
 16  6  1  0  0  0  0
 17  6  1  0  0  0  0
 17  2  2  0  0  0  0
 18  8  2  0  0  0  0
 18 14  1  0  0  0  0
 19 13  2  0  0  0  0
 20 10  1  0  0  0  0
 21  1  1  1  0  0  0
 22 21  1  0  0  0  0
 23 26  1  0  0  0  0
 23 28  1  0  0  0  0
 24 21  1  0  0  0  0
 25 26  2  0  0  0  0
 26 22  1  0  0  0  0
 27 23  2  0  0  0  0
 28 24  1  0  0  0  0
M  END
>  <MODEL>
4

>  <REMARK>
 VINA RESULT:     -11.6      1.099      1.487
  Name = 
  1 active torsions:
  status: ('A' for Active; 'I' for Inactive)
    1  A    between atoms: C_1  and  C_2
                            x       y       z     vdW  Elec       q    Type
                         _______ _______ _______ _____ _____    ______ ____

>  <TORSDO>
F 1

$$$$
=
 OpenBabel11052413343D

 28 32  0  0  1  0  0  0  0  0999 V2000
  189.6110  176.9880  142.7230 C   0  0  0  0  0  0  0  0  0  0  0  0
  184.5590  178.2690  142.0990 C   0  0  0  0  0  3  0  0  0  0  0  0
  188.0580  177.7720  147.3750 C   0  0  0  0  0  1  0  0  0  0  0  0
  183.8810  178.6340  144.4030 C   0  0  0  0  0  0  0  0  0  0  0  0
  186.2260  177.9810  143.9720 C   0  0  0  0  0  0  0  0  0  0  0  0
  182.2800  178.9110  142.6070 C   0  0  0  0  0  0  0  0  0  0  0  0
  184.8740  178.2970  143.4670 C   0  0  0  0  0  0  0  0  0  0  0  0
  185.4690  178.3640  146.2560 C   0  0  0  0  0  3  0  0  0  0  0  0
  182.5880  178.9390  143.9700 C   0  0  0  0  0  3  0  0  0  0  0  0
  188.8410  177.3760  145.0150 C   0  0  0  0  0  0  0  0  0  0  0  0
  187.2190  177.6530  143.1410 C   0  0  0  0  0  3  0  0  0  0  0  0
  184.1870  178.6630  145.7690 O   0  0  0  0  0  0  0  0  0  0  0  0
  191.1450  176.7330  144.5860 C   0  0  0  0  0  3  0  0  0  0  0  0
  187.7900  177.7270  145.9380 N   0  0  0  0  0  0  0  0  0  0  0  0
  190.1300  177.0720  145.4790 C   0  0  0  0  0  3  0  0  0  0  0  0
  181.0260  179.2080  142.1910 F   0  0  0  0  0  0  0  0  0  0  0  0
  183.2640  178.5770  141.6730 C   0  0  0  0  0  3  0  0  0  0  0  0
  186.4750  178.0330  145.4320 C   0  0  0  0  0  0  0  0  0  0  0  0
  190.8850  176.6920  143.2170 C   0  0  0  0  0  3  0  0  0  0  0  0
  188.5780  177.3340  143.6270 C   0  0  0  0  0  0  0  0  0  0  0  0
  189.4180  176.9200  141.2340 C   0  0  1  0  0  3  0  0  0  0  0  0
  189.1680  178.3090  140.6350 C   0  0  0  0  0  2  0  0  0  0  0  0
  189.6620  177.1420  138.3970 C   0  0  0  0  0  0  0  0  0  0  0  0
  190.5900  176.2170  140.5440 C   0  0  0  0  0  2  0  0  0  0  0  0
  188.4250  179.1610  138.5320 O   0  0  0  0  0  0  0  0  0  0  0  0
  189.0380  178.2450  139.1420 C   0  0  0  0  0  0  0  0  0  0  0  0
  189.5780  177.0860  137.1410 O   0  0  0  0  0  0  0  0  0  0  0  0
  190.3370  176.1040  139.1120 N   0  0  0  0  0  2  0  0  0  0  0  0
  1 19  2  0  0  0  0
  1 20  1  0  0  0  0
  2  7  1  0  0  0  0
  4 12  1  0  0  0  0
  5 18  1  0  0  0  0
  6  9  2  0  0  0  0
  7  5  1  0  0  0  0
  7  4  2  0  0  0  0
  9  4  1  0  0  0  0
 10 15  1  0  0  0  0
 10 14  1  0  0  0  0
 11 20  1  0  0  0  0
 11  5  2  0  0  0  0
 12  8  1  0  0  0  0
 13 15  2  0  0  0  0
 14  3  1  0  0  0  0
 16  6  1  0  0  0  0
 17  2  2  0  0  0  0
 17  6  1  0  0  0  0
 18 14  1  0  0  0  0
 18  8  2  0  0  0  0
 19 13  1  0  0  0  0
 20 10  2  0  0  0  0
 21  1  1  1  0  0  0
 22 21  1  0  0  0  0
 23 28  1  0  0  0  0
 23 26  1  0  0  0  0
 24 21  1  0  0  0  0
 25 26  2  0  0  0  0
 26 22  1  0  0  0  0
 27 23  2  0  0  0  0
 28 24  1  0  0  0  0
M  END
>  <MODEL>
5

>  <REMARK>
 VINA RESULT:     -11.6      1.025      1.141
  Name = 
  1 active torsions:
  status: ('A' for Active; 'I' for Inactive)
    1  A    between atoms: C_1  and  C_2
                            x       y       z     vdW  Elec       q    Type
                         _______ _______ _______ _____ _____    ______ ____

>  <TORSDO>
F 1

$$$$
=
 OpenBabel11052413343D

 28 32  0  0  1  0  0  0  0  0999 V2000
  185.3160  178.2670  144.1800 C   0  0  0  0  0  0  0  0  0  0  0  0
  189.4150  177.5690  140.9760 C   0  0  0  0  0  3  0  0  0  0  0  0
  189.1380  177.7850  147.3150 C   0  0  0  0  0  1  0  0  0  0  0  0
  191.2270  177.3440  142.5760 C   0  0  0  0  0  0  0  0  0  0  0  0
  188.9440  177.7070  143.4510 C   0  0  0  0  0  0  0  0  0  0  0  0
  191.6820  177.2110  140.2010 C   0  0  0  0  0  0  0  0  0  0  0  0
  189.8620  177.5390  142.3060 C   0  0  0  0  0  0  0  0  0  0  0  0
  190.8150  177.4720  144.9930 C   0  0  0  0  0  3  0  0  0  0  0  0
  192.1320  177.1800  141.5240 C   0  0  0  0  0  3  0  0  0  0  0  0
  187.2030  178.0290  145.7220 C   0  0  0  0  0  0  0  0  0  0  0  0
  187.6340  177.8970  143.2700 C   0  0  0  0  0  3  0  0  0  0  0  0
  191.6810  177.3130  143.9010 O   0  0  0  0  0  0  0  0  0  0  0  0
  184.9560  178.3870  146.5760 C   0  0  0  0  0  3  0  0  0  0  0  0
  188.6130  177.8260  145.9510 N   0  0  0  0  0  0  0  0  0  0  0  0
  186.3190  178.1910  146.7990 C   0  0  0  0  0  3  0  0  0  0  0  0
  192.5610  177.0520  139.1830 F   0  0  0  0  0  0  0  0  0  0  0  0
  190.3250  177.4050  139.9270 C   0  0  0  0  0  3  0  0  0  0  0  0
  189.4970  177.6630  144.8240 C   0  0  0  0  0  0  0  0  0  0  0  0
  184.4600  178.4250  145.2740 C   0  0  0  0  0  3  0  0  0  0  0  0
  186.7000  178.0670  144.4020 C   0  0  0  0  0  0  0  0  0  0  0  0
  184.6980  178.3200  142.8100 C   0  0  1  0  0  3  0  0  0  0  0  0
  183.1890  178.5760  142.8830 C   0  0  0  0  0  2  0  0  0  0  0  0
  183.4240  179.1000  140.3760 C   0  0  0  0  0  0  0  0  0  0  0  0
  185.3960  179.3480  141.9170 C   0  0  0  0  0  2  0  0  0  0  0  0
  181.3560  178.4740  141.3560 O   0  0  0  0  0  0  0  0  0  0  0  0
  182.5860  178.6910  141.5140 C   0  0  0  0  0  0  0  0  0  0  0  0
  182.9270  179.2200  139.2250 O   0  0  0  0  0  0  0  0  0  0  0  0
  184.8210  179.3240  140.5760 N   0  0  0  0  0  2  0  0  0  0  0  0
  1 20  2  0  0  0  0
  1 19  1  0  0  0  0
  2  7  1  0  0  0  0
  4 12  1  0  0  0  0
  5 18  1  0  0  0  0
  6  9  2  0  0  0  0
  7  4  2  0  0  0  0
  7  5  1  0  0  0  0
  9  4  1  0  0  0  0
 10 14  1  0  0  0  0
 10 15  2  0  0  0  0
 11  5  2  0  0  0  0
 11 20  1  0  0  0  0
 12  8  1  0  0  0  0
 13 15  1  0  0  0  0
 14  3  1  0  0  0  0
 16  6  1  0  0  0  0
 17  6  1  0  0  0  0
 17  2  2  0  0  0  0
 18  8  2  0  0  0  0
 18 14  1  0  0  0  0
 19 13  2  0  0  0  0
 20 10  1  0  0  0  0
 21 22  1  0  0  0  0
 21  1  1  1  0  0  0
 23 28  1  0  0  0  0
 23 26  1  0  0  0  0
 24 21  1  0  0  0  0
 25 26  2  0  0  0  0
 26 22  1  0  0  0  0
 27 23  2  0  0  0  0
 28 24  1  0  0  0  0
M  END
>  <MODEL>
6

>  <REMARK>
 VINA RESULT:     -11.4      3.310      6.240
  Name = 
  1 active torsions:
  status: ('A' for Active; 'I' for Inactive)
    1  A    between atoms: C_1  and  C_2
                            x       y       z     vdW  Elec       q    Type
                         _______ _______ _______ _____ _____    ______ ____

>  <TORSDO>
F 1

$$$$
=
 OpenBabel11052413343D

 28 32  0  0  1  0  0  0  0  0999 V2000
  186.7370  178.5200  141.5810 C   0  0  0  0  0  0  0  0  0  0  0  0
  190.5960  176.9420  144.7720 C   0  0  0  0  0  3  0  0  0  0  0  0
  184.5640  178.4610  146.0470 C   0  0  0  0  0  1  0  0  0  0  0  0
  189.4580  176.9400  146.9170 C   0  0  0  0  0  0  0  0  0  0  0  0
  188.1670  177.6090  144.9190 C   0  0  0  0  0  0  0  0  0  0  0  0
  191.7890  176.3000  146.7790 C   0  0  0  0  0  0  0  0  0  0  0  0
  189.4330  177.1580  145.5290 C   0  0  0  0  0  0  0  0  0  0  0  0
  187.0960  177.5830  147.1060 C   0  0  0  0  0  3  0  0  0  0  0  0
  190.6350  176.5130  147.5370 C   0  0  0  0  0  3  0  0  0  0  0  0
  185.6700  178.4890  143.7850 C   0  0  0  0  0  0  0  0  0  0  0  0
  188.0690  177.8350  143.6050 C   0  0  0  0  0  3  0  0  0  0  0  0
  188.3020  177.1530  147.6790 O   0  0  0  0  0  0  0  0  0  0  0  0
  184.4050  179.1470  141.8170 C   0  0  0  0  0  3  0  0  0  0  0  0
  185.7430  178.2540  145.2060 N   0  0  0  0  0  0  0  0  0  0  0  0
  184.4740  178.9200  143.1910 C   0  0  0  0  0  3  0  0  0  0  0  0
  192.9280  175.8850  147.3830 F   0  0  0  0  0  0  0  0  0  0  0  0
  191.7700  176.5140  145.3980 C   0  0  0  0  0  3  0  0  0  0  0  0
  186.9850  177.8130  145.7890 C   0  0  0  0  0  0  0  0  0  0  0  0
  185.5310  178.9480  141.0190 C   0  0  0  0  0  3  0  0  0  0  0  0
  186.8110  178.2880  142.9760 C   0  0  0  0  0  0  0  0  0  0  0  0
  187.9010  178.3300  140.6500 C   0  0  1  0  0  3  0  0  0  0  0  0
  188.7480  177.1150  141.0470 C   0  0  0  0  0  2  0  0  0  0  0  0
  189.7600  177.3840  138.6980 C   0  0  0  0  0  0  0  0  0  0  0  0
  187.4480  178.2400  139.1910 C   0  0  0  0  0  2  0  0  0  0  0  0
  190.8890  176.2460  140.4470 O   0  0  0  0  0  0  0  0  0  0  0  0
  189.8720  176.8910  140.0790 C   0  0  0  0  0  0  0  0  0  0  0  0
  190.6880  177.1860  137.8690 O   0  0  0  0  0  0  0  0  0  0  0  0
  188.6050  178.1290  138.3090 N   0  0  0  0  0  2  0  0  0  0  0  0
  1 20  1  0  0  0  0
  2 17  2  0  0  0  0
  2  7  1  0  0  0  0
  4  9  1  0  0  0  0
  4 12  1  0  0  0  0
  5  7  1  0  0  0  0
  5 18  1  0  0  0  0
  6 16  1  0  0  0  0
  6  9  2  0  0  0  0
  7  4  2  0  0  0  0
  8 12  1  0  0  0  0
 10 14  1  0  0  0  0
 11  5  2  0  0  0  0
 13 15  2  0  0  0  0
 14 18  1  0  0  0  0
 14  3  1  0  0  0  0
 15 10  1  0  0  0  0
 17  6  1  0  0  0  0
 18  8  2  0  0  0  0
 19  1  2  0  0  0  0
 19 13  1  0  0  0  0
 20 11  1  0  0  0  0
 20 10  2  0  0  0  0
 21 22  1  0  0  0  0
 21  1  1  1  0  0  0
 23 26  1  0  0  0  0
 24 21  1  0  0  0  0
 26 25  2  0  0  0  0
 26 22  1  0  0  0  0
 27 23  2  0  0  0  0
 28 23  1  0  0  0  0
 28 24  1  0  0  0  0
M  END
>  <MODEL>
7

>  <REMARK>
 VINA RESULT:     -11.1      2.976      5.458
  Name = 
  1 active torsions:
  status: ('A' for Active; 'I' for Inactive)
    1  A    between atoms: C_1  and  C_2
                            x       y       z     vdW  Elec       q    Type
                         _______ _______ _______ _____ _____    ______ ____

>  <TORSDO>
F 1

$$$$
=
 OpenBabel11052413343D

 28 32  0  0  1  0  0  0  0  0999 V2000
  185.6760  178.4830  144.7620 C   0  0  0  0  0  0  0  0  0  0  0  0
  188.9430  177.8790  140.6980 C   0  0  0  0  0  3  0  0  0  0  0  0
  182.7060  179.0620  140.8240 C   0  0  0  0  0  1  0  0  0  0  0  0
  187.4220  178.1760  138.8270 C   0  0  0  0  0  0  0  0  0  0  0  0
  186.4980  178.3420  141.1130 C   0  0  0  0  0  0  0  0  0  0  0  0
  189.7690  177.7310  138.4250 C   0  0  0  0  0  0  0  0  0  0  0  0
  187.6490  178.1270  140.2130 C   0  0  0  0  0  0  0  0  0  0  0  0
  185.0360  178.6270  139.1860 C   0  0  0  0  0  3  0  0  0  0  0  0
  188.4820  177.9780  137.9380 C   0  0  0  0  0  3  0  0  0  0  0  0
  184.2160  178.7680  142.8180 C   0  0  0  0  0  0  0  0  0  0  0  0
  186.6370  178.3100  142.4410 C   0  0  0  0  0  3  0  0  0  0  0  0
  186.1340  178.4220  138.3360 O   0  0  0  0  0  0  0  0  0  0  0  0
  183.3110  178.9290  145.0680 C   0  0  0  0  0  3  0  0  0  0  0  0
  184.0310  178.8080  141.3880 N   0  0  0  0  0  0  0  0  0  0  0  0
  183.1310  178.9690  143.6850 C   0  0  0  0  0  3  0  0  0  0  0  0
  190.7940  177.5410  137.5610 F   0  0  0  0  0  0  0  0  0  0  0  0
  189.9990  177.6830  139.8030 C   0  0  0  0  0  3  0  0  0  0  0  0
  185.1630  178.5970  140.5210 C   0  0  0  0  0  0  0  0  0  0  0  0
  184.5770  178.6880  145.6000 C   0  0  0  0  0  3  0  0  0  0  0  0
  185.4980  178.5230  143.3580 C   0  0  0  0  0  0  0  0  0  0  0  0
  187.0040  178.2290  145.4190 C   0  0  1  0  0  3  0  0  0  0  0  0
  186.8600  178.0710  146.9370 C   0  0  0  0  0  2  0  0  0  0  0  0
  189.2430  177.1140  146.7980 C   0  0  0  0  0  0  0  0  0  0  0  0
  187.7210  177.0280  144.7980 C   0  0  0  0  0  2  0  0  0  0  0  0
  188.3470  178.0070  148.8040 O   0  0  0  0  0  0  0  0  0  0  0  0
  188.1770  177.7550  147.5820 C   0  0  0  0  0  0  0  0  0  0  0  0
  190.3470  176.8250  147.3310 O   0  0  0  0  0  0  0  0  0  0  0  0
  189.0350  176.8530  145.4080 N   0  0  0  0  0  2  0  0  0  0  0  0
  1 19  1  0  0  0  0
  3 14  1  0  0  0  0
  4  7  2  0  0  0  0
  5 11  2  0  0  0  0
  6 17  1  0  0  0  0
  7  2  1  0  0  0  0
  7  5  1  0  0  0  0
  8 18  2  0  0  0  0
  9  6  2  0  0  0  0
  9  4  1  0  0  0  0
 10 20  1  0  0  0  0
 10 15  2  0  0  0  0
 11 20  1  0  0  0  0
 12  4  1  0  0  0  0
 12  8  1  0  0  0  0
 13 19  2  0  0  0  0
 14 10  1  0  0  0  0
 15 13  1  0  0  0  0
 16  6  1  0  0  0  0
 17  2  2  0  0  0  0
 18  5  1  0  0  0  0
 18 14  1  0  0  0  0
 20  1  2  0  0  0  0
 21  1  1  6  0  0  0
 21 22  1  0  0  0  0
 22 26  1  0  0  0  0
 23 27  2  0  0  0  0
 23 26  1  0  0  0  0
 24 28  1  0  0  0  0
 24 21  1  0  0  0  0
 26 25  2  0  0  0  0
 28 23  1  0  0  0  0
M  END
>  <MODEL>
8

>  <REMARK>
 VINA RESULT:     -11.1      3.169      7.019
  Name = 
  1 active torsions:
  status: ('A' for Active; 'I' for Inactive)
    1  A    between atoms: C_1  and  C_2
                            x       y       z     vdW  Elec       q    Type
                         _______ _______ _______ _____ _____    ______ ____

>  <TORSDO>
F 1

$$$$
=
 OpenBabel11052413343D

 28 32  0  0  1  0  0  0  0  0999 V2000
  183.9770  178.3250  142.2030 C   0  0  0  0  0  0  0  0  0  0  0  0
  188.9650  176.7320  142.5700 C   0  0  0  0  0  3  0  0  0  0  0  0
  184.9640  178.7940  147.0480 C   0  0  0  0  0  1  0  0  0  0  0  0
  189.3650  176.9900  144.9520 C   0  0  0  0  0  0  0  0  0  0  0  0
  187.1310  177.5870  144.0780 C   0  0  0  0  0  0  0  0  0  0  0  0
  191.1270  176.1690  143.5070 C   0  0  0  0  0  0  0  0  0  0  0  0
  188.5040  177.0940  143.8460 C   0  0  0  0  0  0  0  0  0  0  0  0
  187.6100  177.8190  146.4550 C   0  0  0  0  0  3  0  0  0  0  0  0
  190.6730  176.5290  144.7790 C   0  0  0  0  0  3  0  0  0  0  0  0
  184.4680  178.5540  144.5910 C   0  0  0  0  0  0  0  0  0  0  0  0
  186.2580  177.7110  143.0750 C   0  0  0  0  0  3  0  0  0  0  0  0
  188.9120  177.3500  146.2270 O   0  0  0  0  0  0  0  0  0  0  0  0
  182.2730  179.1400  143.7270 C   0  0  0  0  0  3  0  0  0  0  0  0
  185.3870  178.4310  145.6960 N   0  0  0  0  0  0  0  0  0  0  0  0
  183.1610  179.0220  144.7960 C   0  0  0  0  0  3  0  0  0  0  0  0
  192.3940  175.7220  143.3430 F   0  0  0  0  0  0  0  0  0  0  0  0
  190.2740  176.2700  142.4040 C   0  0  0  0  0  3  0  0  0  0  0  0
  186.7240  177.9490  145.4560 C   0  0  0  0  0  0  0  0  0  0  0  0
  182.6810  178.7940  142.4400 C   0  0  0  0  0  3  0  0  0  0  0  0
  184.8810  178.2030  143.2870 C   0  0  0  0  0  0  0  0  0  0  0  0
  184.3340  177.9730  140.7860 C   0  0  1  0  0  3  0  0  0  0  0  0
  183.1510  177.3320  140.0500 C   0  0  0  0  0  2  0  0  0  0  0  0
  184.5440  177.8120  137.9420 C   0  0  0  0  0  0  0  0  0  0  0  0
  184.8750  179.1840  140.0240 C   0  0  0  0  0  2  0  0  0  0  0  0
  182.8420  176.1600  137.9930 O   0  0  0  0  0  0  0  0  0  0  0  0
  183.4910  177.0400  138.6190 C   0  0  0  0  0  0  0  0  0  0  0  0
  184.8260  177.5910  136.7350 O   0  0  0  0  0  0  0  0  0  0  0  0
  185.2790  178.7930  138.6770 N   0  0  0  0  0  2  0  0  0  0  0  0
  1 19  2  0  0  0  0
  1 20  1  0  0  0  0
  2  7  1  0  0  0  0
  4 12  1  0  0  0  0
  5 18  1  0  0  0  0
  6  9  2  0  0  0  0
  7  5  1  0  0  0  0
  7  4  2  0  0  0  0
  9  4  1  0  0  0  0
 10 15  1  0  0  0  0
 10 14  1  0  0  0  0
 11 20  1  0  0  0  0
 11  5  2  0  0  0  0
 12  8  1  0  0  0  0
 13 15  2  0  0  0  0
 14  3  1  0  0  0  0
 16  6  1  0  0  0  0
 17  2  2  0  0  0  0
 17  6  1  0  0  0  0
 18 14  1  0  0  0  0
 18  8  2  0  0  0  0
 19 13  1  0  0  0  0
 20 10  2  0  0  0  0
 21  1  1  1  0  0  0
 22 21  1  0  0  0  0
 23 26  1  0  0  0  0
 23 28  1  0  0  0  0
 24 21  1  0  0  0  0
 25 26  2  0  0  0  0
 26 22  1  0  0  0  0
 27 23  2  0  0  0  0
 28 24  1  0  0  0  0
M  END
>  <MODEL>
9

>  <REMARK>
 VINA RESULT:     -11.0      3.411      6.128
  Name = 
  1 active torsions:
  status: ('A' for Active; 'I' for Inactive)
    1  A    between atoms: C_1  and  C_2
                            x       y       z     vdW  Elec       q    Type
                         _______ _______ _______ _____ _____    ______ ____

>  <TORSDO>
F 1

$$$$
