=
 OpenBabel11052412323D

 30 33  0  0  1  0  0  0  0  0999 V2000
  186.4810  177.0310  144.5860 C   0  0  0  0  0  2  0  0  0  0  0  0
  186.8290  177.9220  146.9300 C   0  0  0  0  0  0  0  0  0  0  0  0
  190.7160  177.1810  143.8440 C   0  0  0  0  0  3  0  0  0  0  0  0
  186.9470  177.2070  143.1310 C   0  0  2  0  0  3  0  0  0  0  0  0
  191.2230  177.0180  142.5520 C   0  0  0  0  0  3  0  0  0  0  0  0
  187.6600  178.0150  147.9830 C   0  0  0  0  0  3  0  0  0  0  0  0
  185.1170  178.2200  147.1990 Cl  0  0  0  0  0  0  0  0  0  0  0  0
  189.3320  177.2630  144.0630 C   0  0  0  0  0  0  0  0  0  0  0  0
  189.1550  177.8310  147.8640 C   0  0  0  0  0  2  0  0  0  0  0  0
  187.3690  177.8420  145.5210 C   0  0  1  0  0  3  0  0  0  0  0  0
  188.4490  177.1350  142.9620 C   0  0  0  0  0  0  0  0  0  0  0  0
  190.3510  176.9070  141.4690 C   0  0  0  0  0  3  0  0  0  0  0  0
  188.9710  176.9600  141.6750 C   0  0  0  0  0  3  0  0  0  0  0  0
  189.6570  178.0920  146.4450 C   0  0  0  0  0  2  0  0  0  0  0  0
  188.7950  177.2910  145.4740 C   0  0  2  0  0  3  0  0  0  0  0  0
  186.3400  178.4330  142.4200 C   0  0  2  0  0  3  0  0  0  0  0  0
  182.9890  179.6640  143.7860 C   0  0  0  0  0  3  0  0  0  0  0  0
  185.2860  180.2840  144.4870 C   0  0  0  0  0  1  0  0  0  0  0  0
  184.8540  178.6410  142.6070 C   0  0  0  0  0  0  0  0  0  0  0  0
  183.9350  177.9560  141.7940 C   0  0  0  0  0  3  0  0  0  0  0  0
  184.3670  179.5070  143.6090 C   0  0  0  0  0  0  0  0  0  0  0  0
  182.0880  178.9720  142.9750 C   0  0  0  0  0  3  0  0  0  0  0  0
  182.5610  178.1200  141.9770 C   0  0  0  0  0  3  0  0  0  0  0  0
  186.8120  178.5920  141.0010 C   0  0  0  0  0  3  0  0  0  0  0  0
  185.9980  178.4320  139.9540 C   0  0  0  0  0  3  0  0  0  0  0  0
  186.5060  178.5960  138.5630 C   0  0  0  0  0  2  0  0  0  0  0  0
  187.6930  177.7770  138.3670 N   0  0  0  0  0  2  0  0  0  0  0  0
  189.0130  179.5540  137.6210 O   0  0  0  0  0  0  0  0  0  0  0  0
  188.9210  178.3270  137.8900 C   0  0  0  0  0  0  0  0  0  0  0  0
  190.1000  177.4430  137.7090 C   0  0  0  0  0  1  0  0  0  0  0  0
  2  7  1  0  0  0  0
  2  6  2  0  0  0  0
  3  8  1  0  0  0  0
  4 16  1  1  0  0  0
  4  1  1  0  0  0  0
  5  3  2  0  0  0  0
  8 15  1  0  0  0  0
  9  6  1  0  0  0  0
 10  1  1  6  0  0  0
 10  2  1  0  0  0  0
 11  4  1  0  0  0  0
 11  8  2  0  0  0  0
 12 13  2  0  0  0  0
 12  5  1  0  0  0  0
 13 11  1  0  0  0  0
 14  9  1  0  0  0  0
 15 10  1  0  0  0  0
 15 14  1  1  0  0  0
 16 24  1  6  0  0  0
 16 19  1  0  0  0  0
 19 21  2  0  0  0  0
 20 23  2  0  0  0  0
 20 19  1  0  0  0  0
 21 17  1  0  0  0  0
 21 18  1  0  0  0  0
 22 17  2  0  0  0  0
 23 22  1  0  0  0  0
 25 24  2  0  0  0  0
 26 25  1  0  0  0  0
 27 26  1  0  0  0  0
 28 29  2  0  0  0  0
 29 27  1  0  0  0  0
 30 29  1  0  0  0  0
M  END
>  <MODEL>
1

>  <REMARK>
 VINA RESULT:      -9.0      0.000      0.000
  Name = 
  5 active torsions:
  status: ('A' for Active; 'I' for Inactive)
    1  A    between atoms: C_4  and  C_13
    2  A    between atoms: N_7  and  C_16
    3  A    between atoms: C_8  and  C_13
    4  A    between atoms: C_13  and  C_27
    5  A    between atoms: C_16  and  C_30
                            x       y       z     vdW  Elec       q    Type
                         _______ _______ _______ _____ _____    ______ ____

>  <TORSDO>
F 5

$$$$
=
 OpenBabel11052412323D

 30 33  0  0  1  0  0  0  0  0999 V2000
  186.5880  177.0940  144.9300 C   0  0  0  0  0  2  0  0  0  0  0  0
  186.8450  178.1280  147.2270 C   0  0  0  0  0  0  0  0  0  0  0  0
  190.8600  176.7690  144.5410 C   0  0  0  0  0  3  0  0  0  0  0  0
  187.1810  177.1080  143.5110 C   0  0  2  0  0  3  0  0  0  0  0  0
  191.4460  176.4570  143.3110 C   0  0  0  0  0  3  0  0  0  0  0  0
  187.5970  178.2210  148.3370 C   0  0  0  0  0  3  0  0  0  0  0  0
  185.1580  178.6120  147.3270 Cl  0  0  0  0  0  0  0  0  0  0  0  0
  189.4800  177.0030  144.6350 C   0  0  0  0  0  0  0  0  0  0  0  0
  189.0690  177.8830  148.3590 C   0  0  0  0  0  2  0  0  0  0  0  0
  187.4810  177.8850  145.8770 C   0  0  1  0  0  3  0  0  0  0  0  0
  188.6760  176.8760  143.4750 C   0  0  0  0  0  0  0  0  0  0  0  0
  190.6530  176.3460  142.1680 C   0  0  0  0  0  3  0  0  0  0  0  0
  189.2750  176.5500  142.2520 C   0  0  0  0  0  3  0  0  0  0  0  0
  189.7040  177.9810  146.9720 C   0  0  0  0  0  2  0  0  0  0  0  0
  188.8410  177.1950  145.9900 C   0  0  2  0  0  3  0  0  0  0  0  0
  186.7620  178.3290  142.6670 C   0  0  2  0  0  3  0  0  0  0  0  0
  183.0400  179.1960  142.7570 C   0  0  0  0  0  3  0  0  0  0  0  0
  184.8520  179.9210  144.2870 C   0  0  0  0  0  1  0  0  0  0  0  0
  185.2960  178.4110  142.3010 C   0  0  0  0  0  0  0  0  0  0  0  0
  184.8080  177.7310  141.1730 C   0  0  0  0  0  3  0  0  0  0  0  0
  184.3960  179.1540  143.0940 C   0  0  0  0  0  0  0  0  0  0  0  0
  182.5680  178.5090  141.6370 C   0  0  0  0  0  3  0  0  0  0  0  0
  183.4530  177.7790  140.8430 C   0  0  0  0  0  3  0  0  0  0  0  0
  187.7000  178.6140  141.5260 C   0  0  0  0  0  3  0  0  0  0  0  0
  187.4550  178.2020  140.2790 C   0  0  0  0  0  3  0  0  0  0  0  0
  188.4120  178.5030  139.1760 C   0  0  0  0  0  2  0  0  0  0  0  0
  188.0220  177.7880  137.9700 N   0  0  0  0  0  2  0  0  0  0  0  0
  187.4840  179.7270  136.7830 O   0  0  0  0  0  0  0  0  0  0  0  0
  187.5640  178.4690  136.8030 C   0  0  0  0  0  0  0  0  0  0  0  0
  187.1790  177.6880  135.6000 C   0  0  0  0  0  1  0  0  0  0  0  0
  2  7  1  0  0  0  0
  2  6  2  0  0  0  0
  3  8  1  0  0  0  0
  4 16  1  1  0  0  0
  4  1  1  0  0  0  0
  5  3  2  0  0  0  0
  6  9  1  0  0  0  0
  8 15  1  0  0  0  0
 10  1  1  6  0  0  0
 10 15  1  0  0  0  0
 10  2  1  0  0  0  0
 11  4  1  0  0  0  0
 11  8  2  0  0  0  0
 12 13  2  0  0  0  0
 12  5  1  0  0  0  0
 13 11  1  0  0  0  0
 14  9  1  0  0  0  0
 15 14  1  1  0  0  0
 16 24  1  6  0  0  0
 17 21  1  0  0  0  0
 19 16  1  0  0  0  0
 19 21  2  0  0  0  0
 20 19  1  0  0  0  0
 21 18  1  0  0  0  0
 22 17  2  0  0  0  0
 23 20  2  0  0  0  0
 23 22  1  0  0  0  0
 25 24  2  0  0  0  0
 26 25  1  0  0  0  0
 27 26  1  0  0  0  0
 28 29  2  0  0  0  0
 29 27  1  0  0  0  0
 30 29  1  0  0  0  0
M  END
>  <MODEL>
2

>  <REMARK>
 VINA RESULT:      -9.0      0.997      1.165
  Name = 
  5 active torsions:
  status: ('A' for Active; 'I' for Inactive)
    1  A    between atoms: C_4  and  C_13
    2  A    between atoms: N_7  and  C_16
    3  A    between atoms: C_8  and  C_13
    4  A    between atoms: C_13  and  C_27
    5  A    between atoms: C_16  and  C_30
                            x       y       z     vdW  Elec       q    Type
                         _______ _______ _______ _____ _____    ______ ____

>  <TORSDO>
F 5

$$$$
=
 OpenBabel11052412323D

 30 33  0  0  1  0  0  0  0  0999 V2000
  186.1100  177.1870  142.7460 C   0  0  0  0  0  2  0  0  0  0  0  0
  184.0750  178.4670  141.9530 C   0  0  0  0  0  0  0  0  0  0  0  0
  185.4950  178.5950  146.7640 C   0  0  0  0  0  3  0  0  0  0  0  0
  187.3400  177.2960  143.6620 C   0  0  2  0  0  3  0  0  0  0  0  0
  186.4780  178.4240  147.7410 C   0  0  0  0  0  3  0  0  0  0  0  0
  182.8720  178.9730  142.2760 C   0  0  0  0  0  3  0  0  0  0  0  0
  184.4410  178.2290  140.2500 Cl  0  0  0  0  0  0  0  0  0  0  0  0
  185.7500  178.2540  145.4270 C   0  0  0  0  0  0  0  0  0  0  0  0
  182.4650  179.2690  143.7000 C   0  0  0  0  0  2  0  0  0  0  0  0
  185.1760  178.3670  142.9830 C   0  0  1  0  0  3  0  0  0  0  0  0
  187.0050  177.6910  145.0840 C   0  0  0  0  0  0  0  0  0  0  0  0
  187.7180  177.8820  147.3980 C   0  0  0  0  0  3  0  0  0  0  0  0
  187.9760  177.5140  146.0760 C   0  0  0  0  0  3  0  0  0  0  0  0
  183.6720  179.4740  144.6150 C   0  0  0  0  0  2  0  0  0  0  0  0
  184.6340  178.3070  144.4120 C   0  0  2  0  0  3  0  0  0  0  0  0
  188.4870  178.1450  143.0780 C   0  0  2  0  0  3  0  0  0  0  0  0
  189.9840  176.5930  139.9210 C   0  0  0  0  0  3  0  0  0  0  0  0
  190.1720  175.8360  142.2760 C   0  0  0  0  0  1  0  0  0  0  0  0
  188.8320  177.8870  141.6280 C   0  0  0  0  0  0  0  0  0  0  0  0
  188.3520  178.7430  140.6230 C   0  0  0  0  0  3  0  0  0  0  0  0
  189.6520  176.7990  141.2640 C   0  0  0  0  0  0  0  0  0  0  0  0
  189.5050  177.4560  138.9340 C   0  0  0  0  0  3  0  0  0  0  0  0
  188.6870  178.5300  139.2850 C   0  0  0  0  0  3  0  0  0  0  0  0
  189.6810  178.2390  143.9880 C   0  0  0  0  0  3  0  0  0  0  0  0
  190.8830  178.6260  143.5530 C   0  0  0  0  0  3  0  0  0  0  0  0
  192.0420  178.7040  144.4890 C   0  0  0  0  0  2  0  0  0  0  0  0
  191.6810  178.1270  145.7750 N   0  0  0  0  0  2  0  0  0  0  0  0
  192.0630  175.9260  145.0940 O   0  0  0  0  0  0  0  0  0  0  0  0
  191.7150  176.7200  146.0080 C   0  0  0  0  0  0  0  0  0  0  0  0
  191.3370  176.1860  147.3410 C   0  0  0  0  0  1  0  0  0  0  0  0
  1  4  1  0  0  0  0
  2  6  2  0  0  0  0
  2 10  1  0  0  0  0
  3  5  1  0  0  0  0
  4 16  1  6  0  0  0
  4 11  1  0  0  0  0
  6  9  1  0  0  0  0
  7  2  1  0  0  0  0
  8  3  2  0  0  0  0
  9 14  1  0  0  0  0
 10  1  1  6  0  0  0
 10 15  1  0  0  0  0
 11  8  1  0  0  0  0
 11 13  2  0  0  0  0
 12  5  2  0  0  0  0
 13 12  1  0  0  0  0
 15 14  1  1  0  0  0
 15  8  1  0  0  0  0
 16 24  1  1  0  0  0
 17 21  1  0  0  0  0
 19 16  1  0  0  0  0
 20 19  1  0  0  0  0
 21 19  2  0  0  0  0
 21 18  1  0  0  0  0
 22 23  1  0  0  0  0
 22 17  2  0  0  0  0
 23 20  2  0  0  0  0
 25 24  2  0  0  0  0
 25 26  1  0  0  0  0
 26 27  1  0  0  0  0
 27 29  1  0  0  0  0
 28 29  2  0  0  0  0
 29 30  1  0  0  0  0
M  END
>  <MODEL>
3

>  <REMARK>
 VINA RESULT:      -8.7      2.866      6.377
  Name = 
  5 active torsions:
  status: ('A' for Active; 'I' for Inactive)
    1  A    between atoms: C_4  and  C_13
    2  A    between atoms: N_7  and  C_16
    3  A    between atoms: C_8  and  C_13
    4  A    between atoms: C_13  and  C_27
    5  A    between atoms: C_16  and  C_30
                            x       y       z     vdW  Elec       q    Type
                         _______ _______ _______ _____ _____    ______ ____

>  <TORSDO>
F 5

$$$$
=
 OpenBabel11052412323D

 30 33  0  0  1  0  0  0  0  0999 V2000
  186.6080  179.3130  141.9730 C   0  0  0  0  0  2  0  0  0  0  0  0
  184.3880  178.9350  143.1300 C   0  0  0  0  0  0  0  0  0  0  0  0
  184.9490  177.9710  138.2380 C   0  0  0  0  0  3  0  0  0  0  0  0
  187.5690  178.6950  140.9440 C   0  0  2  0  0  3  0  0  0  0  0  0
  185.7750  177.7000  137.1440 C   0  0  0  0  0  3  0  0  0  0  0  0
  183.0500  178.8910  143.0040 C   0  0  0  0  0  3  0  0  0  0  0  0
  185.0600  179.1320  144.7430 Cl  0  0  0  0  0  0  0  0  0  0  0  0
  185.5020  178.2800  139.4900 C   0  0  0  0  0  0  0  0  0  0  0  0
  182.3610  178.6730  141.6770 C   0  0  0  0  0  2  0  0  0  0  0  0
  185.2890  178.5510  141.9790 C   0  0  1  0  0  3  0  0  0  0  0  0
  186.9100  178.3590  139.6230 C   0  0  0  0  0  0  0  0  0  0  0  0
  187.1610  177.7640  137.2820 C   0  0  0  0  0  3  0  0  0  0  0  0
  187.7250  178.0970  138.5150 C   0  0  0  0  0  3  0  0  0  0  0  0
  183.2660  177.9750  140.6630 C   0  0  0  0  0  2  0  0  0  0  0  0
  184.6020  178.7130  140.6220 C   0  0  2  0  0  3  0  0  0  0  0  0
  188.4070  177.5220  141.4910 C   0  0  2  0  0  3  0  0  0  0  0  0
  189.0500  177.3950  145.2570 C   0  0  0  0  0  3  0  0  0  0  0  0
  187.2560  176.3000  143.9380 C   0  0  0  0  0  1  0  0  0  0  0  0
  189.0400  177.7330  142.8480 C   0  0  0  0  0  0  0  0  0  0  0  0
  190.1980  178.5180  142.9760 C   0  0  0  0  0  3  0  0  0  0  0  0
  188.4680  177.1650  144.0060 C   0  0  0  0  0  0  0  0  0  0  0  0
  190.1970  178.1820  145.3690 C   0  0  0  0  0  3  0  0  0  0  0  0
  190.7730  178.7420  144.2280 C   0  0  0  0  0  3  0  0  0  0  0  0
  189.3310  176.9220  140.4660 C   0  0  0  0  0  3  0  0  0  0  0  0
  190.5450  177.4210  140.2190 C   0  0  0  0  0  3  0  0  0  0  0  0
  191.4300  176.7980  139.1930 C   0  0  0  0  0  2  0  0  0  0  0  0
  190.8280  175.5670  138.7010 N   0  0  0  0  0  2  0  0  0  0  0  0
  190.4030  176.4210  136.5680 O   0  0  0  0  0  0  0  0  0  0  0  0
  190.3330  175.4500  137.3670 C   0  0  0  0  0  0  0  0  0  0  0  0
  189.7290  174.1690  136.9190 C   0  0  0  0  0  1  0  0  0  0  0  0
  2  7  1  0  0  0  0
  3  8  1  0  0  0  0
  4 16  1  1  0  0  0
  4  1  1  0  0  0  0
  5 12  1  0  0  0  0
  5  3  2  0  0  0  0
  6  2  2  0  0  0  0
  8 11  2  0  0  0  0
  8 15  1  0  0  0  0
  9  6  1  0  0  0  0
 10  1  1  6  0  0  0
 10  2  1  0  0  0  0
 11  4  1  0  0  0  0
 12 13  2  0  0  0  0
 13 11  1  0  0  0  0
 14  9  1  0  0  0  0
 15 14  1  1  0  0  0
 15 10  1  0  0  0  0
 16 24  1  6  0  0  0
 16 19  1  0  0  0  0
 17 22  1  0  0  0  0
 18 21  1  0  0  0  0
 19 20  2  0  0  0  0
 19 21  1  0  0  0  0
 20 23  1  0  0  0  0
 21 17  2  0  0  0  0
 23 22  2  0  0  0  0
 25 24  2  0  0  0  0
 26 25  1  0  0  0  0
 27 26  1  0  0  0  0
 28 29  2  0  0  0  0
 29 27  1  0  0  0  0
 30 29  1  0  0  0  0
M  END
>  <MODEL>
4

>  <REMARK>
 VINA RESULT:      -8.3      1.794      5.591
  Name = 
  5 active torsions:
  status: ('A' for Active; 'I' for Inactive)
    1  A    between atoms: C_4  and  C_13
    2  A    between atoms: N_7  and  C_16
    3  A    between atoms: C_8  and  C_13
    4  A    between atoms: C_13  and  C_27
    5  A    between atoms: C_16  and  C_30
                            x       y       z     vdW  Elec       q    Type
                         _______ _______ _______ _____ _____    ______ ____

>  <TORSDO>
F 5

$$$$
=
 OpenBabel11052412323D

 30 33  0  0  1  0  0  0  0  0999 V2000
  186.4100  178.9510  141.2800 C   0  0  0  0  0  2  0  0  0  0  0  0
  188.4860  177.5030  141.3160 C   0  0  0  0  0  0  0  0  0  0  0  0
  185.7040  178.1330  145.4440 C   0  0  0  0  0  3  0  0  0  0  0  0
  184.9590  179.0180  141.7870 C   0  0  2  0  0  3  0  0  0  0  0  0
  184.4920  178.4780  146.0470 C   0  0  0  0  0  3  0  0  0  0  0  0
  189.4990  177.0120  142.0510 C   0  0  0  0  0  3  0  0  0  0  0  0
  188.6570  177.4990  139.5660 Cl  0  0  0  0  0  0  0  0  0  0  0  0
  185.8810  178.2800  144.0600 C   0  0  0  0  0  0  0  0  0  0  0  0
  189.4440  176.9160  143.5580 C   0  0  0  0  0  2  0  0  0  0  0  0
  187.1410  177.7900  141.9420 C   0  0  1  0  0  3  0  0  0  0  0  0
  184.8300  178.8270  143.2830 C   0  0  0  0  0  0  0  0  0  0  0  0
  183.4540  179.0030  145.2770 C   0  0  0  0  0  3  0  0  0  0  0  0
  183.6250  179.1800  143.9030 C   0  0  0  0  0  3  0  0  0  0  0  0
  188.0090  176.8880  144.0830 C   0  0  0  0  0  2  0  0  0  0  0  0
  187.2410  178.0420  143.4470 C   0  0  2  0  0  3  0  0  0  0  0  0
  183.9750  178.1300  141.0000 C   0  0  2  0  0  3  0  0  0  0  0  0
  184.0910  176.5510  137.5210 C   0  0  0  0  0  3  0  0  0  0  0  0
  182.6800  175.9430  139.4690 C   0  0  0  0  0  1  0  0  0  0  0  0
  184.3340  177.8610  139.5550 C   0  0  0  0  0  0  0  0  0  0  0  0
  185.2950  178.6520  138.9040 C   0  0  0  0  0  3  0  0  0  0  0  0
  183.7260  176.8030  138.8470 C   0  0  0  0  0  0  0  0  0  0  0  0
  185.0530  177.3410  136.8890 C   0  0  0  0  0  3  0  0  0  0  0  0
  185.6520  178.3940  137.5810 C   0  0  0  0  0  3  0  0  0  0  0  0
  182.5340  178.4990  141.2200 C   0  0  0  0  0  3  0  0  0  0  0  0
  181.9050  179.4070  140.4680 C   0  0  0  0  0  3  0  0  0  0  0  0
  180.4760  179.7450  140.7200 C   0  0  0  0  0  2  0  0  0  0  0  0
  180.2400  179.8710  142.1510 N   0  0  0  0  0  2  0  0  0  0  0  0
  179.0330  177.8770  142.3060 O   0  0  0  0  0  0  0  0  0  0  0  0
  179.5050  178.8920  142.8840 C   0  0  0  0  0  0  0  0  0  0  0  0
  179.2950  179.0720  144.3430 C   0  0  0  0  0  1  0  0  0  0  0  0
  1  4  1  0  0  0  0
  2 10  1  0  0  0  0
  2  6  2  0  0  0  0
  3  5  1  0  0  0  0
  4 16  1  6  0  0  0
  4 11  1  0  0  0  0
  6  9  1  0  0  0  0
  7  2  1  0  0  0  0
  8  3  2  0  0  0  0
  9 14  1  0  0  0  0
 10  1  1  6  0  0  0
 10 15  1  0  0  0  0
 11 13  2  0  0  0  0
 11  8  1  0  0  0  0
 12  5  2  0  0  0  0
 13 12  1  0  0  0  0
 15  8  1  0  0  0  0
 15 14  1  1  0  0  0
 16 24  1  6  0  0  0
 17 21  1  0  0  0  0
 19 16  1  0  0  0  0
 20 19  1  0  0  0  0
 21 18  1  0  0  0  0
 21 19  2  0  0  0  0
 22 17  2  0  0  0  0
 22 23  1  0  0  0  0
 23 20  2  0  0  0  0
 25 26  1  0  0  0  0
 25 24  2  0  0  0  0
 26 27  1  0  0  0  0
 27 29  1  0  0  0  0
 28 29  2  0  0  0  0
 29 30  1  0  0  0  0
M  END
>  <MODEL>
5

>  <REMARK>
 VINA RESULT:      -8.2      3.505      6.409
  Name = 
  5 active torsions:
  status: ('A' for Active; 'I' for Inactive)
    1  A    between atoms: C_4  and  C_13
    2  A    between atoms: N_7  and  C_16
    3  A    between atoms: C_8  and  C_13
    4  A    between atoms: C_13  and  C_27
    5  A    between atoms: C_16  and  C_30
                            x       y       z     vdW  Elec       q    Type
                         _______ _______ _______ _____ _____    ______ ____

>  <TORSDO>
F 5

$$$$
=
 OpenBabel11052412323D

 30 33  0  0  1  0  0  0  0  0999 V2000
  185.0000  179.2390  143.3210 C   0  0  0  0  0  2  0  0  0  0  0  0
  182.6170  178.6750  142.6790 C   0  0  0  0  0  0  0  0  0  0  0  0
  186.3350  178.3840  139.3220 C   0  0  0  0  0  3  0  0  0  0  0  0
  186.4560  178.7790  143.1350 C   0  0  2  0  0  3  0  0  0  0  0  0
  187.6970  178.2750  139.0290 C   0  0  0  0  0  3  0  0  0  0  0  0
  181.7020  178.6280  141.6960 C   0  0  0  0  0  3  0  0  0  0  0  0
  182.0460  178.6640  144.3420 Cl  0  0  0  0  0  0  0  0  0  0  0  0
  185.8990  178.5310  140.6470 C   0  0  0  0  0  0  0  0  0  0  0  0
  182.0740  178.5790  140.2330 C   0  0  0  0  0  2  0  0  0  0  0  0
  184.0840  178.4620  142.3830 C   0  0  1  0  0  3  0  0  0  0  0  0
  186.8600  178.6130  141.6860 C   0  0  0  0  0  0  0  0  0  0  0  0
  188.6390  178.3420  140.0560 C   0  0  0  0  0  3  0  0  0  0  0  0
  188.2220  178.5150  141.3760 C   0  0  0  0  0  3  0  0  0  0  0  0
  183.4860  178.0370  140.0140 C   0  0  0  0  0  2  0  0  0  0  0  0
  184.4400  178.7940  140.9340 C   0  0  2  0  0  3  0  0  0  0  0  0
  186.8450  177.5570  143.9900 C   0  0  2  0  0  3  0  0  0  0  0  0
  186.7860  178.4180  147.7140 C   0  0  0  0  0  3  0  0  0  0  0  0
  184.8850  178.0770  146.1580 C   0  0  0  0  0  1  0  0  0  0  0  0
  187.2940  177.8510  145.4040 C   0  0  0  0  0  0  0  0  0  0  0  0
  188.6620  177.8800  145.7220 C   0  0  0  0  0  3  0  0  0  0  0  0
  186.3510  178.1190  146.4190 C   0  0  0  0  0  0  0  0  0  0  0  0
  188.1500  178.4500  148.0130 C   0  0  0  0  0  3  0  0  0  0  0  0
  189.0880  178.1780  147.0170 C   0  0  0  0  0  3  0  0  0  0  0  0
  187.7140  176.5710  143.2590 C   0  0  0  0  0  3  0  0  0  0  0  0
  188.9820  176.3390  143.6080 C   0  0  0  0  0  3  0  0  0  0  0  0
  189.8110  175.3550  142.8550 C   0  0  0  0  0  2  0  0  0  0  0  0
  190.4370  176.0040  141.7130 N   0  0  0  0  0  2  0  0  0  0  0  0
  192.0520  177.0990  142.9970 O   0  0  0  0  0  0  0  0  0  0  0  0
  191.5630  176.8690  141.8600 C   0  0  0  0  0  0  0  0  0  0  0  0
  192.1620  177.5050  140.6590 C   0  0  0  0  0  1  0  0  0  0  0  0
  2  7  1  0  0  0  0
  3  8  1  0  0  0  0
  4  1  1  0  0  0  0
  4 16  1  1  0  0  0
  5  3  2  0  0  0  0
  5 12  1  0  0  0  0
  6  2  2  0  0  0  0
  8 15  1  0  0  0  0
  8 11  2  0  0  0  0
  9  6  1  0  0  0  0
 10  2  1  0  0  0  0
 10  1  1  1  0  0  0
 11  4  1  0  0  0  0
 12 13  2  0  0  0  0
 13 11  1  0  0  0  0
 14  9  1  0  0  0  0
 15 14  1  6  0  0  0
 15 10  1  0  0  0  0
 16 24  1  6  0  0  0
 16 19  1  0  0  0  0
 17 22  1  0  0  0  0
 18 21  1  0  0  0  0
 19 20  2  0  0  0  0
 19 21  1  0  0  0  0
 20 23  1  0  0  0  0
 21 17  2  0  0  0  0
 23 22  2  0  0  0  0
 24 25  2  0  0  0  0
 26 25  1  0  0  0  0
 27 29  1  0  0  0  0
 27 26  1  0  0  0  0
 29 28  2  0  0  0  0
 30 29  1  0  0  0  0
M  END
>  <MODEL>
6

>  <REMARK>
 VINA RESULT:      -8.1      2.043      5.540
  Name = 
  5 active torsions:
  status: ('A' for Active; 'I' for Inactive)
    1  A    between atoms: C_4  and  C_13
    2  A    between atoms: N_7  and  C_16
    3  A    between atoms: C_8  and  C_13
    4  A    between atoms: C_13  and  C_27
    5  A    between atoms: C_16  and  C_30
                            x       y       z     vdW  Elec       q    Type
                         _______ _______ _______ _____ _____    ______ ____

>  <TORSDO>
F 5

$$$$
=
 OpenBabel11052412323D

 30 33  0  0  1  0  0  0  0  0999 V2000
  189.2730  178.6500  144.1040 C   0  0  0  0  0  2  0  0  0  0  0  0
  191.1360  177.3080  145.1710 C   0  0  0  0  0  0  0  0  0  0  0  0
  186.6720  177.7730  147.4160 C   0  0  0  0  0  3  0  0  0  0  0  0
  187.7580  178.6420  143.8410 C   0  0  2  0  0  3  0  0  0  0  0  0
  185.3050  178.0540  147.3470 C   0  0  0  0  0  3  0  0  0  0  0  0
  191.6850  176.8640  146.3150 C   0  0  0  0  0  3  0  0  0  0  0  0
  192.1360  177.3230  143.7250 Cl  0  0  0  0  0  0  0  0  0  0  0  0
  187.4920  177.9370  146.2900 C   0  0  0  0  0  0  0  0  0  0  0  0
  190.9090  176.7560  147.6070 C   0  0  0  0  0  2  0  0  0  0  0  0
  189.6440  177.5230  145.0590 C   0  0  1  0  0  3  0  0  0  0  0  0
  186.9270  178.4350  145.0890 C   0  0  0  0  0  0  0  0  0  0  0  0
  184.7490  178.5300  146.1600 C   0  0  0  0  0  3  0  0  0  0  0  0
  185.5580  178.7240  145.0390 C   0  0  0  0  0  3  0  0  0  0  0  0
  189.4030  176.6530  147.3700 C   0  0  0  0  0  2  0  0  0  0  0  0
  188.9880  177.7710  146.4180 C   0  0  2  0  0  3  0  0  0  0  0  0
  187.3230  177.7100  142.6920 C   0  0  2  0  0  3  0  0  0  0  0  0
  190.1490  176.6490  140.3470 C   0  0  0  0  0  3  0  0  0  0  0  0
  189.4570  175.6550  142.5120 C   0  0  0  0  0  1  0  0  0  0  0  0
  188.2550  177.6450  141.5020 C   0  0  0  0  0  0  0  0  0  0  0  0
  188.1230  178.5630  140.4480 C   0  0  0  0  0  3  0  0  0  0  0  0
  189.2790  176.6760  141.4410 C   0  0  0  0  0  0  0  0  0  0  0  0
  190.0100  177.5720  139.3090 C   0  0  0  0  0  3  0  0  0  0  0  0
  188.9950  178.5280  139.3590 C   0  0  0  0  0  3  0  0  0  0  0  0
  185.8700  177.8480  142.3310 C   0  0  0  0  0  3  0  0  0  0  0  0
  185.4330  178.7620  141.4610 C   0  0  0  0  0  3  0  0  0  0  0  0
  183.9820  178.8680  141.1320 C   0  0  0  0  0  2  0  0  0  0  0  0
  183.1860  178.7090  142.3410 N   0  0  0  0  0  2  0  0  0  0  0  0
  181.1730  179.2740  141.3000 O   0  0  0  0  0  0  0  0  0  0  0  0
  181.7770  178.9300  142.3510 C   0  0  0  0  0  0  0  0  0  0  0  0
  181.0150  178.7530  143.6130 C   0  0  0  0  0  1  0  0  0  0  0  0
  2  6  2  0  0  0  0
  4 16  1  6  0  0  0
  4  1  1  0  0  0  0
  4 11  1  0  0  0  0
  5  3  1  0  0  0  0
  6  9  1  0  0  0  0
  7  2  1  0  0  0  0
  8 15  1  0  0  0  0
  8  3  2  0  0  0  0
 10  1  1  6  0  0  0
 10  2  1  0  0  0  0
 10 15  1  0  0  0  0
 11  8  1  0  0  0  0
 12  5  2  0  0  0  0
 13 11  2  0  0  0  0
 13 12  1  0  0  0  0
 14  9  1  0  0  0  0
 15 14  1  1  0  0  0
 16 24  1  6  0  0  0
 17 21  1  0  0  0  0
 19 16  1  0  0  0  0
 20 19  1  0  0  0  0
 21 19  2  0  0  0  0
 21 18  1  0  0  0  0
 22 23  1  0  0  0  0
 22 17  2  0  0  0  0
 23 20  2  0  0  0  0
 25 24  2  0  0  0  0
 26 25  1  0  0  0  0
 26 27  1  0  0  0  0
 27 29  1  0  0  0  0
 28 29  2  0  0  0  0
 29 30  1  0  0  0  0
M  END
>  <MODEL>
7

>  <REMARK>
 VINA RESULT:      -7.9      2.744      5.642
  Name = 
  5 active torsions:
  status: ('A' for Active; 'I' for Inactive)
    1  A    between atoms: C_4  and  C_13
    2  A    between atoms: N_7  and  C_16
    3  A    between atoms: C_8  and  C_13
    4  A    between atoms: C_13  and  C_27
    5  A    between atoms: C_16  and  C_30
                            x       y       z     vdW  Elec       q    Type
                         _______ _______ _______ _____ _____    ______ ____

>  <TORSDO>
F 5

$$$$
=
 OpenBabel11052412323D

 30 33  0  0  1  0  0  0  0  0999 V2000
  186.5140  176.6350  143.2020 C   0  0  0  0  0  2  0  0  0  0  0  0
  184.5770  178.2530  142.9960 C   0  0  0  0  0  0  0  0  0  0  0  0
  187.5030  178.2280  147.0730 C   0  0  0  0  0  3  0  0  0  0  0  0
  187.9770  176.5350  143.6640 C   0  0  2  0  0  3  0  0  0  0  0  0
  188.7100  177.9000  147.6960 C   0  0  0  0  0  3  0  0  0  0  0  0
  183.6510  178.9810  143.6440 C   0  0  0  0  0  3  0  0  0  0  0  0
  184.3170  177.9100  141.2920 Cl  0  0  0  0  0  0  0  0  0  0  0  0
  187.2420  177.8140  145.7580 C   0  0  0  0  0  0  0  0  0  0  0  0
  183.7920  179.3820  145.0930 C   0  0  0  0  0  2  0  0  0  0  0  0
  185.9230  177.9740  143.6250 C   0  0  1  0  0  3  0  0  0  0  0  0
  188.2000  177.0190  145.0810 C   0  0  0  0  0  0  0  0  0  0  0  0
  189.6570  177.1290  147.0210 C   0  0  0  0  0  3  0  0  0  0  0  0
  189.4000  176.6880  145.7220 C   0  0  0  0  0  3  0  0  0  0  0  0
  185.2490  179.3800  145.5540 C   0  0  0  0  0  2  0  0  0  0  0  0
  185.8790  178.0500  145.1520 C   0  0  2  0  0  3  0  0  0  0  0  0
  188.9930  177.1410  142.6750 C   0  0  2  0  0  3  0  0  0  0  0  0
  192.3710  178.1240  144.1710 C   0  0  0  0  0  3  0  0  0  0  0  0
  191.6430  175.9360  143.2540 C   0  0  0  0  0  1  0  0  0  0  0  0
  190.1110  177.9550  143.2880 C   0  0  0  0  0  0  0  0  0  0  0  0
  189.9140  179.3120  143.5940 C   0  0  0  0  0  3  0  0  0  0  0  0
  191.3580  177.3630  143.5780 C   0  0  0  0  0  0  0  0  0  0  0  0
  192.1590  179.4690  144.4760 C   0  0  0  0  0  3  0  0  0  0  0  0
  190.9310  180.0640  144.1850 C   0  0  0  0  0  3  0  0  0  0  0  0
  188.3480  177.7810  141.4770 C   0  0  0  0  0  3  0  0  0  0  0  0
  188.9940  177.9470  140.3200 C   0  0  0  0  0  3  0  0  0  0  0  0
  188.3180  178.5890  139.1570 C   0  0  0  0  0  2  0  0  0  0  0  0
  187.5220  177.6050  138.4400 N   0  0  0  0  0  2  0  0  0  0  0  0
  185.6530  178.9940  138.2520 O   0  0  0  0  0  0  0  0  0  0  0  0
  186.1870  177.8780  138.0150 C   0  0  0  0  0  0  0  0  0  0  0  0
  185.4200  176.8350  137.2870 C   0  0  0  0  0  1  0  0  0  0  0  0
  1  4  1  0  0  0  0
  2 10  1  0  0  0  0
  2  6  2  0  0  0  0
  3  5  1  0  0  0  0
  4 16  1  6  0  0  0
  4 11  1  0  0  0  0
  6  9  1  0  0  0  0
  7  2  1  0  0  0  0
  8  3  2  0  0  0  0
  9 14  1  0  0  0  0
 10  1  1  1  0  0  0
 10 15  1  0  0  0  0
 11 13  2  0  0  0  0
 11  8  1  0  0  0  0
 12  5  2  0  0  0  0
 13 12  1  0  0  0  0
 15 14  1  6  0  0  0
 15  8  1  0  0  0  0
 16 24  1  6  0  0  0
 16 19  1  0  0  0  0
 17 22  1  0  0  0  0
 18 21  1  0  0  0  0
 19 21  1  0  0  0  0
 19 20  2  0  0  0  0
 20 23  1  0  0  0  0
 21 17  2  0  0  0  0
 23 22  2  0  0  0  0
 25 24  2  0  0  0  0
 26 25  1  0  0  0  0
 27 26  1  0  0  0  0
 29 28  2  0  0  0  0
 29 27  1  0  0  0  0
 30 29  1  0  0  0  0
M  END
>  <MODEL>
8

>  <REMARK>
 VINA RESULT:      -7.8      1.856      5.200
  Name = 
  5 active torsions:
  status: ('A' for Active; 'I' for Inactive)
    1  A    between atoms: C_4  and  C_13
    2  A    between atoms: N_7  and  C_16
    3  A    between atoms: C_8  and  C_13
    4  A    between atoms: C_13  and  C_27
    5  A    between atoms: C_16  and  C_30
                            x       y       z     vdW  Elec       q    Type
                         _______ _______ _______ _____ _____    ______ ____

>  <TORSDO>
F 5

$$$$
=
 OpenBabel11052412323D

 30 33  0  0  1  0  0  0  0  0999 V2000
  184.1790  178.9960  138.6900 C   0  0  0  0  0  2  0  0  0  0  0  0
  184.0910  177.6580  136.5420 C   0  0  0  0  0  0  0  0  0  0  0  0
  188.2450  177.7610  139.3550 C   0  0  0  0  0  3  0  0  0  0  0  0
  184.6820  178.9420  140.1420 C   0  0  2  0  0  3  0  0  0  0  0  0
  188.8700  177.9870  140.5840 C   0  0  0  0  0  3  0  0  0  0  0  0
  184.7840  177.1540  135.5060 C   0  0  0  0  0  3  0  0  0  0  0  0
  182.3500  177.8250  136.3690 Cl  0  0  0  0  0  0  0  0  0  0  0  0
  186.8820  178.0450  139.1850 C   0  0  0  0  0  0  0  0  0  0  0  0
  186.2750  176.9160  135.5570 C   0  0  0  0  0  2  0  0  0  0  0  0
  184.7340  177.8170  137.9010 C   0  0  1  0  0  3  0  0  0  0  0  0
  186.1530  178.6070  140.2620 C   0  0  0  0  0  0  0  0  0  0  0  0
  188.1460  178.5270  141.6470 C   0  0  0  0  0  3  0  0  0  0  0  0
  186.7950  178.8390  141.4840 C   0  0  0  0  0  3  0  0  0  0  0  0
  186.7870  176.7660  136.9890 C   0  0  0  0  0  2  0  0  0  0  0  0
  186.2560  177.9340  137.8150 C   0  0  2  0  0  3  0  0  0  0  0  0
  183.8100  178.0820  141.0790 C   0  0  2  0  0  3  0  0  0  0  0  0
  180.3180  177.1150  139.8610 C   0  0  0  0  0  3  0  0  0  0  0  0
  182.4470  175.8550  139.6670 C   0  0  0  0  0  1  0  0  0  0  0  0
  182.3210  178.1120  140.8140 C   0  0  0  0  0  0  0  0  0  0  0  0
  181.5480  179.2050  141.2400 C   0  0  0  0  0  3  0  0  0  0  0  0
  181.6910  177.0570  140.1220 C   0  0  0  0  0  0  0  0  0  0  0  0
  179.5640  178.2110  140.2830 C   0  0  0  0  0  3  0  0  0  0  0  0
  180.1780  179.2550  140.9750 C   0  0  0  0  0  3  0  0  0  0  0  0
  184.1820  178.2180  142.5300 C   0  0  0  0  0  3  0  0  0  0  0  0
  183.4190  178.8780  143.4050 C   0  0  0  0  0  3  0  0  0  0  0  0
  183.8250  178.9920  144.8340 C   0  0  0  0  0  2  0  0  0  0  0  0
  185.1120  178.3450  145.0380 N   0  0  0  0  0  2  0  0  0  0  0  0
  185.5270  179.4150  147.0730 O   0  0  0  0  0  0  0  0  0  0  0  0
  185.9150  178.6060  146.1890 C   0  0  0  0  0  0  0  0  0  0  0  0
  187.2210  177.9160  146.3450 C   0  0  0  0  0  1  0  0  0  0  0  0
  1  4  1  0  0  0  0
  2 10  1  0  0  0  0
  3  5  1  0  0  0  0
  4 11  1  0  0  0  0
  4 16  1  1  0  0  0
  5 12  2  0  0  0  0
  6  9  1  0  0  0  0
  6  2  2  0  0  0  0
  7  2  1  0  0  0  0
  8  3  2  0  0  0  0
  8 11  1  0  0  0  0
  9 14  1  0  0  0  0
 10  1  1  6  0  0  0
 11 13  2  0  0  0  0
 13 12  1  0  0  0  0
 15 14  1  1  0  0  0
 15 10  1  0  0  0  0
 15  8  1  0  0  0  0
 16 24  1  1  0  0  0
 17 21  2  0  0  0  0
 17 22  1  0  0  0  0
 18 21  1  0  0  0  0
 19 16  1  0  0  0  0
 19 20  2  0  0  0  0
 21 19  1  0  0  0  0
 22 23  2  0  0  0  0
 23 20  1  0  0  0  0
 24 25  2  0  0  0  0
 25 26  1  0  0  0  0
 26 27  1  0  0  0  0
 27 29  1  0  0  0  0
 29 30  1  0  0  0  0
 29 28  2  0  0  0  0
M  END
>  <MODEL>
9

>  <REMARK>
 VINA RESULT:      -7.8      3.646      7.064
  Name = 
  5 active torsions:
  status: ('A' for Active; 'I' for Inactive)
    1  A    between atoms: C_4  and  C_13
    2  A    between atoms: N_7  and  C_16
    3  A    between atoms: C_8  and  C_13
    4  A    between atoms: C_13  and  C_27
    5  A    between atoms: C_16  and  C_30
                            x       y       z     vdW  Elec       q    Type
                         _______ _______ _______ _____ _____    ______ ____

>  <TORSDO>
F 5

$$$$
