=
 OpenBabel11052417053D

 32 37  0  0  1  0  0  0  0  0999 V2000
  183.8780  179.1360  144.5080 C   0  0  2  0  0  3  0  0  0  0  0  0
  182.3500  179.3050  140.3580 C   0  0  1  0  0  3  0  0  0  0  0  0
  178.9680  177.4810  139.4750 C   0  0  0  0  0  2  0  0  0  0  0  0
  184.4680  179.2430  138.9240 C   0  0  1  0  0  3  0  0  0  0  0  0
  185.1500  178.5240  137.7990 C   0  0  0  0  0  0  0  0  0  0  0  0
  183.7050  177.6540  141.7760 C   0  0  0  0  0  2  0  0  0  0  0  0
  180.4990  178.5340  142.2370 S   0  0  0  0  0  0  0  0  0  0  0  0
  186.5950  177.8950  136.3660 C   0  0  0  0  0  0  0  0  0  0  0  0
  182.4600  178.7160  144.1460 C   0  0  0  0  0  2  0  0  0  0  0  0
  179.6320  178.3060  138.3830 C   0  0  0  0  0  2  0  0  0  0  0  0
  180.8650  178.9440  140.4980 C   0  0  2  0  0  3  0  0  0  0  0  0
  180.4420  177.8120  139.5600 C   0  0  0  0  0  0  0  0  0  0  0  0
  182.8500  177.2450  138.9050 C   0  0  1  0  0  3  0  0  0  0  0  0
  187.8300  177.8670  135.5390 C   0  0  0  0  0  1  0  0  0  0  0  0
  184.9200  178.2060  143.9350 C   0  0  0  0  0  3  0  0  0  0  0  0
  182.0610  179.2780  142.7810 C   0  0  1  0  0  3  0  0  0  0  0  0
  186.3540  178.8440  137.2950 N   0  0  0  0  0  2  0  0  0  0  0  0
  184.8650  177.6020  142.7340 C   0  0  0  0  0  3  0  0  0  0  0  0
  181.4330  176.7130  139.1710 C   0  0  1  0  0  3  0  0  0  0  0  0
  183.3340  176.7760  137.5290 C   0  0  0  0  0  2  0  0  0  0  0  0
  183.0930  179.0550  141.6760 C   0  0  2  0  0  3  0  0  0  0  0  0
  184.5060  180.6200  138.6970 O   0  0  0  0  0  1  0  0  0  0  0  0
  185.5750  176.9590  136.2720 C   0  0  0  0  0  3  0  0  0  0  0  0
  183.0050  178.7810  139.0630 C   0  0  1  0  0  3  0  0  0  0  0  0
  184.6680  177.3750  137.2220 C   0  0  0  0  0  0  0  0  0  0  0  0
  180.6980  174.6920  139.6960 C   0  0  0  0  0  1  0  0  0  0  0  0
  181.4830  175.7430  140.1750 O   0  0  0  0  0  0  0  0  0  0  0  0
  184.0160  179.1860  145.9520 N   0  0  0  0  0  2  0  0  0  0  0  0
  185.0390  178.2200  146.3180 C   0  0  0  0  0  2  0  0  0  0  0  0
  186.0500  178.8630  147.2060 C   0  0  0  0  0  0  0  0  0  0  0  0
  185.8650  179.9930  147.6300 O   0  0  0  0  0  0  0  0  0  0  0  0
  187.2780  178.1160  147.5920 C   0  0  0  0  0  1  0  0  0  0  0  0
  1 28  1  1  0  0  0
  2 11  1  0  0  0  0
  2 21  1  0  0  0  0
  3 12  1  0  0  0  0
  4 24  1  0  0  0  0
  5  4  1  0  0  0  0
  6 18  1  0  0  0  0
  7 16  1  0  0  0  0
  8 17  1  0  0  0  0
  9  1  1  0  0  0  0
 10  3  1  0  0  0  0
 10 12  1  0  0  0  0
 11  7  1  0  0  0  0
 12 11  1  0  0  0  0
 13 24  1  0  0  0  0
 13 19  1  0  0  0  0
 14  8  1  0  0  0  0
 15  1  1  0  0  0  0
 16  9  1  0  0  0  0
 17  5  1  0  0  0  0
 18 15  2  0  0  0  0
 19 12  1  0  0  0  0
 19 27  1  0  0  0  0
 20 13  1  0  0  0  0
 21  6  1  0  0  0  0
 21 16  1  0  0  0  0
 22  4  1  0  0  0  0
 23  8  2  0  0  0  0
 23 25  1  0  0  0  0
 24  2  1  0  0  0  0
 25 20  1  0  0  0  0
 25  5  2  0  0  0  0
 26 27  1  0  0  0  0
 28 29  1  0  0  0  0
 29 30  1  0  0  0  0
 30 32  1  0  0  0  0
 30 31  2  0  0  0  0
M  END
>  <MODEL>
1

>  <REMARK>
 VINA RESULT:      -6.5      0.000      0.000
  Name = 
  4 active torsions:
  status: ('A' for Active; 'I' for Inactive)
    1  A    between atoms: C_1  and  C_10
    2  A    between atoms: C_2  and  N_24
    3  A    between atoms: C_10  and  N_24
    4  A    between atoms: O_25  and  C_26
                            x       y       z     vdW  Elec       q    Type
                         _______ _______ _______ _____ _____    ______ ____

>  <TORSDO>
F 4

$$$$
=
 OpenBabel11052417053D

 32 37  0  0  1  0  0  0  0  0999 V2000
  189.2950  177.7890  143.4660 C   0  0  2  0  0  3  0  0  0  0  0  0
  190.5120  177.9560  139.2150 C   0  0  1  0  0  3  0  0  0  0  0  0
  187.7550  177.6780  136.4110 C   0  0  0  0  0  2  0  0  0  0  0  0
  192.7690  176.7530  139.1780 C   0  0  1  0  0  3  0  0  0  0  0  0
  193.5400  175.6410  138.5300 C   0  0  0  0  0  0  0  0  0  0  0  0
  189.9790  176.1240  140.9280 C   0  0  0  0  0  2  0  0  0  0  0  0
  187.8340  178.3750  139.6640 S   0  0  0  0  0  0  0  0  0  0  0  0
  195.0630  174.2290  138.0560 C   0  0  0  0  0  0  0  0  0  0  0  0
  188.2890  177.9800  142.3400 C   0  0  0  0  0  2  0  0  0  0  0  0
  189.1860  177.9480  135.9710 C   0  0  0  0  0  2  0  0  0  0  0  0
  189.2140  178.3070  138.4750 C   0  0  2  0  0  3  0  0  0  0  0  0
  188.9100  177.3410  137.3280 C   0  0  0  0  0  0  0  0  0  0  0  0
  190.7300  175.6850  138.0320 C   0  0  1  0  0  3  0  0  0  0  0  0
  196.3770  173.5360  138.0430 C   0  0  0  0  0  1  0  0  0  0  0  0
  189.9330  176.4210  143.4470 C   0  0  0  0  0  3  0  0  0  0  0  0
  188.9900  178.4380  141.0600 C   0  0  1  0  0  3  0  0  0  0  0  0
  194.8150  175.3200  138.8110 N   0  0  0  0  0  2  0  0  0  0  0  0
  190.2690  175.7220  142.3490 C   0  0  0  0  0  3  0  0  0  0  0  0
  189.3370  175.8740  137.4120 C   0  0  1  0  0  3  0  0  0  0  0  0
  191.6060  174.8430  137.0990 C   0  0  0  0  0  2  0  0  0  0  0  0
  190.2220  177.6170  140.6820 C   0  0  2  0  0  3  0  0  0  0  0  0
  193.5340  177.9200  139.1800 O   0  0  0  0  0  1  0  0  0  0  0  0
  193.9660  173.8300  137.3050 C   0  0  0  0  0  3  0  0  0  0  0  0
  191.4420  177.0040  138.4360 C   0  0  1  0  0  3  0  0  0  0  0  0
  192.9930  174.7430  137.6480 C   0  0  0  0  0  0  0  0  0  0  0  0
  187.8590  174.2340  137.2460 C   0  0  0  0  0  1  0  0  0  0  0  0
  188.3980  175.1500  138.1510 O   0  0  0  0  0  0  0  0  0  0  0  0
  188.6390  178.0000  144.7450 N   0  0  0  0  0  2  0  0  0  0  0  0
  187.2470  177.6180  144.5780 C   0  0  0  0  0  2  0  0  0  0  0  0
  186.4460  178.0990  145.7410 C   0  0  0  0  0  0  0  0  0  0  0  0
  186.8730  177.9680  146.8770 O   0  0  0  0  0  0  0  0  0  0  0  0
  185.1310  178.7600  145.5120 C   0  0  0  0  0  1  0  0  0  0  0  0
  1 28  1  1  0  0  0
  2 21  1  0  0  0  0
  3 12  1  0  0  0  0
  4 22  1  0  0  0  0
  5 17  1  0  0  0  0
  5  4  1  0  0  0  0
  6 18  1  0  0  0  0
  7 16  1  0  0  0  0
  8 17  1  0  0  0  0
  9  1  1  0  0  0  0
 10  3  1  0  0  0  0
 10 12  1  0  0  0  0
 11  2  1  0  0  0  0
 11  7  1  0  0  0  0
 12 19  1  0  0  0  0
 12 11  1  0  0  0  0
 13 24  1  0  0  0  0
 14  8  1  0  0  0  0
 15  1  1  0  0  0  0
 16  9  1  0  0  0  0
 18 15  2  0  0  0  0
 19 13  1  0  0  0  0
 19 27  1  0  0  0  0
 20 25  1  0  0  0  0
 20 13  1  0  0  0  0
 21  6  1  0  0  0  0
 21 16  1  0  0  0  0
 23 25  1  0  0  0  0
 23  8  2  0  0  0  0
 24  4  1  0  0  0  0
 24  2  1  0  0  0  0
 25  5  2  0  0  0  0
 26 27  1  0  0  0  0
 29 28  1  0  0  0  0
 29 30  1  0  0  0  0
 30 31  2  0  0  0  0
 32 30  1  0  0  0  0
M  END
>  <MODEL>
2

>  <REMARK>
 VINA RESULT:      -6.0      5.531      7.618
  Name = 
  4 active torsions:
  status: ('A' for Active; 'I' for Inactive)
    1  A    between atoms: C_1  and  C_10
    2  A    between atoms: C_2  and  N_24
    3  A    between atoms: C_10  and  N_24
    4  A    between atoms: O_25  and  C_26
                            x       y       z     vdW  Elec       q    Type
                         _______ _______ _______ _____ _____    ______ ____

>  <TORSDO>
F 4

$$$$
=
 OpenBabel11052417053D

 32 37  0  0  1  0  0  0  0  0999 V2000
  183.9500  178.4070  141.7050 C   0  0  2  0  0  3  0  0  0  0  0  0
  180.5930  178.4670  138.8230 C   0  0  1  0  0  3  0  0  0  0  0  0
  179.9140  175.2900  136.5910 C   0  0  0  0  0  2  0  0  0  0  0  0
  180.5480  180.8850  137.9870 C   0  0  1  0  0  3  0  0  0  0  0  0
  180.5750  181.7430  136.7580 C   0  0  0  0  0  0  0  0  0  0  0  0
  183.1230  178.8730  138.7420 C   0  0  0  0  0  2  0  0  0  0  0  0
  181.5770  175.9660  139.3940 S   0  0  0  0  0  0  0  0  0  0  0  0
  180.6440  183.4250  135.4520 C   0  0  0  0  0  0  0  0  0  0  0  0
  183.4420  177.1450  141.0230 C   0  0  0  0  0  2  0  0  0  0  0  0
  178.9310  176.4460  136.4920 C   0  0  0  0  0  2  0  0  0  0  0  0
  180.3390  176.9840  138.5230 C   0  0  2  0  0  3  0  0  0  0  0  0
  180.3260  176.6800  137.0240 C   0  0  0  0  0  0  0  0  0  0  0  0
  181.2280  178.9890  136.3890 C   0  0  1  0  0  3  0  0  0  0  0  0
  180.6190  184.8320  134.9760 C   0  0  0  0  0  1  0  0  0  0  0  0
  184.6090  179.3620  140.7390 C   0  0  0  0  0  3  0  0  0  0  0  0
  182.0430  177.3670  140.4480 C   0  0  1  0  0  3  0  0  0  0  0  0
  180.5130  183.0860  136.7520 N   0  0  0  0  0  2  0  0  0  0  0  0
  184.2230  179.5960  139.4720 C   0  0  0  0  0  3  0  0  0  0  0  0
  181.1950  177.4890  136.0580 C   0  0  1  0  0  3  0  0  0  0  0  0
  180.8510  179.8050  135.1480 C   0  0  0  0  0  2  0  0  0  0  0  0
  181.8900  178.6430  139.6220 C   0  0  2  0  0  3  0  0  0  0  0  0
  179.5060  181.2880  138.8230 O   0  0  0  0  0  1  0  0  0  0  0  0
  180.8050  182.3250  134.6200 C   0  0  0  0  0  3  0  0  0  0  0  0
  180.3710  179.4000  137.6150 C   0  0  1  0  0  3  0  0  0  0  0  0
  180.7800  181.2580  135.4900 C   0  0  0  0  0  0  0  0  0  0  0  0
  182.8030  176.7810  134.7110 C   0  0  0  0  0  1  0  0  0  0  0  0
  182.4980  176.9850  136.0580 O   0  0  0  0  0  0  0  0  0  0  0  0
  184.8920  178.0490  142.7510 N   0  0  0  0  0  2  0  0  0  0  0  0
  184.4820  178.7540  143.9540 C   0  0  0  0  0  2  0  0  0  0  0  0
  185.4280  178.4510  145.0670 C   0  0  0  0  0  0  0  0  0  0  0  0
  185.2290  178.9040  146.1830 O   0  0  0  0  0  0  0  0  0  0  0  0
  186.6070  177.5760  144.8200 C   0  0  0  0  0  1  0  0  0  0  0  0
  1 28  1  1  0  0  0
  2 21  1  0  0  0  0
  3 12  1  0  0  0  0
  4 22  1  0  0  0  0
  5  4  1  0  0  0  0
  6 18  1  0  0  0  0
  6 21  1  0  0  0  0
  7 16  1  0  0  0  0
  8 17  1  0  0  0  0
  9  1  1  0  0  0  0
 10  3  1  0  0  0  0
 10 12  1  0  0  0  0
 11  2  1  0  0  0  0
 11  7  1  0  0  0  0
 12 11  1  0  0  0  0
 13 24  1  0  0  0  0
 14  8  1  0  0  0  0
 15  1  1  0  0  0  0
 16  9  1  0  0  0  0
 17  5  1  0  0  0  0
 18 15  2  0  0  0  0
 19 13  1  0  0  0  0
 19 12  1  0  0  0  0
 20 25  1  0  0  0  0
 20 13  1  0  0  0  0
 21 16  1  0  0  0  0
 23  8  2  0  0  0  0
 23 25  1  0  0  0  0
 24  4  1  0  0  0  0
 24  2  1  0  0  0  0
 25  5  2  0  0  0  0
 26 27  1  0  0  0  0
 27 19  1  0  0  0  0
 28 29  1  0  0  0  0
 29 30  1  0  0  0  0
 30 31  2  0  0  0  0
 32 30  1  0  0  0  0
M  END
>  <MODEL>
3

>  <REMARK>
 VINA RESULT:      -5.8      3.415      4.540
  Name = 
  4 active torsions:
  status: ('A' for Active; 'I' for Inactive)
    1  A    between atoms: C_1  and  C_10
    2  A    between atoms: C_2  and  N_24
    3  A    between atoms: C_10  and  N_24
    4  A    between atoms: O_25  and  C_26
                            x       y       z     vdW  Elec       q    Type
                         _______ _______ _______ _____ _____    ______ ____

>  <TORSDO>
F 4

$$$$
=
 OpenBabel11052417053D

 32 37  0  0  1  0  0  0  0  0999 V2000
  179.6850  180.8890  135.5750 C   0  0  2  0  0  3  0  0  0  0  0  0
  181.1250  178.0530  138.6520 C   0  0  1  0  0  3  0  0  0  0  0  0
  184.4000  178.9060  140.6740 C   0  0  0  0  0  2  0  0  0  0  0  0
  180.5570  175.7560  137.6790 C   0  0  1  0  0  3  0  0  0  0  0  0
  181.1280  174.4180  137.3170 C   0  0  0  0  0  0  0  0  0  0  0  0
  181.6500  178.5560  136.1930 C   0  0  0  0  0  2  0  0  0  0  0  0
  182.2010  180.5760  138.8160 S   0  0  0  0  0  0  0  0  0  0  0  0
  181.3510  172.4370  136.5680 C   0  0  0  0  0  0  0  0  0  0  0  0
  180.7560  181.2650  136.5890 C   0  0  0  0  0  2  0  0  0  0  0  0
  183.6280  177.6560  141.0720 C   0  0  0  0  0  2  0  0  0  0  0  0
  182.0640  178.9000  139.5210 C   0  0  2  0  0  3  0  0  0  0  0  0
  183.4420  178.2580  139.6980 C   0  0  0  0  0  0  0  0  0  0  0  0
  183.0140  176.4760  137.9120 C   0  0  1  0  0  3  0  0  0  0  0  0
  181.0100  171.1050  136.0010 C   0  0  0  0  0  1  0  0  0  0  0  0
  180.1590  179.8440  134.5940 C   0  0  0  0  0  3  0  0  0  0  0  0
  180.7440  180.2980  137.7730 C   0  0  1  0  0  3  0  0  0  0  0  0
  180.4280  173.3940  136.8000 N   0  0  0  0  0  0  0  0  0  0  0  0
  180.9720  178.8090  134.8730 C   0  0  0  0  0  3  0  0  0  0  0  0
  184.0450  177.3920  138.5900 C   0  0  1  0  0  3  0  0  0  0  0  0
  183.5100  175.0270  137.9340 C   0  0  0  0  0  2  0  0  0  0  0  0
  180.7240  178.8200  137.3850 C   0  0  2  0  0  3  0  0  0  0  0  0
  179.3930  175.5860  138.4300 O   0  0  0  0  0  1  0  0  0  0  0  0
  182.6370  172.8300  136.9120 C   0  0  0  0  0  3  0  0  0  0  0  0
  181.5750  176.5880  138.4830 C   0  0  1  0  0  3  0  0  0  0  0  0
  182.4670  174.1180  137.3690 C   0  0  1  0  0  3  0  0  0  0  0  0
  185.9740  177.7780  137.5750 C   0  0  0  0  0  1  0  0  0  0  0  0
  184.6460  178.2060  137.6270 O   0  0  0  0  0  0  0  0  0  0  0  0
  179.2630  182.0760  134.8510 N   0  0  0  0  0  2  0  0  0  0  0  0
  180.4100  182.9660  134.7840 C   0  0  0  0  0  2  0  0  0  0  0  0
  180.0140  184.3370  135.2170 C   0  0  0  0  0  0  0  0  0  0  0  0
  178.9760  184.8340  134.8100 O   0  0  0  0  0  0  0  0  0  0  0  0
  180.8790  185.0930  136.1650 C   0  0  0  0  0  1  0  0  0  0  0  0
  1 28  1  6  0  0  0
  1  9  1  0  0  0  0
  2 11  1  0  0  0  0
  3 10  1  0  0  0  0
  4 22  1  0  0  0  0
  4 24  1  0  0  0  0
  5 25  1  0  0  0  0
  5  4  1  0  0  0  0
  6 21  1  0  0  0  0
  7 11  1  0  0  0  0
  8 17  1  0  0  0  0
  8 23  2  0  0  0  0
  9 16  1  0  0  0  0
 11 12  1  0  0  0  0
 12  3  1  0  0  0  0
 12 10  1  0  0  0  0
 13 20  1  0  0  0  0
 13 24  1  0  0  0  0
 13 19  1  0  0  0  0
 14  8  1  0  0  0  0
 15 18  2  0  0  0  0
 15  1  1  0  0  0  0
 16  7  1  0  0  0  0
 17  5  2  0  0  0  0
 18  6  1  0  0  0  0
 19 12  1  0  0  0  0
 21 16  1  0  0  0  0
 21  2  1  0  0  0  0
 23 25  1  0  0  0  0
 24  2  1  0  0  0  0
 25 20  1  0  0  0  0
 26 27  1  0  0  0  0
 27 19  1  0  0  0  0
 29 28  1  0  0  0  0
 29 30  1  0  0  0  0
 30 32  1  0  0  0  0
 31 30  2  0  0  0  0
M  END
>  <MODEL>
4

>  <REMARK>
 VINA RESULT:      -5.1      4.163      7.886
  Name = 
  4 active torsions:
  status: ('A' for Active; 'I' for Inactive)
    1  A    between atoms: C_1  and  C_10
    2  A    between atoms: C_2  and  N_24
    3  A    between atoms: C_10  and  N_24
    4  A    between atoms: O_25  and  C_26
                            x       y       z     vdW  Elec       q    Type
                         _______ _______ _______ _____ _____    ______ ____

>  <TORSDO>
F 4

$$$$
=
 OpenBabel11052417053D

 32 37  0  0  1  0  0  0  0  0999 V2000
  182.1010  179.3820  141.7470 C   0  0  2  0  0  3  0  0  0  0  0  0
  183.4230  178.4310  137.6320 C   0  0  1  0  0  3  0  0  0  0  0  0
  181.0720  176.2900  135.3020 C   0  0  0  0  0  2  0  0  0  0  0  0
  185.9500  178.1090  137.8610 C   0  0  1  0  0  3  0  0  0  0  0  0
  187.0810  177.1620  137.5910 C   0  0  0  0  0  0  0  0  0  0  0  0
  183.4370  177.2550  139.9100 C   0  0  0  0  0  2  0  0  0  0  0  0
  180.7380  178.0740  138.0910 S   0  0  0  0  0  0  0  0  0  0  0  0
  189.0100  176.2600  137.5360 C   0  0  0  0  0  0  0  0  0  0  0  0
  181.1530  178.8200  140.6980 C   0  0  0  0  0  2  0  0  0  0  0  0
  182.3540  176.8440  134.6960 C   0  0  0  0  0  2  0  0  0  0  0  0
  182.1250  178.0500  136.9080 C   0  0  2  0  0  3  0  0  0  0  0  0
  182.2230  176.7000  136.1950 C   0  0  0  0  0  0  0  0  0  0  0  0
  184.4480  176.0980  137.3060 C   0  0  1  0  0  3  0  0  0  0  0  0
  190.4790  176.0830  137.6750 C   0  0  0  0  0  1  0  0  0  0  0  0
  183.1580  178.3880  142.1630 C   0  0  0  0  0  3  0  0  0  0  0  0
  181.7290  179.0020  139.2930 C   0  0  1  0  0  3  0  0  0  0  0  0
  188.3730  177.4000  137.8770 N   0  0  0  0  0  2  0  0  0  0  0  0
  183.7670  177.4990  141.3580 C   0  0  0  0  0  3  0  0  0  0  0  0
  183.1080  175.5850  136.7580 C   0  0  1  0  0  3  0  0  0  0  0  0
  185.6040  175.3200  136.6680 C   0  0  0  0  0  2  0  0  0  0  0  0
  183.1830  178.5560  139.1420 C   0  0  2  0  0  3  0  0  0  0  0  0
  186.2820  179.3840  137.4010 O   0  0  0  0  0  1  0  0  0  0  0  0
  188.1510  175.2850  137.0500 C   0  0  0  0  0  3  0  0  0  0  0  0
  184.6580  177.6300  137.1730 C   0  0  1  0  0  3  0  0  0  0  0  0
  186.9130  175.8840  137.1190 C   0  0  0  0  0  0  0  0  0  0  0  0
  182.3700  173.5770  137.3290 C   0  0  0  0  0  1  0  0  0  0  0  0
  182.4240  174.9020  137.7670 O   0  0  0  0  0  0  0  0  0  0  0  0
  181.3440  179.8020  142.9130 N   0  0  0  0  0  2  0  0  0  0  0  0
  181.3610  178.6930  143.8540 C   0  0  0  0  0  2  0  0  0  0  0  0
  179.9650  178.3300  144.2350 C   0  0  0  0  0  0  0  0  0  0  0  0
  179.6670  177.1630  144.4320 O   0  0  0  0  0  0  0  0  0  0  0  0
  178.9400  179.3970  144.3950 C   0  0  0  0  0  1  0  0  0  0  0  0
  1 15  1  0  0  0  0
  1 28  1  1  0  0  0
  2 21  1  0  0  0  0
  3 12  1  0  0  0  0
  5  4  1  0  0  0  0
  5 17  1  0  0  0  0
  6 18  1  0  0  0  0
  7 16  1  0  0  0  0
  8 14  1  0  0  0  0
  8 17  1  0  0  0  0
  9  1  1  0  0  0  0
 10  3  1  0  0  0  0
 10 12  1  0  0  0  0
 11  2  1  0  0  0  0
 11  7  1  0  0  0  0
 12 19  1  0  0  0  0
 12 11  1  0  0  0  0
 16  9  1  0  0  0  0
 18 15  2  0  0  0  0
 19 13  1  0  0  0  0
 19 27  1  0  0  0  0
 20 25  1  0  0  0  0
 20 13  1  0  0  0  0
 21 16  1  0  0  0  0
 21  6  1  0  0  0  0
 22  4  1  0  0  0  0
 23 25  1  0  0  0  0
 23  8  2  0  0  0  0
 24 13  1  0  0  0  0
 24  2  1  0  0  0  0
 24  4  1  0  0  0  0
 25  5  2  0  0  0  0
 26 27  1  0  0  0  0
 28 29  1  0  0  0  0
 29 30  1  0  0  0  0
 30 32  1  0  0  0  0
 30 31  2  0  0  0  0
M  END
>  <MODEL>
5

>  <REMARK>
 VINA RESULT:      -5.0      2.951      3.935
  Name = 
  4 active torsions:
  status: ('A' for Active; 'I' for Inactive)
    1  A    between atoms: C_1  and  C_10
    2  A    between atoms: C_2  and  N_24
    3  A    between atoms: C_10  and  N_24
    4  A    between atoms: O_25  and  C_26
                            x       y       z     vdW  Elec       q    Type
                         _______ _______ _______ _____ _____    ______ ____

>  <TORSDO>
F 4

$$$$
=
 OpenBabel11052417053D

 32 37  0  0  1  0  0  0  0  0999 V2000
  179.2200  181.9010  136.3370 C   0  0  2  0  0  3  0  0  0  0  0  0
  179.5700  178.4750  139.1170 C   0  0  1  0  0  3  0  0  0  0  0  0
  180.9730  179.0800  142.7510 C   0  0  0  0  0  2  0  0  0  0  0  0
  180.2200  176.5210  137.5990 C   0  0  1  0  0  3  0  0  0  0  0  0
  181.2290  175.4310  137.3900 C   0  0  0  0  0  0  0  0  0  0  0  0
  181.1270  179.7480  137.5270 C   0  0  0  0  0  2  0  0  0  0  0  0
  179.6890  180.9460  140.3130 S   0  0  0  0  0  0  0  0  0  0  0  0
  182.3250  173.8070  136.5570 C   0  0  0  0  0  0  0  0  0  0  0  0
  179.4720  182.0850  137.8270 C   0  0  0  0  0  2  0  0  0  0  0  0
  180.4740  177.6840  142.4100 C   0  0  0  0  0  2  0  0  0  0  0  0
  179.6630  179.1330  140.5010 C   0  0  2  0  0  3  0  0  0  0  0  0
  180.8660  178.6410  141.3070 C   0  0  0  0  0  0  0  0  0  0  0  0
  181.9110  177.4330  139.3070 C   0  0  1  0  0  3  0  0  0  0  0  0
  182.6940  172.6740  135.6680 C   0  0  0  0  0  1  0  0  0  0  0  0
  180.3890  181.2610  135.6280 C   0  0  0  0  0  3  0  0  0  0  0  0
  179.1120  180.8150  138.5990 C   0  0  1  0  0  3  0  0  0  0  0  0
  181.1970  174.5310  136.3940 N   0  0  0  0  0  0  0  0  0  0  0  0
  181.1850  180.2980  136.1270 C   0  0  0  0  0  3  0  0  0  0  0  0
  182.1590  178.2250  140.6010 C   0  0  1  0  0  3  0  0  0  0  0  0
  182.6920  176.1160  139.3440 C   0  0  0  0  0  2  0  0  0  0  0  0
  179.6900  179.5290  138.0090 C   0  0  2  0  0  3  0  0  0  0  0  0
  178.9310  175.9940  137.5140 O   0  0  0  0  0  1  0  0  0  0  0  0
  183.0910  174.2340  137.6320 C   0  0  0  0  0  3  0  0  0  0  0  0
  180.4150  177.1940  138.9720 C   0  0  1  0  0  3  0  0  0  0  0  0
  182.3740  175.2960  138.1360 C   0  0  1  0  0  3  0  0  0  0  0  0
  184.2490  178.9460  140.4900 C   0  0  0  0  0  1  0  0  0  0  0  0
  182.9270  179.3560  140.3140 O   0  0  0  0  0  0  0  0  0  0  0  0
  178.9310  183.1880  135.7300 N   0  0  0  0  0  2  0  0  0  0  0  0
  180.2050  183.8510  135.5060 C   0  0  0  0  0  2  0  0  0  0  0  0
  180.4080  184.9200  136.5250 C   0  0  0  0  0  0  0  0  0  0  0  0
  181.5330  185.1990  136.9070 O   0  0  0  0  0  0  0  0  0  0  0  0
  179.2350  185.6640  137.0610 C   0  0  0  0  0  1  0  0  0  0  0  0
  1 28  1  6  0  0  0
  1  9  1  0  0  0  0
  2 11  1  0  0  0  0
  4 24  1  0  0  0  0
  5  4  1  0  0  0  0
  5 25  1  0  0  0  0
  6 21  1  0  0  0  0
  7 11  1  0  0  0  0
  8 23  2  0  0  0  0
  9 16  1  0  0  0  0
 10  3  1  0  0  0  0
 11 12  1  0  0  0  0
 12 10  1  0  0  0  0
 12  3  1  0  0  0  0
 13 20  1  0  0  0  0
 13 19  1  0  0  0  0
 14  8  1  0  0  0  0
 15 18  2  0  0  0  0
 15  1  1  0  0  0  0
 16  7  1  0  0  0  0
 17  8  1  0  0  0  0
 17  5  2  0  0  0  0
 18  6  1  0  0  0  0
 19 12  1  0  0  0  0
 21 16  1  0  0  0  0
 21  2  1  0  0  0  0
 22  4  1  0  0  0  0
 23 25  1  0  0  0  0
 24  2  1  0  0  0  0
 24 13  1  0  0  0  0
 25 20  1  0  0  0  0
 27 26  1  0  0  0  0
 27 19  1  0  0  0  0
 29 28  1  0  0  0  0
 29 30  1  0  0  0  0
 30 31  2  0  0  0  0
 30 32  1  0  0  0  0
M  END
>  <MODEL>
6

>  <REMARK>
 VINA RESULT:      -4.9      4.171      7.266
  Name = 
  4 active torsions:
  status: ('A' for Active; 'I' for Inactive)
    1  A    between atoms: C_1  and  C_10
    2  A    between atoms: C_2  and  N_24
    3  A    between atoms: C_10  and  N_24
    4  A    between atoms: O_25  and  C_26
                            x       y       z     vdW  Elec       q    Type
                         _______ _______ _______ _____ _____    ______ ____

>  <TORSDO>
F 4

$$$$
=
 OpenBabel11052417053D

 32 37  0  0  1  0  0  0  0  0999 V2000
  186.1420  177.2190  137.7980 C   0  0  2  0  0  3  0  0  0  0  0  0
  181.7220  177.0030  137.7810 C   0  0  1  0  0  3  0  0  0  0  0  0
  179.7390  178.3710  134.6610 C   0  0  0  0  0  2  0  0  0  0  0  0
  181.0800  177.4140  140.2230 C   0  0  1  0  0  3  0  0  0  0  0  0
  180.2420  178.2660  141.1300 C   0  0  0  0  0  0  0  0  0  0  0  0
  183.4970  178.7680  138.3330 C   0  0  0  0  0  2  0  0  0  0  0  0
  182.8640  177.4340  135.3190 S   0  0  0  0  0  0  0  0  0  0  0  0
  179.3710  179.1460  142.8630 C   0  0  0  0  0  0  0  0  0  0  0  0
  185.3210  177.4510  136.5370 C   0  0  0  0  0  2  0  0  0  0  0  0
  178.9410  177.6900  135.7620 C   0  0  0  0  0  2  0  0  0  0  0  0
  181.3520  177.1470  136.2990 C   0  0  2  0  0  3  0  0  0  0  0  0
  180.3160  178.2450  136.0540 C   0  0  0  0  0  0  0  0  0  0  0  0
  180.5010  179.1670  138.4340 C   0  0  1  0  0  3  0  0  0  0  0  0
  179.0060  179.3770  144.2850 C   0  0  0  0  0  1  0  0  0  0  0  0
  185.9420  178.3060  138.8260 C   0  0  0  0  0  3  0  0  0  0  0  0
  183.9070  176.8930  136.7010 C   0  0  1  0  0  3  0  0  0  0  0  0
  180.1750  178.1360  142.4660 N   0  0  0  0  0  2  0  0  0  0  0  0
  184.7870  178.9440  139.0880 C   0  0  0  0  0  3  0  0  0  0  0  0
  180.2710  179.4860  136.9490 C   0  0  1  0  0  3  0  0  0  0  0  0
  179.3630  179.7530  139.2750 C   0  0  0  0  0  2  0  0  0  0  0  0
  183.2100  177.3010  137.9980 C   0  0  2  0  0  3  0  0  0  0  0  0
  180.8930  176.0670  140.5330 O   0  0  0  0  0  1  0  0  0  0  0  0
  178.9310  179.9330  141.8080 C   0  0  0  0  0  3  0  0  0  0  0  0
  180.7170  177.6630  138.7470 C   0  0  1  0  0  3  0  0  0  0  0  0
  179.5260  179.3580  140.7070 C   0  0  0  0  0  0  0  0  0  0  0  0
  180.4890  181.5490  136.1740 C   0  0  0  0  0  1  0  0  0  0  0  0
  181.2240  180.4140  136.5200 O   0  0  0  0  0  0  0  0  0  0  0  0
  187.5500  177.1310  137.4530 N   0  0  0  0  0  2  0  0  0  0  0  0
  188.2960  177.7310  138.5470 C   0  0  0  0  0  2  0  0  0  0  0  0
  189.6700  177.1540  138.6010 C   0  0  0  0  0  0  0  0  0  0  0  0
  190.1860  176.7020  137.5910 O   0  0  0  0  0  0  0  0  0  0  0  0
  190.4210  177.1480  139.8860 C   0  0  0  0  0  1  0  0  0  0  0  0
  1 28  1  6  0  0  0
  1 15  1  0  0  0  0
  2 21  1  0  0  0  0
  2 24  1  0  0  0  0
  3 10  1  0  0  0  0
  3 12  1  0  0  0  0
  4 22  1  0  0  0  0
  4  5  1  0  0  0  0
  5 17  1  0  0  0  0
  6 18  1  0  0  0  0
  7 11  1  0  0  0  0
  7 16  1  0  0  0  0
  8 14  1  0  0  0  0
  9 16  1  0  0  0  0
  9  1  1  0  0  0  0
 10 12  1  0  0  0  0
 11  2  1  0  0  0  0
 12 11  1  0  0  0  0
 12 19  1  0  0  0  0
 13 24  1  0  0  0  0
 13 20  1  0  0  0  0
 15 18  2  0  0  0  0
 16 21  1  0  0  0  0
 17  8  1  0  0  0  0
 19 13  1  0  0  0  0
 20 25  1  0  0  0  0
 21  6  1  0  0  0  0
 23  8  2  0  0  0  0
 24  4  1  0  0  0  0
 25  5  2  0  0  0  0
 25 23  1  0  0  0  0
 26 27  1  0  0  0  0
 27 19  1  0  0  0  0
 28 29  1  0  0  0  0
 29 30  1  0  0  0  0
 30 32  1  0  0  0  0
 31 30  2  0  0  0  0
M  END
>  <MODEL>
7

>  <REMARK>
 VINA RESULT:      -4.8      3.951      6.866
  Name = 
  4 active torsions:
  status: ('A' for Active; 'I' for Inactive)
    1  A    between atoms: C_1  and  C_10
    2  A    between atoms: C_2  and  N_24
    3  A    between atoms: C_10  and  N_24
    4  A    between atoms: O_25  and  C_26
                            x       y       z     vdW  Elec       q    Type
                         _______ _______ _______ _____ _____    ______ ____

>  <TORSDO>
F 4

$$$$
=
 OpenBabel11052417053D

 32 37  0  0  1  0  0  0  0  0999 V2000
  182.8600  175.3850  135.6070 C   0  0  2  0  0  3  0  0  0  0  0  0
  185.7110  178.3600  137.2210 C   0  0  1  0  0  3  0  0  0  0  0  0
  189.4830  178.2280  136.0830 C   0  0  0  0  0  2  0  0  0  0  0  0
  184.9160  178.7270  139.6250 C   0  0  1  0  0  3  0  0  0  0  0  0
  185.3480  178.7120  141.0610 C   0  0  0  0  0  0  0  0  0  0  0  0
  185.0390  175.9450  137.7570 C   0  0  0  0  0  2  0  0  0  0  0  0
  186.5800  177.0300  134.9800 S   0  0  0  0  0  0  0  0  0  0  0  0
  185.3370  178.7880  143.1890 C   0  0  0  0  0  0  0  0  0  0  0  0
  184.2460  175.5890  135.0120 C   0  0  0  0  0  2  0  0  0  0  0  0
  189.0560  179.3790  136.9810 C   0  0  0  0  0  2  0  0  0  0  0  0
  186.8840  178.3190  136.2330 C   0  0  2  0  0  3  0  0  0  0  0  0
  188.2320  178.1130  136.9260 C   0  0  0  0  0  0  0  0  0  0  0  0
  187.1620  177.5580  139.1840 C   0  0  1  0  0  3  0  0  0  0  0  0
  184.8650  179.0030  144.5820 C   0  0  0  0  0  1  0  0  0  0  0  0
  182.9070  174.7970  136.9960 C   0  0  0  0  0  3  0  0  0  0  0  0
  184.8310  176.9330  135.4490 C   0  0  1  0  0  3  0  0  0  0  0  0
  184.5580  179.0030  142.1080 N   0  0  0  0  0  2  0  0  0  0  0  0
  183.8250  175.0750  137.9410 C   0  0  0  0  0  3  0  0  0  0  0  0
  188.3260  177.2940  138.2160 C   0  0  1  0  0  3  0  0  0  0  0  0
  187.7070  177.9280  140.5670 C   0  0  0  0  0  2  0  0  0  0  0  0
  184.7340  177.2100  136.9480 C   0  0  2  0  0  3  0  0  0  0  0  0
  184.2280  179.9100  139.3510 O   0  0  0  0  0  1  0  0  0  0  0  0
  186.6110  178.3490  142.8590 C   0  0  0  0  0  3  0  0  0  0  0  0
  186.1300  178.6040  138.6850 C   0  0  1  0  0  3  0  0  0  0  0  0
  186.5830  178.2860  141.4830 C   0  0  0  0  0  0  0  0  0  0  0  0
  189.7290  175.5970  137.9840 C   0  0  0  0  0  1  0  0  0  0  0  0
  188.3760  175.9320  137.9090 O   0  0  0  0  0  0  0  0  0  0  0  0
  182.0810  174.5180  134.7400 N   0  0  0  0  0  2  0  0  0  0  0  0
  181.2940  173.6500  135.6010 C   0  0  0  0  0  2  0  0  0  0  0  0
  181.4830  172.2270  135.1950 C   0  0  0  0  0  0  0  0  0  0  0  0
  180.5460  171.5880  134.7450 O   0  0  0  0  0  0  0  0  0  0  0  0
  182.8240  171.5930  135.3200 C   0  0  0  0  0  1  0  0  0  0  0  0
  1 28  1  6  0  0  0
  1 15  1  0  0  0  0
  2 24  1  0  0  0  0
  3 12  1  0  0  0  0
  3 10  1  0  0  0  0
  4  5  1  0  0  0  0
  5 25  2  0  0  0  0
  5 17  1  0  0  0  0
  6 18  1  0  0  0  0
  7 16  1  0  0  0  0
  7 11  1  0  0  0  0
  8 14  1  0  0  0  0
  9 16  1  0  0  0  0
  9  1  1  0  0  0  0
 11 12  1  0  0  0  0
 11  2  1  0  0  0  0
 12 10  1  0  0  0  0
 12 19  1  0  0  0  0
 13 20  1  0  0  0  0
 15 18  2  0  0  0  0
 16 21  1  0  0  0  0
 17  8  1  0  0  0  0
 19 13  1  0  0  0  0
 20 25  1  0  0  0  0
 21  2  1  0  0  0  0
 21  6  1  0  0  0  0
 22  4  1  0  0  0  0
 23  8  2  0  0  0  0
 24 13  1  0  0  0  0
 24  4  1  0  0  0  0
 25 23  1  0  0  0  0
 27 26  1  0  0  0  0
 27 19  1  0  0  0  0
 28 29  1  0  0  0  0
 30 32  1  0  0  0  0
 30 29  1  0  0  0  0
 31 30  2  0  0  0  0
M  END
>  <MODEL>
8

>  <REMARK>
 VINA RESULT:      -4.7      3.662      8.541
  Name = 
  4 active torsions:
  status: ('A' for Active; 'I' for Inactive)
    1  A    between atoms: C_1  and  C_10
    2  A    between atoms: C_2  and  N_24
    3  A    between atoms: C_10  and  N_24
    4  A    between atoms: O_25  and  C_26
                            x       y       z     vdW  Elec       q    Type
                         _______ _______ _______ _____ _____    ______ ____

>  <TORSDO>
F 4

$$$$
=
 OpenBabel11052417053D

 32 37  0  0  1  0  0  0  0  0999 V2000
  187.3130  176.2940  136.2130 C   0  0  2  0  0  3  0  0  0  0  0  0
  183.4110  176.4800  138.2910 C   0  0  1  0  0  3  0  0  0  0  0  0
  180.7670  173.6200  137.6810 C   0  0  0  0  0  2  0  0  0  0  0  0
  182.8770  178.9810  138.3660 C   0  0  1  0  0  3  0  0  0  0  0  0
  181.8440  180.0110  138.0200 C   0  0  0  0  0  0  0  0  0  0  0  0
  184.3220  177.1180  135.9810 C   0  0  0  0  0  2  0  0  0  0  0  0
  184.0410  174.0200  137.2410 S   0  0  0  0  0  0  0  0  0  0  0  0
  180.8420  181.8670  137.7200 C   0  0  0  0  0  0  0  0  0  0  0  0
  186.3620  175.1070  136.2640 C   0  0  0  0  0  2  0  0  0  0  0  0
  180.4300  174.6860  138.7140 C   0  0  0  0  0  2  0  0  0  0  0  0
  182.8840  175.0410  138.2130 C   0  0  2  0  0  3  0  0  0  0  0  0
  181.4650  174.9620  137.6470 C   0  0  0  0  0  0  0  0  0  0  0  0
  181.4580  177.4120  136.9060 C   0  0  1  0  0  3  0  0  0  0  0  0
  180.5420  183.3220  137.7680 C   0  0  0  0  0  1  0  0  0  0  0  0
  186.7690  177.4360  135.3900 C   0  0  0  0  0  3  0  0  0  0  0  0
  185.3340  175.2850  137.3820 C   0  0  1  0  0  3  0  0  0  0  0  0
  181.9560  181.3290  138.2600 N   0  0  0  0  0  2  0  0  0  0  0  0
  185.4810  177.8200  135.3260 C   0  0  0  0  0  3  0  0  0  0  0  0
  180.9840  175.9800  136.6110 C   0  0  1  0  0  3  0  0  0  0  0  0
  180.2590  178.3650  136.9220 C   0  0  0  0  0  2  0  0  0  0  0  0
  184.6490  176.6510  137.4030 C   0  0  2  0  0  3  0  0  0  0  0  0
  183.3010  179.1610  139.6830 O   0  0  0  0  0  1  0  0  0  0  0  0
  180.0200  180.9220  137.1230 C   0  0  0  0  0  3  0  0  0  0  0  0
  182.3130  177.5580  138.1930 C   0  0  1  0  0  3  0  0  0  0  0  0
  180.7000  179.7390  137.3100 C   0  0  0  0  0  0  0  0  0  0  0  0
  180.2460  175.4410  134.5940 C   0  0  0  0  0  1  0  0  0  0  0  0
  181.4160  175.6000  135.3380 O   0  0  0  0  0  0  0  0  0  0  0  0
  188.5910  175.8700  135.6670 N   0  0  0  0  0  2  0  0  0  0  0  0
  189.6170  176.2860  136.6100 C   0  0  0  0  0  2  0  0  0  0  0  0
  190.1420  175.0990  137.3450 C   0  0  0  0  0  0  0  0  0  0  0  0
  190.7200  175.2430  138.4110 O   0  0  0  0  0  0  0  0  0  0  0  0
  189.9420  173.7340  136.7860 C   0  0  0  0  0  1  0  0  0  0  0  0
  1 28  1  6  0  0  0
  1  9  1  0  0  0  0
  3 10  1  0  0  0  0
  4 22  1  0  0  0  0
  5 17  1  0  0  0  0
  5  4  1  0  0  0  0
  6 21  1  0  0  0  0
  7 16  1  0  0  0  0
  7 11  1  0  0  0  0
  8 14  1  0  0  0  0
  8 17  1  0  0  0  0
  9 16  1  0  0  0  0
 11  2  1  0  0  0  0
 12  3  1  0  0  0  0
 12 11  1  0  0  0  0
 12 10  1  0  0  0  0
 13 20  1  0  0  0  0
 13 24  1  0  0  0  0
 15  1  1  0  0  0  0
 16 21  1  0  0  0  0
 18 15  2  0  0  0  0
 18  6  1  0  0  0  0
 19 13  1  0  0  0  0
 19 12  1  0  0  0  0
 20 25  1  0  0  0  0
 21  2  1  0  0  0  0
 23 25  1  0  0  0  0
 23  8  2  0  0  0  0
 24  2  1  0  0  0  0
 24  4  1  0  0  0  0
 25  5  2  0  0  0  0
 26 27  1  0  0  0  0
 27 19  1  0  0  0  0
 28 29  1  0  0  0  0
 29 30  1  0  0  0  0
 30 31  2  0  0  0  0
 32 30  1  0  0  0  0
M  END
>  <MODEL>
9

>  <REMARK>
 VINA RESULT:      -4.7      4.731      6.990
  Name = 
  4 active torsions:
  status: ('A' for Active; 'I' for Inactive)
    1  A    between atoms: C_1  and  C_10
    2  A    between atoms: C_2  and  N_24
    3  A    between atoms: C_10  and  N_24
    4  A    between atoms: O_25  and  C_26
                            x       y       z     vdW  Elec       q    Type
                         _______ _______ _______ _____ _____    ______ ____

>  <TORSDO>
F 4

$$$$
