=
 OpenBabel11052414123D

 34 38  0  0  1  0  0  0  0  0999 V2000
  189.5510  177.2160  147.0560 C   0  0  0  0  0  0  0  0  0  0  0  0
  190.2050  176.9260  144.7160 C   0  0  0  0  0  0  0  0  0  0  0  0
  187.9860  177.7690  145.2840 C   0  0  0  0  0  0  0  0  0  0  0  0
  186.5440  178.2260  143.1610 N   0  0  0  0  0  0  0  0  0  0  0  0
  191.7570  176.3770  146.4940 C   0  0  0  0  0  3  0  0  0  0  0  0
  191.4570  176.4630  145.1280 C   0  0  0  0  0  3  0  0  0  0  0  0
  188.6140  177.4900  142.9750 C   0  0  0  0  0  0  0  0  0  0  0  0
  189.2500  177.3030  145.6870 C   0  0  0  0  0  0  0  0  0  0  0  0
  186.7320  178.1960  141.8060 O   0  0  0  0  0  0  0  0  0  0  0  0
  190.8070  176.7520  147.4570 C   0  0  0  0  0  3  0  0  0  0  0  0
  187.3420  178.0600  147.5500 C   0  0  0  0  0  3  0  0  0  0  0  0
  188.5890  177.5980  147.9940 C   0  0  0  0  0  3  0  0  0  0  0  0
  189.8810  177.0190  143.3480 O   0  0  0  0  0  0  0  0  0  0  0  0
  188.0270  177.6210  141.6210 C   0  0  1  0  0  3  0  0  0  0  0  0
  187.7220  177.8510  143.8380 C   0  0  0  0  0  0  0  0  0  0  0  0
  187.0670  178.1360  146.2170 N   0  0  0  0  0  0  0  0  0  0  0  0
  188.8490  178.5120  140.8190 N   0  0  0  0  0  2  0  0  0  0  0  0
  189.8540  177.6930  140.1610 C   0  0  0  0  0  2  0  0  0  0  0  0
  189.2490  176.9920  138.9580 C   0  0  0  0  0  2  0  0  0  0  0  0
  189.8390  177.5540  137.6690 C   0  0  0  0  0  2  0  0  0  0  0  0
  188.9410  179.7780  137.5450 O   0  0  0  0  0  1  0  0  0  0  0  0
  188.8760  178.5090  136.9660 C   0  0  2  0  0  3  0  0  0  0  0  0
  187.4450  177.9970  136.9970 C   0  0  0  0  0  2  0  0  0  0  0  0
  185.7110  178.1490  138.3530 C   0  0  0  0  0  1  0  0  0  0  0  0
  186.6170  178.9250  137.6310 O   0  0  0  0  0  0  0  0  0  0  0  0
  185.2370  177.9400  143.7320 C   0  0  0  0  0  2  0  0  0  0  0  0
  184.3620  179.1790  143.6750 C   0  0  0  0  0  2  0  0  0  0  0  0
  180.5120  179.5550  141.4510 C   0  0  0  0  0  2  0  0  0  0  0  0
  180.6790  178.8960  142.8070 C   0  0  0  0  0  2  0  0  0  0  0  0
  183.1290  178.8860  142.8980 C   0  0  0  0  0  0  0  0  0  0  0  0
  181.9740  179.2100  143.4010 N   0  0  0  0  0  0  0  0  0  0  0  0
  182.6720  178.8520  140.4040 C   0  0  0  0  0  2  0  0  0  0  0  0
  183.2530  178.2730  141.6090 N   0  0  0  0  0  2  0  0  0  0  0  0
  181.1610  178.6960  140.3820 C   0  0  0  0  0  2  0  0  0  0  0  0
  1 10  1  0  0  0  0
  1 12  1  0  0  0  0
  2  6  2  0  0  0  0
  2  8  1  0  0  0  0
  3  8  1  0  0  0  0
  3 16  2  0  0  0  0
  4 26  1  0  0  0  0
  4 15  1  0  0  0  0
  5 10  2  0  0  0  0
  6  5  1  0  0  0  0
  7 13  1  0  0  0  0
  7 15  2  0  0  0  0
  8  1  2  0  0  0  0
  9  4  1  0  0  0  0
 11 12  2  0  0  0  0
 13  2  1  0  0  0  0
 14 17  1  6  0  0  0
 14  9  1  0  0  0  0
 14  7  1  0  0  0  0
 15  3  1  0  0  0  0
 16 11  1  0  0  0  0
 18 17  1  0  0  0  0
 19 18  1  0  0  0  0
 20 19  1  0  0  0  0
 22 23  1  0  0  0  0
 22 21  1  1  0  0  0
 22 20  1  0  0  0  0
 23 25  1  0  0  0  0
 25 24  1  0  0  0  0
 27 26  1  0  0  0  0
 28 29  1  0  0  0  0
 29 31  1  0  0  0  0
 30 31  2  0  0  0  0
 30 27  1  0  0  0  0
 32 33  1  0  0  0  0
 33 30  1  0  0  0  0
 34 32  1  0  0  0  0
 34 28  1  0  0  0  0
M  END
>  <MODEL>
1

>  <REMARK>
 VINA RESULT:      -8.5      0.000      0.000
  Name = 
  10 active torsions:
  status: ('A' for Active; 'I' for Inactive)
    1  A    between atoms: C_3  and  C_13
    2  A    between atoms: C_3  and  N_17
    3  A    between atoms: N_5  and  C_26
    4  A    between atoms: C_12  and  C_28
    5  A    between atoms: C_13  and  C_33
    6  A    between atoms: O_14  and  C_20
    7  A    between atoms: N_17  and  C_29
    8  A    between atoms: C_20  and  C_34
    9  A    between atoms: C_26  and  C_28
   10  A    between atoms: C_33  and  C_34
                            x       y       z     vdW  Elec       q    Type
                         _______ _______ _______ _____ _____    ______ ____

>  <TORSDO>
F 10

$$$$
=
 OpenBabel11052414123D

 34 38  0  0  1  0  0  0  0  0999 V2000
  184.1510  178.7500  143.2830 C   0  0  0  0  0  0  0  0  0  0  0  0
  186.1490  178.2900  144.6190 C   0  0  0  0  0  0  0  0  0  0  0  0
  186.2970  178.4510  142.1880 C   0  0  0  0  0  0  0  0  0  0  0  0
  188.7250  178.0430  141.3310 N   0  0  0  0  0  0  0  0  0  0  0  0
  184.0000  178.5890  145.6990 C   0  0  0  0  0  3  0  0  0  0  0  0
  185.3760  178.3360  145.7820 C   0  0  0  0  0  3  0  0  0  0  0  0
  188.2740  177.9980  143.4880 C   0  0  0  0  0  0  0  0  0  0  0  0
  185.5300  178.4970  143.3660 C   0  0  0  0  0  0  0  0  0  0  0  0
  189.9570  177.8420  141.8910 O   0  0  0  0  0  0  0  0  0  0  0  0
  183.3880  178.7950  144.4530 C   0  0  0  0  0  3  0  0  0  0  0  0
  184.3680  178.9040  140.8820 C   0  0  0  0  0  3  0  0  0  0  0  0
  183.5660  178.9550  142.0310 C   0  0  0  0  0  3  0  0  0  0  0  0
  187.5330  178.0340  144.6780 O   0  0  0  0  0  0  0  0  0  0  0  0
  189.7110  177.6960  143.2920 C   0  0  1  0  0  3  0  0  0  0  0  0
  187.7400  178.1920  142.3280 C   0  0  0  0  0  0  0  0  0  0  0  0
  185.7050  178.6560  140.9810 N   0  0  0  0  0  0  0  0  0  0  0  0
  190.5160  178.6530  144.0330 N   0  0  0  0  0  2  0  0  0  0  0  0
  191.7370  177.9710  144.4280 C   0  0  0  0  0  2  0  0  0  0  0  0
  191.4850  176.4790  144.5500 C   0  0  0  0  0  2  0  0  0  0  0  0
  191.8100  176.0030  145.9620 C   0  0  0  0  0  2  0  0  0  0  0  0
  192.1250  176.9050  148.1650 O   0  0  0  0  0  1  0  0  0  0  0  0
  191.3240  176.9870  147.0240 C   0  0  2  0  0  3  0  0  0  0  0  0
  189.8690  176.7490  147.3940 C   0  0  0  0  0  2  0  0  0  0  0  0
  188.0690  177.5790  148.3650 C   0  0  0  0  0  1  0  0  0  0  0  0
  189.2590  177.9550  147.7430 O   0  0  0  0  0  0  0  0  0  0  0  0
  188.3940  177.4520  140.0440 C   0  0  0  0  0  2  0  0  0  0  0  0
  189.0100  178.2680  138.9220 C   0  0  0  0  0  2  0  0  0  0  0  0
  191.5750  174.8950  137.5240 C   0  0  0  0  0  2  0  0  0  0  0  0
  192.0840  176.1890  138.1300 C   0  0  0  0  0  2  0  0  0  0  0  0
  189.9680  177.4260  138.1570 C   0  0  0  0  0  0  0  0  0  0  0  0
  191.0100  176.9420  138.7670 N   0  0  0  0  0  0  0  0  0  0  0  0
  189.6300  175.8030  136.2390 C   0  0  0  0  0  2  0  0  0  0  0  0
  189.7010  177.1560  136.7760 N   0  0  0  0  0  2  0  0  0  0  0  0
  191.0060  175.1660  136.1430 C   0  0  0  0  0  2  0  0  0  0  0  0
  1  8  1  0  0  0  0
  1 10  2  0  0  0  0
  2 13  1  0  0  0  0
  2  6  1  0  0  0  0
  3 15  1  0  0  0  0
  3  8  1  0  0  0  0
  4  9  1  0  0  0  0
  4 15  1  0  0  0  0
  5  6  2  0  0  0  0
  7 13  1  0  0  0  0
  8  2  2  0  0  0  0
  9 14  1  0  0  0  0
 10  5  1  0  0  0  0
 11 16  1  0  0  0  0
 11 12  2  0  0  0  0
 12  1  1  0  0  0  0
 14  7  1  0  0  0  0
 14 17  1  1  0  0  0
 15  7  2  0  0  0  0
 16  3  2  0  0  0  0
 17 18  1  0  0  0  0
 18 19  1  0  0  0  0
 19 20  1  0  0  0  0
 20 22  1  0  0  0  0
 22 23  1  0  0  0  0
 22 21  1  1  0  0  0
 23 25  1  0  0  0  0
 25 24  1  0  0  0  0
 26  4  1  0  0  0  0
 27 26  1  0  0  0  0
 28 29  1  0  0  0  0
 29 31  1  0  0  0  0
 30 31  2  0  0  0  0
 30 27  1  0  0  0  0
 32 33  1  0  0  0  0
 33 30  1  0  0  0  0
 34 32  1  0  0  0  0
 34 28  1  0  0  0  0
M  END
>  <MODEL>
2

>  <REMARK>
 VINA RESULT:      -8.4      2.333      7.687
  Name = 
  10 active torsions:
  status: ('A' for Active; 'I' for Inactive)
    1  A    between atoms: C_3  and  C_13
    2  A    between atoms: C_3  and  N_17
    3  A    between atoms: N_5  and  C_26
    4  A    between atoms: C_12  and  C_28
    5  A    between atoms: C_13  and  C_33
    6  A    between atoms: O_14  and  C_20
    7  A    between atoms: N_17  and  C_29
    8  A    between atoms: C_20  and  C_34
    9  A    between atoms: C_26  and  C_28
   10  A    between atoms: C_33  and  C_34
                            x       y       z     vdW  Elec       q    Type
                         _______ _______ _______ _____ _____    ______ ____

>  <TORSDO>
F 10

$$$$
=
 OpenBabel11052414123D

 34 38  0  0  1  0  0  0  0  0999 V2000
  184.9340  178.6590  143.0130 C   0  0  0  0  0  0  0  0  0  0  0  0
  187.0220  178.0590  144.1380 C   0  0  0  0  0  0  0  0  0  0  0  0
  186.9680  178.3740  141.7190 C   0  0  0  0  0  0  0  0  0  0  0  0
  189.3000  177.9580  140.6300 N   0  0  0  0  0  0  0  0  0  0  0  0
  184.9840  178.3450  145.4180 C   0  0  0  0  0  3  0  0  0  0  0  0
  186.3540  178.0500  145.3650 C   0  0  0  0  0  3  0  0  0  0  0  0
  189.0330  177.7850  142.8110 C   0  0  0  0  0  0  0  0  0  0  0  0
  186.3060  178.3640  142.9590 C   0  0  0  0  0  0  0  0  0  0  0  0
  190.5680  177.6880  141.0670 O   0  0  0  0  0  0  0  0  0  0  0  0
  184.2750  178.6480  144.2460 C   0  0  0  0  0  3  0  0  0  0  0  0
  184.9510  178.9620  140.6170 C   0  0  0  0  0  3  0  0  0  0  0  0
  184.2520  178.9600  141.8310 C   0  0  0  0  0  3  0  0  0  0  0  0
  188.3980  177.7640  144.0610 O   0  0  0  0  0  0  0  0  0  0  0  0
  190.4380  177.4580  142.4710 C   0  0  1  0  0  3  0  0  0  0  0  0
  188.4090  178.0690  141.7160 C   0  0  0  0  0  0  0  0  0  0  0  0
  186.2820  178.6730  140.5830 N   0  0  0  0  0  0  0  0  0  0  0  0
  191.3330  178.3430  143.1990 N   0  0  0  0  0  2  0  0  0  0  0  0
  191.4100  177.8490  144.5630 C   0  0  0  0  0  2  0  0  0  0  0  0
  191.6860  176.3560  144.5620 C   0  0  0  0  0  2  0  0  0  0  0  0
  191.7770  175.8350  145.9910 C   0  0  0  0  0  2  0  0  0  0  0  0
  192.1660  176.8340  148.1400 O   0  0  0  0  0  1  0  0  0  0  0  0
  191.3440  176.8840  147.0130 C   0  0  2  0  0  3  0  0  0  0  0  0
  189.8900  176.7110  147.4230 C   0  0  0  0  0  2  0  0  0  0  0  0
  188.4770  177.9590  148.5690 C   0  0  0  0  0  1  0  0  0  0  0  0
  189.2340  177.9420  147.3980 O   0  0  0  0  0  0  0  0  0  0  0  0
  188.8420  177.4610  139.3420 C   0  0  0  0  0  2  0  0  0  0  0  0
  189.1000  178.4960  138.2620 C   0  0  0  0  0  2  0  0  0  0  0  0
  186.8390  176.5330  134.9540 C   0  0  0  0  0  2  0  0  0  0  0  0
  187.9980  177.4950  134.7720 C   0  0  0  0  0  2  0  0  0  0  0  0
  188.2110  178.2380  137.0990 C   0  0  0  0  0  0  0  0  0  0  0  0
  188.7170  177.7120  136.0220 N   0  0  0  0  0  0  0  0  0  0  0  0
  185.7660  177.5850  136.9540 C   0  0  0  0  0  2  0  0  0  0  0  0
  186.8190  178.5600  137.2070 N   0  0  0  0  0  2  0  0  0  0  0  0
  185.6260  177.2850  135.4700 C   0  0  0  0  0  2  0  0  0  0  0  0
  1 10  2  0  0  0  0
  2  6  1  0  0  0  0
  3  8  1  0  0  0  0
  4  9  1  0  0  0  0
  4 15  1  0  0  0  0
  6  5  2  0  0  0  0
  7 13  1  0  0  0  0
  8  1  1  0  0  0  0
  8  2  2  0  0  0  0
  9 14  1  0  0  0  0
 10  5  1  0  0  0  0
 11 12  2  0  0  0  0
 12  1  1  0  0  0  0
 13  2  1  0  0  0  0
 14  7  1  0  0  0  0
 14 17  1  1  0  0  0
 15  3  1  0  0  0  0
 15  7  2  0  0  0  0
 16 11  1  0  0  0  0
 16  3  2  0  0  0  0
 17 18  1  0  0  0  0
 19 18  1  0  0  0  0
 19 20  1  0  0  0  0
 20 22  1  0  0  0  0
 22 23  1  0  0  0  0
 22 21  1  1  0  0  0
 25 23  1  0  0  0  0
 25 24  1  0  0  0  0
 26  4  1  0  0  0  0
 27 26  1  0  0  0  0
 28 34  1  0  0  0  0
 29 28  1  0  0  0  0
 29 31  1  0  0  0  0
 30 33  1  0  0  0  0
 30 27  1  0  0  0  0
 31 30  2  0  0  0  0
 32 33  1  0  0  0  0
 34 32  1  0  0  0  0
M  END
>  <MODEL>
3

>  <REMARK>
 VINA RESULT:      -8.4      2.439      7.049
  Name = 
  10 active torsions:
  status: ('A' for Active; 'I' for Inactive)
    1  A    between atoms: C_3  and  C_13
    2  A    between atoms: C_3  and  N_17
    3  A    between atoms: N_5  and  C_26
    4  A    between atoms: C_12  and  C_28
    5  A    between atoms: C_13  and  C_33
    6  A    between atoms: O_14  and  C_20
    7  A    between atoms: N_17  and  C_29
    8  A    between atoms: C_20  and  C_34
    9  A    between atoms: C_26  and  C_28
   10  A    between atoms: C_33  and  C_34
                            x       y       z     vdW  Elec       q    Type
                         _______ _______ _______ _____ _____    ______ ____

>  <TORSDO>
F 10

$$$$
=
 OpenBabel11052414123D

 34 38  0  0  1  0  0  0  0  0999 V2000
  189.4740  177.2560  146.9430 C   0  0  0  0  0  0  0  0  0  0  0  0
  190.5250  176.7550  144.7910 C   0  0  0  0  0  0  0  0  0  0  0  0
  188.2700  177.6840  144.8780 C   0  0  0  0  0  0  0  0  0  0  0  0
  187.2470  177.9840  142.4990 N   0  0  0  0  0  0  0  0  0  0  0  0
  191.7150  176.3310  146.8590 C   0  0  0  0  0  3  0  0  0  0  0  0
  191.6670  176.3060  145.4580 C   0  0  0  0  0  3  0  0  0  0  0  0
  189.2910  177.1970  142.7510 C   0  0  0  0  0  0  0  0  0  0  0  0
  189.4250  177.2300  145.5390 C   0  0  0  0  0  0  0  0  0  0  0  0
  187.6730  177.8350  141.2070 O   0  0  0  0  0  0  0  0  0  0  0  0
  190.6220  176.8040  147.6000 C   0  0  0  0  0  3  0  0  0  0  0  0
  187.2420  178.1790  146.9590 C   0  0  0  0  0  3  0  0  0  0  0  0
  188.3730  177.7340  147.6570 C   0  0  0  0  0  3  0  0  0  0  0  0
  190.4540  176.7360  143.3840 O   0  0  0  0  0  0  0  0  0  0  0  0
  188.9600  177.2230  141.3070 C   0  0  1  0  0  3  0  0  0  0  0  0
  188.2710  177.6460  143.4060 C   0  0  0  0  0  0  0  0  0  0  0  0
  187.2120  178.1460  145.5970 N   0  0  0  0  0  0  0  0  0  0  0  0
  189.9420  178.0260  140.5970 N   0  0  0  0  0  2  0  0  0  0  0  0
  190.7460  177.1160  139.7990 C   0  0  0  0  0  2  0  0  0  0  0  0
  189.9260  176.5770  138.6400 C   0  0  0  0  0  2  0  0  0  0  0  0
  190.0880  177.4730  137.4170 C   0  0  0  0  0  2  0  0  0  0  0  0
  188.9500  179.5820  137.5770 O   0  0  0  0  0  1  0  0  0  0  0  0
  188.8200  178.2700  137.1180 C   0  0  2  0  0  3  0  0  0  0  0  0
  187.5870  177.6250  137.7310 C   0  0  0  0  0  2  0  0  0  0  0  0
  186.8030  176.6420  135.9180 C   0  0  0  0  0  1  0  0  0  0  0  0
  186.5250  177.6630  136.8260 O   0  0  0  0  0  0  0  0  0  0  0  0
  185.8500  177.7730  142.8460 C   0  0  0  0  0  2  0  0  0  0  0  0
  185.0770  179.0710  142.7050 C   0  0  0  0  0  2  0  0  0  0  0  0
  183.7730  178.3280  138.5030 C   0  0  0  0  0  2  0  0  0  0  0  0
  184.2480  179.6610  139.0490 C   0  0  0  0  0  2  0  0  0  0  0  0
  184.3170  179.0660  141.4270 C   0  0  0  0  0  0  0  0  0  0  0  0
  184.8950  179.5090  140.3490 N   0  0  0  0  0  0  0  0  0  0  0  0
  182.5500  177.4910  140.5190 C   0  0  0  0  0  2  0  0  0  0  0  0
  182.9800  178.5540  141.4190 N   0  0  0  0  0  2  0  0  0  0  0  0
  182.4150  177.9900  139.0900 C   0  0  0  0  0  2  0  0  0  0  0  0
  1 10  1  0  0  0  0
  1 12  1  0  0  0  0
  2  6  2  0  0  0  0
  2  8  1  0  0  0  0
  3  8  1  0  0  0  0
  3 16  2  0  0  0  0
  4 26  1  0  0  0  0
  4 15  1  0  0  0  0
  5 10  2  0  0  0  0
  6  5  1  0  0  0  0
  7 13  1  0  0  0  0
  7 15  2  0  0  0  0
  8  1  2  0  0  0  0
  9 14  1  0  0  0  0
  9  4  1  0  0  0  0
 11 12  2  0  0  0  0
 13  2  1  0  0  0  0
 14 17  1  6  0  0  0
 14  7  1  0  0  0  0
 15  3  1  0  0  0  0
 16 11  1  0  0  0  0
 18 17  1  0  0  0  0
 19 18  1  0  0  0  0
 20 19  1  0  0  0  0
 22 20  1  0  0  0  0
 22 21  1  1  0  0  0
 22 23  1  0  0  0  0
 24 25  1  0  0  0  0
 25 23  1  0  0  0  0
 27 26  1  0  0  0  0
 28 29  1  0  0  0  0
 28 34  1  0  0  0  0
 29 31  1  0  0  0  0
 30 27  1  0  0  0  0
 31 30  2  0  0  0  0
 32 33  1  0  0  0  0
 33 30  1  0  0  0  0
 34 32  1  0  0  0  0
M  END
>  <MODEL>
4

>  <REMARK>
 VINA RESULT:      -8.3      1.262      1.725
  Name = 
  10 active torsions:
  status: ('A' for Active; 'I' for Inactive)
    1  A    between atoms: C_3  and  C_13
    2  A    between atoms: C_3  and  N_17
    3  A    between atoms: N_5  and  C_26
    4  A    between atoms: C_12  and  C_28
    5  A    between atoms: C_13  and  C_33
    6  A    between atoms: O_14  and  C_20
    7  A    between atoms: N_17  and  C_29
    8  A    between atoms: C_20  and  C_34
    9  A    between atoms: C_26  and  C_28
   10  A    between atoms: C_33  and  C_34
                            x       y       z     vdW  Elec       q    Type
                         _______ _______ _______ _____ _____    ______ ____

>  <TORSDO>
F 10

$$$$
=
 OpenBabel11052414123D

 34 38  0  0  1  0  0  0  0  0999 V2000
  189.5670  177.2590  147.1590 C   0  0  0  0  0  0  0  0  0  0  0  0
  190.1300  176.9320  144.8010 C   0  0  0  0  0  0  0  0  0  0  0  0
  187.9520  177.8280  145.4380 C   0  0  0  0  0  0  0  0  0  0  0  0
  186.4450  178.2960  143.3630 N   0  0  0  0  0  0  0  0  0  0  0  0
  191.7330  176.3660  146.5280 C   0  0  0  0  0  3  0  0  0  0  0  0
  191.3860  176.4450  145.1720 C   0  0  0  0  0  3  0  0  0  0  0  0
  188.4900  177.5130  143.1110 C   0  0  0  0  0  0  0  0  0  0  0  0
  189.2190  177.3390  145.8010 C   0  0  0  0  0  0  0  0  0  0  0  0
  186.5830  178.2480  142.0030 O   0  0  0  0  0  0  0  0  0  0  0  0
  190.8270  176.7710  147.5200 C   0  0  0  0  0  3  0  0  0  0  0  0
  187.3960  178.1560  147.7220 C   0  0  0  0  0  3  0  0  0  0  0  0
  188.6470  177.6710  148.1270 C   0  0  0  0  0  3  0  0  0  0  0  0
  189.7590  177.0170  143.4440 O   0  0  0  0  0  0  0  0  0  0  0  0
  187.8590  177.6430  141.7780 C   0  0  1  0  0  3  0  0  0  0  0  0
  187.6380  177.9020  144.0020 C   0  0  0  0  0  0  0  0  0  0  0  0
  187.0750  178.2250  146.4000 N   0  0  0  0  0  0  0  0  0  0  0  0
  188.6700  178.5080  140.9370 N   0  0  0  0  0  2  0  0  0  0  0  0
  188.7800  177.8630  139.6390 C   0  0  0  0  0  2  0  0  0  0  0  0
  190.2170  177.4430  139.3860 C   0  0  0  0  0  2  0  0  0  0  0  0
  190.4220  177.1260  137.9090 C   0  0  0  0  0  2  0  0  0  0  0  0
  191.2090  174.8980  138.3410 O   0  0  0  0  0  1  0  0  0  0  0  0
  191.5260  176.0930  137.6920 C   0  0  2  0  0  3  0  0  0  0  0  0
  192.8780  176.5990  138.1690 C   0  0  0  0  0  2  0  0  0  0  0  0
  194.0950  175.8740  136.4770 C   0  0  0  0  0  1  0  0  0  0  0  0
  193.8770  175.6820  137.8410 O   0  0  0  0  0  0  0  0  0  0  0  0
  185.1540  178.0450  143.9830 C   0  0  0  0  0  2  0  0  0  0  0  0
  184.2580  179.2610  143.8320 C   0  0  0  0  0  2  0  0  0  0  0  0
  180.3370  179.3870  141.7060 C   0  0  0  0  0  2  0  0  0  0  0  0
  180.5940  178.6910  143.0290 C   0  0  0  0  0  2  0  0  0  0  0  0
  183.0370  178.8920  143.0690 C   0  0  0  0  0  0  0  0  0  0  0  0
  181.8710  179.0930  143.6090 N   0  0  0  0  0  0  0  0  0  0  0  0
  182.5250  178.9200  140.5860 C   0  0  0  0  0  2  0  0  0  0  0  0
  183.1830  178.3460  141.7530 N   0  0  0  0  0  2  0  0  0  0  0  0
  181.0330  178.6330  140.5880 C   0  0  0  0  0  2  0  0  0  0  0  0
  1 10  1  0  0  0  0
  1 12  1  0  0  0  0
  2  6  2  0  0  0  0
  2  8  1  0  0  0  0
  3  8  1  0  0  0  0
  3 16  2  0  0  0  0
  4 26  1  0  0  0  0
  4 15  1  0  0  0  0
  5 10  2  0  0  0  0
  6  5  1  0  0  0  0
  7 13  1  0  0  0  0
  7 15  2  0  0  0  0
  8  1  2  0  0  0  0
  9  4  1  0  0  0  0
 11 12  2  0  0  0  0
 13  2  1  0  0  0  0
 14 17  1  6  0  0  0
 14  9  1  0  0  0  0
 14  7  1  0  0  0  0
 15  3  1  0  0  0  0
 16 11  1  0  0  0  0
 18 17  1  0  0  0  0
 19 18  1  0  0  0  0
 20 19  1  0  0  0  0
 22 20  1  0  0  0  0
 22 23  1  0  0  0  0
 22 21  1  1  0  0  0
 24 25  1  0  0  0  0
 25 23  1  0  0  0  0
 27 26  1  0  0  0  0
 28 29  1  0  0  0  0
 29 31  1  0  0  0  0
 30 31  2  0  0  0  0
 30 27  1  0  0  0  0
 32 34  1  0  0  0  0
 32 33  1  0  0  0  0
 33 30  1  0  0  0  0
 34 28  1  0  0  0  0
M  END
>  <MODEL>
5

>  <REMARK>
 VINA RESULT:      -8.1      1.819      2.558
  Name = 
  10 active torsions:
  status: ('A' for Active; 'I' for Inactive)
    1  A    between atoms: C_3  and  C_13
    2  A    between atoms: C_3  and  N_17
    3  A    between atoms: N_5  and  C_26
    4  A    between atoms: C_12  and  C_28
    5  A    between atoms: C_13  and  C_33
    6  A    between atoms: O_14  and  C_20
    7  A    between atoms: N_17  and  C_29
    8  A    between atoms: C_20  and  C_34
    9  A    between atoms: C_26  and  C_28
   10  A    between atoms: C_33  and  C_34
                            x       y       z     vdW  Elec       q    Type
                         _______ _______ _______ _____ _____    ______ ____

>  <TORSDO>
F 10

$$$$
=
 OpenBabel11052414123D

 34 38  0  0  1  0  0  0  0  0999 V2000
  185.0980  178.4730  145.3580 C   0  0  0  0  0  0  0  0  0  0  0  0
  186.9930  177.8720  143.9310 C   0  0  0  0  0  0  0  0  0  0  0  0
  184.9760  178.8480  142.9620 C   0  0  0  0  0  0  0  0  0  0  0  0
  185.1540  179.0810  140.3720 N   0  0  0  0  0  0  0  0  0  0  0  0
  187.1000  177.5010  146.3230 C   0  0  0  0  0  3  0  0  0  0  0  0
  187.6920  177.4250  145.0550 C   0  0  0  0  0  3  0  0  0  0  0  0
  186.8330  178.2630  141.5430 C   0  0  0  0  0  0  0  0  0  0  0  0
  185.6900  178.3970  144.0860 C   0  0  0  0  0  0  0  0  0  0  0  0
  186.1130  178.8750  139.4180 O   0  0  0  0  0  0  0  0  0  0  0  0
  185.8070  178.0230  146.4760 C   0  0  0  0  0  3  0  0  0  0  0  0
  183.1340  179.4400  144.3360 C   0  0  0  0  0  3  0  0  0  0  0  0
  183.8090  178.9980  145.4820 C   0  0  0  0  0  3  0  0  0  0  0  0
  187.5660  177.8030  142.6460 O   0  0  0  0  0  0  0  0  0  0  0  0
  187.1940  178.2420  140.1060 C   0  0  1  0  0  3  0  0  0  0  0  0
  185.6430  178.7560  141.6530 C   0  0  0  0  0  0  0  0  0  0  0  0
  183.7230  179.3580  143.1100 N   0  0  0  0  0  0  0  0  0  0  0  0
  188.4170  178.9990  139.9000 N   0  0  0  0  0  2  0  0  0  0  0  0
  189.2790  178.1990  139.0460 C   0  0  0  0  0  2  0  0  0  0  0  0
  189.8610  177.0390  139.8340 C   0  0  0  0  0  2  0  0  0  0  0  0
  191.0930  177.4920  140.6090 C   0  0  0  0  0  2  0  0  0  0  0  0
  190.1950  175.8750  142.1410 O   0  0  0  0  0  1  0  0  0  0  0  0
  191.1350  176.9000  142.0160 C   0  0  2  0  0  3  0  0  0  0  0  0
  190.8960  177.9560  143.0830 C   0  0  0  0  0  2  0  0  0  0  0  0
  191.3220  177.5040  145.2000 C   0  0  0  0  0  1  0  0  0  0  0  0
  191.9300  177.9330  144.0210 O   0  0  0  0  0  0  0  0  0  0  0  0
  183.7450  178.9100  140.0510 C   0  0  0  0  0  2  0  0  0  0  0  0
  183.4350  177.4400  139.8350 C   0  0  0  0  0  2  0  0  0  0  0  0
  179.0130  177.6660  140.3860 C   0  0  0  0  0  2  0  0  0  0  0  0
  180.0430  177.8790  141.4790 C   0  0  0  0  0  2  0  0  0  0  0  0
  182.0320  177.1600  140.2370 C   0  0  0  0  0  0  0  0  0  0  0  0
  181.3830  178.0520  140.9270 N   0  0  0  0  0  0  0  0  0  0  0  0
  180.1750  175.8630  139.0980 C   0  0  0  0  0  2  0  0  0  0  0  0
  181.4300  175.9230  139.8350 N   0  0  0  0  0  2  0  0  0  0  0  0
  178.9880  176.2020  139.9850 C   0  0  0  0  0  2  0  0  0  0  0  0
  1 12  1  0  0  0  0
  1 10  2  0  0  0  0
  2  8  2  0  0  0  0
  2  6  1  0  0  0  0
  3 16  2  0  0  0  0
  3  8  1  0  0  0  0
  4 15  1  0  0  0  0
  5 10  1  0  0  0  0
  6  5  2  0  0  0  0
  7 15  2  0  0  0  0
  7 13  1  0  0  0  0
  8  1  1  0  0  0  0
  9 14  1  0  0  0  0
  9  4  1  0  0  0  0
 11 12  2  0  0  0  0
 13  2  1  0  0  0  0
 14 17  1  1  0  0  0
 14  7  1  0  0  0  0
 15  3  1  0  0  0  0
 16 11  1  0  0  0  0
 18 19  1  0  0  0  0
 18 17  1  0  0  0  0
 19 20  1  0  0  0  0
 20 22  1  0  0  0  0
 22 21  1  6  0  0  0
 22 23  1  0  0  0  0
 23 25  1  0  0  0  0
 25 24  1  0  0  0  0
 26  4  1  0  0  0  0
 27 26  1  0  0  0  0
 27 30  1  0  0  0  0
 28 29  1  0  0  0  0
 30 31  2  0  0  0  0
 31 29  1  0  0  0  0
 32 33  1  0  0  0  0
 32 34  1  0  0  0  0
 33 30  1  0  0  0  0
 34 28  1  0  0  0  0
M  END
>  <MODEL>
6

>  <REMARK>
 VINA RESULT:      -8.0      1.962      4.365
  Name = 
  10 active torsions:
  status: ('A' for Active; 'I' for Inactive)
    1  A    between atoms: C_3  and  C_13
    2  A    between atoms: C_3  and  N_17
    3  A    between atoms: N_5  and  C_26
    4  A    between atoms: C_12  and  C_28
    5  A    between atoms: C_13  and  C_33
    6  A    between atoms: O_14  and  C_20
    7  A    between atoms: N_17  and  C_29
    8  A    between atoms: C_20  and  C_34
    9  A    between atoms: C_26  and  C_28
   10  A    between atoms: C_33  and  C_34
                            x       y       z     vdW  Elec       q    Type
                         _______ _______ _______ _____ _____    ______ ____

>  <TORSDO>
F 10

$$$$
=
 OpenBabel11052414123D

 34 38  0  0  1  0  0  0  0  0999 V2000
  189.4870  177.2760  146.6300 C   0  0  0  0  0  0  0  0  0  0  0  0
  187.2510  178.1030  146.0810 C   0  0  0  0  0  0  0  0  0  0  0  0
  188.8100  177.4860  144.3080 C   0  0  0  0  0  0  0  0  0  0  0  0
  187.7910  177.8650  141.9380 N   0  0  0  0  0  0  0  0  0  0  0  0
  187.9400  177.8910  148.3940 C   0  0  0  0  0  3  0  0  0  0  0  0
  186.9700  178.2360  147.4430 C   0  0  0  0  0  3  0  0  0  0  0  0
  186.6120  178.2980  143.7490 C   0  0  0  0  0  0  0  0  0  0  0  0
  188.5160  177.6220  145.6760 C   0  0  0  0  0  0  0  0  0  0  0  0
  186.5810  178.2430  141.4250 O   0  0  0  0  0  0  0  0  0  0  0  0
  189.1950  177.4120  147.9900 C   0  0  0  0  0  3  0  0  0  0  0  0
  190.9790  176.6760  144.8280 C   0  0  0  0  0  3  0  0  0  0  0  0
  190.7280  176.7990  146.2010 C   0  0  0  0  0  3  0  0  0  0  0  0
  186.2920  178.4470  145.1070 O   0  0  0  0  0  0  0  0  0  0  0  0
  185.8040  178.6410  142.5560 C   0  0  1  0  0  3  0  0  0  0  0  0
  187.7560  177.8520  143.3470 C   0  0  0  0  0  0  0  0  0  0  0  0
  190.0260  177.0170  143.9160 N   0  0  0  0  0  0  0  0  0  0  0  0
  184.5570  177.8950  142.5820 N   0  0  0  0  0  2  0  0  0  0  0  0
  183.4750  178.8660  142.5700 C   0  0  0  0  0  2  0  0  0  0  0  0
  182.8940  179.0150  143.9650 C   0  0  0  0  0  2  0  0  0  0  0  0
  181.3940  178.7480  143.9430 C   0  0  0  0  0  2  0  0  0  0  0  0
  180.0200  180.4440  142.9400 O   0  0  0  0  0  1  0  0  0  0  0  0
  180.7360  179.2760  142.6700 C   0  0  2  0  0  3  0  0  0  0  0  0
  179.8200  178.2420  142.0340 C   0  0  0  0  0  2  0  0  0  0  0  0
  180.7950  177.4410  140.2240 C   0  0  0  0  0  1  0  0  0  0  0  0
  179.8450  178.3700  140.6440 O   0  0  0  0  0  0  0  0  0  0  0  0
  189.0230  178.1760  141.2300 C   0  0  0  0  0  2  0  0  0  0  0  0
  188.7140  178.5790  139.8000 C   0  0  0  0  0  2  0  0  0  0  0  0
  191.0100  175.3840  137.6940 C   0  0  0  0  0  2  0  0  0  0  0  0
  191.6160  176.4660  138.5680 C   0  0  0  0  0  2  0  0  0  0  0  0
  189.6100  177.8450  138.8680 C   0  0  0  0  0  0  0  0  0  0  0  0
  190.5970  177.1520  139.3560 N   0  0  0  0  0  0  0  0  0  0  0  0
  189.1710  176.7140  136.6420 C   0  0  0  0  0  2  0  0  0  0  0  0
  189.3460  177.9060  137.4610 N   0  0  0  0  0  2  0  0  0  0  0  0
  190.4910  175.9980  136.4070 C   0  0  0  0  0  2  0  0  0  0  0  0
  1 10  2  0  0  0  0
  2  6  1  0  0  0  0
  3  8  1  0  0  0  0
  4 15  1  0  0  0  0
  6  5  2  0  0  0  0
  7 13  1  0  0  0  0
  8  2  2  0  0  0  0
  8  1  1  0  0  0  0
  9  4  1  0  0  0  0
  9 14  1  0  0  0  0
 10  5  1  0  0  0  0
 11 12  2  0  0  0  0
 12  1  1  0  0  0  0
 13  2  1  0  0  0  0
 14 17  1  1  0  0  0
 14  7  1  0  0  0  0
 15  7  2  0  0  0  0
 15  3  1  0  0  0  0
 16  3  2  0  0  0  0
 16 11  1  0  0  0  0
 18 17  1  0  0  0  0
 18 19  1  0  0  0  0
 20 19  1  0  0  0  0
 22 21  1  1  0  0  0
 22 20  1  0  0  0  0
 23 22  1  0  0  0  0
 24 25  1  0  0  0  0
 25 23  1  0  0  0  0
 26  4  1  0  0  0  0
 27 26  1  0  0  0  0
 28 29  1  0  0  0  0
 29 31  1  0  0  0  0
 30 31  2  0  0  0  0
 30 27  1  0  0  0  0
 32 33  1  0  0  0  0
 33 30  1  0  0  0  0
 34 32  1  0  0  0  0
 34 28  1  0  0  0  0
M  END
>  <MODEL>
7

>  <REMARK>
 VINA RESULT:      -7.9      2.357      6.629
  Name = 
  10 active torsions:
  status: ('A' for Active; 'I' for Inactive)
    1  A    between atoms: C_3  and  C_13
    2  A    between atoms: C_3  and  N_17
    3  A    between atoms: N_5  and  C_26
    4  A    between atoms: C_12  and  C_28
    5  A    between atoms: C_13  and  C_33
    6  A    between atoms: O_14  and  C_20
    7  A    between atoms: N_17  and  C_29
    8  A    between atoms: C_20  and  C_34
    9  A    between atoms: C_26  and  C_28
   10  A    between atoms: C_33  and  C_34
                            x       y       z     vdW  Elec       q    Type
                         _______ _______ _______ _____ _____    ______ ____

>  <TORSDO>
F 10

$$$$
=
 OpenBabel11052414123D

 34 38  0  0  1  0  0  0  0  0999 V2000
  188.9440  177.2250  145.7980 C   0  0  0  0  0  0  0  0  0  0  0  0
  186.7970  178.2440  146.3810 C   0  0  0  0  0  0  0  0  0  0  0  0
  187.3780  177.8370  144.0460 C   0  0  0  0  0  0  0  0  0  0  0  0
  185.5050  178.6420  142.4210 N   0  0  0  0  0  0  0  0  0  0  0  0
  188.3690  177.6290  148.1200 C   0  0  0  0  0  3  0  0  0  0  0  0
  187.1350  178.1720  147.7350 C   0  0  0  0  0  3  0  0  0  0  0  0
  185.2600  178.8410  144.6030 C   0  0  0  0  0  0  0  0  0  0  0  0
  187.7070  177.7680  145.4110 C   0  0  0  0  0  0  0  0  0  0  0  0
  184.2440  179.1590  142.5350 O   0  0  0  0  0  0  0  0  0  0  0  0
  189.2720  177.1570  147.1550 C   0  0  0  0  0  3  0  0  0  0  0  0
  189.4550  176.8450  143.4680 C   0  0  0  0  0  3  0  0  0  0  0  0
  189.8240  176.7600  144.8180 C   0  0  0  0  0  3  0  0  0  0  0  0
  185.5630  178.7870  145.9710 O   0  0  0  0  0  0  0  0  0  0  0  0
  184.0690  179.4110  143.9310 C   0  0  1  0  0  3  0  0  0  0  0  0
  186.0670  178.4060  143.6920 C   0  0  0  0  0  0  0  0  0  0  0  0
  188.2520  177.3760  143.1110 N   0  0  0  0  0  0  0  0  0  0  0  0
  182.8720  178.7350  144.4060 N   0  0  0  0  0  2  0  0  0  0  0  0
  181.8390  178.9390  143.4040 C   0  0  0  0  0  2  0  0  0  0  0  0
  180.4740  178.6330  143.9950 C   0  0  0  0  0  2  0  0  0  0  0  0
  179.3750  179.0310  143.0160 C   0  0  0  0  0  2  0  0  0  0  0  0
  179.5300  181.2350  142.0740 O   0  0  0  0  0  1  0  0  0  0  0  0
  179.9060  179.9040  141.8810 C   0  0  2  0  0  3  0  0  0  0  0  0
  179.4250  179.4210  140.5210 C   0  0  0  0  0  2  0  0  0  0  0  0
  181.4880  179.2560  139.7580 C   0  0  0  0  0  1  0  0  0  0  0  0
  180.2720  179.8930  139.5180 O   0  0  0  0  0  0  0  0  0  0  0  0
  186.3500  178.9980  141.2910 C   0  0  0  0  0  2  0  0  0  0  0  0
  185.6890  178.5710  139.9930 C   0  0  0  0  0  2  0  0  0  0  0  0
  189.2360  177.2690  137.6170 C   0  0  0  0  0  2  0  0  0  0  0  0
  189.0770  178.6230  138.2830 C   0  0  0  0  0  2  0  0  0  0  0  0
  186.7200  178.4260  138.9310 C   0  0  0  0  0  0  0  0  0  0  0  0
  187.9690  178.6280  139.2330 N   0  0  0  0  0  0  0  0  0  0  0  0
  186.8640  176.8970  136.9140 C   0  0  0  0  0  2  0  0  0  0  0  0
  186.3070  178.0490  137.6130 N   0  0  0  0  0  2  0  0  0  0  0  0
  188.2830  177.1630  136.4410 C   0  0  0  0  0  2  0  0  0  0  0  0
  1 10  2  0  0  0  0
  2  6  1  0  0  0  0
  3  8  1  0  0  0  0
  4  9  1  0  0  0  0
  4 15  1  0  0  0  0
  6  5  2  0  0  0  0
  7 13  1  0  0  0  0
  8  1  1  0  0  0  0
  8  2  2  0  0  0  0
  9 14  1  0  0  0  0
 10  5  1  0  0  0  0
 11 12  2  0  0  0  0
 12  1  1  0  0  0  0
 13  2  1  0  0  0  0
 14 17  1  1  0  0  0
 14  7  1  0  0  0  0
 15  3  1  0  0  0  0
 15  7  2  0  0  0  0
 16 11  1  0  0  0  0
 16  3  2  0  0  0  0
 18 19  1  0  0  0  0
 18 17  1  0  0  0  0
 20 19  1  0  0  0  0
 22 21  1  1  0  0  0
 22 20  1  0  0  0  0
 23 22  1  0  0  0  0
 25 24  1  0  0  0  0
 25 23  1  0  0  0  0
 26  4  1  0  0  0  0
 27 26  1  0  0  0  0
 28 29  1  0  0  0  0
 29 31  1  0  0  0  0
 30 31  2  0  0  0  0
 30 27  1  0  0  0  0
 32 33  1  0  0  0  0
 33 30  1  0  0  0  0
 34 32  1  0  0  0  0
 34 28  1  0  0  0  0
M  END
>  <MODEL>
8

>  <REMARK>
 VINA RESULT:      -7.8      2.364      6.303
  Name = 
  10 active torsions:
  status: ('A' for Active; 'I' for Inactive)
    1  A    between atoms: C_3  and  C_13
    2  A    between atoms: C_3  and  N_17
    3  A    between atoms: N_5  and  C_26
    4  A    between atoms: C_12  and  C_28
    5  A    between atoms: C_13  and  C_33
    6  A    between atoms: O_14  and  C_20
    7  A    between atoms: N_17  and  C_29
    8  A    between atoms: C_20  and  C_34
    9  A    between atoms: C_26  and  C_28
   10  A    between atoms: C_33  and  C_34
                            x       y       z     vdW  Elec       q    Type
                         _______ _______ _______ _____ _____    ______ ____

>  <TORSDO>
F 10

$$$$
=
 OpenBabel11052414123D

 34 38  0  0  1  0  0  0  0  0999 V2000
  189.5350  177.2050  146.8130 C   0  0  0  0  0  0  0  0  0  0  0  0
  190.5160  176.7740  144.6130 C   0  0  0  0  0  0  0  0  0  0  0  0
  188.2700  177.7080  144.8020 C   0  0  0  0  0  0  0  0  0  0  0  0
  187.1750  178.0930  142.4680 N   0  0  0  0  0  0  0  0  0  0  0  0
  191.7670  176.2750  146.6280 C   0  0  0  0  0  3  0  0  0  0  0  0
  191.6760  176.2970  145.2300 C   0  0  0  0  0  3  0  0  0  0  0  0
  189.2210  177.2890  142.6290 C   0  0  0  0  0  0  0  0  0  0  0  0
  189.4430  177.2280  145.4110 C   0  0  0  0  0  0  0  0  0  0  0  0
  187.5590  177.9850  141.1590 O   0  0  0  0  0  0  0  0  0  0  0  0
  190.7000  176.7270  147.4190 C   0  0  0  0  0  3  0  0  0  0  0  0
  187.3090  178.1360  146.9300 C   0  0  0  0  0  3  0  0  0  0  0  0
  188.4590  177.6630  147.5770 C   0  0  0  0  0  3  0  0  0  0  0  0
  190.4020  176.8020  143.2100 O   0  0  0  0  0  0  0  0  0  0  0  0
  188.8460  177.3650  141.1980 C   0  0  1  0  0  3  0  0  0  0  0  0
  188.2250  177.7200  143.3310 C   0  0  0  0  0  0  0  0  0  0  0  0
  187.2360  178.1500  145.5690 N   0  0  0  0  0  0  0  0  0  0  0  0
  189.8090  178.1880  140.4850 N   0  0  0  0  0  2  0  0  0  0  0  0
  189.6880  177.8650  139.0730 C   0  0  0  0  0  2  0  0  0  0  0  0
  190.4100  176.5630  138.7740 C   0  0  0  0  0  2  0  0  0  0  0  0
  191.9180  176.7580  138.8900 C   0  0  0  0  0  2  0  0  0  0  0  0
  193.8990  176.6840  137.5330 O   0  0  0  0  0  1  0  0  0  0  0  0
  192.6750  176.0530  137.7650 C   0  0  2  0  0  3  0  0  0  0  0  0
  191.8650  176.0040  136.4800 C   0  0  0  0  0  2  0  0  0  0  0  0
  192.2880  173.8870  136.9340 C   0  0  0  0  0  1  0  0  0  0  0  0
  191.9920  174.7500  135.8800 O   0  0  0  0  0  0  0  0  0  0  0  0
  185.7880  177.8750  142.8510 C   0  0  0  0  0  2  0  0  0  0  0  0
  184.9660  179.1160  142.5540 C   0  0  0  0  0  2  0  0  0  0  0  0
  184.0670  178.1110  138.3000 C   0  0  0  0  0  2  0  0  0  0  0  0
  184.2910  179.5110  138.8410 C   0  0  0  0  0  2  0  0  0  0  0  0
  184.3000  178.9710  141.2320 C   0  0  0  0  0  0  0  0  0  0  0  0
  184.8690  179.4830  140.1800 N   0  0  0  0  0  0  0  0  0  0  0  0
  182.8640  177.1230  140.2580 C   0  0  0  0  0  2  0  0  0  0  0  0
  183.0630  178.2530  141.1560 N   0  0  0  0  0  2  0  0  0  0  0  0
  182.7440  177.5720  138.8110 C   0  0  0  0  0  2  0  0  0  0  0  0
  1 10  1  0  0  0  0
  1 12  1  0  0  0  0
  2  6  2  0  0  0  0
  2  8  1  0  0  0  0
  3  8  1  0  0  0  0
  3 16  2  0  0  0  0
  4 26  1  0  0  0  0
  4 15  1  0  0  0  0
  5 10  2  0  0  0  0
  6  5  1  0  0  0  0
  7 13  1  0  0  0  0
  7 15  2  0  0  0  0
  8  1  2  0  0  0  0
  9 14  1  0  0  0  0
  9  4  1  0  0  0  0
 11 12  2  0  0  0  0
 13  2  1  0  0  0  0
 14 17  1  6  0  0  0
 14  7  1  0  0  0  0
 15  3  1  0  0  0  0
 16 11  1  0  0  0  0
 18 17  1  0  0  0  0
 19 20  1  0  0  0  0
 19 18  1  0  0  0  0
 22 21  1  6  0  0  0
 22 20  1  0  0  0  0
 23 22  1  0  0  0  0
 25 23  1  0  0  0  0
 25 24  1  0  0  0  0
 27 26  1  0  0  0  0
 28 34  1  0  0  0  0
 28 29  1  0  0  0  0
 29 31  1  0  0  0  0
 30 27  1  0  0  0  0
 31 30  2  0  0  0  0
 32 33  1  0  0  0  0
 33 30  1  0  0  0  0
 34 32  1  0  0  0  0
M  END
>  <MODEL>
9

>  <REMARK>
 VINA RESULT:      -7.8      2.116      2.958
  Name = 
  10 active torsions:
  status: ('A' for Active; 'I' for Inactive)
    1  A    between atoms: C_3  and  C_13
    2  A    between atoms: C_3  and  N_17
    3  A    between atoms: N_5  and  C_26
    4  A    between atoms: C_12  and  C_28
    5  A    between atoms: C_13  and  C_33
    6  A    between atoms: O_14  and  C_20
    7  A    between atoms: N_17  and  C_29
    8  A    between atoms: C_20  and  C_34
    9  A    between atoms: C_26  and  C_28
   10  A    between atoms: C_33  and  C_34
                            x       y       z     vdW  Elec       q    Type
                         _______ _______ _______ _____ _____    ______ ____

>  <TORSDO>
F 10

$$$$
