=
 OpenBabel11052415563D

 34 39  0  0  0  0  0  0  0  0999 V2000
  186.9270  178.1140  143.9070 C   0  0  0  0  0  0  0  0  0  0  0  0
  188.0090  177.4510  147.4020 C   0  0  0  0  0  3  0  0  0  0  0  0
  185.9840  178.1330  146.5540 C   0  0  0  0  0  3  0  0  0  0  0  0
  186.2860  178.5820  141.4680 C   0  0  0  0  0  0  0  0  0  0  0  0
  187.3570  178.1180  142.4500 C   0  0  0  0  0  3  0  0  0  0  0  0
  184.7180  178.8320  143.3210 C   0  0  0  0  0  0  0  0  0  0  0  0
  183.1170  179.2410  144.0280 S   0  0  0  0  0  0  0  0  0  0  0  0
  185.0540  178.8980  141.8940 C   0  0  0  0  0  3  0  0  0  0  0  0
  185.1530  178.4820  145.5000 C   0  0  0  0  0  0  0  0  0  0  0  0
  185.6150  178.4720  144.2170 C   0  0  0  0  0  0  0  0  0  0  0  0
  183.7950  178.8770  145.6280 N   0  0  0  0  0  0  0  0  0  0  0  0
  189.3950  177.0210  147.6000 C   0  0  0  0  0  3  0  0  0  0  0  0
  190.3670  176.8190  146.7130 C   0  0  0  0  0  0  0  0  0  0  0  0
  190.2300  177.0020  145.2640 C   0  0  0  0  0  3  0  0  0  0  0  0
  187.3190  177.7620  146.3050 C   0  0  0  0  0  0  0  0  0  0  0  0
  189.1780  177.3820  144.5500 C   0  0  0  0  0  3  0  0  0  0  0  0
  187.8090  177.7490  144.9600 C   0  0  0  0  0  0  0  0  0  0  0  0
  191.6800  176.3810  147.2240 C   0  0  0  0  0  0  0  0  0  0  0  0
  192.2610  177.0170  148.3160 O   0  0  0  0  0  1  0  0  0  0  0  0
  192.2890  175.4240  146.6750 O   0  0  0  0  0  0  0  0  0  0  0  0
  186.5330  178.6550  140.0890 O   0  0  0  0  0  0  0  0  0  0  0  0
  188.6680  177.0780  137.4620 C   0  0  0  0  0  3  0  0  0  0  0  0
  188.8660  178.0650  140.0770 C   0  0  0  0  0  3  0  0  0  0  0  0
  192.2360  176.4600  138.2020 C   0  0  0  0  0  0  0  0  0  0  0  0
  191.0200  176.4970  137.5080 C   0  0  0  0  0  3  0  0  0  0  0  0
  189.8920  177.0330  138.1310 C   0  0  0  0  0  0  0  0  0  0  0  0
  191.2180  177.4720  140.1040 C   0  0  0  0  0  3  0  0  0  0  0  0
  189.9900  177.5280  139.4460 C   0  0  0  0  0  0  0  0  0  0  0  0
  192.3040  176.9440  139.4750 N   0  0  0  0  0  0  0  0  0  0  0  0
  187.6380  178.1230  139.4070 C   0  0  0  0  0  0  0  0  0  0  0  0
  187.5470  177.6180  138.0970 C   0  0  0  0  0  3  0  0  0  0  0  0
  193.4050  175.9140  137.5800 N   0  0  0  0  0  0  0  0  0  0  0  0
  193.7210  174.7220  137.7720 O   0  0  0  0  0  0  0  0  0  0  0  0
  194.1920  176.6970  136.7660 O   0  0  0  0  0  0  0  0  0  0  0  0
  1 10  1  0  0  0  0
  1 17  1  0  0  0  0
  2 12  2  0  0  0  0
  4  8  2  0  0  0  0
  4  5  1  0  0  0  0
  5  1  2  0  0  0  0
  6  7  1  0  0  0  0
  6 10  2  0  0  0  0
  7 11  1  0  0  0  0
  8  6  1  0  0  0  0
  9 11  2  0  0  0  0
  9  3  1  0  0  0  0
 10  9  1  0  0  0  0
 13 18  1  0  0  0  0
 13 12  1  0  0  0  0
 14 13  2  0  0  0  0
 15  3  2  0  0  0  0
 15  2  1  0  0  0  0
 16 17  2  0  0  0  0
 16 14  1  0  0  0  0
 17 15  1  0  0  0  0
 18 19  1  0  0  0  0
 20 18  2  0  0  0  0
 21  4  1  0  0  0  0
 22 31  2  0  0  0  0
 22 26  1  0  0  0  0
 24 29  1  0  0  0  0
 25 26  1  0  0  0  0
 25 24  2  0  0  0  0
 26 28  2  0  0  0  0
 28 23  1  0  0  0  0
 28 27  1  0  0  0  0
 29 27  2  0  0  0  0
 30 23  2  0  0  0  0
 30 21  1  0  0  0  0
 31 30  1  0  0  0  0
 32 33  2  0  0  0  0
 32 24  1  0  0  0  0
 34 32  2  0  0  0  0
M  END
>  <MODEL>
1

>  <REMARK>
 VINA RESULT:     -12.6      0.000      0.000
  Name = 
  4 active torsions:
  status: ('A' for Active; 'I' for Inactive)
    1  A    between atoms: C_3  and  C_25
    2  A    between atoms: C_7  and  N_11
    3  A    between atoms: C_8  and  O_18
    4  A    between atoms: O_18  and  C_30
                            x       y       z     vdW  Elec       q    Type
                         _______ _______ _______ _____ _____    ______ ____

>  <TORSDO>
F 4

$$$$
=
 OpenBabel11052415563D

 34 39  0  0  0  0  0  0  0  0999 V2000
  186.8180  178.1520  143.8860 C   0  0  0  0  0  0  0  0  0  0  0  0
  187.8890  177.4920  147.3850 C   0  0  0  0  0  3  0  0  0  0  0  0
  185.8630  178.1610  146.5290 C   0  0  0  0  0  3  0  0  0  0  0  0
  186.1830  178.6170  141.4450 C   0  0  0  0  0  0  0  0  0  0  0  0
  187.2540  178.1600  142.4310 C   0  0  0  0  0  3  0  0  0  0  0  0
  184.6060  178.8540  143.2920 C   0  0  0  0  0  0  0  0  0  0  0  0
  182.9980  179.2510  143.9920 S   0  0  0  0  0  0  0  0  0  0  0  0
  184.9480  178.9230  141.8650 C   0  0  0  0  0  3  0  0  0  0  0  0
  185.0340  178.5050  145.4720 C   0  0  0  0  0  0  0  0  0  0  0  0
  185.5020  178.4990  144.1910 C   0  0  0  0  0  0  0  0  0  0  0  0
  183.6730  178.8900  145.5940 N   0  0  0  0  0  0  0  0  0  0  0  0
  189.2780  177.0730  147.5890 C   0  0  0  0  0  3  0  0  0  0  0  0
  190.2540  176.8790  146.7060 C   0  0  0  0  0  0  0  0  0  0  0  0
  190.1230  177.0610  145.2570 C   0  0  0  0  0  3  0  0  0  0  0  0
  187.2010  177.8000  146.2850 C   0  0  0  0  0  0  0  0  0  0  0  0
  189.0710  177.4350  144.5380 C   0  0  0  0  0  3  0  0  0  0  0  0
  187.6970  177.7910  144.9420 C   0  0  0  0  0  0  0  0  0  0  0  0
  191.5680  176.4490  147.2220 C   0  0  0  0  0  0  0  0  0  0  0  0
  192.2300  175.3660  146.6550 O   0  0  0  0  0  0  0  0  0  0  0  0
  192.1060  177.0610  148.1830 O   0  0  0  0  0  1  0  0  0  0  0  0
  186.4360  178.6920  140.0670 O   0  0  0  0  0  0  0  0  0  0  0  0
  189.9450  177.7910  139.1590 C   0  0  0  0  0  3  0  0  0  0  0  0
  187.3380  177.5220  138.1670 C   0  0  0  0  0  3  0  0  0  0  0  0
  190.5550  175.9640  136.0050 C   0  0  0  0  0  0  0  0  0  0  0  0
  190.7990  176.6150  137.2210 C   0  0  0  0  0  3  0  0  0  0  0  0
  189.7270  177.1360  137.9470 C   0  0  0  0  0  0  0  0  0  0  0  0
  188.2130  176.3500  136.2330 C   0  0  0  0  0  3  0  0  0  0  0  0
  188.4160  177.0030  137.4480 C   0  0  0  0  0  0  0  0  0  0  0  0
  189.2760  175.8500  135.5440 N   0  0  0  0  0  0  0  0  0  0  0  0
  187.5490  178.1720  139.3900 C   0  0  0  0  0  0  0  0  0  0  0  0
  188.8620  178.3080  139.8760 C   0  0  0  0  0  3  0  0  0  0  0  0
  191.6410  175.4220  135.2450 N   0  0  0  0  0  0  0  0  0  0  0  0
  192.7230  176.0390  135.1680 O   0  0  0  0  0  0  0  0  0  0  0  0
  191.5040  174.2170  134.5940 O   0  0  0  0  0  0  0  0  0  0  0  0
  1 10  1  0  0  0  0
  1 17  1  0  0  0  0
  2 12  2  0  0  0  0
  4  8  2  0  0  0  0
  4  5  1  0  0  0  0
  5  1  2  0  0  0  0
  6  7  1  0  0  0  0
  6 10  2  0  0  0  0
  7 11  1  0  0  0  0
  8  6  1  0  0  0  0
  9 11  2  0  0  0  0
  9  3  1  0  0  0  0
 10  9  1  0  0  0  0
 13 18  1  0  0  0  0
 13 12  1  0  0  0  0
 14 13  2  0  0  0  0
 15  3  2  0  0  0  0
 15  2  1  0  0  0  0
 16 17  2  0  0  0  0
 16 14  1  0  0  0  0
 17 15  1  0  0  0  0
 18 20  1  0  0  0  0
 19 18  2  0  0  0  0
 21  4  1  0  0  0  0
 22 31  1  0  0  0  0
 23 30  1  0  0  0  0
 24 25  2  0  0  0  0
 25 26  1  0  0  0  0
 26 22  2  0  0  0  0
 27 28  1  0  0  0  0
 28 26  1  0  0  0  0
 28 23  2  0  0  0  0
 29 24  1  0  0  0  0
 29 27  2  0  0  0  0
 30 31  2  0  0  0  0
 30 21  1  0  0  0  0
 32 24  1  0  0  0  0
 33 32  2  0  0  0  0
 34 32  2  0  0  0  0
M  END
>  <MODEL>
2

>  <REMARK>
 VINA RESULT:     -11.9      1.288      1.954
  Name = 
  4 active torsions:
  status: ('A' for Active; 'I' for Inactive)
    1  A    between atoms: C_3  and  C_25
    2  A    between atoms: C_7  and  N_11
    3  A    between atoms: C_8  and  O_18
    4  A    between atoms: O_18  and  C_30
                            x       y       z     vdW  Elec       q    Type
                         _______ _______ _______ _____ _____    ______ ____

>  <TORSDO>
F 4

$$$$
=
 OpenBabel11052415563D

 34 39  0  0  0  0  0  0  0  0999 V2000
  184.5400  178.7300  141.9880 C   0  0  0  0  0  0  0  0  0  0  0  0
  185.2000  178.3230  138.3520 C   0  0  0  0  0  3  0  0  0  0  0  0
  183.2270  178.5350  139.5110 C   0  0  0  0  0  3  0  0  0  0  0  0
  184.1850  178.9710  144.5160 C   0  0  0  0  0  0  0  0  0  0  0  0
  185.1760  178.8530  143.3630 C   0  0  0  0  0  3  0  0  0  0  0  0
  182.3410  178.9230  142.9180 C   0  0  0  0  0  0  0  0  0  0  0  0
  180.6010  178.9540  142.4710 S   0  0  0  0  0  0  0  0  0  0  0  0
  182.8650  179.0160  144.2870 C   0  0  0  0  0  3  0  0  0  0  0  0
  182.5090  178.6910  140.6870 C   0  0  0  0  0  0  0  0  0  0  0  0
  183.1500  178.7850  141.8870 C   0  0  0  0  0  0  0  0  0  0  0  0
  181.0940  178.7610  140.7760 N   0  0  0  0  0  0  0  0  0  0  0  0
  186.6010  178.2150  137.9370 C   0  0  0  0  0  3  0  0  0  0  0  0
  187.7160  178.2380  138.6630 C   0  0  0  0  0  0  0  0  0  0  0  0
  187.7630  178.3880  140.1210 C   0  0  0  0  0  3  0  0  0  0  0  0
  184.6330  178.4740  139.5480 C   0  0  0  0  0  0  0  0  0  0  0  0
  186.7740  178.5250  140.9950 C   0  0  0  0  0  3  0  0  0  0  0  0
  185.3110  178.5720  140.8050 C   0  0  0  0  0  0  0  0  0  0  0  0
  189.0010  178.1040  137.9500 C   0  0  0  0  0  0  0  0  0  0  0  0
  190.0370  177.3550  138.4960 O   0  0  0  0  0  1  0  0  0  0  0  0
  189.1730  178.6680  136.8360 O   0  0  0  0  0  0  0  0  0  0  0  0
  184.6150  179.0780  145.8480 O   0  0  0  0  0  0  0  0  0  0  0  0
  187.4290  178.3690  148.1980 C   0  0  0  0  0  3  0  0  0  0  0  0
  186.7830  178.1000  145.4840 C   0  0  0  0  0  3  0  0  0  0  0  0
  190.5160  176.8310  146.8670 C   0  0  0  0  0  0  0  0  0  0  0  0
  189.6020  177.3860  147.7730 C   0  0  0  0  0  3  0  0  0  0  0  0
  188.3550  177.8100  147.3150 C   0  0  0  0  0  0  0  0  0  0  0  0
  188.9650  177.1210  145.0800 C   0  0  0  0  0  3  0  0  0  0  0  0
  188.0290  177.6770  145.9510 C   0  0  0  0  0  0  0  0  0  0  0  0
  190.1760  176.7150  145.5510 N   0  0  0  0  0  0  0  0  0  0  0  0
  185.8460  178.6520  146.3670 C   0  0  0  0  0  0  0  0  0  0  0  0
  186.1830  178.7890  147.7260 C   0  0  0  0  0  3  0  0  0  0  0  0
  191.8010  176.3890  147.3170 N   0  0  0  0  0  0  0  0  0  0  0  0
  192.3940  175.4680  146.7190 O   0  0  0  0  0  0  0  0  0  0  0  0
  192.3960  176.9740  148.4120 O   0  0  0  0  0  0  0  0  0  0  0  0
  1  5  1  0  0  0  0
  2 15  1  0  0  0  0
  3 15  2  0  0  0  0
  3  9  1  0  0  0  0
  4 21  1  0  0  0  0
  5  4  2  0  0  0  0
  6  8  2  0  0  0  0
  7  6  1  0  0  0  0
  8  4  1  0  0  0  0
  9 11  2  0  0  0  0
  9 10  1  0  0  0  0
 10  1  2  0  0  0  0
 10  6  1  0  0  0  0
 11  7  1  0  0  0  0
 12  2  2  0  0  0  0
 12 13  1  0  0  0  0
 13 14  2  0  0  0  0
 14 16  1  0  0  0  0
 15 17  1  0  0  0  0
 17 16  2  0  0  0  0
 17  1  1  0  0  0  0
 18 19  1  0  0  0  0
 18 13  1  0  0  0  0
 20 18  2  0  0  0  0
 21 30  1  0  0  0  0
 23 28  2  0  0  0  0
 23 30  1  0  0  0  0
 24 32  1  0  0  0  0
 24 25  2  0  0  0  0
 26 25  1  0  0  0  0
 26 22  2  0  0  0  0
 27 29  2  0  0  0  0
 27 28  1  0  0  0  0
 28 26  1  0  0  0  0
 29 24  1  0  0  0  0
 30 31  2  0  0  0  0
 31 22  1  0  0  0  0
 32 34  2  0  0  0  0
 33 32  2  0  0  0  0
M  END
>  <MODEL>
3

>  <REMARK>
 VINA RESULT:     -11.5      2.827      7.565
  Name = 
  4 active torsions:
  status: ('A' for Active; 'I' for Inactive)
    1  A    between atoms: C_3  and  C_25
    2  A    between atoms: C_7  and  N_11
    3  A    between atoms: C_8  and  O_18
    4  A    between atoms: O_18  and  C_30
                            x       y       z     vdW  Elec       q    Type
                         _______ _______ _______ _____ _____    ______ ____

>  <TORSDO>
F 4

$$$$
=
 OpenBabel11052415563D

 34 39  0  0  0  0  0  0  0  0999 V2000
  188.0780  177.8390  143.2470 C   0  0  0  0  0  0  0  0  0  0  0  0
  188.3350  177.2620  146.9110 C   0  0  0  0  0  3  0  0  0  0  0  0
  186.5350  177.8240  145.5960 C   0  0  0  0  0  3  0  0  0  0  0  0
  188.0080  178.2530  140.7170 C   0  0  0  0  0  0  0  0  0  0  0  0
  188.8400  177.8560  141.9320 C   0  0  0  0  0  3  0  0  0  0  0  0
  186.0350  178.4280  142.1420 C   0  0  0  0  0  0  0  0  0  0  0  0
  184.2930  178.7520  142.4430 S   0  0  0  0  0  0  0  0  0  0  0  0
  186.6960  178.5020  140.8330 C   0  0  0  0  0  3  0  0  0  0  0  0
  185.9600  178.1190  144.3690 C   0  0  0  0  0  0  0  0  0  0  0  0
  186.7120  178.1240  143.2320 C   0  0  0  0  0  0  0  0  0  0  0  0
  184.5920  178.4380  144.1650 N   0  0  0  0  0  0  0  0  0  0  0  0
  189.6560  176.9110  147.4390 C   0  0  0  0  0  3  0  0  0  0  0  0
  190.8180  176.7580  146.8110 C   0  0  0  0  0  0  0  0  0  0  0  0
  191.0190  176.9220  145.3670 C   0  0  0  0  0  3  0  0  0  0  0  0
  187.9080  177.5260  145.6760 C   0  0  0  0  0  0  0  0  0  0  0  0
  190.1480  177.2380  144.4180 C   0  0  0  0  0  3  0  0  0  0  0  0
  188.7030  177.5310  144.4850 C   0  0  0  0  0  0  0  0  0  0  0  0
  191.9950  176.3970  147.6260 C   0  0  0  0  0  0  0  0  0  0  0  0
  192.7250  175.2480  147.3420 O   0  0  0  0  0  0  0  0  0  0  0  0
  192.3500  177.1270  148.5890 O   0  0  0  0  0  1  0  0  0  0  0  0
  188.5710  178.3290  139.4340 O   0  0  0  0  0  0  0  0  0  0  0  0
  189.7630  175.3760  137.4820 C   0  0  0  0  0  3  0  0  0  0  0  0
  190.7850  177.4760  139.0310 C   0  0  0  0  0  3  0  0  0  0  0  0
  193.3910  174.6870  137.3330 C   0  0  0  0  0  0  0  0  0  0  0  0
  192.0130  174.5570  137.1160 C   0  0  0  0  0  3  0  0  0  0  0  0
  191.1400  175.4870  137.6810 C   0  0  0  0  0  0  0  0  0  0  0  0
  193.0300  176.6370  138.6560 C   0  0  0  0  0  3  0  0  0  0  0  0
  191.6520  176.5420  138.4610 C   0  0  0  0  0  0  0  0  0  0  0  0
  193.8610  175.7170  138.0940 N   0  0  0  0  0  0  0  0  0  0  0  0
  189.4030  177.3770  138.8260 C   0  0  0  0  0  0  0  0  0  0  0  0
  188.8990  176.3150  138.0530 C   0  0  0  0  0  3  0  0  0  0  0  0
  194.3040  173.7440  136.7620 N   0  0  0  0  0  0  0  0  0  0  0  0
  193.9390  173.0020  135.8270 O   0  0  0  0  0  0  0  0  0  0  0  0
  195.5930  173.6440  137.2370 O   0  0  0  0  0  0  0  0  0  0  0  0
  1 17  1  0  0  0  0
  2 12  2  0  0  0  0
  3 15  2  0  0  0  0
  4  8  2  0  0  0  0
  4  5  1  0  0  0  0
  5  1  2  0  0  0  0
  6  7  1  0  0  0  0
  6 10  2  0  0  0  0
  7 11  1  0  0  0  0
  8  6  1  0  0  0  0
  9  3  1  0  0  0  0
 10  1  1  0  0  0  0
 10  9  1  0  0  0  0
 11  9  2  0  0  0  0
 13 12  1  0  0  0  0
 13 18  1  0  0  0  0
 14 13  2  0  0  0  0
 15  2  1  0  0  0  0
 16 17  2  0  0  0  0
 16 14  1  0  0  0  0
 17 15  1  0  0  0  0
 18 20  1  0  0  0  0
 19 18  2  0  0  0  0
 21  4  1  0  0  0  0
 22 26  2  0  0  0  0
 22 31  1  0  0  0  0
 24 29  1  0  0  0  0
 25 24  2  0  0  0  0
 25 26  1  0  0  0  0
 26 28  1  0  0  0  0
 28 27  1  0  0  0  0
 28 23  2  0  0  0  0
 29 27  2  0  0  0  0
 30 23  1  0  0  0  0
 30 21  1  0  0  0  0
 31 30  2  0  0  0  0
 32 34  2  0  0  0  0
 32 24  1  0  0  0  0
 33 32  2  0  0  0  0
M  END
>  <MODEL>
4

>  <REMARK>
 VINA RESULT:     -11.4      1.336      1.880
  Name = 
  4 active torsions:
  status: ('A' for Active; 'I' for Inactive)
    1  A    between atoms: C_3  and  C_25
    2  A    between atoms: C_7  and  N_11
    3  A    between atoms: C_8  and  O_18
    4  A    between atoms: O_18  and  C_30
                            x       y       z     vdW  Elec       q    Type
                         _______ _______ _______ _____ _____    ______ ____

>  <TORSDO>
F 4

$$$$
=
 OpenBabel11052415563D

 34 39  0  0  0  0  0  0  0  0999 V2000
  185.2330  178.5110  142.8180 C   0  0  0  0  0  0  0  0  0  0  0  0
  185.4300  178.2550  146.5220 C   0  0  0  0  0  3  0  0  0  0  0  0
  183.6400  178.6330  145.1310 C   0  0  0  0  0  3  0  0  0  0  0  0
  185.2040  178.7070  140.2610 C   0  0  0  0  0  0  0  0  0  0  0  0
  186.0230  178.4480  141.5220 C   0  0  0  0  0  3  0  0  0  0  0  0
  183.1950  178.9240  141.6290 C   0  0  0  0  0  0  0  0  0  0  0  0
  181.4350  179.2020  141.8680 S   0  0  0  0  0  0  0  0  0  0  0  0
  183.8810  178.9130  140.3310 C   0  0  0  0  0  3  0  0  0  0  0  0
  183.0820  178.8000  143.8720 C   0  0  0  0  0  0  0  0  0  0  0  0
  183.8590  178.7400  142.7530 C   0  0  0  0  0  0  0  0  0  0  0  0
  181.7080  179.0460  143.6160 N   0  0  0  0  0  0  0  0  0  0  0  0
  186.7520  178.0040  147.1030 C   0  0  0  0  0  3  0  0  0  0  0  0
  187.9330  177.8440  146.5120 C   0  0  0  0  0  0  0  0  0  0  0  0
  188.1600  177.8940  145.0640 C   0  0  0  0  0  3  0  0  0  0  0  0
  185.0220  178.3980  145.2620 C   0  0  0  0  0  0  0  0  0  0  0  0
  187.2980  178.0940  144.0750 C   0  0  0  0  0  3  0  0  0  0  0  0
  185.8420  178.3330  144.0900 C   0  0  0  0  0  0  0  0  0  0  0  0
  189.1040  177.6010  147.3770 C   0  0  0  0  0  0  0  0  0  0  0  0
  190.1090  176.7280  146.9750 O   0  0  0  0  0  0  0  0  0  0  0  0
  189.2050  178.1810  148.4910 O   0  0  0  0  0  1  0  0  0  0  0  0
  185.7920  178.6980  138.9870 O   0  0  0  0  0  0  0  0  0  0  0  0
  188.0690  176.3510  137.1830 C   0  0  0  0  0  3  0  0  0  0  0  0
  188.1130  178.1600  139.3230 C   0  0  0  0  0  3  0  0  0  0  0  0
  191.5740  176.0500  138.3150 C   0  0  0  0  0  0  0  0  0  0  0  0
  190.4050  175.8410  137.5720 C   0  0  0  0  0  3  0  0  0  0  0  0
  189.2470  176.5440  137.9060 C   0  0  0  0  0  0  0  0  0  0  0  0
  190.4510  177.6320  139.6990 C   0  0  0  0  0  3  0  0  0  0  0  0
  189.2670  177.4520  138.9820 C   0  0  0  0  0  0  0  0  0  0  0  0
  191.5670  176.9340  139.3540 N   0  0  0  0  0  0  0  0  0  0  0  0
  186.9300  177.9780  138.5960 C   0  0  0  0  0  0  0  0  0  0  0  0
  186.9160  177.0630  137.5280 C   0  0  0  0  0  3  0  0  0  0  0  0
  192.7730  175.3380  137.9890 N   0  0  0  0  0  0  0  0  0  0  0  0
  193.8890  175.8670  138.1730 O   0  0  0  0  0  0  0  0  0  0  0  0
  192.7090  174.0640  137.4700 O   0  0  0  0  0  0  0  0  0  0  0  0
  1 17  1  0  0  0  0
  2 12  2  0  0  0  0
  3 15  2  0  0  0  0
  4  8  2  0  0  0  0
  4  5  1  0  0  0  0
  5  1  2  0  0  0  0
  6  7  1  0  0  0  0
  6 10  2  0  0  0  0
  7 11  1  0  0  0  0
  8  6  1  0  0  0  0
  9  3  1  0  0  0  0
 10  1  1  0  0  0  0
 10  9  1  0  0  0  0
 11  9  2  0  0  0  0
 13 12  1  0  0  0  0
 13 18  1  0  0  0  0
 14 13  2  0  0  0  0
 15  2  1  0  0  0  0
 16 17  2  0  0  0  0
 16 14  1  0  0  0  0
 17 15  1  0  0  0  0
 18 20  1  0  0  0  0
 19 18  2  0  0  0  0
 21  4  1  0  0  0  0
 22 31  2  0  0  0  0
 22 26  1  0  0  0  0
 24 29  1  0  0  0  0
 25 26  1  0  0  0  0
 25 24  2  0  0  0  0
 26 28  2  0  0  0  0
 28 23  1  0  0  0  0
 28 27  1  0  0  0  0
 29 27  2  0  0  0  0
 30 21  1  0  0  0  0
 30 23  2  0  0  0  0
 31 30  1  0  0  0  0
 32 33  2  0  0  0  0
 32 24  1  0  0  0  0
 34 32  2  0  0  0  0
M  END
>  <MODEL>
5

>  <REMARK>
 VINA RESULT:     -11.1      1.405      2.145
  Name = 
  4 active torsions:
  status: ('A' for Active; 'I' for Inactive)
    1  A    between atoms: C_3  and  C_25
    2  A    between atoms: C_7  and  N_11
    3  A    between atoms: C_8  and  O_18
    4  A    between atoms: O_18  and  C_30
                            x       y       z     vdW  Elec       q    Type
                         _______ _______ _______ _____ _____    ______ ____

>  <TORSDO>
F 4

$$$$
=
 OpenBabel11052415563D

 34 39  0  0  0  0  0  0  0  0999 V2000
  188.1130  177.6360  144.4850 C   0  0  0  0  0  0  0  0  0  0  0  0
  184.9530  178.3410  146.3120 C   0  0  0  0  0  3  0  0  0  0  0  0
  187.0630  177.8540  147.0830 C   0  0  0  0  0  3  0  0  0  0  0  0
  190.2340  177.1260  143.1360 C   0  0  0  0  0  0  0  0  0  0  0  0
  188.7580  177.5110  143.1150 C   0  0  0  0  0  3  0  0  0  0  0  0
  190.1890  177.1490  145.5760 C   0  0  0  0  0  0  0  0  0  0  0  0
  190.9380  176.9620  147.1990 S   0  0  0  0  0  0  0  0  0  0  0  0
  190.8880  176.9750  144.2960 C   0  0  0  0  0  3  0  0  0  0  0  0
  188.4010  177.5520  146.8790 C   0  0  0  0  0  0  0  0  0  0  0  0
  188.9060  177.4470  145.6170 C   0  0  0  0  0  0  0  0  0  0  0  0
  189.3510  177.3230  147.9080 N   0  0  0  0  0  0  0  0  0  0  0  0
  183.7630  178.6170  145.5030 C   0  0  0  0  0  3  0  0  0  0  0  0
  183.6140  178.6620  144.1820 C   0  0  0  0  0  0  0  0  0  0  0  0
  184.6870  178.4270  143.2090 C   0  0  0  0  0  3  0  0  0  0  0  0
  186.2120  178.0570  145.9800 C   0  0  0  0  0  0  0  0  0  0  0  0
  185.9660  178.1350  143.4080 C   0  0  0  0  0  3  0  0  0  0  0  0
  186.7370  177.9480  144.6530 C   0  0  0  0  0  0  0  0  0  0  0  0
  182.2720  178.9720  143.6530 C   0  0  0  0  0  0  0  0  0  0  0  0
  182.1230  179.5570  142.4010 O   0  0  0  0  0  0  0  0  0  0  0  0
  181.2440  178.7080  144.3330 O   0  0  0  0  0  1  0  0  0  0  0  0
  190.9680  176.9580  141.9520 O   0  0  0  0  0  0  0  0  0  0  0  0
  190.6150  176.4130  138.2740 C   0  0  0  0  0  3  0  0  0  0  0  0
  189.2310  177.5870  140.4100 C   0  0  0  0  0  3  0  0  0  0  0  0
  187.6070  177.7110  136.5620 C   0  0  0  0  0  0  0  0  0  0  0  0
  188.8410  177.0790  136.7640 C   0  0  0  0  0  3  0  0  0  0  0  0
  189.3860  177.0350  138.0480 C   0  0  0  0  0  0  0  0  0  0  0  0
  187.4670  178.2480  138.8810 C   0  0  0  0  0  3  0  0  0  0  0  0
  188.6920  177.6260  139.1220 C   0  0  0  0  0  0  0  0  0  0  0  0
  186.9570  178.2770  137.6190 N   0  0  0  0  0  0  0  0  0  0  0  0
  190.4590  176.9560  140.6450 C   0  0  0  0  0  0  0  0  0  0  0  0
  191.1490  176.3760  139.5650 C   0  0  0  0  0  3  0  0  0  0  0  0
  187.0310  177.7670  135.2530 N   0  0  0  0  0  0  0  0  0  0  0  0
  186.7700  176.7150  134.6350 O   0  0  0  0  0  0  0  0  0  0  0  0
  186.7580  178.9800  134.6620 O   0  0  0  0  0  0  0  0  0  0  0  0
  1 17  1  0  0  0  0
  1 10  1  0  0  0  0
  4  8  2  0  0  0  0
  5  4  1  0  0  0  0
  5  1  2  0  0  0  0
  6 10  2  0  0  0  0
  6  7  1  0  0  0  0
  7 11  1  0  0  0  0
  8  6  1  0  0  0  0
  9  3  1  0  0  0  0
  9 11  2  0  0  0  0
 10  9  1  0  0  0  0
 12  2  2  0  0  0  0
 13 12  1  0  0  0  0
 14 16  1  0  0  0  0
 14 13  2  0  0  0  0
 15  2  1  0  0  0  0
 15  3  2  0  0  0  0
 16 17  2  0  0  0  0
 17 15  1  0  0  0  0
 18 13  1  0  0  0  0
 18 20  1  0  0  0  0
 19 18  2  0  0  0  0
 21  4  1  0  0  0  0
 22 31  1  0  0  0  0
 23 30  1  0  0  0  0
 24 25  2  0  0  0  0
 24 29  1  0  0  0  0
 25 26  1  0  0  0  0
 26 22  2  0  0  0  0
 26 28  1  0  0  0  0
 27 28  1  0  0  0  0
 28 23  2  0  0  0  0
 29 27  2  0  0  0  0
 30 21  1  0  0  0  0
 31 30  2  0  0  0  0
 32 24  1  0  0  0  0
 33 32  2  0  0  0  0
 34 32  2  0  0  0  0
M  END
>  <MODEL>
6

>  <REMARK>
 VINA RESULT:     -10.8      3.384      5.731
  Name = 
  4 active torsions:
  status: ('A' for Active; 'I' for Inactive)
    1  A    between atoms: C_3  and  C_25
    2  A    between atoms: C_7  and  N_11
    3  A    between atoms: C_8  and  O_18
    4  A    between atoms: O_18  and  C_30
                            x       y       z     vdW  Elec       q    Type
                         _______ _______ _______ _____ _____    ______ ____

>  <TORSDO>
F 4

$$$$
=
 OpenBabel11052415563D

 34 39  0  0  0  0  0  0  0  0999 V2000
  186.2660  178.3080  143.5650 C   0  0  0  0  0  0  0  0  0  0  0  0
  187.6140  177.5370  146.9430 C   0  0  0  0  0  3  0  0  0  0  0  0
  185.5100  178.1690  146.2680 C   0  0  0  0  0  3  0  0  0  0  0  0
  185.4380  178.8550  141.2000 C   0  0  0  0  0  0  0  0  0  0  0  0
  186.5930  178.3950  142.0830 C   0  0  0  0  0  3  0  0  0  0  0  0
  183.9940  178.9550  143.1650 C   0  0  0  0  0  0  0  0  0  0  0  0
  182.4310  179.2620  143.9970 S   0  0  0  0  0  0  0  0  0  0  0  0
  184.2270  179.0980  141.7220 C   0  0  0  0  0  3  0  0  0  0  0  0
  184.5940  178.5280  145.2900 C   0  0  0  0  0  0  0  0  0  0  0  0
  184.9650  178.5940  143.9800 C   0  0  0  0  0  0  0  0  0  0  0  0
  183.2340  178.8580  145.5280 N   0  0  0  0  0  0  0  0  0  0  0  0
  189.0280  177.1600  147.0260 C   0  0  0  0  0  3  0  0  0  0  0  0
  189.9420  177.0400  146.0670 C   0  0  0  0  0  0  0  0  0  0  0  0
  189.6970  177.2800  144.6410 C   0  0  0  0  0  3  0  0  0  0  0  0
  186.8380  177.8670  145.9120 C   0  0  0  0  0  0  0  0  0  0  0  0
  188.5840  177.6460  144.0190 C   0  0  0  0  0  3  0  0  0  0  0  0
  187.2330  177.9350  144.5370 C   0  0  0  0  0  0  0  0  0  0  0  0
  191.3040  176.6360  146.4660 C   0  0  0  0  0  0  0  0  0  0  0  0
  191.7980  176.9640  147.7240 O   0  0  0  0  0  1  0  0  0  0  0  0
  192.0360  175.9900  145.6690 O   0  0  0  0  0  0  0  0  0  0  0  0
  185.5850  179.0000  139.8120 O   0  0  0  0  0  0  0  0  0  0  0  0
  185.6840  176.8160  136.7840 C   0  0  0  0  0  3  0  0  0  0  0  0
  183.9800  177.4460  138.9180 C   0  0  0  0  0  3  0  0  0  0  0  0
  182.7690  174.6680  136.0430 C   0  0  0  0  0  0  0  0  0  0  0  0
  184.0280  175.2710  135.9240 C   0  0  0  0  0  3  0  0  0  0  0  0
  184.4360  176.1990  136.8820 C   0  0  0  0  0  0  0  0  0  0  0  0
  182.3340  175.8970  138.0380 C   0  0  0  0  0  3  0  0  0  0  0  0
  183.5800  176.5180  137.9550 C   0  0  0  0  0  0  0  0  0  0  0  0
  181.9590  174.9950  137.0900 N   0  0  0  0  0  0  0  0  0  0  0  0
  185.2350  178.0610  138.8300 C   0  0  0  0  0  0  0  0  0  0  0  0
  186.0800  177.7430  137.7520 C   0  0  0  0  0  3  0  0  0  0  0  0
  182.3310  173.7130  135.0690 N   0  0  0  0  0  0  0  0  0  0  0  0
  181.1670  173.7580  134.6230 O   0  0  0  0  0  0  0  0  0  0  0  0
  183.1890  172.7360  134.6160 O   0  0  0  0  0  0  0  0  0  0  0  0
  1 10  1  0  0  0  0
  1 17  1  0  0  0  0
  2 12  2  0  0  0  0
  4  8  2  0  0  0  0
  4  5  1  0  0  0  0
  5  1  2  0  0  0  0
  6 10  2  0  0  0  0
  6  7  1  0  0  0  0
  7 11  1  0  0  0  0
  8  6  1  0  0  0  0
  9 11  2  0  0  0  0
  9  3  1  0  0  0  0
 10  9  1  0  0  0  0
 13 18  1  0  0  0  0
 13 12  1  0  0  0  0
 14 13  2  0  0  0  0
 15  3  2  0  0  0  0
 15  2  1  0  0  0  0
 16 17  2  0  0  0  0
 16 14  1  0  0  0  0
 17 15  1  0  0  0  0
 18 19  1  0  0  0  0
 20 18  2  0  0  0  0
 21  4  1  0  0  0  0
 22 26  2  0  0  0  0
 22 31  1  0  0  0  0
 24 29  1  0  0  0  0
 25 24  2  0  0  0  0
 25 26  1  0  0  0  0
 26 28  1  0  0  0  0
 28 27  1  0  0  0  0
 28 23  2  0  0  0  0
 29 27  2  0  0  0  0
 30 23  1  0  0  0  0
 30 21  1  0  0  0  0
 31 30  2  0  0  0  0
 32 24  1  0  0  0  0
 33 32  2  0  0  0  0
 34 32  2  0  0  0  0
M  END
>  <MODEL>
7

>  <REMARK>
 VINA RESULT:     -10.3      4.050      5.228
  Name = 
  4 active torsions:
  status: ('A' for Active; 'I' for Inactive)
    1  A    between atoms: C_3  and  C_25
    2  A    between atoms: C_7  and  N_11
    3  A    between atoms: C_8  and  O_18
    4  A    between atoms: O_18  and  C_30
                            x       y       z     vdW  Elec       q    Type
                         _______ _______ _______ _____ _____    ______ ____

>  <TORSDO>
F 4

$$$$
=
 OpenBabel11052415563D

 34 39  0  0  0  0  0  0  0  0999 V2000
  187.1380  178.1260  140.6360 C   0  0  0  0  0  0  0  0  0  0  0  0
  188.9500  177.5720  137.4370 C   0  0  0  0  0  3  0  0  0  0  0  0
  186.8060  178.2890  137.8490 C   0  0  0  0  0  3  0  0  0  0  0  0
  185.9610  178.4450  142.8920 C   0  0  0  0  0  0  0  0  0  0  0  0
  187.2420  178.0760  142.1510 C   0  0  0  0  0  3  0  0  0  0  0  0
  184.8690  178.8850  140.7540 C   0  0  0  0  0  0  0  0  0  0  0  0
  183.4720  179.3710  139.7330 S   0  0  0  0  0  0  0  0  0  0  0  0
  184.8670  178.8340  142.2220 C   0  0  0  0  0  3  0  0  0  0  0  0
  185.7710  178.6240  138.7110 C   0  0  0  0  0  0  0  0  0  0  0  0
  185.9370  178.5430  140.0620 C   0  0  0  0  0  0  0  0  0  0  0  0
  184.4830  179.0610  138.3060 N   0  0  0  0  0  0  0  0  0  0  0  0
  190.3350  177.1020  137.5280 C   0  0  0  0  0  3  0  0  0  0  0  0
  191.0810  176.8320  138.5960 C   0  0  0  0  0  0  0  0  0  0  0  0
  190.6320  176.9590  139.9870 C   0  0  0  0  0  3  0  0  0  0  0  0
  188.0430  177.8620  138.3680 C   0  0  0  0  0  0  0  0  0  0  0  0
  189.4580  177.3480  140.4690 C   0  0  0  0  0  3  0  0  0  0  0  0
  188.2220  177.7760  139.7860 C   0  0  0  0  0  0  0  0  0  0  0  0
  192.4630  176.3680  138.3670 C   0  0  0  0  0  0  0  0  0  0  0  0
  193.5440  177.1820  138.6900 O   0  0  0  0  0  1  0  0  0  0  0  0
  192.6790  175.2290  137.8740 O   0  0  0  0  0  0  0  0  0  0  0  0
  185.8920  178.4330  144.2930 O   0  0  0  0  0  0  0  0  0  0  0  0
  187.7760  177.6420  147.4200 C   0  0  0  0  0  3  0  0  0  0  0  0
  188.1760  177.7630  144.6480 C   0  0  0  0  0  3  0  0  0  0  0  0
  191.3360  176.6830  147.1590 C   0  0  0  0  0  0  0  0  0  0  0  0
  190.0860  176.9780  147.7200 C   0  0  0  0  0  3  0  0  0  0  0  0
  189.0290  177.3390  146.8850 C   0  0  0  0  0  0  0  0  0  0  0  0
  190.4870  177.1010  144.9710 C   0  0  0  0  0  3  0  0  0  0  0  0
  189.2290  177.4020  145.4920 C   0  0  0  0  0  0  0  0  0  0  0  0
  191.5030  176.7520  145.8070 N   0  0  0  0  0  0  0  0  0  0  0  0
  186.9140  178.0580  145.1780 C   0  0  0  0  0  0  0  0  0  0  0  0
  186.7250  178.0010  146.5710 C   0  0  0  0  0  3  0  0  0  0  0  0
  192.4340  176.3100  147.9990 N   0  0  0  0  0  0  0  0  0  0  0  0
  193.0630  175.2550  147.7790 O   0  0  0  0  0  0  0  0  0  0  0  0
  192.8070  177.1100  149.0550 O   0  0  0  0  0  0  0  0  0  0  0  0
  1  5  1  0  0  0  0
  2 12  2  0  0  0  0
  2 15  1  0  0  0  0
  3 15  2  0  0  0  0
  3  9  1  0  0  0  0
  4 21  1  0  0  0  0
  5  4  2  0  0  0  0
  6  8  2  0  0  0  0
  7  6  1  0  0  0  0
  8  4  1  0  0  0  0
  9 10  1  0  0  0  0
 10  1  2  0  0  0  0
 10  6  1  0  0  0  0
 11  9  2  0  0  0  0
 11  7  1  0  0  0  0
 12 13  1  0  0  0  0
 13 14  2  0  0  0  0
 14 16  1  0  0  0  0
 15 17  1  0  0  0  0
 17 16  2  0  0  0  0
 17  1  1  0  0  0  0
 18 13  1  0  0  0  0
 18 19  1  0  0  0  0
 20 18  2  0  0  0  0
 21 30  1  0  0  0  0
 23 30  2  0  0  0  0
 23 28  1  0  0  0  0
 24 25  1  0  0  0  0
 24 32  1  0  0  0  0
 26 22  1  0  0  0  0
 26 25  2  0  0  0  0
 27 28  2  0  0  0  0
 27 29  1  0  0  0  0
 28 26  1  0  0  0  0
 29 24  2  0  0  0  0
 30 31  1  0  0  0  0
 31 22  2  0  0  0  0
 32 34  2  0  0  0  0
 33 32  2  0  0  0  0
M  END
>  <MODEL>
8

>  <REMARK>
 VINA RESULT:     -10.3      2.627      7.405
  Name = 
  4 active torsions:
  status: ('A' for Active; 'I' for Inactive)
    1  A    between atoms: C_3  and  C_25
    2  A    between atoms: C_7  and  N_11
    3  A    between atoms: C_8  and  O_18
    4  A    between atoms: O_18  and  C_30
                            x       y       z     vdW  Elec       q    Type
                         _______ _______ _______ _____ _____    ______ ____

>  <TORSDO>
F 4

$$$$
=
 OpenBabel11052415563D

 34 39  0  0  0  0  0  0  0  0999 V2000
  189.0700  177.7580  141.9090 C   0  0  0  0  0  0  0  0  0  0  0  0
  191.1180  177.0180  144.9220 C   0  0  0  0  0  3  0  0  0  0  0  0
  191.6510  176.9630  142.6870 C   0  0  0  0  0  3  0  0  0  0  0  0
  187.5680  178.2540  139.8900 C   0  0  0  0  0  0  0  0  0  0  0  0
  187.7040  178.1940  141.4080 C   0  0  0  0  0  3  0  0  0  0  0  0
  189.9110  177.6070  139.6710 C   0  0  0  0  0  0  0  0  0  0  0  0
  191.3880  177.2120  138.7250 S   0  0  0  0  0  0  0  0  0  0  0  0
  188.6150  177.9890  139.0950 C   0  0  0  0  0  3  0  0  0  0  0  0
  191.3280  177.1200  141.3470 C   0  0  0  0  0  0  0  0  0  0  0  0
  190.0750  177.5060  140.9740 C   0  0  0  0  0  0  0  0  0  0  0  0
  192.2190  176.9030  140.2630 N   0  0  0  0  0  0  0  0  0  0  0  0
  190.4600  177.1510  146.2250 C   0  0  0  0  0  3  0  0  0  0  0  0
  189.2130  177.5060  146.5240 C   0  0  0  0  0  0  0  0  0  0  0  0
  188.1820  177.8550  145.5410 C   0  0  0  0  0  3  0  0  0  0  0  0
  190.6800  177.2040  143.6780 C   0  0  0  0  0  0  0  0  0  0  0  0
  188.2490  177.8960  144.2160 C   0  0  0  0  0  3  0  0  0  0  0  0
  189.3630  177.6100  143.2910 C   0  0  0  0  0  0  0  0  0  0  0  0
  188.8370  177.5500  147.9500 C   0  0  0  0  0  0  0  0  0  0  0  0
  189.4960  178.4040  148.8280 O   0  0  0  0  0  1  0  0  0  0  0  0
  187.9130  176.8140  148.3890 O   0  0  0  0  0  0  0  0  0  0  0  0
  186.3640  178.6260  139.2730 O   0  0  0  0  0  0  0  0  0  0  0  0
  182.6580  178.4760  139.7110 C   0  0  0  0  0  3  0  0  0  0  0  0
  184.9870  178.7980  141.2380 C   0  0  0  0  0  3  0  0  0  0  0  0
  181.2520  178.8440  143.1090 C   0  0  0  0  0  0  0  0  0  0  0  0
  181.3190  178.6660  141.7210 C   0  0  0  0  0  3  0  0  0  0  0  0
  182.5650  178.6490  141.0930 C   0  0  0  0  0  0  0  0  0  0  0  0
  183.6270  178.9890  143.2380 C   0  0  0  0  0  3  0  0  0  0  0  0
  183.7360  178.8130  141.8590 C   0  0  0  0  0  0  0  0  0  0  0  0
  182.4000  179.0020  143.8280 N   0  0  0  0  0  0  0  0  0  0  0  0
  185.0870  178.6150  139.8540 C   0  0  0  0  0  0  0  0  0  0  0  0
  183.9130  178.4610  139.0950 C   0  0  0  0  0  3  0  0  0  0  0  0
  179.9830  178.8640  143.7740 N   0  0  0  0  0  0  0  0  0  0  0  0
  179.5560  177.8390  144.3440 O   0  0  0  0  0  0  0  0  0  0  0  0
  179.2220  180.0110  143.7910 O   0  0  0  0  0  0  0  0  0  0  0  0
  1 17  1  0  0  0  0
  2 12  2  0  0  0  0
  3 15  2  0  0  0  0
  4  5  2  0  0  0  0
  5  1  1  0  0  0  0
  6 10  1  0  0  0  0
  7  6  1  0  0  0  0
  7 11  1  0  0  0  0
  8  6  2  0  0  0  0
  8  4  1  0  0  0  0
  9  3  1  0  0  0  0
 10  9  1  0  0  0  0
 10  1  2  0  0  0  0
 11  9  2  0  0  0  0
 12 13  1  0  0  0  0
 13 18  1  0  0  0  0
 14 13  2  0  0  0  0
 15  2  1  0  0  0  0
 16 14  1  0  0  0  0
 17 15  1  0  0  0  0
 17 16  2  0  0  0  0
 18 20  2  0  0  0  0
 18 19  1  0  0  0  0
 21 30  1  0  0  0  0
 21  4  1  0  0  0  0
 22 26  1  0  0  0  0
 23 28  1  0  0  0  0
 24 32  1  0  0  0  0
 24 29  1  0  0  0  0
 25 24  2  0  0  0  0
 26 25  1  0  0  0  0
 26 28  2  0  0  0  0
 27 29  2  0  0  0  0
 28 27  1  0  0  0  0
 30 23  2  0  0  0  0
 31 22  2  0  0  0  0
 31 30  1  0  0  0  0
 32 34  2  0  0  0  0
 32 33  2  0  0  0  0
M  END
>  <MODEL>
9

>  <REMARK>
 VINA RESULT:     -10.3      3.329      7.536
  Name = 
  4 active torsions:
  status: ('A' for Active; 'I' for Inactive)
    1  A    between atoms: C_3  and  C_25
    2  A    between atoms: C_7  and  N_11
    3  A    between atoms: C_8  and  O_18
    4  A    between atoms: O_18  and  C_30
                            x       y       z     vdW  Elec       q    Type
                         _______ _______ _______ _____ _____    ______ ____

>  <TORSDO>
F 4

$$$$
