=
 OpenBabel11052416493D

 32 35  0  0  1  0  0  0  0  0999 V2000
  187.7870  177.8790  143.0830 C   0  0  0  0  0  0  0  0  0  0  0  0
  183.1240  179.3450  143.6070 C   0  0  0  0  0  3  0  0  0  0  0  0
  183.1520  178.9690  144.9520 C   0  0  0  0  0  3  0  0  0  0  0  0
  188.9000  177.9750  140.9110 C   0  0  0  0  0  0  0  0  0  0  0  0
  186.5520  178.5430  141.1010 C   0  0  0  0  0  3  0  0  0  0  0  0
  187.6330  178.6180  138.9540 O   0  0  0  0  0  1  0  0  0  0  0  0
  184.2380  179.1190  142.7950 C   0  0  0  0  0  3  0  0  0  0  0  0
  186.5870  178.2980  142.4810 C   0  0  0  0  0  0  0  0  0  0  0  0
  185.3900  178.5140  143.3210 C   0  0  0  0  0  0  0  0  0  0  0  0
  186.5910  177.4180  145.2650 C   0  0  0  0  0  2  0  0  0  0  0  0
  187.6960  178.3750  140.3200 C   0  0  0  0  0  0  0  0  0  0  0  0
  184.2930  178.3630  145.4840 C   0  0  0  0  0  3  0  0  0  0  0  0
  185.4160  178.1440  144.6790 C   0  0  0  0  0  0  0  0  0  0  0  0
  188.9380  177.7290  142.2930 C   0  0  0  0  0  3  0  0  0  0  0  0
  187.8280  177.6350  144.5040 N   0  0  0  0  0  0  0  0  0  0  0  0
  189.1090  177.4490  145.1840 C   0  0  2  0  0  3  0  0  0  0  0  0
  189.9330  176.3620  144.4910 C   0  0  0  0  0  2  0  0  0  0  0  0
  189.8380  176.2630  147.3970 C   0  0  0  0  0  3  0  0  0  0  0  0
  191.1540  176.1790  147.1550 C   0  0  0  0  0  3  0  0  0  0  0  0
  191.8330  177.0000  146.1030 C   0  0  0  0  0  2  0  0  0  0  0  0
  191.4390  176.5670  144.6880 C   0  0  0  0  0  2  0  0  0  0  0  0
  188.8780  177.2010  146.6910 C   0  0  1  0  0  3  0  0  0  0  0  0
  188.7190  178.5130  147.4480 C   0  0  0  0  0  2  0  0  0  0  0  0
  188.4410  178.2790  148.7960 O   0  0  0  0  0  1  0  0  0  0  0  0
  190.0370  177.8270  140.1090 O   0  0  0  0  0  0  0  0  0  0  0  0
  190.6420  176.5690  139.8280 C   0  0  0  0  0  2  0  0  0  0  0  0
  193.0870  176.5560  137.9320 C   0  0  0  0  0  0  0  0  0  0  0  0
  189.4670  175.9490  137.8540 O   0  0  0  0  0  0  0  0  0  0  0  0
  191.7460  176.2440  137.5370 N   0  0  0  0  0  2  0  0  0  0  0  0
  193.3900  177.0070  139.2480 N   0  0  0  0  0  1  0  0  0  0  0  0
  194.0180  176.4340  137.0940 O   0  0  0  0  0  0  0  0  0  0  0  0
  190.5760  176.2600  138.3640 C   0  0  0  0  0  0  0  0  0  0  0  0
  1 15  1  0  0  0  0
  2  3  1  0  0  0  0
  3 12  2  0  0  0  0
  4 14  1  0  0  0  0
  5  8  2  0  0  0  0
  6 11  1  0  0  0  0
  7  9  1  0  0  0  0
  7  2  2  0  0  0  0
  8  1  1  0  0  0  0
  8  9  1  0  0  0  0
  9 13  2  0  0  0  0
 11  4  2  0  0  0  0
 11  5  1  0  0  0  0
 13 10  1  0  0  0  0
 13 12  1  0  0  0  0
 14  1  2  0  0  0  0
 15 16  1  0  0  0  0
 15 10  1  0  0  0  0
 16 17  1  6  0  0  0
 16 22  1  0  0  0  0
 17 21  1  0  0  0  0
 19 18  2  0  0  0  0
 20 19  1  0  0  0  0
 21 20  1  0  0  0  0
 22 18  1  0  0  0  0
 22 23  1  1  0  0  0
 23 24  1  0  0  0  0
 25  4  1  0  0  0  0
 26 25  1  0  0  0  0
 27 30  1  0  0  0  0
 28 32  2  0  0  0  0
 29 27  1  0  0  0  0
 29 32  1  0  0  0  0
 31 27  2  0  0  0  0
 32 26  1  0  0  0  0
M  END
>  <MODEL>
1

>  <REMARK>
 VINA RESULT:     -10.2      0.000      0.000
  Name = 
  5 active torsions:
  status: ('A' for Active; 'I' for Inactive)
    1  A    between atoms: C_6  and  N_31
    2  A    between atoms: C_8  and  O_23
    3  A    between atoms: C_19  and  O_23
    4  A    between atoms: C_19  and  C_24
    5  A    between atoms: C_27  and  C_32
                            x       y       z     vdW  Elec       q    Type
                         _______ _______ _______ _____ _____    ______ ____

>  <TORSDO>
F 5

$$$$
=
 OpenBabel11052416493D

 32 35  0  0  1  0  0  0  0  0999 V2000
  186.8470  178.2280  142.0670 C   0  0  0  0  0  0  0  0  0  0  0  0
  184.3000  178.7570  146.2390 C   0  0  0  0  0  3  0  0  0  0  0  0
  185.3760  178.2420  146.9660 C   0  0  0  0  0  3  0  0  0  0  0  0
  185.8470  178.7700  139.9060 C   0  0  0  0  0  0  0  0  0  0  0  0
  184.5110  178.8780  141.9240 C   0  0  0  0  0  3  0  0  0  0  0  0
  183.5130  179.3910  139.7970 O   0  0  0  0  0  1  0  0  0  0  0  0
  184.3700  178.8300  144.8460 C   0  0  0  0  0  3  0  0  0  0  0  0
  185.6150  178.4890  142.6950 C   0  0  0  0  0  0  0  0  0  0  0  0
  185.5160  178.3870  144.1670 C   0  0  0  0  0  0  0  0  0  0  0  0
  187.8110  177.3130  144.2210 C   0  0  0  0  0  2  0  0  0  0  0  0
  184.6230  179.0100  140.5400 C   0  0  0  0  0  0  0  0  0  0  0  0
  186.5200  177.7960  146.2990 C   0  0  0  0  0  3  0  0  0  0  0  0
  186.6010  177.8770  144.9050 C   0  0  0  0  0  0  0  0  0  0  0  0
  186.9550  178.3800  140.6750 C   0  0  0  0  0  3  0  0  0  0  0  0
  187.9860  177.8360  142.8590 N   0  0  0  0  0  0  0  0  0  0  0  0
  189.3230  177.8090  142.2670 C   0  0  2  0  0  3  0  0  0  0  0  0
  189.4570  176.6360  141.2950 C   0  0  0  0  0  2  0  0  0  0  0  0
  191.6770  177.0640  143.1240 C   0  0  0  0  0  3  0  0  0  0  0  0
  192.3010  176.9700  141.9410 C   0  0  0  0  0  3  0  0  0  0  0  0
  191.7630  177.6030  140.6960 C   0  0  0  0  0  2  0  0  0  0  0  0
  190.4910  176.9100  140.1980 C   0  0  0  0  0  2  0  0  0  0  0  0
  190.3960  177.8340  143.3780 C   0  0  1  0  0  3  0  0  0  0  0  0
  190.6790  179.2570  143.8390 C   0  0  0  0  0  2  0  0  0  0  0  0
  191.9920  179.3780  144.3010 O   0  0  0  0  0  1  0  0  0  0  0  0
  185.9370  178.9230  138.5170 O   0  0  0  0  0  0  0  0  0  0  0  0
  186.4710  177.9260  137.6500 C   0  0  0  0  0  2  0  0  0  0  0  0
  188.6070  175.8760  136.7540 C   0  0  0  0  0  0  0  0  0  0  0  0
  188.1910  179.4990  137.1700 O   0  0  0  0  0  0  0  0  0  0  0  0
  188.8000  177.2950  136.7850 N   0  0  0  0  0  2  0  0  0  0  0  0
  187.4130  175.2750  137.2430 N   0  0  0  0  0  1  0  0  0  0  0  0
  189.5180  175.1430  136.2890 O   0  0  0  0  0  0  0  0  0  0  0  0
  187.8580  178.2850  137.2150 C   0  0  0  0  0  0  0  0  0  0  0  0
  1  8  1  0  0  0  0
  1 15  1  0  0  0  0
  2  3  1  0  0  0  0
  4 11  2  0  0  0  0
  4 14  1  0  0  0  0
  5  8  2  0  0  0  0
  6 11  1  0  0  0  0
  7  2  2  0  0  0  0
  8  9  1  0  0  0  0
  9  7  1  0  0  0  0
  9 13  2  0  0  0  0
 10 13  1  0  0  0  0
 11  5  1  0  0  0  0
 12  3  2  0  0  0  0
 13 12  1  0  0  0  0
 14  1  2  0  0  0  0
 15 10  1  0  0  0  0
 16 17  1  1  0  0  0
 16 15  1  0  0  0  0
 16 22  1  0  0  0  0
 18 22  1  0  0  0  0
 19 18  2  0  0  0  0
 20 19  1  0  0  0  0
 21 20  1  0  0  0  0
 21 17  1  0  0  0  0
 22 23  1  6  0  0  0
 23 24  1  0  0  0  0
 25  4  1  0  0  0  0
 26 25  1  0  0  0  0
 27 29  1  0  0  0  0
 27 30  1  0  0  0  0
 28 32  2  0  0  0  0
 29 32  1  0  0  0  0
 31 27  2  0  0  0  0
 32 26  1  0  0  0  0
M  END
>  <MODEL>
2

>  <REMARK>
 VINA RESULT:      -9.9      2.548      3.735
  Name = 
  5 active torsions:
  status: ('A' for Active; 'I' for Inactive)
    1  A    between atoms: C_6  and  N_31
    2  A    between atoms: C_8  and  O_23
    3  A    between atoms: C_19  and  O_23
    4  A    between atoms: C_19  and  C_24
    5  A    between atoms: C_27  and  C_32
                            x       y       z     vdW  Elec       q    Type
                         _______ _______ _______ _____ _____    ______ ____

>  <TORSDO>
F 5

$$$$
=
 OpenBabel11052416493D

 32 35  0  0  1  0  0  0  0  0999 V2000
  187.0800  178.0430  143.8940 C   0  0  0  0  0  0  0  0  0  0  0  0
  187.4660  178.1880  148.7920 C   0  0  0  0  0  3  0  0  0  0  0  0
  188.7860  177.7420  148.7060 C   0  0  0  0  0  3  0  0  0  0  0  0
  184.9720  178.5750  142.7810 C   0  0  0  0  0  0  0  0  0  0  0  0
  185.0820  178.4890  145.2000 C   0  0  0  0  0  3  0  0  0  0  0  0
  182.9970  178.9920  144.1130 O   0  0  0  0  0  1  0  0  0  0  0  0
  186.6960  178.3190  147.6350 C   0  0  0  0  0  3  0  0  0  0  0  0
  186.4460  178.1700  145.1430 C   0  0  0  0  0  0  0  0  0  0  0  0
  187.2400  178.0050  146.3790 C   0  0  0  0  0  0  0  0  0  0  0  0
  189.1730  177.1360  144.9900 C   0  0  0  0  0  2  0  0  0  0  0  0
  184.3480  178.6830  144.0300 C   0  0  0  0  0  0  0  0  0  0  0  0
  189.3360  177.4240  147.4610 C   0  0  0  0  0  3  0  0  0  0  0  0
  188.5750  177.5640  146.2970 C   0  0  0  0  0  0  0  0  0  0  0  0
  186.3380  178.2550  142.7200 C   0  0  0  0  0  3  0  0  0  0  0  0
  188.4850  177.7230  143.8330 N   0  0  0  0  0  0  0  0  0  0  0  0
  189.2130  177.8360  142.5690 C   0  0  2  0  0  3  0  0  0  0  0  0
  188.7660  176.7480  141.5920 C   0  0  0  0  0  2  0  0  0  0  0  0
  191.6310  177.2050  141.8020 C   0  0  0  0  0  3  0  0  0  0  0  0
  191.4370  177.2420  140.4760 C   0  0  0  0  0  3  0  0  0  0  0  0
  190.2560  177.9220  139.8540 C   0  0  0  0  0  2  0  0  0  0  0  0
  188.9470  177.1750  140.1310 C   0  0  0  0  0  2  0  0  0  0  0  0
  190.7350  177.8590  142.8350 C   0  0  1  0  0  3  0  0  0  0  0  0
  191.2120  179.2630  143.1830 C   0  0  0  0  0  2  0  0  0  0  0  0
  191.9850  179.2500  144.3470 O   0  0  0  0  0  1  0  0  0  0  0  0
  184.2170  178.7870  141.6220 O   0  0  0  0  0  0  0  0  0  0  0  0
  184.7150  178.5560  140.3070 C   0  0  0  0  0  2  0  0  0  0  0  0
  182.1680  177.5290  138.8820 C   0  0  0  0  0  0  0  0  0  0  0  0
  184.3030  180.5120  139.0150 O   0  0  0  0  0  0  0  0  0  0  0  0
  182.7470  178.8240  138.6860 N   0  0  0  0  0  2  0  0  0  0  0  0
  182.7980  176.5470  139.7000 N   0  0  0  0  0  1  0  0  0  0  0  0
  181.0810  177.2490  138.3140 O   0  0  0  0  0  0  0  0  0  0  0  0
  183.9360  179.3400  139.2970 C   0  0  0  0  0  0  0  0  0  0  0  0
  1  8  1  0  0  0  0
  3  2  1  0  0  0  0
  4 11  2  0  0  0  0
  7  2  2  0  0  0  0
  8  5  2  0  0  0  0
  8  9  1  0  0  0  0
  9  7  1  0  0  0  0
 10 13  1  0  0  0  0
 11  6  1  0  0  0  0
 11  5  1  0  0  0  0
 12  3  2  0  0  0  0
 13  9  2  0  0  0  0
 13 12  1  0  0  0  0
 14  4  1  0  0  0  0
 14  1  2  0  0  0  0
 15  1  1  0  0  0  0
 15 10  1  0  0  0  0
 16 17  1  6  0  0  0
 16 22  1  0  0  0  0
 16 15  1  0  0  0  0
 18 22  1  0  0  0  0
 19 18  2  0  0  0  0
 20 21  1  0  0  0  0
 20 19  1  0  0  0  0
 21 17  1  0  0  0  0
 22 23  1  6  0  0  0
 23 24  1  0  0  0  0
 25  4  1  0  0  0  0
 26 25  1  0  0  0  0
 27 30  1  0  0  0  0
 28 32  2  0  0  0  0
 29 27  1  0  0  0  0
 29 32  1  0  0  0  0
 31 27  2  0  0  0  0
 32 26  1  0  0  0  0
M  END
>  <MODEL>
3

>  <REMARK>
 VINA RESULT:      -9.7      3.262      6.205
  Name = 
  5 active torsions:
  status: ('A' for Active; 'I' for Inactive)
    1  A    between atoms: C_6  and  N_31
    2  A    between atoms: C_8  and  O_23
    3  A    between atoms: C_19  and  O_23
    4  A    between atoms: C_19  and  C_24
    5  A    between atoms: C_27  and  C_32
                            x       y       z     vdW  Elec       q    Type
                         _______ _______ _______ _____ _____    ______ ____

>  <TORSDO>
F 5

$$$$
=
 OpenBabel11052416493D

 32 35  0  0  1  0  0  0  0  0999 V2000
  188.8210  177.8520  141.5100 C   0  0  0  0  0  0  0  0  0  0  0  0
  190.9090  176.7470  137.1990 C   0  0  0  0  0  3  0  0  0  0  0  0
  192.1170  176.4820  137.8470 C   0  0  0  0  0  3  0  0  0  0  0  0
  186.5090  178.6280  141.6260 C   0  0  0  0  0  0  0  0  0  0  0  0
  187.5600  178.2560  139.4750 C   0  0  0  0  0  3  0  0  0  0  0  0
  185.2890  179.0420  139.5790 O   0  0  0  0  0  1  0  0  0  0  0  0
  189.8110  177.2050  137.9290 C   0  0  0  0  0  3  0  0  0  0  0  0
  188.7470  177.8580  140.1050 C   0  0  0  0  0  0  0  0  0  0  0  0
  189.9110  177.4040  139.3160 C   0  0  0  0  0  0  0  0  0  0  0  0
  191.3110  177.4050  141.4280 C   0  0  0  0  0  2  0  0  0  0  0  0
  186.4510  178.6460  140.2270 C   0  0  0  0  0  0  0  0  0  0  0  0
  192.2290  176.6790  139.2260 C   0  0  0  0  0  3  0  0  0  0  0  0
  191.1290  177.1270  139.9650 C   0  0  0  0  0  0  0  0  0  0  0  0
  187.6960  178.2300  142.2600 C   0  0  0  0  0  3  0  0  0  0  0  0
  190.0380  177.4340  142.1610 N   0  0  0  0  0  0  0  0  0  0  0  0
  190.0550  177.1780  143.6010 C   0  0  2  0  0  3  0  0  0  0  0  0
  189.8830  178.4830  144.3810 C   0  0  0  0  0  2  0  0  0  0  0  0
  191.9420  176.6640  145.3350 C   0  0  0  0  0  3  0  0  0  0  0  0
  191.2610  176.9330  146.4580 C   0  0  0  0  0  3  0  0  0  0  0  0
  189.7670  177.0180  146.4920 C   0  0  0  0  0  2  0  0  0  0  0  0
  189.2420  178.2540  145.7540 C   0  0  0  0  0  2  0  0  0  0  0  0
  191.3190  176.3770  143.9830 C   0  0  1  0  0  3  0  0  0  0  0  0
  191.1120  174.8840  143.7660 C   0  0  0  0  0  2  0  0  0  0  0  0
  192.1510  174.1500  144.3430 O   0  0  0  0  0  1  0  0  0  0  0  0
  185.3790  179.0100  142.3590 O   0  0  0  0  0  0  0  0  0  0  0  0
  184.5960  178.1010  143.1260 C   0  0  0  0  0  2  0  0  0  0  0  0
  185.1420  178.5510  146.1380 C   0  0  0  0  0  0  0  0  0  0  0  0
  182.6220  179.3470  143.5910 O   0  0  0  0  0  0  0  0  0  0  0  0
  183.9930  179.0390  145.4350 N   0  0  0  0  0  2  0  0  0  0  0  0
  186.1010  177.7100  145.5050 N   0  0  0  0  0  1  0  0  0  0  0  0
  185.3050  178.8680  147.3450 O   0  0  0  0  0  0  0  0  0  0  0  0
  183.6780  178.8380  144.0520 C   0  0  0  0  0  0  0  0  0  0  0  0
  1 15  1  0  0  0  0
  1 14  1  0  0  0  0
  2  3  2  0  0  0  0
  2  7  1  0  0  0  0
  3 12  1  0  0  0  0
  4 14  2  0  0  0  0
  4 25  1  0  0  0  0
  5  8  1  0  0  0  0
  5 11  2  0  0  0  0
  6 11  1  0  0  0  0
  7  9  2  0  0  0  0
  8  1  2  0  0  0  0
  9 13  1  0  0  0  0
  9  8  1  0  0  0  0
 10 15  1  0  0  0  0
 11  4  1  0  0  0  0
 12 13  2  0  0  0  0
 13 10  1  0  0  0  0
 16 15  1  6  0  0  0
 16 22  1  0  0  0  0
 16 17  1  0  0  0  0
 17 21  1  0  0  0  0
 18 19  2  0  0  0  0
 19 20  1  0  0  0  0
 21 20  1  0  0  0  0
 22 23  1  1  0  0  0
 22 18  1  0  0  0  0
 23 24  1  0  0  0  0
 25 26  1  0  0  0  0
 26 32  1  0  0  0  0
 27 31  2  0  0  0  0
 28 32  2  0  0  0  0
 29 27  1  0  0  0  0
 30 27  1  0  0  0  0
 32 29  1  0  0  0  0
M  END
>  <MODEL>
4

>  <REMARK>
 VINA RESULT:      -9.5      2.574      6.874
  Name = 
  5 active torsions:
  status: ('A' for Active; 'I' for Inactive)
    1  A    between atoms: C_6  and  N_31
    2  A    between atoms: C_8  and  O_23
    3  A    between atoms: C_19  and  O_23
    4  A    between atoms: C_19  and  C_24
    5  A    between atoms: C_27  and  C_32
                            x       y       z     vdW  Elec       q    Type
                         _______ _______ _______ _____ _____    ______ ____

>  <TORSDO>
F 5

$$$$
=
 OpenBabel11052416493D

 32 35  0  0  1  0  0  0  0  0999 V2000
  189.5400  177.7650  140.1760 C   0  0  0  0  0  0  0  0  0  0  0  0
  191.8890  175.9180  136.2720 C   0  0  0  0  0  3  0  0  0  0  0  0
  193.0600  175.8050  137.0240 C   0  0  0  0  0  3  0  0  0  0  0  0
  187.2160  178.4980  140.0150 C   0  0  0  0  0  0  0  0  0  0  0  0
  188.3960  177.7530  138.0340 C   0  0  0  0  0  3  0  0  0  0  0  0
  186.1150  178.4960  137.8620 O   0  0  0  0  0  1  0  0  0  0  0  0
  190.7450  176.4810  136.8410 C   0  0  0  0  0  3  0  0  0  0  0  0
  189.5480  177.5060  138.7930 C   0  0  0  0  0  0  0  0  0  0  0  0
  190.7610  176.9370  138.1680 C   0  0  0  0  0  0  0  0  0  0  0  0
  192.0350  177.3640  140.3180 C   0  0  0  0  0  2  0  0  0  0  0  0
  187.2410  178.2530  138.6370 C   0  0  0  0  0  0  0  0  0  0  0  0
  193.0880  176.2600  138.3450 C   0  0  0  0  0  3  0  0  0  0  0  0
  191.9430  176.8140  138.9250 C   0  0  0  0  0  0  0  0  0  0  0  0
  188.3690  178.2520  140.7780 C   0  0  0  0  0  3  0  0  0  0  0  0
  190.7220  177.5030  140.9600 N   0  0  0  0  0  0  0  0  0  0  0  0
  190.6570  177.5210  142.4210 C   0  0  2  0  0  3  0  0  0  0  0  0
  191.5660  178.6140  142.9860 C   0  0  0  0  0  2  0  0  0  0  0  0
  191.6770  176.0240  144.3060 C   0  0  0  0  0  3  0  0  0  0  0  0
  191.5080  176.8600  145.3400 C   0  0  0  0  0  3  0  0  0  0  0  0
  190.5730  178.0290  145.2850 C   0  0  0  0  0  2  0  0  0  0  0  0
  191.0770  179.1270  144.3430 C   0  0  0  0  0  2  0  0  0  0  0  0
  190.9420  176.1110  142.9820 C   0  0  1  0  0  3  0  0  0  0  0  0
  189.6830  175.2530  142.9830 C   0  0  0  0  0  2  0  0  0  0  0  0
  188.5580  176.0220  143.2890 O   0  0  0  0  0  1  0  0  0  0  0  0
  186.0420  178.9860  140.5990 O   0  0  0  0  0  0  0  0  0  0  0  0
  185.7340  178.8430  141.9830 C   0  0  0  0  0  2  0  0  0  0  0  0
  184.3900  178.8900  144.7690 C   0  0  0  0  0  0  0  0  0  0  0  0
  183.4850  178.9520  141.2120 O   0  0  0  0  0  0  0  0  0  0  0  0
  183.6860  178.9380  143.5230 N   0  0  0  0  0  2  0  0  0  0  0  0
  185.8020  178.7110  144.8220 N   0  0  0  0  0  1  0  0  0  0  0  0
  183.7450  179.0030  145.8440 O   0  0  0  0  0  0  0  0  0  0  0  0
  184.2550  178.8920  142.2080 C   0  0  0  0  0  0  0  0  0  0  0  0
  1 14  1  0  0  0  0
  1 15  1  0  0  0  0
  2  7  2  0  0  0  0
  2  3  1  0  0  0  0
  3 12  2  0  0  0  0
  4 25  1  0  0  0  0
  4 14  2  0  0  0  0
  5 11  2  0  0  0  0
  5  8  1  0  0  0  0
  6 11  1  0  0  0  0
  7  9  1  0  0  0  0
  8  1  2  0  0  0  0
  9  8  1  0  0  0  0
  9 13  2  0  0  0  0
 10 15  1  0  0  0  0
 11  4  1  0  0  0  0
 12 13  1  0  0  0  0
 13 10  1  0  0  0  0
 16 15  1  6  0  0  0
 16 22  1  0  0  0  0
 16 17  1  0  0  0  0
 17 21  1  0  0  0  0
 18 19  2  0  0  0  0
 20 19  1  0  0  0  0
 21 20  1  0  0  0  0
 22 23  1  1  0  0  0
 22 18  1  0  0  0  0
 23 24  1  0  0  0  0
 25 26  1  0  0  0  0
 26 32  1  0  0  0  0
 27 30  1  0  0  0  0
 27 31  2  0  0  0  0
 28 32  2  0  0  0  0
 29 27  1  0  0  0  0
 32 29  1  0  0  0  0
M  END
>  <MODEL>
5

>  <REMARK>
 VINA RESULT:      -9.5      2.680      7.117
  Name = 
  5 active torsions:
  status: ('A' for Active; 'I' for Inactive)
    1  A    between atoms: C_6  and  N_31
    2  A    between atoms: C_8  and  O_23
    3  A    between atoms: C_19  and  O_23
    4  A    between atoms: C_19  and  C_24
    5  A    between atoms: C_27  and  C_32
                            x       y       z     vdW  Elec       q    Type
                         _______ _______ _______ _____ _____    ______ ____

>  <TORSDO>
F 5

$$$$
=
 OpenBabel11052416493D

 32 35  0  0  1  0  0  0  0  0999 V2000
  188.1780  177.6000  143.1420 C   0  0  0  0  0  0  0  0  0  0  0  0
  190.5530  176.8840  147.3860 C   0  0  0  0  0  3  0  0  0  0  0  0
  191.6770  176.4380  146.6870 C   0  0  0  0  0  3  0  0  0  0  0  0
  185.8550  178.3530  143.1110 C   0  0  0  0  0  0  0  0  0  0  0  0
  186.9410  177.8460  145.2170 C   0  0  0  0  0  3  0  0  0  0  0  0
  184.6460  178.5660  145.1950 O   0  0  0  0  0  1  0  0  0  0  0  0
  189.3910  177.2270  146.6930 C   0  0  0  0  0  3  0  0  0  0  0  0
  188.1270  177.5190  144.5450 C   0  0  0  0  0  0  0  0  0  0  0  0
  189.3410  177.1280  145.2930 C   0  0  0  0  0  0  0  0  0  0  0  0
  190.4470  176.4800  143.1070 C   0  0  0  0  0  2  0  0  0  0  0  0
  185.8110  178.2530  144.5070 C   0  0  0  0  0  0  0  0  0  0  0  0
  191.6360  176.3320  145.2940 C   0  0  0  0  0  3  0  0  0  0  0  0
  190.4790  176.6850  144.5930 C   0  0  0  0  0  0  0  0  0  0  0  0
  187.0410  178.0260  142.4360 C   0  0  0  0  0  3  0  0  0  0  0  0
  189.3990  177.2710  142.4490 N   0  0  0  0  0  0  0  0  0  0  0  0
  189.5510  177.5900  141.0300 C   0  0  2  0  0  3  0  0  0  0  0  0
  188.2360  177.3610  140.2840 C   0  0  0  0  0  2  0  0  0  0  0  0
  190.6460  176.3640  138.9980 C   0  0  0  0  0  3  0  0  0  0  0  0
  190.0660  177.0570  138.0080 C   0  0  0  0  0  3  0  0  0  0  0  0
  189.4070  178.3830  138.2340 C   0  0  0  0  0  2  0  0  0  0  0  0
  188.1130  178.2540  139.0440 C   0  0  0  0  0  2  0  0  0  0  0  0
  190.7530  176.8200  140.4390 C   0  0  1  0  0  3  0  0  0  0  0  0
  192.0610  177.5580  140.6980 C   0  0  0  0  0  2  0  0  0  0  0  0
  193.0560  177.1280  139.8180 O   0  0  0  0  0  1  0  0  0  0  0  0
  184.7130  178.7770  142.4220 O   0  0  0  0  0  0  0  0  0  0  0  0
  184.0920  178.0180  141.3890 C   0  0  0  0  0  2  0  0  0  0  0  0
  182.8720  176.9830  138.7410 C   0  0  0  0  0  0  0  0  0  0  0  0
  184.9310  179.7530  139.9930 O   0  0  0  0  0  0  0  0  0  0  0  0
  183.6610  178.1720  138.8670 N   0  0  0  0  0  2  0  0  0  0  0  0
  182.6660  176.1050  139.8440 N   0  0  0  0  0  1  0  0  0  0  0  0
  182.3540  176.7040  137.6290 O   0  0  0  0  0  0  0  0  0  0  0  0
  184.2710  178.6820  140.0590 C   0  0  0  0  0  0  0  0  0  0  0  0
  1  8  1  0  0  0  0
  3  2  2  0  0  0  0
  4 11  2  0  0  0  0
  7  2  1  0  0  0  0
  8  5  2  0  0  0  0
  8  9  1  0  0  0  0
  9  7  2  0  0  0  0
 10 13  1  0  0  0  0
 11  6  1  0  0  0  0
 11  5  1  0  0  0  0
 12  3  1  0  0  0  0
 13  9  1  0  0  0  0
 13 12  2  0  0  0  0
 14  4  1  0  0  0  0
 14  1  2  0  0  0  0
 15 10  1  0  0  0  0
 15  1  1  0  0  0  0
 16 17  1  6  0  0  0
 16 15  1  0  0  0  0
 18 22  1  0  0  0  0
 19 20  1  0  0  0  0
 19 18  2  0  0  0  0
 20 21  1  0  0  0  0
 21 17  1  0  0  0  0
 22 23  1  6  0  0  0
 22 16  1  0  0  0  0
 24 23  1  0  0  0  0
 25  4  1  0  0  0  0
 26 25  1  0  0  0  0
 27 29  1  0  0  0  0
 27 30  1  0  0  0  0
 28 32  2  0  0  0  0
 29 32  1  0  0  0  0
 31 27  2  0  0  0  0
 32 26  1  0  0  0  0
M  END
>  <MODEL>
6

>  <REMARK>
 VINA RESULT:      -9.5      2.854      6.989
  Name = 
  5 active torsions:
  status: ('A' for Active; 'I' for Inactive)
    1  A    between atoms: C_6  and  N_31
    2  A    between atoms: C_8  and  O_23
    3  A    between atoms: C_19  and  O_23
    4  A    between atoms: C_19  and  C_24
    5  A    between atoms: C_27  and  C_32
                            x       y       z     vdW  Elec       q    Type
                         _______ _______ _______ _____ _____    ______ ____

>  <TORSDO>
F 5

$$$$
=
 OpenBabel11052416493D

 32 35  0  0  1  0  0  0  0  0999 V2000
  188.7240  177.4120  142.9920 C   0  0  0  0  0  0  0  0  0  0  0  0
  192.0550  176.0010  146.3210 C   0  0  0  0  0  3  0  0  0  0  0  0
  191.2160  176.4330  147.3500 C   0  0  0  0  0  3  0  0  0  0  0  0
  189.1750  177.2180  140.6000 C   0  0  0  0  0  0  0  0  0  0  0  0
  190.9020  176.6750  142.2110 C   0  0  0  0  0  3  0  0  0  0  0  0
  191.3620  176.5020  139.8570 O   0  0  0  0  0  1  0  0  0  0  0  0
  191.6780  176.1850  144.9890 C   0  0  0  0  0  3  0  0  0  0  0  0
  190.0330  176.9760  143.2690 C   0  0  0  0  0  0  0  0  0  0  0  0
  190.4580  176.8040  144.6740 C   0  0  0  0  0  0  0  0  0  0  0  0
  188.3400  177.9730  145.4300 C   0  0  0  0  0  2  0  0  0  0  0  0
  190.4800  176.8010  140.8870 C   0  0  0  0  0  0  0  0  0  0  0  0
  190.0010  177.0540  147.0470 C   0  0  0  0  0  3  0  0  0  0  0  0
  189.6120  177.2310  145.7160 C   0  0  0  0  0  0  0  0  0  0  0  0
  188.3030  177.5220  141.6570 C   0  0  0  0  0  3  0  0  0  0  0  0
  187.8260  177.7160  144.0790 N   0  0  0  0  0  0  0  0  0  0  0  0
  186.4000  177.9210  143.8230 C   0  0  2  0  0  3  0  0  0  0  0  0
  186.1920  178.6320  142.4850 C   0  0  0  0  0  2  0  0  0  0  0  0
  184.6140  179.6010  144.7280 C   0  0  0  0  0  3  0  0  0  0  0  0
  183.6820  179.4330  143.7800 C   0  0  0  0  0  3  0  0  0  0  0  0
  183.6760  178.2530  142.8580 C   0  0  0  0  0  2  0  0  0  0  0  0
  184.8350  178.2950  141.8570 C   0  0  0  0  0  2  0  0  0  0  0  0
  185.7430  178.6340  145.0250 C   0  0  1  0  0  3  0  0  0  0  0  0
  185.3570  177.6390  146.1120 C   0  0  0  0  0  2  0  0  0  0  0  0
  184.5750  178.2540  147.0920 O   0  0  0  0  0  1  0  0  0  0  0  0
  188.7720  177.3240  139.2640 O   0  0  0  0  0  0  0  0  0  0  0  0
  187.7910  178.2530  138.8110 C   0  0  0  0  0  2  0  0  0  0  0  0
  186.5490  177.4450  136.0950 C   0  0  0  0  0  0  0  0  0  0  0  0
  189.0550  179.7530  137.4620 O   0  0  0  0  0  0  0  0  0  0  0  0
  187.5570  178.4480  136.2650 N   0  0  0  0  0  2  0  0  0  0  0  0
  186.0980  176.6490  137.1870 N   0  0  0  0  0  1  0  0  0  0  0  0
  186.0530  177.2590  134.9540 O   0  0  0  0  0  0  0  0  0  0  0  0
  188.1850  178.8420  137.4910 C   0  0  0  0  0  0  0  0  0  0  0  0
  1  8  1  0  0  0  0
  1 15  1  0  0  0  0
  2  3  1  0  0  0  0
  4 11  2  0  0  0  0
  4 14  1  0  0  0  0
  5  8  2  0  0  0  0
  6 11  1  0  0  0  0
  7  2  2  0  0  0  0
  8  9  1  0  0  0  0
  9  7  1  0  0  0  0
  9 13  2  0  0  0  0
 10 13  1  0  0  0  0
 11  5  1  0  0  0  0
 12  3  2  0  0  0  0
 13 12  1  0  0  0  0
 14  1  2  0  0  0  0
 15 10  1  0  0  0  0
 16 17  1  6  0  0  0
 16 15  1  0  0  0  0
 16 22  1  0  0  0  0
 18 22  1  0  0  0  0
 19 18  2  0  0  0  0
 20 19  1  0  0  0  0
 21 17  1  0  0  0  0
 21 20  1  0  0  0  0
 22 23  1  1  0  0  0
 23 24  1  0  0  0  0
 25  4  1  0  0  0  0
 26 25  1  0  0  0  0
 27 29  1  0  0  0  0
 27 30  1  0  0  0  0
 28 32  2  0  0  0  0
 29 32  1  0  0  0  0
 31 27  2  0  0  0  0
 32 26  1  0  0  0  0
M  END
>  <MODEL>
7

>  <REMARK>
 VINA RESULT:      -9.3      2.247      5.534
  Name = 
  5 active torsions:
  status: ('A' for Active; 'I' for Inactive)
    1  A    between atoms: C_6  and  N_31
    2  A    between atoms: C_8  and  O_23
    3  A    between atoms: C_19  and  O_23
    4  A    between atoms: C_19  and  C_24
    5  A    between atoms: C_27  and  C_32
                            x       y       z     vdW  Elec       q    Type
                         _______ _______ _______ _____ _____    ______ ____

>  <TORSDO>
F 5

$$$$
=
 OpenBabel11052416493D

 32 35  0  0  1  0  0  0  0  0999 V2000
  183.9130  178.4360  141.8860 C   0  0  0  0  0  0  0  0  0  0  0  0
  179.5420  179.1370  144.0220 C   0  0  0  0  0  3  0  0  0  0  0  0
  178.9330  179.1980  142.7660 C   0  0  0  0  0  3  0  0  0  0  0  0
  185.9520  178.2670  143.2190 C   0  0  0  0  0  0  0  0  0  0  0  0
  183.8400  178.7830  144.2880 C   0  0  0  0  0  3  0  0  0  0  0  0
  185.8470  178.6410  145.6050 O   0  0  0  0  0  1  0  0  0  0  0  0
  180.9270  178.9910  144.1200 C   0  0  0  0  0  3  0  0  0  0  0  0
  183.1810  178.7200  143.0530 C   0  0  0  0  0  0  0  0  0  0  0  0
  181.7170  178.9060  142.9630 C   0  0  0  0  0  0  0  0  0  0  0  0
  181.9060  178.9600  140.4360 C   0  0  0  0  0  2  0  0  0  0  0  0
  185.2160  178.5670  144.3710 C   0  0  0  0  0  0  0  0  0  0  0  0
  179.7110  179.1180  141.6080 C   0  0  0  0  0  3  0  0  0  0  0  0
  181.0970  178.9610  141.6990 C   0  0  0  0  0  0  0  0  0  0  0  0
  185.2950  178.2030  141.9800 C   0  0  0  0  0  3  0  0  0  0  0  0
  183.2360  178.3620  140.6150 N   0  0  0  0  0  0  0  0  0  0  0  0
  183.9230  177.8240  139.4420 C   0  0  2  0  0  3  0  0  0  0  0  0
  184.7300  178.9190  138.7420 C   0  0  0  0  0  2  0  0  0  0  0  0
  183.1620  177.1690  137.0290 C   0  0  0  0  0  3  0  0  0  0  0  0
  184.3660  177.1330  136.4410 C   0  0  0  0  0  3  0  0  0  0  0  0
  185.6410  177.0540  137.2230 C   0  0  0  0  0  2  0  0  0  0  0  0
  185.9340  178.3520  137.9820 C   0  0  0  0  0  2  0  0  0  0  0  0
  182.9160  177.0980  138.5230 C   0  0  1  0  0  3  0  0  0  0  0  0
  182.6800  175.6660  138.9850 C   0  0  0  0  0  2  0  0  0  0  0  0
  181.5770  175.5950  139.8380 O   0  0  0  0  0  1  0  0  0  0  0  0
  187.3290  178.0400  143.3300 O   0  0  0  0  0  0  0  0  0  0  0  0
  187.8990  176.7520  143.5440 C   0  0  0  0  0  2  0  0  0  0  0  0
  190.8390  176.9520  142.6030 C   0  0  0  0  0  0  0  0  0  0  0  0
  188.8830  176.8650  145.7080 O   0  0  0  0  0  0  0  0  0  0  0  0
  190.4190  176.9540  143.9720 N   0  0  0  0  0  2  0  0  0  0  0  0
  189.9130  176.7510  141.5390 N   0  0  0  0  0  1  0  0  0  0  0  0
  192.0560  177.1260  142.3340 O   0  0  0  0  0  0  0  0  0  0  0  0
  189.0780  176.8380  144.4640 C   0  0  0  0  0  0  0  0  0  0  0  0
  1 14  2  0  0  0  0
  1  8  1  0  0  0  0
  2  7  1  0  0  0  0
  3  2  2  0  0  0  0
  4 25  1  0  0  0  0
  4 11  2  0  0  0  0
  5 11  1  0  0  0  0
  8  5  2  0  0  0  0
  9  8  1  0  0  0  0
  9  7  2  0  0  0  0
 10 15  1  0  0  0  0
 10 13  1  0  0  0  0
 11  6  1  0  0  0  0
 12 13  2  0  0  0  0
 12  3  1  0  0  0  0
 13  9  1  0  0  0  0
 14  4  1  0  0  0  0
 15  1  1  0  0  0  0
 16 17  1  6  0  0  0
 16 15  1  0  0  0  0
 18 22  1  0  0  0  0
 19 18  2  0  0  0  0
 19 20  1  0  0  0  0
 20 21  1  0  0  0  0
 21 17  1  0  0  0  0
 22 23  1  1  0  0  0
 22 16  1  0  0  0  0
 23 24  1  0  0  0  0
 25 26  1  0  0  0  0
 26 32  1  0  0  0  0
 27 29  1  0  0  0  0
 29 32  1  0  0  0  0
 30 27  1  0  0  0  0
 31 27  2  0  0  0  0
 32 28  2  0  0  0  0
M  END
>  <MODEL>
8

>  <REMARK>
 VINA RESULT:      -8.9      3.525      7.087
  Name = 
  5 active torsions:
  status: ('A' for Active; 'I' for Inactive)
    1  A    between atoms: C_6  and  N_31
    2  A    between atoms: C_8  and  O_23
    3  A    between atoms: C_19  and  O_23
    4  A    between atoms: C_19  and  C_24
    5  A    between atoms: C_27  and  C_32
                            x       y       z     vdW  Elec       q    Type
                         _______ _______ _______ _____ _____    ______ ____

>  <TORSDO>
F 5

$$$$
=
 OpenBabel11052416493D

 32 35  0  0  1  0  0  0  0  0999 V2000
  186.4050  178.1560  141.7690 C   0  0  0  0  0  0  0  0  0  0  0  0
  181.5520  178.8990  142.0090 C   0  0  0  0  0  3  0  0  0  0  0  0
  181.5260  179.2020  140.6460 C   0  0  0  0  0  3  0  0  0  0  0  0
  187.6950  177.6120  143.7700 C   0  0  0  0  0  0  0  0  0  0  0  0
  185.3370  178.1410  143.9500 C   0  0  0  0  0  3  0  0  0  0  0  0
  186.6050  177.6290  145.9290 O   0  0  0  0  0  1  0  0  0  0  0  0
  182.7660  178.6210  142.6400 C   0  0  0  0  0  3  0  0  0  0  0  0
  185.2550  178.3220  142.5620 C   0  0  0  0  0  0  0  0  0  0  0  0
  183.9670  178.6450  141.9130 C   0  0  0  0  0  0  0  0  0  0  0  0
  185.1990  179.0640  139.7380 C   0  0  0  0  0  2  0  0  0  0  0  0
  186.5480  177.7960  144.5520 C   0  0  0  0  0  0  0  0  0  0  0  0
  182.7170  179.2310  139.9140 C   0  0  0  0  0  3  0  0  0  0  0  0
  183.9350  178.9430  140.5370 C   0  0  0  0  0  0  0  0  0  0  0  0
  187.6170  177.7940  142.3810 C   0  0  0  0  0  3  0  0  0  0  0  0
  186.3220  178.3340  140.3410 N   0  0  0  0  0  0  0  0  0  0  0  0
  187.4300  177.9220  139.4790 C   0  0  2  0  0  3  0  0  0  0  0  0
  188.7180  178.6420  139.8810 C   0  0  0  0  0  2  0  0  0  0  0  0
  188.1440  178.5010  137.0330 C   0  0  0  0  0  3  0  0  0  0  0  0
  189.4110  178.0690  137.0860 C   0  0  0  0  0  3  0  0  0  0  0  0
  189.9020  177.1440  138.1570 C   0  0  0  0  0  2  0  0  0  0  0  0
  189.9680  177.8290  139.5250 C   0  0  0  0  0  2  0  0  0  0  0  0
  187.0430  178.1010  137.9950 C   0  0  1  0  0  3  0  0  0  0  0  0
  186.2580  176.9010  137.4810 C   0  0  0  0  0  2  0  0  0  0  0  0
  186.1530  176.9360  136.0890 O   0  0  0  0  0  1  0  0  0  0  0  0
  188.8950  177.2540  144.3960 O   0  0  0  0  0  0  0  0  0  0  0  0
  189.8240  178.2010  144.9150 C   0  0  0  0  0  2  0  0  0  0  0  0
  191.3490  176.6190  147.0930 C   0  0  0  0  0  0  0  0  0  0  0  0
  191.8410  177.9010  143.6880 O   0  0  0  0  0  0  0  0  0  0  0  0
  191.8790  176.9530  145.8050 N   0  0  0  0  0  2  0  0  0  0  0  0
  190.0750  177.0920  147.5200 N   0  0  0  0  0  1  0  0  0  0  0  0
  192.0280  175.8970  147.8680 O   0  0  0  0  0  0  0  0  0  0  0  0
  191.2290  177.7040  144.7720 C   0  0  0  0  0  0  0  0  0  0  0  0
  1 14  2  0  0  0  0
  1  8  1  0  0  0  0
  2  7  1  0  0  0  0
  3  2  2  0  0  0  0
  4 25  1  0  0  0  0
  4 11  2  0  0  0  0
  5 11  1  0  0  0  0
  8  5  2  0  0  0  0
  9  8  1  0  0  0  0
  9  7  2  0  0  0  0
 10 15  1  0  0  0  0
 10 13  1  0  0  0  0
 11  6  1  0  0  0  0
 12 13  2  0  0  0  0
 12  3  1  0  0  0  0
 13  9  1  0  0  0  0
 14  4  1  0  0  0  0
 15  1  1  0  0  0  0
 16 17  1  1  0  0  0
 16 15  1  0  0  0  0
 18 19  2  0  0  0  0
 18 22  1  0  0  0  0
 19 20  1  0  0  0  0
 20 21  1  0  0  0  0
 21 17  1  0  0  0  0
 22 23  1  6  0  0  0
 22 16  1  0  0  0  0
 24 23  1  0  0  0  0
 25 26  1  0  0  0  0
 27 30  1  0  0  0  0
 27 31  2  0  0  0  0
 28 32  2  0  0  0  0
 29 27  1  0  0  0  0
 32 26  1  0  0  0  0
 32 29  1  0  0  0  0
M  END
>  <MODEL>
9

>  <REMARK>
 VINA RESULT:      -8.7      2.875      6.782
  Name = 
  5 active torsions:
  status: ('A' for Active; 'I' for Inactive)
    1  A    between atoms: C_6  and  N_31
    2  A    between atoms: C_8  and  O_23
    3  A    between atoms: C_19  and  O_23
    4  A    between atoms: C_19  and  C_24
    5  A    between atoms: C_27  and  C_32
                            x       y       z     vdW  Elec       q    Type
                         _______ _______ _______ _____ _____    ______ ____

>  <TORSDO>
F 5

$$$$
