=
 OpenBabel11052416533D

 32 36  0  0  0  0  0  0  0  0999 V2000
  186.4140  178.2080  143.0300 C   0  0  0  0  0  0  0  0  0  0  0  0
  189.4960  176.9660  139.2390 S   0  0  0  0  0  0  0  0  0  0  0  0
  190.5870  176.6560  140.6920 C   0  0  0  0  0  2  0  0  0  0  0  0
  187.0810  177.6970  145.3920 C   0  0  0  0  0  0  0  0  0  0  0  0
  188.1100  177.3780  146.2750 C   0  0  0  0  0  0  0  0  0  0  0  0
  184.0970  178.7000  142.4100 C   0  0  0  0  0  0  0  0  0  0  0  0
  185.8210  178.6950  140.7130 C   0  0  0  0  0  3  0  0  0  0  0  0
  190.1890  176.9120  147.0160 C   0  0  0  0  0  0  0  0  0  0  0  0
  188.5680  178.4170  139.8630 C   0  0  0  0  0  2  0  0  0  0  0  0
  186.7940  178.3760  141.6720 C   0  0  0  0  0  0  0  0  0  0  0  0
  188.1340  178.2200  141.2870 C   0  0  0  0  0  0  0  0  0  0  0  0
  188.7600  177.7310  143.5880 C   0  0  0  0  0  0  0  0  0  0  0  0
  189.4560  176.8500  148.0810 N   0  0  0  0  0  0  0  0  0  0  0  0
  184.4800  178.8520  141.0670 C   0  0  0  0  0  0  0  0  0  0  0  0
  188.0560  177.1350  147.7470 C   0  0  0  0  0  2  0  0  0  0  0  0
  190.5240  177.7370  141.7650 C   0  0  0  0  0  2  0  0  0  0  0  0
  189.1090  177.9030  142.2380 C   0  0  0  0  0  0  0  0  0  0  0  0
  189.7610  177.4070  144.5270 C   0  0  0  0  0  3  0  0  0  0  0  0
  185.0600  178.3760  143.3680 C   0  0  0  0  0  3  0  0  0  0  0  0
  185.7890  177.8220  145.8920 O   0  0  0  0  0  1  0  0  0  0  0  0
  191.6570  176.6700  147.0240 C   0  0  0  0  0  1  0  0  0  0  0  0
  187.3950  177.8820  144.0080 C   0  0  0  0  0  0  0  0  0  0  0  0
  189.3970  177.2400  145.8540 C   0  0  0  0  0  0  0  0  0  0  0  0
  182.5840  178.8420  144.3540 C   0  0  0  0  0  1  0  0  0  0  0  0
  182.6750  178.8500  142.8400 C   0  0  0  0  0  2  0  0  0  0  0  0
  183.4920  179.2170  140.0060 C   0  0  0  0  0  2  0  0  0  0  0  0
  183.0620  178.0250  139.2920 N   0  0  0  0  0  2  0  0  0  0  0  0
  183.4720  178.1850  137.9080 C   0  0  0  0  0  2  0  0  0  0  0  0
  185.8070  177.4590  137.3100 C   0  0  0  0  0  0  0  0  0  0  0  0
  184.4370  177.1540  137.5670 N   0  0  0  0  0  2  0  0  0  0  0  0
  186.6900  176.4370  136.9900 O   0  0  0  0  0  0  0  0  0  0  0  0
  186.2230  178.6470  137.3710 O   0  0  0  0  0  1  0  0  0  0  0  0
  1 19  1  0  0  0  0
  1 22  1  0  0  0  0
  2  9  1  0  0  0  0
  2  3  1  0  0  0  0
  3 16  1  0  0  0  0
  4 20  1  0  0  0  0
  4  5  1  0  0  0  0
  5 15  1  0  0  0  0
  6 25  1  0  0  0  0
  6 19  2  0  0  0  0
  7 14  2  0  0  0  0
  7 10  1  0  0  0  0
  8 21  1  0  0  0  0
  8 13  2  0  0  0  0
  9 11  1  0  0  0  0
 10  1  2  0  0  0  0
 11 10  1  0  0  0  0
 11 17  2  0  0  0  0
 12 22  1  0  0  0  0
 12 18  2  0  0  0  0
 14  6  1  0  0  0  0
 15 13  1  0  0  0  0
 16 17  1  0  0  0  0
 17 12  1  0  0  0  0
 18 23  1  0  0  0  0
 22  4  2  0  0  0  0
 23  5  2  0  0  0  0
 23  8  1  0  0  0  0
 25 24  1  0  0  0  0
 26 14  1  0  0  0  0
 27 26  1  0  0  0  0
 28 27  1  0  0  0  0
 29 32  1  0  0  0  0
 29 30  1  0  0  0  0
 30 28  1  0  0  0  0
 31 29  2  0  0  0  0
M  END
>  <MODEL>
1

>  <REMARK>
 VINA RESULT:      -9.7      0.000      0.000
  Name = 
  5 active torsions:
  status: ('A' for Active; 'I' for Inactive)
    1  A    between atoms: N_2  and  C_12
    2  A    between atoms: N_2  and  C_24
    3  A    between atoms: C_8  and  C_23
    4  A    between atoms: N_10  and  C_24
    5  A    between atoms: C_12  and  C_21
                            x       y       z     vdW  Elec       q    Type
                         _______ _______ _______ _____ _____    ______ ____

>  <TORSDO>
F 5

$$$$
=
 OpenBabel11052416533D

 32 36  0  0  0  0  0  0  0  0999 V2000
  186.3880  178.2120  142.8440 C   0  0  0  0  0  0  0  0  0  0  0  0
  189.3310  176.9630  138.9460 S   0  0  0  0  0  0  0  0  0  0  0  0
  190.4690  176.6430  140.3590 C   0  0  0  0  0  2  0  0  0  0  0  0
  187.1340  177.6920  145.1810 C   0  0  0  0  0  0  0  0  0  0  0  0
  188.1910  177.3650  146.0270 C   0  0  0  0  0  0  0  0  0  0  0  0
  184.0540  178.7180  142.3050 C   0  0  0  0  0  0  0  0  0  0  0  0
  185.7180  178.7090  140.5500 C   0  0  0  0  0  3  0  0  0  0  0  0
  190.2920  176.8840  146.6940 C   0  0  0  0  0  0  0  0  0  0  0  0
  188.4330  178.4170  139.6050 C   0  0  0  0  0  2  0  0  0  0  0  0
  186.7220  178.3810  141.4750 C   0  0  0  0  0  0  0  0  0  0  0  0
  188.0480  178.2190  141.0430 C   0  0  0  0  0  0  0  0  0  0  0  0
  188.7500  177.7210  143.3200 C   0  0  0  0  0  0  0  0  0  0  0  0
  189.5950  176.8240  147.7840 N   0  0  0  0  0  0  0  0  0  0  0  0
  184.3910  178.8710  140.9510 C   0  0  0  0  0  0  0  0  0  0  0  0
  188.1870  177.1190  147.4990 C   0  0  0  0  0  2  0  0  0  0  0  0
  190.4500  177.7210  141.4370 C   0  0  0  0  0  2  0  0  0  0  0  0
  189.0530  177.8940  141.9590 C   0  0  0  0  0  0  0  0  0  0  0  0
  189.7800  177.3890  144.2230 C   0  0  0  0  0  3  0  0  0  0  0  0
  185.0480  178.3860  143.2290 C   0  0  0  0  0  3  0  0  0  0  0  0
  185.8600  177.8230  145.7250 O   0  0  0  0  0  1  0  0  0  0  0  0
  191.7580  176.6340  146.6510 C   0  0  0  0  0  1  0  0  0  0  0  0
  187.4000  177.8780  143.7870 C   0  0  0  0  0  0  0  0  0  0  0  0
  189.4620  177.2200  145.5610 C   0  0  0  0  0  0  0  0  0  0  0  0
  182.6070  178.8380  144.3010 C   0  0  0  0  0  1  0  0  0  0  0  0
  182.6490  178.8760  142.7850 C   0  0  0  0  0  2  0  0  0  0  0  0
  183.3700  179.2450  139.9250 C   0  0  0  0  0  2  0  0  0  0  0  0
  183.8640  178.9370  138.5930 N   0  0  0  0  0  2  0  0  0  0  0  0
  182.8310  178.1690  137.9200 C   0  0  0  0  0  2  0  0  0  0  0  0
  183.2430  175.7310  138.3920 C   0  0  0  0  0  0  0  0  0  0  0  0
  183.3620  176.8710  137.5420 N   0  0  0  0  0  2  0  0  0  0  0  0
  183.7660  174.5120  137.9840 O   0  0  0  0  0  0  0  0  0  0  0  0
  182.6680  175.8210  139.5100 O   0  0  0  0  0  1  0  0  0  0  0  0
  1 19  1  0  0  0  0
  1 22  1  0  0  0  0
  2  9  1  0  0  0  0
  2  3  1  0  0  0  0
  3 16  1  0  0  0  0
  4 20  1  0  0  0  0
  4  5  1  0  0  0  0
  5 15  1  0  0  0  0
  6 25  1  0  0  0  0
  6 19  2  0  0  0  0
  7 14  2  0  0  0  0
  7 10  1  0  0  0  0
  8 13  2  0  0  0  0
  9 11  1  0  0  0  0
 10  1  2  0  0  0  0
 11 10  1  0  0  0  0
 11 17  2  0  0  0  0
 12 22  1  0  0  0  0
 12 18  2  0  0  0  0
 14  6  1  0  0  0  0
 15 13  1  0  0  0  0
 16 17  1  0  0  0  0
 17 12  1  0  0  0  0
 18 23  1  0  0  0  0
 21  8  1  0  0  0  0
 22  4  2  0  0  0  0
 23  5  2  0  0  0  0
 23  8  1  0  0  0  0
 25 24  1  0  0  0  0
 26 14  1  0  0  0  0
 27 26  1  0  0  0  0
 28 27  1  0  0  0  0
 29 32  1  0  0  0  0
 30 28  1  0  0  0  0
 30 29  1  0  0  0  0
 31 29  2  0  0  0  0
M  END
>  <MODEL>
2

>  <REMARK>
 VINA RESULT:      -9.7      1.272      1.305
  Name = 
  5 active torsions:
  status: ('A' for Active; 'I' for Inactive)
    1  A    between atoms: N_2  and  C_12
    2  A    between atoms: N_2  and  C_24
    3  A    between atoms: C_8  and  C_23
    4  A    between atoms: N_10  and  C_24
    5  A    between atoms: C_12  and  C_21
                            x       y       z     vdW  Elec       q    Type
                         _______ _______ _______ _____ _____    ______ ____

>  <TORSDO>
F 5

$$$$
=
 OpenBabel11052416533D

 32 36  0  0  0  0  0  0  0  0999 V2000
  186.3290  178.2170  142.6830 C   0  0  0  0  0  0  0  0  0  0  0  0
  189.4440  176.9510  138.9270 S   0  0  0  0  0  0  0  0  0  0  0  0
  190.5270  176.6660  140.3900 C   0  0  0  0  0  2  0  0  0  0  0  0
  186.9850  177.7390  145.0560 C   0  0  0  0  0  0  0  0  0  0  0  0
  188.0110  177.4380  145.9490 C   0  0  0  0  0  0  0  0  0  0  0  0
  184.0130  178.6850  142.0430 C   0  0  0  0  0  0  0  0  0  0  0  0
  185.7470  178.6720  140.3570 C   0  0  0  0  0  3  0  0  0  0  0  0
  190.0880  176.9950  146.7070 C   0  0  0  0  0  0  0  0  0  0  0  0
  188.5010  178.4020  139.5270 C   0  0  0  0  0  2  0  0  0  0  0  0
  186.7160  178.3700  141.3260 C   0  0  0  0  0  0  0  0  0  0  0  0
  188.0600  178.2190  140.9510 C   0  0  0  0  0  0  0  0  0  0  0  0
  188.6750  177.7630  143.2620 C   0  0  0  0  0  0  0  0  0  0  0  0
  189.3490  176.9410  147.7690 N   0  0  0  0  0  0  0  0  0  0  0  0
  184.4030  178.8230  140.7010 C   0  0  0  0  0  0  0  0  0  0  0  0
  187.9490  177.2130  147.4230 C   0  0  0  0  0  2  0  0  0  0  0  0
  190.4510  177.7590  141.4490 C   0  0  0  0  0  2  0  0  0  0  0  0
  189.0320  177.9210  141.9120 C   0  0  0  0  0  0  0  0  0  0  0  0
  189.6720  177.4570  144.2110 C   0  0  0  0  0  3  0  0  0  0  0  0
  184.9720  178.3790  143.0110 C   0  0  0  0  0  3  0  0  0  0  0  0
  185.6890  177.8610  145.5460 O   0  0  0  0  0  1  0  0  0  0  0  0
  191.5580  176.7630  146.7280 C   0  0  0  0  0  1  0  0  0  0  0  0
  187.3060  177.9090  143.6710 C   0  0  0  0  0  0  0  0  0  0  0  0
  189.3020  177.3040  145.5370 C   0  0  0  0  0  0  0  0  0  0  0  0
  182.4950  178.9260  143.9740 C   0  0  0  0  0  1  0  0  0  0  0  0
  182.5870  178.8300  142.4630 C   0  0  0  0  0  2  0  0  0  0  0  0
  183.4200  179.1680  139.6290 C   0  0  0  0  0  2  0  0  0  0  0  0
  183.7580  180.4520  139.0360 N   0  0  0  0  0  2  0  0  0  0  0  0
  182.5070  181.1310  138.7470 C   0  0  0  0  0  2  0  0  0  0  0  0
  181.8290  183.3270  137.7190 C   0  0  0  0  0  0  0  0  0  0  0  0
  182.7760  182.5210  138.4190 N   0  0  0  0  0  2  0  0  0  0  0  0
  182.1340  184.6510  137.4320 O   0  0  0  0  0  1  0  0  0  0  0  0
  180.7210  182.8500  137.3590 O   0  0  0  0  0  0  0  0  0  0  0  0
  1 19  1  0  0  0  0
  1 22  1  0  0  0  0
  2  9  1  0  0  0  0
  2  3  1  0  0  0  0
  3 16  1  0  0  0  0
  4 20  1  0  0  0  0
  4  5  1  0  0  0  0
  5 15  1  0  0  0  0
  6 25  1  0  0  0  0
  6 19  2  0  0  0  0
  7 14  2  0  0  0  0
  7 10  1  0  0  0  0
  8 21  1  0  0  0  0
  8 13  2  0  0  0  0
  9 11  1  0  0  0  0
 10  1  2  0  0  0  0
 11 10  1  0  0  0  0
 11 17  2  0  0  0  0
 12 22  1  0  0  0  0
 12 18  2  0  0  0  0
 14  6  1  0  0  0  0
 15 13  1  0  0  0  0
 16 17  1  0  0  0  0
 17 12  1  0  0  0  0
 18 23  1  0  0  0  0
 22  4  2  0  0  0  0
 23  5  2  0  0  0  0
 23  8  1  0  0  0  0
 25 24  1  0  0  0  0
 26 14  1  0  0  0  0
 27 26  1  0  0  0  0
 28 27  1  0  0  0  0
 29 30  1  0  0  0  0
 30 28  1  0  0  0  0
 31 29  1  0  0  0  0
 32 29  2  0  0  0  0
M  END
>  <MODEL>
3

>  <REMARK>
 VINA RESULT:      -9.7      2.254      2.733
  Name = 
  5 active torsions:
  status: ('A' for Active; 'I' for Inactive)
    1  A    between atoms: N_2  and  C_12
    2  A    between atoms: N_2  and  C_24
    3  A    between atoms: C_8  and  C_23
    4  A    between atoms: N_10  and  C_24
    5  A    between atoms: C_12  and  C_21
                            x       y       z     vdW  Elec       q    Type
                         _______ _______ _______ _____ _____    ______ ____

>  <TORSDO>
F 5

$$$$
=
 OpenBabel11052416533D

 32 36  0  0  0  0  0  0  0  0999 V2000
  186.3470  178.2430  143.0290 C   0  0  0  0  0  0  0  0  0  0  0  0
  189.4530  176.9830  139.2630 S   0  0  0  0  0  0  0  0  0  0  0  0
  190.5370  176.6870  140.7240 C   0  0  0  0  0  2  0  0  0  0  0  0
  187.0040  177.7510  145.3990 C   0  0  0  0  0  0  0  0  0  0  0  0
  188.0290  177.4420  146.2890 C   0  0  0  0  0  0  0  0  0  0  0  0
  184.0320  178.7230  142.3940 C   0  0  0  0  0  0  0  0  0  0  0  0
  185.7640  178.7110  140.7060 C   0  0  0  0  0  3  0  0  0  0  0  0
  190.1060  176.9870  147.0430 C   0  0  0  0  0  0  0  0  0  0  0  0
  188.5170  178.4350  139.8710 C   0  0  0  0  0  2  0  0  0  0  0  0
  186.7340  178.4020  141.6730 C   0  0  0  0  0  0  0  0  0  0  0  0
  188.0770  178.2470  141.2950 C   0  0  0  0  0  0  0  0  0  0  0  0
  188.6920  177.7770  143.6030 C   0  0  0  0  0  0  0  0  0  0  0  0
  189.3680  176.9310  148.1060 N   0  0  0  0  0  0  0  0  0  0  0  0
  184.4220  178.8660  141.0520 C   0  0  0  0  0  0  0  0  0  0  0  0
  187.9690  177.2100  147.7620 C   0  0  0  0  0  2  0  0  0  0  0  0
  190.4660  177.7750  141.7890 C   0  0  0  0  0  2  0  0  0  0  0  0
  189.0480  177.9400  142.2530 C   0  0  0  0  0  0  0  0  0  0  0  0
  189.6890  177.4630  144.5500 C   0  0  0  0  0  3  0  0  0  0  0  0
  184.9910  178.4090  143.3590 C   0  0  0  0  0  3  0  0  0  0  0  0
  185.7090  177.8760  145.8910 O   0  0  0  0  0  1  0  0  0  0  0  0
  191.5750  176.7500  147.0610 C   0  0  0  0  0  1  0  0  0  0  0  0
  187.3240  177.9270  144.0150 C   0  0  0  0  0  0  0  0  0  0  0  0
  189.3190  177.3050  145.8760 C   0  0  0  0  0  0  0  0  0  0  0  0
  182.5140  178.9320  144.3290 C   0  0  0  0  0  1  0  0  0  0  0  0
  182.6070  178.8720  142.8160 C   0  0  0  0  0  2  0  0  0  0  0  0
  183.4380  179.2200  139.9830 C   0  0  0  0  0  2  0  0  0  0  0  0
  183.0560  178.0290  139.2410 N   0  0  0  0  0  2  0  0  0  0  0  0
  181.6190  178.0920  139.0430 C   0  0  0  0  0  2  0  0  0  0  0  0
  179.9070  177.6120  140.8250 C   0  0  0  0  0  0  0  0  0  0  0  0
  180.9630  177.1830  139.9680 N   0  0  0  0  0  2  0  0  0  0  0  0
  179.3110  176.7030  141.6890 O   0  0  0  0  0  1  0  0  0  0  0  0
  179.5100  178.8070  140.8070 O   0  0  0  0  0  0  0  0  0  0  0  0
  1 19  1  0  0  0  0
  1 22  1  0  0  0  0
  2  9  1  0  0  0  0
  2  3  1  0  0  0  0
  3 16  1  0  0  0  0
  4 20  1  0  0  0  0
  4  5  1  0  0  0  0
  5 15  1  0  0  0  0
  6 25  1  0  0  0  0
  6 19  2  0  0  0  0
  7 14  2  0  0  0  0
  7 10  1  0  0  0  0
  8 21  1  0  0  0  0
  8 13  2  0  0  0  0
  9 11  1  0  0  0  0
 10  1  2  0  0  0  0
 11 10  1  0  0  0  0
 11 17  2  0  0  0  0
 12 22  1  0  0  0  0
 12 18  2  0  0  0  0
 14  6  1  0  0  0  0
 15 13  1  0  0  0  0
 16 17  1  0  0  0  0
 17 12  1  0  0  0  0
 18 23  1  0  0  0  0
 22  4  2  0  0  0  0
 23  5  2  0  0  0  0
 23  8  1  0  0  0  0
 25 24  1  0  0  0  0
 26 14  1  0  0  0  0
 27 26  1  0  0  0  0
 28 27  1  0  0  0  0
 28 30  1  0  0  0  0
 29 31  1  0  0  0  0
 30 29  1  0  0  0  0
 32 29  2  0  0  0  0
M  END
>  <MODEL>
4

>  <REMARK>
 VINA RESULT:      -9.5      2.181      2.522
  Name = 
  5 active torsions:
  status: ('A' for Active; 'I' for Inactive)
    1  A    between atoms: N_2  and  C_12
    2  A    between atoms: N_2  and  C_24
    3  A    between atoms: C_8  and  C_23
    4  A    between atoms: N_10  and  C_24
    5  A    between atoms: C_12  and  C_21
                            x       y       z     vdW  Elec       q    Type
                         _______ _______ _______ _____ _____    ______ ____

>  <TORSDO>
F 5

$$$$
=
 OpenBabel11052416533D

 32 36  0  0  0  0  0  0  0  0999 V2000
  186.8000  178.0630  142.6870 C   0  0  0  0  0  0  0  0  0  0  0  0
  191.6760  177.6800  143.9100 S   0  0  0  0  0  0  0  0  0  0  0  0
  191.7690  177.5980  142.0710 C   0  0  0  0  0  2  0  0  0  0  0  0
  186.1420  178.3950  140.2900 C   0  0  0  0  0  0  0  0  0  0  0  0
  186.5160  178.3120  138.9520 C   0  0  0  0  0  0  0  0  0  0  0  0
  185.2660  178.5400  144.5350 C   0  0  0  0  0  0  0  0  0  0  0  0
  187.4950  177.7250  145.0020 C   0  0  0  0  0  3  0  0  0  0  0  0
  187.7980  177.9190  137.1370 C   0  0  0  0  0  0  0  0  0  0  0  0
  190.0980  176.7860  144.1720 C   0  0  0  0  0  2  0  0  0  0  0  0
  187.7850  177.6700  143.6300 C   0  0  0  0  0  0  0  0  0  0  0  0
  189.0460  177.2320  143.1970 C   0  0  0  0  0  0  0  0  0  0  0  0
  188.3840  177.5570  140.8770 C   0  0  0  0  0  0  0  0  0  0  0  0
  186.6780  178.3450  136.6440 N   0  0  0  0  0  0  0  0  0  0  0  0
  186.2510  178.1610  145.4610 C   0  0  0  0  0  0  0  0  0  0  0  0
  185.7330  178.6450  137.7250 C   0  0  0  0  0  3  0  0  0  0  0  0
  190.7110  176.7090  141.4280 C   0  0  0  0  0  2  0  0  0  0  0  0
  189.3420  177.1740  141.8310 C   0  0  0  0  0  0  0  0  0  0  0  0
  188.7080  177.4940  139.5060 C   0  0  0  0  0  3  0  0  0  0  0  0
  185.5510  178.4940  143.1690 C   0  0  0  0  0  2  0  0  0  0  0  0
  184.8630  178.8480  140.5980 O   0  0  0  0  0  1  0  0  0  0  0  0
  188.9610  177.5300  136.2950 C   0  0  0  0  0  1  0  0  0  0  0  0
  187.0870  178.0130  141.2950 C   0  0  0  0  0  0  0  0  0  0  0  0
  187.7520  177.8780  138.5790 C   0  0  0  0  0  0  0  0  0  0  0  0
  182.9310  178.9160  143.8300 C   0  0  0  0  0  1  0  0  0  0  0  0
  183.9220  179.0200  144.9740 C   0  0  0  0  0  2  0  0  0  0  0  0
  185.9910  178.1740  146.9340 C   0  0  0  0  0  2  0  0  0  0  0  0
  186.9980  178.9740  147.6120 N   0  0  0  0  0  2  0  0  0  0  0  0
  187.7180  178.0860  148.5080 C   0  0  0  0  0  2  0  0  0  0  0  0
  189.9610  177.2530  147.7260 C   0  0  0  0  0  0  0  0  0  0  0  0
  189.1470  178.2630  148.3200 N   0  0  0  0  0  2  0  0  0  0  0  0
  191.3220  177.4720  147.5680 O   0  0  0  0  0  1  0  0  0  0  0  0
  189.4560  176.1640  147.3450 O   0  0  0  0  0  0  0  0  0  0  0  0
  1 19  1  0  0  0  0
  1 10  1  0  0  0  0
  2  9  1  0  0  0  0
  3  2  1  0  0  0  0
  4 20  1  0  0  0  0
  4 22  1  0  0  0  0
  5  4  2  0  0  0  0
  6 25  1  0  0  0  0
  6 14  2  0  0  0  0
  7 14  1  0  0  0  0
  8 23  2  0  0  0  0
 10  7  2  0  0  0  0
 11 10  1  0  0  0  0
 11  9  1  0  0  0  0
 12 22  1  0  0  0  0
 12 17  1  0  0  0  0
 13  8  1  0  0  0  0
 13 15  2  0  0  0  0
 14 26  1  0  0  0  0
 15  5  1  0  0  0  0
 16 17  1  0  0  0  0
 16  3  1  0  0  0  0
 17 11  2  0  0  0  0
 18 12  2  0  0  0  0
 19  6  1  0  0  0  0
 21  8  1  0  0  0  0
 22  1  2  0  0  0  0
 23  5  1  0  0  0  0
 23 18  1  0  0  0  0
 24 25  1  0  0  0  0
 26 27  1  0  0  0  0
 27 28  1  0  0  0  0
 29 30  1  0  0  0  0
 30 28  1  0  0  0  0
 31 29  1  0  0  0  0
 32 29  2  0  0  0  0
M  END
>  <MODEL>
5

>  <REMARK>
 VINA RESULT:      -8.9      2.189      7.072
  Name = 
  5 active torsions:
  status: ('A' for Active; 'I' for Inactive)
    1  A    between atoms: N_2  and  C_12
    2  A    between atoms: N_2  and  C_24
    3  A    between atoms: C_8  and  C_23
    4  A    between atoms: N_10  and  C_24
    5  A    between atoms: C_12  and  C_21
                            x       y       z     vdW  Elec       q    Type
                         _______ _______ _______ _____ _____    ______ ____

>  <TORSDO>
F 5

$$$$
=
 OpenBabel11052416533D

 32 36  0  0  0  0  0  0  0  0999 V2000
  187.8640  177.7270  144.4960 C   0  0  0  0  0  0  0  0  0  0  0  0
  190.2440  178.1220  140.0690 S   0  0  0  0  0  0  0  0  0  0  0  0
  188.4980  178.4140  139.5550 C   0  0  0  0  0  2  0  0  0  0  0  0
  185.4460  178.3680  144.6690 C   0  0  0  0  0  0  0  0  0  0  0  0
  184.2510  178.6200  143.9990 C   0  0  0  0  0  0  0  0  0  0  0  0
  189.2990  177.5180  146.4690 C   0  0  0  0  0  0  0  0  0  0  0  0
  190.2130  177.1020  144.2680 C   0  0  0  0  0  3  0  0  0  0  0  0
  182.7950  178.8510  142.2920 C   0  0  0  0  0  0  0  0  0  0  0  0
  189.9660  176.8920  141.3970 C   0  0  0  0  0  2  0  0  0  0  0  0
  188.9680  177.3710  143.6780 C   0  0  0  0  0  0  0  0  0  0  0  0
  188.8210  177.2910  142.2840 C   0  0  0  0  0  0  0  0  0  0  0  0
  186.4750  177.9100  142.4760 C   0  0  0  0  0  0  0  0  0  0  0  0
  182.0910  179.1250  143.3440 N   0  0  0  0  0  0  0  0  0  0  0  0
  190.3880  177.1790  145.6510 C   0  0  0  0  0  0  0  0  0  0  0  0
  182.9200  179.0140  144.5490 C   0  0  0  0  0  2  0  0  0  0  0  0
  187.4900  177.4670  140.1940 C   0  0  0  0  0  2  0  0  0  0  0  0
  187.5830  177.5560  141.6890 C   0  0  0  0  0  0  0  0  0  0  0  0
  185.2390  178.1780  141.8520 C   0  0  0  0  0  3  0  0  0  0  0  0
  188.0600  177.7920  145.8860 C   0  0  0  0  0  3  0  0  0  0  0  0
  185.4700  178.4830  146.0550 O   0  0  0  0  0  1  0  0  0  0  0  0
  182.2380  178.8770  140.9120 C   0  0  0  0  0  1  0  0  0  0  0  0
  186.6000  178.0030  143.9040 C   0  0  0  0  0  0  0  0  0  0  0  0
  184.1570  178.5270  142.6440 C   0  0  0  0  0  0  0  0  0  0  0  0
  188.2030  178.2750  148.5470 C   0  0  0  0  0  1  0  0  0  0  0  0
  189.4350  177.6200  147.9530 C   0  0  0  0  0  2  0  0  0  0  0  0
  191.7310  176.8570  146.2250 C   0  0  0  0  0  2  0  0  0  0  0  0
  191.8760  175.4190  146.3820 N   0  0  0  0  0  2  0  0  0  0  0  0
  192.3070  175.1790  147.7480 C   0  0  0  0  0  2  0  0  0  0  0  0
  193.4600  176.4350  149.5990 C   0  0  0  0  0  0  0  0  0  0  0  0
  192.9270  176.3820  148.2770 N   0  0  0  0  0  2  0  0  0  0  0  0
  194.0450  177.6080  150.0570 O   0  0  0  0  0  0  0  0  0  0  0  0
  193.4040  175.4300  150.3550 O   0  0  0  0  0  1  0  0  0  0  0  0
  1 19  1  0  0  0  0
  2  9  1  0  0  0  0
  3  2  1  0  0  0  0
  3 16  1  0  0  0  0
  4 20  1  0  0  0  0
  5 15  1  0  0  0  0
  5  4  1  0  0  0  0
  6 25  1  0  0  0  0
  7 14  2  0  0  0  0
  8 23  1  0  0  0  0
  8 13  2  0  0  0  0
  9 11  1  0  0  0  0
 10  7  1  0  0  0  0
 10  1  2  0  0  0  0
 11 10  1  0  0  0  0
 12 22  1  0  0  0  0
 13 15  1  0  0  0  0
 14 26  1  0  0  0  0
 14  6  1  0  0  0  0
 16 17  1  0  0  0  0
 17 11  2  0  0  0  0
 17 12  1  0  0  0  0
 18 12  2  0  0  0  0
 18 23  1  0  0  0  0
 19  6  2  0  0  0  0
 21  8  1  0  0  0  0
 22  1  1  0  0  0  0
 22  4  2  0  0  0  0
 23  5  2  0  0  0  0
 25 24  1  0  0  0  0
 26 27  1  0  0  0  0
 27 28  1  0  0  0  0
 28 30  1  0  0  0  0
 29 31  2  0  0  0  0
 29 32  1  0  0  0  0
 30 29  1  0  0  0  0
M  END
>  <MODEL>
6

>  <REMARK>
 VINA RESULT:      -8.5      2.964      7.995
  Name = 
  5 active torsions:
  status: ('A' for Active; 'I' for Inactive)
    1  A    between atoms: N_2  and  C_12
    2  A    between atoms: N_2  and  C_24
    3  A    between atoms: C_8  and  C_23
    4  A    between atoms: N_10  and  C_24
    5  A    between atoms: C_12  and  C_21
                            x       y       z     vdW  Elec       q    Type
                         _______ _______ _______ _____ _____    ______ ____

>  <TORSDO>
F 5

$$$$
=
 OpenBabel11052416533D

 32 36  0  0  0  0  0  0  0  0999 V2000
  187.6690  178.0540  141.0420 C   0  0  0  0  0  0  0  0  0  0  0  0
  191.6530  175.9820  143.3330 S   0  0  0  0  0  0  0  0  0  0  0  0
  190.5540  176.3140  144.7740 C   0  0  0  0  0  2  0  0  0  0  0  0
  185.5600  178.4550  142.3380 C   0  0  0  0  0  0  0  0  0  0  0  0
  184.9600  178.5780  143.5890 C   0  0  0  0  0  0  0  0  0  0  0  0
  187.7060  178.0270  138.5940 C   0  0  0  0  0  0  0  0  0  0  0  0
  189.7500  177.6550  139.8320 C   0  0  0  0  0  2  0  0  0  0  0  0
  184.7510  178.6410  145.8340 C   0  0  0  0  0  0  0  0  0  0  0  0
  191.2400  177.4360  142.2980 C   0  0  0  0  0  2  0  0  0  0  0  0
  189.0650  177.7970  141.0480 C   0  0  0  0  0  0  0  0  0  0  0  0
  189.7580  177.6820  142.2630 C   0  0  0  0  0  0  0  0  0  0  0  0
  187.7000  178.0780  143.5000 C   0  0  0  0  0  0  0  0  0  0  0  0
  183.5500  178.8560  145.4010 N   0  0  0  0  0  0  0  0  0  0  0  0
  189.0840  177.7610  138.6100 C   0  0  0  0  0  0  0  0  0  0  0  0
  183.5320  178.8420  143.9350 C   0  0  0  0  0  3  0  0  0  0  0  0
  189.8750  177.6770  144.7450 C   0  0  0  0  0  2  0  0  0  0  0  0
  189.0820  177.8240  143.4780 C   0  0  0  0  0  0  0  0  0  0  0  0
  187.0400  178.2120  144.7380 C   0  0  0  0  0  3  0  0  0  0  0  0
  187.0170  178.1630  139.8010 C   0  0  0  0  0  3  0  0  0  0  0  0
  184.7660  178.5860  141.2020 O   0  0  0  0  0  1  0  0  0  0  0  0
  185.0980  178.5940  147.2800 C   0  0  0  0  0  1  0  0  0  0  0  0
  186.9660  178.1970  142.2710 C   0  0  0  0  0  0  0  0  0  0  0  0
  185.6760  178.4610  144.7410 C   0  0  0  0  0  0  0  0  0  0  0  0
  185.4840  177.8040  137.5420 C   0  0  0  0  0  1  0  0  0  0  0  0
  186.9450  178.1430  137.3140 C   0  0  0  0  0  2  0  0  0  0  0  0
  189.8730  177.6250  137.3470 C   0  0  0  0  0  2  0  0  0  0  0  0
  189.8760  176.2390  136.9060 N   0  0  0  0  0  2  0  0  0  0  0  0
  191.2480  175.9000  136.5730 C   0  0  0  0  0  2  0  0  0  0  0  0
  193.4070  176.3090  137.8010 C   0  0  0  0  0  0  0  0  0  0  0  0
  192.0490  175.8740  137.7850 N   0  0  0  0  0  2  0  0  0  0  0  0
  194.1290  176.2650  138.9860 O   0  0  0  0  0  1  0  0  0  0  0  0
  193.9590  176.7310  136.7500 O   0  0  0  0  0  0  0  0  0  0  0  0
  1 10  1  0  0  0  0
  1 22  1  0  0  0  0
  2  3  1  0  0  0  0
  4  5  1  0  0  0  0
  5 15  2  0  0  0  0
  5 23  1  0  0  0  0
  6 14  2  0  0  0  0
  6 19  1  0  0  0  0
  7 10  1  0  0  0  0
  8 21  1  0  0  0  0
  9  2  1  0  0  0  0
 10 11  2  0  0  0  0
 11  9  1  0  0  0  0
 11 17  1  0  0  0  0
 12 18  1  0  0  0  0
 13  8  2  0  0  0  0
 14  7  1  0  0  0  0
 15 13  1  0  0  0  0
 16  3  1  0  0  0  0
 17 12  2  0  0  0  0
 17 16  1  0  0  0  0
 18 23  2  0  0  0  0
 19  1  2  0  0  0  0
 20  4  1  0  0  0  0
 22  4  2  0  0  0  0
 22 12  1  0  0  0  0
 23  8  1  0  0  0  0
 25 24  1  0  0  0  0
 25  6  1  0  0  0  0
 26 14  1  0  0  0  0
 27 26  1  0  0  0  0
 28 27  1  0  0  0  0
 28 30  1  0  0  0  0
 29 31  1  0  0  0  0
 30 29  1  0  0  0  0
 32 29  2  0  0  0  0
M  END
>  <MODEL>
7

>  <REMARK>
 VINA RESULT:      -8.5      3.355      5.416
  Name = 
  5 active torsions:
  status: ('A' for Active; 'I' for Inactive)
    1  A    between atoms: N_2  and  C_12
    2  A    between atoms: N_2  and  C_24
    3  A    between atoms: C_8  and  C_23
    4  A    between atoms: N_10  and  C_24
    5  A    between atoms: C_12  and  C_21
                            x       y       z     vdW  Elec       q    Type
                         _______ _______ _______ _____ _____    ______ ____

>  <TORSDO>
F 5

$$$$
=
 OpenBabel11052416533D

 32 36  0  0  0  0  0  0  0  0999 V2000
  186.1090  178.3680  142.5890 C   0  0  0  0  0  0  0  0  0  0  0  0
  184.2520  177.6460  137.9580 S   0  0  0  0  0  0  0  0  0  0  0  0
  186.0530  177.3910  137.6560 C   0  0  0  0  0  2  0  0  0  0  0  0
  188.5120  177.8260  143.0630 C   0  0  0  0  0  0  0  0  0  0  0  0
  189.7810  177.5820  142.5450 C   0  0  0  0  0  0  0  0  0  0  0  0
  184.4580  178.6310  144.3770 C   0  0  0  0  0  0  0  0  0  0  0  0
  183.7830  178.8920  142.0690 C   0  0  0  0  0  3  0  0  0  0  0  0
  191.4250  177.3130  141.0240 C   0  0  0  0  0  0  0  0  0  0  0  0
  184.3430  178.9560  139.2350 C   0  0  0  0  0  2  0  0  0  0  0  0
  185.0930  178.6380  141.6350 C   0  0  0  0  0  0  0  0  0  0  0  0
  185.3930  178.6480  140.2640 C   0  0  0  0  0  0  0  0  0  0  0  0
  187.7210  178.1270  140.7480 C   0  0  0  0  0  0  0  0  0  0  0  0
  192.0150  177.1230  142.1610 N   0  0  0  0  0  0  0  0  0  0  0  0
  183.4570  178.8840  143.4260 C   0  0  0  0  0  0  0  0  0  0  0  0
  191.0530  177.2680  143.2590 C   0  0  0  0  0  2  0  0  0  0  0  0
  186.9540  178.4080  138.3460 C   0  0  0  0  0  2  0  0  0  0  0  0
  186.6970  178.3970  139.8250 C   0  0  0  0  0  0  0  0  0  0  0  0
  189.0260  177.8710  140.2800 C   0  0  0  0  0  3  0  0  0  0  0  0
  185.7620  178.3710  143.9510 C   0  0  0  0  0  3  0  0  0  0  0  0
  188.3360  177.7860  144.4430 O   0  0  0  0  0  1  0  0  0  0  0  0
  192.1330  177.2330  139.7180 C   0  0  0  0  0  1  0  0  0  0  0  0
  187.4400  178.1070  142.1570 C   0  0  0  0  0  0  0  0  0  0  0  0
  190.0230  177.6050  141.2050 C   0  0  0  0  0  0  0  0  0  0  0  0
  185.4480  178.5160  146.6350 C   0  0  0  0  0  1  0  0  0  0  0  0
  184.1590  178.6040  145.8400 C   0  0  0  0  0  2  0  0  0  0  0  0
  182.0490  179.1870  143.8290 C   0  0  0  0  0  2  0  0  0  0  0  0
  181.1240  178.6990  142.8190 N   0  0  0  0  0  2  0  0  0  0  0  0
  179.8920  179.4540  142.9670 C   0  0  0  0  0  2  0  0  0  0  0  0
  179.5480  180.5970  140.7510 C   0  0  0  0  0  0  0  0  0  0  0  0
  179.9430  180.6340  142.1210 N   0  0  0  0  0  2  0  0  0  0  0  0
  179.6130  181.7540  139.9860 O   0  0  0  0  0  0  0  0  0  0  0  0
  179.1400  179.5260  140.2290 O   0  0  0  0  0  1  0  0  0  0  0  0
  1 19  1  0  0  0  0
  2  9  1  0  0  0  0
  3  2  1  0  0  0  0
  3 16  1  0  0  0  0
  4 20  1  0  0  0  0
  5  4  1  0  0  0  0
  5 15  1  0  0  0  0
  6 25  1  0  0  0  0
  7 14  2  0  0  0  0
  8 23  1  0  0  0  0
  8 13  2  0  0  0  0
  9 11  1  0  0  0  0
 10  7  1  0  0  0  0
 10  1  2  0  0  0  0
 11 10  1  0  0  0  0
 12 22  1  0  0  0  0
 13 15  1  0  0  0  0
 14 26  1  0  0  0  0
 14  6  1  0  0  0  0
 16 17  1  0  0  0  0
 17 11  2  0  0  0  0
 17 12  1  0  0  0  0
 18 12  2  0  0  0  0
 18 23  1  0  0  0  0
 19  6  2  0  0  0  0
 21  8  1  0  0  0  0
 22  1  1  0  0  0  0
 22  4  2  0  0  0  0
 23  5  2  0  0  0  0
 25 24  1  0  0  0  0
 27 28  1  0  0  0  0
 27 26  1  0  0  0  0
 29 30  1  0  0  0  0
 30 28  1  0  0  0  0
 31 29  2  0  0  0  0
 32 29  1  0  0  0  0
M  END
>  <MODEL>
8

>  <REMARK>
 VINA RESULT:      -8.5      3.227      4.848
  Name = 
  5 active torsions:
  status: ('A' for Active; 'I' for Inactive)
    1  A    between atoms: N_2  and  C_12
    2  A    between atoms: N_2  and  C_24
    3  A    between atoms: C_8  and  C_23
    4  A    between atoms: N_10  and  C_24
    5  A    between atoms: C_12  and  C_21
                            x       y       z     vdW  Elec       q    Type
                         _______ _______ _______ _____ _____    ______ ____

>  <TORSDO>
F 5

$$$$
=
 OpenBabel11052416533D

 32 36  0  0  0  0  0  0  0  0999 V2000
  188.7280  177.4930  142.4010 C   0  0  0  0  0  0  0  0  0  0  0  0
  183.7830  178.2140  143.0680 S   0  0  0  0  0  0  0  0  0  0  0  0
  183.9190  178.3940  141.2390 C   0  0  0  0  0  2  0  0  0  0  0  0
  189.6430  177.2280  140.0810 C   0  0  0  0  0  0  0  0  0  0  0  0
  189.4410  177.4080  138.7150 C   0  0  0  0  0  0  0  0  0  0  0  0
  189.9870  176.8000  144.3830 C   0  0  0  0  0  0  0  0  0  0  0  0
  187.7860  177.7710  144.6350 C   0  0  0  0  0  3  0  0  0  0  0  0
  188.4210  177.9950  136.7910 C   0  0  0  0  0  0  0  0  0  0  0  0
  185.3800  178.9610  143.5640 C   0  0  0  0  0  2  0  0  0  0  0  0
  187.6680  177.9170  143.2440 C   0  0  0  0  0  0  0  0  0  0  0  0
  186.5060  178.4790  142.6930 C   0  0  0  0  0  0  0  0  0  0  0  0
  187.4160  178.2170  140.4520 C   0  0  0  0  0  0  0  0  0  0  0  0
  189.5560  177.5040  136.4070 N   0  0  0  0  0  0  0  0  0  0  0  0
  188.9290  177.2120  145.2090 C   0  0  0  0  0  0  0  0  0  0  0  0
  190.3380  177.0730  137.5710 C   0  0  0  0  0  3  0  0  0  0  0  0
  185.1110  179.2240  140.7770 C   0  0  0  0  0  2  0  0  0  0  0  0
  186.3820  178.6290  141.3090 C   0  0  0  0  0  0  0  0  0  0  0  0
  187.2660  178.3740  139.0580 C   0  0  0  0  0  3  0  0  0  0  0  0
  189.8730  176.9380  142.9980 C   0  0  0  0  0  2  0  0  0  0  0  0
  190.8380  176.6560  140.5080 O   0  0  0  0  0  1  0  0  0  0  0  0
  187.4000  178.5190  135.8430 C   0  0  0  0  0  1  0  0  0  0  0  0
  188.6150  177.6360  140.9890 C   0  0  0  0  0  0  0  0  0  0  0  0
  188.2950  177.9600  138.2280 C   0  0  0  0  0  0  0  0  0  0  0  0
  191.9100  175.3310  143.8990 C   0  0  0  0  0  1  0  0  0  0  0  0
  191.2280  176.1900  144.9460 C   0  0  0  0  0  2  0  0  0  0  0  0
  189.0070  177.1040  146.6980 C   0  0  0  0  0  2  0  0  0  0  0  0
  188.9900  178.4300  147.2960 N   0  0  0  0  0  2  0  0  0  0  0  0
  188.0150  178.4000  148.3730 C   0  0  0  0  0  2  0  0  0  0  0  0
  185.7470  178.8010  147.3570 C   0  0  0  0  0  0  0  0  0  0  0  0
  186.7450  177.9150  147.8620 N   0  0  0  0  0  2  0  0  0  0  0  0
  184.5500  178.2870  146.8780 O   0  0  0  0  0  0  0  0  0  0  0  0
  185.9420  180.0450  147.3430 O   0  0  0  0  0  1  0  0  0  0  0  0
  1 19  1  0  0  0  0
  1 10  1  0  0  0  0
  2  9  1  0  0  0  0
  3  2  1  0  0  0  0
  4 20  1  0  0  0  0
  4 22  1  0  0  0  0
  5  4  2  0  0  0  0
  6 25  1  0  0  0  0
  6 14  2  0  0  0  0
  7 14  1  0  0  0  0
  8 23  2  0  0  0  0
 10  7  2  0  0  0  0
 11 10  1  0  0  0  0
 11  9  1  0  0  0  0
 12 22  1  0  0  0  0
 12 17  1  0  0  0  0
 13  8  1  0  0  0  0
 13 15  2  0  0  0  0
 14 26  1  0  0  0  0
 15  5  1  0  0  0  0
 16  3  1  0  0  0  0
 16 17  1  0  0  0  0
 17 11  2  0  0  0  0
 18 12  2  0  0  0  0
 19  6  1  0  0  0  0
 21  8  1  0  0  0  0
 22  1  2  0  0  0  0
 23  5  1  0  0  0  0
 23 18  1  0  0  0  0
 24 25  1  0  0  0  0
 26 27  1  0  0  0  0
 27 28  1  0  0  0  0
 29 30  1  0  0  0  0
 30 28  1  0  0  0  0
 31 29  2  0  0  0  0
 32 29  1  0  0  0  0
M  END
>  <MODEL>
9

>  <REMARK>
 VINA RESULT:      -8.4      2.820      7.884
  Name = 
  5 active torsions:
  status: ('A' for Active; 'I' for Inactive)
    1  A    between atoms: N_2  and  C_12
    2  A    between atoms: N_2  and  C_24
    3  A    between atoms: C_8  and  C_23
    4  A    between atoms: N_10  and  C_24
    5  A    between atoms: C_12  and  C_21
                            x       y       z     vdW  Elec       q    Type
                         _______ _______ _______ _____ _____    ______ ____

>  <TORSDO>
F 5

$$$$
