=
 OpenBabel11052414343D

 32 37  0  0  1  0  0  0  0  0999 V2000
  189.7820  177.4850  142.7070 C   0  0  1  0  0  3  0  0  0  0  0  0
  188.1620  176.9200  144.4970 C   0  0  1  0  0  3  0  0  0  0  0  0
  191.1510  178.0990  142.3680 C   0  0  0  0  0  2  0  0  0  0  0  0
  189.4000  177.7060  144.1630 C   0  0  1  0  0  3  0  0  0  0  0  0
  187.6660  177.4630  145.7990 C   0  0  1  0  0  3  0  0  0  0  0  0
  187.0150  177.0450  143.5080 C   0  0  1  0  0  3  0  0  0  0  0  0
  185.7530  177.1920  144.3900 C   0  0  1  0  0  3  0  0  0  0  0  0
  190.4980  177.2830  145.1390 C   0  0  2  0  0  3  0  0  0  0  0  0
  186.2230  177.0160  145.8410 C   0  0  0  0  0  2  0  0  0  0  0  0
  190.0460  177.5610  146.5920 C   0  0  0  0  0  2  0  0  0  0  0  0
  191.8380  177.9640  144.8230 C   0  0  0  0  0  2  0  0  0  0  0  0
  187.2690  178.1340  142.4430 C   0  0  0  0  0  2  0  0  0  0  0  0
  188.6660  178.0040  141.7740 C   0  0  2  0  0  3  0  0  0  0  0  0
  188.6320  177.0060  146.9020 C   0  0  1  0  0  3  0  0  0  0  0  0
  191.8050  178.8310  143.5510 C   0  0  0  0  0  2  0  0  0  0  0  0
  190.7700  177.6930  139.0360 C   0  0  1  0  0  3  0  0  0  0  0  0
  191.8790  177.0250  138.5090 O   0  0  0  0  0  1  0  0  0  0  0  0
  188.7360  178.8680  138.5140 C   0  0  0  0  0  2  0  0  0  0  0  0
  188.6400  177.2210  140.4540 C   0  0  1  0  0  3  0  0  0  0  0  0
  189.9080  178.1850  137.9500 N   0  0  0  0  0  0  0  0  0  0  0  0
  187.8550  177.9160  139.3330 C   0  0  0  0  0  2  0  0  0  0  0  0
  190.0180  176.8170  140.0100 C   0  0  0  0  0  0  0  0  0  0  0  0
  190.5460  175.8310  140.5010 O   0  0  0  0  0  0  0  0  0  0  0  0
  189.2940  177.6500  135.9210 C   0  0  0  0  0  1  0  0  0  0  0  0
  189.4810  177.1310  137.2050 O   0  0  0  0  0  0  0  0  0  0  0  0
  183.6140  180.0000  143.4730 N   0  0  0  0  0  0  0  0  0  0  0  0
  185.3140  179.7110  144.7880 C   0  0  0  0  0  3  0  0  0  0  0  0
  185.0170  178.4910  144.2130 C   0  0  0  0  0  0  0  0  0  0  0  0
  184.4370  180.5640  144.3090 O   0  0  0  0  0  0  0  0  0  0  0  0
  183.9440  178.6980  143.3770 C   0  0  0  0  0  3  0  0  0  0  0  0
  188.2050  177.5150  148.2430 C   0  0  0  0  0  3  0  0  0  0  0  0
  188.8790  178.4850  148.8560 C   0  0  0  0  0  2  0  0  0  0  0  0
  1  3  1  6  0  0  0
  1  4  1  0  0  0  0
  2  5  1  0  0  0  0
  3 15  1  0  0  0  0
  4  2  1  0  0  0  0
  4  8  1  0  0  0  0
  5  9  1  0  0  0  0
  5 14  1  0  0  0  0
  6  7  1  0  0  0  0
  6  2  1  0  0  0  0
  7  9  1  0  0  0  0
  8 10  1  0  0  0  0
 10 14  1  0  0  0  0
 11  8  1  0  0  0  0
 12  6  1  0  0  0  0
 13 12  1  0  0  0  0
 13  1  1  0  0  0  0
 14 31  1  0  0  0  0
 15 11  1  0  0  0  0
 16 22  1  0  0  0  0
 17 16  1  0  0  0  0
 18 21  1  0  0  0  0
 19 13  1  0  0  0  0
 20 18  1  0  0  0  0
 20 16  1  0  0  0  0
 21 19  1  0  0  0  0
 22 19  1  0  0  0  0
 22 23  2  0  0  0  0
 24 25  1  0  0  0  0
 25 20  1  0  0  0  0
 26 29  1  0  0  0  0
 28  7  1  0  0  0  0
 28 27  2  0  0  0  0
 29 27  1  0  0  0  0
 30 26  2  0  0  0  0
 30 28  1  0  0  0  0
 31 32  2  0  0  0  0
M  END
>  <MODEL>
1

>  <REMARK>
 VINA RESULT:      -8.1      0.000      0.000
  Name = 
  4 active torsions:
  status: ('A' for Active; 'I' for Inactive)
    1  A    between atoms: C_12  and  C_28
    2  A    between atoms: C_13  and  C_29
    3  A    between atoms: C_16  and  C_27
    4  A    between atoms: N_19  and  O_26
                            x       y       z     vdW  Elec       q    Type
                         _______ _______ _______ _____ _____    ______ ____

>  <TORSDO>
F 4

$$$$
=
 OpenBabel11052414343D

 32 37  0  0  1  0  0  0  0  0999 V2000
  180.7880  179.3150  141.0890 C   0  0  1  0  0  3  0  0  0  0  0  0
  183.2460  179.2640  140.7650 C   0  0  1  0  0  3  0  0  0  0  0  0
  179.6140  178.9830  142.0260 C   0  0  0  0  0  2  0  0  0  0  0  0
  182.1050  178.7470  141.5970 C   0  0  1  0  0  3  0  0  0  0  0  0
  184.4210  178.3990  141.0910 C   0  0  1  0  0  3  0  0  0  0  0  0
  183.0540  179.1860  139.2600 C   0  0  1  0  0  3  0  0  0  0  0  0
  184.4120  178.6830  138.7170 C   0  0  1  0  0  3  0  0  0  0  0  0
  182.3890  179.1090  143.0550 C   0  0  2  0  0  3  0  0  0  0  0  0
  185.3570  178.6200  139.9250 C   0  0  0  0  0  2  0  0  0  0  0  0
  183.7270  178.4760  143.5030 C   0  0  0  0  0  2  0  0  0  0  0  0
  181.2320  178.7030  143.9810 C   0  0  0  0  0  2  0  0  0  0  0  0
  181.7910  178.3870  138.8660 C   0  0  0  0  0  2  0  0  0  0  0  0
  180.5240  178.8490  139.6410 C   0  0  2  0  0  3  0  0  0  0  0  0
  184.8880  178.7500  142.5130 C   0  0  1  0  0  3  0  0  0  0  0  0
  180.0190  178.1220  143.2340 C   0  0  0  0  0  2  0  0  0  0  0  0
  180.7380  180.4260  136.5620 C   0  0  1  0  0  3  0  0  0  0  0  0
  180.4490  180.3290  135.1970 O   0  0  0  0  0  1  0  0  0  0  0  0
  181.1080  181.9310  138.4030 C   0  0  0  0  0  2  0  0  0  0  0  0
  179.6800  179.8760  138.8740 C   0  0  1  0  0  3  0  0  0  0  0  0
  180.8240  181.8390  136.9640 N   0  0  0  0  0  0  0  0  0  0  0  0
  179.9790  181.3330  139.2520 C   0  0  0  0  0  2  0  0  0  0  0  0
  179.7360  179.6560  137.3890 C   0  0  0  0  0  0  0  0  0  0  0  0
  179.0290  178.8020  136.8770 O   0  0  0  0  0  0  0  0  0  0  0  0
  179.9690  183.7400  136.3030 C   0  0  0  0  0  1  0  0  0  0  0  0
  179.6330  182.4480  136.7170 O   0  0  0  0  0  0  0  0  0  0  0  0
  184.5630  175.8090  136.4780 N   0  0  0  0  0  0  0  0  0  0  0  0
  183.7020  176.2120  138.4270 C   0  0  0  0  0  3  0  0  0  0  0  0
  184.3480  177.3590  138.0090 C   0  0  0  0  0  0  0  0  0  0  0  0
  183.8740  175.3280  137.4720 O   0  0  0  0  0  0  0  0  0  0  0  0
  184.8780  177.0850  136.7690 C   0  0  0  0  0  3  0  0  0  0  0  0
  186.0660  177.9200  142.9180 C   0  0  0  0  0  3  0  0  0  0  0  0
  186.4180  177.8080  144.1960 C   0  0  0  0  0  2  0  0  0  0  0  0
  1  4  1  0  0  0  0
  1  3  1  1  0  0  0
  2  5  1  0  0  0  0
  2  4  1  0  0  0  0
  3 15  1  0  0  0  0
  4  8  1  0  0  0  0
  5 14  1  0  0  0  0
  6  2  1  0  0  0  0
  7  6  1  0  0  0  0
  7  9  1  0  0  0  0
  8 10  1  0  0  0  0
  8 11  1  0  0  0  0
  9  5  1  0  0  0  0
 12  6  1  0  0  0  0
 12 13  1  0  0  0  0
 13  1  1  0  0  0  0
 14 31  1  0  0  0  0
 14 10  1  0  0  0  0
 15 11  1  0  0  0  0
 16 20  1  0  0  0  0
 16 22  1  0  0  0  0
 17 16  1  0  0  0  0
 18 21  1  0  0  0  0
 19 21  1  0  0  0  0
 19 13  1  0  0  0  0
 20 18  1  0  0  0  0
 22 19  1  0  0  0  0
 23 22  2  0  0  0  0
 24 25  1  0  0  0  0
 25 20  1  0  0  0  0
 26 30  2  0  0  0  0
 26 29  1  0  0  0  0
 28 27  2  0  0  0  0
 28  7  1  0  0  0  0
 29 27  1  0  0  0  0
 30 28  1  0  0  0  0
 31 32  2  0  0  0  0
M  END
>  <MODEL>
2

>  <REMARK>
 VINA RESULT:      -7.5      5.441      8.777
  Name = 
  4 active torsions:
  status: ('A' for Active; 'I' for Inactive)
    1  A    between atoms: C_12  and  C_28
    2  A    between atoms: C_13  and  C_29
    3  A    between atoms: C_16  and  C_27
    4  A    between atoms: N_19  and  O_26
                            x       y       z     vdW  Elec       q    Type
                         _______ _______ _______ _____ _____    ______ ____

>  <TORSDO>
F 4

$$$$
=
 OpenBabel11052414343D

 32 37  0  0  1  0  0  0  0  0999 V2000
  189.8840  174.4080  136.2290 C   0  0  1  0  0  3  0  0  0  0  0  0
  189.2990  176.6370  137.1450 C   0  0  1  0  0  3  0  0  0  0  0  0
  189.3570  173.0450  135.7470 C   0  0  0  0  0  2  0  0  0  0  0  0
  188.7930  175.2470  136.8770 C   0  0  1  0  0  3  0  0  0  0  0  0
  188.3170  177.2620  138.0830 C   0  0  1  0  0  3  0  0  0  0  0  0
  190.6590  176.7240  137.8180 C   0  0  1  0  0  3  0  0  0  0  0  0
  190.4970  177.8300  138.8870 C   0  0  1  0  0  3  0  0  0  0  0  0
  187.5380  175.3670  136.0110 C   0  0  2  0  0  3  0  0  0  0  0  0
  189.0890  178.4110  138.6880 C   0  0  0  0  0  2  0  0  0  0  0  0
  186.4700  176.2090  136.7470 C   0  0  0  0  0  2  0  0  0  0  0  0
  186.9910  173.9910  135.6020 C   0  0  0  0  0  2  0  0  0  0  0  0
  191.1730  175.3470  138.2930 C   0  0  0  0  0  2  0  0  0  0  0  0
  191.0880  174.2600  137.1840 C   0  0  2  0  0  3  0  0  0  0  0  0
  187.0280  177.5470  137.2980 C   0  0  1  0  0  3  0  0  0  0  0  0
  187.8700  172.8150  136.0630 C   0  0  0  0  0  2  0  0  0  0  0  0
  194.3440  175.4030  137.5110 C   0  0  1  0  0  3  0  0  0  0  0  0
  195.5850  175.1820  138.1150 O   0  0  0  0  0  1  0  0  0  0  0  0
  193.2080  176.3660  135.6200 C   0  0  0  0  0  2  0  0  0  0  0  0
  192.3960  174.0820  136.4020 C   0  0  1  0  0  3  0  0  0  0  0  0
  194.5150  176.1550  136.2580 N   0  0  0  0  0  0  0  0  0  0  0  0
  192.5470  175.0420  135.2140 C   0  0  0  0  0  2  0  0  0  0  0  0
  193.5990  174.1060  137.3020 C   0  0  0  0  0  0  0  0  0  0  0  0
  193.9140  173.0980  137.9160 O   0  0  0  0  0  0  0  0  0  0  0  0
  196.1510  176.3830  134.8240 C   0  0  0  0  0  1  0  0  0  0  0  0
  195.3020  175.4390  135.4100 O   0  0  0  0  0  0  0  0  0  0  0  0
  190.2920  176.5850  142.3090 N   0  0  0  0  0  0  0  0  0  0  0  0
  191.8430  177.4500  141.0640 C   0  0  0  0  0  3  0  0  0  0  0  0
  190.6940  177.3630  140.3020 C   0  0  0  0  0  0  0  0  0  0  0  0
  191.5350  176.9650  142.2450 O   0  0  0  0  0  0  0  0  0  0  0  0
  189.7230  176.8220  141.1110 C   0  0  0  0  0  3  0  0  0  0  0  0
  185.9870  178.1740  138.1710 C   0  0  0  0  0  3  0  0  0  0  0  0
  184.7010  177.8610  138.0380 C   0  0  0  0  0  2  0  0  0  0  0  0
  1  3  1  1  0  0  0
  1  4  1  0  0  0  0
  1 13  1  0  0  0  0
  2  6  1  0  0  0  0
  2  5  1  0  0  0  0
  3 15  1  0  0  0  0
  4  2  1  0  0  0  0
  5  9  1  0  0  0  0
  6 12  1  0  0  0  0
  6  7  1  0  0  0  0
  7 28  1  0  0  0  0
  8 10  1  0  0  0  0
  8  4  1  0  0  0  0
  9  7  1  0  0  0  0
 10 14  1  0  0  0  0
 11  8  1  0  0  0  0
 11 15  1  0  0  0  0
 13 12  1  0  0  0  0
 14  5  1  0  0  0  0
 14 31  1  0  0  0  0
 16 17  1  0  0  0  0
 18 20  1  0  0  0  0
 19 13  1  0  0  0  0
 19 22  1  0  0  0  0
 20 16  1  0  0  0  0
 21 18  1  0  0  0  0
 21 19  1  0  0  0  0
 22 16  1  0  0  0  0
 22 23  2  0  0  0  0
 24 25  1  0  0  0  0
 25 20  1  0  0  0  0
 27 29  1  0  0  0  0
 28 27  2  0  0  0  0
 28 30  1  0  0  0  0
 29 26  1  0  0  0  0
 30 26  2  0  0  0  0
 32 31  2  0  0  0  0
M  END
>  <MODEL>
3

>  <REMARK>
 VINA RESULT:      -7.3      4.591      7.756
  Name = 
  4 active torsions:
  status: ('A' for Active; 'I' for Inactive)
    1  A    between atoms: C_12  and  C_28
    2  A    between atoms: C_13  and  C_29
    3  A    between atoms: C_16  and  C_27
    4  A    between atoms: N_19  and  O_26
                            x       y       z     vdW  Elec       q    Type
                         _______ _______ _______ _____ _____    ______ ____

>  <TORSDO>
F 4

$$$$
=
 OpenBabel11052414343D

 32 37  0  0  1  0  0  0  0  0999 V2000
  184.7250  178.3170  140.9540 C   0  0  1  0  0  3  0  0  0  0  0  0
  182.2640  178.1530  140.6960 C   0  0  1  0  0  3  0  0  0  0  0  0
  185.8890  178.8090  141.8310 C   0  0  0  0  0  2  0  0  0  0  0  0
  183.3790  178.8180  141.4550 C   0  0  1  0  0  3  0  0  0  0  0  0
  181.0320  178.9460  140.9900 C   0  0  1  0  0  3  0  0  0  0  0  0
  182.4170  178.1300  139.1850 C   0  0  1  0  0  3  0  0  0  0  0  0
  181.0120  178.4830  138.6440 C   0  0  1  0  0  3  0  0  0  0  0  0
  183.1570  178.5470  142.9430 C   0  0  2  0  0  3  0  0  0  0  0  0
  180.0910  178.5650  139.8700 C   0  0  0  0  0  2  0  0  0  0  0  0
  181.7830  179.1070  143.3800 C   0  0  0  0  0  2  0  0  0  0  0  0
  184.2970  179.1100  143.8040 C   0  0  0  0  0  2  0  0  0  0  0  0
  183.6030  178.9920  138.6980 C   0  0  0  0  0  2  0  0  0  0  0  0
  184.9200  178.6910  139.4690 C   0  0  2  0  0  3  0  0  0  0  0  0
  180.6260  178.6700  142.4460 C   0  0  1  0  0  3  0  0  0  0  0  0
  185.4440  179.7250  142.9830 C   0  0  0  0  0  2  0  0  0  0  0  0
  187.4210  178.8560  137.0740 C   0  0  1  0  0  3  0  0  0  0  0  0
  188.7860  179.0580  136.8490 O   0  0  0  0  0  1  0  0  0  0  0  0
  185.4130  177.8190  136.2480 C   0  0  0  0  0  2  0  0  0  0  0  0
  185.8250  177.6760  138.7570 C   0  0  1  0  0  3  0  0  0  0  0  0
  186.8420  178.0430  135.9930 N   0  0  0  0  0  0  0  0  0  0  0  0
  185.1770  177.0150  137.5330 C   0  0  0  0  0  2  0  0  0  0  0  0
  187.1750  178.2520  138.4370 C   0  0  0  0  0  0  0  0  0  0  0  0
  188.0330  178.3000  139.3050 O   0  0  0  0  0  0  0  0  0  0  0  0
  187.4790  176.4800  134.6030 C   0  0  0  0  0  1  0  0  0  0  0  0
  187.4710  176.8370  135.9530 O   0  0  0  0  0  0  0  0  0  0  0  0
  180.8090  181.8700  137.3070 N   0  0  0  0  0  0  0  0  0  0  0  0
  180.8780  179.8730  136.4650 C   0  0  0  0  0  3  0  0  0  0  0  0
  180.9550  179.7510  137.8380 C   0  0  0  0  0  0  0  0  0  0  0  0
  180.7990  181.1600  136.2160 O   0  0  0  0  0  0  0  0  0  0  0  0
  180.9000  181.0260  138.3520 C   0  0  0  0  0  3  0  0  0  0  0  0
  179.3950  179.4340  142.8210 C   0  0  0  0  0  3  0  0  0  0  0  0
  178.9310  179.4170  144.0680 C   0  0  0  0  0  2  0  0  0  0  0  0
  1  4  1  0  0  0  0
  1  3  1  1  0  0  0
  2  5  1  0  0  0  0
  2  4  1  0  0  0  0
  3 15  1  0  0  0  0
  4  8  1  0  0  0  0
  5 14  1  0  0  0  0
  6  2  1  0  0  0  0
  7  6  1  0  0  0  0
  7  9  1  0  0  0  0
  8 10  1  0  0  0  0
  8 11  1  0  0  0  0
  9  5  1  0  0  0  0
 12  6  1  0  0  0  0
 12 13  1  0  0  0  0
 13  1  1  0  0  0  0
 14 31  1  0  0  0  0
 14 10  1  0  0  0  0
 15 11  1  0  0  0  0
 16 22  1  0  0  0  0
 17 16  1  0  0  0  0
 18 21  1  0  0  0  0
 19 13  1  0  0  0  0
 20 18  1  0  0  0  0
 20 16  1  0  0  0  0
 21 19  1  0  0  0  0
 22 19  1  0  0  0  0
 22 23  2  0  0  0  0
 24 25  1  0  0  0  0
 25 20  1  0  0  0  0
 26 30  2  0  0  0  0
 27 28  2  0  0  0  0
 28 30  1  0  0  0  0
 28  7  1  0  0  0  0
 29 27  1  0  0  0  0
 29 26  1  0  0  0  0
 31 32  2  0  0  0  0
M  END
>  <MODEL>
4

>  <REMARK>
 VINA RESULT:      -7.2      4.321      6.725
  Name = 
  4 active torsions:
  status: ('A' for Active; 'I' for Inactive)
    1  A    between atoms: C_12  and  C_28
    2  A    between atoms: C_13  and  C_29
    3  A    between atoms: C_16  and  C_27
    4  A    between atoms: N_19  and  O_26
                            x       y       z     vdW  Elec       q    Type
                         _______ _______ _______ _____ _____    ______ ____

>  <TORSDO>
F 4

$$$$
=
 OpenBabel11052414343D

 32 37  0  0  1  0  0  0  0  0999 V2000
  186.6370  178.4890  141.4850 C   0  0  1  0  0  3  0  0  0  0  0  0
  188.3490  178.4500  139.6920 C   0  0  1  0  0  3  0  0  0  0  0  0
  186.2820  178.0780  142.9250 C   0  0  0  0  0  2  0  0  0  0  0  0
  187.9420  177.8650  141.0160 C   0  0  1  0  0  3  0  0  0  0  0  0
  189.4110  177.5490  139.1490 C   0  0  1  0  0  3  0  0  0  0  0  0
  187.2560  178.5180  138.6380 C   0  0  1  0  0  3  0  0  0  0  0  0
  187.9440  178.0590  137.3310 C   0  0  1  0  0  3  0  0  0  0  0  0
  189.0950  178.0830  141.9960 C   0  0  2  0  0  3  0  0  0  0  0  0
  189.4290  177.8730  137.6730 C   0  0  0  0  0  2  0  0  0  0  0  0
  190.3760  177.4000  141.4630 C   0  0  0  0  0  2  0  0  0  0  0  0
  188.7430  177.5990  143.4110 C   0  0  0  0  0  2  0  0  0  0  0  0
  185.9740  177.7710  139.0660 C   0  0  0  0  0  2  0  0  0  0  0  0
  185.4980  178.1650  140.4930 C   0  0  2  0  0  3  0  0  0  0  0  0
  190.6830  177.7580  139.9860 C   0  0  1  0  0  3  0  0  0  0  0  0
  187.2930  177.1020  143.5500 C   0  0  0  0  0  2  0  0  0  0  0  0
  182.0360  178.2600  140.6260 C   0  0  1  0  0  3  0  0  0  0  0  0
  180.9170  178.2530  141.4630 O   0  0  0  0  0  1  0  0  0  0  0  0
  182.9010  178.9450  138.4870 C   0  0  0  0  0  2  0  0  0  0  0  0
  184.4310  179.2680  140.4970 C   0  0  1  0  0  3  0  0  0  0  0  0
  181.7150  178.9250  139.3530 N   0  0  0  0  0  0  0  0  0  0  0  0
  184.0440  179.7660  139.0980 C   0  0  0  0  0  2  0  0  0  0  0  0
  183.2280  178.8860  141.3110 C   0  0  0  0  0  0  0  0  0  0  0  0
  183.2560  179.0090  142.5260 O   0  0  0  0  0  0  0  0  0  0  0  0
  180.4380  180.5210  138.5760 C   0  0  0  0  0  1  0  0  0  0  0  0
  181.3350  180.2070  139.6000 O   0  0  0  0  0  0  0  0  0  0  0  0
  187.0340  174.7020  136.2370 N   0  0  0  0  0  0  0  0  0  0  0  0
  186.4080  176.7170  135.7390 C   0  0  0  0  0  3  0  0  0  0  0  0
  187.3670  176.8090  136.7280 C   0  0  0  0  0  0  0  0  0  0  0  0
  186.2540  175.4360  135.4970 O   0  0  0  0  0  0  0  0  0  0  0  0
  187.7560  175.5230  137.0230 C   0  0  0  0  0  3  0  0  0  0  0  0
  191.7990  176.8840  139.5050 C   0  0  0  0  0  3  0  0  0  0  0  0
  193.0610  177.1350  139.8440 C   0  0  0  0  0  2  0  0  0  0  0  0
  1  3  1  1  0  0  0
  2  4  1  0  0  0  0
  3 15  1  0  0  0  0
  4  1  1  0  0  0  0
  4  8  1  0  0  0  0
  5  2  1  0  0  0  0
  5 14  1  0  0  0  0
  6 12  1  0  0  0  0
  6  2  1  0  0  0  0
  7  9  1  0  0  0  0
  7  6  1  0  0  0  0
  8 11  1  0  0  0  0
  9  5  1  0  0  0  0
 10  8  1  0  0  0  0
 11 15  1  0  0  0  0
 12 13  1  0  0  0  0
 13 19  1  0  0  0  0
 13  1  1  0  0  0  0
 14 10  1  0  0  0  0
 16 22  1  0  0  0  0
 16 17  1  0  0  0  0
 18 21  1  0  0  0  0
 18 20  1  0  0  0  0
 19 22  1  0  0  0  0
 20 25  1  0  0  0  0
 20 16  1  0  0  0  0
 21 19  1  0  0  0  0
 22 23  2  0  0  0  0
 24 25  1  0  0  0  0
 26 30  2  0  0  0  0
 27 28  2  0  0  0  0
 28 30  1  0  0  0  0
 28  7  1  0  0  0  0
 29 27  1  0  0  0  0
 29 26  1  0  0  0  0
 31 32  2  0  0  0  0
 31 14  1  0  0  0  0
M  END
>  <MODEL>
5

>  <REMARK>
 VINA RESULT:      -7.1      3.092      7.268
  Name = 
  4 active torsions:
  status: ('A' for Active; 'I' for Inactive)
    1  A    between atoms: C_12  and  C_28
    2  A    between atoms: C_13  and  C_29
    3  A    between atoms: C_16  and  C_27
    4  A    between atoms: N_19  and  O_26
                            x       y       z     vdW  Elec       q    Type
                         _______ _______ _______ _____ _____    ______ ____

>  <TORSDO>
F 4

$$$$
=
 OpenBabel11052414343D

 32 37  0  0  1  0  0  0  0  0999 V2000
  187.7310  178.1390  142.5710 C   0  0  1  0  0  3  0  0  0  0  0  0
  189.2470  178.0250  144.5300 C   0  0  1  0  0  3  0  0  0  0  0  0
  186.2740  178.1120  142.0780 C   0  0  0  0  0  2  0  0  0  0  0  0
  187.8420  177.7890  144.0470 C   0  0  1  0  0  3  0  0  0  0  0  0
  189.3520  177.3330  145.8510 C   0  0  1  0  0  3  0  0  0  0  0  0
  190.3500  177.4570  143.6520 C   0  0  1  0  0  3  0  0  0  0  0  0
  191.3540  176.8260  144.6450 C   0  0  1  0  0  3  0  0  0  0  0  0
  186.9030  178.6120  144.9290 C   0  0  2  0  0  3  0  0  0  0  0  0
  190.8420  177.1760  146.0490 C   0  0  0  0  0  2  0  0  0  0  0  0
  187.0550  178.1820  146.4060 C   0  0  0  0  0  2  0  0  0  0  0  0
  185.4430  178.5120  144.4590 C   0  0  0  0  0  2  0  0  0  0  0  0
  189.8020  176.5530  142.5260 C   0  0  0  0  0  2  0  0  0  0  0  0
  188.6450  177.2210  141.7300 C   0  0  2  0  0  3  0  0  0  0  0  0
  188.5330  178.1350  146.8740 C   0  0  1  0  0  3  0  0  0  0  0  0
  185.2670  177.6990  143.1630 C   0  0  0  0  0  2  0  0  0  0  0  0
  188.1810  176.7480  138.3280 C   0  0  1  0  0  3  0  0  0  0  0  0
  187.3490  177.0040  137.2340 O   0  0  0  0  0  1  0  0  0  0  0  0
  190.4340  176.2780  139.0310 C   0  0  0  0  0  2  0  0  0  0  0  0
  189.1130  177.9280  140.4510 C   0  0  1  0  0  3  0  0  0  0  0  0
  189.5630  176.5270  137.8740 N   0  0  0  0  0  0  0  0  0  0  0  0
  190.5020  177.4900  139.9700 C   0  0  0  0  0  2  0  0  0  0  0  0
  188.0870  177.8510  139.3560 C   0  0  0  0  0  0  0  0  0  0  0  0
  187.1450  178.6270  139.3540 O   0  0  0  0  0  0  0  0  0  0  0  0
  190.3760  177.1920  135.9560 C   0  0  0  0  0  1  0  0  0  0  0  0
  190.0060  177.6390  137.2270 O   0  0  0  0  0  0  0  0  0  0  0  0
  192.3170  173.3100  144.7180 N   0  0  0  0  0  0  0  0  0  0  0  0
  190.9040  174.5070  143.5900 C   0  0  0  0  0  3  0  0  0  0  0  0
  191.5370  175.3430  144.4890 C   0  0  0  0  0  0  0  0  0  0  0  0
  191.4110  173.3110  143.7830 O   0  0  0  0  0  0  0  0  0  0  0  0
  192.4330  174.5670  145.1860 C   0  0  0  0  0  3  0  0  0  0  0  0
  188.5850  177.5020  148.2280 C   0  0  0  0  0  3  0  0  0  0  0  0
  187.8720  177.9890  149.2410 C   0  0  0  0  0  2  0  0  0  0  0  0
  1  3  1  6  0  0  0
  1  4  1  0  0  0  0
  2  5  1  0  0  0  0
  3 15  1  0  0  0  0
  4  2  1  0  0  0  0
  4  8  1  0  0  0  0
  5  9  1  0  0  0  0
  5 14  1  0  0  0  0
  6  2  1  0  0  0  0
  6  7  1  0  0  0  0
  7  9  1  0  0  0  0
  8 10  1  0  0  0  0
 10 14  1  0  0  0  0
 11  8  1  0  0  0  0
 12  6  1  0  0  0  0
 13 12  1  0  0  0  0
 13  1  1  0  0  0  0
 14 31  1  0  0  0  0
 15 11  1  0  0  0  0
 16 22  1  0  0  0  0
 17 16  1  0  0  0  0
 18 21  1  0  0  0  0
 19 13  1  0  0  0  0
 20 16  1  0  0  0  0
 20 18  1  0  0  0  0
 21 19  1  0  0  0  0
 22 19  1  0  0  0  0
 23 22  2  0  0  0  0
 24 25  1  0  0  0  0
 25 20  1  0  0  0  0
 26 30  2  0  0  0  0
 27 29  1  0  0  0  0
 27 28  2  0  0  0  0
 28  7  1  0  0  0  0
 28 30  1  0  0  0  0
 29 26  1  0  0  0  0
 31 32  2  0  0  0  0
M  END
>  <MODEL>
6

>  <REMARK>
 VINA RESULT:      -7.1      2.315      4.776
  Name = 
  4 active torsions:
  status: ('A' for Active; 'I' for Inactive)
    1  A    between atoms: C_12  and  C_28
    2  A    between atoms: C_13  and  C_29
    3  A    between atoms: C_16  and  C_27
    4  A    between atoms: N_19  and  O_26
                            x       y       z     vdW  Elec       q    Type
                         _______ _______ _______ _____ _____    ______ ____

>  <TORSDO>
F 4

$$$$
=
 OpenBabel11052414343D

 32 37  0  0  1  0  0  0  0  0999 V2000
  185.2940  178.8700  140.9500 C   0  0  1  0  0  3  0  0  0  0  0  0
  186.7970  178.6050  138.9960 C   0  0  1  0  0  3  0  0  0  0  0  0
  185.1210  178.6770  142.4670 C   0  0  0  0  0  2  0  0  0  0  0  0
  186.5680  178.2210  140.4310 C   0  0  1  0  0  3  0  0  0  0  0  0
  187.8340  177.6640  138.4750 C   0  0  1  0  0  3  0  0  0  0  0  0
  185.5920  178.4760  138.0780 C   0  0  1  0  0  3  0  0  0  0  0  0
  186.1520  177.8410  136.7840 C   0  0  1  0  0  3  0  0  0  0  0  0
  187.8100  178.6240  141.2250 C   0  0  2  0  0  3  0  0  0  0  0  0
  187.6730  177.7550  136.9750 C   0  0  0  0  0  2  0  0  0  0  0  0
  189.0550  177.9060  140.6560 C   0  0  0  0  0  2  0  0  0  0  0  0
  187.6410  178.3550  142.7290 C   0  0  0  0  0  2  0  0  0  0  0  0
  184.4030  177.7650  138.7610 C   0  0  0  0  0  2  0  0  0  0  0  0
  184.0700  178.3610  140.1580 C   0  0  2  0  0  3  0  0  0  0  0  0
  189.1800  178.0390  139.1160 C   0  0  1  0  0  3  0  0  0  0  0  0
  186.2410  177.8410  143.1090 C   0  0  0  0  0  2  0  0  0  0  0  0
  180.6080  178.3090  139.9810 C   0  0  1  0  0  3  0  0  0  0  0  0
  179.4210  178.2110  140.7130 O   0  0  0  0  0  1  0  0  0  0  0  0
  181.6270  179.1410  137.9670 C   0  0  0  0  0  2  0  0  0  0  0  0
  182.9570  179.4180  140.1210 C   0  0  1  0  0  3  0  0  0  0  0  0
  180.3710  179.0270  138.7200 N   0  0  0  0  0  0  0  0  0  0  0  0
  182.6740  179.9740  138.7190 C   0  0  0  0  0  2  0  0  0  0  0  0
  181.7050  178.9440  140.8030 C   0  0  0  0  0  0  0  0  0  0  0  0
  181.6210  179.0030  142.0190 O   0  0  0  0  0  0  0  0  0  0  0  0
  179.0310  180.5760  137.9530 C   0  0  0  0  0  1  0  0  0  0  0  0
  179.9130  180.2780  138.9950 O   0  0  0  0  0  0  0  0  0  0  0  0
  185.3060  174.3270  136.2960 N   0  0  0  0  0  0  0  0  0  0  0  0
  184.4850  176.2250  135.6430 C   0  0  0  0  0  3  0  0  0  0  0  0
  185.5730  176.4950  136.4490 C   0  0  0  0  0  0  0  0  0  0  0  0
  184.3780  174.9170  135.5990 O   0  0  0  0  0  0  0  0  0  0  0  0
  186.0840  175.2800  136.8440 C   0  0  0  0  0  3  0  0  0  0  0  0
  190.2760  177.1360  138.6460 C   0  0  0  0  0  3  0  0  0  0  0  0
  191.2490  176.7530  139.4690 C   0  0  0  0  0  2  0  0  0  0  0  0
  1  3  1  1  0  0  0
  2  4  1  0  0  0  0
  3 15  1  0  0  0  0
  4  1  1  0  0  0  0
  4  8  1  0  0  0  0
  5  2  1  0  0  0  0
  5 14  1  0  0  0  0
  6 12  1  0  0  0  0
  6  2  1  0  0  0  0
  7  9  1  0  0  0  0
  7  6  1  0  0  0  0
  8 11  1  0  0  0  0
  9  5  1  0  0  0  0
 10  8  1  0  0  0  0
 11 15  1  0  0  0  0
 12 13  1  0  0  0  0
 13  1  1  0  0  0  0
 14 10  1  0  0  0  0
 16 17  1  0  0  0  0
 16 22  1  0  0  0  0
 18 21  1  0  0  0  0
 18 20  1  0  0  0  0
 19 13  1  0  0  0  0
 19 22  1  0  0  0  0
 20 25  1  0  0  0  0
 20 16  1  0  0  0  0
 21 19  1  0  0  0  0
 22 23  2  0  0  0  0
 24 25  1  0  0  0  0
 26 30  2  0  0  0  0
 27 28  2  0  0  0  0
 28  7  1  0  0  0  0
 28 30  1  0  0  0  0
 29 27  1  0  0  0  0
 29 26  1  0  0  0  0
 31 14  1  0  0  0  0
 31 32  2  0  0  0  0
M  END
>  <MODEL>
7

>  <REMARK>
 VINA RESULT:      -7.0      3.949      7.991
  Name = 
  4 active torsions:
  status: ('A' for Active; 'I' for Inactive)
    1  A    between atoms: C_12  and  C_28
    2  A    between atoms: C_13  and  C_29
    3  A    between atoms: C_16  and  C_27
    4  A    between atoms: N_19  and  O_26
                            x       y       z     vdW  Elec       q    Type
                         _______ _______ _______ _____ _____    ______ ____

>  <TORSDO>
F 4

$$$$
=
 OpenBabel11052414343D

 32 37  0  0  1  0  0  0  0  0999 V2000
  187.9370  176.5840  136.8260 C   0  0  1  0  0  3  0  0  0  0  0  0
  187.5690  178.1200  138.7370 C   0  0  1  0  0  3  0  0  0  0  0  0
  187.2870  175.6300  135.8080 C   0  0  0  0  0  2  0  0  0  0  0  0
  186.9520  177.0400  137.8910 C   0  0  1  0  0  3  0  0  0  0  0  0
  186.6990  178.2480  139.9450 C   0  0  1  0  0  3  0  0  0  0  0  0
  188.9750  177.8400  139.2420 C   0  0  1  0  0  3  0  0  0  0  0  0
  188.9620  178.3050  140.7160 C   0  0  1  0  0  3  0  0  0  0  0  0
  185.6520  177.5930  137.3070 C   0  0  2  0  0  3  0  0  0  0  0  0
  187.5870  178.9480  140.9480 C   0  0  0  0  0  2  0  0  0  0  0  0
  184.6970  178.0100  138.4490 C   0  0  0  0  0  2  0  0  0  0  0  0
  184.9860  176.5940  136.3480 C   0  0  0  0  0  2  0  0  0  0  0  0
  189.4260  176.3890  138.9580 C   0  0  0  0  0  2  0  0  0  0  0  0
  189.1910  175.9660  137.4810 C   0  0  2  0  0  3  0  0  0  0  0  0
  185.3800  178.9080  139.5120 C   0  0  1  0  0  3  0  0  0  0  0  0
  185.8140  175.3170  136.1140 C   0  0  0  0  0  2  0  0  0  0  0  0
  191.8150  173.9520  136.4450 C   0  0  1  0  0  3  0  0  0  0  0  0
  192.2390  173.0090  135.5040 O   0  0  0  0  0  1  0  0  0  0  0  0
  192.5160  175.6780  137.9690 C   0  0  0  0  0  2  0  0  0  0  0  0
  190.4270  176.1480  136.5900 C   0  0  1  0  0  3  0  0  0  0  0  0
  192.9720  174.6760  136.9960 N   0  0  0  0  0  0  0  0  0  0  0  0
  191.6360  176.7530  137.3170 C   0  0  0  0  0  2  0  0  0  0  0  0
  190.7850  174.8860  135.8560 C   0  0  0  0  0  0  0  0  0  0  0  0
  190.1830  174.5890  134.8360 O   0  0  0  0  0  0  0  0  0  0  0  0
  194.9800  175.1720  136.2870 C   0  0  0  0  0  1  0  0  0  0  0  0
  193.6230  175.3140  135.9870 O   0  0  0  0  0  0  0  0  0  0  0  0
  190.2280  175.6310  142.8490 N   0  0  0  0  0  0  0  0  0  0  0  0
  188.3180  176.6210  142.5720 C   0  0  0  0  0  3  0  0  0  0  0  0
  189.2250  177.2150  141.7170 C   0  0  0  0  0  0  0  0  0  0  0  0
  188.9810  175.6910  143.2200 O   0  0  0  0  0  0  0  0  0  0  0  0
  190.4250  176.5670  141.9010 C   0  0  0  0  0  3  0  0  0  0  0  0
  184.4470  179.0690  140.6710 C   0  0  0  0  0  3  0  0  0  0  0  0
  183.9620  178.0100  141.3130 C   0  0  0  0  0  2  0  0  0  0  0  0
  1  3  1  6  0  0  0
  1 13  1  0  0  0  0
  1  4  1  0  0  0  0
  2  6  1  0  0  0  0
  2  5  1  0  0  0  0
  3 15  1  0  0  0  0
  4  2  1  0  0  0  0
  5  9  1  0  0  0  0
  6  7  1  0  0  0  0
  7  9  1  0  0  0  0
  7 28  1  0  0  0  0
  8  4  1  0  0  0  0
  8 10  1  0  0  0  0
 10 14  1  0  0  0  0
 11  8  1  0  0  0  0
 12  6  1  0  0  0  0
 13 12  1  0  0  0  0
 14  5  1  0  0  0  0
 14 31  1  0  0  0  0
 15 11  1  0  0  0  0
 16 20  1  0  0  0  0
 17 16  1  0  0  0  0
 19 21  1  0  0  0  0
 19 13  1  0  0  0  0
 20 18  1  0  0  0  0
 21 18  1  0  0  0  0
 22 16  1  0  0  0  0
 22 19  1  0  0  0  0
 23 22  2  0  0  0  0
 25 24  1  0  0  0  0
 25 20  1  0  0  0  0
 26 29  1  0  0  0  0
 27 29  1  0  0  0  0
 28 30  1  0  0  0  0
 28 27  2  0  0  0  0
 30 26  2  0  0  0  0
 31 32  2  0  0  0  0
M  END
>  <MODEL>
8

>  <REMARK>
 VINA RESULT:      -6.9      3.601      6.670
  Name = 
  4 active torsions:
  status: ('A' for Active; 'I' for Inactive)
    1  A    between atoms: C_12  and  C_28
    2  A    between atoms: C_13  and  C_29
    3  A    between atoms: C_16  and  C_27
    4  A    between atoms: N_19  and  O_26
                            x       y       z     vdW  Elec       q    Type
                         _______ _______ _______ _____ _____    ______ ____

>  <TORSDO>
F 4

$$$$
=
 OpenBabel11052414343D

 32 37  0  0  1  0  0  0  0  0999 V2000
  183.5730  178.7820  141.0330 C   0  0  1  0  0  3  0  0  0  0  0  0
  185.3820  178.6240  139.3450 C   0  0  1  0  0  3  0  0  0  0  0  0
  183.2090  178.7380  142.5270 C   0  0  0  0  0  2  0  0  0  0  0  0
  185.0160  178.3720  140.7820 C   0  0  1  0  0  3  0  0  0  0  0  0
  186.6560  177.8790  139.1060 C   0  0  1  0  0  3  0  0  0  0  0  0
  184.3860  178.1250  138.3120 C   0  0  1  0  0  3  0  0  0  0  0  0
  185.2560  177.4790  137.2090 C   0  0  1  0  0  3  0  0  0  0  0  0
  186.0130  179.1300  141.6570 C   0  0  2  0  0  3  0  0  0  0  0  0
  186.7150  177.7540  137.6010 C   0  0  0  0  0  2  0  0  0  0  0  0
  187.4500  178.6400  141.3630 C   0  0  0  0  0  2  0  0  0  0  0  0
  185.6700  179.0110  143.1500 C   0  0  0  0  0  2  0  0  0  0  0  0
  183.2720  177.2560  138.9380 C   0  0  0  0  0  2  0  0  0  0  0  0
  182.6130  177.9270  140.1770 C   0  0  2  0  0  3  0  0  0  0  0  0
  187.7830  178.6140  139.8480 C   0  0  1  0  0  3  0  0  0  0  0  0
  184.3600  178.2510  143.4230 C   0  0  0  0  0  2  0  0  0  0  0  0
  180.9120  178.7650  137.2750 C   0  0  1  0  0  3  0  0  0  0  0  0
  179.9750  178.3410  136.3290 O   0  0  0  0  0  1  0  0  0  0  0  0
  181.9240  180.6710  138.3410 C   0  0  0  0  0  2  0  0  0  0  0  0
  181.3310  178.7010  139.8420 C   0  0  1  0  0  3  0  0  0  0  0  0
  180.9500  180.2350  137.3310 N   0  0  0  0  0  0  0  0  0  0  0  0
  181.5270  180.2200  139.7530 C   0  0  0  0  0  2  0  0  0  0  0  0
  180.6400  178.1500  138.6280 C   0  0  0  0  0  0  0  0  0  0  0  0
  179.9290  177.1620  138.7330 O   0  0  0  0  0  0  0  0  0  0  0  0
  179.5870  181.9110  136.9910 C   0  0  0  0  0  1  0  0  0  0  0  0
  179.7220  180.7020  137.6800 O   0  0  0  0  0  0  0  0  0  0  0  0
  185.3500  173.8490  136.8750 N   0  0  0  0  0  0  0  0  0  0  0  0
  183.8770  175.4000  136.5200 C   0  0  0  0  0  3  0  0  0  0  0  0
  185.0170  176.0090  137.0070 C   0  0  0  0  0  0  0  0  0  0  0  0
  184.1410  174.1150  136.4710 O   0  0  0  0  0  0  0  0  0  0  0  0
  185.9400  175.0100  137.2160 C   0  0  0  0  0  3  0  0  0  0  0  0
  189.0970  177.9250  139.6600 C   0  0  0  0  0  3  0  0  0  0  0  0
  189.5950  177.1290  140.6040 C   0  0  0  0  0  2  0  0  0  0  0  0
  1  3  1  1  0  0  0
  2  4  1  0  0  0  0
  3 15  1  0  0  0  0
  4  1  1  0  0  0  0
  4  8  1  0  0  0  0
  5  2  1  0  0  0  0
  5 14  1  0  0  0  0
  6 12  1  0  0  0  0
  6  2  1  0  0  0  0
  7  9  1  0  0  0  0
  7  6  1  0  0  0  0
  8 11  1  0  0  0  0
  9  5  1  0  0  0  0
 10  8  1  0  0  0  0
 11 15  1  0  0  0  0
 12 13  1  0  0  0  0
 13  1  1  0  0  0  0
 14 10  1  0  0  0  0
 16 20  1  0  0  0  0
 16 22  1  0  0  0  0
 17 16  1  0  0  0  0
 18 21  1  0  0  0  0
 19 13  1  0  0  0  0
 20 25  1  0  0  0  0
 20 18  1  0  0  0  0
 21 19  1  0  0  0  0
 22 23  2  0  0  0  0
 22 19  1  0  0  0  0
 24 25  1  0  0  0  0
 26 30  2  0  0  0  0
 27 28  2  0  0  0  0
 28  7  1  0  0  0  0
 28 30  1  0  0  0  0
 29 27  1  0  0  0  0
 29 26  1  0  0  0  0
 31 14  1  0  0  0  0
 31 32  2  0  0  0  0
M  END
>  <MODEL>
9

>  <REMARK>
 VINA RESULT:      -6.7      4.760      8.136
  Name = 
  4 active torsions:
  status: ('A' for Active; 'I' for Inactive)
    1  A    between atoms: C_12  and  C_28
    2  A    between atoms: C_13  and  C_29
    3  A    between atoms: C_16  and  C_27
    4  A    between atoms: N_19  and  O_26
                            x       y       z     vdW  Elec       q    Type
                         _______ _______ _______ _____ _____    ______ ____

>  <TORSDO>
F 4

$$$$
