=
 OpenBabel11052412433D

 25 28  0  0  1  0  0  0  0  0999 V2000
  187.0800  177.8620  145.4730 C   0  0  0  0  0  0  0  0  0  0  0  0
  186.2400  178.2520  144.4100 C   0  0  0  0  0  0  0  0  0  0  0  0
  185.2350  178.1950  147.0030 C   0  0  0  0  0  3  0  0  0  0  0  0
  184.4390  178.5690  145.9680 N   0  0  0  0  0  0  0  0  0  0  0  0
  184.0520  179.0080  143.6410 C   0  0  0  0  0  0  0  0  0  0  0  0
  182.3820  179.4600  143.9420 Cl  0  0  0  0  0  0  0  0  0  0  0  0
  186.7060  178.3160  143.0890 C   0  0  0  0  0  3  0  0  0  0  0  0
  186.5630  177.8350  146.7730 C   0  0  0  0  0  3  0  0  0  0  0  0
  184.5370  179.0580  142.3320 C   0  0  0  0  0  3  0  0  0  0  0  0
  185.8600  178.7070  142.0450 C   0  0  0  0  0  0  0  0  0  0  0  0
  184.8980  178.6080  144.6870 C   0  0  0  0  0  0  0  0  0  0  0  0
  188.4850  177.4480  145.2560 C   0  0  0  0  0  0  0  0  0  0  0  0
  191.1250  176.6220  144.7750 C   0  0  0  0  0  3  0  0  0  0  0  0
  189.4550  177.5360  146.2780 C   0  0  0  0  0  0  0  0  0  0  0  0
  190.7670  177.1250  146.0280 C   0  0  0  0  0  3  0  0  0  0  0  0
  190.1700  176.5320  143.7620 C   0  0  0  0  0  3  0  0  0  0  0  0
  189.0830  178.2010  147.8630 Cl  0  0  0  0  0  0  0  0  0  0  0  0
  188.8570  176.9420  144.0020 C   0  0  0  0  0  3  0  0  0  0  0  0
  186.3180  178.8020  140.6890 N   0  0  0  0  0  2  0  0  0  0  0  0
  185.5950  178.4790  139.4910 C   0  0  0  0  0  0  0  0  0  0  0  0
  186.2290  178.4080  138.4050 O   0  0  0  0  0  0  0  0  0  0  0  0
  184.1100  178.2140  139.4970 C   0  0  2  0  0  3  0  0  0  0  0  0
  184.0220  180.5870  138.9310 O   0  0  0  0  0  1  0  0  0  0  0  0
  183.5040  178.4170  138.1190 C   0  0  0  0  0  2  0  0  0  0  0  0
  183.2540  179.4500  139.1940 C   0  0  1  0  0  3  0  0  0  0  0  0
  1  8  1  0  0  0  0
  2 11  1  0  0  0  0
  2  1  2  0  0  0  0
  4  3  1  0  0  0  0
  5  6  1  0  0  0  0
  5 11  1  0  0  0  0
  7  2  1  0  0  0  0
  8  3  2  0  0  0  0
  9  5  2  0  0  0  0
 10  9  1  0  0  0  0
 10  7  2  0  0  0  0
 11  4  2  0  0  0  0
 12  1  1  0  0  0  0
 12 14  1  0  0  0  0
 13 15  1  0  0  0  0
 14 17  1  0  0  0  0
 15 14  2  0  0  0  0
 16 18  1  0  0  0  0
 16 13  2  0  0  0  0
 18 12  2  0  0  0  0
 19 10  1  0  0  0  0
 20 19  1  0  0  0  0
 21 20  2  0  0  0  0
 22 20  1  6  0  0  0
 24 25  1  0  0  0  0
 24 22  1  0  0  0  0
 25 23  1  6  0  0  0
 25 22  1  0  0  0  0
M  END
>  <MODEL>
1

>  <REMARK>
 VINA RESULT:      -9.7      0.000      0.000
  Name = 
  3 active torsions:
  status: ('A' for Active; 'I' for Inactive)
    1  A    between atoms: C_1  and  C_5
    2  A    between atoms: C_2  and  C_15
    3  A    between atoms: N_6  and  C_23
                            x       y       z     vdW  Elec       q    Type
                         _______ _______ _______ _____ _____    ______ ____

>  <TORSDO>
F 3

$$$$
=
 OpenBabel11052412433D

 25 28  0  0  1  0  0  0  0  0999 V2000
  187.9610  177.9230  144.8930 C   0  0  0  0  0  0  0  0  0  0  0  0
  186.8030  178.2850  144.1720 C   0  0  0  0  0  0  0  0  0  0  0  0
  186.6130  177.7530  146.8960 C   0  0  0  0  0  3  0  0  0  0  0  0
  185.5090  178.1020  146.1880 N   0  0  0  0  0  0  0  0  0  0  0  0
  184.4070  178.7370  144.1530 C   0  0  0  0  0  0  0  0  0  0  0  0
  182.8520  178.8570  144.9620 Cl  0  0  0  0  0  0  0  0  0  0  0  0
  186.8520  178.5830  142.8030 C   0  0  0  0  0  3  0  0  0  0  0  0
  187.8520  177.6560  146.2620 C   0  0  0  0  0  3  0  0  0  0  0  0
  184.4780  179.0230  142.7880 C   0  0  0  0  0  3  0  0  0  0  0  0
  185.6940  178.9410  142.1020 C   0  0  0  0  0  0  0  0  0  0  0  0
  185.5660  178.3700  144.8550 C   0  0  0  0  0  0  0  0  0  0  0  0
  189.2830  177.7860  144.2420 C   0  0  0  0  0  0  0  0  0  0  0  0
  191.8050  177.6060  143.0220 C   0  0  0  0  0  3  0  0  0  0  0  0
  189.5910  176.6920  143.4040 C   0  0  0  0  0  0  0  0  0  0  0  0
  190.8510  176.6100  142.8030 C   0  0  0  0  0  3  0  0  0  0  0  0
  191.5050  178.6890  143.8490 C   0  0  0  0  0  3  0  0  0  0  0  0
  188.4530  175.3830  143.1210 Cl  0  0  0  0  0  0  0  0  0  0  0  0
  190.2500  178.7780  144.4540 C   0  0  0  0  0  3  0  0  0  0  0  0
  185.7210  179.2720  140.7070 N   0  0  0  0  0  2  0  0  0  0  0  0
  184.9820  178.6550  139.6420 C   0  0  0  0  0  0  0  0  0  0  0  0
  185.3000  178.9230  138.4530 O   0  0  0  0  0  0  0  0  0  0  0  0
  183.8500  177.6930  139.9040 C   0  0  2  0  0  3  0  0  0  0  0  0
  182.5040  179.6970  139.5360 O   0  0  0  0  0  1  0  0  0  0  0  0
  182.9650  177.5310  138.6810 C   0  0  0  0  0  2  0  0  0  0  0  0
  182.4580  178.3380  139.8540 C   0  0  1  0  0  3  0  0  0  0  0  0
  1  8  1  0  0  0  0
  2 11  1  0  0  0  0
  2  1  2  0  0  0  0
  4  3  1  0  0  0  0
  5 11  1  0  0  0  0
  5  6  1  0  0  0  0
  7  2  1  0  0  0  0
  8  3  2  0  0  0  0
  9  5  2  0  0  0  0
 10  9  1  0  0  0  0
 10  7  2  0  0  0  0
 11  4  2  0  0  0  0
 12 18  1  0  0  0  0
 12  1  1  0  0  0  0
 13 16  1  0  0  0  0
 14 12  2  0  0  0  0
 15 13  2  0  0  0  0
 15 14  1  0  0  0  0
 16 18  2  0  0  0  0
 17 14  1  0  0  0  0
 19 10  1  0  0  0  0
 20 19  1  0  0  0  0
 21 20  2  0  0  0  0
 22 20  1  6  0  0  0
 24 25  1  0  0  0  0
 24 22  1  0  0  0  0
 25 23  1  6  0  0  0
 25 22  1  0  0  0  0
M  END
>  <MODEL>
2

>  <REMARK>
 VINA RESULT:      -9.7      1.617      1.882
  Name = 
  3 active torsions:
  status: ('A' for Active; 'I' for Inactive)
    1  A    between atoms: C_1  and  C_5
    2  A    between atoms: C_2  and  C_15
    3  A    between atoms: N_6  and  C_23
                            x       y       z     vdW  Elec       q    Type
                         _______ _______ _______ _____ _____    ______ ____

>  <TORSDO>
F 3

$$$$
=
 OpenBabel11052412433D

 25 28  0  0  1  0  0  0  0  0999 V2000
  187.6020  177.5470  145.8160 C   0  0  0  0  0  0  0  0  0  0  0  0
  188.9840  177.4380  145.5500 C   0  0  0  0  0  0  0  0  0  0  0  0
  187.9810  176.5500  147.9880 C   0  0  0  0  0  3  0  0  0  0  0  0
  189.3080  176.4520  147.7170 N   0  0  0  0  0  0  0  0  0  0  0  0
  191.2070  176.7530  146.2820 C   0  0  0  0  0  0  0  0  0  0  0  0
  192.2940  176.0600  147.4740 Cl  0  0  0  0  0  0  0  0  0  0  0  0
  189.5330  177.8520  144.3290 C   0  0  0  0  0  3  0  0  0  0  0  0
  187.1100  177.0980  147.0470 C   0  0  0  0  0  3  0  0  0  0  0  0
  191.7330  177.1790  145.0590 C   0  0  0  0  0  3  0  0  0  0  0  0
  190.9060  177.7370  144.0800 C   0  0  0  0  0  0  0  0  0  0  0  0
  189.8320  176.8760  146.5350 C   0  0  0  0  0  0  0  0  0  0  0  0
  186.6590  178.1490  144.8470 C   0  0  0  0  0  0  0  0  0  0  0  0
  184.9160  179.2600  142.9470 C   0  0  0  0  0  3  0  0  0  0  0  0
  185.7560  179.1680  145.2210 C   0  0  0  0  0  0  0  0  0  0  0  0
  184.8900  179.7130  144.2680 C   0  0  0  0  0  3  0  0  0  0  0  0
  185.8060  178.2540  142.5730 C   0  0  0  0  0  3  0  0  0  0  0  0
  185.6410  179.7530  146.8750 Cl  0  0  0  0  0  0  0  0  0  0  0  0
  186.6740  177.7020  143.5180 C   0  0  0  0  0  3  0  0  0  0  0  0
  191.4890  178.1330  142.8310 N   0  0  0  0  0  2  0  0  0  0  0  0
  191.2800  177.5460  141.5370 C   0  0  0  0  0  0  0  0  0  0  0  0
  192.0460  177.8770  140.5940 O   0  0  0  0  0  0  0  0  0  0  0  0
  190.1850  176.5410  141.2800 C   0  0  2  0  0  3  0  0  0  0  0  0
  188.9620  178.5460  140.6110 O   0  0  0  0  0  1  0  0  0  0  0  0
  189.8200  176.4840  139.8060 C   0  0  0  0  0  2  0  0  0  0  0  0
  188.8750  177.1620  140.7730 C   0  0  1  0  0  3  0  0  0  0  0  0
  1  8  1  0  0  0  0
  2  1  2  0  0  0  0
  2 11  1  0  0  0  0
  4  3  1  0  0  0  0
  5 11  1  0  0  0  0
  5  6  1  0  0  0  0
  7  2  1  0  0  0  0
  8  3  2  0  0  0  0
  9  5  2  0  0  0  0
 10  7  2  0  0  0  0
 10  9  1  0  0  0  0
 11  4  2  0  0  0  0
 12 14  1  0  0  0  0
 12  1  1  0  0  0  0
 13 15  1  0  0  0  0
 14 17  1  0  0  0  0
 15 14  2  0  0  0  0
 16 13  2  0  0  0  0
 16 18  1  0  0  0  0
 18 12  2  0  0  0  0
 19 10  1  0  0  0  0
 20 19  1  0  0  0  0
 21 20  2  0  0  0  0
 22 20  1  6  0  0  0
 24 25  1  0  0  0  0
 24 22  1  0  0  0  0
 25 23  1  6  0  0  0
 25 22  1  0  0  0  0
M  END
>  <MODEL>
3

>  <REMARK>
 VINA RESULT:      -9.6      2.974      5.656
  Name = 
  3 active torsions:
  status: ('A' for Active; 'I' for Inactive)
    1  A    between atoms: C_1  and  C_5
    2  A    between atoms: C_2  and  C_15
    3  A    between atoms: N_6  and  C_23
                            x       y       z     vdW  Elec       q    Type
                         _______ _______ _______ _____ _____    ______ ____

>  <TORSDO>
F 3

$$$$
=
 OpenBabel11052412433D

 25 28  0  0  1  0  0  0  0  0999 V2000
  187.0110  177.7900  144.2540 C   0  0  0  0  0  0  0  0  0  0  0  0
  187.9280  177.8450  143.1830 C   0  0  0  0  0  0  0  0  0  0  0  0
  188.7900  176.9890  145.6850 C   0  0  0  0  0  3  0  0  0  0  0  0
  189.6600  177.0480  144.6440 N   0  0  0  0  0  0  0  0  0  0  0  0
  190.1940  177.5020  142.3500 C   0  0  0  0  0  0  0  0  0  0  0  0
  191.8700  177.0310  142.5840 Cl  0  0  0  0  0  0  0  0  0  0  0  0
  187.5370  178.2500  141.8990 C   0  0  0  0  0  3  0  0  0  0  0  0
  187.4570  177.3600  145.5090 C   0  0  0  0  0  3  0  0  0  0  0  0
  189.7830  177.9150  141.0800 C   0  0  0  0  0  3  0  0  0  0  0  0
  188.4590  178.2980  140.8470 C   0  0  0  0  0  0  0  0  0  0  0  0
  189.2720  177.4610  143.4070 C   0  0  0  0  0  0  0  0  0  0  0  0
  185.5980  178.2040  144.1020 C   0  0  0  0  0  0  0  0  0  0  0  0
  182.9280  178.9870  143.7310 C   0  0  0  0  0  3  0  0  0  0  0  0
  184.8590  178.7440  145.1770 C   0  0  0  0  0  0  0  0  0  0  0  0
  183.5290  179.1280  144.9840 C   0  0  0  0  0  3  0  0  0  0  0  0
  183.6530  178.4540  142.6650 C   0  0  0  0  0  3  0  0  0  0  0  0
  185.5420  178.9080  146.7890 Cl  0  0  0  0  0  0  0  0  0  0  0  0
  184.9810  178.0660  142.8500 C   0  0  0  0  0  3  0  0  0  0  0  0
  188.0790  178.6870  139.5190 N   0  0  0  0  0  2  0  0  0  0  0  0
  188.7750  178.4220  138.2920 C   0  0  0  0  0  0  0  0  0  0  0  0
  188.4150  179.0320  137.2500 O   0  0  0  0  0  0  0  0  0  0  0  0
  189.9240  177.4480  138.2160 C   0  0  2  0  0  3  0  0  0  0  0  0
  188.1300  175.8910  137.6480 O   0  0  0  0  0  1  0  0  0  0  0  0
  190.1030  176.9100  136.8070 C   0  0  0  0  0  2  0  0  0  0  0  0
  189.5050  176.0130  137.8670 C   0  0  1  0  0  3  0  0  0  0  0  0
  1  8  1  0  0  0  0
  2 11  1  0  0  0  0
  2  1  2  0  0  0  0
  4  3  1  0  0  0  0
  5  6  1  0  0  0  0
  5 11  1  0  0  0  0
  7  2  1  0  0  0  0
  8  3  2  0  0  0  0
  9  5  2  0  0  0  0
 10  9  1  0  0  0  0
 10  7  2  0  0  0  0
 11  4  2  0  0  0  0
 12  1  1  0  0  0  0
 12 14  1  0  0  0  0
 13 15  1  0  0  0  0
 14 17  1  0  0  0  0
 15 14  2  0  0  0  0
 16 18  1  0  0  0  0
 16 13  2  0  0  0  0
 18 12  2  0  0  0  0
 19 10  1  0  0  0  0
 20 19  1  0  0  0  0
 21 20  2  0  0  0  0
 22 20  1  6  0  0  0
 24 25  1  0  0  0  0
 24 22  1  0  0  0  0
 25 23  1  6  0  0  0
 25 22  1  0  0  0  0
M  END
>  <MODEL>
4

>  <REMARK>
 VINA RESULT:      -9.5      2.987      5.299
  Name = 
  3 active torsions:
  status: ('A' for Active; 'I' for Inactive)
    1  A    between atoms: C_1  and  C_5
    2  A    between atoms: C_2  and  C_15
    3  A    between atoms: N_6  and  C_23
                            x       y       z     vdW  Elec       q    Type
                         _______ _______ _______ _____ _____    ______ ____

>  <TORSDO>
F 3

$$$$
=
 OpenBabel11052412433D

 25 28  0  0  1  0  0  0  0  0999 V2000
  188.2950  177.1190  143.8430 C   0  0  0  0  0  0  0  0  0  0  0  0
  188.1260  177.4990  142.4950 C   0  0  0  0  0  0  0  0  0  0  0  0
  190.2330  175.8230  143.1950 C   0  0  0  0  0  3  0  0  0  0  0  0
  190.0570  176.1980  141.9020 N   0  0  0  0  0  0  0  0  0  0  0  0
  188.8760  177.3760  140.1770 C   0  0  0  0  0  0  0  0  0  0  0  0
  189.9820  176.7970  138.9410 Cl  0  0  0  0  0  0  0  0  0  0  0  0
  187.0680  178.3240  142.0890 C   0  0  0  0  0  3  0  0  0  0  0  0
  189.3610  176.2780  144.1830 C   0  0  0  0  0  3  0  0  0  0  0  0
  187.8180  178.2060  139.7980 C   0  0  0  0  0  3  0  0  0  0  0  0
  186.9130  178.6900  140.7470 C   0  0  0  0  0  0  0  0  0  0  0  0
  189.0370  177.0150  141.5240 C   0  0  0  0  0  0  0  0  0  0  0  0
  187.4010  177.6080  144.9160 C   0  0  0  0  0  0  0  0  0  0  0  0
  185.6480  178.5550  146.8940 C   0  0  0  0  0  3  0  0  0  0  0  0
  187.8740  177.8660  146.2210 C   0  0  0  0  0  0  0  0  0  0  0  0
  186.9930  178.3350  147.2000 C   0  0  0  0  0  3  0  0  0  0  0  0
  185.1760  178.3030  145.6060 C   0  0  0  0  0  3  0  0  0  0  0  0
  189.5440  177.5680  146.6840 Cl  0  0  0  0  0  0  0  0  0  0  0  0
  186.0480  177.8320  144.6230 C   0  0  0  0  0  3  0  0  0  0  0  0
  185.8260  179.5150  140.3040 N   0  0  0  0  0  2  0  0  0  0  0  0
  184.4560  179.1350  140.1100 C   0  0  0  0  0  0  0  0  0  0  0  0
  183.6900  179.9290  139.5020 O   0  0  0  0  0  0  0  0  0  0  0  0
  183.9120  177.8160  140.6010 C   0  0  2  0  0  3  0  0  0  0  0  0
  183.4240  179.1390  142.5940 O   0  0  0  0  0  1  0  0  0  0  0  0
  182.4150  177.8900  140.8460 C   0  0  0  0  0  2  0  0  0  0  0  0
  183.3550  177.8630  142.0300 C   0  0  1  0  0  3  0  0  0  0  0  0
  1  8  1  0  0  0  0
  1 12  1  0  0  0  0
  2  1  2  0  0  0  0
  3  8  2  0  0  0  0
  4  3  1  0  0  0  0
  5 11  1  0  0  0  0
  6  5  1  0  0  0  0
  7  2  1  0  0  0  0
  9  5  2  0  0  0  0
  9 10  1  0  0  0  0
 10  7  2  0  0  0  0
 11  4  2  0  0  0  0
 11  2  1  0  0  0  0
 12 14  1  0  0  0  0
 13 15  1  0  0  0  0
 14 17  1  0  0  0  0
 14 15  2  0  0  0  0
 16 13  2  0  0  0  0
 18 12  2  0  0  0  0
 18 16  1  0  0  0  0
 19 10  1  0  0  0  0
 20 19  1  0  0  0  0
 21 20  2  0  0  0  0
 22 20  1  6  0  0  0
 22 24  1  0  0  0  0
 22 25  1  0  0  0  0
 24 25  1  0  0  0  0
 25 23  1  6  0  0  0
M  END
>  <MODEL>
5

>  <REMARK>
 VINA RESULT:      -9.5      2.617      4.285
  Name = 
  3 active torsions:
  status: ('A' for Active; 'I' for Inactive)
    1  A    between atoms: C_1  and  C_5
    2  A    between atoms: C_2  and  C_15
    3  A    between atoms: N_6  and  C_23
                            x       y       z     vdW  Elec       q    Type
                         _______ _______ _______ _____ _____    ______ ____

>  <TORSDO>
F 3

$$$$
=
 OpenBabel11052412433D

 25 28  0  0  1  0  0  0  0  0999 V2000
  188.3840  177.1990  143.8610 C   0  0  0  0  0  0  0  0  0  0  0  0
  188.0920  177.5670  142.5300 C   0  0  0  0  0  0  0  0  0  0  0  0
  190.3600  176.0490  143.0690 C   0  0  0  0  0  3  0  0  0  0  0  0
  190.0650  176.4110  141.7930 N   0  0  0  0  0  0  0  0  0  0  0  0
  188.6820  177.5030  140.1650 C   0  0  0  0  0  0  0  0  0  0  0  0
  189.7360  177.0080  138.8500 Cl  0  0  0  0  0  0  0  0  0  0  0  0
  186.9500  178.3120  142.2060 C   0  0  0  0  0  3  0  0  0  0  0  0
  189.5290  176.4370  144.1190 C   0  0  0  0  0  3  0  0  0  0  0  0
  187.5420  178.2530  139.8670 C   0  0  0  0  0  3  0  0  0  0  0  0
  186.6740  178.6680  140.8810 C   0  0  0  0  0  0  0  0  0  0  0  0
  188.9640  177.1530  141.4950 C   0  0  0  0  0  0  0  0  0  0  0  0
  187.5350  177.6190  144.9980 C   0  0  0  0  0  0  0  0  0  0  0  0
  185.8660  178.4400  147.1010 C   0  0  0  0  0  3  0  0  0  0  0  0
  188.0640  177.8100  146.2930 C   0  0  0  0  0  0  0  0  0  0  0  0
  187.2250  178.2160  147.3340 C   0  0  0  0  0  3  0  0  0  0  0  0
  185.3380  178.2530  145.8230 C   0  0  0  0  0  3  0  0  0  0  0  0
  189.7560  177.5040  146.6640 Cl  0  0  0  0  0  0  0  0  0  0  0  0
  186.1690  177.8450  144.7780 C   0  0  0  0  0  3  0  0  0  0  0  0
  185.5010  179.4120  140.5220 N   0  0  0  0  0  2  0  0  0  0  0  0
  184.6730  179.2410  139.3620 C   0  0  0  0  0  0  0  0  0  0  0  0
  183.8190  180.1290  139.0940 O   0  0  0  0  0  0  0  0  0  0  0  0
  184.8000  178.0430  138.4540 C   0  0  2  0  0  3  0  0  0  0  0  0
  182.9410  177.2340  139.8140 O   0  0  0  0  0  1  0  0  0  0  0  0
  183.5550  177.8540  137.6060 C   0  0  0  0  0  2  0  0  0  0  0  0
  183.8060  176.9160  138.7650 C   0  0  1  0  0  3  0  0  0  0  0  0
  1  8  1  0  0  0  0
  1 12  1  0  0  0  0
  2  1  2  0  0  0  0
  3  8  2  0  0  0  0
  4  3  1  0  0  0  0
  5 11  1  0  0  0  0
  6  5  1  0  0  0  0
  7  2  1  0  0  0  0
  9  5  2  0  0  0  0
  9 10  1  0  0  0  0
 10  7  2  0  0  0  0
 11  4  2  0  0  0  0
 11  2  1  0  0  0  0
 12 14  1  0  0  0  0
 13 15  1  0  0  0  0
 14 17  1  0  0  0  0
 14 15  2  0  0  0  0
 16 13  2  0  0  0  0
 18 12  2  0  0  0  0
 18 16  1  0  0  0  0
 19 10  1  0  0  0  0
 20 19  1  0  0  0  0
 21 20  2  0  0  0  0
 22 25  1  0  0  0  0
 22 20  1  1  0  0  0
 24 22  1  0  0  0  0
 24 25  1  0  0  0  0
 25 23  1  1  0  0  0
M  END
>  <MODEL>
6

>  <REMARK>
 VINA RESULT:      -9.4      2.532      4.146
  Name = 
  3 active torsions:
  status: ('A' for Active; 'I' for Inactive)
    1  A    between atoms: C_1  and  C_5
    2  A    between atoms: C_2  and  C_15
    3  A    between atoms: N_6  and  C_23
                            x       y       z     vdW  Elec       q    Type
                         _______ _______ _______ _____ _____    ______ ____

>  <TORSDO>
F 3

$$$$
=
 OpenBabel11052412433D

 25 28  0  0  1  0  0  0  0  0999 V2000
  187.9960  177.9290  144.6940 C   0  0  0  0  0  0  0  0  0  0  0  0
  186.9090  178.1450  143.8200 C   0  0  0  0  0  0  0  0  0  0  0  0
  186.4530  177.9650  146.5580 C   0  0  0  0  0  3  0  0  0  0  0  0
  185.4180  178.1730  145.7040 N   0  0  0  0  0  0  0  0  0  0  0  0
  184.5160  178.4920  143.5030 C   0  0  0  0  0  0  0  0  0  0  0  0
  182.8840  178.6510  144.1300 Cl  0  0  0  0  0  0  0  0  0  0  0  0
  187.0910  178.2640  142.4360 C   0  0  0  0  0  3  0  0  0  0  0  0
  187.7530  177.8380  146.0700 C   0  0  0  0  0  3  0  0  0  0  0  0
  184.7210  178.6000  142.1260 C   0  0  0  0  0  3  0  0  0  0  0  0
  186.0030  178.4800  141.5820 C   0  0  0  0  0  0  0  0  0  0  0  0
  185.6060  178.2670  144.3590 C   0  0  0  0  0  0  0  0  0  0  0  0
  189.3810  177.7630  144.2020 C   0  0  0  0  0  0  0  0  0  0  0  0
  192.0220  177.5300  143.2780 C   0  0  0  0  0  3  0  0  0  0  0  0
  189.7910  176.6070  143.5020 C   0  0  0  0  0  0  0  0  0  0  0  0
  191.1080  176.4990  143.0480 C   0  0  0  0  0  3  0  0  0  0  0  0
  191.6230  178.6740  143.9680 C   0  0  0  0  0  3  0  0  0  0  0  0
  188.7040  175.2540  143.2180 Cl  0  0  0  0  0  0  0  0  0  0  0  0
  190.3090  178.7900  144.4270 C   0  0  0  0  0  3  0  0  0  0  0  0
  186.1660  178.6270  140.1640 N   0  0  0  0  0  2  0  0  0  0  0  0
  187.3820  178.5500  139.4050 C   0  0  0  0  0  0  0  0  0  0  0  0
  187.3690  178.9280  138.2040 O   0  0  0  0  0  0  0  0  0  0  0  0
  188.6700  178.0430  140.0040 C   0  0  2  0  0  3  0  0  0  0  0  0
  188.3860  176.3080  138.3100 O   0  0  0  0  0  1  0  0  0  0  0  0
  189.8050  178.0840  138.9960 C   0  0  0  0  0  2  0  0  0  0  0  0
  189.1920  176.7510  139.3620 C   0  0  1  0  0  3  0  0  0  0  0  0
  1  8  1  0  0  0  0
  2 11  1  0  0  0  0
  2  1  2  0  0  0  0
  4  3  1  0  0  0  0
  5  6  1  0  0  0  0
  5 11  1  0  0  0  0
  7  2  1  0  0  0  0
  8  3  2  0  0  0  0
  9  5  2  0  0  0  0
 10  9  1  0  0  0  0
 10  7  2  0  0  0  0
 11  4  2  0  0  0  0
 12 18  1  0  0  0  0
 12  1  1  0  0  0  0
 13 16  1  0  0  0  0
 14 12  2  0  0  0  0
 15 13  2  0  0  0  0
 15 14  1  0  0  0  0
 16 18  2  0  0  0  0
 17 14  1  0  0  0  0
 19 10  1  0  0  0  0
 20 19  1  0  0  0  0
 21 20  2  0  0  0  0
 22 20  1  6  0  0  0
 24 25  1  0  0  0  0
 24 22  1  0  0  0  0
 25 23  1  6  0  0  0
 25 22  1  0  0  0  0
M  END
>  <MODEL>
7

>  <REMARK>
 VINA RESULT:      -9.3      2.118      2.996
  Name = 
  3 active torsions:
  status: ('A' for Active; 'I' for Inactive)
    1  A    between atoms: C_1  and  C_5
    2  A    between atoms: C_2  and  C_15
    3  A    between atoms: N_6  and  C_23
                            x       y       z     vdW  Elec       q    Type
                         _______ _______ _______ _____ _____    ______ ____

>  <TORSDO>
F 3

$$$$
=
 OpenBabel11052412433D

 25 28  0  0  1  0  0  0  0  0999 V2000
  185.6400  178.2400  144.3180 C   0  0  0  0  0  0  0  0  0  0  0  0
  185.6760  178.4420  142.9230 C   0  0  0  0  0  0  0  0  0  0  0  0
  183.2520  178.6260  144.2740 C   0  0  0  0  0  3  0  0  0  0  0  0
  183.3030  178.8190  142.9310 N   0  0  0  0  0  0  0  0  0  0  0  0
  184.4930  178.9500  140.8510 C   0  0  0  0  0  0  0  0  0  0  0  0
  183.0230  179.3200  139.9650 Cl  0  0  0  0  0  0  0  0  0  0  0  0
  186.8760  178.3810  142.2010 C   0  0  0  0  0  3  0  0  0  0  0  0
  184.4140  178.3330  144.9870 C   0  0  0  0  0  3  0  0  0  0  0  0
  185.7000  178.8770  140.1520 C   0  0  0  0  0  3  0  0  0  0  0  0
  186.8950  178.5860  140.8160 C   0  0  0  0  0  0  0  0  0  0  0  0
  184.4720  178.7370  142.2390 C   0  0  0  0  0  0  0  0  0  0  0  0
  186.8530  177.9000  145.0960 C   0  0  0  0  0  0  0  0  0  0  0  0
  189.1730  177.2000  146.5130 C   0  0  0  0  0  3  0  0  0  0  0  0
  186.9970  178.2680  146.4510 C   0  0  0  0  0  0  0  0  0  0  0  0
  188.1570  177.9170  147.1480 C   0  0  0  0  0  3  0  0  0  0  0  0
  189.0360  176.8330  145.1740 C   0  0  0  0  0  3  0  0  0  0  0  0
  185.7760  179.2090  147.2980 Cl  0  0  0  0  0  0  0  0  0  0  0  0
  187.8810  177.1810  144.4700 C   0  0  0  0  0  3  0  0  0  0  0  0
  188.1130  178.5500  140.0580 N   0  0  0  0  0  2  0  0  0  0  0  0
  188.3640  177.8480  138.8310 C   0  0  0  0  0  0  0  0  0  0  0  0
  189.5540  177.7460  138.4280 O   0  0  0  0  0  0  0  0  0  0  0  0
  187.2550  177.2250  138.0210 C   0  0  2  0  0  3  0  0  0  0  0  0
  187.4200  179.3300  136.7950 O   0  0  0  0  0  1  0  0  0  0  0  0
  187.6860  176.9800  136.5860 C   0  0  0  0  0  2  0  0  0  0  0  0
  186.7340  178.1160  136.8860 C   0  0  1  0  0  3  0  0  0  0  0  0
  1  8  1  0  0  0  0
  1 12  1  0  0  0  0
  2  1  2  0  0  0  0
  3  8  2  0  0  0  0
  4  3  1  0  0  0  0
  5 11  1  0  0  0  0
  6  5  1  0  0  0  0
  7  2  1  0  0  0  0
  9 10  1  0  0  0  0
  9  5  2  0  0  0  0
 10  7  2  0  0  0  0
 11  2  1  0  0  0  0
 11  4  2  0  0  0  0
 12 14  1  0  0  0  0
 13 15  1  0  0  0  0
 14 15  2  0  0  0  0
 14 17  1  0  0  0  0
 16 13  2  0  0  0  0
 18 12  2  0  0  0  0
 18 16  1  0  0  0  0
 19 10  1  0  0  0  0
 20 19  1  0  0  0  0
 21 20  2  0  0  0  0
 22 20  1  1  0  0  0
 24 25  1  0  0  0  0
 24 22  1  0  0  0  0
 25 23  1  1  0  0  0
 25 22  1  0  0  0  0
M  END
>  <MODEL>
8

>  <REMARK>
 VINA RESULT:      -9.2      2.115      2.926
  Name = 
  3 active torsions:
  status: ('A' for Active; 'I' for Inactive)
    1  A    between atoms: C_1  and  C_5
    2  A    between atoms: C_2  and  C_15
    3  A    between atoms: N_6  and  C_23
                            x       y       z     vdW  Elec       q    Type
                         _______ _______ _______ _____ _____    ______ ____

>  <TORSDO>
F 3

$$$$
=
 OpenBabel11052412433D

 25 28  0  0  1  0  0  0  0  0999 V2000
  187.7280  177.5650  144.8030 C   0  0  0  0  0  0  0  0  0  0  0  0
  187.4300  177.9100  143.4670 C   0  0  0  0  0  0  0  0  0  0  0  0
  185.4020  177.9150  145.3710 C   0  0  0  0  0  3  0  0  0  0  0  0
  185.1320  178.2450  144.0820 N   0  0  0  0  0  0  0  0  0  0  0  0
  185.7890  178.6080  141.8030 C   0  0  0  0  0  0  0  0  0  0  0  0
  184.1530  179.0420  141.3370 Cl  0  0  0  0  0  0  0  0  0  0  0  0
  188.4210  177.9430  142.4770 C   0  0  0  0  0  3  0  0  0  0  0  0
  186.6980  177.5690  145.7510 C   0  0  0  0  0  3  0  0  0  0  0  0
  186.7930  178.6260  140.8320 C   0  0  0  0  0  3  0  0  0  0  0  0
  188.1100  178.2880  141.1570 C   0  0  0  0  0  0  0  0  0  0  0  0
  186.1000  178.2530  143.1250 C   0  0  0  0  0  0  0  0  0  0  0  0
  189.0880  177.1680  145.2280 C   0  0  0  0  0  0  0  0  0  0  0  0
  191.6810  176.3780  145.9610 C   0  0  0  0  0  3  0  0  0  0  0  0
  189.4790  177.1810  146.5850 C   0  0  0  0  0  0  0  0  0  0  0  0
  190.7730  176.7890  146.9400 C   0  0  0  0  0  3  0  0  0  0  0  0
  191.3000  176.3630  144.6200 C   0  0  0  0  0  3  0  0  0  0  0  0
  188.4000  177.7290  147.8610 Cl  0  0  0  0  0  0  0  0  0  0  0  0
  190.0100  176.7550  144.2560 C   0  0  0  0  0  3  0  0  0  0  0  0
  189.1100  178.3500  140.1300 N   0  0  0  0  0  2  0  0  0  0  0  0
  189.1330  177.6420  138.8810 C   0  0  0  0  0  0  0  0  0  0  0  0
  190.1970  177.6450  138.2060 O   0  0  0  0  0  0  0  0  0  0  0  0
  187.9330  176.8910  138.3630 C   0  0  2  0  0  3  0  0  0  0  0  0
  187.5170  179.0100  137.2220 O   0  0  0  0  0  1  0  0  0  0  0  0
  187.9970  176.7140  136.8560 C   0  0  0  0  0  2  0  0  0  0  0  0
  187.0290  177.7190  137.4380 C   0  0  1  0  0  3  0  0  0  0  0  0
  1 12  1  0  0  0  0
  1  8  1  0  0  0  0
  2  1  2  0  0  0  0
  3  8  2  0  0  0  0
  4  3  1  0  0  0  0
  5 11  1  0  0  0  0
  6  5  1  0  0  0  0
  7  2  1  0  0  0  0
  9 10  1  0  0  0  0
  9  5  2  0  0  0  0
 10  7  2  0  0  0  0
 11  2  1  0  0  0  0
 11  4  2  0  0  0  0
 12 14  1  0  0  0  0
 13 15  1  0  0  0  0
 14 15  2  0  0  0  0
 14 17  1  0  0  0  0
 16 13  2  0  0  0  0
 18 16  1  0  0  0  0
 18 12  2  0  0  0  0
 19 10  1  0  0  0  0
 20 19  1  0  0  0  0
 21 20  2  0  0  0  0
 22 20  1  6  0  0  0
 24 25  1  0  0  0  0
 24 22  1  0  0  0  0
 25 23  1  6  0  0  0
 25 22  1  0  0  0  0
M  END
>  <MODEL>
9

>  <REMARK>
 VINA RESULT:      -9.2      2.070      2.647
  Name = 
  3 active torsions:
  status: ('A' for Active; 'I' for Inactive)
    1  A    between atoms: C_1  and  C_5
    2  A    between atoms: C_2  and  C_15
    3  A    between atoms: N_6  and  C_23
                            x       y       z     vdW  Elec       q    Type
                         _______ _______ _______ _____ _____    ______ ____

>  <TORSDO>
F 3

$$$$
