=
 OpenBabel11052414013D

 34 38  0  0  1  0  0  0  0  0999 V2000
  183.9930  179.0110  144.2090 C   0  0  0  0  0  0  0  0  0  0  0  0
  184.1250  178.4470  141.7940 C   0  0  0  0  0  0  0  0  0  0  0  0
  186.2430  178.6570  143.1030 C   0  0  1  0  0  3  0  0  0  0  0  0
  189.0210  177.0130  142.0540 C   0  0  0  0  0  2  0  0  0  0  0  0
  183.8330  178.7050  146.5610 O   0  0  0  0  0  1  0  0  0  0  0  0
  182.7410  178.4840  141.6820 O   0  0  0  0  0  1  0  0  0  0  0  0
  186.2240  177.9240  140.6730 C   0  0  0  0  0  3  0  0  0  0  0  0
  184.7380  178.7630  142.9510 C   0  0  0  0  0  0  0  0  0  0  0  0
  188.3920  178.3840  141.8650 C   0  0  2  0  0  3  0  0  0  0  0  0
  182.7030  179.7690  144.2130 C   0  0  0  0  0  1  0  0  0  0  0  0
  186.5850  177.7500  144.2780 C   0  0  0  0  0  0  0  0  0  0  0  0
  184.5050  178.5290  145.3560 C   0  0  0  0  0  0  0  0  0  0  0  0
  184.8980  177.9980  140.6280 C   0  0  0  0  0  3  0  0  0  0  0  0
  188.2970  176.1820  143.1200 C   0  0  0  0  0  2  0  0  0  0  0  0
  187.8650  176.9530  144.3840 C   0  0  1  0  0  3  0  0  0  0  0  0
  186.9360  178.3030  141.8600 N   0  0  0  0  0  0  0  0  0  0  0  0
  185.7820  177.7750  145.3520 C   0  0  0  0  0  3  0  0  0  0  0  0
  190.7800  176.1360  146.0970 N   0  0  0  0  0  0  0  0  0  0  0  0
  190.9790  176.9420  147.3060 C   0  0  0  0  0  2  0  0  0  0  0  0
  188.9600  177.5800  145.2600 C   0  0  2  0  0  3  0  0  0  0  0  0
  189.7900  177.8680  147.6150 C   0  0  0  0  0  2  0  0  0  0  0  0
  190.3610  177.0060  144.9990 C   0  0  0  0  0  2  0  0  0  0  0  0
  188.5780  177.5520  146.7440 C   0  0  0  0  0  2  0  0  0  0  0  0
  192.0790  175.5990  145.7340 C   0  0  0  0  0  1  0  0  0  0  0  0
  188.9460  179.1240  140.6560 C   0  0  0  0  0  2  0  0  0  0  0  0
  189.6420  178.2210  139.8460 O   0  0  0  0  0  0  0  0  0  0  0  0
  189.1990  178.4690  138.5440 C   0  0  0  0  0  2  0  0  0  0  0  0
  186.9300  178.2160  136.7680 C   0  0  0  0  0  1  0  0  0  0  0  0
  188.9580  177.2070  137.8480 N   0  0  0  0  0  0  0  0  0  0  0  0
  187.5310  177.0240  137.5160 C   0  0  2  0  0  3  0  0  0  0  0  0
  188.1330  175.8410  135.4980 O   0  0  0  0  0  0  0  0  0  0  0  0
  189.4890  175.8870  135.8720 C   0  0  0  0  0  2  0  0  0  0  0  0
  189.7760  177.1810  136.6360 C   0  0  0  0  0  2  0  0  0  0  0  0
  187.3740  175.7470  136.6820 C   0  0  0  0  0  2  0  0  0  0  0  0
  1 10  1  0  0  0  0
  1 12  2  0  0  0  0
  2  8  2  0  0  0  0
  3  8  1  6  0  0  0
  3 11  1  0  0  0  0
  4 14  1  0  0  0  0
  6  2  1  0  0  0  0
  7 16  1  0  0  0  0
  8  1  1  0  0  0  0
  9 25  1  6  0  0  0
  9  4  1  0  0  0  0
 11 15  1  0  0  0  0
 11 17  2  0  0  0  0
 12  5  1  0  0  0  0
 13  7  2  0  0  0  0
 13  2  1  0  0  0  0
 15 14  1  6  0  0  0
 15 20  1  0  0  0  0
 16  9  1  0  0  0  0
 16  3  1  0  0  0  0
 17 12  1  0  0  0  0
 18 19  1  0  0  0  0
 19 21  1  0  0  0  0
 20 22  1  1  0  0  0
 20 23  1  0  0  0  0
 22 18  1  0  0  0  0
 23 21  1  0  0  0  0
 24 18  1  0  0  0  0
 26 25  1  0  0  0  0
 27 26  1  0  0  0  0
 29 27  1  0  0  0  0
 30 28  1  6  0  0  0
 30 29  1  0  0  0  0
 31 32  1  0  0  0  0
 31 34  1  0  0  0  0
 32 33  1  0  0  0  0
 33 29  1  0  0  0  0
 34 30  1  0  0  0  0
M  END
>  <MODEL>
1

>  <REMARK>
 VINA RESULT:      -7.6      0.000      0.000
  Name = 
  5 active torsions:
  status: ('A' for Active; 'I' for Inactive)
    1  A    between atoms: C_3  and  N_13
    2  A    between atoms: C_3  and  O_17
    3  A    between atoms: C_12  and  C_28
    4  A    between atoms: O_17  and  C_29
    5  A    between atoms: C_18  and  C_29
                            x       y       z     vdW  Elec       q    Type
                         _______ _______ _______ _____ _____    ______ ____

>  <TORSDO>
F 5

$$$$
=
 OpenBabel11052414013D

 34 38  0  0  1  0  0  0  0  0999 V2000
  188.9870  177.0720  146.1180 C   0  0  0  0  0  0  0  0  0  0  0  0
  191.0600  177.4570  144.8070 C   0  0  0  0  0  0  0  0  0  0  0  0
  188.8970  177.1660  143.5900 C   0  0  1  0  0  3  0  0  0  0  0  0
  188.5340  178.5050  140.4920 C   0  0  0  0  0  2  0  0  0  0  0  0
  187.0010  177.5510  147.3350 O   0  0  0  0  0  1  0  0  0  0  0  0
  191.8150  177.5250  145.9710 O   0  0  0  0  0  1  0  0  0  0  0  0
  191.0590  177.7310  142.3860 C   0  0  0  0  0  3  0  0  0  0  0  0
  189.7440  177.1720  144.8470 C   0  0  0  0  0  0  0  0  0  0  0  0
  188.9690  177.1790  141.0960 C   0  0  2  0  0  3  0  0  0  0  0  0
  189.5800  176.4240  147.3290 C   0  0  0  0  0  1  0  0  0  0  0  0
  187.7200  178.1210  143.7500 C   0  0  0  0  0  0  0  0  0  0  0  0
  187.7450  177.5890  146.1610 C   0  0  0  0  0  0  0  0  0  0  0  0
  191.7270  177.7620  143.5330 C   0  0  0  0  0  3  0  0  0  0  0  0
  187.9580  179.4630  141.5420 C   0  0  0  0  0  2  0  0  0  0  0  0
  187.0370  178.8180  142.5960 C   0  0  1  0  0  3  0  0  0  0  0  0
  189.6680  177.3780  142.3610 N   0  0  0  0  0  0  0  0  0  0  0  0
  187.1570  178.2340  144.9620 C   0  0  0  0  0  3  0  0  0  0  0  0
  184.3480  179.3640  140.4570 N   0  0  0  0  0  0  0  0  0  0  0  0
  183.0980  178.7710  140.9460 C   0  0  0  0  0  2  0  0  0  0  0  0
  185.7320  178.1650  142.1140 C   0  0  2  0  0  3  0  0  0  0  0  0
  183.2290  178.1620  142.3510 C   0  0  0  0  0  2  0  0  0  0  0  0
  185.4370  178.4030  140.6250 C   0  0  0  0  0  2  0  0  0  0  0  0
  184.5500  178.5380  143.0160 C   0  0  0  0  0  2  0  0  0  0  0  0
  184.1850  179.5680  139.0290 C   0  0  0  0  0  1  0  0  0  0  0  0
  189.7530  176.3160  140.1180 C   0  0  0  0  0  2  0  0  0  0  0  0
  190.0230  177.0600  138.9650 O   0  0  0  0  0  0  0  0  0  0  0  0
  189.7010  176.2220  137.8940 C   0  0  0  0  0  2  0  0  0  0  0  0
  188.3580  177.8070  135.8810 C   0  0  0  0  0  1  0  0  0  0  0  0
  188.2510  176.1310  137.7460 N   0  0  0  0  0  0  0  0  0  0  0  0
  187.6760  177.3670  137.1780 C   0  0  2  0  0  3  0  0  0  0  0  0
  185.9750  176.0780  136.0470 O   0  0  0  0  0  0  0  0  0  0  0  0
  186.4270  174.9110  136.6910 C   0  0  0  0  0  2  0  0  0  0  0  0
  187.9410  174.9820  136.8970 C   0  0  0  0  0  2  0  0  0  0  0  0
  186.1770  177.1530  136.9370 C   0  0  0  0  0  2  0  0  0  0  0  0
  1 12  2  0  0  0  0
  1 10  1  0  0  0  0
  2  8  2  0  0  0  0
  2  6  1  0  0  0  0
  3 11  1  1  0  0  0
  3  8  1  0  0  0  0
  4  9  1  0  0  0  0
  4 14  1  0  0  0  0
  7 13  2  0  0  0  0
  8  1  1  0  0  0  0
  9 25  1  6  0  0  0
  9 16  1  0  0  0  0
 11 17  2  0  0  0  0
 12  5  1  0  0  0  0
 13  2  1  0  0  0  0
 15 14  1  6  0  0  0
 15 11  1  0  0  0  0
 16  7  1  0  0  0  0
 16  3  1  0  0  0  0
 17 12  1  0  0  0  0
 18 22  1  0  0  0  0
 18 19  1  0  0  0  0
 19 21  1  0  0  0  0
 20 22  1  6  0  0  0
 20 15  1  0  0  0  0
 20 23  1  0  0  0  0
 21 23  1  0  0  0  0
 24 18  1  0  0  0  0
 26 25  1  0  0  0  0
 27 26  1  0  0  0  0
 29 27  1  0  0  0  0
 30 28  1  6  0  0  0
 30 29  1  0  0  0  0
 31 32  1  0  0  0  0
 31 34  1  0  0  0  0
 32 33  1  0  0  0  0
 33 29  1  0  0  0  0
 34 30  1  0  0  0  0
M  END
>  <MODEL>
2

>  <REMARK>
 VINA RESULT:      -7.5      2.077      5.361
  Name = 
  5 active torsions:
  status: ('A' for Active; 'I' for Inactive)
    1  A    between atoms: C_3  and  N_13
    2  A    between atoms: C_3  and  O_17
    3  A    between atoms: C_12  and  C_28
    4  A    between atoms: O_17  and  C_29
    5  A    between atoms: C_18  and  C_29
                            x       y       z     vdW  Elec       q    Type
                         _______ _______ _______ _____ _____    ______ ____

>  <TORSDO>
F 5

$$$$
=
 OpenBabel11052414013D

 34 38  0  0  1  0  0  0  0  0999 V2000
  187.9580  177.7010  142.5600 C   0  0  0  0  0  0  0  0  0  0  0  0
  190.4260  177.6350  142.2930 C   0  0  0  0  0  0  0  0  0  0  0  0
  188.9840  177.0510  140.3380 C   0  0  1  0  0  3  0  0  0  0  0  0
  190.2050  177.4310  137.1940 C   0  0  0  0  0  2  0  0  0  0  0  0
  185.7420  178.5620  142.5690 O   0  0  0  0  0  1  0  0  0  0  0  0
  190.6060  178.0230  143.6150 O   0  0  0  0  0  1  0  0  0  0  0  0
  191.5110  177.1860  140.1590 C   0  0  0  0  0  3  0  0  0  0  0  0
  189.1950  177.4060  141.7970 C   0  0  0  0  0  0  0  0  0  0  0  0
  190.1260  176.3310  138.2410 C   0  0  2  0  0  3  0  0  0  0  0  0
  187.8630  177.4220  144.0270 C   0  0  0  0  0  1  0  0  0  0  0  0
  188.0160  178.0390  139.6970 C   0  0  0  0  0  0  0  0  0  0  0  0
  186.9150  178.2370  141.8980 C   0  0  0  0  0  0  0  0  0  0  0  0
  191.6150  177.5370  141.4360 C   0  0  0  0  0  3  0  0  0  0  0  0
  189.3880  178.6680  137.5870 C   0  0  0  0  0  2  0  0  0  0  0  0
  188.0140  178.3830  138.2250 C   0  0  1  0  0  3  0  0  0  0  0  0
  190.2320  176.8750  139.5890 N   0  0  0  0  0  0  0  0  0  0  0  0
  187.0100  178.5160  140.4450 C   0  0  0  0  0  3  0  0  0  0  0  0
  187.5670  175.4930  136.3400 N   0  0  0  0  0  0  0  0  0  0  0  0
  186.6470  175.6820  135.2120 C   0  0  0  0  0  2  0  0  0  0  0  0
  186.9610  177.6490  137.3810 C   0  0  2  0  0  3  0  0  0  0  0  0
  186.1970  177.1420  135.0400 C   0  0  0  0  0  2  0  0  0  0  0  0
  187.0030  176.1210  137.5340 C   0  0  0  0  0  2  0  0  0  0  0  0
  187.0040  178.0960  135.9150 C   0  0  0  0  0  2  0  0  0  0  0  0
  187.6220  174.0670  136.6020 C   0  0  0  0  0  1  0  0  0  0  0  0
  191.1110  175.2010  137.9800 C   0  0  0  0  0  2  0  0  0  0  0  0
  192.1310  175.6650  137.1440 O   0  0  0  0  0  0  0  0  0  0  0  0
  193.3070  175.0900  137.6350 C   0  0  0  0  0  2  0  0  0  0  0  0
  194.9840  173.4850  135.9090 C   0  0  0  0  0  1  0  0  0  0  0  0
  194.4690  175.6930  136.9850 N   0  0  0  0  0  0  0  0  0  0  0  0
  195.5130  174.6930  136.6850 C   0  0  2  0  0  3  0  0  0  0  0  0
  196.1370  175.9140  134.6970 O   0  0  0  0  0  0  0  0  0  0  0  0
  195.2430  176.9440  135.0450 C   0  0  0  0  0  2  0  0  0  0  0  0
  194.0250  176.3560  135.7600 C   0  0  0  0  0  2  0  0  0  0  0  0
  196.6400  175.3710  135.8970 C   0  0  0  0  0  2  0  0  0  0  0  0
  1 10  1  0  0  0  0
  2  6  1  0  0  0  0
  3 11  1  6  0  0  0
  3  8  1  0  0  0  0
  4 14  1  0  0  0  0
  4  9  1  0  0  0  0
  7 13  2  0  0  0  0
  8  2  2  0  0  0  0
  8  1  1  0  0  0  0
  9 25  1  6  0  0  0
  9 16  1  0  0  0  0
 11 17  2  0  0  0  0
 12  1  2  0  0  0  0
 12  5  1  0  0  0  0
 13  2  1  0  0  0  0
 15 14  1  6  0  0  0
 15 11  1  0  0  0  0
 16  7  1  0  0  0  0
 16  3  1  0  0  0  0
 17 12  1  0  0  0  0
 18 24  1  0  0  0  0
 18 22  1  0  0  0  0
 19 18  1  0  0  0  0
 20 23  1  6  0  0  0
 20 22  1  0  0  0  0
 20 15  1  0  0  0  0
 21 19  1  0  0  0  0
 21 23  1  0  0  0  0
 26 27  1  0  0  0  0
 26 25  1  0  0  0  0
 29 27  1  0  0  0  0
 30 28  1  6  0  0  0
 30 29  1  0  0  0  0
 31 32  1  0  0  0  0
 31 34  1  0  0  0  0
 32 33  1  0  0  0  0
 33 29  1  0  0  0  0
 34 30  1  0  0  0  0
M  END
>  <MODEL>
3

>  <REMARK>
 VINA RESULT:      -7.3      3.454      7.235
  Name = 
  5 active torsions:
  status: ('A' for Active; 'I' for Inactive)
    1  A    between atoms: C_3  and  N_13
    2  A    between atoms: C_3  and  O_17
    3  A    between atoms: C_12  and  C_28
    4  A    between atoms: O_17  and  C_29
    5  A    between atoms: C_18  and  C_29
                            x       y       z     vdW  Elec       q    Type
                         _______ _______ _______ _____ _____    ______ ____

>  <TORSDO>
F 5

$$$$
=
 OpenBabel11052414013D

 34 38  0  0  1  0  0  0  0  0999 V2000
  185.1150  179.0020  140.7610 C   0  0  1  0  0  3  0  0  0  0  0  0
  186.6360  177.8980  139.1390 C   0  0  0  0  0  0  0  0  0  0  0  0
  187.4740  178.3840  141.4420 C   0  0  0  0  0  0  0  0  0  0  0  0
  190.0030  176.5180  142.7250 C   0  0  0  0  0  2  0  0  0  0  0  0
  183.4770  179.2450  142.4680 O   0  0  0  0  0  1  0  0  0  0  0  0
  185.6510  177.9200  138.1590 O   0  0  0  0  0  1  0  0  0  0  0  0
  188.8630  177.1130  139.7400 C   0  0  0  0  0  3  0  0  0  0  0  0
  186.4330  178.4660  140.3430 C   0  0  0  0  0  0  0  0  0  0  0  0
  189.8500  177.8150  141.9460 C   0  0  2  0  0  3  0  0  0  0  0  0
  184.2410  179.7520  139.8060 C   0  0  0  0  0  1  0  0  0  0  0  0
  186.8630  177.7680  142.6940 C   0  0  0  0  0  0  0  0  0  0  0  0
  184.7160  178.7920  142.0300 C   0  0  0  0  0  0  0  0  0  0  0  0
  187.8870  177.1860  138.8420 C   0  0  0  0  0  3  0  0  0  0  0  0
  188.6550  175.9610  143.1980 C   0  0  0  0  0  2  0  0  0  0  0  0
  187.6540  177.0050  143.7310 C   0  0  1  0  0  3  0  0  0  0  0  0
  188.7260  177.7480  141.0200 N   0  0  0  0  0  0  0  0  0  0  0  0
  185.5810  178.0460  142.9760 C   0  0  0  0  0  3  0  0  0  0  0  0
  189.6610  176.8210  146.5680 N   0  0  0  0  0  0  0  0  0  0  0  0
  189.0860  177.5220  147.7220 C   0  0  0  0  0  2  0  0  0  0  0  0
  188.0430  177.8070  144.9830 C   0  0  2  0  0  3  0  0  0  0  0  0
  187.6700  178.0600  147.4560 C   0  0  0  0  0  2  0  0  0  0  0  0
  189.5210  177.6570  145.3760 C   0  0  0  0  0  2  0  0  0  0  0  0
  187.0910  177.5250  146.1500 C   0  0  0  0  0  2  0  0  0  0  0  0
  191.0830  176.6900  146.8230 C   0  0  0  0  0  1  0  0  0  0  0  0
  191.1430  178.2530  141.2730 C   0  0  0  0  0  2  0  0  0  0  0  0
  191.8560  177.1200  140.8690 O   0  0  0  0  0  0  0  0  0  0  0  0
  192.1080  177.3020  139.5070 C   0  0  0  0  0  2  0  0  0  0  0  0
  191.0420  176.6670  136.8930 C   0  0  0  0  0  1  0  0  0  0  0  0
  192.4320  176.0230  138.8800 N   0  0  0  0  0  0  0  0  0  0  0  0
  191.3880  175.5950  137.9280 C   0  0  2  0  0  3  0  0  0  0  0  0
  193.0620  174.5490  136.5350 O   0  0  0  0  0  0  0  0  0  0  0  0
  194.0460  174.8300  137.5020 C   0  0  0  0  0  2  0  0  0  0  0  0
  193.7240  176.1490  138.2060 C   0  0  0  0  0  2  0  0  0  0  0  0
  191.8540  174.3150  137.2210 C   0  0  0  0  0  2  0  0  0  0  0  0
  1 10  1  6  0  0  0
  1 12  1  0  0  0  0
  2  8  2  0  0  0  0
  3 11  2  0  0  0  0
  4 14  1  0  0  0  0
  6  2  1  0  0  0  0
  7 16  1  0  0  0  0
  8  1  1  0  0  0  0
  8  3  1  0  0  0  0
  9 25  1  6  0  0  0
  9  4  1  0  0  0  0
 11 17  1  0  0  0  0
 11 15  1  0  0  0  0
 12  5  1  0  0  0  0
 12 17  2  0  0  0  0
 13  2  1  0  0  0  0
 13  7  2  0  0  0  0
 15 14  1  6  0  0  0
 15 20  1  0  0  0  0
 16  3  1  0  0  0  0
 16  9  1  0  0  0  0
 18 24  1  0  0  0  0
 18 19  1  0  0  0  0
 20 22  1  1  0  0  0
 20 23  1  0  0  0  0
 21 19  1  0  0  0  0
 22 18  1  0  0  0  0
 23 21  1  0  0  0  0
 26 25  1  0  0  0  0
 27 26  1  0  0  0  0
 29 27  1  0  0  0  0
 30 28  1  6  0  0  0
 30 29  1  0  0  0  0
 31 34  1  0  0  0  0
 31 32  1  0  0  0  0
 32 33  1  0  0  0  0
 33 29  1  0  0  0  0
 34 30  1  0  0  0  0
M  END
>  <MODEL>
4

>  <REMARK>
 VINA RESULT:      -7.2      2.303      3.151
  Name = 
  5 active torsions:
  status: ('A' for Active; 'I' for Inactive)
    1  A    between atoms: C_3  and  N_13
    2  A    between atoms: C_3  and  O_17
    3  A    between atoms: C_12  and  C_28
    4  A    between atoms: O_17  and  C_29
    5  A    between atoms: C_18  and  C_29
                            x       y       z     vdW  Elec       q    Type
                         _______ _______ _______ _____ _____    ______ ____

>  <TORSDO>
F 5

$$$$
=
 OpenBabel11052414013D

 34 38  0  0  1  0  0  0  0  0999 V2000
  188.5670  177.4670  143.3770 C   0  0  0  0  0  0  0  0  0  0  0  0
  190.9730  177.7310  142.8240 C   0  0  0  0  0  0  0  0  0  0  0  0
  189.3900  177.0340  141.0220 C   0  0  1  0  0  3  0  0  0  0  0  0
  190.1650  177.6790  137.7810 C   0  0  0  0  0  2  0  0  0  0  0  0
  186.2780  178.0320  143.6850 O   0  0  0  0  0  1  0  0  0  0  0  0
  191.2620  178.0930  144.1340 O   0  0  0  0  0  1  0  0  0  0  0  0
  191.8410  177.5030  140.5590 C   0  0  0  0  0  3  0  0  0  0  0  0
  189.7300  177.3620  142.4620 C   0  0  0  0  0  0  0  0  0  0  0  0
  190.3510  176.5420  138.7730 C   0  0  2  0  0  3  0  0  0  0  0  0
  188.6850  177.1270  144.8290 C   0  0  0  0  0  1  0  0  0  0  0  0
  188.2360  177.9100  140.5470 C   0  0  0  0  0  0  0  0  0  0  0  0
  187.3940  177.8860  142.8680 C   0  0  0  0  0  0  0  0  0  0  0  0
  192.0530  177.8190  141.8320 C   0  0  0  0  0  3  0  0  0  0  0  0
  189.2530  178.7850  138.3260 C   0  0  0  0  0  2  0  0  0  0  0  0
  188.0130  178.3010  139.1040 C   0  0  1  0  0  3  0  0  0  0  0  0
  190.5510  177.0470  140.1260 N   0  0  0  0  0  0  0  0  0  0  0  0
  187.2760  178.2260  141.4290 C   0  0  0  0  0  3  0  0  0  0  0  0
  186.7720  177.7370  135.9040 N   0  0  0  0  0  0  0  0  0  0  0  0
  185.3430  177.4010  135.8950 C   0  0  0  0  0  2  0  0  0  0  0  0
  186.9660  177.4670  138.3510 C   0  0  2  0  0  3  0  0  0  0  0  0
  184.6900  177.5070  137.2830 C   0  0  0  0  0  2  0  0  0  0  0  0
  187.4370  176.9880  136.9690 C   0  0  0  0  0  2  0  0  0  0  0  0
  185.6100  178.1800  138.2970 C   0  0  0  0  0  2  0  0  0  0  0  0
  187.3220  177.2590  134.6490 C   0  0  0  0  0  1  0  0  0  0  0  0
  191.4310  175.5590  138.3450 C   0  0  0  0  0  2  0  0  0  0  0  0
  192.1250  176.0880  137.2520 O   0  0  0  0  0  0  0  0  0  0  0  0
  193.4780  175.9960  137.5890 C   0  0  0  0  0  2  0  0  0  0  0  0
  195.2360  175.1040  135.4710 C   0  0  0  0  0  1  0  0  0  0  0  0
  193.9130  174.6020  137.5440 N   0  0  0  0  0  0  0  0  0  0  0  0
  194.2450  174.1720  136.1710 C   0  0  2  0  0  3  0  0  0  0  0  0
  195.9640  172.7060  137.0260 O   0  0  0  0  0  0  0  0  0  0  0  0
  195.5650  173.0020  138.3430 C   0  0  0  0  0  2  0  0  0  0  0  0
  195.0690  174.4470  138.4250 C   0  0  0  0  0  2  0  0  0  0  0  0
  194.8090  172.7460  136.2190 C   0  0  0  0  0  2  0  0  0  0  0  0
  1 10  1  0  0  0  0
  2  6  1  0  0  0  0
  3 11  1  6  0  0  0
  3  8  1  0  0  0  0
  4 14  1  0  0  0  0
  4  9  1  0  0  0  0
  7 13  2  0  0  0  0
  8  2  2  0  0  0  0
  8  1  1  0  0  0  0
  9 25  1  6  0  0  0
  9 16  1  0  0  0  0
 11 17  2  0  0  0  0
 12  1  2  0  0  0  0
 12  5  1  0  0  0  0
 13  2  1  0  0  0  0
 15 14  1  6  0  0  0
 15 11  1  0  0  0  0
 16  7  1  0  0  0  0
 16  3  1  0  0  0  0
 17 12  1  0  0  0  0
 18 22  1  0  0  0  0
 19 18  1  0  0  0  0
 19 21  1  0  0  0  0
 20 22  1  6  0  0  0
 20 15  1  0  0  0  0
 21 23  1  0  0  0  0
 23 20  1  0  0  0  0
 24 18  1  0  0  0  0
 26 27  1  0  0  0  0
 26 25  1  0  0  0  0
 29 27  1  0  0  0  0
 29 33  1  0  0  0  0
 30 28  1  1  0  0  0
 30 34  1  0  0  0  0
 30 29  1  0  0  0  0
 31 32  1  0  0  0  0
 32 33  1  0  0  0  0
 34 31  1  0  0  0  0
M  END
>  <MODEL>
5

>  <REMARK>
 VINA RESULT:      -7.1      3.643      7.143
  Name = 
  5 active torsions:
  status: ('A' for Active; 'I' for Inactive)
    1  A    between atoms: C_3  and  N_13
    2  A    between atoms: C_3  and  O_17
    3  A    between atoms: C_12  and  C_28
    4  A    between atoms: O_17  and  C_29
    5  A    between atoms: C_18  and  C_29
                            x       y       z     vdW  Elec       q    Type
                         _______ _______ _______ _____ _____    ______ ____

>  <TORSDO>
F 5

$$$$
=
 OpenBabel11052414013D

 34 38  0  0  1  0  0  0  0  0999 V2000
  188.9780  177.0610  146.1780 C   0  0  0  0  0  0  0  0  0  0  0  0
  191.0310  177.4600  144.8400 C   0  0  0  0  0  0  0  0  0  0  0  0
  188.8510  177.1870  143.6520 C   0  0  1  0  0  3  0  0  0  0  0  0
  188.4440  178.5640  140.5760 C   0  0  0  0  0  2  0  0  0  0  0  0
  187.0110  177.5280  147.4290 O   0  0  0  0  0  1  0  0  0  0  0  0
  191.8040  177.5130  145.9940 O   0  0  0  0  0  1  0  0  0  0  0  0
  190.9950  177.7640  142.4230 C   0  0  0  0  0  3  0  0  0  0  0  0
  189.7160  177.1760  144.8970 C   0  0  0  0  0  0  0  0  0  0  0  0
  188.8860  177.2300  141.1580 C   0  0  2  0  0  3  0  0  0  0  0  0
  189.5880  176.3980  147.3720 C   0  0  0  0  0  1  0  0  0  0  0  0
  187.6780  178.1410  143.8410 C   0  0  0  0  0  0  0  0  0  0  0  0
  187.7370  177.5790  146.2450 C   0  0  0  0  0  0  0  0  0  0  0  0
  191.6800  177.7800  143.5610 C   0  0  0  0  0  3  0  0  0  0  0  0
  187.8850  179.5090  141.6470 C   0  0  0  0  0  2  0  0  0  0  0  0
  186.9780  178.8520  142.7060 C   0  0  1  0  0  3  0  0  0  0  0  0
  189.6040  177.4120  142.4140 N   0  0  0  0  0  0  0  0  0  0  0  0
  187.1330  178.2400  145.0630 C   0  0  0  0  0  3  0  0  0  0  0  0
  184.3120  179.3770  140.5340 N   0  0  0  0  0  0  0  0  0  0  0  0
  183.0490  178.8210  141.0320 C   0  0  0  0  0  2  0  0  0  0  0  0
  185.6650  178.2070  142.2360 C   0  0  2  0  0  3  0  0  0  0  0  0
  183.1610  178.2530  142.4560 C   0  0  0  0  0  2  0  0  0  0  0  0
  185.3840  178.4040  140.7380 C   0  0  0  0  0  2  0  0  0  0  0  0
  184.4840  178.6270  143.1180 C   0  0  0  0  0  2  0  0  0  0  0  0
  184.1610  179.5400  139.0990 C   0  0  0  0  0  1  0  0  0  0  0  0
  189.6540  176.3780  140.1580 C   0  0  0  0  0  2  0  0  0  0  0  0
  190.0770  177.1860  139.0980 O   0  0  0  0  0  0  0  0  0  0  0  0
  190.1110  176.3480  137.9800 C   0  0  0  0  0  2  0  0  0  0  0  0
  191.1300  175.1850  135.5340 C   0  0  0  0  0  1  0  0  0  0  0  0
  191.3080  175.5110  138.0160 N   0  0  0  0  0  0  0  0  0  0  0  0
  191.3340  174.5380  136.9050 C   0  0  2  0  0  3  0  0  0  0  0  0
  193.7430  174.6880  136.8070 O   0  0  0  0  0  0  0  0  0  0  0  0
  193.7420  175.5070  137.9520 C   0  0  0  0  0  2  0  0  0  0  0  0
  192.4840  176.3780  137.9690 C   0  0  0  0  0  2  0  0  0  0  0  0
  192.6700  173.7840  136.9360 C   0  0  0  0  0  2  0  0  0  0  0  0
  1 12  2  0  0  0  0
  1 10  1  0  0  0  0
  2  8  2  0  0  0  0
  2  6  1  0  0  0  0
  3 11  1  1  0  0  0
  3  8  1  0  0  0  0
  4  9  1  0  0  0  0
  4 14  1  0  0  0  0
  7 13  2  0  0  0  0
  8  1  1  0  0  0  0
  9 25  1  6  0  0  0
  9 16  1  0  0  0  0
 11 17  2  0  0  0  0
 12  5  1  0  0  0  0
 13  2  1  0  0  0  0
 15 14  1  6  0  0  0
 15 11  1  0  0  0  0
 16  7  1  0  0  0  0
 16  3  1  0  0  0  0
 17 12  1  0  0  0  0
 18 22  1  0  0  0  0
 18 19  1  0  0  0  0
 19 21  1  0  0  0  0
 20 22  1  6  0  0  0
 20 15  1  0  0  0  0
 20 23  1  0  0  0  0
 21 23  1  0  0  0  0
 24 18  1  0  0  0  0
 26 25  1  0  0  0  0
 27 29  1  0  0  0  0
 27 26  1  0  0  0  0
 30 28  1  6  0  0  0
 30 34  1  0  0  0  0
 30 29  1  0  0  0  0
 31 34  1  0  0  0  0
 31 32  1  0  0  0  0
 32 33  1  0  0  0  0
 33 29  1  0  0  0  0
M  END
>  <MODEL>
6

>  <REMARK>
 VINA RESULT:      -7.1      2.501      5.678
  Name = 
  5 active torsions:
  status: ('A' for Active; 'I' for Inactive)
    1  A    between atoms: C_3  and  N_13
    2  A    between atoms: C_3  and  O_17
    3  A    between atoms: C_12  and  C_28
    4  A    between atoms: O_17  and  C_29
    5  A    between atoms: C_18  and  C_29
                            x       y       z     vdW  Elec       q    Type
                         _______ _______ _______ _____ _____    ______ ____

>  <TORSDO>
F 5

$$$$
=
 OpenBabel11052414013D

 34 38  0  0  1  0  0  0  0  0999 V2000
  185.8710  173.4790  136.6850 C   0  0  1  0  0  3  0  0  0  0  0  0
  184.8550  175.6950  137.1600 C   0  0  0  0  0  0  0  0  0  0  0  0
  187.3430  175.4670  137.2290 C   0  0  0  0  0  0  0  0  0  0  0  0
  189.2820  178.2000  136.6890 C   0  0  0  0  0  2  0  0  0  0  0  0
  186.8160  171.6830  135.4470 O   0  0  0  0  0  1  0  0  0  0  0  0
  183.5780  175.1790  136.9770 O   0  0  0  0  0  1  0  0  0  0  0  0
  186.1830  177.7040  137.5290 C   0  0  0  0  0  3  0  0  0  0  0  0
  185.9420  174.9010  137.1010 C   0  0  0  0  0  0  0  0  0  0  0  0
  188.6640  177.4810  137.8780 C   0  0  2  0  0  3  0  0  0  0  0  0
  184.7450  172.5960  137.1210 C   0  0  0  0  0  1  0  0  0  0  0  0
  188.1740  175.0790  136.0120 C   0  0  0  0  0  0  0  0  0  0  0  0
  186.8480  173.0000  135.8930 C   0  0  0  0  0  0  0  0  0  0  0  0
  184.9900  177.1440  137.3630 C   0  0  0  0  0  3  0  0  0  0  0  0
  189.1210  177.4110  135.3840 C   0  0  0  0  0  2  0  0  0  0  0  0
  189.3400  175.8890  135.4940 C   0  0  1  0  0  3  0  0  0  0  0  0
  187.3720  176.9010  137.5330 N   0  0  0  0  0  0  0  0  0  0  0  0
  187.9620  173.8760  135.4580 C   0  0  0  0  0  3  0  0  0  0  0  0
  191.9660  176.6360  137.6500 N   0  0  0  0  0  0  0  0  0  0  0  0
  193.2760  176.2560  137.1100 C   0  0  0  0  0  2  0  0  0  0  0  0
  190.7290  175.3860  135.9170 C   0  0  2  0  0  3  0  0  0  0  0  0
  193.2050  175.7400  135.6630 C   0  0  0  0  0  2  0  0  0  0  0  0
  191.0140  175.5510  137.4180 C   0  0  0  0  0  2  0  0  0  0  0  0
  191.8340  175.9810  135.0370 C   0  0  0  0  0  2  0  0  0  0  0  0
  192.1240  176.7540  139.0880 C   0  0  0  0  0  1  0  0  0  0  0  0
  188.6080  178.3490  139.1260 C   0  0  0  0  0  2  0  0  0  0  0  0
  188.9730  177.5810  140.2360 O   0  0  0  0  0  0  0  0  0  0  0  0
  188.3710  178.2020  141.3340 C   0  0  0  0  0  2  0  0  0  0  0  0
  187.8930  176.4660  143.5990 C   0  0  0  0  0  1  0  0  0  0  0  0
  189.2920  178.2160  142.4690 N   0  0  0  0  0  0  0  0  0  0  0  0
  188.6300  177.8010  143.7210 C   0  0  2  0  0  3  0  0  0  0  0  0
  190.6840  176.7920  144.4940 O   0  0  0  0  0  0  0  0  0  0  0  0
  191.3610  177.3020  143.3700 C   0  0  0  0  0  2  0  0  0  0  0  0
  190.4180  177.3350  142.1650 C   0  0  0  0  0  2  0  0  0  0  0  0
  189.6800  177.7210  144.8360 C   0  0  0  0  0  2  0  0  0  0  0  0
  1  8  1  0  0  0  0
  1 10  1  6  0  0  0
  2 13  1  0  0  0  0
  3 16  1  0  0  0  0
  4  9  1  0  0  0  0
  5 12  1  0  0  0  0
  6  2  1  0  0  0  0
  7 16  1  0  0  0  0
  8  2  2  0  0  0  0
  8  3  1  0  0  0  0
  9 25  1  1  0  0  0
 11  3  2  0  0  0  0
 12  1  1  0  0  0  0
 13  7  2  0  0  0  0
 14  4  1  0  0  0  0
 15 14  1  1  0  0  0
 15 20  1  0  0  0  0
 15 11  1  0  0  0  0
 16  9  1  0  0  0  0
 17 12  2  0  0  0  0
 17 11  1  0  0  0  0
 18 24  1  0  0  0  0
 19 18  1  0  0  0  0
 20 23  1  6  0  0  0
 20 22  1  0  0  0  0
 21 19  1  0  0  0  0
 22 18  1  0  0  0  0
 23 21  1  0  0  0  0
 25 26  1  0  0  0  0
 26 27  1  0  0  0  0
 27 29  1  0  0  0  0
 29 30  1  0  0  0  0
 30 28  1  6  0  0  0
 30 34  1  0  0  0  0
 31 34  1  0  0  0  0
 32 31  1  0  0  0  0
 33 29  1  0  0  0  0
 33 32  1  0  0  0  0
M  END
>  <MODEL>
7

>  <REMARK>
 VINA RESULT:      -7.0      3.111      7.987
  Name = 
  5 active torsions:
  status: ('A' for Active; 'I' for Inactive)
    1  A    between atoms: C_3  and  N_13
    2  A    between atoms: C_3  and  O_17
    3  A    between atoms: C_12  and  C_28
    4  A    between atoms: O_17  and  C_29
    5  A    between atoms: C_18  and  C_29
                            x       y       z     vdW  Elec       q    Type
                         _______ _______ _______ _____ _____    ______ ____

>  <TORSDO>
F 5

$$$$
=
 OpenBabel11052414013D

 34 38  0  0  1  0  0  0  0  0999 V2000
  186.8050  174.8380  136.5590 C   0  0  1  0  0  3  0  0  0  0  0  0
  187.0630  177.1570  137.4070 C   0  0  0  0  0  0  0  0  0  0  0  0
  188.9530  175.5490  137.6950 C   0  0  0  0  0  0  0  0  0  0  0  0
  192.1180  176.7350  138.0020 C   0  0  0  0  0  2  0  0  0  0  0  0
  186.8800  172.9940  135.0590 O   0  0  0  0  0  1  0  0  0  0  0  0
  185.7840  177.4870  136.9720 O   0  0  0  0  0  1  0  0  0  0  0  0
  189.1430  177.9900  138.3630 C   0  0  0  0  0  3  0  0  0  0  0  0
  187.5350  175.9020  137.2900 C   0  0  0  0  0  0  0  0  0  0  0  0
  190.9700  176.3530  138.9230 C   0  0  2  0  0  3  0  0  0  0  0  0
  185.3180  174.7050  136.6580 C   0  0  0  0  0  1  0  0  0  0  0  0
  189.6870  174.9130  136.5210 C   0  0  0  0  0  0  0  0  0  0  0  0
  187.5150  173.9910  135.7910 C   0  0  0  0  0  0  0  0  0  0  0  0
  187.9060  178.2340  137.9450 C   0  0  0  0  0  3  0  0  0  0  0  0
  191.8480  176.3490  136.5430 C   0  0  0  0  0  2  0  0  0  0  0  0
  191.1850  174.9730  136.3310 C   0  0  1  0  0  3  0  0  0  0  0  0
  189.6800  176.6600  138.3160 N   0  0  0  0  0  0  0  0  0  0  0  0
  188.9890  174.1240  135.6900 C   0  0  0  0  0  3  0  0  0  0  0  0
  194.4180  173.7190  136.6030 N   0  0  0  0  0  0  0  0  0  0  0  0
  194.4880  172.2660  136.4060 C   0  0  0  0  0  2  0  0  0  0  0  0
  191.9550  173.7220  136.7790 C   0  0  2  0  0  3  0  0  0  0  0  0
  193.1410  171.6490  135.9920 C   0  0  0  0  0  2  0  0  0  0  0  0
  193.2890  174.0350  137.4750 C   0  0  0  0  0  2  0  0  0  0  0  0
  192.1100  172.7150  135.6330 C   0  0  0  0  0  2  0  0  0  0  0  0
  195.6210  174.1020  137.3180 C   0  0  0  0  0  1  0  0  0  0  0  0
  191.1190  176.9360  140.3210 C   0  0  0  0  0  2  0  0  0  0  0  0
  190.2100  176.3080  141.1780 O   0  0  0  0  0  0  0  0  0  0  0  0
  190.8130  176.3230  142.4390 C   0  0  0  0  0  2  0  0  0  0  0  0
  190.5330  178.6790  144.0940 C   0  0  0  0  0  1  0  0  0  0  0  0
  189.7920  176.3610  143.4830 N   0  0  0  0  0  0  0  0  0  0  0  0
  190.1600  177.2780  144.5810 C   0  0  2  0  0  3  0  0  0  0  0  0
  187.8330  177.8300  144.9220 O   0  0  0  0  0  0  0  0  0  0  0  0
  187.4600  176.8580  143.9750 C   0  0  0  0  0  2  0  0  0  0  0  0
  188.5230  176.7630  142.8790 C   0  0  0  0  0  2  0  0  0  0  0  0
  188.9920  177.3600  145.5720 C   0  0  0  0  0  2  0  0  0  0  0  0
  1 10  1  6  0  0  0
  1  8  1  0  0  0  0
  2 13  1  0  0  0  0
  3 16  1  0  0  0  0
  4  9  1  0  0  0  0
  5 12  1  0  0  0  0
  6  2  1  0  0  0  0
  8  2  2  0  0  0  0
  8  3  1  0  0  0  0
  9 25  1  1  0  0  0
 11  3  2  0  0  0  0
 12  1  1  0  0  0  0
 13  7  2  0  0  0  0
 14  4  1  0  0  0  0
 15 11  1  0  0  0  0
 15 14  1  1  0  0  0
 15 20  1  0  0  0  0
 16  7  1  0  0  0  0
 16  9  1  0  0  0  0
 17 12  2  0  0  0  0
 17 11  1  0  0  0  0
 18 24  1  0  0  0  0
 18 22  1  0  0  0  0
 19 18  1  0  0  0  0
 20 23  1  6  0  0  0
 20 22  1  0  0  0  0
 21 19  1  0  0  0  0
 23 21  1  0  0  0  0
 25 26  1  0  0  0  0
 26 27  1  0  0  0  0
 27 29  1  0  0  0  0
 29 30  1  0  0  0  0
 30 28  1  6  0  0  0
 30 34  1  0  0  0  0
 31 34  1  0  0  0  0
 32 31  1  0  0  0  0
 33 29  1  0  0  0  0
 33 32  1  0  0  0  0
M  END
>  <MODEL>
8

>  <REMARK>
 VINA RESULT:      -6.8      3.072      8.400
  Name = 
  5 active torsions:
  status: ('A' for Active; 'I' for Inactive)
    1  A    between atoms: C_3  and  N_13
    2  A    between atoms: C_3  and  O_17
    3  A    between atoms: C_12  and  C_28
    4  A    between atoms: O_17  and  C_29
    5  A    between atoms: C_18  and  C_29
                            x       y       z     vdW  Elec       q    Type
                         _______ _______ _______ _____ _____    ______ ____

>  <TORSDO>
F 5

$$$$
=
 OpenBabel11052414013D

 34 38  0  0  1  0  0  0  0  0999 V2000
  182.6100  178.5710  142.8620 C   0  0  0  0  0  0  0  0  0  0  0  0
  184.1200  178.8700  144.8110 C   0  0  0  0  0  0  0  0  0  0  0  0
  185.0530  177.9250  142.6940 C   0  0  1  0  0  3  0  0  0  0  0  0
  188.3670  178.2550  142.0390 C   0  0  0  0  0  2  0  0  0  0  0  0
  181.4370  179.0760  140.8570 O   0  0  0  0  0  1  0  0  0  0  0  0
  183.0770  179.3790  145.5750 O   0  0  0  0  0  1  0  0  0  0  0  0
  186.5160  178.4380  144.7030 C   0  0  0  0  0  3  0  0  0  0  0  0
  183.9090  178.4160  143.5600 C   0  0  0  0  0  0  0  0  0  0  0  0
  187.4500  177.2370  142.6990 C   0  0  2  0  0  3  0  0  0  0  0  0
  181.3120  178.3910  143.5840 C   0  0  0  0  0  1  0  0  0  0  0  0
  185.0810  178.7000  141.3820 C   0  0  0  0  0  0  0  0  0  0  0  0
  182.6250  178.8880  141.5540 C   0  0  0  0  0  0  0  0  0  0  0  0
  185.4720  178.8940  145.3870 C   0  0  0  0  0  3  0  0  0  0  0  0
  187.5860  179.3750  141.3420 C   0  0  0  0  0  2  0  0  0  0  0  0
  186.3320  178.9280  140.5650 C   0  0  1  0  0  3  0  0  0  0  0  0
  186.3430  177.8890  143.3880 N   0  0  0  0  0  0  0  0  0  0  0  0
  183.9120  179.0700  140.8390 C   0  0  0  0  0  3  0  0  0  0  0  0
  187.7460  178.7950  137.3890 N   0  0  0  0  0  0  0  0  0  0  0  0
  187.0030  177.9290  136.4670 C   0  0  0  0  0  2  0  0  0  0  0  0
  186.5200  177.9800  139.3710 C   0  0  2  0  0  3  0  0  0  0  0  0
  185.6970  177.3850  137.0710 C   0  0  0  0  0  2  0  0  0  0  0  0
  187.8850  178.1220  138.6790 C   0  0  0  0  0  2  0  0  0  0  0  0
  185.3480  178.0710  138.3880 C   0  0  0  0  0  2  0  0  0  0  0  0
  189.0830  178.9370  136.8440 C   0  0  0  0  0  1  0  0  0  0  0  0
  188.2030  176.2570  143.5870 C   0  0  0  0  0  2  0  0  0  0  0  0
  189.5420  176.6510  143.6720 O   0  0  0  0  0  0  0  0  0  0  0  0
  189.5830  177.6260  144.6720 C   0  0  0  0  0  2  0  0  0  0  0  0
  188.9450  176.7480  147.3540 C   0  0  0  0  0  1  0  0  0  0  0  0
  190.6590  177.3330  145.6160 N   0  0  0  0  0  0  0  0  0  0  0  0
  190.2270  177.5120  147.0170 C   0  0  2  0  0  3  0  0  0  0  0  0
  191.6840  175.7160  147.7140 O   0  0  0  0  0  0  0  0  0  0  0  0
  192.2050  175.6280  146.4090 C   0  0  0  0  0  2  0  0  0  0  0  0
  191.1160  175.9620  145.3890 C   0  0  0  0  0  2  0  0  0  0  0  0
  191.3630  177.0680  147.9480 C   0  0  0  0  0  2  0  0  0  0  0  0
  1  8  1  0  0  0  0
  1 10  1  0  0  0  0
  2 13  1  0  0  0  0
  2  6  1  0  0  0  0
  3 11  1  6  0  0  0
  3 16  1  0  0  0  0
  3  8  1  0  0  0  0
  4  9  1  0  0  0  0
  5 12  1  0  0  0  0
  7 13  2  0  0  0  0
  8  2  2  0  0  0  0
  9 16  1  0  0  0  0
  9 25  1  1  0  0  0
 12  1  2  0  0  0  0
 14  4  1  0  0  0  0
 15 14  1  1  0  0  0
 15 11  1  0  0  0  0
 16  7  1  0  0  0  0
 17 11  2  0  0  0  0
 17 12  1  0  0  0  0
 18 22  1  0  0  0  0
 19 21  1  0  0  0  0
 19 18  1  0  0  0  0
 20 23  1  6  0  0  0
 20 15  1  0  0  0  0
 21 23  1  0  0  0  0
 22 20  1  0  0  0  0
 24 18  1  0  0  0  0
 25 26  1  0  0  0  0
 26 27  1  0  0  0  0
 27 29  1  0  0  0  0
 29 30  1  0  0  0  0
 30 28  1  1  0  0  0
 30 34  1  0  0  0  0
 31 34  1  0  0  0  0
 32 31  1  0  0  0  0
 33 29  1  0  0  0  0
 33 32  1  0  0  0  0
M  END
>  <MODEL>
9

>  <REMARK>
 VINA RESULT:      -6.7      2.074      7.056
  Name = 
  5 active torsions:
  status: ('A' for Active; 'I' for Inactive)
    1  A    between atoms: C_3  and  N_13
    2  A    between atoms: C_3  and  O_17
    3  A    between atoms: C_12  and  C_28
    4  A    between atoms: O_17  and  C_29
    5  A    between atoms: C_18  and  C_29
                            x       y       z     vdW  Elec       q    Type
                         _______ _______ _______ _____ _____    ______ ____

>  <TORSDO>
F 5

$$$$
