=
 OpenBabel11052413223D

 28 30  0  0  1  0  0  0  0  0999 V2000
  183.9180  178.3980  142.1880 C   0  0  1  0  0  3  0  0  0  0  0  0
  185.1450  178.5130  146.8990 O   0  0  0  0  0  1  0  0  0  0  0  0
  187.1040  177.1950  143.9860 C   0  0  2  0  0  3  0  0  0  0  0  0
  187.9750  178.2210  144.6820 C   0  0  1  0  0  3  0  0  0  0  0  0
  184.6680  178.7600  144.5800 C   0  0  0  0  0  0  0  0  0  0  0  0
  186.2520  177.8850  142.9260 C   0  0  0  0  0  2  0  0  0  0  0  0
  182.6280  179.7080  143.7620 O   0  0  0  0  0  0  0  0  0  0  0  0
  185.7310  178.7050  145.6470 C   0  0  2  0  0  3  0  0  0  0  0  0
  183.6380  179.6020  144.7270 C   0  0  0  0  0  3  0  0  0  0  0  0
  186.8020  177.6200  145.4330 C   0  0  1  0  0  3  0  0  0  0  0  0
  182.5220  178.7940  142.6740 C   0  0  0  0  0  2  0  0  0  0  0  0
  184.7940  177.8980  143.3500 C   0  0  2  0  0  3  0  0  0  0  0  0
  183.8930  177.5230  141.0750 O   0  0  0  0  0  0  0  0  0  0  0  0
  183.5510  178.2410  139.9100 C   0  0  2  0  0  3  0  0  0  0  0  0
  182.5410  176.1010  139.2390 C   0  0  0  0  0  2  0  0  0  0  0  0
  182.9880  177.3040  138.8860 C   0  0  0  0  0  3  0  0  0  0  0  0
  184.4560  180.2790  138.9990 O   0  0  0  0  0  1  0  0  0  0  0  0
  184.7780  178.9650  139.3470 C   0  0  2  0  0  3  0  0  0  0  0  0
  185.3410  178.2410  138.1360 C   0  0  0  0  0  2  0  0  0  0  0  0
  186.6580  178.7640  137.8150 N   0  0  0  0  0  1  0  0  0  0  0  0
  189.2680  177.5650  145.1440 C   0  0  1  0  0  3  0  0  0  0  0  0
  190.9220  179.2820  144.4420 C   0  0  0  0  0  1  0  0  0  0  0  0
  190.9930  177.0510  143.3160 C   0  0  0  0  0  0  0  0  0  0  0  0
  190.3930  177.9380  144.2830 N   0  0  0  0  0  0  0  0  0  0  0  0
  191.9610  177.4500  142.6140 O   0  0  0  0  0  0  0  0  0  0  0  0
  190.4060  175.3730  143.0710 S   0  0  0  0  0  1  0  0  0  0  0  0
  189.5490  177.8820  146.6080 C   0  0  0  0  0  2  0  0  0  0  0  0
  190.3610  176.7680  147.2420 C   0  0  0  0  0  1  0  0  0  0  0  0
  1 13  1  6  0  0  0
  1 11  1  0  0  0  0
  1 12  1  0  0  0  0
  3  6  1  6  0  0  0
  3  4  1  0  0  0  0
  3 10  1  0  0  0  0
  4 21  1  1  0  0  0
  4 10  1  0  0  0  0
  5  9  2  0  0  0  0
  5  8  1  0  0  0  0
  6 12  1  0  0  0  0
  7  9  1  0  0  0  0
  8  2  1  1  0  0  0
 10  8  1  0  0  0  0
 11  7  1  0  0  0  0
 12  5  1  0  0  0  0
 14 13  1  0  0  0  0
 16 15  2  0  0  0  0
 16 14  1  0  0  0  0
 17 18  1  0  0  0  0
 18 14  1  0  0  0  0
 19 18  1  0  0  0  0
 20 19  1  0  0  0  0
 21 27  1  0  0  0  0
 23 24  1  0  0  0  0
 24 22  1  0  0  0  0
 24 21  1  0  0  0  0
 25 23  2  0  0  0  0
 26 23  1  0  0  0  0
 27 28  1  0  0  0  0
M  END
>  <MODEL>
1

>  <REMARK>
 VINA RESULT:      -7.5      0.000      0.000
  Name = 
  8 active torsions:
  status: ('A' for Active; 'I' for Inactive)
    1  A    between atoms: C_1  and  O_2
    2  A    between atoms: O_2  and  C_3
    3  A    between atoms: C_3  and  C_11
    4  A    between atoms: C_3  and  C_22
    5  A    between atoms: C_4  and  C_13
    6  A    between atoms: C_4  and  C_14
    7  A    between atoms: C_4  and  N_15
    8  A    between atoms: C_7  and  C_11
                            x       y       z     vdW  Elec       q    Type
                         _______ _______ _______ _____ _____    ______ ____

>  <TORSDO>
F 8

$$$$
=
 OpenBabel11052413223D

 28 30  0  0  1  0  0  0  0  0999 V2000
  187.8890  177.1820  145.6220 C   0  0  1  0  0  3  0  0  0  0  0  0
  184.2860  180.3560  144.8140 O   0  0  0  0  0  1  0  0  0  0  0  0
  185.9930  178.0620  142.3880 C   0  0  2  0  0  3  0  0  0  0  0  0
  184.5080  177.7660  142.3140 C   0  0  1  0  0  3  0  0  0  0  0  0
  185.8120  178.5920  145.2890 C   0  0  0  0  0  0  0  0  0  0  0  0
  186.6350  177.1860  143.4580 C   0  0  0  0  0  2  0  0  0  0  0  0
  186.7080  178.1960  147.4730 O   0  0  0  0  0  0  0  0  0  0  0  0
  184.6720  179.0720  144.4270 C   0  0  2  0  0  3  0  0  0  0  0  0
  185.6880  178.6420  146.6220 C   0  0  0  0  0  3  0  0  0  0  0  0
  184.9670  179.0800  142.9170 C   0  0  1  0  0  3  0  0  0  0  0  0
  188.0040  177.8560  146.9900 C   0  0  0  0  0  2  0  0  0  0  0  0
  187.0550  178.0310  144.6470 C   0  0  2  0  0  3  0  0  0  0  0  0
  189.1390  176.7730  145.0950 O   0  0  0  0  0  0  0  0  0  0  0  0
  190.1140  177.7570  145.3620 C   0  0  2  0  0  3  0  0  0  0  0  0
  191.4260  179.3270  143.9960 C   0  0  0  0  0  2  0  0  0  0  0  0
  190.3130  178.6130  144.1490 C   0  0  0  0  0  3  0  0  0  0  0  0
  191.7210  176.0110  144.9500 O   0  0  0  0  0  1  0  0  0  0  0  0
  191.4370  177.1040  145.7720 C   0  0  2  0  0  3  0  0  0  0  0  0
  191.4080  176.6550  147.2230 C   0  0  0  0  0  2  0  0  0  0  0  0
  192.5640  175.8220  147.5070 N   0  0  0  0  0  1  0  0  0  0  0  0
  184.0090  178.0010  140.8960 C   0  0  1  0  0  3  0  0  0  0  0  0
  181.7970  178.8320  141.6660 C   0  0  0  0  0  1  0  0  0  0  0  0
  181.8380  176.9980  139.9660 C   0  0  0  0  0  0  0  0  0  0  0  0
  182.5490  177.9160  140.8230 N   0  0  0  0  0  0  0  0  0  0  0  0
  180.5770  176.9910  139.9620 O   0  0  0  0  0  0  0  0  0  0  0  0
  182.6940  175.8480  138.8870 S   0  0  0  0  0  1  0  0  0  0  0  0
  184.5270  179.3240  140.3460 C   0  0  0  0  0  2  0  0  0  0  0  0
  184.5600  179.2890  138.8300 C   0  0  0  0  0  1  0  0  0  0  0  0
  1 13  1  6  0  0  0
  1 11  1  0  0  0  0
  3 10  1  0  0  0  0
  3  6  1  1  0  0  0
  4 21  1  6  0  0  0
  4  3  1  0  0  0  0
  4 10  1  0  0  0  0
  5  9  2  0  0  0  0
  6 12  1  0  0  0  0
  8  2  1  1  0  0  0
  8  5  1  0  0  0  0
  9  7  1  0  0  0  0
 10  8  1  0  0  0  0
 11  7  1  0  0  0  0
 12  5  1  0  0  0  0
 12  1  1  0  0  0  0
 13 14  1  0  0  0  0
 14 18  1  0  0  0  0
 15 16  2  0  0  0  0
 16 14  1  0  0  0  0
 17 18  1  0  0  0  0
 18 19  1  0  0  0  0
 19 20  1  0  0  0  0
 23 24  1  0  0  0  0
 24 21  1  0  0  0  0
 24 22  1  0  0  0  0
 25 23  2  0  0  0  0
 26 23  1  0  0  0  0
 27 21  1  0  0  0  0
 28 27  1  0  0  0  0
M  END
>  <MODEL>
2

>  <REMARK>
 VINA RESULT:      -7.1      2.682      7.651
  Name = 
  8 active torsions:
  status: ('A' for Active; 'I' for Inactive)
    1  A    between atoms: C_1  and  O_2
    2  A    between atoms: O_2  and  C_3
    3  A    between atoms: C_3  and  C_11
    4  A    between atoms: C_3  and  C_22
    5  A    between atoms: C_4  and  C_13
    6  A    between atoms: C_4  and  C_14
    7  A    between atoms: C_4  and  N_15
    8  A    between atoms: C_7  and  C_11
                            x       y       z     vdW  Elec       q    Type
                         _______ _______ _______ _____ _____    ______ ____

>  <TORSDO>
F 8

$$$$
=
 OpenBabel11052413223D

 28 30  0  0  1  0  0  0  0  0999 V2000
  187.5460  177.6890  144.8480 C   0  0  1  0  0  3  0  0  0  0  0  0
  191.9560  175.8810  143.8510 O   0  0  0  0  0  1  0  0  0  0  0  0
  189.1060  176.5650  141.5120 C   0  0  2  0  0  3  0  0  0  0  0  0
  190.3090  177.3200  140.9830 C   0  0  1  0  0  3  0  0  0  0  0  0
  189.9380  177.0590  144.3040 C   0  0  0  0  0  0  0  0  0  0  0  0
  188.3380  177.4490  142.4880 C   0  0  0  0  0  2  0  0  0  0  0  0
  189.3110  177.7760  146.5000 O   0  0  0  0  0  0  0  0  0  0  0  0
  191.0240  176.7630  143.3020 C   0  0  2  0  0  3  0  0  0  0  0  0
  190.2770  177.4710  145.5320 C   0  0  0  0  0  3  0  0  0  0  0  0
  190.5260  176.1850  141.9650 C   0  0  1  0  0  3  0  0  0  0  0  0
  187.9310  177.4760  146.3130 C   0  0  0  0  0  2  0  0  0  0  0  0
  188.4900  176.9240  143.9040 C   0  0  2  0  0  3  0  0  0  0  0  0
  186.1730  177.4520  144.5930 O   0  0  0  0  0  0  0  0  0  0  0  0
  185.5260  178.6710  144.2950 C   0  0  2  0  0  3  0  0  0  0  0  0
  184.5700  178.4490  146.5510 C   0  0  0  0  0  2  0  0  0  0  0  0
  184.4680  178.9440  145.3190 C   0  0  0  0  0  3  0  0  0  0  0  0
  185.4410  179.6280  142.0860 O   0  0  0  0  0  1  0  0  0  0  0  0
  184.9080  178.6220  142.8950 C   0  0  2  0  0  3  0  0  0  0  0  0
  183.3960  178.7620  142.9510 C   0  0  0  0  0  2  0  0  0  0  0  0
  182.8400  178.6740  141.6120 N   0  0  0  0  0  1  0  0  0  0  0  0
  190.6320  176.8450  139.5740 C   0  0  1  0  0  3  0  0  0  0  0  0
  189.1970  178.6970  138.7420 C   0  0  0  0  0  1  0  0  0  0  0  0
  189.0870  176.5000  137.5550 C   0  0  0  0  0  0  0  0  0  0  0  0
  189.6350  177.3170  138.6100 N   0  0  0  0  0  0  0  0  0  0  0  0
  188.2320  176.9840  136.7640 O   0  0  0  0  0  0  0  0  0  0  0  0
  189.5870  174.7920  137.3170 S   0  0  0  0  0  1  0  0  0  0  0  0
  192.0440  177.2520  139.1700 C   0  0  0  0  0  2  0  0  0  0  0  0
  192.6740  176.1790  138.3020 C   0  0  0  0  0  1  0  0  0  0  0  0
  1 13  1  1  0  0  0
  1 11  1  0  0  0  0
  3 10  1  0  0  0  0
  3  6  1  1  0  0  0
  4 21  1  6  0  0  0
  4  3  1  0  0  0  0
  4 10  1  0  0  0  0
  5  9  2  0  0  0  0
  6 12  1  0  0  0  0
  8  2  1  1  0  0  0
  8  5  1  0  0  0  0
  9  7  1  0  0  0  0
 10  8  1  0  0  0  0
 11  7  1  0  0  0  0
 12  5  1  0  0  0  0
 12  1  1  0  0  0  0
 14 13  1  0  0  0  0
 14 16  1  0  0  0  0
 16 15  2  0  0  0  0
 17 18  1  0  0  0  0
 18 19  1  0  0  0  0
 18 14  1  0  0  0  0
 20 19  1  0  0  0  0
 23 24  1  0  0  0  0
 24 22  1  0  0  0  0
 24 21  1  0  0  0  0
 25 23  2  0  0  0  0
 26 23  1  0  0  0  0
 27 21  1  0  0  0  0
 28 27  1  0  0  0  0
M  END
>  <MODEL>
3

>  <REMARK>
 VINA RESULT:      -6.8      3.097      5.912
  Name = 
  8 active torsions:
  status: ('A' for Active; 'I' for Inactive)
    1  A    between atoms: C_1  and  O_2
    2  A    between atoms: O_2  and  C_3
    3  A    between atoms: C_3  and  C_11
    4  A    between atoms: C_3  and  C_22
    5  A    between atoms: C_4  and  C_13
    6  A    between atoms: C_4  and  C_14
    7  A    between atoms: C_4  and  N_15
    8  A    between atoms: C_7  and  C_11
                            x       y       z     vdW  Elec       q    Type
                         _______ _______ _______ _____ _____    ______ ____

>  <TORSDO>
F 8

$$$$
=
 OpenBabel11052413223D

 28 30  0  0  1  0  0  0  0  0999 V2000
  187.7760  177.7330  144.8240 C   0  0  1  0  0  3  0  0  0  0  0  0
  183.2390  179.4890  145.0330 O   0  0  0  0  0  1  0  0  0  0  0  0
  185.3270  178.7100  142.0170 C   0  0  2  0  0  3  0  0  0  0  0  0
  184.0350  177.9310  141.8780 C   0  0  1  0  0  3  0  0  0  0  0  0
  185.3190  178.3340  144.9480 C   0  0  0  0  0  0  0  0  0  0  0  0
  186.3500  177.8700  142.7740 C   0  0  0  0  0  2  0  0  0  0  0  0
  186.5460  177.7130  146.9070 O   0  0  0  0  0  0  0  0  0  0  0  0
  183.9910  178.5850  144.2800 C   0  0  2  0  0  3  0  0  0  0  0  0
  185.3430  177.9740  146.2370 C   0  0  0  0  0  3  0  0  0  0  0  0
  184.0870  179.1070  142.8360 C   0  0  1  0  0  3  0  0  0  0  0  0
  187.8150  178.0070  146.3280 C   0  0  0  0  0  2  0  0  0  0  0  0
  186.5940  178.4550  144.1530 C   0  0  2  0  0  3  0  0  0  0  0  0
  189.0190  177.9610  144.1840 O   0  0  0  0  0  0  0  0  0  0  0  0
  189.8060  176.7920  144.2420 C   0  0  2  0  0  3  0  0  0  0  0  0
  191.6120  176.7260  145.9110 C   0  0  0  0  0  2  0  0  0  0  0  0
  191.1850  177.1340  144.7190 C   0  0  0  0  0  3  0  0  0  0  0  0
  190.5470  174.9000  142.9470 O   0  0  0  0  0  1  0  0  0  0  0  0
  189.8750  176.1220  142.8660 C   0  0  2  0  0  3  0  0  0  0  0  0
  190.5630  177.0160  141.8480 C   0  0  0  0  0  2  0  0  0  0  0  0
  189.7450  177.1240  140.6510 N   0  0  0  0  0  1  0  0  0  0  0  0
  183.3230  178.3440  140.5990 C   0  0  1  0  0  3  0  0  0  0  0  0
  182.2640  176.2300  139.8350 C   0  0  0  0  0  1  0  0  0  0  0  0
  184.1790  177.1320  138.5060 C   0  0  0  0  0  0  0  0  0  0  0  0
  183.2840  177.2460  139.6310 N   0  0  0  0  0  0  0  0  0  0  0  0
  184.0770  176.1530  137.7170 O   0  0  0  0  0  0  0  0  0  0  0  0
  185.4550  178.3520  138.1780 S   0  0  0  0  0  1  0  0  0  0  0  0
  181.9300  178.8840  140.8980 C   0  0  0  0  0  2  0  0  0  0  0  0
  181.4290  179.7230  139.7370 C   0  0  0  0  0  1  0  0  0  0  0  0
  1 13  1  6  0  0  0
  1 11  1  0  0  0  0
  3  6  1  1  0  0  0
  3 10  1  0  0  0  0
  4 21  1  6  0  0  0
  4  3  1  0  0  0  0
  4 10  1  0  0  0  0
  5  9  2  0  0  0  0
  6 12  1  0  0  0  0
  8  5  1  0  0  0  0
  8  2  1  1  0  0  0
  9  7  1  0  0  0  0
 10  8  1  0  0  0  0
 11  7  1  0  0  0  0
 12  1  1  0  0  0  0
 12  5  1  0  0  0  0
 13 14  1  0  0  0  0
 14 16  1  0  0  0  0
 16 15  2  0  0  0  0
 18 17  1  0  0  0  0
 18 14  1  0  0  0  0
 19 18  1  0  0  0  0
 20 19  1  0  0  0  0
 21 27  1  0  0  0  0
 23 24  1  0  0  0  0
 24 22  1  0  0  0  0
 24 21  1  0  0  0  0
 25 23  2  0  0  0  0
 26 23  1  0  0  0  0
 28 27  1  0  0  0  0
M  END
>  <MODEL>
4

>  <REMARK>
 VINA RESULT:      -6.8      2.456      6.994
  Name = 
  8 active torsions:
  status: ('A' for Active; 'I' for Inactive)
    1  A    between atoms: C_1  and  O_2
    2  A    between atoms: O_2  and  C_3
    3  A    between atoms: C_3  and  C_11
    4  A    between atoms: C_3  and  C_22
    5  A    between atoms: C_4  and  C_13
    6  A    between atoms: C_4  and  C_14
    7  A    between atoms: C_4  and  N_15
    8  A    between atoms: C_7  and  C_11
                            x       y       z     vdW  Elec       q    Type
                         _______ _______ _______ _____ _____    ______ ____

>  <TORSDO>
F 8

$$$$
=
 OpenBabel11052413223D

 28 30  0  0  1  0  0  0  0  0999 V2000
  187.9610  177.6910  143.7860 C   0  0  1  0  0  3  0  0  0  0  0  0
  183.7130  179.2380  145.5970 O   0  0  0  0  0  1  0  0  0  0  0  0
  184.7760  178.9320  142.0130 C   0  0  2  0  0  3  0  0  0  0  0  0
  183.4990  178.1310  142.1710 C   0  0  1  0  0  3  0  0  0  0  0  0
  185.6620  178.1810  144.7300 C   0  0  0  0  0  0  0  0  0  0  0  0
  185.9770  178.0390  142.3030 C   0  0  0  0  0  2  0  0  0  0  0  0
  187.4270  177.3580  146.1220 O   0  0  0  0  0  0  0  0  0  0  0  0
  184.1960  178.4670  144.5370 C   0  0  2  0  0  3  0  0  0  0  0  0
  186.0790  177.6590  145.8900 C   0  0  0  0  0  3  0  0  0  0  0  0
  183.8470  179.1740  143.2150 C   0  0  1  0  0  3  0  0  0  0  0  0
  188.4590  177.7700  145.2300 C   0  0  0  0  0  2  0  0  0  0  0  0
  186.6340  178.4490  143.6090 C   0  0  2  0  0  3  0  0  0  0  0  0
  188.9490  178.0440  142.8350 O   0  0  0  0  0  0  0  0  0  0  0  0
  189.3490  176.8990  142.1140 C   0  0  2  0  0  3  0  0  0  0  0  0
  191.5270  177.4020  143.1420 C   0  0  0  0  0  2  0  0  0  0  0  0
  190.7610  176.5460  142.4700 C   0  0  0  0  0  3  0  0  0  0  0  0
  190.4700  176.9880  139.9840 O   0  0  0  0  0  1  0  0  0  0  0  0
  189.2300  177.1450  140.6070 C   0  0  2  0  0  3  0  0  0  0  0  0
  188.6850  178.5320  140.3130 C   0  0  0  0  0  2  0  0  0  0  0  0
  188.7850  178.8130  138.8910 N   0  0  0  0  0  1  0  0  0  0  0  0
  182.4320  178.6790  141.2350 C   0  0  1  0  0  3  0  0  0  0  0  0
  182.6930  176.6440  139.8330 C   0  0  0  0  0  1  0  0  0  0  0  0
  182.4850  178.8510  138.6760 C   0  0  0  0  0  0  0  0  0  0  0  0
  182.5380  178.0880  139.8990 N   0  0  0  0  0  0  0  0  0  0  0  0
  182.5820  178.2630  137.5640 O   0  0  0  0  0  0  0  0  0  0  0  0
  182.2800  180.6340  138.6740 S   0  0  0  0  0  1  0  0  0  0  0  0
  181.0390  178.4950  141.8260 C   0  0  0  0  0  2  0  0  0  0  0  0
  180.1630  179.6870  141.4920 C   0  0  0  0  0  1  0  0  0  0  0  0
  1 13  1  6  0  0  0
  1 11  1  0  0  0  0
  3  4  1  0  0  0  0
  3  6  1  1  0  0  0
  3 10  1  0  0  0  0
  4 21  1  6  0  0  0
  4 10  1  0  0  0  0
  5  9  2  0  0  0  0
  6 12  1  0  0  0  0
  8  5  1  0  0  0  0
  8  2  1  1  0  0  0
  9  7  1  0  0  0  0
 10  8  1  0  0  0  0
 11  7  1  0  0  0  0
 12  1  1  0  0  0  0
 12  5  1  0  0  0  0
 14 16  1  0  0  0  0
 14 13  1  0  0  0  0
 16 15  2  0  0  0  0
 17 18  1  0  0  0  0
 18 14  1  0  0  0  0
 19 18  1  0  0  0  0
 20 19  1  0  0  0  0
 21 27  1  0  0  0  0
 22 24  1  0  0  0  0
 23 24  1  0  0  0  0
 24 21  1  0  0  0  0
 25 23  2  0  0  0  0
 26 23  1  0  0  0  0
 28 27  1  0  0  0  0
M  END
>  <MODEL>
5

>  <REMARK>
 VINA RESULT:      -6.7      2.940      6.857
  Name = 
  8 active torsions:
  status: ('A' for Active; 'I' for Inactive)
    1  A    between atoms: C_1  and  O_2
    2  A    between atoms: O_2  and  C_3
    3  A    between atoms: C_3  and  C_11
    4  A    between atoms: C_3  and  C_22
    5  A    between atoms: C_4  and  C_13
    6  A    between atoms: C_4  and  C_14
    7  A    between atoms: C_4  and  N_15
    8  A    between atoms: C_7  and  C_11
                            x       y       z     vdW  Elec       q    Type
                         _______ _______ _______ _____ _____    ______ ____

>  <TORSDO>
F 8

$$$$
=
 OpenBabel11052413223D

 28 30  0  0  1  0  0  0  0  0999 V2000
  190.6470  176.6150  138.8870 C   0  0  1  0  0  3  0  0  0  0  0  0
  186.7960  178.6990  141.0180 O   0  0  0  0  0  1  0  0  0  0  0  0
  189.3250  176.3560  142.4940 C   0  0  2  0  0  3  0  0  0  0  0  0
  189.3160  177.6030  143.3550 C   0  0  1  0  0  3  0  0  0  0  0  0
  188.8410  177.9530  140.0550 C   0  0  0  0  0  0  0  0  0  0  0  0
  190.3370  176.5210  141.3670 C   0  0  0  0  0  2  0  0  0  0  0  0
  189.4630  178.4180  137.7910 O   0  0  0  0  0  0  0  0  0  0  0  0
  188.1220  178.3750  141.3110 C   0  0  2  0  0  3  0  0  0  0  0  0
  188.8020  178.7500  138.9810 C   0  0  0  0  0  3  0  0  0  0  0  0
  188.1360  177.3310  142.4410 C   0  0  1  0  0  3  0  0  0  0  0  0
  190.0430  177.1340  137.5810 C   0  0  0  0  0  2  0  0  0  0  0  0
  189.6230  176.6640  140.0350 C   0  0  2  0  0  3  0  0  0  0  0  0
  191.2840  175.3570  138.7460 O   0  0  0  0  0  0  0  0  0  0  0  0
  192.0860  175.3570  137.5860 C   0  0  2  0  0  3  0  0  0  0  0  0
  191.1580  173.6270  136.1030 C   0  0  0  0  0  2  0  0  0  0  0  0
  192.0940  173.9870  136.9780 C   0  0  0  0  0  3  0  0  0  0  0  0
  193.9810  176.7150  136.9790 O   0  0  0  0  0  1  0  0  0  0  0  0
  193.5150  175.7940  137.9210 C   0  0  2  0  0  3  0  0  0  0  0  0
  194.4590  174.6060  137.9810 C   0  0  0  0  0  2  0  0  0  0  0  0
  195.5750  174.9040  138.8630 N   0  0  0  0  0  1  0  0  0  0  0  0
  188.9500  177.2350  144.7850 C   0  0  1  0  0  3  0  0  0  0  0  0
  191.4140  177.4750  145.0180 C   0  0  0  0  0  1  0  0  0  0  0  0
  190.0730  177.0570  147.0860 C   0  0  0  0  0  0  0  0  0  0  0  0
  190.1280  177.2460  145.6570 N   0  0  0  0  0  0  0  0  0  0  0  0
  191.1350  177.0830  147.7650 O   0  0  0  0  0  0  0  0  0  0  0  0
  188.5230  176.7850  147.9500 S   0  0  0  0  0  1  0  0  0  0  0  0
  187.8450  178.1400  145.3180 C   0  0  0  0  0  2  0  0  0  0  0  0
  186.5010  177.4430  145.2200 C   0  0  0  0  0  1  0  0  0  0  0  0
  1 13  1  6  0  0  0
  1 12  1  0  0  0  0
  3  6  1  6  0  0  0
  3  4  1  0  0  0  0
  4 21  1  1  0  0  0
  5  8  1  0  0  0  0
  7  9  1  0  0  0  0
  8  2  1  6  0  0  0
  8 10  1  0  0  0  0
  9  5  2  0  0  0  0
 10  3  1  0  0  0  0
 10  4  1  0  0  0  0
 11  7  1  0  0  0  0
 11  1  1  0  0  0  0
 12  5  1  0  0  0  0
 12  6  1  0  0  0  0
 14 18  1  0  0  0  0
 14 13  1  0  0  0  0
 15 16  2  0  0  0  0
 16 14  1  0  0  0  0
 17 18  1  0  0  0  0
 18 19  1  0  0  0  0
 19 20  1  0  0  0  0
 21 27  1  0  0  0  0
 21 24  1  0  0  0  0
 22 24  1  0  0  0  0
 23 25  2  0  0  0  0
 23 26  1  0  0  0  0
 24 23  1  0  0  0  0
 28 27  1  0  0  0  0
M  END
>  <MODEL>
6

>  <REMARK>
 VINA RESULT:      -6.5      4.476      6.809
  Name = 
  8 active torsions:
  status: ('A' for Active; 'I' for Inactive)
    1  A    between atoms: C_1  and  O_2
    2  A    between atoms: O_2  and  C_3
    3  A    between atoms: C_3  and  C_11
    4  A    between atoms: C_3  and  C_22
    5  A    between atoms: C_4  and  C_13
    6  A    between atoms: C_4  and  C_14
    7  A    between atoms: C_4  and  N_15
    8  A    between atoms: C_7  and  C_11
                            x       y       z     vdW  Elec       q    Type
                         _______ _______ _______ _____ _____    ______ ____

>  <TORSDO>
F 8

$$$$
=
 OpenBabel11052413223D

 28 30  0  0  1  0  0  0  0  0999 V2000
  189.5050  177.6460  144.4000 C   0  0  1  0  0  3  0  0  0  0  0  0
  192.8040  177.2180  140.8430 O   0  0  0  0  0  1  0  0  0  0  0  0
  189.1300  176.4760  140.7500 C   0  0  2  0  0  3  0  0  0  0  0  0
  189.4140  177.4650  139.6380 C   0  0  1  0  0  3  0  0  0  0  0  0
  191.1610  177.7380  142.4850 C   0  0  0  0  0  0  0  0  0  0  0  0
  188.8060  177.2310  142.0340 C   0  0  0  0  0  2  0  0  0  0  0  0
  191.7070  178.6180  144.6440 O   0  0  0  0  0  0  0  0  0  0  0  0
  191.4810  177.6260  141.0170 C   0  0  2  0  0  3  0  0  0  0  0  0
  191.9620  178.4660  143.2740 C   0  0  0  0  0  3  0  0  0  0  0  0
  190.5640  176.6730  140.2300 C   0  0  1  0  0  3  0  0  0  0  0  0
  190.7100  177.8550  145.3180 C   0  0  0  0  0  2  0  0  0  0  0  0
  189.9310  177.0650  143.0400 C   0  0  2  0  0  3  0  0  0  0  0  0
  188.4500  176.9310  145.0180 O   0  0  0  0  0  0  0  0  0  0  0  0
  187.7320  177.7890  145.8780 C   0  0  2  0  0  3  0  0  0  0  0  0
  188.4300  178.0740  148.2200 C   0  0  0  0  0  2  0  0  0  0  0  0
  187.8600  177.3090  147.2910 C   0  0  0  0  0  3  0  0  0  0  0  0
  186.1320  177.8420  144.0780 O   0  0  0  0  0  1  0  0  0  0  0  0
  186.2570  177.8450  145.4690 C   0  0  2  0  0  3  0  0  0  0  0  0
  185.5710  179.0750  146.0390 C   0  0  0  0  0  2  0  0  0  0  0  0
  184.1290  178.8990  146.0050 N   0  0  0  0  0  1  0  0  0  0  0  0
  189.0120  176.8620  138.3010 C   0  0  1  0  0  3  0  0  0  0  0  0
  189.1430  179.1250  137.2820 C   0  0  0  0  0  1  0  0  0  0  0  0
  187.1980  177.6750  136.6790 C   0  0  0  0  0  0  0  0  0  0  0  0
  188.4230  177.8690  137.4150 N   0  0  0  0  0  0  0  0  0  0  0  0
  186.7590  178.5940  135.9350 O   0  0  0  0  0  0  0  0  0  0  0  0
  186.2590  176.1480  136.7790 S   0  0  0  0  0  1  0  0  0  0  0  0
  190.1900  176.1520  137.6440 C   0  0  0  0  0  2  0  0  0  0  0  0
  189.7810  174.7660  137.1840 C   0  0  0  0  0  1  0  0  0  0  0  0
  1 13  1  1  0  0  0
  1 11  1  0  0  0  0
  3  6  1  1  0  0  0
  4 21  1  6  0  0  0
  4 10  1  0  0  0  0
  4  3  1  0  0  0  0
  5 12  1  0  0  0  0
  5  9  2  0  0  0  0
  6 12  1  0  0  0  0
  7 11  1  0  0  0  0
  8  2  1  1  0  0  0
  8  5  1  0  0  0  0
  9  7  1  0  0  0  0
 10  3  1  0  0  0  0
 10  8  1  0  0  0  0
 12  1  1  0  0  0  0
 13 14  1  0  0  0  0
 14 16  1  0  0  0  0
 16 15  2  0  0  0  0
 17 18  1  0  0  0  0
 18 14  1  0  0  0  0
 18 19  1  0  0  0  0
 20 19  1  0  0  0  0
 22 24  1  0  0  0  0
 23 26  1  0  0  0  0
 23 24  1  0  0  0  0
 24 21  1  0  0  0  0
 25 23  2  0  0  0  0
 27 21  1  0  0  0  0
 28 27  1  0  0  0  0
M  END
>  <MODEL>
7

>  <REMARK>
 VINA RESULT:      -6.4      3.489      7.644
  Name = 
  8 active torsions:
  status: ('A' for Active; 'I' for Inactive)
    1  A    between atoms: C_1  and  O_2
    2  A    between atoms: O_2  and  C_3
    3  A    between atoms: C_3  and  C_11
    4  A    between atoms: C_3  and  C_22
    5  A    between atoms: C_4  and  C_13
    6  A    between atoms: C_4  and  C_14
    7  A    between atoms: C_4  and  N_15
    8  A    between atoms: C_7  and  C_11
                            x       y       z     vdW  Elec       q    Type
                         _______ _______ _______ _____ _____    ______ ____

>  <TORSDO>
F 8

$$$$
=
 OpenBabel11052413223D

 28 30  0  0  1  0  0  0  0  0999 V2000
  188.4200  177.8680  141.8940 C   0  0  1  0  0  3  0  0  0  0  0  0
  184.8400  178.8640  145.0420 O   0  0  0  0  0  1  0  0  0  0  0  0
  184.7950  179.0210  141.2950 C   0  0  2  0  0  3  0  0  0  0  0  0
  183.6630  178.1060  141.7180 C   0  0  1  0  0  3  0  0  0  0  0  0
  186.4890  178.0670  143.5210 C   0  0  0  0  0  0  0  0  0  0  0  0
  186.0690  178.2050  141.1100 C   0  0  0  0  0  2  0  0  0  0  0  0
  188.6260  177.2500  144.2250 O   0  0  0  0  0  0  0  0  0  0  0  0
  185.0190  178.2500  143.8010 C   0  0  2  0  0  3  0  0  0  0  0  0
  187.2570  177.4620  144.4350 C   0  0  0  0  0  3  0  0  0  0  0  0
  184.2580  179.0600  142.7360 C   0  0  1  0  0  3  0  0  0  0  0  0
  189.3230  177.8360  143.1290 C   0  0  0  0  0  2  0  0  0  0  0  0
  187.0660  178.5290  142.2070 C   0  0  2  0  0  3  0  0  0  0  0  0
  189.0610  178.3980  140.7480 O   0  0  0  0  0  0  0  0  0  0  0  0
  189.2030  177.3900  139.7720 C   0  0  2  0  0  3  0  0  0  0  0  0
  191.2620  176.4810  138.7770 C   0  0  0  0  0  2  0  0  0  0  0  0
  190.5670  176.7790  139.8730 C   0  0  0  0  0  3  0  0  0  0  0  0
  189.0340  179.3620  138.3990 O   0  0  0  0  0  1  0  0  0  0  0  0
  188.9850  177.9660  138.3700 C   0  0  2  0  0  3  0  0  0  0  0  0
  187.6570  177.5160  137.7860 C   0  0  0  0  0  2  0  0  0  0  0  0
  186.7830  178.6620  137.5990 N   0  0  0  0  0  1  0  0  0  0  0  0
  182.3410  178.6600  141.2090 C   0  0  1  0  0  3  0  0  0  0  0  0
  182.0170  176.6240  139.8200 C   0  0  0  0  0  1  0  0  0  0  0  0
  181.5840  178.8490  138.7650 C   0  0  0  0  0  0  0  0  0  0  0  0
  181.9780  178.0750  139.9160 N   0  0  0  0  0  0  0  0  0  0  0  0
  181.2860  178.2670  137.6870 O   0  0  0  0  0  0  0  0  0  0  0  0
  181.4980  180.6420  138.8090 S   0  0  0  0  0  1  0  0  0  0  0  0
  181.2360  178.4730  142.2430 C   0  0  0  0  0  2  0  0  0  0  0  0
  180.4310  179.7500  142.3900 C   0  0  0  0  0  1  0  0  0  0  0  0
  1 13  1  6  0  0  0
  1 12  1  0  0  0  0
  1 11  1  0  0  0  0
  3  6  1  1  0  0  0
  3  4  1  0  0  0  0
  3 10  1  0  0  0  0
  4 21  1  6  0  0  0
  4 10  1  0  0  0  0
  5  8  1  0  0  0  0
  5  9  2  0  0  0  0
  6 12  1  0  0  0  0
  7  9  1  0  0  0  0
  8  2  1  1  0  0  0
 10  8  1  0  0  0  0
 11  7  1  0  0  0  0
 12  5  1  0  0  0  0
 14 16  1  0  0  0  0
 14 13  1  0  0  0  0
 15 16  2  0  0  0  0
 18 17  1  0  0  0  0
 18 14  1  0  0  0  0
 19 18  1  0  0  0  0
 20 19  1  0  0  0  0
 21 27  1  0  0  0  0
 22 24  1  0  0  0  0
 23 26  1  0  0  0  0
 23 24  1  0  0  0  0
 24 21  1  0  0  0  0
 25 23  2  0  0  0  0
 27 28  1  0  0  0  0
M  END
>  <MODEL>
8

>  <REMARK>
 VINA RESULT:      -6.2      3.391      6.845
  Name = 
  8 active torsions:
  status: ('A' for Active; 'I' for Inactive)
    1  A    between atoms: C_1  and  O_2
    2  A    between atoms: O_2  and  C_3
    3  A    between atoms: C_3  and  C_11
    4  A    between atoms: C_3  and  C_22
    5  A    between atoms: C_4  and  C_13
    6  A    between atoms: C_4  and  C_14
    7  A    between atoms: C_4  and  N_15
    8  A    between atoms: C_7  and  C_11
                            x       y       z     vdW  Elec       q    Type
                         _______ _______ _______ _____ _____    ______ ____

>  <TORSDO>
F 8

$$$$
=
 OpenBabel11052413223D

 28 30  0  0  1  0  0  0  0  0999 V2000
  187.9260  177.8360  138.9890 C   0  0  1  0  0  3  0  0  0  0  0  0
  192.0610  177.2850  141.5010 O   0  0  0  0  0  1  0  0  0  0  0  0
  188.6860  178.3650  142.7270 C   0  0  2  0  0  3  0  0  0  0  0  0
  189.1020  177.1690  143.5600 C   0  0  1  0  0  3  0  0  0  0  0  0
  189.9910  177.2360  140.3280 C   0  0  0  0  0  0  0  0  0  0  0  0
  187.9340  177.8900  141.4900 C   0  0  0  0  0  2  0  0  0  0  0  0
  189.8230  176.7060  138.0000 O   0  0  0  0  0  0  0  0  0  0  0  0
  190.6930  177.0500  141.6480 C   0  0  2  0  0  3  0  0  0  0  0  0
  190.4440  176.5840  139.2500 C   0  0  0  0  0  3  0  0  0  0  0  0
  190.1620  177.9340  142.7900 C   0  0  1  0  0  3  0  0  0  0  0  0
  188.8080  177.6740  137.7500 C   0  0  0  0  0  2  0  0  0  0  0  0
  188.7710  178.1180  140.2450 C   0  0  2  0  0  3  0  0  0  0  0  0
  186.8630  178.7530  138.8010 O   0  0  0  0  0  0  0  0  0  0  0  0
  185.6300  178.0710  138.8550 C   0  0  2  0  0  3  0  0  0  0  0  0
  184.8580  176.4190  137.2040 C   0  0  0  0  0  2  0  0  0  0  0  0
  185.2120  177.6730  137.4730 C   0  0  0  0  0  3  0  0  0  0  0  0
  184.5710  180.2340  138.9380 O   0  0  0  0  0  1  0  0  0  0  0  0
  184.5560  178.9540  139.4980 C   0  0  2  0  0  3  0  0  0  0  0  0
  184.7480  179.0540  141.0020 C   0  0  0  0  0  2  0  0  0  0  0  0
  184.0880  177.9400  141.6610 N   0  0  0  0  0  1  0  0  0  0  0  0
  189.1530  177.5610  145.0290 C   0  0  1  0  0  3  0  0  0  0  0  0
  186.6980  177.3130  144.7290 C   0  0  0  0  0  1  0  0  0  0  0  0
  187.5490  177.9460  146.9930 C   0  0  0  0  0  0  0  0  0  0  0  0
  187.8110  177.6190  145.6130 N   0  0  0  0  0  0  0  0  0  0  0  0
  186.3620  177.9730  147.4180 O   0  0  0  0  0  0  0  0  0  0  0  0
  188.8690  178.3210  148.1500 S   0  0  0  0  0  1  0  0  0  0  0  0
  190.0710  176.6290  145.8120 C   0  0  0  0  0  2  0  0  0  0  0  0
  191.5090  177.0980  145.7090 C   0  0  0  0  0  1  0  0  0  0  0  0
  1 13  1  6  0  0  0
  1 12  1  0  0  0  0
  3  6  1  6  0  0  0
  3 10  1  0  0  0  0
  3  4  1  0  0  0  0
  4 21  1  1  0  0  0
  5  8  1  0  0  0  0
  7  9  1  0  0  0  0
  8  2  1  6  0  0  0
  8 10  1  0  0  0  0
  9  5  2  0  0  0  0
 10  4  1  0  0  0  0
 11  7  1  0  0  0  0
 11  1  1  0  0  0  0
 12  5  1  0  0  0  0
 12  6  1  0  0  0  0
 13 14  1  0  0  0  0
 14 18  1  0  0  0  0
 15 16  2  0  0  0  0
 16 14  1  0  0  0  0
 17 18  1  0  0  0  0
 18 19  1  0  0  0  0
 19 20  1  0  0  0  0
 21 24  1  0  0  0  0
 21 27  1  0  0  0  0
 22 24  1  0  0  0  0
 23 25  2  0  0  0  0
 23 26  1  0  0  0  0
 24 23  1  0  0  0  0
 28 27  1  0  0  0  0
M  END
>  <MODEL>
9

>  <REMARK>
 VINA RESULT:      -6.1      2.676      5.081
  Name = 
  8 active torsions:
  status: ('A' for Active; 'I' for Inactive)
    1  A    between atoms: C_1  and  O_2
    2  A    between atoms: O_2  and  C_3
    3  A    between atoms: C_3  and  C_11
    4  A    between atoms: C_3  and  C_22
    5  A    between atoms: C_4  and  C_13
    6  A    between atoms: C_4  and  C_14
    7  A    between atoms: C_4  and  N_15
    8  A    between atoms: C_7  and  C_11
                            x       y       z     vdW  Elec       q    Type
                         _______ _______ _______ _____ _____    ______ ____

>  <TORSDO>
F 8

$$$$
