=
 OpenBabel11052414423D

 32 36  0  0  1  0  0  0  0  0999 V2000
  190.1990  177.4680  140.6160 O   0  0  0  0  0  0  0  0  0  0  0  0
  189.0130  177.2270  142.6630 C   0  0  0  0  0  0  0  0  0  0  0  0
  190.2030  177.6420  139.1980 C   0  0  2  0  0  3  0  0  0  0  0  0
  189.0200  177.5540  141.3660 C   0  0  0  0  0  0  0  0  0  0  0  0
  187.7170  177.2030  143.4400 C   0  0  1  0  0  3  0  0  0  0  0  0
  191.5700  176.6140  146.7500 C   0  0  0  0  0  3  0  0  0  0  0  0
  190.2470  176.8500  143.3720 C   0  0  0  0  0  2  0  0  0  0  0  0
  189.2490  177.2970  146.8720 C   0  0  0  0  0  3  0  0  0  0  0  0
  189.1360  177.1980  145.4820 C   0  0  0  0  0  0  0  0  0  0  0  0
  187.8220  178.0620  140.7500 N   0  0  0  0  0  0  0  0  0  0  0  0
  187.9480  177.4430  144.9100 C   0  0  0  0  0  2  0  0  0  0  0  0
  186.6690  178.3750  141.5430 C   0  0  0  0  0  3  0  0  0  0  0  0
  187.7700  178.2940  139.3110 C   0  0  0  0  0  2  0  0  0  0  0  0
  190.2750  176.8340  144.7110 C   0  0  0  0  0  0  0  0  0  0  0  0
  186.6250  178.0590  142.8410 C   0  0  0  0  0  0  0  0  0  0  0  0
  189.1490  178.6660  138.7640 C   0  0  0  0  0  2  0  0  0  0  0  0
  190.4600  177.0030  147.5050 C   0  0  0  0  0  3  0  0  0  0  0  0
  191.4780  176.5350  145.3570 C   0  0  0  0  0  3  0  0  0  0  0  0
  188.9720  176.1780  137.5350 N   0  0  0  0  0  2  0  0  0  0  0  0
  190.0130  176.3300  138.5030 C   0  0  0  0  0  0  0  0  0  0  0  0
  190.7960  175.3760  138.7550 O   0  0  0  0  0  0  0  0  0  0  0  0
  189.1790  174.9840  135.3350 C   0  0  2  0  0  0  0  0  0  0  0  0
  185.9200  173.7550  134.9680 O   0  0  0  0  0  0  0  0  0  0  0  0
  189.4240  176.4020  134.8300 C   0  0  0  0  0  1  0  0  0  0  0  0
  187.2320  174.5970  136.8100 C   0  0  0  0  0  2  0  0  0  0  0  0
  188.1070  174.4190  134.6010 O   0  0  0  0  0  0  0  0  0  0  0  0
  188.7240  174.9320  136.8200 C   0  0  2  0  0  3  0  0  0  0  0  0
  187.0060  174.2150  135.4030 C   0  0  0  0  0  0  0  0  0  0  0  0
  190.4470  174.1650  135.1330 C   0  0  0  0  0  2  0  0  0  0  0  0
  190.6170  173.2480  136.1730 O   0  0  0  0  0  1  0  0  0  0  0  0
  185.3720  178.3390  143.6010 C   0  0  0  0  0  2  0  0  0  0  0  0
  184.2320  178.3140  142.7010 N   0  0  0  0  0  1  0  0  0  0  0  0
  1  4  1  0  0  0  0
  2  7  1  0  0  0  0
  2  5  1  0  0  0  0
  3 20  1  6  0  0  0
  3  1  1  0  0  0  0
  4  2  2  0  0  0  0
  5 11  1  1  0  0  0
  6 17  1  0  0  0  0
  7 14  1  0  0  0  0
  8 17  2  0  0  0  0
  9  8  1  0  0  0  0
 10  4  1  0  0  0  0
 10 12  1  0  0  0  0
 11  9  1  0  0  0  0
 12 15  2  0  0  0  0
 13 10  1  0  0  0  0
 14 18  1  0  0  0  0
 14  9  2  0  0  0  0
 15  5  1  0  0  0  0
 15 31  1  0  0  0  0
 16  3  1  0  0  0  0
 16 13  1  0  0  0  0
 18  6  2  0  0  0  0
 19 20  1  0  0  0  0
 20 21  2  0  0  0  0
 22 24  1  6  0  0  0
 22 27  1  0  0  0  0
 23 28  2  0  0  0  0
 25 27  1  0  0  0  0
 26 22  1  0  0  0  0
 26 28  1  0  0  0  0
 27 19  1  6  0  0  0
 28 25  1  0  0  0  0
 29 22  1  0  0  0  0
 29 30  1  0  0  0  0
 32 31  1  0  0  0  0
M  END
>  <MODEL>
1

>  <REMARK>
 VINA RESULT:      -9.5      0.000      0.000
  Name = 
  4 active torsions:
  status: ('A' for Active; 'I' for Inactive)
    1  A    between atoms: C_3  and  C_22
    2  A    between atoms: C_4  and  C_24
    3  A    between atoms: C_13  and  C_29
    4  A    between atoms: N_16  and  C_20
                            x       y       z     vdW  Elec       q    Type
                         _______ _______ _______ _____ _____    ______ ____

>  <TORSDO>
F 4

$$$$
=
 OpenBabel11052414423D

 32 36  0  0  1  0  0  0  0  0999 V2000
  189.8790  177.9150  141.3930 O   0  0  0  0  0  0  0  0  0  0  0  0
  188.2080  177.6320  143.0620 C   0  0  0  0  0  0  0  0  0  0  0  0
  190.2540  178.0190  140.0190 C   0  0  2  0  0  3  0  0  0  0  0  0
  188.5370  177.8950  141.7920 C   0  0  0  0  0  0  0  0  0  0  0  0
  186.7580  177.4900  143.4640 C   0  0  1  0  0  3  0  0  0  0  0  0
  189.5950  177.5310  147.7180 C   0  0  0  0  0  3  0  0  0  0  0  0
  189.2330  177.4410  144.1020 C   0  0  0  0  0  2  0  0  0  0  0  0
  187.2730  177.9350  147.1620 C   0  0  0  0  0  3  0  0  0  0  0  0
  187.5560  177.7560  145.8040 C   0  0  0  0  0  0  0  0  0  0  0  0
  187.5090  178.2240  140.8400 N   0  0  0  0  0  0  0  0  0  0  0  0
  186.5510  177.8280  144.9180 C   0  0  0  0  0  2  0  0  0  0  0  0
  186.1570  178.4330  141.2690 C   0  0  0  0  0  3  0  0  0  0  0  0
  187.8300  178.3770  139.4260 C   0  0  0  0  0  2  0  0  0  0  0  0
  188.8930  177.4950  145.3970 C   0  0  0  0  0  0  0  0  0  0  0  0
  185.7910  178.1780  142.5290 C   0  0  0  0  0  0  0  0  0  0  0  0
  189.2600  178.8860  139.2390 C   0  0  0  0  0  2  0  0  0  0  0  0
  188.2870  177.8200  148.1160 C   0  0  0  0  0  3  0  0  0  0  0  0
  189.8970  177.3750  146.3630 C   0  0  0  0  0  3  0  0  0  0  0  0
  191.4330  176.4140  138.4500 N   0  0  0  0  0  2  0  0  0  0  0  0
  190.3980  176.6610  139.4050 C   0  0  0  0  0  0  0  0  0  0  0  0
  189.6210  175.7350  139.7600 O   0  0  0  0  0  0  0  0  0  0  0  0
  192.9720  175.0320  137.0260 C   0  0  2  0  0  0  0  0  0  0  0  0
  190.7290  173.8820  134.5940 O   0  0  0  0  0  0  0  0  0  0  0  0
  193.6080  176.3930  136.7650 C   0  0  0  0  0  1  0  0  0  0  0  0
  190.5170  174.8350  136.8010 C   0  0  0  0  0  2  0  0  0  0  0  0
  192.6350  174.4420  135.7830 O   0  0  0  0  0  0  0  0  0  0  0  0
  191.6320  175.1200  137.8080 C   0  0  2  0  0  3  0  0  0  0  0  0
  191.2700  174.3430  135.6320 C   0  0  0  0  0  0  0  0  0  0  0  0
  193.9710  174.1570  137.7720 C   0  0  0  0  0  2  0  0  0  0  0  0
  195.2020  174.8060  137.8990 O   0  0  0  0  0  1  0  0  0  0  0  0
  184.3560  178.3410  142.9020 C   0  0  0  0  0  2  0  0  0  0  0  0
  183.5430  178.4520  141.7040 N   0  0  0  0  0  1  0  0  0  0  0  0
  1  4  1  0  0  0  0
  2  5  1  0  0  0  0
  2  7  1  0  0  0  0
  3 20  1  6  0  0  0
  3  1  1  0  0  0  0
  4  2  2  0  0  0  0
  5 11  1  1  0  0  0
  6 17  1  0  0  0  0
  7 14  1  0  0  0  0
  8 17  2  0  0  0  0
  9  8  1  0  0  0  0
 10 12  1  0  0  0  0
 10  4  1  0  0  0  0
 11  9  1  0  0  0  0
 12 15  2  0  0  0  0
 13 10  1  0  0  0  0
 14  9  2  0  0  0  0
 14 18  1  0  0  0  0
 15 31  1  0  0  0  0
 15  5  1  0  0  0  0
 16 13  1  0  0  0  0
 16  3  1  0  0  0  0
 18  6  2  0  0  0  0
 19 20  1  0  0  0  0
 20 21  2  0  0  0  0
 22 24  1  6  0  0  0
 22 29  1  0  0  0  0
 22 27  1  0  0  0  0
 23 28  2  0  0  0  0
 25 27  1  0  0  0  0
 26 22  1  0  0  0  0
 27 19  1  6  0  0  0
 28 26  1  0  0  0  0
 28 25  1  0  0  0  0
 29 30  1  0  0  0  0
 32 31  1  0  0  0  0
M  END
>  <MODEL>
2

>  <REMARK>
 VINA RESULT:      -8.6      1.907      2.605
  Name = 
  4 active torsions:
  status: ('A' for Active; 'I' for Inactive)
    1  A    between atoms: C_3  and  C_22
    2  A    between atoms: C_4  and  C_24
    3  A    between atoms: C_13  and  C_29
    4  A    between atoms: N_16  and  C_20
                            x       y       z     vdW  Elec       q    Type
                         _______ _______ _______ _____ _____    ______ ____

>  <TORSDO>
F 4

$$$$
=
 OpenBabel11052414423D

 32 36  0  0  1  0  0  0  0  0999 V2000
  190.1510  177.5340  140.4830 O   0  0  0  0  0  0  0  0  0  0  0  0
  189.0220  177.2080  142.5510 C   0  0  0  0  0  0  0  0  0  0  0  0
  190.1150  177.7690  139.0750 C   0  0  2  0  0  3  0  0  0  0  0  0
  188.9940  177.5920  141.2700 C   0  0  0  0  0  0  0  0  0  0  0  0
  187.7480  177.1570  143.3640 C   0  0  1  0  0  3  0  0  0  0  0  0
  191.6910  176.4060  146.5320 C   0  0  0  0  0  3  0  0  0  0  0  0
  190.2740  176.7950  143.2070 C   0  0  0  0  0  2  0  0  0  0  0  0
  189.3790  177.0940  146.7510 C   0  0  0  0  0  3  0  0  0  0  0  0
  189.2250  177.0570  145.3610 C   0  0  0  0  0  0  0  0  0  0  0  0
  187.7820  178.1320  140.7110 N   0  0  0  0  0  0  0  0  0  0  0  0
  188.0230  177.3320  144.8350 C   0  0  0  0  0  2  0  0  0  0  0  0
  186.6540  178.4150  141.5500 C   0  0  0  0  0  3  0  0  0  0  0  0
  187.6900  178.4270  139.2860 C   0  0  0  0  0  2  0  0  0  0  0  0
  190.3390  176.7210  144.5430 C   0  0  0  0  0  0  0  0  0  0  0  0
  186.6450  178.0430  142.8330 C   0  0  0  0  0  0  0  0  0  0  0  0
  189.0550  178.8160  138.7160 C   0  0  0  0  0  2  0  0  0  0  0  0
  190.6060  176.7670  147.3350 C   0  0  0  0  0  3  0  0  0  0  0  0
  191.5590  176.3890  145.1410 C   0  0  0  0  0  3  0  0  0  0  0  0
  188.9950  176.4530  137.2200 N   0  0  0  0  0  2  0  0  0  0  0  0
  189.8970  176.4900  138.3290 C   0  0  0  0  0  0  0  0  0  0  0  0
  190.5380  175.4590  138.6660 O   0  0  0  0  0  0  0  0  0  0  0  0
  187.2190  175.0280  136.1600 C   0  0  2  0  0  0  0  0  0  0  0  0
  188.0910  171.8800  137.4220 O   0  0  0  0  0  0  0  0  0  0  0  0
  186.3100  175.8780  137.0410 C   0  0  0  0  0  1  0  0  0  0  0  0
  189.2160  174.0030  137.1990 C   0  0  0  0  0  2  0  0  0  0  0  0
  186.9810  173.6610  136.4460 O   0  0  0  0  0  0  0  0  0  0  0  0
  188.7310  175.2440  136.4480 C   0  0  2  0  0  3  0  0  0  0  0  0
  188.0770  173.0790  137.0440 C   0  0  0  0  0  0  0  0  0  0  0  0
  186.9040  175.3240  134.7000 C   0  0  0  0  0  2  0  0  0  0  0  0
  185.8960  176.2860  134.5940 O   0  0  0  0  0  1  0  0  0  0  0  0
  185.4160  178.2950  143.6410 C   0  0  0  0  0  2  0  0  0  0  0  0
  184.2460  178.2740  142.7800 N   0  0  0  0  0  1  0  0  0  0  0  0
  1  4  1  0  0  0  0
  2  7  1  0  0  0  0
  2  5  1  0  0  0  0
  3 20  1  6  0  0  0
  3  1  1  0  0  0  0
  4  2  2  0  0  0  0
  5 11  1  1  0  0  0
  6 17  1  0  0  0  0
  7 14  1  0  0  0  0
  8 17  2  0  0  0  0
  9  8  1  0  0  0  0
 10  4  1  0  0  0  0
 10 12  1  0  0  0  0
 11  9  1  0  0  0  0
 12 15  2  0  0  0  0
 13 10  1  0  0  0  0
 14 18  1  0  0  0  0
 14  9  2  0  0  0  0
 15  5  1  0  0  0  0
 15 31  1  0  0  0  0
 16  3  1  0  0  0  0
 16 13  1  0  0  0  0
 18  6  2  0  0  0  0
 19 20  1  0  0  0  0
 20 21  2  0  0  0  0
 22 26  1  0  0  0  0
 22 27  1  0  0  0  0
 22 24  1  1  0  0  0
 26 28  1  0  0  0  0
 27 25  1  0  0  0  0
 27 19  1  1  0  0  0
 28 25  1  0  0  0  0
 28 23  2  0  0  0  0
 29 22  1  0  0  0  0
 30 29  1  0  0  0  0
 32 31  1  0  0  0  0
M  END
>  <MODEL>
3

>  <REMARK>
 VINA RESULT:      -8.5      1.020      1.748
  Name = 
  4 active torsions:
  status: ('A' for Active; 'I' for Inactive)
    1  A    between atoms: C_3  and  C_22
    2  A    between atoms: C_4  and  C_24
    3  A    between atoms: C_13  and  C_29
    4  A    between atoms: N_16  and  C_20
                            x       y       z     vdW  Elec       q    Type
                         _______ _______ _______ _____ _____    ______ ____

>  <TORSDO>
F 4

$$$$
=
 OpenBabel11052414423D

 32 36  0  0  1  0  0  0  0  0999 V2000
  186.4010  178.6320  139.8700 O   0  0  0  0  0  0  0  0  0  0  0  0
  186.9670  178.0370  142.1030 C   0  0  0  0  0  0  0  0  0  0  0  0
  185.4170  178.8900  138.8680 C   0  0  2  0  0  3  0  0  0  0  0  0
  186.0530  178.4390  141.2130 C   0  0  0  0  0  0  0  0  0  0  0  0
  186.5640  177.7130  143.5230 C   0  0  1  0  0  3  0  0  0  0  0  0
  191.6710  177.6870  143.2710 C   0  0  0  0  0  3  0  0  0  0  0  0
  188.3820  177.8660  141.7330 C   0  0  0  0  0  2  0  0  0  0  0  0
  190.0080  177.8940  145.0200 C   0  0  0  0  0  3  0  0  0  0  0  0
  188.9860  177.8610  144.0660 C   0  0  0  0  0  0  0  0  0  0  0  0
  184.7140  178.7400  141.6490 N   0  0  0  0  0  0  0  0  0  0  0  0
  187.7110  177.9030  144.4820 C   0  0  0  0  0  2  0  0  0  0  0  0
  184.3910  178.7710  143.0460 C   0  0  0  0  0  3  0  0  0  0  0  0
  183.6690  179.0450  140.6780 C   0  0  0  0  0  2  0  0  0  0  0  0
  189.3190  177.7750  142.6860 C   0  0  0  0  0  0  0  0  0  0  0  0
  185.2780  178.3740  143.9630 C   0  0  0  0  0  0  0  0  0  0  0  0
  184.2540  179.7120  139.4340 C   0  0  0  0  0  2  0  0  0  0  0  0
  191.3460  177.8050  144.6250 C   0  0  0  0  0  3  0  0  0  0  0  0
  190.6610  177.6780  142.3050 C   0  0  0  0  0  3  0  0  0  0  0  0
  183.5600  177.2410  138.3570 N   0  0  0  0  0  2  0  0  0  0  0  0
  184.9370  177.6110  138.2550 C   0  0  0  0  0  0  0  0  0  0  0  0
  185.7490  176.8840  137.6230 O   0  0  0  0  0  0  0  0  0  0  0  0
  182.2520  176.2450  136.4580 C   0  0  2  0  0  0  0  0  0  0  0  0
  179.9090  174.3370  138.2290 O   0  0  0  0  0  0  0  0  0  0  0  0
  181.8890  177.7070  136.2210 C   0  0  0  0  0  1  0  0  0  0  0  0
  182.0350  175.3520  138.7540 C   0  0  0  0  0  2  0  0  0  0  0  0
  181.0580  175.4950  136.5860 O   0  0  0  0  0  0  0  0  0  0  0  0
  183.0210  176.0110  137.7880 C   0  0  2  0  0  3  0  0  0  0  0  0
  180.9100  175.0060  137.8650 C   0  0  0  0  0  0  0  0  0  0  0  0
  183.0670  175.7430  135.2730 C   0  0  0  0  0  2  0  0  0  0  0  0
  183.9890  174.7750  135.6780 O   0  0  0  0  0  1  0  0  0  0  0  0
  184.8640  178.3560  145.3960 C   0  0  0  0  0  2  0  0  0  0  0  0
  183.6170  179.0840  145.5590 N   0  0  0  0  0  1  0  0  0  0  0  0
  1  4  1  0  0  0  0
  2  5  1  0  0  0  0
  3 20  1  1  0  0  0
  3 16  1  0  0  0  0
  3  1  1  0  0  0  0
  4 10  1  0  0  0  0
  4  2  2  0  0  0  0
  5 15  1  0  0  0  0
  5 11  1  1  0  0  0
  6 17  1  0  0  0  0
  7  2  1  0  0  0  0
  7 14  1  0  0  0  0
  9 11  1  0  0  0  0
  9  8  1  0  0  0  0
 10 12  1  0  0  0  0
 12 15  2  0  0  0  0
 13 10  1  0  0  0  0
 14  9  2  0  0  0  0
 15 31  1  0  0  0  0
 16 13  1  0  0  0  0
 17  8  2  0  0  0  0
 18 14  1  0  0  0  0
 18  6  2  0  0  0  0
 20 19  1  0  0  0  0
 21 20  2  0  0  0  0
 22 24  1  6  0  0  0
 22 26  1  0  0  0  0
 22 27  1  0  0  0  0
 26 28  1  0  0  0  0
 27 19  1  1  0  0  0
 27 25  1  0  0  0  0
 28 23  2  0  0  0  0
 28 25  1  0  0  0  0
 29 30  1  0  0  0  0
 29 22  1  0  0  0  0
 31 32  1  0  0  0  0
M  END
>  <MODEL>
4

>  <REMARK>
 VINA RESULT:      -7.9      3.527      4.694
  Name = 
  4 active torsions:
  status: ('A' for Active; 'I' for Inactive)
    1  A    between atoms: C_3  and  C_22
    2  A    between atoms: C_4  and  C_24
    3  A    between atoms: C_13  and  C_29
    4  A    between atoms: N_16  and  C_20
                            x       y       z     vdW  Elec       q    Type
                         _______ _______ _______ _____ _____    ______ ____

>  <TORSDO>
F 4

$$$$
=
 OpenBabel11052414423D

 32 36  0  0  1  0  0  0  0  0999 V2000
  185.5270  178.5250  140.7680 O   0  0  0  0  0  0  0  0  0  0  0  0
  186.5490  177.9680  142.8420 C   0  0  0  0  0  0  0  0  0  0  0  0
  184.3540  178.7400  139.9820 C   0  0  2  0  0  3  0  0  0  0  0  0
  185.4610  178.3300  142.1530 C   0  0  0  0  0  0  0  0  0  0  0  0
  186.4500  177.6390  144.3140 C   0  0  1  0  0  3  0  0  0  0  0  0
  191.4010  177.7930  143.0460 C   0  0  0  0  0  3  0  0  0  0  0  0
  187.8670  177.8440  142.1960 C   0  0  0  0  0  2  0  0  0  0  0  0
  190.1150  177.9540  145.0920 C   0  0  0  0  0  3  0  0  0  0  0  0
  188.9240  177.8770  144.3620 C   0  0  0  0  0  0  0  0  0  0  0  0
  184.2270  178.5860  142.8480 N   0  0  0  0  0  0  0  0  0  0  0  0
  187.7580  177.8780  145.0240 C   0  0  0  0  0  2  0  0  0  0  0  0
  184.1890  178.6160  144.2810 C   0  0  0  0  0  3  0  0  0  0  0  0
  182.9990  178.8460  142.1050 C   0  0  0  0  0  2  0  0  0  0  0  0
  188.9780  177.7930  142.9430 C   0  0  0  0  0  0  0  0  0  0  0  0
  185.2550  178.2570  145.0020 C   0  0  0  0  0  0  0  0  0  0  0  0
  183.2990  179.5250  140.7690 C   0  0  0  0  0  2  0  0  0  0  0  0
  191.3490  177.9090  144.4380 C   0  0  0  0  0  3  0  0  0  0  0  0
  190.2200  177.7410  142.3020 C   0  0  0  0  0  3  0  0  0  0  0  0
  184.1710  176.9700  138.1770 N   0  0  0  0  0  2  0  0  0  0  0  0
  183.8080  177.4410  139.4770 C   0  0  0  0  0  0  0  0  0  0  0  0
  183.0550  176.7550  140.2180 O   0  0  0  0  0  0  0  0  0  0  0  0
  184.5670  175.1780  136.4630 C   0  0  2  0  0  0  0  0  0  0  0  0
  181.4030  175.0150  134.9700 O   0  0  0  0  0  0  0  0  0  0  0  0
  185.5230  176.2230  135.9000 C   0  0  0  0  0  1  0  0  0  0  0  0
  182.2720  175.8950  137.0420 C   0  0  0  0  0  2  0  0  0  0  0  0
  183.6580  174.7980  135.4450 O   0  0  0  0  0  0  0  0  0  0  0  0
  183.6780  175.7170  137.6170 C   0  0  2  0  0  3  0  0  0  0  0  0
  182.3770  175.2070  135.7410 C   0  0  0  0  0  0  0  0  0  0  0  0
  185.3740  173.9720  136.9260 C   0  0  0  0  0  2  0  0  0  0  0  0
  184.7230  173.3080  137.9680 O   0  0  0  0  0  1  0  0  0  0  0  0
  185.1360  178.2350  146.4890 C   0  0  0  0  0  2  0  0  0  0  0  0
  185.6800  179.4620  147.0460 N   0  0  0  0  0  1  0  0  0  0  0  0
  1  4  1  0  0  0  0
  2  5  1  0  0  0  0
  3 20  1  1  0  0  0
  3  1  1  0  0  0  0
  3 16  1  0  0  0  0
  4  2  2  0  0  0  0
  4 10  1  0  0  0  0
  5 15  1  0  0  0  0
  5 11  1  1  0  0  0
  6 17  1  0  0  0  0
  7  2  1  0  0  0  0
  7 14  1  0  0  0  0
  9 11  1  0  0  0  0
  9  8  1  0  0  0  0
 10 12  1  0  0  0  0
 12 15  2  0  0  0  0
 13 10  1  0  0  0  0
 14  9  2  0  0  0  0
 15 31  1  0  0  0  0
 16 13  1  0  0  0  0
 17  8  2  0  0  0  0
 18 14  1  0  0  0  0
 18  6  2  0  0  0  0
 19 20  1  0  0  0  0
 20 21  2  0  0  0  0
 22 24  1  6  0  0  0
 22 29  1  0  0  0  0
 22 27  1  0  0  0  0
 23 28  2  0  0  0  0
 25 27  1  0  0  0  0
 26 28  1  0  0  0  0
 26 22  1  0  0  0  0
 27 19  1  6  0  0  0
 28 25  1  0  0  0  0
 29 30  1  0  0  0  0
 31 32  1  0  0  0  0
M  END
>  <MODEL>
5

>  <REMARK>
 VINA RESULT:      -7.7      3.241      4.444
  Name = 
  4 active torsions:
  status: ('A' for Active; 'I' for Inactive)
    1  A    between atoms: C_3  and  C_22
    2  A    between atoms: C_4  and  C_24
    3  A    between atoms: C_13  and  C_29
    4  A    between atoms: N_16  and  C_20
                            x       y       z     vdW  Elec       q    Type
                         _______ _______ _______ _____ _____    ______ ____

>  <TORSDO>
F 4

$$$$
=
 OpenBabel11052414423D

 32 36  0  0  1  0  0  0  0  0999 V2000
  182.5840  179.4610  139.1640 O   0  0  0  0  0  0  0  0  0  0  0  0
  182.3340  178.9730  141.4780 C   0  0  0  0  0  0  0  0  0  0  0  0
  182.0110  179.7640  137.8920 C   0  0  2  0  0  3  0  0  0  0  0  0
  181.8110  179.4180  140.3300 C   0  0  0  0  0  0  0  0  0  0  0  0
  181.4660  178.8120  142.7050 C   0  0  1  0  0  3  0  0  0  0  0  0
  186.3360  178.1210  144.1000 C   0  0  0  0  0  3  0  0  0  0  0  0
  183.7540  178.5970  141.5850 C   0  0  0  0  0  2  0  0  0  0  0  0
  184.2590  178.6700  145.2170 C   0  0  0  0  0  3  0  0  0  0  0  0
  183.5910  178.6940  143.9880 C   0  0  0  0  0  0  0  0  0  0  0  0
  180.4610  179.9180  140.3060 N   0  0  0  0  0  0  0  0  0  0  0  0
  182.2710  178.9290  143.9730 C   0  0  0  0  0  2  0  0  0  0  0  0
  179.7270  180.0970  141.5240 C   0  0  0  0  0  3  0  0  0  0  0  0
  179.8270  180.2770  139.0420 C   0  0  0  0  0  2  0  0  0  0  0  0
  184.3230  178.4610  142.7910 C   0  0  0  0  0  0  0  0  0  0  0  0
  180.2160  179.6620  142.6890 C   0  0  0  0  0  0  0  0  0  0  0  0
  180.8610  180.7680  138.0290 C   0  0  0  0  0  2  0  0  0  0  0  0
  185.6250  178.3820  145.2740 C   0  0  0  0  0  3  0  0  0  0  0  0
  185.6880  178.1660  142.8620 C   0  0  0  0  0  3  0  0  0  0  0  0
  181.9040  177.2360  137.7450 N   0  0  0  0  0  2  0  0  0  0  0  0
  181.5670  178.5130  137.1990 C   0  0  0  0  0  0  0  0  0  0  0  0
  180.8700  178.5980  136.1530 O   0  0  0  0  0  0  0  0  0  0  0  0
  180.6910  175.0620  138.0780 C   0  0  2  0  0  0  0  0  0  0  0  0
  183.1110  172.8000  136.9410 O   0  0  0  0  0  0  0  0  0  0  0  0
  180.7920  175.4740  139.5430 C   0  0  0  0  0  1  0  0  0  0  0  0
  182.7390  175.1720  136.6970 C   0  0  0  0  0  2  0  0  0  0  0  0
  181.2570  173.7720  137.9300 O   0  0  0  0  0  0  0  0  0  0  0  0
  181.5100  175.9760  137.1250 C   0  0  2  0  0  3  0  0  0  0  0  0
  182.4110  173.8180  137.1790 C   0  0  0  0  0  0  0  0  0  0  0  0
  179.2230  175.0440  137.6730 C   0  0  0  0  0  2  0  0  0  0  0  0
  179.0500  175.6020  136.4040 O   0  0  0  0  0  1  0  0  0  0  0  0
  179.3770  179.8070  143.9140 C   0  0  0  0  0  2  0  0  0  0  0  0
  178.9320  178.5000  144.3650 N   0  0  0  0  0  1  0  0  0  0  0  0
  1  4  1  0  0  0  0
  2  7  1  0  0  0  0
  2  5  1  0  0  0  0
  3 20  1  1  0  0  0
  3 16  1  0  0  0  0
  3  1  1  0  0  0  0
  4  2  2  0  0  0  0
  5 11  1  1  0  0  0
  6 17  1  0  0  0  0
  7 14  1  0  0  0  0
  8 17  2  0  0  0  0
  9  8  1  0  0  0  0
 10  4  1  0  0  0  0
 10 12  1  0  0  0  0
 11  9  1  0  0  0  0
 12 15  2  0  0  0  0
 13 10  1  0  0  0  0
 14 18  1  0  0  0  0
 14  9  2  0  0  0  0
 15  5  1  0  0  0  0
 15 31  1  0  0  0  0
 16 13  1  0  0  0  0
 18  6  2  0  0  0  0
 20 19  1  0  0  0  0
 21 20  2  0  0  0  0
 22 24  1  1  0  0  0
 23 28  2  0  0  0  0
 25 27  1  0  0  0  0
 25 28  1  0  0  0  0
 26 22  1  0  0  0  0
 27 19  1  1  0  0  0
 27 22  1  0  0  0  0
 28 26  1  0  0  0  0
 29 22  1  0  0  0  0
 30 29  1  0  0  0  0
 31 32  1  0  0  0  0
M  END
>  <MODEL>
6

>  <REMARK>
 VINA RESULT:      -7.7      5.321      7.523
  Name = 
  4 active torsions:
  status: ('A' for Active; 'I' for Inactive)
    1  A    between atoms: C_3  and  C_22
    2  A    between atoms: C_4  and  C_24
    3  A    between atoms: C_13  and  C_29
    4  A    between atoms: N_16  and  C_20
                            x       y       z     vdW  Elec       q    Type
                         _______ _______ _______ _____ _____    ______ ____

>  <TORSDO>
F 4

$$$$
=
 OpenBabel11052414423D

 32 36  0  0  1  0  0  0  0  0999 V2000
  188.7860  178.1590  140.5880 O   0  0  0  0  0  0  0  0  0  0  0  0
  186.7200  178.0510  141.7630 C   0  0  0  0  0  0  0  0  0  0  0  0
  189.5140  178.1670  139.3600 C   0  0  2  0  0  3  0  0  0  0  0  0
  187.3870  178.2250  140.6170 C   0  0  0  0  0  0  0  0  0  0  0  0
  185.2100  178.0000  141.7710 C   0  0  1  0  0  3  0  0  0  0  0  0
  186.8240  178.1510  146.6200 C   0  0  0  0  0  3  0  0  0  0  0  0
  187.4220  177.8720  143.0450 C   0  0  0  0  0  2  0  0  0  0  0  0
  184.7590  178.6300  145.4500 C   0  0  0  0  0  3  0  0  0  0  0  0
  185.3780  178.3610  144.2250 C   0  0  0  0  0  0  0  0  0  0  0  0
  186.6670  178.5470  139.4120 N   0  0  0  0  0  0  0  0  0  0  0  0
  184.6480  178.4300  143.1030 C   0  0  0  0  0  2  0  0  0  0  0  0
  185.2650  178.8440  139.4570 C   0  0  0  0  0  3  0  0  0  0  0  0
  187.3580  178.6040  138.1290 C   0  0  0  0  0  2  0  0  0  0  0  0
  186.7570  178.0150  144.2000 C   0  0  0  0  0  0  0  0  0  0  0  0
  184.5660  178.6780  140.5840 C   0  0  0  0  0  0  0  0  0  0  0  0
  188.8140  179.0340  138.3080 C   0  0  0  0  0  2  0  0  0  0  0  0
  185.4780  178.5230  146.6440 C   0  0  0  0  0  3  0  0  0  0  0  0
  187.4630  177.9030  145.4020 C   0  0  0  0  0  3  0  0  0  0  0  0
  189.1180  176.3410  137.6470 N   0  0  0  0  0  2  0  0  0  0  0  0
  189.7320  176.7710  138.8640 C   0  0  0  0  0  0  0  0  0  0  0  0
  190.4830  175.9940  139.5110 O   0  0  0  0  0  0  0  0  0  0  0  0
  190.0780  174.9760  135.7690 C   0  0  2  0  0  0  0  0  0  0  0  0
  187.2860  173.0570  134.8840 O   0  0  0  0  0  0  0  0  0  0  0  0
  190.1880  176.3470  135.1110 C   0  0  0  0  0  1  0  0  0  0  0  0
  187.9230  174.3580  136.8140 C   0  0  0  0  0  2  0  0  0  0  0  0
  189.3420  174.1200  134.9150 O   0  0  0  0  0  0  0  0  0  0  0  0
  189.2820  174.9970  137.1040 C   0  0  2  0  0  3  0  0  0  0  0  0
  188.1290  173.7810  135.4720 C   0  0  0  0  0  0  0  0  0  0  0  0
  191.4800  174.4240  135.9900 C   0  0  0  0  0  2  0  0  0  0  0  0
  191.4280  173.1140  136.4730 O   0  0  0  0  0  1  0  0  0  0  0  0
  183.0960  178.9300  140.5550 C   0  0  0  0  0  2  0  0  0  0  0  0
  182.6660  179.1950  139.1930 N   0  0  0  0  0  1  0  0  0  0  0  0
  1  4  1  0  0  0  0
  2  5  1  0  0  0  0
  2  7  1  0  0  0  0
  3 20  1  6  0  0  0
  3  1  1  0  0  0  0
  4  2  2  0  0  0  0
  5 11  1  1  0  0  0
  6 17  1  0  0  0  0
  7 14  1  0  0  0  0
  8 17  2  0  0  0  0
  9  8  1  0  0  0  0
 10 12  1  0  0  0  0
 10  4  1  0  0  0  0
 11  9  1  0  0  0  0
 12 15  2  0  0  0  0
 13 16  1  0  0  0  0
 13 10  1  0  0  0  0
 14  9  2  0  0  0  0
 14 18  1  0  0  0  0
 15  5  1  0  0  0  0
 16  3  1  0  0  0  0
 18  6  2  0  0  0  0
 19 20  1  0  0  0  0
 20 21  2  0  0  0  0
 22 24  1  6  0  0  0
 22 29  1  0  0  0  0
 22 27  1  0  0  0  0
 23 28  2  0  0  0  0
 25 27  1  0  0  0  0
 26 28  1  0  0  0  0
 26 22  1  0  0  0  0
 27 19  1  6  0  0  0
 28 25  1  0  0  0  0
 29 30  1  0  0  0  0
 31 15  1  0  0  0  0
 32 31  1  0  0  0  0
M  END
>  <MODEL>
7

>  <REMARK>
 VINA RESULT:      -7.6      1.981      2.726
  Name = 
  4 active torsions:
  status: ('A' for Active; 'I' for Inactive)
    1  A    between atoms: C_3  and  C_22
    2  A    between atoms: C_4  and  C_24
    3  A    between atoms: C_13  and  C_29
    4  A    between atoms: N_16  and  C_20
                            x       y       z     vdW  Elec       q    Type
                         _______ _______ _______ _____ _____    ______ ____

>  <TORSDO>
F 4

$$$$
=
 OpenBabel11052414423D

 32 36  0  0  1  0  0  0  0  0999 V2000
  184.7750  178.8280  140.2650 O   0  0  0  0  0  0  0  0  0  0  0  0
  184.0020  178.4580  142.4830 C   0  0  0  0  0  0  0  0  0  0  0  0
  184.5100  178.9990  138.8720 C   0  0  2  0  0  3  0  0  0  0  0  0
  183.7440  178.7830  141.2110 C   0  0  0  0  0  0  0  0  0  0  0  0
  182.8730  178.2910  143.4750 C   0  0  1  0  0  3  0  0  0  0  0  0
  187.2890  178.1420  146.0480 C   0  0  0  0  0  3  0  0  0  0  0  0
  185.3750  178.2230  142.9580 C   0  0  0  0  0  2  0  0  0  0  0  0
  184.9650  178.5610  146.5870 C   0  0  0  0  0  3  0  0  0  0  0  0
  184.6210  178.4480  145.2360 C   0  0  0  0  0  0  0  0  0  0  0  0
  182.4080  179.1520  140.8240 N   0  0  0  0  0  0  0  0  0  0  0  0
  183.3310  178.5580  144.8860 C   0  0  0  0  0  2  0  0  0  0  0  0
  181.3850  179.3350  141.8120 C   0  0  0  0  0  3  0  0  0  0  0  0
  182.0780  179.3740  139.4200 C   0  0  0  0  0  2  0  0  0  0  0  0
  185.6390  178.2130  144.2720 C   0  0  0  0  0  0  0  0  0  0  0  0
  181.6050  179.0180  143.0910 C   0  0  0  0  0  0  0  0  0  0  0  0
  183.2890  179.8980  138.6480 C   0  0  0  0  0  2  0  0  0  0  0  0
  186.2940  178.4060  146.9920 C   0  0  0  0  0  3  0  0  0  0  0  0
  186.9630  178.0520  144.6920 C   0  0  0  0  0  3  0  0  0  0  0  0
  183.0480  177.0880  138.0740 N   0  0  0  0  0  2  0  0  0  0  0  0
  184.3470  177.6730  138.1970 C   0  0  0  0  0  0  0  0  0  0  0  0
  185.3570  177.0960  137.7120 O   0  0  0  0  0  0  0  0  0  0  0  0
  182.3620  175.9350  135.9510 C   0  0  2  0  0  0  0  0  0  0  0  0
  179.9080  173.7560  137.1740 O   0  0  0  0  0  0  0  0  0  0  0  0
  181.8940  177.3400  135.5880 C   0  0  0  0  0  1  0  0  0  0  0  0
  181.7100  175.0260  138.1560 C   0  0  0  0  0  2  0  0  0  0  0  0
  181.2700  175.0430  135.8150 O   0  0  0  0  0  0  0  0  0  0  0  0
  182.8120  175.8000  137.4320 C   0  0  2  0  0  3  0  0  0  0  0  0
  180.8800  174.5420  137.0370 C   0  0  0  0  0  0  0  0  0  0  0  0
  183.4910  175.5350  135.0090 C   0  0  0  0  0  2  0  0  0  0  0  0
  183.8180  174.1860  135.1690 O   0  0  0  0  0  1  0  0  0  0  0  0
  180.4820  179.1570  144.0640 C   0  0  0  0  0  2  0  0  0  0  0  0
  179.6900  177.9390  144.0810 N   0  0  0  0  0  1  0  0  0  0  0  0
  1  4  1  0  0  0  0
  2  7  1  0  0  0  0
  2  5  1  0  0  0  0
  3 20  1  1  0  0  0
  3  1  1  0  0  0  0
  4  2  2  0  0  0  0
  5 11  1  1  0  0  0
  6 17  1  0  0  0  0
  7 14  1  0  0  0  0
  8 17  2  0  0  0  0
  9  8  1  0  0  0  0
 10  4  1  0  0  0  0
 10 12  1  0  0  0  0
 11  9  1  0  0  0  0
 12 15  2  0  0  0  0
 13 10  1  0  0  0  0
 14 18  1  0  0  0  0
 14  9  2  0  0  0  0
 15  5  1  0  0  0  0
 15 31  1  0  0  0  0
 16  3  1  0  0  0  0
 16 13  1  0  0  0  0
 18  6  2  0  0  0  0
 19 20  1  0  0  0  0
 21 20  2  0  0  0  0
 22 24  1  6  0  0  0
 22 27  1  0  0  0  0
 26 22  1  0  0  0  0
 26 28  1  0  0  0  0
 27 19  1  1  0  0  0
 27 25  1  0  0  0  0
 28 23  2  0  0  0  0
 28 25  1  0  0  0  0
 29 30  1  0  0  0  0
 29 22  1  0  0  0  0
 31 32  1  0  0  0  0
M  END
>  <MODEL>
8

>  <REMARK>
 VINA RESULT:      -7.5      4.383      5.683
  Name = 
  4 active torsions:
  status: ('A' for Active; 'I' for Inactive)
    1  A    between atoms: C_3  and  C_22
    2  A    between atoms: C_4  and  C_24
    3  A    between atoms: C_13  and  C_29
    4  A    between atoms: N_16  and  C_20
                            x       y       z     vdW  Elec       q    Type
                         _______ _______ _______ _____ _____    ______ ____

>  <TORSDO>
F 4

$$$$
=
 OpenBabel11052414423D

 32 36  0  0  1  0  0  0  0  0999 V2000
  184.4060  178.1140  140.5290 O   0  0  0  0  0  0  0  0  0  0  0  0
  186.6060  178.3030  141.4120 C   0  0  0  0  0  0  0  0  0  0  0  0
  183.5020  178.1930  139.4260 C   0  0  2  0  0  3  0  0  0  0  0  0
  185.7920  178.2140  140.3550 C   0  0  0  0  0  0  0  0  0  0  0  0
  188.0880  178.5330  141.2210 C   0  0  1  0  0  3  0  0  0  0  0  0
  187.2600  177.5020  146.1600 C   0  0  0  0  0  3  0  0  0  0  0  0
  186.0960  178.2120  142.7900 C   0  0  0  0  0  2  0  0  0  0  0  0
  189.1580  177.4460  144.6570 C   0  0  0  0  0  3  0  0  0  0  0  0
  188.3350  177.8100  143.5870 C   0  0  0  0  0  0  0  0  0  0  0  0
  186.3470  178.1560  139.0280 N   0  0  0  0  0  0  0  0  0  0  0  0
  188.8870  177.9900  142.3780 C   0  0  0  0  0  2  0  0  0  0  0  0
  187.7610  178.0260  138.8330 C   0  0  0  0  0  3  0  0  0  0  0  0
  185.4760  178.1980  137.8580 C   0  0  0  0  0  2  0  0  0  0  0  0
  186.9410  177.9870  143.8060 C   0  0  0  0  0  0  0  0  0  0  0  0
  188.6050  178.1130  139.8650 C   0  0  0  0  0  0  0  0  0  0  0  0
  184.1140  177.5760  138.1640 C   0  0  0  0  0  2  0  0  0  0  0  0
  188.6240  177.2950  145.9400 C   0  0  0  0  0  3  0  0  0  0  0  0
  186.4210  177.8410  145.0960 C   0  0  0  0  0  3  0  0  0  0  0  0
  181.6850  179.9270  139.0780 N   0  0  0  0  0  2  0  0  0  0  0  0
  183.0740  179.6090  139.1920 C   0  0  0  0  0  0  0  0  0  0  0  0
  183.9450  180.5170  139.1290 O   0  0  0  0  0  0  0  0  0  0  0  0
  179.6430  181.3710  138.8540 C   0  0  2  0  0  0  0  0  0  0  0  0
  180.3730  183.0490  135.8680 O   0  0  0  0  0  0  0  0  0  0  0  0
  178.9590  180.0150  138.7140 C   0  0  0  0  0  1  0  0  0  0  0  0
  181.6570  181.8020  137.4870 C   0  0  0  0  0  2  0  0  0  0  0  0
  179.3150  182.1640  137.7270 O   0  0  0  0  0  0  0  0  0  0  0  0
  181.1940  181.2800  138.8480 C   0  0  2  0  0  3  0  0  0  0  0  0
  180.4230  182.3970  136.9430 C   0  0  0  0  0  0  0  0  0  0  0  0
  179.1500  182.0400  140.1310 C   0  0  0  0  0  2  0  0  0  0  0  0
  179.4370  181.2510  141.2480 O   0  0  0  0  0  1  0  0  0  0  0  0
  190.0710  178.0470  139.5960 C   0  0  0  0  0  2  0  0  0  0  0  0
  190.4850  176.6620  139.4510 N   0  0  0  0  0  1  0  0  0  0  0  0
  2  7  1  0  0  0  0
  3 20  1  6  0  0  0
  3  1  1  0  0  0  0
  4  1  1  0  0  0  0
  4  2  2  0  0  0  0
  5  2  1  0  0  0  0
  5 11  1  1  0  0  0
  7 14  1  0  0  0  0
  8 17  2  0  0  0  0
  9 14  2  0  0  0  0
  9  8  1  0  0  0  0
 10  4  1  0  0  0  0
 11  9  1  0  0  0  0
 12 10  1  0  0  0  0
 12 15  2  0  0  0  0
 13 16  1  0  0  0  0
 13 10  1  0  0  0  0
 14 18  1  0  0  0  0
 15  5  1  0  0  0  0
 16  3  1  0  0  0  0
 17  6  1  0  0  0  0
 18  6  2  0  0  0  0
 19 20  1  0  0  0  0
 21 20  2  0  0  0  0
 22 24  1  6  0  0  0
 22 29  1  0  0  0  0
 23 28  2  0  0  0  0
 25 27  1  0  0  0  0
 26 22  1  0  0  0  0
 27 22  1  0  0  0  0
 27 19  1  6  0  0  0
 28 25  1  0  0  0  0
 28 26  1  0  0  0  0
 29 30  1  0  0  0  0
 31 15  1  0  0  0  0
 32 31  1  0  0  0  0
M  END
>  <MODEL>
9

>  <REMARK>
 VINA RESULT:      -7.4      5.397      7.576
  Name = 
  4 active torsions:
  status: ('A' for Active; 'I' for Inactive)
    1  A    between atoms: C_3  and  C_22
    2  A    between atoms: C_4  and  C_24
    3  A    between atoms: C_13  and  C_29
    4  A    between atoms: N_16  and  C_20
                            x       y       z     vdW  Elec       q    Type
                         _______ _______ _______ _____ _____    ______ ____

>  <TORSDO>
F 4

$$$$
