=
 OpenBabel11052413413D

 27 28  0  0  1  0  0  0  0  0999 V2000
  189.4360  177.6880  141.9900 C   0  0  2  0  0  3  0  0  0  0  0  0
  188.9490  178.0920  139.5670 C   0  0  0  0  0  0  0  0  0  0  0  0
  187.9480  178.7820  139.9020 O   0  0  0  0  0  0  0  0  0  0  0  0
  189.7430  177.4430  140.5760 N   0  0  0  0  0  0  0  0  0  0  0  0
  188.5290  176.8350  137.4700 C   0  0  0  0  0  1  0  0  0  0  0  0
  189.0250  179.2670  137.3850 C   0  0  0  0  0  1  0  0  0  0  0  0
  189.3030  177.9680  138.1150 C   0  0  0  0  0  3  0  0  0  0  0  0
  190.8890  176.6110  140.2050 C   0  0  0  0  0  2  0  0  0  0  0  0
  192.0340  177.3970  140.0790 O   0  0  0  0  0  1  0  0  0  0  0  0
  190.6930  177.8350  142.8690 C   0  0  1  0  0  3  0  0  0  0  0  0
  190.6990  179.1590  143.6200 C   0  0  0  0  0  1  0  0  0  0  0  0
  191.1110  175.5540  143.3590 O   0  0  0  0  0  0  0  0  0  0  0  0
  190.8600  176.6930  143.8350 C   0  0  0  0  0  0  0  0  0  0  0  0
  190.5620  177.1590  148.0910 C   0  0  0  0  0  3  0  0  0  0  0  0
  190.7470  176.8600  145.3030 C   0  0  0  0  0  0  0  0  0  0  0  0
  191.7920  176.4330  146.1380 C   0  0  0  0  0  3  0  0  0  0  0  0
  191.7000  176.5820  147.5240 C   0  0  0  0  0  3  0  0  0  0  0  0
  189.5150  177.5880  147.2710 C   0  0  0  0  0  3  0  0  0  0  0  0
  189.6070  177.4390  145.8850 C   0  0  0  0  0  3  0  0  0  0  0  0
  188.3890  176.7060  142.5380 C   0  0  0  0  0  2  0  0  0  0  0  0
  185.8430  177.8420  145.1020 C   0  0  0  0  0  3  0  0  0  0  0  0
  184.9460  178.5630  144.3090 C   0  0  0  0  0  0  0  0  0  0  0  0
  186.2860  178.0780  142.3520 C   0  0  0  0  0  3  0  0  0  0  0  0
  186.9640  177.2420  144.5210 C   0  0  0  0  0  3  0  0  0  0  0  0
  183.7560  179.2030  144.9270 C   0  0  0  0  0  1  0  0  0  0  0  0
  185.1660  178.6780  142.9330 C   0  0  0  0  0  3  0  0  0  0  0  0
  187.1930  177.3650  143.1460 C   0  0  0  0  0  0  0  0  0  0  0  0
  1 20  1  1  0  0  0
  1 10  1  0  0  0  0
  2  3  2  0  0  0  0
  2  4  1  0  0  0  0
  4  1  1  0  0  0  0
  5  7  1  0  0  0  0
  6  7  1  0  0  0  0
  7  2  1  0  0  0  0
  8  4  1  0  0  0  0
  9  8  1  0  0  0  0
 10 11  1  1  0  0  0
 10 13  1  0  0  0  0
 12 13  2  0  0  0  0
 13 15  1  0  0  0  0
 15 19  2  0  0  0  0
 15 16  1  0  0  0  0
 16 17  2  0  0  0  0
 17 14  1  0  0  0  0
 18 14  2  0  0  0  0
 19 18  1  0  0  0  0
 20 27  1  0  0  0  0
 22 25  1  0  0  0  0
 22 21  2  0  0  0  0
 23 26  2  0  0  0  0
 23 27  1  0  0  0  0
 24 21  1  0  0  0  0
 26 22  1  0  0  0  0
 27 24  2  0  0  0  0
M  END
>  <MODEL>
1

>  <REMARK>
 VINA RESULT:      -8.6      0.000      0.000
  Name = 
  8 active torsions:
  status: ('A' for Active; 'I' for Inactive)
    1  A    between atoms: C_2  and  C_15
    2  A    between atoms: C_2  and  C_19
    3  A    between atoms: C_3  and  C_19
    4  A    between atoms: C_3  and  C_26
    5  A    between atoms: C_8  and  C_16
    6  A    between atoms: C_9  and  C_15
    7  A    between atoms: N_14  and  C_17
    8  A    between atoms: N_14  and  C_19
                            x       y       z     vdW  Elec       q    Type
                         _______ _______ _______ _____ _____    ______ ____

>  <TORSDO>
F 8

$$$$
=
 OpenBabel11052413413D

 27 28  0  0  1  0  0  0  0  0999 V2000
  189.3780  177.3990  141.4030 C   0  0  2  0  0  3  0  0  0  0  0  0
  189.9700  176.5950  139.1060 C   0  0  0  0  0  0  0  0  0  0  0  0
  190.7540  175.7530  139.6230 O   0  0  0  0  0  0  0  0  0  0  0  0
  189.2600  177.5240  139.9450 N   0  0  0  0  0  0  0  0  0  0  0  0
  191.1020  176.3770  136.9100 C   0  0  0  0  0  1  0  0  0  0  0  0
  188.7780  175.5500  137.1990 C   0  0  0  0  0  1  0  0  0  0  0  0
  189.7810  176.6070  137.6180 C   0  0  0  0  0  3  0  0  0  0  0  0
  188.3710  178.5300  139.3620 C   0  0  0  0  0  2  0  0  0  0  0  0
  189.0970  179.3980  138.5460 O   0  0  0  0  0  1  0  0  0  0  0  0
  188.1660  177.9700  142.1630 C   0  0  1  0  0  3  0  0  0  0  0  0
  187.0020  178.2600  141.2260 C   0  0  0  0  0  1  0  0  0  0  0  0
  187.9100  175.8370  143.1650 O   0  0  0  0  0  0  0  0  0  0  0  0
  187.7150  177.0760  143.2860 C   0  0  0  0  0  0  0  0  0  0  0  0
  185.8060  178.5890  146.8200 C   0  0  0  0  0  3  0  0  0  0  0  0
  187.0640  177.5950  144.5130 C   0  0  0  0  0  0  0  0  0  0  0  0
  185.7780  178.1520  144.4400 C   0  0  0  0  0  3  0  0  0  0  0  0
  185.1520  178.6470  145.5880 C   0  0  0  0  0  3  0  0  0  0  0  0
  187.0870  178.0370  146.9060 C   0  0  0  0  0  3  0  0  0  0  0  0
  187.7120  177.5430  145.7580 C   0  0  0  0  0  3  0  0  0  0  0  0
  190.7410  177.8880  141.9200 C   0  0  0  0  0  2  0  0  0  0  0  0
  191.8020  175.4740  144.6390 C   0  0  0  0  0  3  0  0  0  0  0  0
  191.7890  176.2980  145.7690 C   0  0  0  0  0  0  0  0  0  0  0  0
  191.0900  178.1670  144.3980 C   0  0  0  0  0  3  0  0  0  0  0  0
  191.4630  175.9970  143.3880 C   0  0  0  0  0  3  0  0  0  0  0  0
  192.1510  175.7420  147.0980 C   0  0  0  0  0  1  0  0  0  0  0  0
  191.4300  177.6440  145.6480 C   0  0  0  0  0  3  0  0  0  0  0  0
  191.1140  177.3470  143.2620 C   0  0  0  0  0  0  0  0  0  0  0  0
  1 20  1  1  0  0  0
  1 10  1  0  0  0  0
  2  3  2  0  0  0  0
  2  4  1  0  0  0  0
  4  1  1  0  0  0  0
  5  7  1  0  0  0  0
  6  7  1  0  0  0  0
  7  2  1  0  0  0  0
  8  4  1  0  0  0  0
  9  8  1  0  0  0  0
 10 11  1  6  0  0  0
 10 13  1  0  0  0  0
 12 13  2  0  0  0  0
 13 15  1  0  0  0  0
 14 18  1  0  0  0  0
 15 19  1  0  0  0  0
 16 15  2  0  0  0  0
 16 17  1  0  0  0  0
 17 14  2  0  0  0  0
 19 18  2  0  0  0  0
 20 27  1  0  0  0  0
 21 22  1  0  0  0  0
 22 25  1  0  0  0  0
 23 26  1  0  0  0  0
 24 21  2  0  0  0  0
 26 22  2  0  0  0  0
 27 24  1  0  0  0  0
 27 23  2  0  0  0  0
M  END
>  <MODEL>
2

>  <REMARK>
 VINA RESULT:      -7.8      1.510      4.577
  Name = 
  8 active torsions:
  status: ('A' for Active; 'I' for Inactive)
    1  A    between atoms: C_2  and  C_15
    2  A    between atoms: C_2  and  C_19
    3  A    between atoms: C_3  and  C_19
    4  A    between atoms: C_3  and  C_26
    5  A    between atoms: C_8  and  C_16
    6  A    between atoms: C_9  and  C_15
    7  A    between atoms: N_14  and  C_17
    8  A    between atoms: N_14  and  C_19
                            x       y       z     vdW  Elec       q    Type
                         _______ _______ _______ _____ _____    ______ ____

>  <TORSDO>
F 8

$$$$
=
 OpenBabel11052413413D

 27 28  0  0  1  0  0  0  0  0999 V2000
  189.4640  177.7400  141.7370 C   0  0  2  0  0  3  0  0  0  0  0  0
  190.2070  176.7280  139.5700 C   0  0  0  0  0  0  0  0  0  0  0  0
  190.7550  175.7930  140.2160 O   0  0  0  0  0  0  0  0  0  0  0  0
  189.5650  177.8060  140.2740 N   0  0  0  0  0  0  0  0  0  0  0  0
  191.6220  176.4090  137.5580 C   0  0  0  0  0  1  0  0  0  0  0  0
  189.2580  175.6460  137.5500 C   0  0  0  0  0  1  0  0  0  0  0  0
  190.2240  176.6930  138.0700 C   0  0  0  0  0  3  0  0  0  0  0  0
  188.9530  178.9160  139.5430 C   0  0  0  0  0  2  0  0  0  0  0  0
  187.6500  178.5860  139.1690 O   0  0  0  0  0  1  0  0  0  0  0  0
  190.8300  177.6000  142.4360 C   0  0  1  0  0  3  0  0  0  0  0  0
  191.9680  178.0720  141.5420 C   0  0  0  0  0  1  0  0  0  0  0  0
  190.9530  179.5760  143.7410 O   0  0  0  0  0  0  0  0  0  0  0  0
  190.8790  178.3170  143.7570 C   0  0  0  0  0  0  0  0  0  0  0  0
  190.7360  176.2820  147.5340 C   0  0  0  0  0  3  0  0  0  0  0  0
  190.8390  177.6080  145.0590 C   0  0  0  0  0  0  0  0  0  0  0  0
  189.7940  177.8610  145.9610 C   0  0  0  0  0  3  0  0  0  0  0  0
  189.7420  177.2020  147.1920 C   0  0  0  0  0  3  0  0  0  0  0  0
  191.7820  176.0220  146.6440 C   0  0  0  0  0  3  0  0  0  0  0  0
  191.8330  176.6810  145.4140 C   0  0  0  0  0  3  0  0  0  0  0  0
  188.4050  176.7280  142.2030 C   0  0  0  0  0  2  0  0  0  0  0  0
  186.1280  177.5530  145.1150 C   0  0  0  0  0  3  0  0  0  0  0  0
  185.2090  178.4210  144.5180 C   0  0  0  0  0  0  0  0  0  0  0  0
  186.3660  178.1920  142.4040 C   0  0  0  0  0  3  0  0  0  0  0  0
  187.1680  177.0070  144.3580 C   0  0  0  0  0  3  0  0  0  0  0  0
  184.1050  179.0030  145.3240 C   0  0  0  0  0  1  0  0  0  0  0  0
  185.3260  178.7380  143.1620 C   0  0  0  0  0  3  0  0  0  0  0  0
  187.2950  177.3310  143.0020 C   0  0  0  0  0  0  0  0  0  0  0  0
  1 20  1  6  0  0  0
  1 10  1  0  0  0  0
  2  3  2  0  0  0  0
  2  4  1  0  0  0  0
  4  1  1  0  0  0  0
  5  7  1  0  0  0  0
  6  7  1  0  0  0  0
  7  2  1  0  0  0  0
  8  4  1  0  0  0  0
  9  8  1  0  0  0  0
 10 11  1  6  0  0  0
 10 13  1  0  0  0  0
 12 13  2  0  0  0  0
 13 15  1  0  0  0  0
 15 19  2  0  0  0  0
 15 16  1  0  0  0  0
 16 17  2  0  0  0  0
 17 14  1  0  0  0  0
 18 14  2  0  0  0  0
 19 18  1  0  0  0  0
 20 27  1  0  0  0  0
 22 21  1  0  0  0  0
 22 25  1  0  0  0  0
 23 27  2  0  0  0  0
 23 26  1  0  0  0  0
 24 21  2  0  0  0  0
 26 22  2  0  0  0  0
 27 24  1  0  0  0  0
M  END
>  <MODEL>
3

>  <REMARK>
 VINA RESULT:      -7.5      1.272      2.197
  Name = 
  8 active torsions:
  status: ('A' for Active; 'I' for Inactive)
    1  A    between atoms: C_2  and  C_15
    2  A    between atoms: C_2  and  C_19
    3  A    between atoms: C_3  and  C_19
    4  A    between atoms: C_3  and  C_26
    5  A    between atoms: C_8  and  C_16
    6  A    between atoms: C_9  and  C_15
    7  A    between atoms: N_14  and  C_17
    8  A    between atoms: N_14  and  C_19
                            x       y       z     vdW  Elec       q    Type
                         _______ _______ _______ _____ _____    ______ ____

>  <TORSDO>
F 8

$$$$
=
 OpenBabel11052413413D

 27 28  0  0  1  0  0  0  0  0999 V2000
  188.0580  177.1250  141.8930 C   0  0  2  0  0  3  0  0  0  0  0  0
  189.1270  177.1110  139.6280 C   0  0  0  0  0  0  0  0  0  0  0  0
  188.0090  176.8150  139.1230 O   0  0  0  0  0  0  0  0  0  0  0  0
  189.2580  177.2360  141.0550 N   0  0  0  0  0  0  0  0  0  0  0  0
  191.0460  176.0420  138.4770 C   0  0  0  0  0  1  0  0  0  0  0  0
  189.8560  177.9430  137.4080 C   0  0  0  0  0  1  0  0  0  0  0  0
  190.3030  177.3400  138.7260 C   0  0  0  0  0  3  0  0  0  0  0  0
  190.5530  177.5460  141.6620 C   0  0  0  0  0  2  0  0  0  0  0  0
  191.2130  176.3700  142.0150 O   0  0  0  0  0  1  0  0  0  0  0  0
  187.4740  178.4900  142.3040 C   0  0  1  0  0  3  0  0  0  0  0  0
  188.4480  179.6250  142.0220 C   0  0  0  0  0  1  0  0  0  0  0  0
  186.1340  178.9360  140.3990 O   0  0  0  0  0  0  0  0  0  0  0  0
  186.1490  178.7720  141.6490 C   0  0  0  0  0  0  0  0  0  0  0  0
  182.4550  179.0130  143.8230 C   0  0  0  0  0  3  0  0  0  0  0  0
  184.8790  178.8570  142.4090 C   0  0  0  0  0  0  0  0  0  0  0  0
  183.6610  178.5720  141.7720 C   0  0  0  0  0  3  0  0  0  0  0  0
  182.4560  178.6490  142.4750 C   0  0  0  0  0  3  0  0  0  0  0  0
  183.6610  179.3010  144.4690 C   0  0  0  0  0  3  0  0  0  0  0  0
  184.8650  179.2230  143.7650 C   0  0  0  0  0  3  0  0  0  0  0  0
  188.2490  176.1390  143.0560 C   0  0  0  0  0  2  0  0  0  0  0  0
  189.2790  177.7280  146.3370 C   0  0  0  0  0  3  0  0  0  0  0  0
  188.0420  177.9220  146.9570 C   0  0  0  0  0  0  0  0  0  0  0  0
  186.9280  176.9530  145.0390 C   0  0  0  0  0  3  0  0  0  0  0  0
  189.3420  177.1500  145.0660 C   0  0  0  0  0  3  0  0  0  0  0  0
  187.9760  178.5380  148.3080 C   0  0  0  0  0  1  0  0  0  0  0  0
  186.8660  177.5320  146.3090 C   0  0  0  0  0  3  0  0  0  0  0  0
  188.1650  176.7680  144.4100 C   0  0  0  0  0  0  0  0  0  0  0  0
  1 10  1  0  0  0  0
  1 20  1  1  0  0  0
  2  4  1  0  0  0  0
  3  2  2  0  0  0  0
  4  8  1  0  0  0  0
  4  1  1  0  0  0  0
  5  7  1  0  0  0  0
  6  7  1  0  0  0  0
  7  2  1  0  0  0  0
  8  9  1  0  0  0  0
 10 11  1  6  0  0  0
 12 13  2  0  0  0  0
 13 10  1  0  0  0  0
 13 15  1  0  0  0  0
 14 18  1  0  0  0  0
 15 19  1  0  0  0  0
 16 15  2  0  0  0  0
 16 17  1  0  0  0  0
 17 14  2  0  0  0  0
 19 18  2  0  0  0  0
 20 27  1  0  0  0  0
 21 22  1  0  0  0  0
 22 25  1  0  0  0  0
 23 26  1  0  0  0  0
 24 21  2  0  0  0  0
 26 22  2  0  0  0  0
 27 23  2  0  0  0  0
 27 24  1  0  0  0  0
M  END
>  <MODEL>
4

>  <REMARK>
 VINA RESULT:      -7.2      1.585      4.840
  Name = 
  8 active torsions:
  status: ('A' for Active; 'I' for Inactive)
    1  A    between atoms: C_2  and  C_15
    2  A    between atoms: C_2  and  C_19
    3  A    between atoms: C_3  and  C_19
    4  A    between atoms: C_3  and  C_26
    5  A    between atoms: C_8  and  C_16
    6  A    between atoms: C_9  and  C_15
    7  A    between atoms: N_14  and  C_17
    8  A    between atoms: N_14  and  C_19
                            x       y       z     vdW  Elec       q    Type
                         _______ _______ _______ _____ _____    ______ ____

>  <TORSDO>
F 8

$$$$
=
 OpenBabel11052413413D

 27 28  0  0  1  0  0  0  0  0999 V2000
  188.9820  177.5460  141.5070 C   0  0  2  0  0  3  0  0  0  0  0  0
  189.8120  177.7730  143.8590 C   0  0  0  0  0  0  0  0  0  0  0  0
  190.0250  178.9980  143.6460 O   0  0  0  0  0  0  0  0  0  0  0  0
  189.3270  176.9340  142.7960 N   0  0  0  0  0  0  0  0  0  0  0  0
  191.5390  177.2410  145.5580 C   0  0  0  0  0  1  0  0  0  0  0  0
  189.2800  177.9880  146.2720 C   0  0  0  0  0  1  0  0  0  0  0  0
  190.0600  177.2120  145.2280 C   0  0  0  0  0  3  0  0  0  0  0  0
  189.1060  175.5040  143.0150 C   0  0  0  0  0  2  0  0  0  0  0  0
  190.3220  174.8200  142.9940 O   0  0  0  0  0  1  0  0  0  0  0  0
  190.1840  177.6700  140.5510 C   0  0  1  0  0  3  0  0  0  0  0  0
  191.4800  177.2350  141.2200 C   0  0  0  0  0  1  0  0  0  0  0  0
  190.7160  175.9030  139.0620 O   0  0  0  0  0  0  0  0  0  0  0  0
  189.9830  176.9080  139.2690 C   0  0  0  0  0  0  0  0  0  0  0  0
  187.0510  178.0400  136.3460 C   0  0  0  0  0  3  0  0  0  0  0  0
  188.9670  177.2880  138.2590 C   0  0  0  0  0  0  0  0  0  0  0  0
  188.9810  178.5770  137.7040 C   0  0  0  0  0  3  0  0  0  0  0  0
  188.0290  178.9510  136.7520 C   0  0  0  0  0  3  0  0  0  0  0  0
  187.0260  176.7540  136.8920 C   0  0  0  0  0  3  0  0  0  0  0  0
  187.9790  176.3810  137.8430 C   0  0  0  0  0  3  0  0  0  0  0  0
  188.1680  178.8380  141.6760 C   0  0  0  0  0  2  0  0  0  0  0  0
  184.7560  178.6050  140.0470 C   0  0  0  0  0  3  0  0  0  0  0  0
  183.9340  178.3540  141.1500 C   0  0  0  0  0  0  0  0  0  0  0  0
  185.8660  178.4190  142.6060 C   0  0  0  0  0  3  0  0  0  0  0  0
  186.1340  178.7580  140.2230 C   0  0  0  0  0  3  0  0  0  0  0  0
  182.4690  178.1890  140.9620 C   0  0  0  0  0  1  0  0  0  0  0  0
  184.4880  178.2650  142.4300 C   0  0  0  0  0  3  0  0  0  0  0  0
  186.6940  178.6580  141.5020 C   0  0  0  0  0  0  0  0  0  0  0  0
  1 20  1  1  0  0  0
  1  4  1  0  0  0  0
  2  7  1  0  0  0  0
  3  2  2  0  0  0  0
  4  8  1  0  0  0  0
  4  2  1  0  0  0  0
  7  5  1  0  0  0  0
  7  6  1  0  0  0  0
  9  8  1  0  0  0  0
 10 11  1  1  0  0  0
 10  1  1  0  0  0  0
 12 13  2  0  0  0  0
 13 10  1  0  0  0  0
 14 17  2  0  0  0  0
 14 18  1  0  0  0  0
 15 13  1  0  0  0  0
 16 15  2  0  0  0  0
 17 16  1  0  0  0  0
 18 19  2  0  0  0  0
 19 15  1  0  0  0  0
 21 24  2  0  0  0  0
 21 22  1  0  0  0  0
 22 26  2  0  0  0  0
 24 27  1  0  0  0  0
 25 22  1  0  0  0  0
 26 23  1  0  0  0  0
 27 20  1  0  0  0  0
 27 23  2  0  0  0  0
M  END
>  <MODEL>
5

>  <REMARK>
 VINA RESULT:      -6.9      1.779      6.183
  Name = 
  8 active torsions:
  status: ('A' for Active; 'I' for Inactive)
    1  A    between atoms: C_2  and  C_15
    2  A    between atoms: C_2  and  C_19
    3  A    between atoms: C_3  and  C_19
    4  A    between atoms: C_3  and  C_26
    5  A    between atoms: C_8  and  C_16
    6  A    between atoms: C_9  and  C_15
    7  A    between atoms: N_14  and  C_17
    8  A    between atoms: N_14  and  C_19
                            x       y       z     vdW  Elec       q    Type
                         _______ _______ _______ _____ _____    ______ ____

>  <TORSDO>
F 8

$$$$
=
 OpenBabel11052413413D

 27 28  0  0  1  0  0  0  0  0999 V2000
  188.4300  177.2020  141.8810 C   0  0  2  0  0  3  0  0  0  0  0  0
  186.3880  177.7340  143.2310 C   0  0  0  0  0  0  0  0  0  0  0  0
  186.5700  176.6730  143.8890 O   0  0  0  0  0  0  0  0  0  0  0  0
  187.2660  178.0600  142.1400 N   0  0  0  0  0  0  0  0  0  0  0  0
  183.9880  178.2530  142.8850 C   0  0  0  0  0  1  0  0  0  0  0  0
  185.0330  178.6250  145.1070 C   0  0  0  0  0  1  0  0  0  0  0  0
  185.2600  178.6480  143.6080 C   0  0  0  0  0  3  0  0  0  0  0  0
  187.0530  179.2690  141.3430 C   0  0  0  0  0  2  0  0  0  0  0  0
  186.1790  179.0030  140.2890 O   0  0  0  0  0  1  0  0  0  0  0  0
  189.0730  176.6450  143.1650 C   0  0  1  0  0  3  0  0  0  0  0  0
  190.1600  175.6280  142.8520 C   0  0  0  0  0  1  0  0  0  0  0  0
  190.2060  178.7000  143.5050 O   0  0  0  0  0  0  0  0  0  0  0  0
  189.6200  177.7290  144.0540 C   0  0  0  0  0  0  0  0  0  0  0  0
  189.2750  177.6210  148.3320 C   0  0  0  0  0  3  0  0  0  0  0  0
  189.4910  177.6980  145.5310 C   0  0  0  0  0  0  0  0  0  0  0  0
  190.5290  177.1660  146.3120 C   0  0  0  0  0  3  0  0  0  0  0  0
  190.4220  177.1280  147.7050 C   0  0  0  0  0  3  0  0  0  0  0  0
  188.2350  178.1520  147.5650 C   0  0  0  0  0  3  0  0  0  0  0  0
  188.3430  178.1900  146.1720 C   0  0  0  0  0  3  0  0  0  0  0  0
  189.4220  177.8480  140.9010 C   0  0  0  0  0  2  0  0  0  0  0  0
  190.8830  175.8140  138.0600 C   0  0  0  0  0  3  0  0  0  0  0  0
  189.8220  175.7970  137.1500 C   0  0  0  0  0  0  0  0  0  0  0  0
  188.4910  177.1200  138.6780 C   0  0  0  0  0  3  0  0  0  0  0  0
  190.7470  176.4800  139.2810 C   0  0  0  0  0  3  0  0  0  0  0  0
  189.9670  175.0870  135.8520 C   0  0  0  0  0  1  0  0  0  0  0  0
  188.6270  176.4530  137.4580 C   0  0  0  0  0  3  0  0  0  0  0  0
  189.5480  177.1280  139.5970 C   0  0  0  0  0  0  0  0  0  0  0  0
  1 20  1  1  0  0  0
  1  4  1  0  0  0  0
  1 10  1  0  0  0  0
  2  7  1  0  0  0  0
  2  3  2  0  0  0  0
  4  2  1  0  0  0  0
  5  7  1  0  0  0  0
  7  6  1  0  0  0  0
  8  4  1  0  0  0  0
  9  8  1  0  0  0  0
 10 11  1  6  0  0  0
 10 13  1  0  0  0  0
 12 13  2  0  0  0  0
 13 15  1  0  0  0  0
 15 19  2  0  0  0  0
 15 16  1  0  0  0  0
 16 17  2  0  0  0  0
 17 14  1  0  0  0  0
 18 14  2  0  0  0  0
 19 18  1  0  0  0  0
 21 24  1  0  0  0  0
 22 26  1  0  0  0  0
 22 21  2  0  0  0  0
 23 27  1  0  0  0  0
 24 27  2  0  0  0  0
 25 22  1  0  0  0  0
 26 23  2  0  0  0  0
 27 20  1  0  0  0  0
M  END
>  <MODEL>
6

>  <REMARK>
 VINA RESULT:      -6.7      1.787      5.314
  Name = 
  8 active torsions:
  status: ('A' for Active; 'I' for Inactive)
    1  A    between atoms: C_2  and  C_15
    2  A    between atoms: C_2  and  C_19
    3  A    between atoms: C_3  and  C_19
    4  A    between atoms: C_3  and  C_26
    5  A    between atoms: C_8  and  C_16
    6  A    between atoms: C_9  and  C_15
    7  A    between atoms: N_14  and  C_17
    8  A    between atoms: N_14  and  C_19
                            x       y       z     vdW  Elec       q    Type
                         _______ _______ _______ _____ _____    ______ ____

>  <TORSDO>
F 8

$$$$
=
 OpenBabel11052413413D

 27 28  0  0  1  0  0  0  0  0999 V2000
  188.0310  177.9070  145.3500 C   0  0  2  0  0  3  0  0  0  0  0  0
  190.0330  176.8820  146.4530 C   0  0  0  0  0  0  0  0  0  0  0  0
  189.2960  175.9520  146.8820 O   0  0  0  0  0  0  0  0  0  0  0  0
  189.4560  177.9640  145.7000 N   0  0  0  0  0  0  0  0  0  0  0  0
  191.7750  176.9010  148.2180 C   0  0  0  0  0  1  0  0  0  0  0  0
  192.1210  175.5820  146.1430 C   0  0  0  0  0  1  0  0  0  0  0  0
  191.5060  176.8380  146.7270 C   0  0  0  0  0  3  0  0  0  0  0  0
  190.2870  179.0690  145.2220 C   0  0  0  0  0  2  0  0  0  0  0  0
  190.9820  178.6870  144.0750 O   0  0  0  0  0  1  0  0  0  0  0  0
  187.1000  177.9550  146.5760 C   0  0  1  0  0  3  0  0  0  0  0  0
  187.8740  178.2310  147.8570 C   0  0  0  0  0  1  0  0  0  0  0  0
  185.8690  179.8460  147.3040 O   0  0  0  0  0  0  0  0  0  0  0  0
  185.9890  178.9580  146.4180 C   0  0  0  0  0  0  0  0  0  0  0  0
  183.2400  178.8990  143.1210 C   0  0  0  0  0  3  0  0  0  0  0  0
  185.0480  178.9410  145.2720 C   0  0  0  0  0  0  0  0  0  0  0  0
  183.6790  178.7280  145.4960 C   0  0  0  0  0  3  0  0  0  0  0  0
  182.7790  178.7080  144.4260 C   0  0  0  0  0  3  0  0  0  0  0  0
  184.6020  179.1110  142.8870 C   0  0  0  0  0  3  0  0  0  0  0  0
  185.5000  179.1310  143.9560 C   0  0  0  0  0  3  0  0  0  0  0  0
  187.7200  176.7730  144.3590 C   0  0  0  0  0  2  0  0  0  0  0  0
  190.2900  176.1980  141.6360 C   0  0  0  0  0  3  0  0  0  0  0  0
  189.8540  177.0830  140.6460 C   0  0  0  0  0  0  0  0  0  0  0  0
  188.0230  177.7760  142.0700 C   0  0  0  0  0  3  0  0  0  0  0  0
  189.5900  176.0990  142.8420 C   0  0  0  0  0  3  0  0  0  0  0  0
  190.5970  177.1880  139.3630 C   0  0  0  0  0  1  0  0  0  0  0  0
  188.7230  177.8750  140.8640 C   0  0  0  0  0  3  0  0  0  0  0  0
  188.4500  176.8810  143.0590 C   0  0  0  0  0  0  0  0  0  0  0  0
  1 20  1  1  0  0  0
  1  4  1  0  0  0  0
  1 10  1  0  0  0  0
  2  7  1  0  0  0  0
  2  3  2  0  0  0  0
  4  2  1  0  0  0  0
  6  7  1  0  0  0  0
  7  5  1  0  0  0  0
  8  4  1  0  0  0  0
  9  8  1  0  0  0  0
 10 11  1  1  0  0  0
 13 10  1  0  0  0  0
 13 12  2  0  0  0  0
 14 17  1  0  0  0  0
 15 16  1  0  0  0  0
 15 13  1  0  0  0  0
 17 16  2  0  0  0  0
 18 14  2  0  0  0  0
 18 19  1  0  0  0  0
 19 15  2  0  0  0  0
 21 24  1  0  0  0  0
 22 26  1  0  0  0  0
 22 21  2  0  0  0  0
 23 27  1  0  0  0  0
 24 27  2  0  0  0  0
 25 22  1  0  0  0  0
 26 23  2  0  0  0  0
 27 20  1  0  0  0  0
M  END
>  <MODEL>
7

>  <REMARK>
 VINA RESULT:      -6.6      2.362      6.671
  Name = 
  8 active torsions:
  status: ('A' for Active; 'I' for Inactive)
    1  A    between atoms: C_2  and  C_15
    2  A    between atoms: C_2  and  C_19
    3  A    between atoms: C_3  and  C_19
    4  A    between atoms: C_3  and  C_26
    5  A    between atoms: C_8  and  C_16
    6  A    between atoms: C_9  and  C_15
    7  A    between atoms: N_14  and  C_17
    8  A    between atoms: N_14  and  C_19
                            x       y       z     vdW  Elec       q    Type
                         _______ _______ _______ _____ _____    ______ ____

>  <TORSDO>
F 8

$$$$
=
 OpenBabel11052413413D

 27 28  0  0  1  0  0  0  0  0999 V2000
  182.5030  178.3240  141.3060 C   0  0  2  0  0  3  0  0  0  0  0  0
  183.0800  177.0070  139.2550 C   0  0  0  0  0  0  0  0  0  0  0  0
  182.4690  176.0160  139.7420 O   0  0  0  0  0  0  0  0  0  0  0  0
  183.1960  178.2220  140.0160 N   0  0  0  0  0  0  0  0  0  0  0  0
  184.1670  175.4960  137.6160 C   0  0  0  0  0  1  0  0  0  0  0  0
  182.6450  177.2950  136.8310 C   0  0  0  0  0  1  0  0  0  0  0  0
  183.6680  176.9030  137.8790 C   0  0  0  0  0  3  0  0  0  0  0  0
  183.9290  179.3710  139.4820 C   0  0  0  0  0  2  0  0  0  0  0  0
  185.3010  179.1950  139.6670 O   0  0  0  0  0  1  0  0  0  0  0  0
  180.9700  178.3770  141.1710 C   0  0  1  0  0  3  0  0  0  0  0  0
  180.2780  177.9160  142.4460 C   0  0  0  0  0  1  0  0  0  0  0  0
  180.0570  180.5020  141.6930 O   0  0  0  0  0  0  0  0  0  0  0  0
  180.4710  179.7410  140.7780 C   0  0  0  0  0  0  0  0  0  0  0  0
  180.4310  181.1490  136.7230 C   0  0  0  0  0  3  0  0  0  0  0  0
  180.4550  180.2170  139.3740 C   0  0  0  0  0  0  0  0  0  0  0  0
  180.8170  181.5410  139.0800 C   0  0  0  0  0  3  0  0  0  0  0  0
  180.8050  182.0050  137.7610 C   0  0  0  0  0  3  0  0  0  0  0  0
  180.0690  179.8290  137.0030 C   0  0  0  0  0  3  0  0  0  0  0  0
  180.0810  179.3660  138.3210 C   0  0  0  0  0  3  0  0  0  0  0  0
  183.1010  179.4200  142.2030 C   0  0  0  0  0  2  0  0  0  0  0  0
  184.6610  178.6220  145.5610 C   0  0  0  0  0  3  0  0  0  0  0  0
  185.8510  177.9950  145.1780 C   0  0  0  0  0  0  0  0  0  0  0  0
  185.2580  178.2940  142.8500 C   0  0  0  0  0  3  0  0  0  0  0  0
  183.7680  179.0810  144.5890 C   0  0  0  0  0  3  0  0  0  0  0  0
  186.7990  177.5060  146.2120 C   0  0  0  0  0  1  0  0  0  0  0  0
  186.1500  177.8340  143.8230 C   0  0  0  0  0  3  0  0  0  0  0  0
  184.0600  178.9110  143.2310 C   0  0  0  0  0  0  0  0  0  0  0  0
  1 20  1  6  0  0  0
  2  3  2  0  0  0  0
  2  4  1  0  0  0  0
  4  1  1  0  0  0  0
  5  7  1  0  0  0  0
  6  7  1  0  0  0  0
  7  2  1  0  0  0  0
  8  9  1  0  0  0  0
  8  4  1  0  0  0  0
 10  1  1  0  0  0  0
 10 11  1  1  0  0  0
 13 10  1  0  0  0  0
 13 12  2  0  0  0  0
 14 18  2  0  0  0  0
 14 17  1  0  0  0  0
 15 13  1  0  0  0  0
 16 15  1  0  0  0  0
 17 16  2  0  0  0  0
 18 19  1  0  0  0  0
 19 15  2  0  0  0  0
 20 27  1  0  0  0  0
 22 21  1  0  0  0  0
 22 25  1  0  0  0  0
 23 27  2  0  0  0  0
 23 26  1  0  0  0  0
 24 21  2  0  0  0  0
 26 22  2  0  0  0  0
 27 24  1  0  0  0  0
M  END
>  <MODEL>
8

>  <REMARK>
 VINA RESULT:      -6.6      5.002      8.881
  Name = 
  8 active torsions:
  status: ('A' for Active; 'I' for Inactive)
    1  A    between atoms: C_2  and  C_15
    2  A    between atoms: C_2  and  C_19
    3  A    between atoms: C_3  and  C_19
    4  A    between atoms: C_3  and  C_26
    5  A    between atoms: C_8  and  C_16
    6  A    between atoms: C_9  and  C_15
    7  A    between atoms: N_14  and  C_17
    8  A    between atoms: N_14  and  C_19
                            x       y       z     vdW  Elec       q    Type
                         _______ _______ _______ _____ _____    ______ ____

>  <TORSDO>
F 8

$$$$
=
 OpenBabel11052413413D

 27 28  0  0  1  0  0  0  0  0999 V2000
  188.5220  178.2500  141.8490 C   0  0  2  0  0  3  0  0  0  0  0  0
  188.7580  177.2880  139.5480 C   0  0  0  0  0  0  0  0  0  0  0  0
  187.6760  177.8500  139.2230 O   0  0  0  0  0  0  0  0  0  0  0  0
  189.2430  177.3940  140.8990 N   0  0  0  0  0  0  0  0  0  0  0  0
  188.5890  175.8040  137.5680 C   0  0  0  0  0  1  0  0  0  0  0  0
  190.4380  177.4550  137.7320 C   0  0  0  0  0  1  0  0  0  0  0  0
  189.5300  176.5250  138.5130 C   0  0  0  0  0  3  0  0  0  0  0  0
  190.4780  176.7220  141.3040 C   0  0  0  0  0  2  0  0  0  0  0  0
  191.5670  177.5770  141.1410 O   0  0  0  0  0  1  0  0  0  0  0  0
  188.1980  177.5450  143.1800 C   0  0  1  0  0  3  0  0  0  0  0  0
  188.2920  176.0310  143.0490 C   0  0  0  0  0  1  0  0  0  0  0  0
  190.1760  178.5460  144.0210 O   0  0  0  0  0  0  0  0  0  0  0  0
  189.0680  178.0200  144.3120 C   0  0  0  0  0  0  0  0  0  0  0  0
  187.9500  177.6620  148.4410 C   0  0  0  0  0  3  0  0  0  0  0  0
  188.6710  177.8980  145.7350 C   0  0  0  0  0  0  0  0  0  0  0  0
  189.6560  177.8010  146.7300 C   0  0  0  0  0  3  0  0  0  0  0  0
  189.2980  177.6840  148.0760 C   0  0  0  0  0  3  0  0  0  0  0  0
  186.9600  177.7570  147.4590 C   0  0  0  0  0  3  0  0  0  0  0  0
  187.3190  177.8740  146.1150 C   0  0  0  0  0  3  0  0  0  0  0  0
  187.3250  178.9610  141.1990 C   0  0  0  0  0  2  0  0  0  0  0  0
  183.7760  178.2370  142.3070 C   0  0  0  0  0  3  0  0  0  0  0  0
  183.7230  178.9030  143.5360 C   0  0  0  0  0  0  0  0  0  0  0  0
  186.0190  179.6140  143.2500 C   0  0  0  0  0  3  0  0  0  0  0  0
  184.9520  178.2570  141.5520 C   0  0  0  0  0  3  0  0  0  0  0  0
  182.4730  178.8800  144.3390 C   0  0  0  0  0  1  0  0  0  0  0  0
  184.8430  179.5940  144.0050 C   0  0  0  0  0  3  0  0  0  0  0  0
  186.0790  178.9390  142.0250 C   0  0  0  0  0  0  0  0  0  0  0  0
  1 20  1  6  0  0  0
  1 10  1  0  0  0  0
  2  4  1  0  0  0  0
  3  2  2  0  0  0  0
  4  8  1  0  0  0  0
  4  1  1  0  0  0  0
  5  7  1  0  0  0  0
  6  7  1  0  0  0  0
  7  2  1  0  0  0  0
  9  8  1  0  0  0  0
 10 11  1  6  0  0  0
 10 13  1  0  0  0  0
 12 13  2  0  0  0  0
 13 15  1  0  0  0  0
 15 19  2  0  0  0  0
 15 16  1  0  0  0  0
 16 17  2  0  0  0  0
 17 14  1  0  0  0  0
 18 14  2  0  0  0  0
 19 18  1  0  0  0  0
 20 27  1  0  0  0  0
 21 22  1  0  0  0  0
 22 26  2  0  0  0  0
 22 25  1  0  0  0  0
 23 26  1  0  0  0  0
 24 27  1  0  0  0  0
 24 21  2  0  0  0  0
 27 23  2  0  0  0  0
M  END
>  <MODEL>
9

>  <REMARK>
 VINA RESULT:      -6.6      1.624      2.282
  Name = 
  8 active torsions:
  status: ('A' for Active; 'I' for Inactive)
    1  A    between atoms: C_2  and  C_15
    2  A    between atoms: C_2  and  C_19
    3  A    between atoms: C_3  and  C_19
    4  A    between atoms: C_3  and  C_26
    5  A    between atoms: C_8  and  C_16
    6  A    between atoms: C_9  and  C_15
    7  A    between atoms: N_14  and  C_17
    8  A    between atoms: N_14  and  C_19
                            x       y       z     vdW  Elec       q    Type
                         _______ _______ _______ _____ _____    ______ ____

>  <TORSDO>
F 8

$$$$
