=
 OpenBabel11052415473D

 34 38  0  0  1  0  0  0  0  0999 V2000
  187.1580  178.0320  144.4290 C   0  0  0  0  0  0  0  0  0  0  0  0
  188.6470  177.7080  147.7440 C   0  0  0  0  0  2  0  0  0  0  0  0
  186.6570  178.2230  147.0090 N   0  0  0  0  0  0  0  0  0  0  0  0
  186.3450  178.3140  142.1470 C   0  0  0  0  0  0  0  0  0  0  0  0
  187.3910  178.0820  143.1090 C   0  0  0  0  0  3  0  0  0  0  0  0
  184.7760  178.4130  143.9430 C   0  0  0  0  0  0  0  0  0  0  0  0
  183.3960  178.4450  144.3580 N   0  0  0  0  0  1  0  0  0  0  0  0
  185.0190  178.3880  142.6150 C   0  0  0  0  0  3  0  0  0  0  0  0
  185.6290  178.3470  146.1800 C   0  0  0  0  0  0  0  0  0  0  0  0
  185.8180  178.2650  144.8600 C   0  0  0  0  0  0  0  0  0  0  0  0
  184.4960  178.4710  146.6790 O   0  0  0  0  0  0  0  0  0  0  0  0
  190.1010  177.6170  147.9230 C   0  0  0  0  0  2  0  0  0  0  0  0
  190.8240  176.6800  146.8710 C   0  0  1  0  0  3  0  0  0  0  0  0
  190.5610  176.8280  145.5640 C   0  0  0  0  0  2  0  0  0  0  0  0
  187.9300  177.9870  146.6840 C   0  0  0  0  0  0  0  0  0  0  0  0
  189.3200  177.2990  144.9180 C   0  0  0  0  0  3  0  0  0  0  0  0
  188.2270  177.8730  145.3650 C   0  0  0  0  0  0  0  0  0  0  0  0
  192.0100  175.9020  147.3120 N   0  0  0  0  0  0  0  0  0  0  0  0
  192.4290  175.0020  146.5940 O   0  0  0  0  0  0  0  0  0  0  0  0
  192.7270  176.3030  148.4650 O   0  0  0  0  0  0  0  0  0  0  0  0
  186.4480  178.6660  140.7800 O   0  0  0  0  0  0  0  0  0  0  0  0
  188.3270  177.3630  137.8740 C   0  0  0  0  0  3  0  0  0  0  0  0
  188.7530  178.1480  140.5250 C   0  0  0  0  0  3  0  0  0  0  0  0
  191.8800  176.5490  138.2740 C   0  0  0  0  0  0  0  0  0  0  0  0
  190.6400  176.7540  137.6980 C   0  0  0  0  0  3  0  0  0  0  0  0
  189.6040  177.3080  138.4240 C   0  0  0  0  0  0  0  0  0  0  0  0
  190.9940  177.3970  140.4500 C   0  0  0  0  0  3  0  0  0  0  0  0
  189.7920  177.6150  139.7790 C   0  0  0  0  0  0  0  0  0  0  0  0
  192.0810  176.9000  139.6740 C   0  0  0  0  0  3  0  0  0  0  0  0
  187.5310  178.3790  139.9100 C   0  0  0  0  0  0  0  0  0  0  0  0
  187.2800  177.9560  138.6260 C   0  0  0  0  0  3  0  0  0  0  0  0
  193.0620  175.9750  137.5380 C   0  0  0  0  0  0  0  0  0  0  0  0
  193.8530  176.7700  137.0290 O   0  0  0  0  0  0  0  0  0  0  0  0
  193.2170  174.5010  137.4820 O   0  0  0  0  0  1  0  0  0  0  0  0
  1 10  1  0  0  0  0
  1 17  1  0  0  0  0
  2 12  1  0  0  0  0
  4  8  2  0  0  0  0
  4  5  1  0  0  0  0
  5  1  2  0  0  0  0
  6  7  1  0  0  0  0
  6 10  2  0  0  0  0
  8  6  1  0  0  0  0
  9 11  2  0  0  0  0
  9  3  1  0  0  0  0
 10  9  1  0  0  0  0
 13 18  1  6  0  0  0
 13 12  1  0  0  0  0
 14 13  1  0  0  0  0
 15  3  2  0  0  0  0
 15  2  1  0  0  0  0
 16 17  2  0  0  0  0
 16 14  1  0  0  0  0
 17 15  1  0  0  0  0
 18 20  2  0  0  0  0
 19 18  2  0  0  0  0
 21  4  1  0  0  0  0
 22 26  2  0  0  0  0
 22 31  1  0  0  0  0
 24 29  1  0  0  0  0
 25 24  2  0  0  0  0
 25 26  1  0  0  0  0
 26 28  1  0  0  0  0
 28 27  1  0  0  0  0
 28 23  2  0  0  0  0
 29 27  2  0  0  0  0
 30 23  1  0  0  0  0
 30 21  1  0  0  0  0
 31 30  2  0  0  0  0
 32 24  1  0  0  0  0
 33 32  2  0  0  0  0
 34 32  1  0  0  0  0
M  END
>  <MODEL>
1

>  <REMARK>
 VINA RESULT:     -11.7      0.000      0.000
  Name = 
  4 active torsions:
  status: ('A' for Active; 'I' for Inactive)
    1  A    between atoms: N_3  and  C_25
    2  A    between atoms: C_7  and  C_11
    3  A    between atoms: C_8  and  O_18
    4  A    between atoms: O_18  and  C_30
                            x       y       z     vdW  Elec       q    Type
                         _______ _______ _______ _____ _____    ______ ____

>  <TORSDO>
F 4

$$$$
=
 OpenBabel11052415473D

 34 38  0  0  1  0  0  0  0  0999 V2000
  189.0720  177.5760  144.1080 C   0  0  0  0  0  0  0  0  0  0  0  0
  191.9470  177.2370  141.8870 C   0  0  0  0  0  2  0  0  0  0  0  0
  191.6990  177.3620  144.0530 N   0  0  0  0  0  0  0  0  0  0  0  0
  187.0620  177.9150  145.4470 C   0  0  0  0  0  0  0  0  0  0  0  0
  187.7570  177.8240  144.1880 C   0  0  0  0  0  3  0  0  0  0  0  0
  189.1190  177.4540  146.5650 C   0  0  0  0  0  0  0  0  0  0  0  0
  189.7920  177.1240  147.7970 N   0  0  0  0  0  1  0  0  0  0  0  0
  187.7820  177.6320  146.6230 C   0  0  0  0  0  3  0  0  0  0  0  0
  191.1120  177.3380  145.2420 C   0  0  0  0  0  0  0  0  0  0  0  0
  189.7840  177.4480  145.3380 C   0  0  0  0  0  0  0  0  0  0  0  0
  191.8330  177.1440  146.2380 O   0  0  0  0  0  0  0  0  0  0  0  0
  191.8270  177.4610  140.4420 C   0  0  0  0  0  2  0  0  0  0  0  0
  190.5230  176.8360  139.7980 C   0  0  1  0  0  3  0  0  0  0  0  0
  189.3290  177.0640  140.3680 C   0  0  0  0  0  2  0  0  0  0  0  0
  191.1020  177.4600  142.8620 C   0  0  0  0  0  0  0  0  0  0  0  0
  189.0150  177.3070  141.7900 C   0  0  0  0  0  3  0  0  0  0  0  0
  189.7490  177.5630  142.8480 C   0  0  0  0  0  0  0  0  0  0  0  0
  190.6000  176.3060  138.4120 N   0  0  0  0  0  0  0  0  0  0  0  0
  190.5170  177.0880  137.4730 O   0  0  0  0  0  0  0  0  0  0  0  0
  190.9180  174.9430  138.1960 O   0  0  0  0  0  0  0  0  0  0  0  0
  185.7730  178.4300  145.7220 O   0  0  0  0  0  0  0  0  0  0  0  0
  182.4260  178.8770  144.2140 C   0  0  0  0  0  3  0  0  0  0  0  0
  185.0910  178.5060  143.4470 C   0  0  0  0  0  3  0  0  0  0  0  0
  182.0700  178.6370  140.5710 C   0  0  0  0  0  0  0  0  0  0  0  0
  181.7720  178.8390  141.9060 C   0  0  0  0  0  3  0  0  0  0  0  0
  182.7660  178.8260  142.8650 C   0  0  0  0  0  0  0  0  0  0  0  0
  184.4690  178.2860  141.1760 C   0  0  0  0  0  3  0  0  0  0  0  0
  184.0880  178.5470  142.4910 C   0  0  0  0  0  0  0  0  0  0  0  0
  183.4520  178.3800  140.1820 C   0  0  0  0  0  3  0  0  0  0  0  0
  184.7680  178.7510  144.7740 C   0  0  0  0  0  0  0  0  0  0  0  0
  183.4620  178.8850  145.1840 C   0  0  0  0  0  3  0  0  0  0  0  0
  181.0450  178.6640  139.4700 C   0  0  0  0  0  0  0  0  0  0  0  0
  179.9230  178.2260  139.7290 O   0  0  0  0  0  1  0  0  0  0  0  0
  181.4310  179.2240  138.1520 O   0  0  0  0  0  0  0  0  0  0  0  0
  1  5  2  0  0  0  0
  1 10  1  0  0  0  0
  2 15  1  0  0  0  0
  3  9  1  0  0  0  0
  4 21  1  0  0  0  0
  4  8  2  0  0  0  0
  5  4  1  0  0  0  0
  6  8  1  0  0  0  0
  6  7  1  0  0  0  0
  9 10  1  0  0  0  0
  9 11  2  0  0  0  0
 10  6  2  0  0  0  0
 12  2  1  0  0  0  0
 13 18  1  6  0  0  0
 13 14  1  0  0  0  0
 13 12  1  0  0  0  0
 14 16  1  0  0  0  0
 15  3  2  0  0  0  0
 16 17  2  0  0  0  0
 17 15  1  0  0  0  0
 17  1  1  0  0  0  0
 19 18  2  0  0  0  0
 20 18  2  0  0  0  0
 22 31  1  0  0  0  0
 23 30  1  0  0  0  0
 24 25  2  0  0  0  0
 25 26  1  0  0  0  0
 26 22  2  0  0  0  0
 27 28  1  0  0  0  0
 28 26  1  0  0  0  0
 28 23  2  0  0  0  0
 29 24  1  0  0  0  0
 29 27  2  0  0  0  0
 30 31  2  0  0  0  0
 30 21  1  0  0  0  0
 32 33  1  0  0  0  0
 32 24  1  0  0  0  0
 34 32  2  0  0  0  0
M  END
>  <MODEL>
2

>  <REMARK>
 VINA RESULT:     -11.4      2.985      7.560
  Name = 
  4 active torsions:
  status: ('A' for Active; 'I' for Inactive)
    1  A    between atoms: N_3  and  C_25
    2  A    between atoms: C_7  and  C_11
    3  A    between atoms: C_8  and  O_18
    4  A    between atoms: O_18  and  C_30
                            x       y       z     vdW  Elec       q    Type
                         _______ _______ _______ _____ _____    ______ ____

>  <TORSDO>
F 4

$$$$
=
 OpenBabel11052415473D

 34 38  0  0  1  0  0  0  0  0999 V2000
  183.4880  178.6040  141.6780 C   0  0  0  0  0  0  0  0  0  0  0  0
  183.7890  177.6900  138.1580 C   0  0  0  0  0  2  0  0  0  0  0  0
  182.1100  177.9410  139.5310 N   0  0  0  0  0  0  0  0  0  0  0  0
  183.4640  179.1200  144.0610 C   0  0  0  0  0  0  0  0  0  0  0  0
  184.1430  178.8130  142.8290 C   0  0  0  0  0  3  0  0  0  0  0  0
  181.3880  179.0280  142.8890 C   0  0  0  0  0  0  0  0  0  0  0  0
  179.9690  179.2800  142.8970 N   0  0  0  0  0  1  0  0  0  0  0  0
  182.0690  179.3060  144.0210 C   0  0  0  0  0  3  0  0  0  0  0  0
  181.4230  178.3110  140.6030 C   0  0  0  0  0  0  0  0  0  0  0  0
  182.0630  178.6550  141.7250 C   0  0  0  0  0  0  0  0  0  0  0  0
  180.1850  178.3890  140.4980 O   0  0  0  0  0  0  0  0  0  0  0  0
  185.0850  177.3280  137.5710 C   0  0  0  0  0  2  0  0  0  0  0  0
  186.2830  178.2540  138.0320 C   0  0  1  0  0  3  0  0  0  0  0  0
  186.4600  178.5060  139.3380 C   0  0  0  0  0  2  0  0  0  0  0  0
  183.4380  177.8860  139.4050 C   0  0  0  0  0  0  0  0  0  0  0  0
  185.4500  178.5680  140.4120 C   0  0  0  0  0  3  0  0  0  0  0  0
  184.1830  178.2290  140.4860 C   0  0  0  0  0  0  0  0  0  0  0  0
  187.3710  178.5420  137.0620 N   0  0  0  0  0  0  0  0  0  0  0  0
  187.2100  178.2420  135.8850 O   0  0  0  0  0  0  0  0  0  0  0  0
  188.5020  179.2890  137.4720 O   0  0  0  0  0  0  0  0  0  0  0  0
  183.9610  179.0950  145.3870 O   0  0  0  0  0  0  0  0  0  0  0  0
  186.9060  178.3380  147.4910 C   0  0  0  0  0  3  0  0  0  0  0  0
  186.0560  178.1210  144.8340 C   0  0  0  0  0  3  0  0  0  0  0  0
  189.9440  177.0410  145.8970 C   0  0  0  0  0  0  0  0  0  0  0  0
  189.0440  177.4490  146.8640 C   0  0  0  0  0  3  0  0  0  0  0  0
  187.7460  177.7840  146.5290 C   0  0  0  0  0  0  0  0  0  0  0  0
  188.2030  177.4090  144.1430 C   0  0  0  0  0  3  0  0  0  0  0  0
  187.3480  177.7640  145.1850 C   0  0  0  0  0  0  0  0  0  0  0  0
  189.5160  176.9890  144.5040 C   0  0  0  0  0  3  0  0  0  0  0  0
  185.1640  178.4900  145.8310 C   0  0  0  0  0  0  0  0  0  0  0  0
  185.5690  178.6550  147.1340 C   0  0  0  0  0  3  0  0  0  0  0  0
  191.3630  176.6370  146.1900 C   0  0  0  0  0  0  0  0  0  0  0  0
  192.0140  176.1450  145.2670 O   0  0  0  0  0  0  0  0  0  0  0  0
  191.9020  176.8670  147.5530 O   0  0  0  0  0  1  0  0  0  0  0  0
  1 10  2  0  0  0  0
  1  5  1  0  0  0  0
  2 15  1  0  0  0  0
  3  9  1  0  0  0  0
  4 21  1  0  0  0  0
  5  4  2  0  0  0  0
  6  7  1  0  0  0  0
  6  8  2  0  0  0  0
  8  4  1  0  0  0  0
  9 10  1  0  0  0  0
 10  6  1  0  0  0  0
 11  9  2  0  0  0  0
 12 13  1  0  0  0  0
 12  2  1  0  0  0  0
 13 18  1  1  0  0  0
 13 14  1  0  0  0  0
 14 16  1  0  0  0  0
 15  3  2  0  0  0  0
 15 17  1  0  0  0  0
 16 17  2  0  0  0  0
 17  1  1  0  0  0  0
 18 20  2  0  0  0  0
 19 18  2  0  0  0  0
 21 30  1  0  0  0  0
 23 28  2  0  0  0  0
 23 30  1  0  0  0  0
 24 32  1  0  0  0  0
 24 25  2  0  0  0  0
 26 25  1  0  0  0  0
 26 22  2  0  0  0  0
 27 29  2  0  0  0  0
 27 28  1  0  0  0  0
 28 26  1  0  0  0  0
 29 24  1  0  0  0  0
 30 31  2  0  0  0  0
 31 22  1  0  0  0  0
 32 34  1  0  0  0  0
 33 32  2  0  0  0  0
M  END
>  <MODEL>
3

>  <REMARK>
 VINA RESULT:     -11.3      3.928      7.880
  Name = 
  4 active torsions:
  status: ('A' for Active; 'I' for Inactive)
    1  A    between atoms: N_3  and  C_25
    2  A    between atoms: C_7  and  C_11
    3  A    between atoms: C_8  and  O_18
    4  A    between atoms: O_18  and  C_30
                            x       y       z     vdW  Elec       q    Type
                         _______ _______ _______ _____ _____    ______ ____

>  <TORSDO>
F 4

$$$$
=
 OpenBabel11052415473D

 34 38  0  0  1  0  0  0  0  0999 V2000
  184.9150  178.5910  142.9140 C   0  0  0  0  0  0  0  0  0  0  0  0
  185.0390  178.6180  146.5600 C   0  0  0  0  0  2  0  0  0  0  0  0
  183.4410  178.8240  145.0860 N   0  0  0  0  0  0  0  0  0  0  0  0
  185.0180  178.6590  140.4780 C   0  0  0  0  0  0  0  0  0  0  0  0
  185.6320  178.6150  141.7800 C   0  0  0  0  0  3  0  0  0  0  0  0
  182.8780  178.6210  141.5330 C   0  0  0  0  0  0  0  0  0  0  0  0
  181.4500  178.4820  141.3940 N   0  0  0  0  0  1  0  0  0  0  0  0
  183.6150  178.5720  140.4030 C   0  0  0  0  0  3  0  0  0  0  0  0
  182.8050  178.7700  143.9230 C   0  0  0  0  0  0  0  0  0  0  0  0
  183.4960  178.6570  142.7850 C   0  0  0  0  0  0  0  0  0  0  0  0
  181.5610  178.7600  143.9450 O   0  0  0  0  0  0  0  0  0  0  0  0
  186.3120  178.7350  147.2810 C   0  0  0  0  0  2  0  0  0  0  0  0
  187.4820  177.8600  146.6700 C   0  0  1  0  0  3  0  0  0  0  0  0
  187.7280  177.9140  145.3520 C   0  0  0  0  0  2  0  0  0  0  0  0
  184.7590  178.7510  145.2870 C   0  0  0  0  0  0  0  0  0  0  0  0
  186.7890  178.1820  144.2460 C   0  0  0  0  0  3  0  0  0  0  0  0
  185.5520  178.6210  144.1940 C   0  0  0  0  0  0  0  0  0  0  0  0
  188.4840  177.2720  147.5950 N   0  0  0  0  0  0  0  0  0  0  0  0
  189.2110  176.3740  147.1870 O   0  0  0  0  0  0  0  0  0  0  0  0
  188.6920  177.8510  148.8700 O   0  0  0  0  0  0  0  0  0  0  0  0
  185.6010  178.9620  139.2240 O   0  0  0  0  0  0  0  0  0  0  0  0
  187.3290  176.3700  137.2320 C   0  0  0  0  0  3  0  0  0  0  0  0
  187.8690  178.2560  139.2270 C   0  0  0  0  0  3  0  0  0  0  0  0
  190.8490  175.6290  137.9490 C   0  0  0  0  0  0  0  0  0  0  0  0
  189.6040  175.6180  137.3470 C   0  0  0  0  0  3  0  0  0  0  0  0
  188.6180  176.5010  137.7420 C   0  0  0  0  0  0  0  0  0  0  0  0
  190.0680  177.4280  139.4970 C   0  0  0  0  0  3  0  0  0  0  0  0
  188.8590  177.3820  138.8050 C   0  0  0  0  0  0  0  0  0  0  0  0
  191.1070  176.5700  139.0330 C   0  0  0  0  0  3  0  0  0  0  0  0
  186.6430  178.2480  138.5790 C   0  0  0  0  0  0  0  0  0  0  0  0
  186.3340  177.3000  137.6320 C   0  0  0  0  0  3  0  0  0  0  0  0
  191.9790  174.7160  137.5550 C   0  0  0  0  0  0  0  0  0  0  0  0
  191.6920  173.7000  136.9220 O   0  0  0  0  0  0  0  0  0  0  0  0
  193.3630  175.0950  137.9300 O   0  0  0  0  0  1  0  0  0  0  0  0
  1 17  1  0  0  0  0
  2 12  1  0  0  0  0
  3 15  2  0  0  0  0
  4  5  1  0  0  0  0
  5  1  2  0  0  0  0
  6 10  2  0  0  0  0
  7  6  1  0  0  0  0
  8  4  2  0  0  0  0
  8  6  1  0  0  0  0
  9 11  2  0  0  0  0
  9  3  1  0  0  0  0
 10  1  1  0  0  0  0
 10  9  1  0  0  0  0
 13 12  1  0  0  0  0
 13 18  1  1  0  0  0
 14 13  1  0  0  0  0
 15  2  1  0  0  0  0
 16 14  1  0  0  0  0
 17 16  2  0  0  0  0
 17 15  1  0  0  0  0
 18 20  2  0  0  0  0
 19 18  2  0  0  0  0
 21  4  1  0  0  0  0
 22 31  2  0  0  0  0
 22 26  1  0  0  0  0
 24 29  1  0  0  0  0
 25 26  1  0  0  0  0
 25 24  2  0  0  0  0
 26 28  2  0  0  0  0
 28 23  1  0  0  0  0
 28 27  1  0  0  0  0
 29 27  2  0  0  0  0
 30 21  1  0  0  0  0
 30 23  2  0  0  0  0
 31 30  1  0  0  0  0
 32 34  1  0  0  0  0
 32 24  1  0  0  0  0
 33 32  2  0  0  0  0
M  END
>  <MODEL>
4

>  <REMARK>
 VINA RESULT:     -10.9      1.918      2.820
  Name = 
  4 active torsions:
  status: ('A' for Active; 'I' for Inactive)
    1  A    between atoms: N_3  and  C_25
    2  A    between atoms: C_7  and  C_11
    3  A    between atoms: C_8  and  O_18
    4  A    between atoms: O_18  and  C_30
                            x       y       z     vdW  Elec       q    Type
                         _______ _______ _______ _____ _____    ______ ____

>  <TORSDO>
F 4

$$$$
=
 OpenBabel11052415473D

 34 38  0  0  1  0  0  0  0  0999 V2000
  187.7030  177.9460  140.0840 C   0  0  0  0  0  0  0  0  0  0  0  0
  189.5950  177.0100  137.1080 C   0  0  0  0  0  2  0  0  0  0  0  0
  187.5770  177.7690  137.4580 N   0  0  0  0  0  0  0  0  0  0  0  0
  186.5400  178.4250  142.1740 C   0  0  0  0  0  0  0  0  0  0  0  0
  187.6650  177.9280  141.4240 C   0  0  0  0  0  3  0  0  0  0  0  0
  185.4820  179.0040  140.1150 C   0  0  0  0  0  0  0  0  0  0  0  0
  184.4060  179.6920  139.4460 N   0  0  0  0  0  1  0  0  0  0  0  0
  185.4930  179.0420  141.4640 C   0  0  0  0  0  3  0  0  0  0  0  0
  186.5480  178.3300  138.0780 C   0  0  0  0  0  0  0  0  0  0  0  0
  186.5490  178.4450  139.4100 C   0  0  0  0  0  0  0  0  0  0  0  0
  185.6340  178.7960  137.3750 O   0  0  0  0  0  0  0  0  0  0  0  0
  190.8530  176.2620  137.2060 C   0  0  0  0  0  2  0  0  0  0  0  0
  191.8100  176.7570  138.3660 C   0  0  1  0  0  3  0  0  0  0  0  0
  191.3160  176.9300  139.6020 C   0  0  0  0  0  2  0  0  0  0  0  0
  188.6950  177.2970  138.0160 C   0  0  0  0  0  0  0  0  0  0  0  0
  189.9460  177.3010  140.0060 C   0  0  0  0  0  3  0  0  0  0  0  0
  188.8020  177.3790  139.3650 C   0  0  0  0  0  0  0  0  0  0  0  0
  193.2780  176.6930  138.1500 N   0  0  0  0  0  0  0  0  0  0  0  0
  194.0180  176.6350  139.1240 O   0  0  0  0  0  0  0  0  0  0  0  0
  193.7920  176.5460  136.8390 O   0  0  0  0  0  0  0  0  0  0  0  0
  186.2190  178.2340  143.5390 O   0  0  0  0  0  0  0  0  0  0  0  0
  187.6940  177.5970  146.8700 C   0  0  0  0  0  3  0  0  0  0  0  0
  188.3810  177.4690  144.1600 C   0  0  0  0  0  3  0  0  0  0  0  0
  191.2300  176.6510  147.0970 C   0  0  0  0  0  0  0  0  0  0  0  0
  189.9220  176.9260  147.4510 C   0  0  0  0  0  3  0  0  0  0  0  0
  188.9640  177.1720  146.4880 C   0  0  0  0  0  0  0  0  0  0  0  0
  190.6320  176.9790  144.6940 C   0  0  0  0  0  3  0  0  0  0  0  0
  189.3290  177.1990  145.1350 C   0  0  0  0  0  0  0  0  0  0  0  0
  191.5990  176.6470  145.6870 C   0  0  0  0  0  3  0  0  0  0  0  0
  187.0690  177.7040  144.5440 C   0  0  0  0  0  0  0  0  0  0  0  0
  186.7150  177.8230  145.8670 C   0  0  0  0  0  3  0  0  0  0  0  0
  192.3210  176.3480  148.0890 C   0  0  0  0  0  0  0  0  0  0  0  0
  192.8680  175.2470  148.0120 O   0  0  0  0  0  0  0  0  0  0  0  0
  192.6880  177.3860  149.0820 O   0  0  0  0  0  1  0  0  0  0  0  0
  1  5  1  0  0  0  0
  2 12  1  0  0  0  0
  2 15  1  0  0  0  0
  3 15  2  0  0  0  0
  3  9  1  0  0  0  0
  4 21  1  0  0  0  0
  5  4  2  0  0  0  0
  6  8  2  0  0  0  0
  7  6  1  0  0  0  0
  8  4  1  0  0  0  0
  9 10  1  0  0  0  0
 10  1  2  0  0  0  0
 10  6  1  0  0  0  0
 11  9  2  0  0  0  0
 12 13  1  0  0  0  0
 13 18  1  1  0  0  0
 13 14  1  0  0  0  0
 14 16  1  0  0  0  0
 15 17  1  0  0  0  0
 17 16  2  0  0  0  0
 17  1  1  0  0  0  0
 18 19  2  0  0  0  0
 20 18  2  0  0  0  0
 21 30  1  0  0  0  0
 23 30  2  0  0  0  0
 23 28  1  0  0  0  0
 24 25  1  0  0  0  0
 24 32  1  0  0  0  0
 26 22  1  0  0  0  0
 26 25  2  0  0  0  0
 27 28  2  0  0  0  0
 27 29  1  0  0  0  0
 28 26  1  0  0  0  0
 29 24  2  0  0  0  0
 30 31  1  0  0  0  0
 31 22  2  0  0  0  0
 32 34  1  0  0  0  0
 33 32  2  0  0  0  0
M  END
>  <MODEL>
5

>  <REMARK>
 VINA RESULT:     -10.9      2.626      7.642
  Name = 
  4 active torsions:
  status: ('A' for Active; 'I' for Inactive)
    1  A    between atoms: N_3  and  C_25
    2  A    between atoms: C_7  and  C_11
    3  A    between atoms: C_8  and  O_18
    4  A    between atoms: O_18  and  C_30
                            x       y       z     vdW  Elec       q    Type
                         _______ _______ _______ _____ _____    ______ ____

>  <TORSDO>
F 4

$$$$
=
 OpenBabel11052415473D

 34 38  0  0  1  0  0  0  0  0999 V2000
  188.7940  177.6080  141.4430 C   0  0  0  0  0  0  0  0  0  0  0  0
  188.3400  177.2820  145.0490 C   0  0  0  0  0  2  0  0  0  0  0  0
  190.0380  177.0460  143.6970 N   0  0  0  0  0  0  0  0  0  0  0  0
  188.9050  177.7580  139.0120 C   0  0  0  0  0  0  0  0  0  0  0  0
  188.1830  177.7520  140.2580 C   0  0  0  0  0  3  0  0  0  0  0  0
  190.9350  177.4940  140.2370 C   0  0  0  0  0  0  0  0  0  0  0  0
  192.3770  177.5030  140.2290 N   0  0  0  0  0  1  0  0  0  0  0  0
  190.3120  177.7120  139.0600 C   0  0  0  0  0  3  0  0  0  0  0  0
  190.7790  177.1350  142.6010 C   0  0  0  0  0  0  0  0  0  0  0  0
  190.2070  177.4130  141.4250 C   0  0  0  0  0  0  0  0  0  0  0  0
  192.0110  177.0210  142.7250 O   0  0  0  0  0  0  0  0  0  0  0  0
  187.0010  177.2310  145.6490 C   0  0  0  0  0  2  0  0  0  0  0  0
  185.9760  178.2650  145.0290 C   0  0  1  0  0  3  0  0  0  0  0  0
  185.8450  178.3490  143.6960 C   0  0  0  0  0  2  0  0  0  0  0  0
  188.7190  177.2320  143.7960 C   0  0  0  0  0  0  0  0  0  0  0  0
  186.8530  178.0850  142.6500 C   0  0  0  0  0  3  0  0  0  0  0  0
  188.0440  177.5320  142.6590 C   0  0  0  0  0  0  0  0  0  0  0  0
  184.9520  178.8690  145.9200 N   0  0  0  0  0  0  0  0  0  0  0  0
  185.3080  179.3650  146.9820 O   0  0  0  0  0  0  0  0  0  0  0  0
  183.6160  179.0030  145.4680 O   0  0  0  0  0  0  0  0  0  0  0  0
  188.4130  177.6220  137.6920 O   0  0  0  0  0  0  0  0  0  0  0  0
  184.8480  176.7670  137.2090 C   0  0  0  0  0  3  0  0  0  0  0  0
  187.3550  175.5290  137.3110 C   0  0  0  0  0  3  0  0  0  0  0  0
  183.8890  173.2390  136.9150 C   0  0  0  0  0  0  0  0  0  0  0  0
  183.8150  174.6200  136.9330 C   0  0  0  0  0  3  0  0  0  0  0  0
  184.9570  175.3900  137.0360 C   0  0  0  0  0  0  0  0  0  0  0  0
  186.3650  173.3840  137.2190 C   0  0  0  0  0  3  0  0  0  0  0  0
  186.2040  174.7670  137.1810 C   0  0  0  0  0  0  0  0  0  0  0  0
  185.1920  172.5960  137.0320 C   0  0  0  0  0  3  0  0  0  0  0  0
  187.2530  176.9130  137.2870 C   0  0  0  0  0  0  0  0  0  0  0  0
  186.0320  177.5450  137.2900 C   0  0  0  0  0  3  0  0  0  0  0  0
  182.6930  172.3370  136.7790 C   0  0  0  0  0  0  0  0  0  0  0  0
  182.8750  171.1280  136.9270 O   0  0  0  0  0  1  0  0  0  0  0  0
  181.3710  172.9460  136.4940 O   0  0  0  0  0  0  0  0  0  0  0  0
  1 17  1  0  0  0  0
  2 12  1  0  0  0  0
  3 15  2  0  0  0  0
  4  8  2  0  0  0  0
  4  5  1  0  0  0  0
  5  1  2  0  0  0  0
  6 10  2  0  0  0  0
  7  6  1  0  0  0  0
  8  6  1  0  0  0  0
  9 11  2  0  0  0  0
  9  3  1  0  0  0  0
 10  1  1  0  0  0  0
 10  9  1  0  0  0  0
 13 12  1  0  0  0  0
 13 18  1  1  0  0  0
 14 13  1  0  0  0  0
 15  2  1  0  0  0  0
 16 17  2  0  0  0  0
 16 14  1  0  0  0  0
 17 15  1  0  0  0  0
 18 19  2  0  0  0  0
 20 18  2  0  0  0  0
 21  4  1  0  0  0  0
 22 31  1  0  0  0  0
 24 25  2  0  0  0  0
 24 29  1  0  0  0  0
 25 26  1  0  0  0  0
 26 28  1  0  0  0  0
 26 22  2  0  0  0  0
 28 27  1  0  0  0  0
 28 23  2  0  0  0  0
 29 27  2  0  0  0  0
 30 31  2  0  0  0  0
 30 23  1  0  0  0  0
 30 21  1  0  0  0  0
 32 24  1  0  0  0  0
 32 33  1  0  0  0  0
 34 32  2  0  0  0  0
M  END
>  <MODEL>
6

>  <REMARK>
 VINA RESULT:     -10.2      3.869      6.685
  Name = 
  4 active torsions:
  status: ('A' for Active; 'I' for Inactive)
    1  A    between atoms: N_3  and  C_25
    2  A    between atoms: C_7  and  C_11
    3  A    between atoms: C_8  and  O_18
    4  A    between atoms: O_18  and  C_30
                            x       y       z     vdW  Elec       q    Type
                         _______ _______ _______ _____ _____    ______ ____

>  <TORSDO>
F 4

$$$$
=
 OpenBabel11052415473D

 34 38  0  0  1  0  0  0  0  0999 V2000
  188.9760  177.5830  141.3480 C   0  0  0  0  0  0  0  0  0  0  0  0
  189.9600  177.9020  137.8490 C   0  0  0  0  0  2  0  0  0  0  0  0
  191.0400  177.5340  139.7100 N   0  0  0  0  0  0  0  0  0  0  0  0
  188.1710  177.5060  143.6490 C   0  0  0  0  0  0  0  0  0  0  0  0
  187.9850  177.7320  142.2390 C   0  0  0  0  0  3  0  0  0  0  0  0
  190.4440  176.9270  143.2110 C   0  0  0  0  0  0  0  0  0  0  0  0
  191.6810  176.3720  143.7040 N   0  0  0  0  0  1  0  0  0  0  0  0
  189.4170  177.0120  144.0820 C   0  0  0  0  0  3  0  0  0  0  0  0
  191.2640  177.2170  140.9780 C   0  0  0  0  0  0  0  0  0  0  0  0
  190.2600  177.2280  141.8600 C   0  0  0  0  0  0  0  0  0  0  0  0
  192.4120  176.8500  141.2880 O   0  0  0  0  0  0  0  0  0  0  0  0
  189.0340  178.4310  136.8410 C   0  0  0  0  0  2  0  0  0  0  0  0
  187.5530  177.8910  136.9770 C   0  0  1  0  0  3  0  0  0  0  0  0
  186.9460  177.9200  138.1730 C   0  0  0  0  0  2  0  0  0  0  0  0
  189.8700  177.8580  139.1550 C   0  0  0  0  0  0  0  0  0  0  0  0
  187.5470  177.8270  139.5180 C   0  0  0  0  0  3  0  0  0  0  0  0
  188.7810  177.8850  139.9640 C   0  0  0  0  0  0  0  0  0  0  0  0
  186.7570  177.6830  135.7400 N   0  0  0  0  0  0  0  0  0  0  0  0
  187.2650  177.9450  134.6570 O   0  0  0  0  0  0  0  0  0  0  0  0
  185.4930  177.0480  135.8140 O   0  0  0  0  0  0  0  0  0  0  0  0
  187.3380  177.8740  144.7320 O   0  0  0  0  0  0  0  0  0  0  0  0
  183.8440  178.6350  145.6720 C   0  0  0  0  0  3  0  0  0  0  0  0
  185.4360  178.3480  143.3900 C   0  0  0  0  0  3  0  0  0  0  0  0
  181.3350  179.0240  143.0260 C   0  0  0  0  0  0  0  0  0  0  0  0
  181.9300  179.0030  144.2730 C   0  0  0  0  0  3  0  0  0  0  0  0
  183.2910  178.8070  144.4060 C   0  0  0  0  0  0  0  0  0  0  0  0
  183.5480  178.5290  141.9770 C   0  0  0  0  0  3  0  0  0  0  0  0
  184.0740  178.5700  143.2680 C   0  0  0  0  0  0  0  0  0  0  0  0
  182.1580  178.8110  141.8410 C   0  0  0  0  0  3  0  0  0  0  0  0
  186.0120  178.3710  144.6520 C   0  0  0  0  0  0  0  0  0  0  0  0
  185.2470  178.4580  145.7910 C   0  0  0  0  0  3  0  0  0  0  0  0
  179.8650  179.2570  142.8020 C   0  0  0  0  0  0  0  0  0  0  0  0
  179.4540  180.4140  142.8970 O   0  0  0  0  0  1  0  0  0  0  0  0
  179.0030  178.0970  142.4660 O   0  0  0  0  0  0  0  0  0  0  0  0
  1 10  2  0  0  0  0
  1  5  1  0  0  0  0
  2 15  1  0  0  0  0
  3  9  1  0  0  0  0
  4  8  1  0  0  0  0
  4 21  1  0  0  0  0
  5  4  2  0  0  0  0
  6  7  1  0  0  0  0
  6  8  2  0  0  0  0
  9 11  2  0  0  0  0
  9 10  1  0  0  0  0
 10  6  1  0  0  0  0
 12 13  1  0  0  0  0
 12  2  1  0  0  0  0
 13 18  1  6  0  0  0
 13 14  1  0  0  0  0
 14 16  1  0  0  0  0
 15  3  2  0  0  0  0
 15 17  1  0  0  0  0
 16 17  2  0  0  0  0
 17  1  1  0  0  0  0
 18 20  2  0  0  0  0
 19 18  2  0  0  0  0
 22 31  1  0  0  0  0
 23 30  1  0  0  0  0
 24 25  2  0  0  0  0
 25 26  1  0  0  0  0
 26 22  2  0  0  0  0
 27 28  1  0  0  0  0
 28 23  2  0  0  0  0
 28 26  1  0  0  0  0
 29 27  2  0  0  0  0
 29 24  1  0  0  0  0
 30 21  1  0  0  0  0
 30 31  2  0  0  0  0
 32 33  1  0  0  0  0
 32 24  1  0  0  0  0
 34 32  2  0  0  0  0
M  END
>  <MODEL>
7

>  <REMARK>
 VINA RESULT:     -10.0      3.588      9.316
  Name = 
  4 active torsions:
  status: ('A' for Active; 'I' for Inactive)
    1  A    between atoms: N_3  and  C_25
    2  A    between atoms: C_7  and  C_11
    3  A    between atoms: C_8  and  O_18
    4  A    between atoms: O_18  and  C_30
                            x       y       z     vdW  Elec       q    Type
                         _______ _______ _______ _____ _____    ______ ____

>  <TORSDO>
F 4

$$$$
=
 OpenBabel11052415473D

 34 38  0  0  1  0  0  0  0  0999 V2000
  186.9080  178.0890  144.3970 C   0  0  0  0  0  0  0  0  0  0  0  0
  188.7760  177.6570  147.5010 C   0  0  0  0  0  2  0  0  0  0  0  0
  186.7300  178.2510  147.0210 N   0  0  0  0  0  0  0  0  0  0  0  0
  185.8350  178.4380  142.2350 C   0  0  0  0  0  0  0  0  0  0  0  0
  186.9810  178.1540  143.0590 C   0  0  0  0  0  3  0  0  0  0  0  0
  184.5000  178.5570  144.2090 C   0  0  0  0  0  0  0  0  0  0  0  0
  183.1830  178.6280  144.7900 N   0  0  0  0  0  1  0  0  0  0  0  0
  184.5790  178.5480  142.8610 C   0  0  0  0  0  3  0  0  0  0  0  0
  185.6150  178.4240  146.3250 C   0  0  0  0  0  0  0  0  0  0  0  0
  185.6400  178.3590  144.9900 C   0  0  0  0  0  0  0  0  0  0  0  0
  184.5560  178.5770  146.9600 O   0  0  0  0  0  0  0  0  0  0  0  0
  190.2360  177.5140  147.5010 C   0  0  0  0  0  2  0  0  0  0  0  0
  190.7930  176.5720  146.3570 C   0  0  1  0  0  3  0  0  0  0  0  0
  190.3790  176.7520  145.0930 C   0  0  0  0  0  2  0  0  0  0  0  0
  187.9460  177.9790  146.5400 C   0  0  0  0  0  0  0  0  0  0  0  0
  189.0870  177.2750  144.6090 C   0  0  0  0  0  3  0  0  0  0  0  0
  188.0770  177.8780  145.1940 C   0  0  0  0  0  0  0  0  0  0  0  0
  191.9950  175.7480  146.6390 N   0  0  0  0  0  0  0  0  0  0  0  0
  192.3800  174.9500  145.7920 O   0  0  0  0  0  0  0  0  0  0  0  0
  192.7650  175.9980  147.8010 O   0  0  0  0  0  0  0  0  0  0  0  0
  185.7850  178.8100  140.8700 O   0  0  0  0  0  0  0  0  0  0  0  0
  183.8280  177.6470  137.9560 C   0  0  0  0  0  3  0  0  0  0  0  0
  183.8420  179.7130  139.8420 C   0  0  0  0  0  3  0  0  0  0  0  0
  181.0420  179.7050  136.7490 C   0  0  0  0  0  0  0  0  0  0  0  0
  181.9310  178.6550  136.8890 C   0  0  0  0  0  3  0  0  0  0  0  0
  182.8440  178.6320  137.9240 C   0  0  0  0  0  0  0  0  0  0  0  0
  182.0870  180.8310  138.7190 C   0  0  0  0  0  3  0  0  0  0  0  0
  182.9130  179.7130  138.8140 C   0  0  0  0  0  0  0  0  0  0  0  0
  181.0940  180.8110  137.6960 C   0  0  0  0  0  3  0  0  0  0  0  0
  184.6950  178.6280  139.9810 C   0  0  0  0  0  0  0  0  0  0  0  0
  184.7440  177.6260  139.0400 C   0  0  0  0  0  3  0  0  0  0  0  0
  180.0030  179.7850  135.6630 C   0  0  0  0  0  0  0  0  0  0  0  0
  179.6290  180.9070  135.3180 O   0  0  0  0  0  1  0  0  0  0  0  0
  179.5040  178.5240  135.0610 O   0  0  0  0  0  0  0  0  0  0  0  0
  1 10  1  0  0  0  0
  1 17  1  0  0  0  0
  4  8  2  0  0  0  0
  4  5  1  0  0  0  0
  5  1  2  0  0  0  0
  6  7  1  0  0  0  0
  6 10  2  0  0  0  0
  8  6  1  0  0  0  0
  9 11  2  0  0  0  0
  9  3  1  0  0  0  0
 10  9  1  0  0  0  0
 12  2  1  0  0  0  0
 13 18  1  6  0  0  0
 13 12  1  0  0  0  0
 14 13  1  0  0  0  0
 15  3  2  0  0  0  0
 15  2  1  0  0  0  0
 16 14  1  0  0  0  0
 16 17  2  0  0  0  0
 17 15  1  0  0  0  0
 18 20  2  0  0  0  0
 19 18  2  0  0  0  0
 21  4  1  0  0  0  0
 22 31  1  0  0  0  0
 23 30  1  0  0  0  0
 24 25  2  0  0  0  0
 24 29  1  0  0  0  0
 25 26  1  0  0  0  0
 26 22  2  0  0  0  0
 26 28  1  0  0  0  0
 27 28  1  0  0  0  0
 28 23  2  0  0  0  0
 29 27  2  0  0  0  0
 30 21  1  0  0  0  0
 31 30  2  0  0  0  0
 32 24  1  0  0  0  0
 33 32  1  0  0  0  0
 34 32  2  0  0  0  0
M  END
>  <MODEL>
8

>  <REMARK>
 VINA RESULT:      -9.9      3.691      6.020
  Name = 
  4 active torsions:
  status: ('A' for Active; 'I' for Inactive)
    1  A    between atoms: N_3  and  C_25
    2  A    between atoms: C_7  and  C_11
    3  A    between atoms: C_8  and  O_18
    4  A    between atoms: O_18  and  C_30
                            x       y       z     vdW  Elec       q    Type
                         _______ _______ _______ _____ _____    ______ ____

>  <TORSDO>
F 4

$$$$
=
 OpenBabel11052415473D

 34 38  0  0  1  0  0  0  0  0999 V2000
  188.9800  177.7500  142.2020 C   0  0  0  0  0  0  0  0  0  0  0  0
  190.8680  176.6960  145.1410 C   0  0  0  0  0  2  0  0  0  0  0  0
  191.2780  176.7330  142.9970 N   0  0  0  0  0  0  0  0  0  0  0  0
  187.5490  178.3930  140.3350 C   0  0  0  0  0  0  0  0  0  0  0  0
  187.7850  178.1360  141.7330 C   0  0  0  0  0  3  0  0  0  0  0  0
  189.8370  177.8750  139.8990 C   0  0  0  0  0  0  0  0  0  0  0  0
  190.9330  177.8770  138.9620 N   0  0  0  0  0  1  0  0  0  0  0  0
  188.6460  178.3320  139.4560 C   0  0  0  0  0  3  0  0  0  0  0  0
  191.1620  177.0410  141.7120 C   0  0  0  0  0  0  0  0  0  0  0  0
  190.0200  177.5560  141.2460 C   0  0  0  0  0  0  0  0  0  0  0  0
  192.1660  176.8970  140.9910 O   0  0  0  0  0  0  0  0  0  0  0  0
  190.2200  176.5310  146.4470 C   0  0  0  0  0  2  0  0  0  0  0  0
  189.1860  177.6750  146.8050 C   0  0  1  0  0  3  0  0  0  0  0  0
  188.2550  178.0300  145.9060 C   0  0  0  0  0  2  0  0  0  0  0  0
  190.3600  176.9010  143.9520 C   0  0  0  0  0  0  0  0  0  0  0  0
  188.3270  177.9800  144.4320 C   0  0  0  0  0  3  0  0  0  0  0  0
  189.1660  177.4310  143.5840 C   0  0  0  0  0  0  0  0  0  0  0  0
  189.0500  178.0890  148.2250 N   0  0  0  0  0  0  0  0  0  0  0  0
  187.9310  178.1540  148.7180 O   0  0  0  0  0  0  0  0  0  0  0  0
  190.2060  178.2530  149.0250 O   0  0  0  0  0  0  0  0  0  0  0  0
  186.3210  178.5330  139.6460 O   0  0  0  0  0  0  0  0  0  0  0  0
  182.6350  178.6110  139.9320 C   0  0  0  0  0  3  0  0  0  0  0  0
  184.9110  178.5720  141.5580 C   0  0  0  0  0  3  0  0  0  0  0  0
  181.1150  178.9180  143.2570 C   0  0  0  0  0  0  0  0  0  0  0  0
  181.2570  178.7580  141.8910 C   0  0  0  0  0  3  0  0  0  0  0  0
  182.5060  178.6150  141.3190 C   0  0  0  0  0  0  0  0  0  0  0  0
  183.6020  178.8940  143.5010 C   0  0  0  0  0  3  0  0  0  0  0  0
  183.6510  178.6890  142.1240 C   0  0  0  0  0  0  0  0  0  0  0  0
  182.3080  178.9610  144.0950 C   0  0  0  0  0  3  0  0  0  0  0  0
  185.0200  178.3740  140.1900 C   0  0  0  0  0  0  0  0  0  0  0  0
  183.9240  178.4400  139.3630 C   0  0  0  0  0  3  0  0  0  0  0  0
  179.7880  179.0540  143.9520 C   0  0  0  0  0  0  0  0  0  0  0  0
  179.1930  180.1260  143.8340 O   0  0  0  0  0  0  0  0  0  0  0  0
  179.2640  177.8960  144.7180 O   0  0  0  0  0  1  0  0  0  0  0  0
  1 17  1  0  0  0  0
  2 12  1  0  0  0  0
  3 15  2  0  0  0  0
  4  5  2  0  0  0  0
  5  1  1  0  0  0  0
  6 10  1  0  0  0  0
  7  6  1  0  0  0  0
  8  6  2  0  0  0  0
  8  4  1  0  0  0  0
  9  3  1  0  0  0  0
 10  9  1  0  0  0  0
 10  1  2  0  0  0  0
 11  9  2  0  0  0  0
 12 13  1  0  0  0  0
 13 18  1  1  0  0  0
 14 13  1  0  0  0  0
 15  2  1  0  0  0  0
 16 14  1  0  0  0  0
 17 15  1  0  0  0  0
 17 16  2  0  0  0  0
 18 19  2  0  0  0  0
 18 20  2  0  0  0  0
 21 30  1  0  0  0  0
 21  4  1  0  0  0  0
 22 26  1  0  0  0  0
 23 28  1  0  0  0  0
 24 32  1  0  0  0  0
 24 29  1  0  0  0  0
 25 24  2  0  0  0  0
 26 25  1  0  0  0  0
 26 28  2  0  0  0  0
 27 29  2  0  0  0  0
 28 27  1  0  0  0  0
 30 23  2  0  0  0  0
 31 22  2  0  0  0  0
 31 30  1  0  0  0  0
 32 34  1  0  0  0  0
 33 32  2  0  0  0  0
M  END
>  <MODEL>
9

>  <REMARK>
 VINA RESULT:      -9.7      3.162      7.413
  Name = 
  4 active torsions:
  status: ('A' for Active; 'I' for Inactive)
    1  A    between atoms: N_3  and  C_25
    2  A    between atoms: C_7  and  C_11
    3  A    between atoms: C_8  and  O_18
    4  A    between atoms: O_18  and  C_30
                            x       y       z     vdW  Elec       q    Type
                         _______ _______ _______ _____ _____    ______ ____

>  <TORSDO>
F 4

$$$$
