=
 OpenBabel11052412473D

 25 28  0  0  0  0  0  0  0  0999 V2000
  187.2160  177.9800  145.8970 C   0  0  0  0  0  0  0  0  0  0  0  0
  188.5300  177.5740  145.6580 C   0  0  0  0  0  0  0  0  0  0  0  0
  187.5860  178.1560  148.2840 C   0  0  0  0  0  3  0  0  0  0  0  0
  186.1220  178.1980  145.0910 C   0  0  0  0  0  0  0  0  0  0  0  0
  183.6570  178.7780  144.0050 C   0  0  0  0  0  3  0  0  0  0  0  0
  188.9170  177.7500  148.0780 C   0  0  0  0  0  3  0  0  0  0  0  0
  185.0950  178.5860  145.8750 N   0  0  0  0  0  0  0  0  0  0  0  0
  183.8650  178.8820  145.3880 C   0  0  0  0  0  3  0  0  0  0  0  0
  190.7280  177.0530  146.5800 C   0  0  0  0  0  0  0  0  0  0  0  0
  191.6020  176.9270  147.6540 O   0  0  0  0  0  1  0  0  0  0  0  0
  189.0010  177.2870  144.3730 C   0  0  0  0  0  3  0  0  0  0  0  0
  184.7160  178.3740  143.1700 C   0  0  0  0  0  3  0  0  0  0  0  0
  186.7600  178.2610  147.1690 C   0  0  0  0  0  0  0  0  0  0  0  0
  185.4610  178.6320  147.1500 N   0  0  0  0  0  0  0  0  0  0  0  0
  191.1840  176.7690  145.2890 C   0  0  0  0  0  3  0  0  0  0  0  0
  185.9770  178.0760  143.7100 C   0  0  0  0  0  3  0  0  0  0  0  0
  190.3270  176.8880  144.1890 C   0  0  0  0  0  0  0  0  0  0  0  0
  189.3990  177.4580  146.7790 C   0  0  0  0  0  0  0  0  0  0  0  0
  190.9260  176.5150  142.5480 S   0  0  0  0  0  0  0  0  0  0  0  0
  189.2710  176.7010  141.8150 C   0  0  0  0  0  2  0  0  0  0  0  0
  189.2950  177.7490  140.7150 C   0  0  0  0  0  2  0  0  0  0  0  0
  187.9050  178.3170  140.4680 C   0  0  0  0  0  2  0  0  0  0  0  0
  187.6830  178.5120  139.0440 N   0  0  0  0  0  2  0  0  0  0  0  0
  188.9890  178.5730  138.4110 C   0  0  0  0  0  2  0  0  0  0  0  0
  189.0230  179.6430  137.5190 O   0  0  0  0  0  1  0  0  0  0  0  0
  1 13  1  0  0  0  0
  2  1  1  0  0  0  0
  2 18  1  0  0  0  0
  4  7  1  0  0  0  0
  4  1  2  0  0  0  0
  5  8  2  0  0  0  0
  6  3  2  0  0  0  0
  7 14  1  0  0  0  0
  8  7  1  0  0  0  0
  9 18  2  0  0  0  0
  9 10  1  0  0  0  0
 11  2  2  0  0  0  0
 12 16  2  0  0  0  0
 12  5  1  0  0  0  0
 13  3  1  0  0  0  0
 14 13  2  0  0  0  0
 15  9  1  0  0  0  0
 16  4  1  0  0  0  0
 17 11  1  0  0  0  0
 17 15  2  0  0  0  0
 18  6  1  0  0  0  0
 19 17  1  0  0  0  0
 20 19  1  0  0  0  0
 21 20  1  0  0  0  0
 22 21  1  0  0  0  0
 23 22  1  0  0  0  0
 24 23  1  0  0  0  0
 25 24  1  0  0  0  0
M  END
>  <MODEL>
1

>  <REMARK>
 VINA RESULT:      -9.9      0.000      0.000
  Name = 
  6 active torsions:
  status: ('A' for Active; 'I' for Inactive)
    1  A    between atoms: C_2  and  N_12
    2  A    between atoms: S_6  and  C_15
    3  A    between atoms: S_6  and  C_23
    4  A    between atoms: N_12  and  C_25
    5  A    between atoms: C_15  and  C_21
    6  A    between atoms: C_21  and  C_25
                            x       y       z     vdW  Elec       q    Type
                         _______ _______ _______ _____ _____    ______ ____

>  <TORSDO>
F 6

$$$$
=
 OpenBabel11052412473D

 25 28  0  0  0  0  0  0  0  0999 V2000
  187.1550  178.0100  145.8390 C   0  0  0  0  0  0  0  0  0  0  0  0
  188.4630  177.5970  145.5750 C   0  0  0  0  0  0  0  0  0  0  0  0
  187.5740  178.1970  148.2170 C   0  0  0  0  0  3  0  0  0  0  0  0
  186.0470  178.2300  145.0540 C   0  0  0  0  0  0  0  0  0  0  0  0
  183.5620  178.8170  144.0150 C   0  0  0  0  0  3  0  0  0  0  0  0
  188.8990  177.7830  147.9870 C   0  0  0  0  0  3  0  0  0  0  0  0
  185.0380  178.6270  145.8570 N   0  0  0  0  0  0  0  0  0  0  0  0
  183.8000  178.9270  145.3930 C   0  0  0  0  0  3  0  0  0  0  0  0
  190.6760  177.0690  146.4560 C   0  0  0  0  0  0  0  0  0  0  0  0
  191.5700  176.9440  147.5130 O   0  0  0  0  0  1  0  0  0  0  0  0
  188.9060  177.3000  144.2830 C   0  0  0  0  0  3  0  0  0  0  0  0
  184.6030  178.4030  143.1610 C   0  0  0  0  0  3  0  0  0  0  0  0
  186.7270  178.3010  147.1180 C   0  0  0  0  0  0  0  0  0  0  0  0
  185.4290  178.6780  147.1230 N   0  0  0  0  0  0  0  0  0  0  0  0
  191.1040  176.7760  145.1570 C   0  0  0  0  0  3  0  0  0  0  0  0
  185.8730  178.1020  143.6770 C   0  0  0  0  0  3  0  0  0  0  0  0
  190.2260  176.8940  144.0750 C   0  0  0  0  0  0  0  0  0  0  0  0
  189.3530  177.4820  146.6800 C   0  0  0  0  0  0  0  0  0  0  0  0
  190.7890  176.5090  142.4240 S   0  0  0  0  0  0  0  0  0  0  0  0
  189.5240  177.5680  141.6580 C   0  0  0  0  0  2  0  0  0  0  0  0
  189.3870  177.2450  140.1790 C   0  0  0  0  0  2  0  0  0  0  0  0
  190.7500  177.0400  139.5330 C   0  0  0  0  0  2  0  0  0  0  0  0
  190.7810  175.7820  138.8040 N   0  0  0  0  0  2  0  0  0  0  0  0
  191.9260  175.8320  137.9120 C   0  0  0  0  0  2  0  0  0  0  0  0
  192.9780  176.4950  138.5440 O   0  0  0  0  0  1  0  0  0  0  0  0
  1 13  1  0  0  0  0
  2  1  1  0  0  0  0
  2 18  1  0  0  0  0
  4  1  2  0  0  0  0
  4  7  1  0  0  0  0
  5  8  2  0  0  0  0
  6  3  2  0  0  0  0
  7 14  1  0  0  0  0
  8  7  1  0  0  0  0
  9 18  2  0  0  0  0
  9 10  1  0  0  0  0
 11  2  2  0  0  0  0
 12 16  2  0  0  0  0
 12  5  1  0  0  0  0
 13 14  2  0  0  0  0
 13  3  1  0  0  0  0
 15  9  1  0  0  0  0
 16  4  1  0  0  0  0
 17 11  1  0  0  0  0
 17 15  2  0  0  0  0
 18  6  1  0  0  0  0
 19 17  1  0  0  0  0
 20 19  1  0  0  0  0
 21 20  1  0  0  0  0
 22 21  1  0  0  0  0
 23 22  1  0  0  0  0
 24 25  1  0  0  0  0
 24 23  1  0  0  0  0
M  END
>  <MODEL>
2

>  <REMARK>
 VINA RESULT:      -9.2      1.622      1.701
  Name = 
  6 active torsions:
  status: ('A' for Active; 'I' for Inactive)
    1  A    between atoms: C_2  and  N_12
    2  A    between atoms: S_6  and  C_15
    3  A    between atoms: S_6  and  C_23
    4  A    between atoms: N_12  and  C_25
    5  A    between atoms: C_15  and  C_21
    6  A    between atoms: C_21  and  C_25
                            x       y       z     vdW  Elec       q    Type
                         _______ _______ _______ _____ _____    ______ ____

>  <TORSDO>
F 6

$$$$
=
 OpenBabel11052412473D

 25 28  0  0  0  0  0  0  0  0999 V2000
  185.7090  178.2160  144.8040 C   0  0  0  0  0  0  0  0  0  0  0  0
  187.0340  177.7860  144.8870 C   0  0  0  0  0  0  0  0  0  0  0  0
  185.5890  178.6690  147.1790 C   0  0  0  0  0  3  0  0  0  0  0  0
  184.8080  178.3390  143.7710 C   0  0  0  0  0  0  0  0  0  0  0  0
  182.6290  178.7880  142.1430 C   0  0  0  0  0  3  0  0  0  0  0  0
  186.9240  178.2420  147.2990 C   0  0  0  0  0  3  0  0  0  0  0  0
  183.6520  178.8150  144.2780 N   0  0  0  0  0  0  0  0  0  0  0  0
  182.5540  179.0520  143.5180 C   0  0  0  0  0  3  0  0  0  0  0  0
  188.9850  177.3760  146.2930 C   0  0  0  0  0  0  0  0  0  0  0  0
  189.6190  177.3760  147.5310 O   0  0  0  0  0  1  0  0  0  0  0  0
  187.7500  177.3510  143.7670 C   0  0  0  0  0  3  0  0  0  0  0  0
  183.8270  178.2900  141.5950 C   0  0  0  0  0  3  0  0  0  0  0  0
  185.0100  178.6440  145.9140 C   0  0  0  0  0  0  0  0  0  0  0  0
  183.7520  179.0090  145.5870 N   0  0  0  0  0  0  0  0  0  0  0  0
  189.6880  176.9430  145.1640 C   0  0  0  0  0  3  0  0  0  0  0  0
  184.9440  178.0570  142.4130 C   0  0  0  0  0  3  0  0  0  0  0  0
  189.0760  176.9340  143.9060 C   0  0  0  0  0  0  0  0  0  0  0  0
  187.6530  177.8010  146.1680 C   0  0  0  0  0  0  0  0  0  0  0  0
  189.9870  176.3720  142.4760 S   0  0  0  0  0  0  0  0  0  0  0  0
  188.9840  177.3790  141.3410 C   0  0  0  0  0  2  0  0  0  0  0  0
  189.6630  177.4830  139.9850 C   0  0  0  0  0  2  0  0  0  0  0  0
  188.6420  177.4680  138.8560 C   0  0  0  0  0  2  0  0  0  0  0  0
  187.5960  178.4470  139.1070 N   0  0  0  0  0  2  0  0  0  0  0  0
  186.4690  178.0950  138.2620 C   0  0  0  0  0  2  0  0  0  0  0  0
  185.4210  178.9860  138.4900 O   0  0  0  0  0  1  0  0  0  0  0  0
  1  2  1  0  0  0  0
  1 13  1  0  0  0  0
  2 18  1  0  0  0  0
  3  6  2  0  0  0  0
  4  7  1  0  0  0  0
  4  1  2  0  0  0  0
  5  8  2  0  0  0  0
  7 14  1  0  0  0  0
  8  7  1  0  0  0  0
  9 10  1  0  0  0  0
 11 17  1  0  0  0  0
 11  2  2  0  0  0  0
 12  5  1  0  0  0  0
 12 16  2  0  0  0  0
 13  3  1  0  0  0  0
 14 13  2  0  0  0  0
 15  9  1  0  0  0  0
 16  4  1  0  0  0  0
 17 15  2  0  0  0  0
 18  9  2  0  0  0  0
 18  6  1  0  0  0  0
 19 17  1  0  0  0  0
 20 19  1  0  0  0  0
 21 20  1  0  0  0  0
 22 23  1  0  0  0  0
 22 21  1  0  0  0  0
 24 25  1  0  0  0  0
 24 23  1  0  0  0  0
M  END
>  <MODEL>
3

>  <REMARK>
 VINA RESULT:      -9.2      1.481      1.949
  Name = 
  6 active torsions:
  status: ('A' for Active; 'I' for Inactive)
    1  A    between atoms: C_2  and  N_12
    2  A    between atoms: S_6  and  C_15
    3  A    between atoms: S_6  and  C_23
    4  A    between atoms: N_12  and  C_25
    5  A    between atoms: C_15  and  C_21
    6  A    between atoms: C_21  and  C_25
                            x       y       z     vdW  Elec       q    Type
                         _______ _______ _______ _____ _____    ______ ____

>  <TORSDO>
F 6

$$$$
=
 OpenBabel11052412473D

 25 28  0  0  0  0  0  0  0  0999 V2000
  189.2090  177.4850  144.0620 C   0  0  0  0  0  0  0  0  0  0  0  0
  188.2460  177.7250  145.0440 C   0  0  0  0  0  0  0  0  0  0  0  0
  190.9020  176.9250  145.7010 C   0  0  0  0  0  3  0  0  0  0  0  0
  189.2060  177.5420  142.6870 C   0  0  0  0  0  0  0  0  0  0  0  0
  189.7850  177.4820  139.9930 C   0  0  0  0  0  3  0  0  0  0  0  0
  189.9550  177.1590  146.7160 C   0  0  0  0  0  3  0  0  0  0  0  0
  190.4370  177.2010  142.2520 N   0  0  0  0  0  0  0  0  0  0  0  0
  190.7700  177.1560  140.9380 C   0  0  0  0  0  3  0  0  0  0  0  0
  187.6930  177.7900  147.4190 C   0  0  0  0  0  0  0  0  0  0  0  0
  188.0390  177.6360  148.7570 O   0  0  0  0  0  1  0  0  0  0  0  0
  186.9420  178.1190  144.7290 C   0  0  0  0  0  3  0  0  0  0  0  0
  188.4950  177.8410  140.4290 C   0  0  0  0  0  3  0  0  0  0  0  0
  190.4950  177.0970  144.3820 C   0  0  0  0  0  0  0  0  0  0  0  0
  191.2420  176.9240  143.2700 N   0  0  0  0  0  0  0  0  0  0  0  0
  186.3920  178.1820  147.0890 C   0  0  0  0  0  3  0  0  0  0  0  0
  188.1870  177.8750  141.7970 C   0  0  0  0  0  3  0  0  0  0  0  0
  186.0150  178.3430  145.7510 C   0  0  0  0  0  0  0  0  0  0  0  0
  188.6330  177.5570  146.4030 C   0  0  0  0  0  0  0  0  0  0  0  0
  184.3510  178.8510  145.3480 S   0  0  0  0  0  0  0  0  0  0  0  0
  184.8140  179.3030  143.6480 C   0  0  0  0  0  2  0  0  0  0  0  0
  183.8070  178.7390  142.6580 C   0  0  0  0  0  2  0  0  0  0  0  0
  184.4920  178.2840  141.3770 C   0  0  0  0  0  2  0  0  0  0  0  0
  184.9780  179.4320  140.6270 N   0  0  0  0  0  2  0  0  0  0  0  0
  184.5280  179.2690  139.2560 C   0  0  0  0  0  2  0  0  0  0  0  0
  185.6110  178.9260  138.4490 O   0  0  0  0  0  1  0  0  0  0  0  0
  1 13  1  0  0  0  0
  1  2  1  0  0  0  0
  2 18  1  0  0  0  0
  3  6  2  0  0  0  0
  4  1  2  0  0  0  0
  5 12  1  0  0  0  0
  5  8  2  0  0  0  0
  7  4  1  0  0  0  0
  7 14  1  0  0  0  0
  8  7  1  0  0  0  0
  9 10  1  0  0  0  0
 11  2  2  0  0  0  0
 11 17  1  0  0  0  0
 12 16  2  0  0  0  0
 13  3  1  0  0  0  0
 14 13  2  0  0  0  0
 15  9  1  0  0  0  0
 16  4  1  0  0  0  0
 17 15  2  0  0  0  0
 18  6  1  0  0  0  0
 18  9  2  0  0  0  0
 19 17  1  0  0  0  0
 20 19  1  0  0  0  0
 21 20  1  0  0  0  0
 22 21  1  0  0  0  0
 23 22  1  0  0  0  0
 24 23  1  0  0  0  0
 25 24  1  0  0  0  0
M  END
>  <MODEL>
4

>  <REMARK>
 VINA RESULT:      -8.8      2.752      4.822
  Name = 
  6 active torsions:
  status: ('A' for Active; 'I' for Inactive)
    1  A    between atoms: C_2  and  N_12
    2  A    between atoms: S_6  and  C_15
    3  A    between atoms: S_6  and  C_23
    4  A    between atoms: N_12  and  C_25
    5  A    between atoms: C_15  and  C_21
    6  A    between atoms: C_21  and  C_25
                            x       y       z     vdW  Elec       q    Type
                         _______ _______ _______ _____ _____    ______ ____

>  <TORSDO>
F 6

$$$$
=
 OpenBabel11052412473D

 25 28  0  0  0  0  0  0  0  0999 V2000
  187.7550  177.6970  145.6410 C   0  0  0  0  0  0  0  0  0  0  0  0
  186.7780  178.0180  144.6960 C   0  0  0  0  0  0  0  0  0  0  0  0
  186.2390  178.0510  147.4950 C   0  0  0  0  0  3  0  0  0  0  0  0
  189.0770  177.3230  145.5580 C   0  0  0  0  0  0  0  0  0  0  0  0
  191.6860  176.5550  146.0030 C   0  0  0  0  0  3  0  0  0  0  0  0
  185.2300  178.3790  146.5710 C   0  0  0  0  0  3  0  0  0  0  0  0
  189.5380  177.1350  146.8120 N   0  0  0  0  0  0  0  0  0  0  0  0
  190.8120  176.7580  147.0810 C   0  0  0  0  0  3  0  0  0  0  0  0
  184.4760  178.6970  144.2600 C   0  0  0  0  0  0  0  0  0  0  0  0
  183.2030  179.0440  144.6970 O   0  0  0  0  0  1  0  0  0  0  0  0
  187.0350  178.0050  143.3220 C   0  0  0  0  0  3  0  0  0  0  0  0
  191.2230  176.7460  144.6870 C   0  0  0  0  0  3  0  0  0  0  0  0
  187.4930  177.7130  146.9950 C   0  0  0  0  0  0  0  0  0  0  0  0
  188.5870  177.3680  147.7080 N   0  0  0  0  0  0  0  0  0  0  0  0
  184.7480  178.6790  142.8880 C   0  0  0  0  0  3  0  0  0  0  0  0
  189.8970  177.1360  144.4470 C   0  0  0  0  0  3  0  0  0  0  0  0
  186.0200  178.3310  142.4200 C   0  0  0  0  0  0  0  0  0  0  0  0
  185.4850  178.3670  145.1780 C   0  0  0  0  0  0  0  0  0  0  0  0
  186.3510  178.3200  140.6640 S   0  0  0  0  0  0  0  0  0  0  0  0
  188.1350  178.5700  140.9170 C   0  0  0  0  0  2  0  0  0  0  0  0
  188.9210  177.4160  140.3180 C   0  0  0  0  0  2  0  0  0  0  0  0
  189.7690  177.8800  139.1420 C   0  0  0  0  0  2  0  0  0  0  0  0
  189.1230  178.9900  138.4590 N   0  0  0  0  0  2  0  0  0  0  0  0
  188.6430  178.4870  137.1840 C   0  0  0  0  0  2  0  0  0  0  0  0
  187.4530  179.1310  136.8490 O   0  0  0  0  0  1  0  0  0  0  0  0
  1 13  1  0  0  0  0
  2 18  1  0  0  0  0
  2  1  1  0  0  0  0
  4  1  2  0  0  0  0
  4  7  1  0  0  0  0
  5  8  2  0  0  0  0
  6  3  2  0  0  0  0
  7  8  1  0  0  0  0
  7 14  1  0  0  0  0
  9 10  1  0  0  0  0
  9 18  2  0  0  0  0
 11  2  2  0  0  0  0
 12  5  1  0  0  0  0
 13  3  1  0  0  0  0
 13 14  2  0  0  0  0
 15  9  1  0  0  0  0
 16 12  2  0  0  0  0
 16  4  1  0  0  0  0
 17 15  2  0  0  0  0
 17 11  1  0  0  0  0
 18  6  1  0  0  0  0
 19 20  1  0  0  0  0
 19 17  1  0  0  0  0
 21 20  1  0  0  0  0
 22 21  1  0  0  0  0
 23 22  1  0  0  0  0
 24 23  1  0  0  0  0
 25 24  1  0  0  0  0
M  END
>  <MODEL>
5

>  <REMARK>
 VINA RESULT:      -8.6      2.572      4.638
  Name = 
  6 active torsions:
  status: ('A' for Active; 'I' for Inactive)
    1  A    between atoms: C_2  and  N_12
    2  A    between atoms: S_6  and  C_15
    3  A    between atoms: S_6  and  C_23
    4  A    between atoms: N_12  and  C_25
    5  A    between atoms: C_15  and  C_21
    6  A    between atoms: C_21  and  C_25
                            x       y       z     vdW  Elec       q    Type
                         _______ _______ _______ _____ _____    ______ ____

>  <TORSDO>
F 6

$$$$
=
 OpenBabel11052412473D

 25 28  0  0  0  0  0  0  0  0999 V2000
  187.8130  177.6820  145.6580 C   0  0  0  0  0  0  0  0  0  0  0  0
  186.8450  178.0320  144.7160 C   0  0  0  0  0  0  0  0  0  0  0  0
  186.3000  178.0390  147.5140 C   0  0  0  0  0  3  0  0  0  0  0  0
  189.1280  177.2830  145.5730 C   0  0  0  0  0  0  0  0  0  0  0  0
  191.7220  176.4620  146.0140 C   0  0  0  0  0  3  0  0  0  0  0  0
  185.2990  178.3980  146.5910 C   0  0  0  0  0  3  0  0  0  0  0  0
  189.5830  177.0720  146.8260 N   0  0  0  0  0  0  0  0  0  0  0  0
  190.8490  176.6670  147.0930 C   0  0  0  0  0  3  0  0  0  0  0  0
  184.5570  178.7590  144.2830 C   0  0  0  0  0  0  0  0  0  0  0  0
  183.2890  179.1240  144.7220 O   0  0  0  0  0  1  0  0  0  0  0  0
  187.1050  178.0320  143.3420 C   0  0  0  0  0  3  0  0  0  0  0  0
  191.2650  176.6780  144.7000 C   0  0  0  0  0  3  0  0  0  0  0  0
  187.5480  177.6850  147.0120 C   0  0  0  0  0  0  0  0  0  0  0  0
  188.6350  177.3110  147.7220 N   0  0  0  0  0  0  0  0  0  0  0  0
  184.8310  178.7540  142.9120 C   0  0  0  0  0  3  0  0  0  0  0  0
  189.9470  177.0960  144.4610 C   0  0  0  0  0  3  0  0  0  0  0  0
  186.0980  178.3890  142.4420 C   0  0  0  0  0  0  0  0  0  0  0  0
  185.5580  178.3990  145.1990 C   0  0  0  0  0  0  0  0  0  0  0  0
  186.4330  178.3940  140.6870 S   0  0  0  0  0  0  0  0  0  0  0  0
  188.2300  178.4920  140.9480 C   0  0  0  0  0  2  0  0  0  0  0  0
  188.9630  177.6750  139.8980 C   0  0  0  0  0  2  0  0  0  0  0  0
  190.1310  176.9140  140.5100 C   0  0  0  0  0  2  0  0  0  0  0  0
  191.2920  176.9810  139.6370 N   0  0  0  0  0  2  0  0  0  0  0  0
  192.3920  177.5060  140.4270 C   0  0  0  0  0  2  0  0  0  0  0  0
  193.5930  177.2850  139.7560 O   0  0  0  0  0  1  0  0  0  0  0  0
  1 13  1  0  0  0  0
  2 18  1  0  0  0  0
  2  1  1  0  0  0  0
  4  1  2  0  0  0  0
  4  7  1  0  0  0  0
  5  8  2  0  0  0  0
  6  3  2  0  0  0  0
  7  8  1  0  0  0  0
  7 14  1  0  0  0  0
  9 10  1  0  0  0  0
  9 18  2  0  0  0  0
 11  2  2  0  0  0  0
 12  5  1  0  0  0  0
 13  3  1  0  0  0  0
 13 14  2  0  0  0  0
 15  9  1  0  0  0  0
 16 12  2  0  0  0  0
 16  4  1  0  0  0  0
 17 15  2  0  0  0  0
 17 11  1  0  0  0  0
 18  6  1  0  0  0  0
 19 20  1  0  0  0  0
 19 17  1  0  0  0  0
 21 22  1  0  0  0  0
 21 20  1  0  0  0  0
 23 24  1  0  0  0  0
 23 22  1  0  0  0  0
 25 24  1  0  0  0  0
M  END
>  <MODEL>
6

>  <REMARK>
 VINA RESULT:      -8.6      2.918      4.877
  Name = 
  6 active torsions:
  status: ('A' for Active; 'I' for Inactive)
    1  A    between atoms: C_2  and  N_12
    2  A    between atoms: S_6  and  C_15
    3  A    between atoms: S_6  and  C_23
    4  A    between atoms: N_12  and  C_25
    5  A    between atoms: C_15  and  C_21
    6  A    between atoms: C_21  and  C_25
                            x       y       z     vdW  Elec       q    Type
                         _______ _______ _______ _____ _____    ______ ____

>  <TORSDO>
F 6

$$$$
=
 OpenBabel11052412473D

 25 28  0  0  0  0  0  0  0  0999 V2000
  185.8930  178.4170  144.7820 C   0  0  0  0  0  0  0  0  0  0  0  0
  185.8170  178.5070  143.3910 C   0  0  0  0  0  0  0  0  0  0  0  0
  183.5320  178.8800  145.0540 C   0  0  0  0  0  3  0  0  0  0  0  0
  186.9150  178.1630  145.6680 C   0  0  0  0  0  0  0  0  0  0  0  0
  188.5220  177.7200  147.8630 C   0  0  0  0  0  3  0  0  0  0  0  0
  183.4190  178.9780  143.6550 C   0  0  0  0  0  3  0  0  0  0  0  0
  186.4060  178.1990  146.9170 N   0  0  0  0  0  0  0  0  0  0  0  0
  187.1550  177.9870  148.0260 C   0  0  0  0  0  3  0  0  0  0  0  0
  184.4280  178.8930  141.4230 C   0  0  0  0  0  0  0  0  0  0  0  0
  183.2020  179.1750  140.8310 O   0  0  0  0  0  1  0  0  0  0  0  0
  186.9330  178.3260  142.5690 C   0  0  0  0  0  3  0  0  0  0  0  0
  189.0720  177.6790  146.5670 C   0  0  0  0  0  3  0  0  0  0  0  0
  184.7860  178.5980  145.5860 C   0  0  0  0  0  0  0  0  0  0  0  0
  185.1050  178.4630  146.8920 N   0  0  0  0  0  0  0  0  0  0  0  0
  185.5540  178.7090  140.6130 C   0  0  0  0  0  3  0  0  0  0  0  0
  188.2650  177.9020  145.4410 C   0  0  0  0  0  3  0  0  0  0  0  0
  186.8000  178.4230  141.1810 C   0  0  0  0  0  0  0  0  0  0  0  0
  184.5460  178.7940  142.8180 C   0  0  0  0  0  0  0  0  0  0  0  0
  188.2270  178.1970  140.1320 S   0  0  0  0  0  0  0  0  0  0  0  0
  189.0760  177.1700  141.3700 C   0  0  0  0  0  2  0  0  0  0  0  0
  190.4760  176.8170  140.8950 C   0  0  0  0  0  2  0  0  0  0  0  0
  191.5340  177.4980  141.7500 C   0  0  0  0  0  2  0  0  0  0  0  0
  191.7670  176.7390  142.9700 N   0  0  0  0  0  2  0  0  0  0  0  0
  191.6870  177.6750  144.0780 C   0  0  0  0  0  2  0  0  0  0  0  0
  191.4790  178.9620  143.5840 O   0  0  0  0  0  1  0  0  0  0  0  0
  1 13  1  0  0  0  0
  1  4  2  0  0  0  0
  2  1  1  0  0  0  0
  3 13  1  0  0  0  0
  4  7  1  0  0  0  0
  5  8  2  0  0  0  0
  6  3  2  0  0  0  0
  7  8  1  0  0  0  0
  9 18  2  0  0  0  0
 10  9  1  0  0  0  0
 11  2  2  0  0  0  0
 12  5  1  0  0  0  0
 13 14  2  0  0  0  0
 14  7  1  0  0  0  0
 15 17  2  0  0  0  0
 15  9  1  0  0  0  0
 16  4  1  0  0  0  0
 16 12  2  0  0  0  0
 17 11  1  0  0  0  0
 18  2  1  0  0  0  0
 18  6  1  0  0  0  0
 19 17  1  0  0  0  0
 19 20  1  0  0  0  0
 21 20  1  0  0  0  0
 21 22  1  0  0  0  0
 22 23  1  0  0  0  0
 23 24  1  0  0  0  0
 25 24  1  0  0  0  0
M  END
>  <MODEL>
7

>  <REMARK>
 VINA RESULT:      -8.5      2.415      5.211
  Name = 
  6 active torsions:
  status: ('A' for Active; 'I' for Inactive)
    1  A    between atoms: C_2  and  N_12
    2  A    between atoms: S_6  and  C_15
    3  A    between atoms: S_6  and  C_23
    4  A    between atoms: N_12  and  C_25
    5  A    between atoms: C_15  and  C_21
    6  A    between atoms: C_21  and  C_25
                            x       y       z     vdW  Elec       q    Type
                         _______ _______ _______ _____ _____    ______ ____

>  <TORSDO>
F 6

$$$$
=
 OpenBabel11052412473D

 25 28  0  0  0  0  0  0  0  0999 V2000
  186.9000  178.2800  142.4740 C   0  0  0  0  0  0  0  0  0  0  0  0
  186.4770  178.2750  143.8050 C   0  0  0  0  0  0  0  0  0  0  0  0
  184.7300  178.9930  141.6690 C   0  0  0  0  0  3  0  0  0  0  0  0
  188.0920  177.9910  141.8500 C   0  0  0  0  0  0  0  0  0  0  0  0
  190.1690  177.5550  140.0920 C   0  0  0  0  0  3  0  0  0  0  0  0
  184.2710  178.9990  143.0000 C   0  0  0  0  0  3  0  0  0  0  0  0
  187.9240  178.1700  140.5240 N   0  0  0  0  0  0  0  0  0  0  0  0
  188.9140  177.9680  139.6200 C   0  0  0  0  0  3  0  0  0  0  0  0
  184.6640  178.6510  145.3940 C   0  0  0  0  0  0  0  0  0  0  0  0
  183.3520  179.0050  145.6860 O   0  0  0  0  0  1  0  0  0  0  0  0
  187.3270  177.9230  144.8570 C   0  0  0  0  0  3  0  0  0  0  0  0
  190.3630  177.3630  141.4730 C   0  0  0  0  0  3  0  0  0  0  0  0
  186.0530  178.6280  141.4420 C   0  0  0  0  0  0  0  0  0  0  0  0
  186.6850  178.5590  140.2500 N   0  0  0  0  0  0  0  0  0  0  0  0
  185.5270  178.2970  146.4360 C   0  0  0  0  0  3  0  0  0  0  0  0
  189.3140  177.5820  142.3790 C   0  0  0  0  0  3  0  0  0  0  0  0
  186.8530  177.9380  146.1720 C   0  0  0  0  0  0  0  0  0  0  0  0
  185.1280  178.6440  144.0690 C   0  0  0  0  0  0  0  0  0  0  0  0
  187.9380  177.4820  147.5150 S   0  0  0  0  0  0  0  0  0  0  0  0
  189.3800  177.3510  146.4130 C   0  0  0  0  0  2  0  0  0  0  0  0
  190.5460  176.7040  147.1420 C   0  0  0  0  0  2  0  0  0  0  0  0
  191.7460  176.5380  146.2210 C   0  0  0  0  0  2  0  0  0  0  0  0
  192.3520  175.2290  146.4080 N   0  0  0  0  0  2  0  0  0  0  0  0
  192.4280  174.6010  145.1010 C   0  0  0  0  0  2  0  0  0  0  0  0
  191.8080  175.4180  144.1570 O   0  0  0  0  0  1  0  0  0  0  0  0
  1  2  1  0  0  0  0
  2 18  2  0  0  0  0
  2 11  1  0  0  0  0
  3  6  2  0  0  0  0
  4 16  1  0  0  0  0
  4  1  2  0  0  0  0
  5 12  1  0  0  0  0
  6 18  1  0  0  0  0
  7  4  1  0  0  0  0
  8  5  2  0  0  0  0
  8  7  1  0  0  0  0
  9 10  1  0  0  0  0
  9 15  2  0  0  0  0
 11 17  2  0  0  0  0
 12 16  2  0  0  0  0
 13  3  1  0  0  0  0
 13  1  1  0  0  0  0
 14  7  1  0  0  0  0
 14 13  2  0  0  0  0
 17 15  1  0  0  0  0
 17 19  1  0  0  0  0
 18  9  1  0  0  0  0
 20 21  1  0  0  0  0
 20 19  1  0  0  0  0
 22 23  1  0  0  0  0
 22 21  1  0  0  0  0
 24 23  1  0  0  0  0
 25 24  1  0  0  0  0
M  END
>  <MODEL>
8

>  <REMARK>
 VINA RESULT:      -8.2      3.072      6.335
  Name = 
  6 active torsions:
  status: ('A' for Active; 'I' for Inactive)
    1  A    between atoms: C_2  and  N_12
    2  A    between atoms: S_6  and  C_15
    3  A    between atoms: S_6  and  C_23
    4  A    between atoms: N_12  and  C_25
    5  A    between atoms: C_15  and  C_21
    6  A    between atoms: C_21  and  C_25
                            x       y       z     vdW  Elec       q    Type
                         _______ _______ _______ _____ _____    ______ ____

>  <TORSDO>
F 6

$$$$
=
 OpenBabel11052412473D

 25 28  0  0  0  0  0  0  0  0999 V2000
  186.1180  178.4050  142.8480 C   0  0  0  0  0  0  0  0  0  0  0  0
  187.1270  178.2260  141.9000 C   0  0  0  0  0  0  0  0  0  0  0  0
  184.4740  178.9630  141.1600 C   0  0  0  0  0  3  0  0  0  0  0  0
  186.0680  178.3050  144.2200 C   0  0  0  0  0  0  0  0  0  0  0  0
  185.3810  178.2590  146.8890 C   0  0  0  0  0  3  0  0  0  0  0  0
  185.4670  178.7910  140.1780 C   0  0  0  0  0  3  0  0  0  0  0  0
  184.8110  178.5920  144.6160 N   0  0  0  0  0  0  0  0  0  0  0  0
  184.4250  178.5820  145.9150 C   0  0  0  0  0  3  0  0  0  0  0  0
  187.7750  178.2550  139.5480 C   0  0  0  0  0  0  0  0  0  0  0  0
  187.4780  178.4430  138.2030 O   0  0  0  0  0  1  0  0  0  0  0  0
  188.4300  177.8650  142.2550 C   0  0  0  0  0  3  0  0  0  0  0  0
  186.6990  177.9560  146.4950 C   0  0  0  0  0  3  0  0  0  0  0  0
  184.8340  178.7620  142.4890 C   0  0  0  0  0  0  0  0  0  0  0  0
  184.0380  178.8740  143.5750 N   0  0  0  0  0  0  0  0  0  0  0  0
  189.0740  177.8930  139.9190 C   0  0  0  0  0  3  0  0  0  0  0  0
  187.0620  177.9750  145.1400 C   0  0  0  0  0  3  0  0  0  0  0  0
  189.4010  177.6950  141.2650 C   0  0  0  0  0  0  0  0  0  0  0  0
  186.7880  178.4250  140.5320 C   0  0  0  0  0  0  0  0  0  0  0  0
  191.0670  177.2400  141.7200 S   0  0  0  0  0  0  0  0  0  0  0  0
  190.4880  175.9780  142.8940 C   0  0  0  0  0  2  0  0  0  0  0  0
  191.3570  175.9760  144.1410 C   0  0  0  0  0  2  0  0  0  0  0  0
  191.0150  177.1460  145.0510 C   0  0  0  0  0  2  0  0  0  0  0  0
  191.8430  177.1170  146.2470 N   0  0  0  0  0  2  0  0  0  0  0  0
  191.1550  176.2930  147.2240 C   0  0  0  0  0  2  0  0  0  0  0  0
  189.8830  176.8130  147.4570 O   0  0  0  0  0  1  0  0  0  0  0  0
  1  4  2  0  0  0  0
  2 11  1  0  0  0  0
  2  1  1  0  0  0  0
  3 13  1  0  0  0  0
  4  7  1  0  0  0  0
  4 16  1  0  0  0  0
  6 18  1  0  0  0  0
  6  3  2  0  0  0  0
  7  8  1  0  0  0  0
  8  5  2  0  0  0  0
  9 15  2  0  0  0  0
  9 18  1  0  0  0  0
 10  9  1  0  0  0  0
 12  5  1  0  0  0  0
 13  1  1  0  0  0  0
 13 14  2  0  0  0  0
 14  7  1  0  0  0  0
 15 17  1  0  0  0  0
 16 12  2  0  0  0  0
 17 19  1  0  0  0  0
 17 11  2  0  0  0  0
 18  2  2  0  0  0  0
 19 20  1  0  0  0  0
 20 21  1  0  0  0  0
 21 22  1  0  0  0  0
 22 23  1  0  0  0  0
 23 24  1  0  0  0  0
 24 25  1  0  0  0  0
M  END
>  <MODEL>
9

>  <REMARK>
 VINA RESULT:      -8.0      1.905      5.741
  Name = 
  6 active torsions:
  status: ('A' for Active; 'I' for Inactive)
    1  A    between atoms: C_2  and  N_12
    2  A    between atoms: S_6  and  C_15
    3  A    between atoms: S_6  and  C_23
    4  A    between atoms: N_12  and  C_25
    5  A    between atoms: C_15  and  C_21
    6  A    between atoms: C_21  and  C_25
                            x       y       z     vdW  Elec       q    Type
                         _______ _______ _______ _____ _____    ______ ____

>  <TORSDO>
F 6

$$$$
