=
 OpenBabel11052413373D

 28 30  0  0  1  0  0  0  0  0999 V2000
  186.5410  177.4340  145.0030 N   0  0  0  0  0  2  0  0  0  0  0  0
  189.0250  176.6290  145.8780 C   0  0  0  0  0  1  0  0  0  0  0  0
  189.0250  177.5550  144.6680 C   0  0  1  0  0  0  0  0  0  0  0  0
  183.2960  178.4380  143.9510 C   0  0  0  0  0  2  0  0  0  0  0  0
  191.9490  177.1830  142.4390 C   0  0  0  0  0  1  0  0  0  0  0  0
  189.8210  178.8110  144.9860 C   0  0  0  0  0  2  0  0  0  0  0  0
  188.6560  176.5370  142.4810 C   0  0  0  0  0  2  0  0  0  0  0  0
  187.4050  178.6010  141.7480 C   0  0  2  0  0  3  0  0  0  0  0  0
  189.7220  176.8710  143.5060 C   0  0  1  0  0  3  0  0  0  0  0  0
  184.9190  179.0390  142.2300 C   0  0  0  0  0  2  0  0  0  0  0  0
  187.4610  177.4390  142.7530 C   0  0  2  0  0  3  0  0  0  0  0  0
  185.2980  179.5860  144.7720 C   0  0  0  0  0  2  0  0  0  0  0  0
  186.3140  179.6450  142.0530 C   0  0  0  0  0  2  0  0  0  0  0  0
  184.4810  178.9720  143.6680 C   0  0  0  0  0  0  0  0  0  0  0  0
  190.7000  177.8810  142.9420 C   0  0  1  0  0  3  0  0  0  0  0  0
  185.9010  178.5390  145.7170 C   0  0  0  0  0  2  0  0  0  0  0  0
  187.6260  177.9550  144.1760 C   0  0  1  0  0  3  0  0  0  0  0  0
  191.0460  178.7950  144.0930 C   0  0  0  0  0  2  0  0  0  0  0  0
  187.3710  178.1120  140.2890 C   0  0  1  0  0  3  0  0  0  0  0  0
  185.6680  177.7430  138.9160 C   0  0  0  0  0  1  0  0  0  0  0  0
  186.3650  178.7650  139.5660 O   0  0  0  0  0  0  0  0  0  0  0  0
  188.7330  178.2920  139.6090 C   0  0  1  0  0  3  0  0  0  0  0  0
  189.1650  177.0030  138.9890 C   0  0  0  0  0  3  0  0  0  0  0  0
  190.3530  176.4840  139.2620 C   0  0  0  0  0  3  0  0  0  0  0  0
  190.7380  175.2860  138.6760 O   0  0  0  0  0  1  0  0  0  0  0  0
  188.6510  179.2790  138.6210 O   0  0  0  0  0  0  0  0  0  0  0  0
  188.9660  178.6220  137.4300 C   0  0  0  0  0  2  0  0  0  0  0  0
  187.9260  178.9540  136.3810 C   0  0  0  0  0  1  0  0  0  0  0  0
  1 16  1  0  0  0  0
  3  6  1  0  0  0  0
  3  2  1  1  0  0  0
  8 19  1  6  0  0  0
  8 13  1  0  0  0  0
  8 11  1  0  0  0  0
  9  7  1  6  0  0  0
  9  3  1  0  0  0  0
 10 14  1  0  0  0  0
 11  7  1  6  0  0  0
 11 17  1  0  0  0  0
 12 16  1  0  0  0  0
 13 10  1  0  0  0  0
 14  4  2  0  0  0  0
 14 12  1  0  0  0  0
 15  5  1  1  0  0  0
 15  9  1  0  0  0  0
 15 18  1  0  0  0  0
 17  3  1  0  0  0  0
 17  1  1  1  0  0  0
 18  6  1  0  0  0  0
 19 21  1  6  0  0  0
 20 21  1  0  0  0  0
 22 23  1  6  0  0  0
 22 19  1  0  0  0  0
 23 24  2  0  0  0  0
 25 24  1  0  0  0  0
 26 22  1  0  0  0  0
 27 26  1  0  0  0  0
 28 27  1  0  0  0  0
M  END
>  <MODEL>
1

>  <REMARK>
 VINA RESULT:      -7.1      0.000      0.000
  Name = 
  6 active torsions:
  status: ('A' for Active; 'I' for Inactive)
    1  A    between atoms: C_9  and  O_12
    2  A    between atoms: C_9  and  C_13
    3  A    between atoms: C_9  and  C_14
    4  A    between atoms: C_10  and  C_13
    5  A    between atoms: O_12  and  C_15
    6  A    between atoms: C_13  and  O_24
                            x       y       z     vdW  Elec       q    Type
                         _______ _______ _______ _____ _____    ______ ____

>  <TORSDO>
F 6

$$$$
=
 OpenBabel11052413373D

 28 30  0  0  1  0  0  0  0  0999 V2000
  186.9860  177.4690  140.8510 N   0  0  0  0  0  2  0  0  0  0  0  0
  184.5630  177.8540  142.1030 C   0  0  0  0  0  1  0  0  0  0  0  0
  185.7880  178.2980  142.8940 C   0  0  1  0  0  0  0  0  0  0  0  0
  190.0680  176.9530  139.1540 C   0  0  0  0  0  2  0  0  0  0  0  0
  185.3600  178.2420  146.5640 C   0  0  0  0  0  1  0  0  0  0  0  0
  185.6770  179.7800  143.2180 C   0  0  0  0  0  2  0  0  0  0  0  0
  186.9930  176.5840  144.1460 C   0  0  0  0  0  2  0  0  0  0  0  0
  189.1630  177.7740  143.6560 C   0  0  2  0  0  3  0  0  0  0  0  0
  185.8330  177.5580  144.2180 C   0  0  1  0  0  3  0  0  0  0  0  0
  190.5190  177.4880  141.4930 C   0  0  0  0  0  2  0  0  0  0  0  0
  187.9340  177.0750  143.0540 C   0  0  2  0  0  3  0  0  0  0  0  0
  188.8580  178.8970  140.0240 C   0  0  0  0  0  2  0  0  0  0  0  0
  190.0840  178.4350  142.6140 C   0  0  0  0  0  2  0  0  0  0  0  0
  189.7950  177.7330  140.1970 C   0  0  0  0  0  0  0  0  0  0  0  0
  186.0860  178.6050  145.2840 C   0  0  1  0  0  3  0  0  0  0  0  0
  187.3960  178.4620  139.8590 C   0  0  0  0  0  2  0  0  0  0  0  0
  187.1270  178.0350  142.1900 C   0  0  1  0  0  3  0  0  0  0  0  0
  185.5340  179.8940  144.7230 C   0  0  0  0  0  2  0  0  0  0  0  0
  189.9280  176.8710  144.6410 C   0  0  1  0  0  3  0  0  0  0  0  0
  190.8670  175.0630  143.7630 C   0  0  0  0  0  1  0  0  0  0  0  0
  191.1180  176.4030  144.0690 O   0  0  0  0  0  0  0  0  0  0  0  0
  190.2070  177.5970  145.9610 C   0  0  1  0  0  3  0  0  0  0  0  0
  189.2050  177.1840  146.9890 C   0  0  0  0  0  3  0  0  0  0  0  0
  188.7760  178.0450  147.9020 C   0  0  0  0  0  3  0  0  0  0  0  0
  187.8440  177.6440  148.8490 O   0  0  0  0  0  1  0  0  0  0  0  0
  191.4930  177.2890  146.4160 O   0  0  0  0  0  0  0  0  0  0  0  0
  191.3090  176.2730  147.3570 C   0  0  0  0  0  2  0  0  0  0  0  0
  192.6520  175.6850  147.7330 C   0  0  0  0  0  1  0  0  0  0  0  0
  3  2  1  6  0  0  0
  3  6  1  0  0  0  0
  3  9  1  0  0  0  0
  4 14  2  0  0  0  0
  6 18  1  0  0  0  0
  8 19  1  6  0  0  0
  9  7  1  6  0  0  0
  9 15  1  0  0  0  0
 10 13  1  0  0  0  0
 11  8  1  0  0  0  0
 11  7  1  1  0  0  0
 12 14  1  0  0  0  0
 13  8  1  0  0  0  0
 14 10  1  0  0  0  0
 15  5  1  1  0  0  0
 16 12  1  0  0  0  0
 16  1  1  0  0  0  0
 17  1  1  6  0  0  0
 17  3  1  0  0  0  0
 17 11  1  0  0  0  0
 18 15  1  0  0  0  0
 19 21  1  6  0  0  0
 19 22  1  0  0  0  0
 20 21  1  0  0  0  0
 22 26  1  0  0  0  0
 22 23  1  1  0  0  0
 23 24  2  0  0  0  0
 24 25  1  0  0  0  0
 26 27  1  0  0  0  0
 27 28  1  0  0  0  0
M  END
>  <MODEL>
2

>  <REMARK>
 VINA RESULT:      -6.1      3.066      6.708
  Name = 
  6 active torsions:
  status: ('A' for Active; 'I' for Inactive)
    1  A    between atoms: C_9  and  O_12
    2  A    between atoms: C_9  and  C_13
    3  A    between atoms: C_9  and  C_14
    4  A    between atoms: C_10  and  C_13
    5  A    between atoms: O_12  and  C_15
    6  A    between atoms: C_13  and  O_24
                            x       y       z     vdW  Elec       q    Type
                         _______ _______ _______ _____ _____    ______ ____

>  <TORSDO>
F 6

$$$$
=
 OpenBabel11052413373D

 28 30  0  0  1  0  0  0  0  0999 V2000
  191.7910  176.4650  137.9730 N   0  0  0  0  0  2  0  0  0  0  0  0
  191.9520  177.7730  140.3920 C   0  0  0  0  0  1  0  0  0  0  0  0
  190.5870  177.1830  140.0550 C   0  0  1  0  0  0  0  0  0  0  0  0
  191.6760  174.7790  134.8450 C   0  0  0  0  0  2  0  0  0  0  0  0
  187.7270  178.9130  141.6300 C   0  0  0  0  0  1  0  0  0  0  0  0
  190.1790  176.1920  141.1330 C   0  0  0  0  0  2  0  0  0  0  0  0
  189.1270  178.4990  138.6080 C   0  0  0  0  0  2  0  0  0  0  0  0
  188.2500  176.3690  137.5820 C   0  0  2  0  0  3  0  0  0  0  0  0
  189.5460  178.2870  140.0500 C   0  0  1  0  0  3  0  0  0  0  0  0
  189.4010  175.0990  135.6680 C   0  0  0  0  0  2  0  0  0  0  0  0
  189.4900  177.2390  137.8360 C   0  0  2  0  0  3  0  0  0  0  0  0
  191.3220  174.1440  137.1840 C   0  0  0  0  0  2  0  0  0  0  0  0
  188.5600  175.0020  136.9430 C   0  0  0  0  0  2  0  0  0  0  0  0
  190.8390  174.7090  135.8760 C   0  0  0  0  0  0  0  0  0  0  0  0
  188.3780  177.7750  140.8700 C   0  0  1  0  0  3  0  0  0  0  0  0
  192.2820  175.0880  137.9190 C   0  0  0  0  0  2  0  0  0  0  0  0
  190.5140  176.4960  138.6840 C   0  0  1  0  0  3  0  0  0  0  0  0
  188.9710  176.7780  141.8370 C   0  0  0  0  0  2  0  0  0  0  0  0
  187.1390  177.1350  136.8410 C   0  0  1  0  0  3  0  0  0  0  0  0
  187.2080  177.8520  134.7440 C   0  0  0  0  0  1  0  0  0  0  0  0
  187.0310  176.7010  135.5140 O   0  0  0  0  0  0  0  0  0  0  0  0
  185.7950  177.0070  137.5660 C   0  0  1  0  0  3  0  0  0  0  0  0
  185.3180  178.3570  137.9940 C   0  0  0  0  0  3  0  0  0  0  0  0
  185.0460  178.6080  139.2670 C   0  0  0  0  0  3  0  0  0  0  0  0
  184.6040  179.8680  139.6460 O   0  0  0  0  0  1  0  0  0  0  0  0
  184.8450  176.4250  136.7200 O   0  0  0  0  0  0  0  0  0  0  0  0
  184.2150  175.4530  137.5010 C   0  0  0  0  0  2  0  0  0  0  0  0
  184.9380  174.1320  137.3410 C   0  0  0  0  0  1  0  0  0  0  0  0
  3  2  1  1  0  0  0
  3  6  1  0  0  0  0
  4 14  2  0  0  0  0
  6 18  1  0  0  0  0
  8 19  1  6  0  0  0
  8 11  1  0  0  0  0
  9  7  1  6  0  0  0
  9  3  1  0  0  0  0
  9 15  1  0  0  0  0
 10 14  1  0  0  0  0
 10 13  1  0  0  0  0
 11  7  1  1  0  0  0
 11 17  1  0  0  0  0
 12 16  1  0  0  0  0
 13  8  1  0  0  0  0
 14 12  1  0  0  0  0
 15  5  1  1  0  0  0
 15 18  1  0  0  0  0
 16  1  1  0  0  0  0
 17  1  1  6  0  0  0
 17  3  1  0  0  0  0
 19 21  1  6  0  0  0
 19 22  1  0  0  0  0
 20 21  1  0  0  0  0
 22 23  1  6  0  0  0
 23 24  2  0  0  0  0
 24 25  1  0  0  0  0
 26 27  1  0  0  0  0
 26 22  1  0  0  0  0
 28 27  1  0  0  0  0
M  END
>  <MODEL>
3

>  <REMARK>
 VINA RESULT:      -5.7      3.285      6.701
  Name = 
  6 active torsions:
  status: ('A' for Active; 'I' for Inactive)
    1  A    between atoms: C_9  and  O_12
    2  A    between atoms: C_9  and  C_13
    3  A    between atoms: C_9  and  C_14
    4  A    between atoms: C_10  and  C_13
    5  A    between atoms: O_12  and  C_15
    6  A    between atoms: C_13  and  O_24
                            x       y       z     vdW  Elec       q    Type
                         _______ _______ _______ _____ _____    ______ ____

>  <TORSDO>
F 6

$$$$
=
 OpenBabel11052413373D

 28 30  0  0  1  0  0  0  0  0999 V2000
  187.6120  177.0320  146.3690 N   0  0  0  0  0  2  0  0  0  0  0  0
  190.1620  176.3380  145.5900 C   0  0  0  0  0  1  0  0  0  0  0  0
  189.4730  177.3850  144.7220 C   0  0  1  0  0  0  0  0  0  0  0  0
  184.3350  177.8810  147.4550 C   0  0  0  0  0  2  0  0  0  0  0  0
  190.6290  177.4840  141.2140 C   0  0  0  0  0  1  0  0  0  0  0  0
  190.3020  178.6590  144.7030 C   0  0  0  0  0  2  0  0  0  0  0  0
  187.9390  176.5770  143.0040 C   0  0  0  0  0  2  0  0  0  0  0  0
  186.4810  178.6010  143.3760 C   0  0  2  0  0  3  0  0  0  0  0  0
  189.3960  176.8850  143.2910 C   0  0  1  0  0  3  0  0  0  0  0  0
  184.6990  178.7880  145.2180 C   0  0  0  0  0  2  0  0  0  0  0  0
  187.1010  177.3480  144.0140 C   0  0  2  0  0  3  0  0  0  0  0  0
  186.4440  179.0910  147.1590 C   0  0  0  0  0  2  0  0  0  0  0  0
  185.7470  179.5170  144.3730 C   0  0  0  0  0  2  0  0  0  0  0  0
  185.1500  178.5340  146.6310 C   0  0  0  0  0  0  0  0  0  0  0  0
  189.8790  178.0230  142.4160 C   0  0  1  0  0  3  0  0  0  0  0  0
  187.4810  178.0010  147.4570 C   0  0  0  0  0  2  0  0  0  0  0  0
  188.0380  177.7220  145.1540 C   0  0  1  0  0  3  0  0  0  0  0  0
  190.8090  178.8350  143.2850 C   0  0  0  0  0  2  0  0  0  0  0  0
  185.6320  178.2690  142.1360 C   0  0  1  0  0  3  0  0  0  0  0  0
  183.5800  177.5110  141.7680 C   0  0  0  0  0  1  0  0  0  0  0  0
  184.2810  178.5630  142.3600 O   0  0  0  0  0  0  0  0  0  0  0  0
  186.1490  179.0020  140.8940 C   0  0  1  0  0  3  0  0  0  0  0  0
  186.6370  178.0120  139.8860 C   0  0  0  0  0  3  0  0  0  0  0  0
  187.8430  178.1300  139.3490 C   0  0  0  0  0  3  0  0  0  0  0  0
  188.2790  177.2000  138.4150 O   0  0  0  0  0  1  0  0  0  0  0  0
  185.1280  179.7730  140.3300 O   0  0  0  0  0  0  0  0  0  0  0  0
  184.7870  179.1120  139.1480 C   0  0  0  0  0  2  0  0  0  0  0  0
  183.3770  179.4890  138.7480 C   0  0  0  0  0  1  0  0  0  0  0  0
  1 16  1  0  0  0  0
  3 17  1  0  0  0  0
  3  2  1  1  0  0  0
  6  3  1  0  0  0  0
  8 19  1  6  0  0  0
  8 11  1  0  0  0  0
  8 13  1  0  0  0  0
  9  7  1  6  0  0  0
  9  3  1  0  0  0  0
 10 14  1  0  0  0  0
 11  7  1  6  0  0  0
 11 17  1  0  0  0  0
 12 16  1  0  0  0  0
 13 10  1  0  0  0  0
 14 12  1  0  0  0  0
 14  4  2  0  0  0  0
 15  5  1  6  0  0  0
 15 18  1  0  0  0  0
 15  9  1  0  0  0  0
 17  1  1  1  0  0  0
 18  6  1  0  0  0  0
 19 21  1  1  0  0  0
 20 21  1  0  0  0  0
 22 23  1  6  0  0  0
 22 19  1  0  0  0  0
 24 23  2  0  0  0  0
 25 24  1  0  0  0  0
 26 22  1  0  0  0  0
 27 26  1  0  0  0  0
 28 27  1  0  0  0  0
M  END
>  <MODEL>
4

>  <REMARK>
 VINA RESULT:      -5.7      1.606      2.662
  Name = 
  6 active torsions:
  status: ('A' for Active; 'I' for Inactive)
    1  A    between atoms: C_9  and  O_12
    2  A    between atoms: C_9  and  C_13
    3  A    between atoms: C_9  and  C_14
    4  A    between atoms: C_10  and  C_13
    5  A    between atoms: O_12  and  C_15
    6  A    between atoms: C_13  and  O_24
                            x       y       z     vdW  Elec       q    Type
                         _______ _______ _______ _____ _____    ______ ____

>  <TORSDO>
F 6

$$$$
=
 OpenBabel11052413373D

 28 30  0  0  1  0  0  0  0  0999 V2000
  186.2190  178.9570  144.9930 N   0  0  0  0  0  2  0  0  0  0  0  0
  184.1490  179.9860  143.4960 C   0  0  0  0  0  1  0  0  0  0  0  0
  184.9490  178.8720  142.8300 C   0  0  1  0  0  0  0  0  0  0  0  0
  188.8590  177.6750  147.0000 C   0  0  0  0  0  2  0  0  0  0  0  0
  184.9600  178.9740  139.1370 C   0  0  0  0  0  1  0  0  0  0  0  0
  184.0240  177.7160  142.4840 C   0  0  0  0  0  2  0  0  0  0  0  0
  187.0320  179.4980  141.7240 C   0  0  0  0  0  2  0  0  0  0  0  0
  188.0460  177.2970  142.4220 C   0  0  2  0  0  3  0  0  0  0  0  0
  185.5330  179.3780  141.5250 C   0  0  1  0  0  3  0  0  0  0  0  0
  189.1170  176.8560  144.7160 C   0  0  0  0  0  2  0  0  0  0  0  0
  187.4090  178.6110  142.9020 C   0  0  2  0  0  3  0  0  0  0  0  0
  186.8250  176.7530  145.9950 C   0  0  0  0  0  2  0  0  0  0  0  0
  188.3130  176.2800  143.5480 C   0  0  0  0  0  2  0  0  0  0  0  0
  188.2760  177.1450  145.9290 C   0  0  0  0  0  0  0  0  0  0  0  0
  185.2210  178.3240  140.4810 C   0  0  1  0  0  3  0  0  0  0  0  0
  185.8830  177.9640  146.0130 C   0  0  0  0  0  2  0  0  0  0  0  0
  186.1220  178.3450  143.6700 C   0  0  1  0  0  3  0  0  0  0  0  0
  183.9750  177.6270  140.9710 C   0  0  0  0  0  2  0  0  0  0  0  0
  189.2780  177.5340  141.5300 C   0  0  1  0  0  3  0  0  0  0  0  0
  191.3580  177.8780  142.2190 C   0  0  0  0  0  1  0  0  0  0  0  0
  190.4020  176.8750  142.0420 O   0  0  0  0  0  0  0  0  0  0  0  0
  189.0080  177.1060  140.0830 C   0  0  1  0  0  3  0  0  0  0  0  0
  189.2740  178.2490  139.1570 C   0  0  0  0  0  3  0  0  0  0  0  0
  188.4180  178.5520  138.1920 C   0  0  0  0  0  3  0  0  0  0  0  0
  188.6810  179.6170  137.3420 O   0  0  0  0  0  1  0  0  0  0  0  0
  189.8310  176.0290  139.7390 O   0  0  0  0  0  0  0  0  0  0  0  0
  190.7110  176.5380  138.7820 C   0  0  0  0  0  2  0  0  0  0  0  0
  191.2860  175.3980  137.9690 C   0  0  0  0  0  1  0  0  0  0  0  0
  1 16  1  0  0  0  0
  3  2  1  1  0  0  0
  3 17  1  0  0  0  0
  6  3  1  0  0  0  0
  8 19  1  1  0  0  0
  8 11  1  0  0  0  0
  8 13  1  0  0  0  0
  9  7  1  1  0  0  0
  9  3  1  0  0  0  0
 10 14  1  0  0  0  0
 11  7  1  6  0  0  0
 11 17  1  0  0  0  0
 12 16  1  0  0  0  0
 13 10  1  0  0  0  0
 14 12  1  0  0  0  0
 14  4  2  0  0  0  0
 15  5  1  6  0  0  0
 15 18  1  0  0  0  0
 15  9  1  0  0  0  0
 17  1  1  1  0  0  0
 18  6  1  0  0  0  0
 19 21  1  1  0  0  0
 21 20  1  0  0  0  0
 22 23  1  6  0  0  0
 22 19  1  0  0  0  0
 24 23  2  0  0  0  0
 25 24  1  0  0  0  0
 26 22  1  0  0  0  0
 27 26  1  0  0  0  0
 28 27  1  0  0  0  0
M  END
>  <MODEL>
5

>  <REMARK>
 VINA RESULT:      -5.5      1.462      4.612
  Name = 
  6 active torsions:
  status: ('A' for Active; 'I' for Inactive)
    1  A    between atoms: C_9  and  O_12
    2  A    between atoms: C_9  and  C_13
    3  A    between atoms: C_9  and  C_14
    4  A    between atoms: C_10  and  C_13
    5  A    between atoms: O_12  and  C_15
    6  A    between atoms: C_13  and  O_24
                            x       y       z     vdW  Elec       q    Type
                         _______ _______ _______ _____ _____    ______ ____

>  <TORSDO>
F 6

$$$$
=
 OpenBabel11052413373D

 28 30  0  0  1  0  0  0  0  0999 V2000
  186.8260  177.5750  141.1420 N   0  0  0  0  0  2  0  0  0  0  0  0
  184.4480  177.9270  142.4860 C   0  0  0  0  0  1  0  0  0  0  0  0
  185.7040  178.2860  143.2720 C   0  0  1  0  0  0  0  0  0  0  0  0
  189.8480  177.1090  139.3270 C   0  0  0  0  0  2  0  0  0  0  0  0
  185.3720  177.9790  146.9390 C   0  0  0  0  0  1  0  0  0  0  0  0
  185.6390  179.7430  143.7010 C   0  0  0  0  0  2  0  0  0  0  0  0
  186.8980  176.4600  144.3650 C   0  0  0  0  0  2  0  0  0  0  0  0
  189.0830  177.6300  143.8990 C   0  0  2  0  0  3  0  0  0  0  0  0
  185.7650  177.4520  144.5380 C   0  0  1  0  0  3  0  0  0  0  0  0
  190.3740  177.4670  141.6830 C   0  0  0  0  0  2  0  0  0  0  0  0
  187.8220  177.0040  143.2840 C   0  0  2  0  0  3  0  0  0  0  0  0
  188.7100  179.0150  140.3640 C   0  0  0  0  0  2  0  0  0  0  0  0
  189.9930  178.3420  142.8800 C   0  0  0  0  0  2  0  0  0  0  0  0
  189.6220  177.8200  140.4280 C   0  0  0  0  0  0  0  0  0  0  0  0
  186.0730  178.4150  145.6670 C   0  0  1  0  0  3  0  0  0  0  0  0
  187.2340  178.6270  140.2110 C   0  0  0  0  0  2  0  0  0  0  0  0
  187.0170  178.0410  142.5130 C   0  0  1  0  0  3  0  0  0  0  0  0
  185.5400  179.7530  145.2140 C   0  0  0  0  0  2  0  0  0  0  0  0
  189.8520  176.6430  144.7950 C   0  0  1  0  0  3  0  0  0  0  0  0
  191.3710  175.2550  143.9680 C   0  0  0  0  0  1  0  0  0  0  0  0
  191.1980  176.5660  144.4170 O   0  0  0  0  0  0  0  0  0  0  0  0
  189.7230  177.0170  146.2750 C   0  0  1  0  0  3  0  0  0  0  0  0
  191.0770  177.0720  146.9050 C   0  0  0  0  0  3  0  0  0  0  0  0
  191.5470  176.0420  147.5940 C   0  0  0  0  0  3  0  0  0  0  0  0
  192.8070  176.1110  148.1710 O   0  0  0  0  0  1  0  0  0  0  0  0
  189.1000  178.2630  146.4040 O   0  0  0  0  0  0  0  0  0  0  0  0
  189.0850  178.5180  147.7770 C   0  0  0  0  0  2  0  0  0  0  0  0
  188.1940  177.5080  148.4680 C   0  0  0  0  0  1  0  0  0  0  0  0
  3  2  1  6  0  0  0
  3  6  1  0  0  0  0
  3  9  1  0  0  0  0
  4 14  2  0  0  0  0
  6 18  1  0  0  0  0
  8 19  1  6  0  0  0
  9  7  1  6  0  0  0
  9 15  1  0  0  0  0
 10 13  1  0  0  0  0
 11  8  1  0  0  0  0
 11  7  1  1  0  0  0
 12 14  1  0  0  0  0
 13  8  1  0  0  0  0
 14 10  1  0  0  0  0
 15  5  1  1  0  0  0
 16 12  1  0  0  0  0
 16  1  1  0  0  0  0
 17  1  1  6  0  0  0
 17  3  1  0  0  0  0
 17 11  1  0  0  0  0
 18 15  1  0  0  0  0
 19 21  1  6  0  0  0
 19 22  1  0  0  0  0
 20 21  1  0  0  0  0
 22 26  1  0  0  0  0
 22 23  1  6  0  0  0
 23 24  2  0  0  0  0
 24 25  1  0  0  0  0
 26 27  1  0  0  0  0
 27 28  1  0  0  0  0
M  END
>  <MODEL>
6

>  <REMARK>
 VINA RESULT:      -5.4      3.039      6.551
  Name = 
  6 active torsions:
  status: ('A' for Active; 'I' for Inactive)
    1  A    between atoms: C_9  and  O_12
    2  A    between atoms: C_9  and  C_13
    3  A    between atoms: C_9  and  C_14
    4  A    between atoms: C_10  and  C_13
    5  A    between atoms: O_12  and  C_15
    6  A    between atoms: C_13  and  O_24
                            x       y       z     vdW  Elec       q    Type
                         _______ _______ _______ _____ _____    ______ ____

>  <TORSDO>
F 6

$$$$
=
 OpenBabel11052413373D

 28 30  0  0  1  0  0  0  0  0999 V2000
  185.7070  179.2690  140.1900 N   0  0  0  0  0  2  0  0  0  0  0  0
  186.3590  178.9650  137.5310 C   0  0  0  0  0  1  0  0  0  0  0  0
  187.0860  178.0340  138.4950 C   0  0  1  0  0  0  0  0  0  0  0  0
  184.7940  179.7160  143.5970 C   0  0  0  0  0  2  0  0  0  0  0  0
  190.3980  176.8850  137.3270 C   0  0  0  0  0  1  0  0  0  0  0  0
  186.8010  176.5880  138.1220 C   0  0  0  0  0  2  0  0  0  0  0  0
  189.0550  178.9210  139.6320 C   0  0  0  0  0  2  0  0  0  0  0  0
  188.4630  177.5670  141.6770 C   0  0  2  0  0  3  0  0  0  0  0  0
  188.5840  178.2380  138.3630 C   0  0  1  0  0  3  0  0  0  0  0  0
  186.7890  178.3150  143.4780 C   0  0  0  0  0  2  0  0  0  0  0  0
  188.0050  178.6650  140.7050 C   0  0  2  0  0  3  0  0  0  0  0  0
  184.6730  177.8760  141.9840 C   0  0  0  0  0  2  0  0  0  0  0  0
  187.3900  177.1430  142.6980 C   0  0  0  0  0  2  0  0  0  0  0  0
  185.4090  178.6910  143.0120 C   0  0  0  0  0  0  0  0  0  0  0  0
  189.1940  176.8560  138.2480 C   0  0  1  0  0  3  0  0  0  0  0  0
  184.4810  178.6260  140.6590 C   0  0  0  0  0  2  0  0  0  0  0  0
  186.7350  178.2530  139.9740 C   0  0  1  0  0  3  0  0  0  0  0  0
  188.1110  175.9850  137.6570 C   0  0  0  0  0  2  0  0  0  0  0  0
  189.8150  177.8940  142.3360 C   0  0  1  0  0  3  0  0  0  0  0  0
  190.5560  179.2900  143.8930 C   0  0  0  0  0  1  0  0  0  0  0  0
  189.6450  178.2530  143.6790 O   0  0  0  0  0  0  0  0  0  0  0  0
  190.7960  176.7240  142.2060 C   0  0  1  0  0  3  0  0  0  0  0  0
  191.4510  176.7560  140.8630 C   0  0  0  0  0  3  0  0  0  0  0  0
  192.5380  177.4850  140.6570 C   0  0  0  0  0  3  0  0  0  0  0  0
  193.1330  177.5030  139.4030 O   0  0  0  0  0  1  0  0  0  0  0  0
  191.7740  176.8020  143.2020 O   0  0  0  0  0  0  0  0  0  0  0  0
  191.6020  175.6480  143.9680 C   0  0  0  0  0  2  0  0  0  0  0  0
  191.6800  176.0020  145.4380 C   0  0  0  0  0  1  0  0  0  0  0  0
  1 16  1  0  0  0  0
  3  2  1  6  0  0  0
  3 17  1  0  0  0  0
  6  3  1  0  0  0  0
  8 19  1  1  0  0  0
  8 13  1  0  0  0  0
  9  3  1  0  0  0  0
  9  7  1  1  0  0  0
 11  7  1  6  0  0  0
 11  8  1  0  0  0  0
 12 14  1  0  0  0  0
 13 10  1  0  0  0  0
 14 10  1  0  0  0  0
 14  4  2  0  0  0  0
 15  5  1  6  0  0  0
 15  9  1  0  0  0  0
 16 12  1  0  0  0  0
 17  1  1  6  0  0  0
 17 11  1  0  0  0  0
 18  6  1  0  0  0  0
 18 15  1  0  0  0  0
 19 21  1  1  0  0  0
 21 20  1  0  0  0  0
 22 23  1  6  0  0  0
 22 19  1  0  0  0  0
 22 26  1  0  0  0  0
 24 23  2  0  0  0  0
 25 24  1  0  0  0  0
 26 27  1  0  0  0  0
 27 28  1  0  0  0  0
M  END
>  <MODEL>
7

>  <REMARK>
 VINA RESULT:      -5.4      2.261      5.288
  Name = 
  6 active torsions:
  status: ('A' for Active; 'I' for Inactive)
    1  A    between atoms: C_9  and  O_12
    2  A    between atoms: C_9  and  C_13
    3  A    between atoms: C_9  and  C_14
    4  A    between atoms: C_10  and  C_13
    5  A    between atoms: O_12  and  C_15
    6  A    between atoms: C_13  and  O_24
                            x       y       z     vdW  Elec       q    Type
                         _______ _______ _______ _____ _____    ______ ____

>  <TORSDO>
F 6

$$$$
=
 OpenBabel11052413373D

 28 30  0  0  1  0  0  0  0  0999 V2000
  186.0800  179.2780  140.3990 N   0  0  0  0  0  2  0  0  0  0  0  0
  187.2320  179.0030  137.9130 C   0  0  0  0  0  1  0  0  0  0  0  0
  187.7360  178.0380  138.9790 C   0  0  1  0  0  0  0  0  0  0  0  0
  184.5280  179.6890  143.5720 C   0  0  0  0  0  2  0  0  0  0  0  0
  191.1870  176.8260  138.4550 C   0  0  0  0  0  1  0  0  0  0  0  0
  187.4980  176.6070  138.5270 C   0  0  0  0  0  2  0  0  0  0  0  0
  189.4630  178.8550  140.4980 C   0  0  0  0  0  2  0  0  0  0  0  0
  188.4540  177.4820  142.3580 C   0  0  2  0  0  3  0  0  0  0  0  0
  189.2350  178.2070  139.1460 C   0  0  1  0  0  3  0  0  0  0  0  0
  186.4770  178.2410  143.8140 C   0  0  0  0  0  2  0  0  0  0  0  0
  188.2190  178.6080  141.3390 C   0  0  2  0  0  3  0  0  0  0  0  0
  184.6850  177.8810  141.9270 C   0  0  0  0  0  2  0  0  0  0  0  0
  187.1940  177.0680  143.1410 C   0  0  0  0  0  2  0  0  0  0  0  0
  185.2230  178.6600  143.0960 C   0  0  0  0  0  0  0  0  0  0  0  0
  189.8260  176.8120  139.1220 C   0  0  1  0  0  3  0  0  0  0  0  0
  184.7710  178.6580  140.6070 C   0  0  0  0  0  2  0  0  0  0  0  0
  187.1070  178.2410  140.3660 C   0  0  1  0  0  3  0  0  0  0  0  0
  188.8610  175.9780  138.3130 C   0  0  0  0  0  2  0  0  0  0  0  0
  189.6590  177.7630  143.2750 C   0  0  1  0  0  3  0  0  0  0  0  0
  191.2450  179.2770  143.6080 C   0  0  0  0  0  1  0  0  0  0  0  0
  189.8690  179.1410  143.4180 O   0  0  0  0  0  0  0  0  0  0  0  0
  189.4860  177.0940  144.6420 C   0  0  1  0  0  3  0  0  0  0  0  0
  190.6700  176.2310  144.9390 C   0  0  0  0  0  3  0  0  0  0  0  0
  191.3300  175.6280  143.9610 C   0  0  0  0  0  3  0  0  0  0  0  0
  192.4280  174.8300  144.2560 O   0  0  0  0  0  1  0  0  0  0  0  0
  189.3580  178.0650  145.6410 O   0  0  0  0  0  0  0  0  0  0  0  0
  189.1020  177.3480  146.8110 C   0  0  0  0  0  2  0  0  0  0  0  0
  187.7010  177.6570  147.2950 C   0  0  0  0  0  1  0  0  0  0  0  0
  1 16  1  0  0  0  0
  3  2  1  6  0  0  0
  3  9  1  0  0  0  0
  3 17  1  0  0  0  0
  6  3  1  0  0  0  0
  8 13  1  0  0  0  0
  8 19  1  1  0  0  0
  9  7  1  1  0  0  0
 11  7  1  6  0  0  0
 11  8  1  0  0  0  0
 12 14  1  0  0  0  0
 13 10  1  0  0  0  0
 14  4  2  0  0  0  0
 14 10  1  0  0  0  0
 15  5  1  6  0  0  0
 15  9  1  0  0  0  0
 16 12  1  0  0  0  0
 17  1  1  6  0  0  0
 17 11  1  0  0  0  0
 18  6  1  0  0  0  0
 18 15  1  0  0  0  0
 19 21  1  1  0  0  0
 19 22  1  0  0  0  0
 21 20  1  0  0  0  0
 22 23  1  1  0  0  0
 22 26  1  0  0  0  0
 24 25  1  0  0  0  0
 24 23  2  0  0  0  0
 26 27  1  0  0  0  0
 27 28  1  0  0  0  0
M  END
>  <MODEL>
8

>  <REMARK>
 VINA RESULT:      -5.2      2.450      5.524
  Name = 
  6 active torsions:
  status: ('A' for Active; 'I' for Inactive)
    1  A    between atoms: C_9  and  O_12
    2  A    between atoms: C_9  and  C_13
    3  A    between atoms: C_9  and  C_14
    4  A    between atoms: C_10  and  C_13
    5  A    between atoms: O_12  and  C_15
    6  A    between atoms: C_13  and  O_24
                            x       y       z     vdW  Elec       q    Type
                         _______ _______ _______ _____ _____    ______ ____

>  <TORSDO>
F 6

$$$$
=
 OpenBabel11052413373D

 28 30  0  0  1  0  0  0  0  0999 V2000
  184.6900  178.1370  143.9040 N   0  0  0  0  0  2  0  0  0  0  0  0
  184.5450  177.8780  146.6420 C   0  0  0  0  0  1  0  0  0  0  0  0
  185.9250  178.2120  146.0880 C   0  0  1  0  0  0  0  0  0  0  0  0
  184.7850  178.4720  140.3650 C   0  0  0  0  0  2  0  0  0  0  0  0
  188.7470  177.0630  148.1790 C   0  0  0  0  0  1  0  0  0  0  0  0
  186.4160  179.5170  146.6920 C   0  0  0  0  0  2  0  0  0  0  0  0
  187.2700  176.3560  145.2490 C   0  0  0  0  0  2  0  0  0  0  0  0
  188.2170  177.8700  143.4670 C   0  0  2  0  0  3  0  0  0  0  0  0
  186.9100  177.1340  146.5000 C   0  0  1  0  0  3  0  0  0  0  0  0
  187.0680  178.3650  141.2230 C   0  0  0  0  0  2  0  0  0  0  0  0
  186.9440  177.2390  144.0530 C   0  0  2  0  0  3  0  0  0  0  0  0
  185.2460  179.9410  142.2710 C   0  0  0  0  0  2  0  0  0  0  0  0
  187.9540  178.8990  142.3510 C   0  0  0  0  0  2  0  0  0  0  0  0
  185.6580  178.8870  141.2790 C   0  0  0  0  0  0  0  0  0  0  0  0
  188.1270  177.8550  147.0440 C   0  0  1  0  0  3  0  0  0  0  0  0
  184.2660  179.4120  143.3260 C   0  0  0  0  0  2  0  0  0  0  0  0
  185.9860  178.3100  144.5570 C   0  0  1  0  0  3  0  0  0  0  0  0
  187.6160  179.1800  147.5550 C   0  0  0  0  0  2  0  0  0  0  0  0
  189.2650  176.8140  143.0690 C   0  0  1  0  0  3  0  0  0  0  0  0
  190.8420  176.7060  141.5130 C   0  0  0  0  0  1  0  0  0  0  0  0
  189.4590  176.8000  141.6820 O   0  0  0  0  0  0  0  0  0  0  0  0
  190.5910  177.0410  143.8010 C   0  0  1  0  0  3  0  0  0  0  0  0
  190.5870  178.3860  144.4540 C   0  0  0  0  0  3  0  0  0  0  0  0
  191.3220  179.3760  143.9680 C   0  0  0  0  0  3  0  0  0  0  0  0
  191.3050  180.6190  144.5870 O   0  0  0  0  0  1  0  0  0  0  0  0
  190.7790  176.0540  144.7740 O   0  0  0  0  0  0  0  0  0  0  0  0
  191.5210  176.6760  145.7800 C   0  0  0  0  0  2  0  0  0  0  0  0
  192.0560  175.6280  146.7330 C   0  0  0  0  0  1  0  0  0  0  0  0
  3  9  1  0  0  0  0
  3  2  1  1  0  0  0
  3  6  1  0  0  0  0
  4 14  2  0  0  0  0
  6 18  1  0  0  0  0
  8 19  1  6  0  0  0
  8 11  1  0  0  0  0
  9  7  1  6  0  0  0
  9 15  1  0  0  0  0
 10 14  1  0  0  0  0
 10 13  1  0  0  0  0
 11 17  1  0  0  0  0
 11  7  1  1  0  0  0
 12 16  1  0  0  0  0
 13  8  1  0  0  0  0
 14 12  1  0  0  0  0
 15 18  1  0  0  0  0
 15  5  1  1  0  0  0
 16  1  1  0  0  0  0
 17  1  1  6  0  0  0
 17  3  1  0  0  0  0
 19 21  1  6  0  0  0
 19 22  1  0  0  0  0
 20 21  1  0  0  0  0
 22 23  1  1  0  0  0
 22 26  1  0  0  0  0
 24 23  2  0  0  0  0
 24 25  1  0  0  0  0
 26 27  1  0  0  0  0
 27 28  1  0  0  0  0
M  END
>  <MODEL>
9

>  <REMARK>
 VINA RESULT:      -5.2      2.400      5.046
  Name = 
  6 active torsions:
  status: ('A' for Active; 'I' for Inactive)
    1  A    between atoms: C_9  and  O_12
    2  A    between atoms: C_9  and  C_13
    3  A    between atoms: C_9  and  C_14
    4  A    between atoms: C_10  and  C_13
    5  A    between atoms: O_12  and  C_15
    6  A    between atoms: C_13  and  O_24
                            x       y       z     vdW  Elec       q    Type
                         _______ _______ _______ _____ _____    ______ ____

>  <TORSDO>
F 6

$$$$
