=
 OpenBabel11052413293D

 28 32  0  0  0  0  0  0  0  0999 V2000
  187.6290  178.2470  140.7920 N   0  0  0  0  0  0  0  0  0  0  0  0
  190.5030  176.9160  144.7360 C   0  0  0  0  0  3  0  0  0  0  0  0
  184.5230  178.6340  144.6850 C   0  0  0  0  0  1  0  0  0  0  0  0
  189.0090  177.0950  146.6460 C   0  0  0  0  0  0  0  0  0  0  0  0
  188.1830  177.6250  144.4260 C   0  0  0  0  0  0  0  0  0  0  0  0
  191.3040  176.3900  146.9620 C   0  0  0  0  0  0  0  0  0  0  0  0
  189.2360  177.2130  145.2560 C   0  0  0  0  0  0  0  0  0  0  0  0
  186.7510  177.7780  146.3760 C   0  0  0  0  0  3  0  0  0  0  0  0
  190.0440  176.6840  147.4900 C   0  0  0  0  0  3  0  0  0  0  0  0
  186.0830  178.4350  142.7260 C   0  0  0  0  0  0  0  0  0  0  0  0
  188.3780  177.7560  143.0060 N   0  0  0  0  0  0  0  0  0  0  0  0
  187.7840  177.3780  147.1630 N   0  0  0  0  0  0  0  0  0  0  0  0
  185.3780  178.8990  140.4840 C   0  0  0  0  0  3  0  0  0  0  0  0
  185.8400  178.3290  144.1370 N   0  0  0  0  0  0  0  0  0  0  0  0
  185.1440  178.7940  141.8990 N   0  0  0  0  0  0  0  0  0  0  0  0
  192.4030  175.9540  147.8620 C   0  0  0  0  0  1  0  0  0  0  0  0
  191.5330  176.5050  145.5870 C   0  0  0  0  0  3  0  0  0  0  0  0
  186.9230  177.9110  144.9910 C   0  0  0  0  0  0  0  0  0  0  0  0
  186.5490  178.6360  139.9770 N   0  0  0  0  0  0  0  0  0  0  0  0
  187.4220  178.1270  142.2050 C   0  0  0  0  0  0  0  0  0  0  0  0
  188.9060  177.9120  140.1770 C   0  0  0  0  0  2  0  0  0  0  0  0
  188.7420  177.7530  138.7030 C   0  0  0  0  0  0  0  0  0  0  0  0
  188.4860  177.4410  135.9350 C   0  0  0  0  0  0  0  0  0  0  0  0
  188.3000  176.5360  138.1740 C   0  0  0  0  0  3  0  0  0  0  0  0
  189.0640  178.8120  137.8460 C   0  0  0  0  0  3  0  0  0  0  0  0
  188.9350  178.6550  136.4630 C   0  0  0  0  0  3  0  0  0  0  0  0
  188.3610  177.2900  134.5950 F   0  0  0  0  0  0  0  0  0  0  0  0
  188.1700  176.3810  136.7900 C   0  0  0  0  0  3  0  0  0  0  0  0
  1 20  1  0  0  0  0
  2  7  2  0  0  0  0
  2 17  1  0  0  0  0
  4 12  1  0  0  0  0
  4  9  2  0  0  0  0
  5 18  2  0  0  0  0
  5  7  1  0  0  0  0
  6  9  1  0  0  0  0
  6 16  1  0  0  0  0
  7  4  1  0  0  0  0
  8 12  2  0  0  0  0
 10 14  1  0  0  0  0
 11  5  1  0  0  0  0
 13 15  1  0  0  0  0
 14  3  1  0  0  0  0
 14 18  1  0  0  0  0
 15 10  2  0  0  0  0
 17  6  2  0  0  0  0
 18  8  1  0  0  0  0
 19 13  2  0  0  0  0
 19  1  1  0  0  0  0
 20 10  1  0  0  0  0
 20 11  2  0  0  0  0
 21  1  1  0  0  0  0
 22 21  1  0  0  0  0
 23 26  2  0  0  0  0
 23 28  1  0  0  0  0
 24 22  1  0  0  0  0
 25 22  2  0  0  0  0
 26 25  1  0  0  0  0
 27 23  1  0  0  0  0
 28 24  2  0  0  0  0
M  END
>  <MODEL>
1

>  <REMARK>
 VINA RESULT:     -10.4      0.000      0.000
  Name = 
  2 active torsions:
  status: ('A' for Active; 'I' for Inactive)
    1  A    between atoms: N_1  and  C_2
    2  A    between atoms: C_2  and  C_3
                            x       y       z     vdW  Elec       q    Type
                         _______ _______ _______ _____ _____    ______ ____

>  <TORSDO>
F 2

$$$$
=
 OpenBabel11052413293D

 28 32  0  0  0  0  0  0  0  0999 V2000
  189.7470  176.8900  142.5160 N   0  0  0  0  0  0  0  0  0  0  0  0
  184.8970  178.3030  142.7740 C   0  0  0  0  0  3  0  0  0  0  0  0
  188.9660  177.4970  147.4130 C   0  0  0  0  0  1  0  0  0  0  0  0
  184.4930  178.6070  145.1530 C   0  0  0  0  0  0  0  0  0  0  0  0
  186.6900  177.9090  144.3910 C   0  0  0  0  0  0  0  0  0  0  0  0
  182.7130  179.0000  143.5600 C   0  0  0  0  0  0  0  0  0  0  0  0
  185.3670  178.2700  144.0950 C   0  0  0  0  0  0  0  0  0  0  0  0
  186.2150  178.2350  146.7450 C   0  0  0  0  0  3  0  0  0  0  0  0
  183.1730  178.9700  144.8790 C   0  0  0  0  0  3  0  0  0  0  0  0
  189.3610  177.1960  144.9500 C   0  0  0  0  0  0  0  0  0  0  0  0
  187.6070  177.5600  143.3380 N   0  0  0  0  0  0  0  0  0  0  0  0
  184.9370  178.5800  146.4380 N   0  0  0  0  0  0  0  0  0  0  0  0
  191.4920  176.5430  144.0720 C   0  0  0  0  0  3  0  0  0  0  0  0
  188.4820  177.5270  146.0360 N   0  0  0  0  0  0  0  0  0  0  0  0
  190.6040  176.8710  145.1550 N   0  0  0  0  0  0  0  0  0  0  0  0
  181.3070  179.3870  143.2720 C   0  0  0  0  0  1  0  0  0  0  0  0
  183.5740  178.6680  142.5090 C   0  0  0  0  0  3  0  0  0  0  0  0
  187.1220  177.8910  145.7330 C   0  0  0  0  0  0  0  0  0  0  0  0
  191.0770  176.5590  142.8370 N   0  0  0  0  0  0  0  0  0  0  0  0
  188.8420  177.2290  143.5750 C   0  0  0  0  0  0  0  0  0  0  0  0
  189.3400  176.9460  141.1180 C   0  0  0  0  0  2  0  0  0  0  0  0
  190.5330  176.8320  140.2300 C   0  0  0  0  0  0  0  0  0  0  0  0
  192.7510  176.6600  138.5350 C   0  0  0  0  0  0  0  0  0  0  0  0
  191.7300  177.4680  140.5770 C   0  0  0  0  0  3  0  0  0  0  0  0
  190.4440  176.1170  139.0300 C   0  0  0  0  0  3  0  0  0  0  0  0
  191.5530  176.0300  138.1840 C   0  0  0  0  0  3  0  0  0  0  0  0
  193.8260  176.5750  137.7150 F   0  0  0  0  0  0  0  0  0  0  0  0
  192.8390  177.3800  139.7300 C   0  0  0  0  0  3  0  0  0  0  0  0
  1 19  1  0  0  0  0
  1 20  1  0  0  0  0
  2  7  1  0  0  0  0
  4 12  1  0  0  0  0
  5 18  2  0  0  0  0
  6  9  2  0  0  0  0
  7  5  1  0  0  0  0
  7  4  2  0  0  0  0
  9  4  1  0  0  0  0
 10 15  2  0  0  0  0
 10 14  1  0  0  0  0
 11 20  2  0  0  0  0
 11  5  1  0  0  0  0
 12  8  2  0  0  0  0
 13 15  1  0  0  0  0
 14  3  1  0  0  0  0
 16  6  1  0  0  0  0
 17  2  2  0  0  0  0
 17  6  1  0  0  0  0
 18 14  1  0  0  0  0
 18  8  1  0  0  0  0
 19 13  2  0  0  0  0
 20 10  1  0  0  0  0
 21  1  1  0  0  0  0
 22 24  1  0  0  0  0
 22 21  1  0  0  0  0
 23 28  1  0  0  0  0
 25 22  2  0  0  0  0
 26 23  2  0  0  0  0
 26 25  1  0  0  0  0
 27 23  1  0  0  0  0
 28 24  2  0  0  0  0
M  END
>  <MODEL>
2

>  <REMARK>
 VINA RESULT:      -9.7      2.562      5.457
  Name = 
  2 active torsions:
  status: ('A' for Active; 'I' for Inactive)
    1  A    between atoms: N_1  and  C_2
    2  A    between atoms: C_2  and  C_3
                            x       y       z     vdW  Elec       q    Type
                         _______ _______ _______ _____ _____    ______ ____

>  <TORSDO>
F 2

$$$$
=
 OpenBabel11052413293D

 28 32  0  0  0  0  0  0  0  0999 V2000
  186.4790  178.4860  140.0990 N   0  0  0  0  0  0  0  0  0  0  0  0
  187.6950  178.0530  144.9900 C   0  0  0  0  0  3  0  0  0  0  0  0
  182.1260  179.1750  142.4500 C   0  0  0  0  0  1  0  0  0  0  0  0
  185.5870  178.3840  146.1560 C   0  0  0  0  0  0  0  0  0  0  0  0
  185.6420  178.4860  143.7320 C   0  0  0  0  0  0  0  0  0  0  0  0
  187.6140  177.9550  147.4100 C   0  0  0  0  0  0  0  0  0  0  0  0
  186.3170  178.3070  144.9480 C   0  0  0  0  0  0  0  0  0  0  0  0
  183.5780  178.8020  144.9620 C   0  0  0  0  0  3  0  0  0  0  0  0
  186.2400  178.2080  147.3790 C   0  0  0  0  0  3  0  0  0  0  0  0
  184.3140  178.8240  141.2660 C   0  0  0  0  0  0  0  0  0  0  0  0
  186.3540  178.4140  142.4830 N   0  0  0  0  0  0  0  0  0  0  0  0
  184.2500  178.6280  146.1300 N   0  0  0  0  0  0  0  0  0  0  0  0
  184.4920  178.8680  138.8780 C   0  0  0  0  0  3  0  0  0  0  0  0
  183.5610  178.9140  142.4860 N   0  0  0  0  0  0  0  0  0  0  0  0
  183.7450  178.9620  140.1040 N   0  0  0  0  0  0  0  0  0  0  0  0
  188.3060  177.7680  148.7120 C   0  0  0  0  0  1  0  0  0  0  0  0
  188.3400  177.8780  146.2170 C   0  0  0  0  0  3  0  0  0  0  0  0
  184.2540  178.7360  143.7360 C   0  0  0  0  0  0  0  0  0  0  0  0
  185.7750  178.6410  138.8900 N   0  0  0  0  0  0  0  0  0  0  0  0
  185.7590  178.5660  141.3360 C   0  0  0  0  0  0  0  0  0  0  0  0
  187.9030  178.1810  140.0630 C   0  0  0  0  0  2  0  0  0  0  0  0
  188.3240  177.8470  138.6720 C   0  0  0  0  0  0  0  0  0  0  0  0
  189.1620  177.2050  136.0820 C   0  0  0  0  0  0  0  0  0  0  0  0
  188.0620  176.5770  138.1460 C   0  0  0  0  0  3  0  0  0  0  0  0
  189.0130  178.7930  137.9040 C   0  0  0  0  0  3  0  0  0  0  0  0
  189.4310  178.4720  136.6100 C   0  0  0  0  0  3  0  0  0  0  0  0
  189.5670  176.8950  134.8270 F   0  0  0  0  0  0  0  0  0  0  0  0
  188.4800  176.2570  136.8500 C   0  0  0  0  0  3  0  0  0  0  0  0
  1 20  1  0  0  0  0
  2 17  1  0  0  0  0
  3 14  1  0  0  0  0
  4  9  2  0  0  0  0
  5 18  2  0  0  0  0
  5  7  1  0  0  0  0
  6 16  1  0  0  0  0
  7  2  2  0  0  0  0
  7  4  1  0  0  0  0
  8 12  2  0  0  0  0
  9  6  1  0  0  0  0
 10 20  1  0  0  0  0
 10 14  1  0  0  0  0
 11  5  1  0  0  0  0
 12  4  1  0  0  0  0
 13 19  2  0  0  0  0
 13 15  1  0  0  0  0
 14 18  1  0  0  0  0
 15 10  2  0  0  0  0
 17  6  2  0  0  0  0
 18  8  1  0  0  0  0
 19  1  1  0  0  0  0
 20 11  2  0  0  0  0
 21  1  1  0  0  0  0
 22 21  1  0  0  0  0
 23 26  2  0  0  0  0
 23 28  1  0  0  0  0
 24 22  1  0  0  0  0
 25 22  2  0  0  0  0
 26 25  1  0  0  0  0
 27 23  1  0  0  0  0
 28 24  2  0  0  0  0
M  END
>  <MODEL>
3

>  <REMARK>
 VINA RESULT:      -9.6      1.909      2.630
  Name = 
  2 active torsions:
  status: ('A' for Active; 'I' for Inactive)
    1  A    between atoms: N_1  and  C_2
    2  A    between atoms: C_2  and  C_3
                            x       y       z     vdW  Elec       q    Type
                         _______ _______ _______ _____ _____    ______ ____

>  <TORSDO>
F 2

$$$$
=
 OpenBabel11052413293D

 28 32  0  0  0  0  0  0  0  0999 V2000
  189.6490  177.8850  139.3170 N   0  0  0  0  0  0  0  0  0  0  0  0
  189.0550  177.4080  144.3170 C   0  0  0  0  0  3  0  0  0  0  0  0
  184.8320  178.9970  140.0330 C   0  0  0  0  0  1  0  0  0  0  0  0
  186.7130  177.9440  144.6900 C   0  0  0  0  0  0  0  0  0  0  0  0
  187.6120  178.0090  142.4360 C   0  0  0  0  0  0  0  0  0  0  0  0
  188.1350  177.3500  146.5580 C   0  0  0  0  0  0  0  0  0  0  0  0
  187.8050  177.7860  143.8070 C   0  0  0  0  0  0  0  0  0  0  0  0
  185.2860  178.5280  142.8840 C   0  0  0  0  0  3  0  0  0  0  0  0
  186.8840  177.7250  146.0590 C   0  0  0  0  0  3  0  0  0  0  0  0
  187.2540  178.4340  139.6710 C   0  0  0  0  0  0  0  0  0  0  0  0
  188.7020  177.8570  141.5090 N   0  0  0  0  0  0  0  0  0  0  0  0
  185.4950  178.3080  144.2090 N   0  0  0  0  0  0  0  0  0  0  0  0
  188.2490  178.4300  137.4920 C   0  0  0  0  0  3  0  0  0  0  0  0
  186.1370  178.6080  140.5570 N   0  0  0  0  0  0  0  0  0  0  0  0
  187.1360  178.6070  138.3870 N   0  0  0  0  0  0  0  0  0  0  0  0
  188.3130  177.1180  148.0150 C   0  0  0  0  0  1  0  0  0  0  0  0
  189.2180  177.1910  145.6890 C   0  0  0  0  0  3  0  0  0  0  0  0
  186.3360  178.3850  141.9660 C   0  0  0  0  0  0  0  0  0  0  0  0
  189.4230  178.0880  137.9430 N   0  0  0  0  0  0  0  0  0  0  0  0
  188.5570  178.0470  140.2300 C   0  0  0  0  0  0  0  0  0  0  0  0
  190.9640  177.4520  139.7700 C   0  0  0  0  0  2  0  0  0  0  0  0
  191.5710  176.5210  138.7760 C   0  0  0  0  0  0  0  0  0  0  0  0
  192.7310  174.7460  136.9520 C   0  0  0  0  0  0  0  0  0  0  0  0
  190.8550  175.4010  138.3360 C   0  0  0  0  0  3  0  0  0  0  0  0
  192.8700  176.7470  138.3080 C   0  0  0  0  0  3  0  0  0  0  0  0
  193.4490  175.8600  137.3960 C   0  0  0  0  0  3  0  0  0  0  0  0
  193.2930  173.8870  136.0670 F   0  0  0  0  0  0  0  0  0  0  0  0
  191.4350  174.5150  137.4230 C   0  0  0  0  0  3  0  0  0  0  0  0
  1 21  1  0  0  0  0
  1 20  1  0  0  0  0
  2 17  1  0  0  0  0
  3 14  1  0  0  0  0
  4  9  2  0  0  0  0
  5  7  1  0  0  0  0
  6 16  1  0  0  0  0
  7  2  2  0  0  0  0
  7  4  1  0  0  0  0
  8 12  2  0  0  0  0
  9  6  1  0  0  0  0
 10 20  1  0  0  0  0
 10 14  1  0  0  0  0
 11  5  1  0  0  0  0
 12  4  1  0  0  0  0
 13 19  2  0  0  0  0
 13 15  1  0  0  0  0
 14 18  1  0  0  0  0
 15 10  2  0  0  0  0
 17  6  2  0  0  0  0
 18  5  2  0  0  0  0
 18  8  1  0  0  0  0
 19  1  1  0  0  0  0
 20 11  2  0  0  0  0
 22 21  1  0  0  0  0
 23 26  2  0  0  0  0
 23 28  1  0  0  0  0
 24 22  1  0  0  0  0
 25 22  2  0  0  0  0
 26 25  1  0  0  0  0
 27 23  1  0  0  0  0
 28 24  2  0  0  0  0
M  END
>  <MODEL>
4

>  <REMARK>
 VINA RESULT:      -9.6      2.522      3.604
  Name = 
  2 active torsions:
  status: ('A' for Active; 'I' for Inactive)
    1  A    between atoms: N_1  and  C_2
    2  A    between atoms: C_2  and  C_3
                            x       y       z     vdW  Elec       q    Type
                         _______ _______ _______ _____ _____    ______ ____

>  <TORSDO>
F 2

$$$$
=
 OpenBabel11052413293D

 28 32  0  0  0  0  0  0  0  0999 V2000
  186.2110  178.6090  140.2060 N   0  0  0  0  0  0  0  0  0  0  0  0
  187.0990  178.0900  145.1590 C   0  0  0  0  0  3  0  0  0  0  0  0
  190.8760  176.8280  140.3770 C   0  0  0  0  0  1  0  0  0  0  0  0
  189.3690  177.2250  145.2670 C   0  0  0  0  0  0  0  0  0  0  0  0
  188.3620  177.6790  143.1050 C   0  0  0  0  0  0  0  0  0  0  0  0
  188.1250  177.6300  147.3050 C   0  0  0  0  0  0  0  0  0  0  0  0
  188.2650  177.6690  144.5040 C   0  0  0  0  0  0  0  0  0  0  0  0
  190.6210  176.8190  143.2910 C   0  0  0  0  0  3  0  0  0  0  0  0
  189.2920  177.2080  146.6620 C   0  0  0  0  0  3  0  0  0  0  0  0
  188.5310  177.7280  140.2900 C   0  0  0  0  0  0  0  0  0  0  0  0
  187.2580  178.1250  142.2970 N   0  0  0  0  0  0  0  0  0  0  0  0
  190.5060  176.8150  144.6450 N   0  0  0  0  0  0  0  0  0  0  0  0
  187.4420  178.2470  138.2210 C   0  0  0  0  0  3  0  0  0  0  0  0
  189.6570  177.2660  141.0510 N   0  0  0  0  0  0  0  0  0  0  0  0
  188.5640  177.7800  138.9900 N   0  0  0  0  0  0  0  0  0  0  0  0
  188.0470  177.6110  148.7890 C   0  0  0  0  0  1  0  0  0  0  0  0
  187.0310  178.0710  146.5550 C   0  0  0  0  0  3  0  0  0  0  0  0
  189.5560  177.2490  142.4880 C   0  0  0  0  0  0  0  0  0  0  0  0
  186.3440  178.6360  138.8050 N   0  0  0  0  0  0  0  0  0  0  0  0
  187.3160  178.1560  140.9980 C   0  0  0  0  0  0  0  0  0  0  0  0
  184.9850  179.1030  140.8190 C   0  0  0  0  0  2  0  0  0  0  0  0
  183.8010  178.6770  140.0180 C   0  0  0  0  0  0  0  0  0  0  0  0
  181.5490  177.8930  138.5570 C   0  0  0  0  0  0  0  0  0  0  0  0
  183.2020  179.5700  139.1220 C   0  0  0  0  0  3  0  0  0  0  0  0
  183.2680  177.3940  140.1880 C   0  0  0  0  0  3  0  0  0  0  0  0
  182.1430  177.0030  139.4570 C   0  0  0  0  0  3  0  0  0  0  0  0
  180.4590  177.5130  137.8480 F   0  0  0  0  0  0  0  0  0  0  0  0
  182.0770  179.1770  138.3910 C   0  0  0  0  0  3  0  0  0  0  0  0
  1 21  1  0  0  0  0
  1 20  1  0  0  0  0
  2 17  1  0  0  0  0
  3 14  1  0  0  0  0
  4  9  2  0  0  0  0
  5  7  1  0  0  0  0
  6 16  1  0  0  0  0
  7  2  2  0  0  0  0
  7  4  1  0  0  0  0
  8 12  2  0  0  0  0
  9  6  1  0  0  0  0
 10 20  1  0  0  0  0
 10 14  1  0  0  0  0
 11  5  1  0  0  0  0
 12  4  1  0  0  0  0
 13 19  2  0  0  0  0
 13 15  1  0  0  0  0
 14 18  1  0  0  0  0
 15 10  2  0  0  0  0
 17  6  2  0  0  0  0
 18  5  2  0  0  0  0
 18  8  1  0  0  0  0
 19  1  1  0  0  0  0
 20 11  2  0  0  0  0
 22 25  1  0  0  0  0
 22 21  1  0  0  0  0
 23 26  1  0  0  0  0
 24 22  2  0  0  0  0
 26 25  2  0  0  0  0
 27 23  1  0  0  0  0
 28 23  2  0  0  0  0
 28 24  1  0  0  0  0
M  END
>  <MODEL>
5

>  <REMARK>
 VINA RESULT:      -9.6      2.583      4.722
  Name = 
  2 active torsions:
  status: ('A' for Active; 'I' for Inactive)
    1  A    between atoms: N_1  and  C_2
    2  A    between atoms: C_2  and  C_3
                            x       y       z     vdW  Elec       q    Type
                         _______ _______ _______ _____ _____    ______ ____

>  <TORSDO>
F 2

$$$$
=
 OpenBabel11052413293D

 28 32  0  0  0  0  0  0  0  0999 V2000
  185.5760  179.0150  141.7650 N   0  0  0  0  0  0  0  0  0  0  0  0
  188.9560  177.5700  145.2400 C   0  0  0  0  0  3  0  0  0  0  0  0
  189.4880  177.5260  139.0400 C   0  0  0  0  0  1  0  0  0  0  0  0
  190.8740  176.8420  143.9340 C   0  0  0  0  0  0  0  0  0  0  0  0
  188.8910  177.6570  142.7960 C   0  0  0  0  0  0  0  0  0  0  0  0
  190.9470  176.7530  146.3530 C   0  0  0  0  0  0  0  0  0  0  0  0
  189.5610  177.3610  143.9920 C   0  0  0  0  0  0  0  0  0  0  0  0
  190.8410  176.9170  141.5610 C   0  0  0  0  0  3  0  0  0  0  0  0
  191.5590  176.5410  145.1140 C   0  0  0  0  0  3  0  0  0  0  0  0
  187.5210  178.2800  140.4100 C   0  0  0  0  0  0  0  0  0  0  0  0
  187.5530  178.1870  142.8180 N   0  0  0  0  0  0  0  0  0  0  0  0
  191.4720  176.6350  142.7310 N   0  0  0  0  0  0  0  0  0  0  0  0
  185.5210  179.1350  139.4060 C   0  0  0  0  0  3  0  0  0  0  0  0
  188.8520  177.7440  140.3350 N   0  0  0  0  0  0  0  0  0  0  0  0
  186.8520  178.5930  139.3390 N   0  0  0  0  0  0  0  0  0  0  0  0
  191.6790  176.4320  147.6060 C   0  0  0  0  0  1  0  0  0  0  0  0
  189.6490  177.2670  146.4160 C   0  0  0  0  0  3  0  0  0  0  0  0
  189.5380  177.4340  141.5630 C   0  0  0  0  0  0  0  0  0  0  0  0
  184.9350  179.3300  140.5530 N   0  0  0  0  0  0  0  0  0  0  0  0
  186.9050  178.4820  141.7290 C   0  0  0  0  0  0  0  0  0  0  0  0
  184.9020  179.3000  143.0260 C   0  0  0  0  0  2  0  0  0  0  0  0
  183.4540  178.9590  142.9250 C   0  0  0  0  0  0  0  0  0  0  0  0
  180.7260  178.3720  142.7300 C   0  0  0  0  0  0  0  0  0  0  0  0
  182.8950  178.6280  141.6850 C   0  0  0  0  0  3  0  0  0  0  0  0
  182.6440  179.0030  144.0660 C   0  0  0  0  0  3  0  0  0  0  0  0
  181.2810  178.7090  143.9680 C   0  0  0  0  0  3  0  0  0  0  0  0
  179.4050  178.0860  142.6350 F   0  0  0  0  0  0  0  0  0  0  0  0
  181.5320  178.3330  141.5880 C   0  0  0  0  0  3  0  0  0  0  0  0
  1 21  1  0  0  0  0
  2 17  1  0  0  0  0
  3 14  1  0  0  0  0
  4  7  1  0  0  0  0
  4  9  2  0  0  0  0
  5 11  1  0  0  0  0
  5  7  1  0  0  0  0
  6 17  2  0  0  0  0
  6 16  1  0  0  0  0
  7  2  2  0  0  0  0
  8 18  1  0  0  0  0
  8 12  2  0  0  0  0
  9  6  1  0  0  0  0
 10 20  1  0  0  0  0
 12  4  1  0  0  0  0
 13 19  2  0  0  0  0
 14 10  1  0  0  0  0
 14 18  1  0  0  0  0
 15 13  1  0  0  0  0
 15 10  2  0  0  0  0
 18  5  2  0  0  0  0
 19  1  1  0  0  0  0
 20  1  1  0  0  0  0
 20 11  2  0  0  0  0
 22 21  1  0  0  0  0
 22 25  1  0  0  0  0
 23 26  1  0  0  0  0
 24 22  2  0  0  0  0
 26 25  2  0  0  0  0
 27 23  1  0  0  0  0
 28 24  1  0  0  0  0
 28 23  2  0  0  0  0
M  END
>  <MODEL>
6

>  <REMARK>
 VINA RESULT:      -9.2      2.972      5.589
  Name = 
  2 active torsions:
  status: ('A' for Active; 'I' for Inactive)
    1  A    between atoms: N_1  and  C_2
    2  A    between atoms: C_2  and  C_3
                            x       y       z     vdW  Elec       q    Type
                         _______ _______ _______ _____ _____    ______ ____

>  <TORSDO>
F 2

$$$$
=
 OpenBabel11052413293D

 28 32  0  0  0  0  0  0  0  0999 V2000
  189.9110  177.8680  139.7730 N   0  0  0  0  0  0  0  0  0  0  0  0
  185.6770  178.5480  142.4550 C   0  0  0  0  0  3  0  0  0  0  0  0
  191.2880  176.7290  144.4380 C   0  0  0  0  0  1  0  0  0  0  0  0
  186.3250  178.0000  144.7350 C   0  0  0  0  0  0  0  0  0  0  0  0
  187.9680  177.8510  142.9540 C   0  0  0  0  0  0  0  0  0  0  0  0
  184.0550  178.6900  144.2500 C   0  0  0  0  0  0  0  0  0  0  0  0
  186.6580  178.1340  143.3680 C   0  0  0  0  0  0  0  0  0  0  0  0
  188.5410  177.3240  145.2500 C   0  0  0  0  0  3  0  0  0  0  0  0
  185.0260  178.2780  145.1670 C   0  0  0  0  0  3  0  0  0  0  0  0
  190.5980  177.3060  142.0920 C   0  0  0  0  0  0  0  0  0  0  0  0
  188.3430  177.9770  141.5710 N   0  0  0  0  0  0  0  0  0  0  0  0
  187.2670  177.6010  145.6300 N   0  0  0  0  0  0  0  0  0  0  0  0
  192.1350  177.2300  140.2560 C   0  0  0  0  0  3  0  0  0  0  0  0
  190.2710  177.1560  143.4820 N   0  0  0  0  0  0  0  0  0  0  0  0
  191.7990  177.0770  141.6470 N   0  0  0  0  0  0  0  0  0  0  0  0
  182.6740  178.9850  144.7130 C   0  0  0  0  0  1  0  0  0  0  0  0
  184.3800  178.8250  142.8970 C   0  0  0  0  0  3  0  0  0  0  0  0
  188.9240  177.4410  143.9070 C   0  0  0  0  0  0  0  0  0  0  0  0
  191.2390  177.6050  139.3880 N   0  0  0  0  0  0  0  0  0  0  0  0
  189.5500  177.7320  141.1530 C   0  0  0  0  0  0  0  0  0  0  0  0
  188.9560  178.3350  138.7770 C   0  0  0  0  0  2  0  0  0  0  0  0
  188.8420  177.3450  137.6680 C   0  0  0  0  0  0  0  0  0  0  0  0
  188.6750  175.4670  135.6020 C   0  0  0  0  0  0  0  0  0  0  0  0
  188.1770  176.1310  137.8770 C   0  0  0  0  0  3  0  0  0  0  0  0
  189.4300  177.6150  136.4270 C   0  0  0  0  0  3  0  0  0  0  0  0
  189.3450  176.6760  135.3950 C   0  0  0  0  0  3  0  0  0  0  0  0
  188.5930  174.5580  134.6000 F   0  0  0  0  0  0  0  0  0  0  0  0
  188.0930  175.1930  136.8430 C   0  0  0  0  0  3  0  0  0  0  0  0
  1 20  1  0  0  0  0
  2 17  2  0  0  0  0
  2  7  1  0  0  0  0
  4  9  1  0  0  0  0
  4 12  1  0  0  0  0
  5  7  1  0  0  0  0
  5 18  2  0  0  0  0
  6 16  1  0  0  0  0
  6  9  2  0  0  0  0
  7  4  2  0  0  0  0
  8 12  2  0  0  0  0
 10 14  1  0  0  0  0
 11  5  1  0  0  0  0
 13 15  1  0  0  0  0
 14 18  1  0  0  0  0
 14  3  1  0  0  0  0
 15 10  2  0  0  0  0
 17  6  1  0  0  0  0
 18  8  1  0  0  0  0
 19  1  1  0  0  0  0
 19 13  2  0  0  0  0
 20 11  2  0  0  0  0
 20 10  1  0  0  0  0
 21  1  1  0  0  0  0
 22 24  1  0  0  0  0
 22 21  1  0  0  0  0
 23 28  1  0  0  0  0
 25 22  2  0  0  0  0
 26 23  2  0  0  0  0
 26 25  1  0  0  0  0
 27 23  1  0  0  0  0
 28 24  2  0  0  0  0
M  END
>  <MODEL>
7

>  <REMARK>
 VINA RESULT:      -8.9      1.806      4.616
  Name = 
  2 active torsions:
  status: ('A' for Active; 'I' for Inactive)
    1  A    between atoms: N_1  and  C_2
    2  A    between atoms: C_2  and  C_3
                            x       y       z     vdW  Elec       q    Type
                         _______ _______ _______ _____ _____    ______ ____

>  <TORSDO>
F 2

$$$$
=
 OpenBabel11052413293D

 28 32  0  0  0  0  0  0  0  0999 V2000
  186.3130  178.5790  138.5690 N   0  0  0  0  0  0  0  0  0  0  0  0
  185.5680  178.4370  143.5700 C   0  0  0  0  0  3  0  0  0  0  0  0
  190.7420  177.1280  140.3690 C   0  0  0  0  0  1  0  0  0  0  0  0
  187.7160  177.7340  144.4700 C   0  0  0  0  0  0  0  0  0  0  0  0
  187.4460  177.9810  142.0700 C   0  0  0  0  0  0  0  0  0  0  0  0
  185.8630  178.1840  145.9620 C   0  0  0  0  0  0  0  0  0  0  0  0
  186.9010  178.0540  143.3600 C   0  0  0  0  0  0  0  0  0  0  0  0
  189.5570  177.2870  143.0390 C   0  0  0  0  0  3  0  0  0  0  0  0
  187.1920  177.8010  145.7630 C   0  0  0  0  0  3  0  0  0  0  0  0
  188.5160  177.8620  139.4630 C   0  0  0  0  0  0  0  0  0  0  0  0
  186.6450  178.3000  140.9170 N   0  0  0  0  0  0  0  0  0  0  0  0
  189.0090  177.3620  144.2800 N   0  0  0  0  0  0  0  0  0  0  0  0
  188.1350  178.1740  137.1180 C   0  0  0  0  0  3  0  0  0  0  0  0
  189.3530  177.5250  140.5800 N   0  0  0  0  0  0  0  0  0  0  0  0
  188.9660  177.8330  138.2420 N   0  0  0  0  0  0  0  0  0  0  0  0
  185.3090  178.2540  147.3400 C   0  0  0  0  0  1  0  0  0  0  0  0
  185.0530  178.5020  144.8680 C   0  0  0  0  0  3  0  0  0  0  0  0
  188.7920  177.5930  141.9050 C   0  0  0  0  0  0  0  0  0  0  0  0
  186.8910  178.5250  137.2870 N   0  0  0  0  0  0  0  0  0  0  0  0
  187.1200  178.2520  139.7070 C   0  0  0  0  0  0  0  0  0  0  0  0
  184.9350  179.0270  138.7140 C   0  0  0  0  0  2  0  0  0  0  0  0
  184.0090  177.8580  138.7080 C   0  0  0  0  0  0  0  0  0  0  0  0
  182.2310  175.6990  138.6840 C   0  0  0  0  0  0  0  0  0  0  0  0
  183.8500  177.0940  137.5470 C   0  0  0  0  0  3  0  0  0  0  0  0
  183.2710  177.5460  139.8560 C   0  0  0  0  0  3  0  0  0  0  0  0
  182.3830  176.4660  139.8440 C   0  0  0  0  0  3  0  0  0  0  0  0
  181.3710  174.6520  138.6740 F   0  0  0  0  0  0  0  0  0  0  0  0
  182.9630  176.0140  137.5360 C   0  0  0  0  0  3  0  0  0  0  0  0
  1 21  1  0  0  0  0
  1 20  1  0  0  0  0
  2 17  1  0  0  0  0
  3 14  1  0  0  0  0
  4  9  2  0  0  0  0
  5  7  1  0  0  0  0
  6 16  1  0  0  0  0
  7  2  2  0  0  0  0
  7  4  1  0  0  0  0
  8 12  2  0  0  0  0
  9  6  1  0  0  0  0
 10 20  1  0  0  0  0
 10 14  1  0  0  0  0
 11  5  1  0  0  0  0
 12  4  1  0  0  0  0
 13 19  2  0  0  0  0
 13 15  1  0  0  0  0
 14 18  1  0  0  0  0
 15 10  2  0  0  0  0
 17  6  2  0  0  0  0
 18  5  2  0  0  0  0
 18  8  1  0  0  0  0
 19  1  1  0  0  0  0
 20 11  2  0  0  0  0
 22 21  1  0  0  0  0
 22 25  1  0  0  0  0
 23 26  1  0  0  0  0
 24 22  2  0  0  0  0
 26 25  2  0  0  0  0
 27 23  1  0  0  0  0
 28 24  1  0  0  0  0
 28 23  2  0  0  0  0
M  END
>  <MODEL>
8

>  <REMARK>
 VINA RESULT:      -8.6      2.753      5.108
  Name = 
  2 active torsions:
  status: ('A' for Active; 'I' for Inactive)
    1  A    between atoms: N_1  and  C_2
    2  A    between atoms: C_2  and  C_3
                            x       y       z     vdW  Elec       q    Type
                         _______ _______ _______ _____ _____    ______ ____

>  <TORSDO>
F 2

$$$$
=
 OpenBabel11052413293D

 28 32  0  0  0  0  0  0  0  0999 V2000
  184.0170  178.9080  142.4970 N   0  0  0  0  0  0  0  0  0  0  0  0
  188.4410  177.7110  140.3560 C   0  0  0  0  0  3  0  0  0  0  0  0
  186.9330  177.7810  146.3930 C   0  0  0  0  0  1  0  0  0  0  0  0
  189.8790  177.1560  142.2370 C   0  0  0  0  0  0  0  0  0  0  0  0
  187.5830  177.8300  142.6440 C   0  0  0  0  0  0  0  0  0  0  0  0
  190.7370  177.0350  139.9760 C   0  0  0  0  0  0  0  0  0  0  0  0
  188.6230  177.5700  141.7400 C   0  0  0  0  0  0  0  0  0  0  0  0
  189.0730  177.2590  144.4680 C   0  0  0  0  0  3  0  0  0  0  0  0
  190.9280  176.8920  141.3530 C   0  0  0  0  0  3  0  0  0  0  0  0
  185.4640  178.3440  144.4340 C   0  0  0  0  0  0  0  0  0  0  0  0
  186.2910  178.2530  142.1720 N   0  0  0  0  0  0  0  0  0  0  0  0
  190.0680  177.0140  143.5760 N   0  0  0  0  0  0  0  0  0  0  0  0
  183.1730  178.9890  144.7030 C   0  0  0  0  0  3  0  0  0  0  0  0
  186.7380  177.9330  144.9550 N   0  0  0  0  0  0  0  0  0  0  0  0
  184.4530  178.5820  145.2180 N   0  0  0  0  0  0  0  0  0  0  0  0
  191.8550  176.7530  139.0380 C   0  0  0  0  0  1  0  0  0  0  0  0
  189.4960  177.4440  139.4790 C   0  0  0  0  0  3  0  0  0  0  0  0
  187.8090  177.6720  144.0270 C   0  0  0  0  0  0  0  0  0  0  0  0
  182.9820  179.1350  143.4230 N   0  0  0  0  0  0  0  0  0  0  0  0
  185.3010  178.4940  142.9810 C   0  0  0  0  0  0  0  0  0  0  0  0
  183.7430  179.0330  141.0710 C   0  0  0  0  0  2  0  0  0  0  0  0
  182.6980  178.0510  140.6600 C   0  0  0  0  0  0  0  0  0  0  0  0
  180.7300  176.2400  139.8430 C   0  0  0  0  0  0  0  0  0  0  0  0
  183.0550  176.9090  139.9340 C   0  0  0  0  0  3  0  0  0  0  0  0
  181.3550  178.2910  140.9690 C   0  0  0  0  0  3  0  0  0  0  0  0
  180.3710  177.3850  140.5620 C   0  0  0  0  0  3  0  0  0  0  0  0
  179.7760  175.3620  139.4490 F   0  0  0  0  0  0  0  0  0  0  0  0
  182.0710  176.0030  139.5280 C   0  0  0  0  0  3  0  0  0  0  0  0
  1 20  1  0  0  0  0
  1 19  1  0  0  0  0
  2  7  1  0  0  0  0
  4 12  1  0  0  0  0
  5 18  2  0  0  0  0
  6  9  2  0  0  0  0
  7  4  2  0  0  0  0
  7  5  1  0  0  0  0
  9  4  1  0  0  0  0
 10 14  1  0  0  0  0
 10 15  2  0  0  0  0
 11  5  1  0  0  0  0
 11 20  2  0  0  0  0
 12  8  2  0  0  0  0
 13 15  1  0  0  0  0
 14  3  1  0  0  0  0
 16  6  1  0  0  0  0
 17  6  1  0  0  0  0
 17  2  2  0  0  0  0
 18  8  1  0  0  0  0
 18 14  1  0  0  0  0
 19 13  2  0  0  0  0
 20 10  1  0  0  0  0
 21  1  1  0  0  0  0
 22 25  1  0  0  0  0
 22 21  1  0  0  0  0
 23 26  1  0  0  0  0
 24 22  2  0  0  0  0
 26 25  2  0  0  0  0
 27 23  1  0  0  0  0
 28 23  2  0  0  0  0
 28 24  1  0  0  0  0
M  END
>  <MODEL>
9

>  <REMARK>
 VINA RESULT:      -8.5      3.103      5.617
  Name = 
  2 active torsions:
  status: ('A' for Active; 'I' for Inactive)
    1  A    between atoms: N_1  and  C_2
    2  A    between atoms: C_2  and  C_3
                            x       y       z     vdW  Elec       q    Type
                         _______ _______ _______ _____ _____    ______ ____

>  <TORSDO>
F 2

$$$$
