=
 OpenBabel11052414123D

 34 38  0  0  1  0  0  0  0  0999 V2000
  182.2210  177.3760  139.9140 C   0  0  1  0  0  3  0  0  0  0  0  0
  185.3110  179.3460  140.2930 N   0  0  0  0  0  0  0  0  0  0  0  0
  183.3550  178.2880  142.1370 C   0  0  0  0  0  2  0  0  0  0  0  0
  185.5800  179.3530  141.7060 C   0  0  0  0  0  3  0  0  0  0  0  0
  182.5900  177.6060  138.4400 C   0  0  0  0  0  2  0  0  0  0  0  0
  183.9650  179.0120  139.8460 C   0  0  1  0  0  3  0  0  0  0  0  0
  183.8250  178.5230  138.4110 C   0  0  1  0  0  3  0  0  0  0  0  0
  184.6810  178.8710  142.5880 C   0  0  2  0  0  3  0  0  0  0  0  0
  183.4410  177.8780  140.6710 C   0  0  2  0  0  3  0  0  0  0  0  0
  181.0500  179.4080  140.8340 N   0  0  0  0  0  0  0  0  0  0  0  0
  179.8970  177.1700  140.9610 C   0  0  0  0  0  0  0  0  0  0  0  0
  179.5830  178.8700  142.7690 C   0  0  0  0  0  2  0  0  0  0  0  0
  179.4040  177.5240  142.2510 N   0  0  0  0  0  2  0  0  0  0  0  0
  180.8800  178.0660  140.2440 C   0  0  2  0  0  3  0  0  0  0  0  0
  180.9230  179.4300  142.3000 C   0  0  0  0  0  2  0  0  0  0  0  0
  179.4310  175.7540  140.2880 S   0  0  0  0  0  0  0  0  0  0  0  0
  180.0710  180.3060  140.2330 C   0  0  0  0  0  2  0  0  0  0  0  0
  180.7150  181.1970  139.3740 O   0  0  0  0  0  1  0  0  0  0  0  0
  187.3760  177.6790  137.3160 C   0  0  0  0  0  0  0  0  0  0  0  0
  187.2110  176.3890  136.9180 N   0  0  0  0  0  0  0  0  0  0  0  0
  185.0330  177.7870  137.8960 C   0  0  0  0  0  0  0  0  0  0  0  0
  186.0000  175.7720  136.9890 C   0  0  0  0  0  3  0  0  0  0  0  0
  186.2900  178.4020  137.8120 C   0  0  0  0  0  3  0  0  0  0  0  0
  184.8900  176.4620  137.4790 C   0  0  0  0  0  3  0  0  0  0  0  0
  188.7130  178.3200  137.2210 C   0  0  0  0  0  1  0  0  0  0  0  0
  184.9850  178.9010  144.0460 C   0  0  0  0  0  2  0  0  0  0  0  0
  185.8970  177.7430  144.4230 C   0  0  0  0  0  2  0  0  0  0  0  0
  185.3720  178.7750  147.1660 O   0  0  0  0  0  1  0  0  0  0  0  0
  186.9390  178.1950  145.4330 C   0  0  1  0  0  3  0  0  0  0  0  0
  186.4530  177.9460  146.8680 C   0  0  1  0  0  3  0  0  0  0  0  0
  188.8170  177.4190  147.4790 C   0  0  0  0  0  2  0  0  0  0  0  0
  189.2560  177.8100  146.1410 N   0  0  0  0  0  2  0  0  0  0  0  0
  188.2260  177.4100  145.1860 C   0  0  0  0  0  2  0  0  0  0  0  0
  187.5740  178.2120  147.8700 C   0  0  0  0  0  2  0  0  0  0  0  0
  1  5  1  6  0  0  0
  1 14  1  0  0  0  0
  1  9  1  0  0  0  0
  2  4  2  0  0  0  0
  3  8  1  0  0  0  0
  4  8  1  0  0  0  0
  6  2  1  1  0  0  0
  6  9  1  0  0  0  0
  7 21  1  1  0  0  0
  7  5  1  0  0  0  0
  7  6  1  0  0  0  0
  8 26  1  6  0  0  0
  9  3  1  1  0  0  0
 10 15  1  0  0  0  0
 11 13  1  0  0  0  0
 13 12  1  0  0  0  0
 14 10  1  0  0  0  0
 14 11  1  1  0  0  0
 15 12  1  0  0  0  0
 16 11  2  0  0  0  0
 17 10  1  0  0  0  0
 18 17  1  0  0  0  0
 19 23  1  0  0  0  0
 20 22  1  0  0  0  0
 20 19  2  0  0  0  0
 22 24  2  0  0  0  0
 23 21  2  0  0  0  0
 24 21  1  0  0  0  0
 25 19  1  0  0  0  0
 26 27  1  0  0  0  0
 29 27  1  6  0  0  0
 29 30  1  0  0  0  0
 30 28  1  1  0  0  0
 30 34  1  0  0  0  0
 31 34  1  0  0  0  0
 32 31  1  0  0  0  0
 33 29  1  0  0  0  0
 33 32  1  0  0  0  0
M  END
>  <MODEL>
1

>  <REMARK>
 VINA RESULT:      -9.0      0.000      0.000
  Name = 
  6 active torsions:
  status: ('A' for Active; 'I' for Inactive)
    1  A    between atoms: N_1  and  C_24
    2  A    between atoms: C_3  and  C_13
    3  A    between atoms: C_3  and  C_17
    4  A    between atoms: C_4  and  C_15
    5  A    between atoms: C_12  and  C_28
    6  A    between atoms: C_17  and  C_29
                            x       y       z     vdW  Elec       q    Type
                         _______ _______ _______ _____ _____    ______ ____

>  <TORSDO>
F 6

$$$$
=
 OpenBabel11052414123D

 34 38  0  0  1  0  0  0  0  0999 V2000
  182.9070  177.9930  140.2220 C   0  0  1  0  0  3  0  0  0  0  0  0
  186.4830  178.8250  140.5430 N   0  0  0  0  0  0  0  0  0  0  0  0
  184.4030  178.1070  142.4160 C   0  0  0  0  0  2  0  0  0  0  0  0
  186.8220  178.4990  141.9030 C   0  0  0  0  0  3  0  0  0  0  0  0
  183.2440  178.3570  138.7670 C   0  0  0  0  0  2  0  0  0  0  0  0
  185.0770  179.0020  140.2050 C   0  0  1  0  0  3  0  0  0  0  0  0
  184.7040  178.8430  138.7370 C   0  0  1  0  0  3  0  0  0  0  0  0
  185.8690  178.1660  142.7980 C   0  0  2  0  0  3  0  0  0  0  0  0
  184.2670  177.9560  140.9040 C   0  0  2  0  0  3  0  0  0  0  0  0
  181.0580  178.4120  141.8810 N   0  0  0  0  0  0  0  0  0  0  0  0
  181.1090  179.7460  139.7410 C   0  0  0  0  0  0  0  0  0  0  0  0
  178.9310  179.0940  140.7860 C   0  0  0  0  0  2  0  0  0  0  0  0
  179.6870  179.6530  139.6780 N   0  0  0  0  0  2  0  0  0  0  0  0
  181.8800  178.9900  140.7980 C   0  0  2  0  0  3  0  0  0  0  0  0
  179.7260  177.9670  141.4390 C   0  0  0  0  0  2  0  0  0  0  0  0
  181.9030  180.6360  138.6230 S   0  0  0  0  0  0  0  0  0  0  0  0
  180.9270  179.4020  142.9420 C   0  0  0  0  0  2  0  0  0  0  0  0
  180.3930  178.8020  144.0840 O   0  0  0  0  0  1  0  0  0  0  0  0
  187.7170  177.1870  137.0940 C   0  0  0  0  0  0  0  0  0  0  0  0
  187.1340  176.0730  136.5760 N   0  0  0  0  0  0  0  0  0  0  0  0
  185.5800  177.8750  137.9870 C   0  0  0  0  0  0  0  0  0  0  0  0
  185.8050  175.8260  136.7350 C   0  0  0  0  0  3  0  0  0  0  0  0
  186.9510  178.1090  137.8090 C   0  0  0  0  0  3  0  0  0  0  0  0
  185.0050  176.7240  137.4430 C   0  0  0  0  0  3  0  0  0  0  0  0
  189.1710  177.4230  136.8980 C   0  0  0  0  0  1  0  0  0  0  0  0
  186.2530  177.8430  144.2000 C   0  0  0  0  0  2  0  0  0  0  0  0
  187.7610  177.6950  144.3200 C   0  0  0  0  0  2  0  0  0  0  0  0
  190.4450  176.7730  145.2210 O   0  0  0  0  0  1  0  0  0  0  0  0
  188.1430  177.2680  145.7270 C   0  0  1  0  0  3  0  0  0  0  0  0
  189.6210  177.5760  146.0100 C   0  0  1  0  0  3  0  0  0  0  0  0
  188.9680  178.0960  148.3640 C   0  0  0  0  0  2  0  0  0  0  0  0
  187.6040  177.6490  148.0900 N   0  0  0  0  0  2  0  0  0  0  0  0
  187.2640  178.0270  146.7200 C   0  0  0  0  0  2  0  0  0  0  0  0
  189.9500  177.3330  147.4810 C   0  0  0  0  0  2  0  0  0  0  0  0
  1  5  1  6  0  0  0
  1 14  1  0  0  0  0
  1  9  1  0  0  0  0
  2  4  2  0  0  0  0
  3  8  1  0  0  0  0
  4  8  1  0  0  0  0
  6  2  1  6  0  0  0
  6  9  1  0  0  0  0
  7 21  1  1  0  0  0
  7  5  1  0  0  0  0
  7  6  1  0  0  0  0
  8 26  1  6  0  0  0
  9  3  1  1  0  0  0
 10 17  1  0  0  0  0
 12 15  1  0  0  0  0
 13 11  1  0  0  0  0
 13 12  1  0  0  0  0
 14 11  1  6  0  0  0
 14 10  1  0  0  0  0
 15 10  1  0  0  0  0
 16 11  2  0  0  0  0
 17 18  1  0  0  0  0
 19 23  1  0  0  0  0
 20 22  1  0  0  0  0
 20 19  2  0  0  0  0
 22 24  2  0  0  0  0
 23 21  2  0  0  0  0
 24 21  1  0  0  0  0
 25 19  1  0  0  0  0
 26 27  1  0  0  0  0
 29 27  1  6  0  0  0
 29 30  1  0  0  0  0
 29 33  1  0  0  0  0
 30 28  1  6  0  0  0
 30 34  1  0  0  0  0
 32 31  1  0  0  0  0
 33 32  1  0  0  0  0
 34 31  1  0  0  0  0
M  END
>  <MODEL>
2

>  <REMARK>
 VINA RESULT:      -9.0      1.995      2.362
  Name = 
  6 active torsions:
  status: ('A' for Active; 'I' for Inactive)
    1  A    between atoms: N_1  and  C_24
    2  A    between atoms: C_3  and  C_13
    3  A    between atoms: C_3  and  C_17
    4  A    between atoms: C_4  and  C_15
    5  A    between atoms: C_12  and  C_28
    6  A    between atoms: C_17  and  C_29
                            x       y       z     vdW  Elec       q    Type
                         _______ _______ _______ _____ _____    ______ ____

>  <TORSDO>
F 6

$$$$
=
 OpenBabel11052414123D

 34 38  0  0  1  0  0  0  0  0999 V2000
  182.1390  177.3420  140.0120 C   0  0  1  0  0  3  0  0  0  0  0  0
  185.2830  179.2580  140.1710 N   0  0  0  0  0  0  0  0  0  0  0  0
  183.3800  178.3380  142.1410 C   0  0  0  0  0  2  0  0  0  0  0  0
  185.6070  179.3290  141.5710 C   0  0  0  0  0  3  0  0  0  0  0  0
  182.4540  177.4910  138.5160 C   0  0  0  0  0  2  0  0  0  0  0  0
  183.9130  178.9320  139.7950 C   0  0  1  0  0  3  0  0  0  0  0  0
  183.7060  178.3770  138.3920 C   0  0  1  0  0  3  0  0  0  0  0  0
  184.7340  178.9110  142.5100 C   0  0  2  0  0  3  0  0  0  0  0  0
  183.3990  177.8530  140.6950 C   0  0  2  0  0  3  0  0  0  0  0  0
  181.0510  179.4000  140.9770 N   0  0  0  0  0  0  0  0  0  0  0  0
  179.8090  177.2070  141.0580 C   0  0  0  0  0  0  0  0  0  0  0  0
  179.5650  178.8800  142.9030 C   0  0  0  0  0  2  0  0  0  0  0  0
  179.3320  177.5530  142.3570 N   0  0  0  0  0  2  0  0  0  0  0  0
  180.8270  178.0780  140.3590 C   0  0  2  0  0  3  0  0  0  0  0  0
  180.9260  179.3960  142.4430 C   0  0  0  0  0  2  0  0  0  0  0  0
  179.2870  175.8260  140.3560 S   0  0  0  0  0  0  0  0  0  0  0  0
  180.1090  180.3490  140.3970 C   0  0  0  0  0  2  0  0  0  0  0  0
  180.0790  180.1950  139.0100 O   0  0  0  0  0  1  0  0  0  0  0  0
  185.8950  175.5320  137.1130 C   0  0  0  0  0  0  0  0  0  0  0  0
  187.0730  176.1890  136.9350 N   0  0  0  0  0  0  0  0  0  0  0  0
  184.8770  177.5890  137.8690 C   0  0  0  0  0  0  0  0  0  0  0  0
  187.1960  177.5160  137.2080 C   0  0  0  0  0  3  0  0  0  0  0  0
  184.7750  176.2200  137.5840 C   0  0  0  0  0  3  0  0  0  0  0  0
  186.0990  178.2390  137.6800 C   0  0  0  0  0  3  0  0  0  0  0  0
  185.8000  174.0820  136.8070 C   0  0  0  0  0  1  0  0  0  0  0  0
  185.0970  179.0060  143.9520 C   0  0  0  0  0  2  0  0  0  0  0  0
  185.9060  177.7920  144.3790 C   0  0  0  0  0  2  0  0  0  0  0  0
  185.3780  178.8140  147.1250 O   0  0  0  0  0  1  0  0  0  0  0  0
  186.9490  178.1840  145.4120 C   0  0  1  0  0  3  0  0  0  0  0  0
  186.4260  177.9400  146.8350 C   0  0  1  0  0  3  0  0  0  0  0  0
  188.7530  177.3000  147.4820 C   0  0  0  0  0  2  0  0  0  0  0  0
  189.2330  177.6870  146.1580 N   0  0  0  0  0  2  0  0  0  0  0  0
  188.2030  177.3440  145.1780 C   0  0  0  0  0  2  0  0  0  0  0  0
  187.5400  178.1440  147.8600 C   0  0  0  0  0  2  0  0  0  0  0  0
  1  5  1  6  0  0  0
  1 14  1  0  0  0  0
  1  9  1  0  0  0  0
  2  4  2  0  0  0  0
  3  8  1  0  0  0  0
  4  8  1  0  0  0  0
  6  2  1  1  0  0  0
  6  9  1  0  0  0  0
  7 21  1  1  0  0  0
  7  5  1  0  0  0  0
  7  6  1  0  0  0  0
  8 26  1  6  0  0  0
  9  3  1  1  0  0  0
 10 15  1  0  0  0  0
 11 13  1  0  0  0  0
 13 12  1  0  0  0  0
 14 10  1  0  0  0  0
 14 11  1  1  0  0  0
 15 12  1  0  0  0  0
 16 11  2  0  0  0  0
 17 10  1  0  0  0  0
 18 17  1  0  0  0  0
 19 23  1  0  0  0  0
 20 19  2  0  0  0  0
 20 22  1  0  0  0  0
 22 24  2  0  0  0  0
 23 21  2  0  0  0  0
 24 21  1  0  0  0  0
 25 19  1  0  0  0  0
 26 27  1  0  0  0  0
 29 27  1  6  0  0  0
 29 30  1  0  0  0  0
 30 28  1  1  0  0  0
 30 34  1  0  0  0  0
 31 34  1  0  0  0  0
 32 31  1  0  0  0  0
 33 29  1  0  0  0  0
 33 32  1  0  0  0  0
M  END
>  <MODEL>
3

>  <REMARK>
 VINA RESULT:      -8.8      0.397      1.235
  Name = 
  6 active torsions:
  status: ('A' for Active; 'I' for Inactive)
    1  A    between atoms: N_1  and  C_24
    2  A    between atoms: C_3  and  C_13
    3  A    between atoms: C_3  and  C_17
    4  A    between atoms: C_4  and  C_15
    5  A    between atoms: C_12  and  C_28
    6  A    between atoms: C_17  and  C_29
                            x       y       z     vdW  Elec       q    Type
                         _______ _______ _______ _____ _____    ______ ____

>  <TORSDO>
F 6

$$$$
=
 OpenBabel11052414123D

 34 38  0  0  1  0  0  0  0  0999 V2000
  185.6550  178.8150  138.6950 C   0  0  1  0  0  3  0  0  0  0  0  0
  182.8590  178.0420  140.9690 N   0  0  0  0  0  0  0  0  0  0  0  0
  185.5730  178.9570  141.3480 C   0  0  0  0  0  2  0  0  0  0  0  0
  183.2820  178.5210  142.2570 C   0  0  0  0  0  3  0  0  0  0  0  0
  184.6140  178.2920  137.6940 C   0  0  0  0  0  2  0  0  0  0  0  0
  183.8740  177.8210  139.9460 C   0  0  1  0  0  3  0  0  0  0  0  0
  183.3940  177.8130  138.5010 C   0  0  1  0  0  3  0  0  0  0  0  0
  184.5450  178.9470  142.4620 C   0  0  2  0  0  3  0  0  0  0  0  0
  184.8710  178.9350  139.9940 C   0  0  2  0  0  3  0  0  0  0  0  0
  188.1060  178.5540  139.2160 N   0  0  0  0  0  0  0  0  0  0  0  0
  187.0640  177.0760  137.4590 C   0  0  0  0  0  0  0  0  0  0  0  0
  189.4330  177.8500  137.2330 C   0  0  0  0  0  2  0  0  0  0  0  0
  188.2550  177.1990  136.6840 N   0  0  0  0  0  2  0  0  0  0  0  0
  186.8860  177.8850  138.7230 C   0  0  2  0  0  3  0  0  0  0  0  0
  189.0110  178.9990  138.1440 C   0  0  0  0  0  2  0  0  0  0  0  0
  185.8670  176.0940  136.9350 S   0  0  0  0  0  0  0  0  0  0  0  0
  188.8050  177.6420  140.1130 C   0  0  0  0  0  2  0  0  0  0  0  0
  188.8610  178.1930  141.3950 O   0  0  0  0  0  1  0  0  0  0  0  0
  181.1530  180.8630  138.0600 C   0  0  0  0  0  0  0  0  0  0  0  0
  179.9620  180.2590  137.8060 N   0  0  0  0  0  0  0  0  0  0  0  0
  182.2000  178.6940  138.2500 C   0  0  0  0  0  0  0  0  0  0  0  0
  179.8460  178.9040  137.7660 C   0  0  0  0  0  3  0  0  0  0  0  0
  182.2950  180.0920  138.2870 C   0  0  0  0  0  3  0  0  0  0  0  0
  180.9640  178.0970  137.9880 C   0  0  0  0  0  3  0  0  0  0  0  0
  181.2410  182.3460  138.0970 C   0  0  0  0  0  1  0  0  0  0  0  0
  184.9530  179.4280  143.8110 C   0  0  0  0  0  2  0  0  0  0  0  0
  185.2000  178.2530  144.7440 C   0  0  0  0  0  2  0  0  0  0  0  0
  185.6810  179.3810  147.4570 O   0  0  0  0  0  1  0  0  0  0  0  0
  186.5450  178.3970  145.4360 C   0  0  1  0  0  3  0  0  0  0  0  0
  186.3900  178.2870  146.9600 C   0  0  1  0  0  3  0  0  0  0  0  0
  188.6020  177.1260  147.0100 C   0  0  0  0  0  2  0  0  0  0  0  0
  188.7750  177.3860  145.5830 N   0  0  0  0  0  2  0  0  0  0  0  0
  187.4690  177.2880  144.9360 C   0  0  0  0  0  2  0  0  0  0  0  0
  187.7570  178.2310  147.6380 C   0  0  0  0  0  2  0  0  0  0  0  0
  1  5  1  6  0  0  0
  1 14  1  0  0  0  0
  1  9  1  0  0  0  0
  2  4  2  0  0  0  0
  3  8  1  0  0  0  0
  4  8  1  0  0  0  0
  5  7  1  0  0  0  0
  6  9  1  0  0  0  0
  6  2  1  1  0  0  0
  7 21  1  1  0  0  0
  7  6  1  0  0  0  0
  8 26  1  6  0  0  0
  9  3  1  1  0  0  0
 10 17  1  0  0  0  0
 12 15  1  0  0  0  0
 13 12  1  0  0  0  0
 13 11  1  0  0  0  0
 14 11  1  6  0  0  0
 14 10  1  0  0  0  0
 15 10  1  0  0  0  0
 16 11  2  0  0  0  0
 17 18  1  0  0  0  0
 19 25  1  0  0  0  0
 19 23  1  0  0  0  0
 20 19  2  0  0  0  0
 21 23  2  0  0  0  0
 22 20  1  0  0  0  0
 22 24  2  0  0  0  0
 24 21  1  0  0  0  0
 26 27  1  0  0  0  0
 29 27  1  6  0  0  0
 29 30  1  0  0  0  0
 30 28  1  1  0  0  0
 30 34  1  0  0  0  0
 31 34  1  0  0  0  0
 32 31  1  0  0  0  0
 33 29  1  0  0  0  0
 33 32  1  0  0  0  0
M  END
>  <MODEL>
4

>  <REMARK>
 VINA RESULT:      -8.7      2.564      5.498
  Name = 
  6 active torsions:
  status: ('A' for Active; 'I' for Inactive)
    1  A    between atoms: N_1  and  C_24
    2  A    between atoms: C_3  and  C_13
    3  A    between atoms: C_3  and  C_17
    4  A    between atoms: C_4  and  C_15
    5  A    between atoms: C_12  and  C_28
    6  A    between atoms: C_17  and  C_29
                            x       y       z     vdW  Elec       q    Type
                         _______ _______ _______ _____ _____    ______ ____

>  <TORSDO>
F 6

$$$$
=
 OpenBabel11052414123D

 34 38  0  0  1  0  0  0  0  0999 V2000
  182.9080  178.0360  140.1000 C   0  0  1  0  0  3  0  0  0  0  0  0
  186.4770  178.9260  140.3290 N   0  0  0  0  0  0  0  0  0  0  0  0
  184.4520  178.2020  142.2580 C   0  0  0  0  0  2  0  0  0  0  0  0
  186.8520  178.6240  141.6840 C   0  0  0  0  0  3  0  0  0  0  0  0
  183.2060  178.3840  138.6340 C   0  0  0  0  0  2  0  0  0  0  0  0
  185.0610  179.0780  140.0200 C   0  0  1  0  0  3  0  0  0  0  0  0
  184.6570  178.8920  138.5640 C   0  0  1  0  0  3  0  0  0  0  0  0
  185.9250  178.2900  142.6050 C   0  0  2  0  0  3  0  0  0  0  0  0
  184.2830  178.0290  140.7520 C   0  0  2  0  0  3  0  0  0  0  0  0
  181.1270  178.4680  141.8300 N   0  0  0  0  0  0  0  0  0  0  0  0
  181.0350  179.7150  139.6400 C   0  0  0  0  0  0  0  0  0  0  0  0
  178.9310  179.0420  140.8140 C   0  0  0  0  0  2  0  0  0  0  0  0
  179.6160  179.5770  139.6490 N   0  0  0  0  0  2  0  0  0  0  0  0
  181.8790  179.0250  140.6870 C   0  0  2  0  0  3  0  0  0  0  0  0
  179.7910  177.9660  141.4710 C   0  0  0  0  0  2  0  0  0  0  0  0
  181.7470  180.5810  138.4500 S   0  0  0  0  0  0  0  0  0  0  0  0
  181.0170  179.4950  142.8570 C   0  0  0  0  0  2  0  0  0  0  0  0
  180.4740  178.9440  144.0190 O   0  0  0  0  0  1  0  0  0  0  0  0
  185.9740  175.7560  136.8450 C   0  0  0  0  0  0  0  0  0  0  0  0
  187.1940  176.1950  136.4330 N   0  0  0  0  0  0  0  0  0  0  0  0
  185.5310  177.9280  137.8070 C   0  0  0  0  0  0  0  0  0  0  0  0
  187.6150  177.4640  136.6830 C   0  0  0  0  0  3  0  0  0  0  0  0
  185.1200  176.6140  137.5400 C   0  0  0  0  0  3  0  0  0  0  0  0
  186.7900  178.3530  137.3750 C   0  0  0  0  0  3  0  0  0  0  0  0
  185.5500  174.3620  136.5560 C   0  0  0  0  0  1  0  0  0  0  0  0
  186.3450  177.9920  144.0030 C   0  0  0  0  0  2  0  0  0  0  0  0
  187.1860  176.7260  144.0480 C   0  0  0  0  0  2  0  0  0  0  0  0
  189.0080  177.7710  146.1580 O   0  0  0  0  0  1  0  0  0  0  0  0
  188.6600  177.0610  143.8840 C   0  0  1  0  0  3  0  0  0  0  0  0
  189.4190  176.8430  145.2010 C   0  0  1  0  0  3  0  0  0  0  0  0
  191.3720  176.0790  143.8430 C   0  0  0  0  0  2  0  0  0  0  0  0
  190.6660  176.4410  142.6160 N   0  0  0  0  0  2  0  0  0  0  0  0
  189.2450  176.1550  142.8020 C   0  0  0  0  0  2  0  0  0  0  0  0
  190.9240  176.9860  144.9850 C   0  0  0  0  0  2  0  0  0  0  0  0
  1  5  1  6  0  0  0
  1 14  1  0  0  0  0
  1  9  1  0  0  0  0
  2  4  2  0  0  0  0
  3  8  1  0  0  0  0
  4  8  1  0  0  0  0
  6  2  1  6  0  0  0
  6  9  1  0  0  0  0
  7 21  1  1  0  0  0
  7  5  1  0  0  0  0
  7  6  1  0  0  0  0
  8 26  1  6  0  0  0
  9  3  1  1  0  0  0
 10 17  1  0  0  0  0
 11 13  1  0  0  0  0
 12 15  1  0  0  0  0
 13 12  1  0  0  0  0
 14 11  1  6  0  0  0
 14 10  1  0  0  0  0
 15 10  1  0  0  0  0
 16 11  2  0  0  0  0
 17 18  1  0  0  0  0
 19 23  1  0  0  0  0
 20 22  1  0  0  0  0
 20 19  2  0  0  0  0
 22 24  2  0  0  0  0
 23 21  2  0  0  0  0
 24 21  1  0  0  0  0
 25 19  1  0  0  0  0
 26 27  1  0  0  0  0
 29 27  1  1  0  0  0
 29 30  1  0  0  0  0
 30 28  1  1  0  0  0
 31 34  1  0  0  0  0
 32 33  1  0  0  0  0
 32 31  1  0  0  0  0
 33 29  1  0  0  0  0
 34 30  1  0  0  0  0
M  END
>  <MODEL>
5

>  <REMARK>
 VINA RESULT:      -8.3      2.130      2.813
  Name = 
  6 active torsions:
  status: ('A' for Active; 'I' for Inactive)
    1  A    between atoms: N_1  and  C_24
    2  A    between atoms: C_3  and  C_13
    3  A    between atoms: C_3  and  C_17
    4  A    between atoms: C_4  and  C_15
    5  A    between atoms: C_12  and  C_28
    6  A    between atoms: C_17  and  C_29
                            x       y       z     vdW  Elec       q    Type
                         _______ _______ _______ _____ _____    ______ ____

>  <TORSDO>
F 6

$$$$
=
 OpenBabel11052414123D

 34 38  0  0  1  0  0  0  0  0999 V2000
  190.8660  175.3330  137.1340 C   0  0  1  0  0  3  0  0  0  0  0  0
  193.6600  177.0110  138.8540 N   0  0  0  0  0  0  0  0  0  0  0  0
  190.8440  176.6900  139.4190 C   0  0  0  0  0  2  0  0  0  0  0  0
  193.1420  177.3700  140.1470 C   0  0  0  0  0  3  0  0  0  0  0  0
  191.9940  175.1220  136.1120 C   0  0  0  0  0  2  0  0  0  0  0  0
  192.7120  176.7060  137.7890 C   0  0  1  0  0  3  0  0  0  0  0  0
  193.2350  175.8680  136.6310 C   0  0  1  0  0  3  0  0  0  0  0  0
  191.8310  177.2350  140.4340 C   0  0  2  0  0  3  0  0  0  0  0  0
  191.5870  175.8950  138.3500 C   0  0  2  0  0  3  0  0  0  0  0  0
  189.2760  177.2620  137.4580 N   0  0  0  0  0  0  0  0  0  0  0  0
  188.6680  175.4340  135.8300 C   0  0  0  0  0  0  0  0  0  0  0  0
  186.8980  176.5970  137.1610 C   0  0  0  0  0  2  0  0  0  0  0  0
  187.3130  175.5330  136.2630 N   0  0  0  0  0  2  0  0  0  0  0  0
  189.7550  176.2180  136.5290 C   0  0  2  0  0  3  0  0  0  0  0  0
  188.0220  176.9120  138.1440 C   0  0  0  0  0  2  0  0  0  0  0  0
  189.0440  174.4200  134.6040 S   0  0  0  0  0  0  0  0  0  0  0  0
  189.1100  178.5040  136.7140 C   0  0  0  0  0  2  0  0  0  0  0  0
  188.9100  179.5620  137.6020 O   0  0  0  0  0  1  0  0  0  0  0  0
  196.6230  174.1640  137.0020 C   0  0  0  0  0  0  0  0  0  0  0  0
  196.2730  173.0790  137.7430 N   0  0  0  0  0  0  0  0  0  0  0  0
  194.3230  174.9020  137.0190 C   0  0  0  0  0  0  0  0  0  0  0  0
  194.9870  172.8690  138.1350 C   0  0  0  0  0  3  0  0  0  0  0  0
  195.6550  175.0960  136.6250 C   0  0  0  0  0  3  0  0  0  0  0  0
  193.9890  173.7780  137.7790 C   0  0  0  0  0  3  0  0  0  0  0  0
  198.0380  174.3570  136.5910 C   0  0  0  0  0  1  0  0  0  0  0  0
  191.3240  177.6240  141.7800 C   0  0  0  0  0  2  0  0  0  0  0  0
  191.4490  176.4620  142.7520 C   0  0  0  0  0  2  0  0  0  0  0  0
  191.2610  177.4820  145.5430 O   0  0  0  0  0  1  0  0  0  0  0  0
  190.2310  176.3930  143.6580 C   0  0  1  0  0  3  0  0  0  0  0  0
  190.2080  177.5800  144.6330 C   0  0  1  0  0  3  0  0  0  0  0  0
  187.7180  177.5850  144.4240 C   0  0  0  0  0  2  0  0  0  0  0  0
  187.7780  176.3660  143.6210 N   0  0  0  0  0  2  0  0  0  0  0  0
  188.9770  176.4240  142.7870 C   0  0  0  0  0  2  0  0  0  0  0  0
  188.8890  177.6190  145.4020 C   0  0  0  0  0  2  0  0  0  0  0  0
  1  5  1  6  0  0  0
  1  9  1  0  0  0  0
  2  4  2  0  0  0  0
  3  8  1  0  0  0  0
  4  8  1  0  0  0  0
  5  7  1  0  0  0  0
  6  9  1  0  0  0  0
  6  2  1  1  0  0  0
  7 21  1  1  0  0  0
  7  6  1  0  0  0  0
  8 26  1  1  0  0  0
  9  3  1  6  0  0  0
 10 15  1  0  0  0  0
 11 13  1  0  0  0  0
 12 15  1  0  0  0  0
 13 12  1  0  0  0  0
 14 11  1  1  0  0  0
 14  1  1  0  0  0  0
 14 10  1  0  0  0  0
 16 11  2  0  0  0  0
 17 10  1  0  0  0  0
 17 18  1  0  0  0  0
 19 20  1  0  0  0  0
 20 22  2  0  0  0  0
 21 24  2  0  0  0  0
 23 19  2  0  0  0  0
 23 21  1  0  0  0  0
 24 22  1  0  0  0  0
 25 19  1  0  0  0  0
 26 27  1  0  0  0  0
 29 27  1  6  0  0  0
 29 30  1  0  0  0  0
 30 34  1  0  0  0  0
 30 28  1  1  0  0  0
 31 34  1  0  0  0  0
 32 31  1  0  0  0  0
 33 32  1  0  0  0  0
 33 29  1  0  0  0  0
M  END
>  <MODEL>
6

>  <REMARK>
 VINA RESULT:      -8.3      5.517      8.448
  Name = 
  6 active torsions:
  status: ('A' for Active; 'I' for Inactive)
    1  A    between atoms: N_1  and  C_24
    2  A    between atoms: C_3  and  C_13
    3  A    between atoms: C_3  and  C_17
    4  A    between atoms: C_4  and  C_15
    5  A    between atoms: C_12  and  C_28
    6  A    between atoms: C_17  and  C_29
                            x       y       z     vdW  Elec       q    Type
                         _______ _______ _______ _____ _____    ______ ____

>  <TORSDO>
F 6

$$$$
=
 OpenBabel11052414123D

 34 38  0  0  1  0  0  0  0  0999 V2000
  188.3330  177.3030  143.4070 C   0  0  1  0  0  3  0  0  0  0  0  0
  188.2360  178.6430  139.9750 N   0  0  0  0  0  2  0  0  0  0  0  0
  190.0030  176.8470  141.3900 C   0  0  0  0  0  2  0  0  0  0  0  0
  189.2220  177.8870  139.2500 C   0  0  0  0  0  3  0  0  0  0  0  0
  187.1410  178.2670  143.5140 C   0  0  0  0  0  2  0  0  0  0  0  0
  188.3050  178.6520  141.4310 C   0  0  1  0  0  3  0  0  0  0  0  0
  187.0230  179.0080  142.1710 C   0  0  1  0  0  3  0  0  0  0  0  0
  190.0620  177.0460  139.8880 C   0  0  0  0  0  0  0  0  0  0  0  0
  188.6370  177.2760  141.9160 C   0  0  2  0  0  3  0  0  0  0  0  0
  190.8190  177.4670  143.7840 N   0  0  0  0  0  0  0  0  0  0  0  0
  189.2800  177.3900  145.7800 C   0  0  0  0  0  0  0  0  0  0  0  0
  191.5440  176.3270  145.8730 C   0  0  0  0  0  2  0  0  0  0  0  0
  190.2320  176.5670  146.4520 N   0  0  0  0  0  2  0  0  0  0  0  0
  189.4800  177.7650  144.3300 C   0  0  2  0  0  3  0  0  0  0  0  0
  191.4330  176.2560  144.3530 C   0  0  0  0  0  2  0  0  0  0  0  0
  187.9400  177.8770  146.5790 S   0  0  0  0  0  0  0  0  0  0  0  0
  191.6810  178.6190  144.0130 C   0  0  0  0  0  2  0  0  0  0  0  0
  190.9230  179.7900  143.9690 O   0  0  0  0  0  1  0  0  0  0  0  0
  184.5020  178.2530  139.4150 C   0  0  0  0  0  0  0  0  0  0  0  0
  183.4230  177.8920  140.1610 N   0  0  0  0  0  0  0  0  0  0  0  0
  185.7670  178.6100  141.4420 C   0  0  0  0  0  0  0  0  0  0  0  0
  183.4700  177.8780  141.5210 C   0  0  0  0  0  3  0  0  0  0  0  0
  185.6940  178.6190  140.0420 C   0  0  0  0  0  3  0  0  0  0  0  0
  184.6440  178.2370  142.1850 C   0  0  0  0  0  3  0  0  0  0  0  0
  184.4110  178.2580  137.9320 C   0  0  0  0  0  1  0  0  0  0  0  0
  191.0770  176.2830  139.1090 C   0  0  0  0  0  2  0  0  0  0  0  0
  191.0050  176.6520  137.6360 C   0  0  0  0  0  2  0  0  0  0  0  0
  193.9290  177.0270  137.2180 O   0  0  0  0  0  1  0  0  0  0  0  0
  191.9230  175.7580  136.8190 C   0  0  1  0  0  3  0  0  0  0  0  0
  193.3480  175.7700  137.3890 C   0  0  1  0  0  3  0  0  0  0  0  0
  193.5290  173.3620  136.7480 C   0  0  0  0  0  2  0  0  0  0  0  0
  192.2290  173.4360  136.0850 N   0  0  0  0  0  2  0  0  0  0  0  0
  191.3710  174.3330  136.8560 C   0  0  0  0  0  2  0  0  0  0  0  0
  194.2160  174.7230  136.6940 C   0  0  0  0  0  2  0  0  0  0  0  0
  1  5  1  6  0  0  0
  1 14  1  0  0  0  0
  4  8  2  0  0  0  0
  4  2  1  0  0  0  0
  6  2  1  6  0  0  0
  6  9  1  0  0  0  0
  6  7  1  0  0  0  0
  7 21  1  6  0  0  0
  7  5  1  0  0  0  0
  8  3  1  0  0  0  0
  9  3  1  1  0  0  0
  9  1  1  0  0  0  0
 10 17  1  0  0  0  0
 10 14  1  0  0  0  0
 10 15  1  0  0  0  0
 11 13  1  0  0  0  0
 11 16  2  0  0  0  0
 12 13  1  0  0  0  0
 14 11  1  1  0  0  0
 15 12  1  0  0  0  0
 18 17  1  0  0  0  0
 19 23  2  0  0  0  0
 19 20  1  0  0  0  0
 20 22  2  0  0  0  0
 21 24  2  0  0  0  0
 22 24  1  0  0  0  0
 23 21  1  0  0  0  0
 25 19  1  0  0  0  0
 26  8  1  0  0  0  0
 27 26  1  0  0  0  0
 29 33  1  0  0  0  0
 29 30  1  0  0  0  0
 29 27  1  1  0  0  0
 30 28  1  6  0  0  0
 32 31  1  0  0  0  0
 32 33  1  0  0  0  0
 34 31  1  0  0  0  0
 34 30  1  0  0  0  0
M  END
>  <MODEL>
7

>  <REMARK>
 VINA RESULT:      -8.2      4.485      8.855
  Name = 
  6 active torsions:
  status: ('A' for Active; 'I' for Inactive)
    1  A    between atoms: N_1  and  C_24
    2  A    between atoms: C_3  and  C_13
    3  A    between atoms: C_3  and  C_17
    4  A    between atoms: C_4  and  C_15
    5  A    between atoms: C_12  and  C_28
    6  A    between atoms: C_17  and  C_29
                            x       y       z     vdW  Elec       q    Type
                         _______ _______ _______ _____ _____    ______ ____

>  <TORSDO>
F 6

$$$$
=
 OpenBabel11052414123D

 34 38  0  0  1  0  0  0  0  0999 V2000
  187.2480  177.5210  143.5150 C   0  0  1  0  0  3  0  0  0  0  0  0
  187.5380  178.6490  140.0180 N   0  0  0  0  0  0  0  0  0  0  0  0
  189.1780  177.0250  141.7560 C   0  0  0  0  0  2  0  0  0  0  0  0
  188.6370  177.8980  139.4730 C   0  0  0  0  0  3  0  0  0  0  0  0
  186.0160  178.4330  143.4100 C   0  0  0  0  0  2  0  0  0  0  0  0
  187.4200  178.7480  141.4680 C   0  0  1  0  0  3  0  0  0  0  0  0
  186.0410  179.0870  142.0170 C   0  0  1  0  0  3  0  0  0  0  0  0
  189.4210  177.1370  140.2630 C   0  0  2  0  0  3  0  0  0  0  0  0
  187.7410  177.4200  142.0790 C   0  0  2  0  0  3  0  0  0  0  0  0
  189.6570  177.8050  144.1990 N   0  0  0  0  0  0  0  0  0  0  0  0
  187.8700  177.8110  145.9780 C   0  0  0  0  0  0  0  0  0  0  0  0
  190.1310  176.8440  146.4440 C   0  0  0  0  0  2  0  0  0  0  0  0
  188.7480  177.0740  146.8270 N   0  0  0  0  0  2  0  0  0  0  0  0
  188.2500  178.0910  144.5420 C   0  0  2  0  0  3  0  0  0  0  0  0
  190.2240  176.6620  144.9310 C   0  0  0  0  0  2  0  0  0  0  0  0
  186.4230  178.3020  146.5570 S   0  0  0  0  0  0  0  0  0  0  0  0
  190.4480  179.0030  144.4510 C   0  0  0  0  0  2  0  0  0  0  0  0
  191.7160  178.8580  143.8850 O   0  0  0  0  0  1  0  0  0  0  0  0
  183.9390  178.0100  139.0270 C   0  0  0  0  0  0  0  0  0  0  0  0
  182.7730  177.6890  139.6490 N   0  0  0  0  0  0  0  0  0  0  0  0
  184.9050  178.5880  141.1650 C   0  0  0  0  0  0  0  0  0  0  0  0
  182.6310  177.8000  140.9970 C   0  0  0  0  0  3  0  0  0  0  0  0
  185.0270  178.4660  139.7730 C   0  0  0  0  0  3  0  0  0  0  0  0
  183.6960  178.2520  141.7790 C   0  0  0  0  0  3  0  0  0  0  0  0
  184.0550  177.8780  137.5520 C   0  0  0  0  0  1  0  0  0  0  0  0
  190.5560  176.3780  139.6680 C   0  0  0  0  0  2  0  0  0  0  0  0
  190.7730  176.7900  138.2210 C   0  0  0  0  0  2  0  0  0  0  0  0
  190.6200  175.3660  135.6110 O   0  0  0  0  0  1  0  0  0  0  0  0
  191.8670  175.9490  137.5860 C   0  0  1  0  0  3  0  0  0  0  0  0
  191.7790  176.0030  136.0540 C   0  0  1  0  0  3  0  0  0  0  0  0
  194.2750  175.9130  135.9990 C   0  0  0  0  0  2  0  0  0  0  0  0
  194.3050  175.7120  137.4460 N   0  0  0  0  0  2  0  0  0  0  0  0
  193.2210  176.4920  138.0400 C   0  0  0  0  0  2  0  0  0  0  0  0
  192.9910  175.3250  135.4210 C   0  0  0  0  0  2  0  0  0  0  0  0
  1  5  1  6  0  0  0
  1 14  1  0  0  0  0
  4  2  2  0  0  0  0
  4  8  1  0  0  0  0
  6  2  1  6  0  0  0
  6  7  1  0  0  0  0
  6  9  1  0  0  0  0
  7 21  1  6  0  0  0
  7  5  1  0  0  0  0
  8 26  1  6  0  0  0
  8  3  1  0  0  0  0
  9  3  1  1  0  0  0
  9  1  1  0  0  0  0
 10 17  1  0  0  0  0
 10 14  1  0  0  0  0
 10 15  1  0  0  0  0
 11 16  2  0  0  0  0
 11 13  1  0  0  0  0
 12 13  1  0  0  0  0
 14 11  1  1  0  0  0
 15 12  1  0  0  0  0
 18 17  1  0  0  0  0
 19 20  2  0  0  0  0
 19 23  1  0  0  0  0
 20 22  1  0  0  0  0
 21 24  1  0  0  0  0
 22 24  2  0  0  0  0
 23 21  2  0  0  0  0
 25 19  1  0  0  0  0
 27 26  1  0  0  0  0
 29 33  1  0  0  0  0
 29 27  1  1  0  0  0
 30 28  1  6  0  0  0
 30 29  1  0  0  0  0
 31 32  1  0  0  0  0
 32 33  1  0  0  0  0
 34 31  1  0  0  0  0
 34 30  1  0  0  0  0
M  END
>  <MODEL>
8

>  <REMARK>
 VINA RESULT:      -8.0      4.116      8.372
  Name = 
  6 active torsions:
  status: ('A' for Active; 'I' for Inactive)
    1  A    between atoms: N_1  and  C_24
    2  A    between atoms: C_3  and  C_13
    3  A    between atoms: C_3  and  C_17
    4  A    between atoms: C_4  and  C_15
    5  A    between atoms: C_12  and  C_28
    6  A    between atoms: C_17  and  C_29
                            x       y       z     vdW  Elec       q    Type
                         _______ _______ _______ _____ _____    ______ ____

>  <TORSDO>
F 6

$$$$
=
 OpenBabel11052414123D

 34 38  0  0  1  0  0  0  0  0999 V2000
  186.8740  177.4920  144.0070 C   0  0  1  0  0  3  0  0  0  0  0  0
  186.8000  178.9030  140.6040 N   0  0  0  0  0  2  0  0  0  0  0  0
  188.6580  177.2310  142.0540 C   0  0  0  0  0  2  0  0  0  0  0  0
  187.8770  178.2520  139.9060 C   0  0  0  0  0  3  0  0  0  0  0  0
  185.5990  178.3460  144.0830 C   0  0  0  0  0  2  0  0  0  0  0  0
  186.8080  178.8820  142.0610 C   0  0  1  0  0  3  0  0  0  0  0  0
  185.4710  179.1080  142.7530 C   0  0  1  0  0  3  0  0  0  0  0  0
  188.7600  177.4720  140.5610 C   0  0  0  0  0  0  0  0  0  0  0  0
  187.2390  177.5280  142.5310 C   0  0  2  0  0  3  0  0  0  0  0  0
  189.3010  177.5540  144.6800 N   0  0  0  0  0  0  0  0  0  0  0  0
  187.5340  177.9190  146.4400 C   0  0  0  0  0  0  0  0  0  0  0  0
  189.6690  176.7420  147.0010 C   0  0  0  0  0  2  0  0  0  0  0  0
  188.3230  177.1620  147.3550 N   0  0  0  0  0  2  0  0  0  0  0  0
  187.9370  178.0290  144.9880 C   0  0  2  0  0  3  0  0  0  0  0  0
  189.7360  176.4200  145.5110 C   0  0  0  0  0  2  0  0  0  0  0  0
  186.1540  178.6210  146.9660 S   0  0  0  0  0  0  0  0  0  0  0  0
  190.2260  178.6700  144.8330 C   0  0  0  0  0  2  0  0  0  0  0  0
  191.4380  178.3670  144.2100 O   0  0  0  0  0  1  0  0  0  0  0  0
  183.3050  177.5680  140.0210 C   0  0  0  0  0  0  0  0  0  0  0  0
  182.0670  177.7710  140.5460 N   0  0  0  0  0  0  0  0  0  0  0  0
  184.2860  178.6200  141.9630 C   0  0  0  0  0  0  0  0  0  0  0  0
  181.8950  178.3820  141.7490 C   0  0  0  0  0  3  0  0  0  0  0  0
  184.4380  177.9900  140.7190 C   0  0  0  0  0  3  0  0  0  0  0  0
  183.0030  178.8180  142.4780 C   0  0  0  0  0  3  0  0  0  0  0  0
  183.4530  176.8990  138.7030 C   0  0  0  0  0  1  0  0  0  0  0  0
  189.8690  176.8190  139.8100 C   0  0  0  0  0  2  0  0  0  0  0  0
  190.0690  177.4930  138.4620 C   0  0  0  0  0  2  0  0  0  0  0  0
  192.9370  176.7500  138.1710 O   0  0  0  0  0  1  0  0  0  0  0  0
  190.6500  176.5120  137.4580 C   0  0  1  0  0  3  0  0  0  0  0  0
  191.9010  175.8260  138.0250 C   0  0  1  0  0  3  0  0  0  0  0  0
  191.2040  173.7550  136.8150 C   0  0  0  0  0  2  0  0  0  0  0  0
  190.1110  174.4870  136.1810 N   0  0  0  0  0  2  0  0  0  0  0  0
  189.5900  175.4580  137.1410 C   0  0  0  0  0  2  0  0  0  0  0  0
  192.3650  174.7020  137.1010 C   0  0  0  0  0  2  0  0  0  0  0  0
  1  5  1  6  0  0  0
  1 14  1  0  0  0  0
  4  8  2  0  0  0  0
  4  2  1  0  0  0  0
  6  2  1  6  0  0  0
  6  9  1  0  0  0  0
  6  7  1  0  0  0  0
  7 21  1  6  0  0  0
  7  5  1  0  0  0  0
  8  3  1  0  0  0  0
  9  3  1  1  0  0  0
  9  1  1  0  0  0  0
 10 17  1  0  0  0  0
 10 14  1  0  0  0  0
 10 15  1  0  0  0  0
 11 16  2  0  0  0  0
 11 13  1  0  0  0  0
 12 13  1  0  0  0  0
 14 11  1  1  0  0  0
 15 12  1  0  0  0  0
 18 17  1  0  0  0  0
 19 20  2  0  0  0  0
 19 23  1  0  0  0  0
 20 22  1  0  0  0  0
 21 24  1  0  0  0  0
 22 24  2  0  0  0  0
 23 21  2  0  0  0  0
 25 19  1  0  0  0  0
 26  8  1  0  0  0  0
 27 26  1  0  0  0  0
 29 30  1  0  0  0  0
 29 27  1  1  0  0  0
 30 28  1  6  0  0  0
 31 34  1  0  0  0  0
 32 31  1  0  0  0  0
 32 33  1  0  0  0  0
 33 29  1  0  0  0  0
 34 30  1  0  0  0  0
M  END
>  <MODEL>
9

>  <REMARK>
 VINA RESULT:      -7.9      3.710      8.135
  Name = 
  6 active torsions:
  status: ('A' for Active; 'I' for Inactive)
    1  A    between atoms: N_1  and  C_24
    2  A    between atoms: C_3  and  C_13
    3  A    between atoms: C_3  and  C_17
    4  A    between atoms: C_4  and  C_15
    5  A    between atoms: C_12  and  C_28
    6  A    between atoms: C_17  and  C_29
                            x       y       z     vdW  Elec       q    Type
                         _______ _______ _______ _____ _____    ______ ____

>  <TORSDO>
F 6

$$$$
