=
 OpenBabel11052416493D

 32 36  0  0  1  0  0  0  0  0999 V2000
  191.3670  175.2670  137.6700 C   0  0  0  0  0  2  0  0  0  0  0  0
  187.9990  177.9100  141.0900 C   0  0  0  0  0  2  0  0  0  0  0  0
  191.7610  175.4670  144.8840 O   0  0  0  0  0  0  0  0  0  0  0  0
  191.6470  176.6200  145.7080 C   0  0  0  0  0  2  0  0  0  0  0  0
  189.2090  177.1370  139.0260 C   0  0  2  0  0  3  0  0  0  0  0  0
  191.1540  177.5570  140.7210 C   0  0  0  0  0  2  0  0  0  0  0  0
  191.2480  175.6440  139.1400 C   0  0  0  0  0  2  0  0  0  0  0  0
  191.8770  175.8480  143.5130 C   0  0  0  0  0  2  0  0  0  0  0  0
  190.2670  176.9970  141.8230 C   0  0  1  0  0  3  0  0  0  0  0  0
  190.9560  177.0180  143.1470 C   0  0  1  0  0  3  0  0  0  0  0  0
  188.7930  177.9240  143.5410 N   0  0  0  0  0  0  0  0  0  0  0  0
  189.3190  176.3010  136.6680 C   0  0  0  0  0  3  0  0  0  0  0  0
  190.7280  177.0660  139.3310 C   0  0  1  0  0  3  0  0  0  0  0  0
  188.9740  177.2470  137.5490 C   0  0  0  0  0  3  0  0  0  0  0  0
  189.9930  175.0160  137.0570 C   0  0  1  0  0  3  0  0  0  0  0  0
  190.2990  177.3460  145.4850 C   0  0  0  0  0  2  0  0  0  0  0  0
  189.7930  177.0150  144.0870 C   0  0  2  0  0  3  0  0  0  0  0  0
  188.4880  178.3020  139.7010 C   0  0  0  0  0  2  0  0  0  0  0  0
  189.1470  177.9910  142.1010 C   0  0  2  0  0  3  0  0  0  0  0  0
  189.4230  172.8740  135.7720 C   0  0  0  0  0  0  0  0  0  0  0  0
  190.1030  174.1280  135.9030 N   0  0  0  0  0  2  0  0  0  0  0  0
  188.6750  172.4480  136.6910 O   0  0  0  0  0  0  0  0  0  0  0  0
  189.6010  172.0980  134.5940 N   0  0  0  0  0  1  0  0  0  0  0  0
  187.4950  177.2810  143.7520 C   0  0  0  0  0  2  0  0  0  0  0  0
  185.1640  178.3080  142.6110 O   0  0  0  0  0  0  0  0  0  0  0  0
  184.1410  179.1480  144.5620 C   0  0  2  0  0  3  0  0  0  0  0  0
  186.5660  178.1990  144.5410 C   0  0  2  0  0  3  0  0  0  0  0  0
  185.1750  178.2830  146.7100 C   0  0  0  0  0  2  0  0  0  0  0  0
  184.5580  179.4900  145.9930 C   0  0  0  0  0  2  0  0  0  0  0  0
  183.0430  178.2870  144.5770 O   0  0  0  0  0  1  0  0  0  0  0  0
  186.2590  177.5560  145.8950 C   0  0  0  0  0  2  0  0  0  0  0  0
  185.2790  178.5150  143.8100 C   0  0  0  0  0  0  0  0  0  0  0  0
  1  7  1  0  0  0  0
  3  4  1  0  0  0  0
  5 14  1  6  0  0  0
  5 13  1  0  0  0  0
  5 18  1  0  0  0  0
  8  3  1  0  0  0  0
  9  6  1  6  0  0  0
  9 19  1  0  0  0  0
  9 10  1  0  0  0  0
 10  8  1  1  0  0  0
 10 17  1  0  0  0  0
 11 24  1  0  0  0  0
 11 17  1  0  0  0  0
 12 15  1  0  0  0  0
 12 14  2  0  0  0  0
 13  7  1  1  0  0  0
 13  6  1  0  0  0  0
 15 21  1  6  0  0  0
 15  1  1  0  0  0  0
 16  4  1  0  0  0  0
 17 16  1  1  0  0  0
 18  2  1  0  0  0  0
 19  2  1  6  0  0  0
 19 11  1  0  0  0  0
 20 21  1  0  0  0  0
 20 22  2  0  0  0  0
 23 20  1  0  0  0  0
 25 32  2  0  0  0  0
 26 30  1  1  0  0  0
 26 29  1  0  0  0  0
 27 24  1  6  0  0  0
 27 31  1  0  0  0  0
 29 28  1  0  0  0  0
 31 28  1  0  0  0  0
 32 27  1  0  0  0  0
 32 26  1  0  0  0  0
M  END
>  <MODEL>
1

>  <REMARK>
 VINA RESULT:      -8.0      0.000      0.000
  Name = 
  3 active torsions:
  status: ('A' for Active; 'I' for Inactive)
    1  A    between atoms: N_10  and  C_24
    2  A    between atoms: C_11  and  C_27
    3  A    between atoms: N_16  and  C_27
                            x       y       z     vdW  Elec       q    Type
                         _______ _______ _______ _____ _____    ______ ____

>  <TORSDO>
F 3

$$$$
=
 OpenBabel11052416493D

 32 36  0  0  1  0  0  0  0  0999 V2000
  182.3520  177.4380  138.3060 C   0  0  0  0  0  2  0  0  0  0  0  0
  185.9040  178.2640  142.3950 C   0  0  0  0  0  2  0  0  0  0  0  0
  189.5210  176.5430  138.0980 O   0  0  0  0  0  0  0  0  0  0  0  0
  190.5030  177.4450  138.5910 C   0  0  0  0  0  2  0  0  0  0  0  0
  183.8320  178.2720  140.9720 C   0  0  2  0  0  3  0  0  0  0  0  0
  185.6980  178.9970  139.2920 C   0  0  0  0  0  2  0  0  0  0  0  0
  183.8510  177.5060  138.5610 C   0  0  0  0  0  2  0  0  0  0  0  0
  188.2360  177.1650  138.0920 C   0  0  0  0  0  2  0  0  0  0  0  0
  186.6380  178.0090  139.9640 C   0  0  1  0  0  3  0  0  0  0  0  0
  187.9930  178.0260  139.3380 C   0  0  1  0  0  3  0  0  0  0  0  0
  188.3750  178.1190  141.6830 N   0  0  0  0  0  0  0  0  0  0  0  0
  181.3860  177.9210  140.5640 C   0  0  0  0  0  3  0  0  0  0  0  0
  184.2230  178.6370  139.5160 C   0  0  1  0  0  3  0  0  0  0  0  0
  182.3770  178.5470  141.2100 C   0  0  0  0  0  3  0  0  0  0  0  0
  181.6170  176.8700  139.5170 C   0  0  1  0  0  3  0  0  0  0  0  0
  190.3050  177.7330  140.0990 C   0  0  0  0  0  2  0  0  0  0  0  0
  188.8410  177.4970  140.4500 C   0  0  2  0  0  3  0  0  0  0  0  0
  184.6280  179.0180  142.0410 C   0  0  0  0  0  2  0  0  0  0  0  0
  186.9900  178.5350  141.3500 C   0  0  2  0  0  3  0  0  0  0  0  0
  180.2230  174.9980  138.4600 C   0  0  0  0  0  0  0  0  0  0  0  0
  180.3500  176.2690  139.1090 N   0  0  0  0  0  2  0  0  0  0  0  0
  181.2410  174.3110  138.1830 O   0  0  0  0  0  0  0  0  0  0  0  0
  178.9310  174.5100  138.1190 N   0  0  0  0  0  1  0  0  0  0  0  0
  188.3980  177.0720  142.7050 C   0  0  0  0  0  2  0  0  0  0  0  0
  187.7170  177.6250  145.3550 O   0  0  0  0  0  0  0  0  0  0  0  0
  189.8600  177.4670  146.3240 C   0  0  2  0  0  3  0  0  0  0  0  0
  189.4680  177.3690  143.7520 C   0  0  2  0  0  3  0  0  0  0  0  0
  191.5770  176.3490  144.8290 C   0  0  0  0  0  2  0  0  0  0  0  0
  191.3140  177.4650  145.8470 C   0  0  0  0  0  2  0  0  0  0  0  0
  189.6180  176.3480  147.1220 O   0  0  0  0  0  1  0  0  0  0  0  0
  190.5420  176.2800  143.6930 C   0  0  0  0  0  2  0  0  0  0  0  0
  188.9140  177.4790  145.1560 C   0  0  0  0  0  0  0  0  0  0  0  0
  1  7  1  0  0  0  0
  1 15  1  0  0  0  0
  3  4  1  0  0  0  0
  4 16  1  0  0  0  0
  5 14  1  6  0  0  0
  5 18  1  0  0  0  0
  6 13  1  0  0  0  0
  8  3  1  0  0  0  0
  9  6  1  6  0  0  0
  9 19  1  0  0  0  0
 10  8  1  6  0  0  0
 10  9  1  0  0  0  0
 10 17  1  0  0  0  0
 11 24  1  0  0  0  0
 12 14  2  0  0  0  0
 13  7  1  6  0  0  0
 13  5  1  0  0  0  0
 15 21  1  6  0  0  0
 15 12  1  0  0  0  0
 17 16  1  6  0  0  0
 17 11  1  0  0  0  0
 18  2  1  0  0  0  0
 19 11  1  0  0  0  0
 19  2  1  1  0  0  0
 20 21  1  0  0  0  0
 22 20  2  0  0  0  0
 23 20  1  0  0  0  0
 26 30  1  6  0  0  0
 27 24  1  6  0  0  0
 27 32  1  0  0  0  0
 28 29  1  0  0  0  0
 29 26  1  0  0  0  0
 31 27  1  0  0  0  0
 31 28  1  0  0  0  0
 32 25  2  0  0  0  0
 32 26  1  0  0  0  0
M  END
>  <MODEL>
2

>  <REMARK>
 VINA RESULT:      -8.0      4.278      6.624
  Name = 
  3 active torsions:
  status: ('A' for Active; 'I' for Inactive)
    1  A    between atoms: N_10  and  C_24
    2  A    between atoms: C_11  and  C_27
    3  A    between atoms: N_16  and  C_27
                            x       y       z     vdW  Elec       q    Type
                         _______ _______ _______ _____ _____    ______ ____

>  <TORSDO>
F 3

$$$$
=
 OpenBabel11052416493D

 32 36  0  0  1  0  0  0  0  0999 V2000
  183.9800  176.9860  136.5970 C   0  0  0  0  0  2  0  0  0  0  0  0
  186.5490  178.3040  141.2540 C   0  0  0  0  0  2  0  0  0  0  0  0
  190.9070  175.7520  138.2530 O   0  0  0  0  0  0  0  0  0  0  0  0
  191.8190  176.6780  138.8290 C   0  0  0  0  0  2  0  0  0  0  0  0
  184.8690  178.1740  139.3890 C   0  0  2  0  0  3  0  0  0  0  0  0
  187.1240  178.5340  138.1190 C   0  0  0  0  0  2  0  0  0  0  0  0
  185.3810  177.0280  137.1920 C   0  0  0  0  0  2  0  0  0  0  0  0
  189.7130  176.4210  137.8470 C   0  0  0  0  0  2  0  0  0  0  0  0
  187.8010  177.6270  139.1350 C   0  0  1  0  0  3  0  0  0  0  0  0
  189.2600  177.4820  138.8580 C   0  0  1  0  0  3  0  0  0  0  0  0
  189.0980  177.9370  141.1860 N   0  0  0  0  0  0  0  0  0  0  0  0
  182.5620  177.8700  138.4610 C   0  0  0  0  0  3  0  0  0  0  0  0
  185.6130  178.2800  138.0330 C   0  0  1  0  0  3  0  0  0  0  0  0
  183.4250  178.5480  139.2270 C   0  0  0  0  0  3  0  0  0  0  0  0
  182.9420  176.6550  137.6650 C   0  0  1  0  0  3  0  0  0  0  0  0
  191.3020  177.2140  140.1860 C   0  0  0  0  0  2  0  0  0  0  0  0
  189.7830  177.1030  140.2060 C   0  0  2  0  0  3  0  0  0  0  0  0
  185.4550  179.0460  140.4970 C   0  0  0  0  0  2  0  0  0  0  0  0
  187.8650  178.3540  140.4730 C   0  0  2  0  0  3  0  0  0  0  0  0
  181.5720  174.6460  136.8580 C   0  0  0  0  0  0  0  0  0  0  0  0
  181.7590  176.0520  137.0570 N   0  0  0  0  0  2  0  0  0  0  0  0
  182.4620  173.8230  137.1970 O   0  0  0  0  0  0  0  0  0  0  0  0
  180.3690  174.1750  136.2620 N   0  0  0  0  0  1  0  0  0  0  0  0
  188.7990  177.0680  142.3260 C   0  0  0  0  0  2  0  0  0  0  0  0
  187.7690  177.8920  144.7850 O   0  0  0  0  0  0  0  0  0  0  0  0
  189.7240  177.6920  146.0870 C   0  0  2  0  0  3  0  0  0  0  0  0
  189.7180  177.3920  143.5000 C   0  0  2  0  0  3  0  0  0  0  0  0
  191.5610  176.3470  144.9690 C   0  0  0  0  0  2  0  0  0  0  0  0
  191.2290  177.5620  145.8440 C   0  0  0  0  0  2  0  0  0  0  0  0
  189.2840  176.6640  146.9210 O   0  0  0  0  0  1  0  0  0  0  0  0
  190.7060  176.2390  143.6940 C   0  0  0  0  0  2  0  0  0  0  0  0
  188.9680  177.6580  144.7880 C   0  0  0  0  0  0  0  0  0  0  0  0
  1  7  1  0  0  0  0
  1 15  1  0  0  0  0
  3  4  1  0  0  0  0
  4 16  1  0  0  0  0
  5 14  1  6  0  0  0
  5 18  1  0  0  0  0
  8  3  1  0  0  0  0
  9  6  1  6  0  0  0
  9 19  1  0  0  0  0
 10  8  1  6  0  0  0
 10  9  1  0  0  0  0
 10 17  1  0  0  0  0
 11 24  1  0  0  0  0
 12 14  2  0  0  0  0
 13  7  1  1  0  0  0
 13  6  1  0  0  0  0
 13  5  1  0  0  0  0
 15 21  1  6  0  0  0
 15 12  1  0  0  0  0
 17 16  1  6  0  0  0
 17 11  1  0  0  0  0
 18  2  1  0  0  0  0
 19 11  1  0  0  0  0
 19  2  1  1  0  0  0
 20 21  1  0  0  0  0
 20 22  2  0  0  0  0
 23 20  1  0  0  0  0
 25 32  2  0  0  0  0
 26 30  1  1  0  0  0
 27 24  1  6  0  0  0
 27 31  1  0  0  0  0
 27 32  1  0  0  0  0
 28 29  1  0  0  0  0
 29 26  1  0  0  0  0
 31 28  1  0  0  0  0
 32 26  1  0  0  0  0
M  END
>  <MODEL>
3

>  <REMARK>
 VINA RESULT:      -7.8      3.976      5.766
  Name = 
  3 active torsions:
  status: ('A' for Active; 'I' for Inactive)
    1  A    between atoms: N_10  and  C_24
    2  A    between atoms: C_11  and  C_27
    3  A    between atoms: N_16  and  C_27
                            x       y       z     vdW  Elec       q    Type
                         _______ _______ _______ _____ _____    ______ ____

>  <TORSDO>
F 3

$$$$
=
 OpenBabel11052416493D

 32 36  0  0  1  0  0  0  0  0999 V2000
  180.1200  181.0860  139.5650 C   0  0  0  0  0  2  0  0  0  0  0  0
  184.8570  178.3360  139.7080 C   0  0  0  0  0  2  0  0  0  0  0  0
  184.1650  179.6740  145.3860 O   0  0  0  0  0  0  0  0  0  0  0  0
  184.7480  178.4250  145.7310 C   0  0  0  0  0  2  0  0  0  0  0  0
  182.6500  179.2860  138.9700 C   0  0  2  0  0  3  0  0  0  0  0  0
  182.1220  178.3730  141.3610 C   0  0  0  0  0  2  0  0  0  0  0  0
  181.1010  180.4930  140.5660 C   0  0  0  0  0  2  0  0  0  0  0  0
  183.2420  179.5100  144.3100 C   0  0  0  0  0  2  0  0  0  0  0  0
  183.4970  178.8470  141.8070 C   0  0  1  0  0  3  0  0  0  0  0  0
  183.7490  178.5310  143.2430 C   0  0  1  0  0  3  0  0  0  0  0  0
  185.7060  177.8320  142.0870 N   0  0  0  0  0  0  0  0  0  0  0  0
  181.1410  180.4750  137.3620 C   0  0  0  0  0  3  0  0  0  0  0  0
  181.6240  179.1290  140.1230 C   0  0  1  0  0  3  0  0  0  0  0  0
  181.9440  179.4460  137.6560 C   0  0  0  0  0  3  0  0  0  0  0  0
  180.8460  181.5920  138.3220 C   0  0  1  0  0  3  0  0  0  0  0  0
  185.6840  177.9070  144.6130 C   0  0  0  0  0  2  0  0  0  0  0  0
  185.2430  178.5170  143.2880 C   0  0  2  0  0  3  0  0  0  0  0  0
  183.6260  178.1190  138.8360 C   0  0  0  0  0  2  0  0  0  0  0  0
  184.5530  177.9580  141.1610 C   0  0  2  0  0  3  0  0  0  0  0  0
  180.5930  183.8940  137.2260 C   0  0  0  0  0  0  0  0  0  0  0  0
  180.0650  182.6370  137.6650 N   0  0  0  0  0  2  0  0  0  0  0  0
  181.8060  184.1820  137.4050 O   0  0  0  0  0  0  0  0  0  0  0  0
  179.7350  184.8310  136.5870 N   0  0  0  0  0  1  0  0  0  0  0  0
  186.8700  178.5790  141.6120 C   0  0  0  0  0  2  0  0  0  0  0  0
  188.2540  177.5610  139.4120 O   0  0  0  0  0  0  0  0  0  0  0  0
  190.2390  176.9020  140.5010 C   0  0  2  0  0  3  0  0  0  0  0  0
  188.1430  177.7560  141.7890 C   0  0  2  0  0  3  0  0  0  0  0  0
  190.5000  177.8810  142.8260 C   0  0  0  0  0  2  0  0  0  0  0  0
  190.7040  176.6490  141.9360 C   0  0  0  0  0  2  0  0  0  0  0  0
  191.1000  177.8020  139.8720 O   0  0  0  0  0  1  0  0  0  0  0  0
  189.0980  178.5060  142.7200 C   0  0  0  0  0  2  0  0  0  0  0  0
  188.8340  177.4370  140.4810 C   0  0  0  0  0  0  0  0  0  0  0  0
  1  7  1  0  0  0  0
  3  4  1  0  0  0  0
  5 14  1  6  0  0  0
  5 13  1  0  0  0  0
  8  3  1  0  0  0  0
  9  6  1  6  0  0  0
  9 10  1  0  0  0  0
 10 17  1  0  0  0  0
 10  8  1  1  0  0  0
 11 17  1  0  0  0  0
 12 14  2  0  0  0  0
 12 15  1  0  0  0  0
 13  7  1  1  0  0  0
 13  6  1  0  0  0  0
 15 21  1  6  0  0  0
 15  1  1  0  0  0  0
 16  4  1  0  0  0  0
 17 16  1  1  0  0  0
 18  5  1  0  0  0  0
 18  2  1  0  0  0  0
 19  2  1  6  0  0  0
 19  9  1  0  0  0  0
 19 11  1  0  0  0  0
 20 22  2  0  0  0  0
 20 21  1  0  0  0  0
 23 20  1  0  0  0  0
 24 11  1  0  0  0  0
 25 32  2  0  0  0  0
 26 30  1  1  0  0  0
 26 29  1  0  0  0  0
 27 24  1  6  0  0  0
 27 31  1  0  0  0  0
 29 28  1  0  0  0  0
 31 28  1  0  0  0  0
 32 26  1  0  0  0  0
 32 27  1  0  0  0  0
M  END
>  <MODEL>
4

>  <REMARK>
 VINA RESULT:      -7.5      5.345      8.610
  Name = 
  3 active torsions:
  status: ('A' for Active; 'I' for Inactive)
    1  A    between atoms: N_10  and  C_24
    2  A    between atoms: C_11  and  C_27
    3  A    between atoms: N_16  and  C_27
                            x       y       z     vdW  Elec       q    Type
                         _______ _______ _______ _____ _____    ______ ____

>  <TORSDO>
F 3

$$$$
=
 OpenBabel11052416493D

 32 36  0  0  1  0  0  0  0  0999 V2000
  190.5460  176.5890  139.0590 C   0  0  0  0  0  2  0  0  0  0  0  0
  185.4120  178.4530  139.4980 C   0  0  0  0  0  2  0  0  0  0  0  0
  186.6340  177.2020  145.1060 O   0  0  0  0  0  0  0  0  0  0  0  0
  185.8600  178.3250  145.5040 C   0  0  0  0  0  2  0  0  0  0  0  0
  187.7100  177.9180  138.6300 C   0  0  2  0  0  3  0  0  0  0  0  0
  188.1960  178.8860  141.0080 C   0  0  0  0  0  2  0  0  0  0  0  0
  189.5310  176.9890  140.1210 C   0  0  0  0  0  2  0  0  0  0  0  0
  187.4550  177.5390  143.9870 C   0  0  0  0  0  2  0  0  0  0  0  0
  186.9520  178.1710  141.5140 C   0  0  1  0  0  3  0  0  0  0  0  0
  186.7260  178.4230  142.9680 C   0  0  1  0  0  3  0  0  0  0  0  0
  184.6170  178.7750  141.9270 N   0  0  0  0  0  0  0  0  0  0  0  0
  189.3160  177.0320  136.9240 C   0  0  0  0  0  3  0  0  0  0  0  0
  188.7520  178.2430  139.7310 C   0  0  1  0  0  3  0  0  0  0  0  0
  188.3610  177.8990  137.2780 C   0  0  0  0  0  3  0  0  0  0  0  0
  189.8550  175.9750  137.8460 C   0  0  1  0  0  3  0  0  0  0  0  0
  184.7880  178.6800  144.4460 C   0  0  0  0  0  2  0  0  0  0  0  0
  185.2580  178.1710  143.0890 C   0  0  2  0  0  3  0  0  0  0  0  0
  186.5370  178.8940  138.5690 C   0  0  0  0  0  2  0  0  0  0  0  0
  185.7220  178.8650  140.9410 C   0  0  2  0  0  3  0  0  0  0  0  0
  190.5340  173.7020  136.8790 C   0  0  0  0  0  0  0  0  0  0  0  0
  190.7710  175.0920  137.1290 N   0  0  0  0  0  2  0  0  0  0  0  0
  189.4860  173.1420  137.2940 O   0  0  0  0  0  0  0  0  0  0  0  0
  191.4990  172.9430  136.1590 N   0  0  0  0  0  1  0  0  0  0  0  0
  183.5790  177.8380  141.4970 C   0  0  0  0  0  2  0  0  0  0  0  0
  181.5310  176.7500  139.9440 O   0  0  0  0  0  0  0  0  0  0  0  0
  179.7710  178.1700  140.6110 C   0  0  2  0  0  3  0  0  0  0  0  0
  182.2440  178.5580  141.3310 C   0  0  2  0  0  3  0  0  0  0  0  0
  180.2800  179.5120  142.7030 C   0  0  0  0  0  2  0  0  0  0  0  0
  179.6200  179.5190  141.3190 C   0  0  0  0  0  2  0  0  0  0  0  0
  178.9900  177.2070  141.2490 O   0  0  0  0  0  1  0  0  0  0  0  0
  181.7150  178.9550  142.7110 C   0  0  0  0  0  2  0  0  0  0  0  0
  181.2100  177.7350  140.5930 C   0  0  0  0  0  0  0  0  0  0  0  0
  1  7  1  0  0  0  0
  3  4  1  0  0  0  0
  5 14  1  6  0  0  0
  5 13  1  0  0  0  0
  8  3  1  0  0  0  0
  9  6  1  6  0  0  0
  9 10  1  0  0  0  0
 10 17  1  0  0  0  0
 10  8  1  1  0  0  0
 11 17  1  0  0  0  0
 12 14  2  0  0  0  0
 12 15  1  0  0  0  0
 13  7  1  1  0  0  0
 13  6  1  0  0  0  0
 15 21  1  6  0  0  0
 15  1  1  0  0  0  0
 16  4  1  0  0  0  0
 17 16  1  1  0  0  0
 18  5  1  0  0  0  0
 18  2  1  0  0  0  0
 19  2  1  6  0  0  0
 19  9  1  0  0  0  0
 19 11  1  0  0  0  0
 20 21  1  0  0  0  0
 20 22  2  0  0  0  0
 23 20  1  0  0  0  0
 24 11  1  0  0  0  0
 25 32  2  0  0  0  0
 26 30  1  1  0  0  0
 26 29  1  0  0  0  0
 27 24  1  1  0  0  0
 27 31  1  0  0  0  0
 28 31  1  0  0  0  0
 29 28  1  0  0  0  0
 32 26  1  0  0  0  0
 32 27  1  0  0  0  0
M  END
>  <MODEL>
5

>  <REMARK>
 VINA RESULT:      -7.5      2.908      4.175
  Name = 
  3 active torsions:
  status: ('A' for Active; 'I' for Inactive)
    1  A    between atoms: N_10  and  C_24
    2  A    between atoms: C_11  and  C_27
    3  A    between atoms: N_16  and  C_27
                            x       y       z     vdW  Elec       q    Type
                         _______ _______ _______ _____ _____    ______ ____

>  <TORSDO>
F 3

$$$$
=
 OpenBabel11052416493D

 32 36  0  0  1  0  0  0  0  0999 V2000
  183.3880  178.0090  138.3350 C   0  0  0  0  0  2  0  0  0  0  0  0
  184.8970  178.1070  143.6020 C   0  0  0  0  0  2  0  0  0  0  0  0
  190.0520  177.0810  140.9770 O   0  0  0  0  0  0  0  0  0  0  0  0
  190.6900  177.8780  141.9640 C   0  0  0  0  0  2  0  0  0  0  0  0
  183.5940  178.3740  141.4690 C   0  0  2  0  0  3  0  0  0  0  0  0
  185.9380  179.3460  140.8460 C   0  0  0  0  0  2  0  0  0  0  0  0
  184.6440  178.0170  139.1950 C   0  0  0  0  0  2  0  0  0  0  0  0
  188.8470  177.7090  140.5360 C   0  0  0  0  0  2  0  0  0  0  0  0
  186.5770  178.2490  141.6850 C   0  0  1  0  0  3  0  0  0  0  0  0
  188.0650  178.3550  141.6870 C   0  0  1  0  0  3  0  0  0  0  0  0
  187.4470  178.0550  143.9630 N   0  0  0  0  0  0  0  0  0  0  0  0
  181.5540  178.1220  140.0360 C   0  0  0  0  0  3  0  0  0  0  0  0
  184.5250  178.9690  140.3810 C   0  0  1  0  0  3  0  0  0  0  0  0
  182.1550  178.6210  141.1220 C   0  0  0  0  0  3  0  0  0  0  0  0
  182.2560  177.2560  139.0290 C   0  0  1  0  0  3  0  0  0  0  0  0
  189.8750  177.9140  143.2790 C   0  0  0  0  0  2  0  0  0  0  0  0
  188.4130  177.6400  142.9530 C   0  0  2  0  0  3  0  0  0  0  0  0
  183.8370  178.9230  142.8730 C   0  0  0  0  0  2  0  0  0  0  0  0
  186.2980  178.5350  143.1560 C   0  0  2  0  0  3  0  0  0  0  0  0
  181.3360  175.4240  137.4920 C   0  0  0  0  0  0  0  0  0  0  0  0
  181.3050  176.7450  138.0450 N   0  0  0  0  0  2  0  0  0  0  0  0
  182.2330  174.6060  137.8270 O   0  0  0  0  0  0  0  0  0  0  0  0
  180.3480  175.0350  136.5460 N   0  0  0  0  0  1  0  0  0  0  0  0
  187.1100  176.8530  144.7270 C   0  0  0  0  0  2  0  0  0  0  0  0
  189.4940  176.4930  146.1330 O   0  0  0  0  0  0  0  0  0  0  0  0
  188.8990  177.5690  148.1440 C   0  0  2  0  0  3  0  0  0  0  0  0
  187.1950  177.1290  146.2250 C   0  0  2  0  0  3  0  0  0  0  0  0
  186.8140  179.0010  147.9570 C   0  0  0  0  0  2  0  0  0  0  0  0
  187.6150  178.0320  148.8350 C   0  0  0  0  0  2  0  0  0  0  0  0
  189.8040  178.6280  148.0600 O   0  0  0  0  0  1  0  0  0  0  0  0
  186.6100  178.5140  146.5110 C   0  0  0  0  0  2  0  0  0  0  0  0
  188.6040  177.0360  146.7700 C   0  0  0  0  0  0  0  0  0  0  0  0
  1 15  1  0  0  0  0
  1  7  1  0  0  0  0
  3  4  1  0  0  0  0
  4 16  1  0  0  0  0
  5 14  1  6  0  0  0
  5 18  1  0  0  0  0
  8  3  1  0  0  0  0
  9  6  1  6  0  0  0
  9 10  1  0  0  0  0
  9 19  1  0  0  0  0
 10  8  1  6  0  0  0
 10 17  1  0  0  0  0
 11 24  1  0  0  0  0
 12 14  2  0  0  0  0
 13  7  1  6  0  0  0
 13  6  1  0  0  0  0
 13  5  1  0  0  0  0
 15 21  1  6  0  0  0
 15 12  1  0  0  0  0
 17 16  1  1  0  0  0
 17 11  1  0  0  0  0
 18  2  1  0  0  0  0
 19  2  1  1  0  0  0
 19 11  1  0  0  0  0
 20 22  2  0  0  0  0
 20 21  1  0  0  0  0
 23 20  1  0  0  0  0
 25 32  2  0  0  0  0
 26 30  1  6  0  0  0
 26 29  1  0  0  0  0
 27 24  1  6  0  0  0
 27 31  1  0  0  0  0
 27 32  1  0  0  0  0
 28 29  1  0  0  0  0
 31 28  1  0  0  0  0
 32 26  1  0  0  0  0
M  END
>  <MODEL>
6

>  <REMARK>
 VINA RESULT:      -7.3      4.104      5.826
  Name = 
  3 active torsions:
  status: ('A' for Active; 'I' for Inactive)
    1  A    between atoms: N_10  and  C_24
    2  A    between atoms: C_11  and  C_27
    3  A    between atoms: N_16  and  C_27
                            x       y       z     vdW  Elec       q    Type
                         _______ _______ _______ _____ _____    ______ ____

>  <TORSDO>
F 3

$$$$
=
 OpenBabel11052416493D

 32 36  0  0  1  0  0  0  0  0999 V2000
  186.5230  178.2790  143.3270 C   0  0  0  0  0  2  0  0  0  0  0  0
  191.0810  176.8920  140.6190 C   0  0  0  0  0  2  0  0  0  0  0  0
  187.1030  176.6790  136.3020 O   0  0  0  0  0  0  0  0  0  0  0  0
  188.0860  177.1680  135.4000 C   0  0  0  0  0  2  0  0  0  0  0  0
  189.4880  177.7440  142.3680 C   0  0  2  0  0  3  0  0  0  0  0  0
  188.6060  178.8660  140.1780 C   0  0  0  0  0  2  0  0  0  0  0  0
  187.0190  178.0500  141.9060 C   0  0  0  0  0  2  0  0  0  0  0  0
  187.1590  177.4000  137.5330 C   0  0  0  0  0  2  0  0  0  0  0  0
  188.9290  177.5800  139.4320 C   0  0  1  0  0  3  0  0  0  0  0  0
  188.5970  177.6890  137.9810 C   0  0  1  0  0  3  0  0  0  0  0  0
  190.7820  176.7540  138.0650 N   0  0  0  0  0  0  0  0  0  0  0  0
  188.5820  177.8960  144.6980 C   0  0  0  0  0  3  0  0  0  0  0  0
  188.4140  178.6280  141.6820 C   0  0  1  0  0  3  0  0  0  0  0  0
  189.5840  178.0710  143.8280 C   0  0  0  0  0  3  0  0  0  0  0  0
  187.2360  177.3540  144.3090 C   0  0  1  0  0  3  0  0  0  0  0  0
  189.5170  176.8260  135.8790 C   0  0  0  0  0  2  0  0  0  0  0  0
  189.4930  176.6470  137.3920 C   0  0  2  0  0  3  0  0  0  0  0  0
  190.8860  177.8750  141.7670 C   0  0  0  0  0  2  0  0  0  0  0  0
  190.4430  177.4370  139.3380 C   0  0  2  0  0  3  0  0  0  0  0  0
  185.7150  178.1670  146.2040 C   0  0  0  0  0  0  0  0  0  0  0  0
  186.4120  177.1360  145.4950 N   0  0  0  0  0  2  0  0  0  0  0  0
  185.7910  179.3680  145.8340 O   0  0  0  0  0  0  0  0  0  0  0  0
  184.9320  177.8310  147.3430 N   0  0  0  0  0  1  0  0  0  0  0  0
  191.2430  175.3830  138.2880 C   0  0  0  0  0  2  0  0  0  0  0  0
  193.9300  176.0020  138.7200 O   0  0  0  0  0  0  0  0  0  0  0  0
  194.8870  174.6900  137.0100 C   0  0  2  0  0  3  0  0  0  0  0  0
  192.3150  175.0060  137.2700 C   0  0  2  0  0  3  0  0  0  0  0  0
  193.3000  172.9680  136.0360 C   0  0  0  0  0  2  0  0  0  0  0  0
  194.4150  173.9790  135.7410 C   0  0  0  0  0  2  0  0  0  0  0  0
  195.5780  173.7970  137.8300 O   0  0  0  0  0  1  0  0  0  0  0  0
  192.1590  173.5290  136.9040 C   0  0  0  0  0  2  0  0  0  0  0  0
  193.7220  175.2770  137.7580 C   0  0  0  0  0  0  0  0  0  0  0  0
  1 15  1  0  0  0  0
  2 18  1  0  0  0  0
  3  8  1  0  0  0  0
  4 16  1  0  0  0  0
  4  3  1  0  0  0  0
  5 18  1  6  0  0  0
  5 14  1  0  0  0  0
  7  1  1  0  0  0  0
  9  6  1  1  0  0  0
 10  8  1  1  0  0  0
 10  9  1  0  0  0  0
 11 24  1  0  0  0  0
 11 19  1  0  0  0  0
 13  6  1  6  0  0  0
 13  7  1  0  0  0  0
 13  5  1  0  0  0  0
 14 12  2  0  0  0  0
 15 12  1  0  0  0  0
 15 21  1  1  0  0  0
 17 16  1  6  0  0  0
 17 10  1  0  0  0  0
 17 11  1  0  0  0  0
 19  9  1  0  0  0  0
 19  2  1  1  0  0  0
 20 23  1  0  0  0  0
 21 20  1  0  0  0  0
 22 20  2  0  0  0  0
 26 32  1  0  0  0  0
 26 30  1  1  0  0  0
 27 32  1  0  0  0  0
 27 24  1  1  0  0  0
 28 31  1  0  0  0  0
 29 28  1  0  0  0  0
 29 26  1  0  0  0  0
 31 27  1  0  0  0  0
 32 25  2  0  0  0  0
M  END
>  <MODEL>
7

>  <REMARK>
 VINA RESULT:      -7.0      2.785      9.344
  Name = 
  3 active torsions:
  status: ('A' for Active; 'I' for Inactive)
    1  A    between atoms: N_10  and  C_24
    2  A    between atoms: C_11  and  C_27
    3  A    between atoms: N_16  and  C_27
                            x       y       z     vdW  Elec       q    Type
                         _______ _______ _______ _____ _____    ______ ____

>  <TORSDO>
F 3

$$$$
=
 OpenBabel11052416493D

 32 36  0  0  1  0  0  0  0  0999 V2000
  187.6760  177.9190  143.3900 C   0  0  0  0  0  2  0  0  0  0  0  0
  191.8230  176.7550  140.0040 C   0  0  0  0  0  2  0  0  0  0  0  0
  187.2120  175.2790  136.6770 O   0  0  0  0  0  0  0  0  0  0  0  0
  187.9140  175.7450  135.5330 C   0  0  0  0  0  2  0  0  0  0  0  0
  190.4590  177.6530  141.9150 C   0  0  2  0  0  3  0  0  0  0  0  0
  189.0120  178.2640  139.8270 C   0  0  0  0  0  2  0  0  0  0  0  0
  187.9330  177.5310  141.9400 C   0  0  0  0  0  2  0  0  0  0  0  0
  187.3710  176.1940  137.7620 C   0  0  0  0  0  2  0  0  0  0  0  0
  189.4040  176.9310  139.2090 C   0  0  1  0  0  3  0  0  0  0  0  0
  188.7970  176.7510  137.8570 C   0  0  1  0  0  3  0  0  0  0  0  0
  191.0860  176.1570  137.6090 N   0  0  0  0  0  0  0  0  0  0  0  0
  189.9870  178.0600  144.3410 C   0  0  0  0  0  3  0  0  0  0  0  0
  189.1430  178.2530  141.3560 C   0  0  1  0  0  3  0  0  0  0  0  0
  190.7670  178.2270  143.2660 C   0  0  0  0  0  3  0  0  0  0  0  0
  188.7040  177.2790  144.3170 C   0  0  1  0  0  3  0  0  0  0  0  0
  189.4460  175.6900  135.7450 C   0  0  0  0  0  2  0  0  0  0  0  0
  189.7330  175.7620  137.2400 C   0  0  2  0  0  3  0  0  0  0  0  0
  191.6800  177.8770  141.0240 C   0  0  0  0  0  2  0  0  0  0  0  0
  190.8770  176.9870  138.8220 C   0  0  2  0  0  3  0  0  0  0  0  0
  188.9460  176.8960  146.8390 C   0  0  0  0  0  0  0  0  0  0  0  0
  188.1620  177.1470  145.6670 N   0  0  0  0  0  2  0  0  0  0  0  0
  190.1950  176.7560  146.7610 O   0  0  0  0  0  0  0  0  0  0  0  0
  188.3050  176.7970  148.1050 N   0  0  0  0  0  1  0  0  0  0  0  0
  191.8060  174.9200  137.9140 C   0  0  0  0  0  2  0  0  0  0  0  0
  194.4720  175.6270  138.3440 O   0  0  0  0  0  0  0  0  0  0  0  0
  195.4540  174.4610  136.5450 C   0  0  2  0  0  3  0  0  0  0  0  0
  192.8760  174.6510  136.8600 C   0  0  2  0  0  3  0  0  0  0  0  0
  193.9260  172.7330  135.4920 C   0  0  0  0  0  2  0  0  0  0  0  0
  194.9920  173.8060  135.2420 C   0  0  0  0  0  2  0  0  0  0  0  0
  196.1960  173.5520  137.3000 O   0  0  0  0  0  1  0  0  0  0  0  0
  192.7770  173.1920  136.4080 C   0  0  0  0  0  2  0  0  0  0  0  0
  194.2790  174.9520  137.3430 C   0  0  0  0  0  0  0  0  0  0  0  0
  1 15  1  0  0  0  0
  2 18  1  0  0  0  0
  3  8  1  0  0  0  0
  4 16  1  0  0  0  0
  4  3  1  0  0  0  0
  5 18  1  6  0  0  0
  5 14  1  0  0  0  0
  7  1  1  0  0  0  0
  9  6  1  6  0  0  0
 10  8  1  1  0  0  0
 10  9  1  0  0  0  0
 11 24  1  0  0  0  0
 11 19  1  0  0  0  0
 13  6  1  6  0  0  0
 13  5  1  0  0  0  0
 13  7  1  0  0  0  0
 14 12  2  0  0  0  0
 15 12  1  0  0  0  0
 15 21  1  1  0  0  0
 17 16  1  6  0  0  0
 17 11  1  0  0  0  0
 17 10  1  0  0  0  0
 19  9  1  0  0  0  0
 19  2  1  1  0  0  0
 20 23  1  0  0  0  0
 21 20  1  0  0  0  0
 22 20  2  0  0  0  0
 26 30  1  1  0  0  0
 26 32  1  0  0  0  0
 27 32  1  0  0  0  0
 27 24  1  1  0  0  0
 28 31  1  0  0  0  0
 29 28  1  0  0  0  0
 29 26  1  0  0  0  0
 31 27  1  0  0  0  0
 32 25  2  0  0  0  0
M  END
>  <MODEL>
8

>  <REMARK>
 VINA RESULT:      -6.9      2.874      9.503
  Name = 
  3 active torsions:
  status: ('A' for Active; 'I' for Inactive)
    1  A    between atoms: N_10  and  C_24
    2  A    between atoms: C_11  and  C_27
    3  A    between atoms: N_16  and  C_27
                            x       y       z     vdW  Elec       q    Type
                         _______ _______ _______ _____ _____    ______ ____

>  <TORSDO>
F 3

$$$$
=
 OpenBabel11052416493D

 32 36  0  0  1  0  0  0  0  0999 V2000
  186.7070  178.2850  145.5770 C   0  0  0  0  0  2  0  0  0  0  0  0
  184.2920  177.9210  140.6720 C   0  0  0  0  0  2  0  0  0  0  0  0
  179.6100  178.2180  144.2080 O   0  0  0  0  0  0  0  0  0  0  0  0
  178.9320  178.9720  143.2130 C   0  0  0  0  0  2  0  0  0  0  0  0
  185.9890  178.2420  142.4980 C   0  0  2  0  0  3  0  0  0  0  0  0
  183.9770  179.6990  143.3090 C   0  0  0  0  0  2  0  0  0  0  0  0
  185.3310  178.4000  144.9360 C   0  0  0  0  0  2  0  0  0  0  0  0
  180.9570  178.6740  144.3420 C   0  0  0  0  0  2  0  0  0  0  0  0
  183.0350  178.6300  142.7770 C   0  0  1  0  0  3  0  0  0  0  0  0
  181.6050  179.0010  142.9910 C   0  0  1  0  0  3  0  0  0  0  0  0
  181.7420  178.2810  140.7290 N   0  0  0  0  0  0  0  0  0  0  0  0
  188.1930  177.8280  143.6140 C   0  0  0  0  0  3  0  0  0  0  0  0
  185.3760  179.1420  143.6030 C   0  0  1  0  0  3  0  0  0  0  0  0
  187.4880  178.2720  142.5680 C   0  0  0  0  0  3  0  0  0  0  0  0
  187.5630  177.2520  144.8500 C   0  0  1  0  0  3  0  0  0  0  0  0
  179.4880  178.6770  141.7990 C   0  0  0  0  0  2  0  0  0  0  0  0
  180.9260  178.1920  141.9330 C   0  0  2  0  0  3  0  0  0  0  0  0
  185.5810  178.6260  141.0780 C   0  0  0  0  0  2  0  0  0  0  0  0
  183.0790  178.6530  141.2540 C   0  0  2  0  0  3  0  0  0  0  0  0
  189.8760  177.3100  145.9520 C   0  0  0  0  0  0  0  0  0  0  0  0
  188.5880  176.7190  145.7440 N   0  0  0  0  0  2  0  0  0  0  0  0
  190.2110  178.3560  145.3380 O   0  0  0  0  0  0  0  0  0  0  0  0
  190.7890  176.7030  146.8580 N   0  0  0  0  0  1  0  0  0  0  0  0
  181.7440  176.9430  140.1350 C   0  0  0  0  0  2  0  0  0  0  0  0
  183.1350  175.4250  138.2500 O   0  0  0  0  0  0  0  0  0  0  0  0
  181.7080  175.7420  136.4000 C   0  0  2  0  0  3  0  0  0  0  0  0
  181.4010  177.0170  138.6500 C   0  0  2  0  0  3  0  0  0  0  0  0
  179.4360  176.6870  137.0140 C   0  0  0  0  0  2  0  0  0  0  0  0
  180.5840  176.6980  135.9970 C   0  0  0  0  0  2  0  0  0  0  0  0
  181.2810  174.4200  136.2700 O   0  0  0  0  0  1  0  0  0  0  0  0
  179.8910  176.8320  138.4760 C   0  0  0  0  0  2  0  0  0  0  0  0
  182.1500  176.0020  137.8140 C   0  0  0  0  0  0  0  0  0  0  0  0
  2 18  1  0  0  0  0
  3  8  1  0  0  0  0
  4  3  1  0  0  0  0
  5 18  1  6  0  0  0
  5 14  1  0  0  0  0
  5 13  1  0  0  0  0
  7  1  1  0  0  0  0
  9 10  1  0  0  0  0
  9  6  1  1  0  0  0
 10  8  1  1  0  0  0
 11 19  1  0  0  0  0
 11 17  1  0  0  0  0
 12 15  1  0  0  0  0
 13  6  1  6  0  0  0
 13  7  1  0  0  0  0
 14 12  2  0  0  0  0
 15  1  1  0  0  0  0
 15 21  1  1  0  0  0
 16  4  1  0  0  0  0
 17 16  1  6  0  0  0
 17 10  1  0  0  0  0
 19  2  1  6  0  0  0
 19  9  1  0  0  0  0
 20 23  1  0  0  0  0
 21 20  1  0  0  0  0
 22 20  2  0  0  0  0
 24 11  1  0  0  0  0
 26 30  1  1  0  0  0
 26 32  1  0  0  0  0
 27 24  1  1  0  0  0
 28 31  1  0  0  0  0
 29 26  1  0  0  0  0
 29 28  1  0  0  0  0
 31 27  1  0  0  0  0
 32 25  2  0  0  0  0
 32 27  1  0  0  0  0
M  END
>  <MODEL>
9

>  <REMARK>
 VINA RESULT:      -6.8      4.772      9.062
  Name = 
  3 active torsions:
  status: ('A' for Active; 'I' for Inactive)
    1  A    between atoms: N_10  and  C_24
    2  A    between atoms: C_11  and  C_27
    3  A    between atoms: N_16  and  C_27
                            x       y       z     vdW  Elec       q    Type
                         _______ _______ _______ _____ _____    ______ ____

>  <TORSDO>
F 3

$$$$
