=
 OpenBabel11052415503D

 34 38  0  0  1  0  0  0  0  0999 V2000
  185.9320  177.9180  143.3670 C   0  0  0  0  0  0  0  0  0  0  0  0
  188.6470  178.1130  145.8960 C   0  0  0  0  0  2  0  0  0  0  0  0
  186.3680  178.4220  146.1250 C   0  0  0  0  0  3  0  0  0  0  0  0
  183.6330  178.6140  143.9100 N   0  0  0  0  0  0  0  0  0  0  0  0
  183.1030  178.9760  145.1090 C   0  0  0  0  0  3  0  0  0  0  0  0
  185.1240  178.5740  145.5340 C   0  0  0  0  0  0  0  0  0  0  0  0
  184.9180  178.3670  144.2130 C   0  0  0  0  0  0  0  0  0  0  0  0
  184.0010  178.9520  146.0820 O   0  0  0  0  0  0  0  0  0  0  0  0
  189.9630  178.0570  145.1940 C   0  0  0  0  0  2  0  0  0  0  0  0
  190.1960  176.7620  144.5040 C   0  0  0  0  0  0  0  0  0  0  0  0
  189.3730  176.3440  143.5440 C   0  0  0  0  0  3  0  0  0  0  0  0
  187.4460  178.0140  145.3180 C   0  0  0  0  0  0  0  0  0  0  0  0
  188.0750  176.9410  143.1830 C   0  0  0  0  0  2  0  0  0  0  0  0
  187.2160  177.6590  143.9370 C   0  0  0  0  0  0  0  0  0  0  0  0
  191.4460  176.0290  144.7690 C   0  0  0  0  0  0  0  0  0  0  0  0
  192.0760  176.1510  146.0010 O   0  0  0  0  0  1  0  0  0  0  0  0
  191.9570  175.2880  143.8850 O   0  0  0  0  0  0  0  0  0  0  0  0
  185.6260  177.6870  141.9130 C   0  0  0  0  0  2  0  0  0  0  0  0
  185.9780  178.8980  141.1190 C   0  0  0  0  0  0  0  0  0  0  0  0
  186.0180  180.0200  141.6900 O   0  0  0  0  0  0  0  0  0  0  0  0
  186.2770  178.7550  139.7580 O   0  0  0  0  0  0  0  0  0  0  0  0
  188.6760  177.3720  137.3110 C   0  0  0  0  0  3  0  0  0  0  0  0
  188.6300  178.0900  140.0090 C   0  0  0  0  0  3  0  0  0  0  0  0
  192.0820  176.1570  138.4470 C   0  0  2  0  0  3  0  0  0  0  0  0
  191.0750  176.6920  137.4330 C   0  0  0  0  0  2  0  0  0  0  0  0
  189.8200  177.1950  138.0910 C   0  0  0  0  0  0  0  0  0  0  0  0
  190.9870  177.3450  140.3480 C   0  0  0  0  0  2  0  0  0  0  0  0
  189.8050  177.5790  139.4500 C   0  0  0  0  0  0  0  0  0  0  0  0
  192.2850  177.1770  139.5620 C   0  0  0  0  0  2  0  0  0  0  0  0
  187.4770  178.2590  139.2270 C   0  0  0  0  0  0  0  0  0  0  0  0
  187.5100  177.8940  137.8780 C   0  0  0  0  0  3  0  0  0  0  0  0
  193.3780  175.8540  137.7770 C   0  0  0  0  0  0  0  0  0  0  0  0
  193.9370  176.7360  137.0720 O   0  0  0  0  0  0  0  0  0  0  0  0
  193.9720  174.6050  137.9190 O   0  0  0  0  0  1  0  0  0  0  0  0
  1 14  2  0  0  0  0
  1  7  1  0  0  0  0
  4  7  1  0  0  0  0
  4  5  2  0  0  0  0
  5  8  1  0  0  0  0
  6  8  1  0  0  0  0
  6  3  1  0  0  0  0
  7  6  2  0  0  0  0
  9  2  1  0  0  0  0
 10 15  1  0  0  0  0
 10  9  1  0  0  0  0
 11 10  2  0  0  0  0
 12  2  1  0  0  0  0
 12  3  2  0  0  0  0
 13 11  1  0  0  0  0
 13 14  1  0  0  0  0
 14 12  1  0  0  0  0
 15 16  1  0  0  0  0
 17 15  2  0  0  0  0
 18  1  1  0  0  0  0
 19 20  2  0  0  0  0
 19 18  1  0  0  0  0
 21 19  1  0  0  0  0
 22 31  2  0  0  0  0
 22 26  1  0  0  0  0
 24 32  1  6  0  0  0
 24 29  1  0  0  0  0
 25 26  1  0  0  0  0
 25 24  1  0  0  0  0
 26 28  2  0  0  0  0
 28 23  1  0  0  0  0
 28 27  1  0  0  0  0
 29 27  1  0  0  0  0
 30 21  1  0  0  0  0
 30 23  2  0  0  0  0
 31 30  1  0  0  0  0
 32 34  1  0  0  0  0
 33 32  2  0  0  0  0
M  END
>  <MODEL>
1

>  <REMARK>
 VINA RESULT:     -10.0      0.000      0.000
  Name = 
  6 active torsions:
  status: ('A' for Active; 'I' for Inactive)
    1  A    between atoms: C_1  and  C_9
    2  A    between atoms: C_3  and  C_25
    3  A    between atoms: C_7  and  C_11
    4  A    between atoms: C_8  and  C_9
    5  A    between atoms: C_8  and  O_18
    6  A    between atoms: O_18  and  C_30
                            x       y       z     vdW  Elec       q    Type
                         _______ _______ _______ _____ _____    ______ ____

>  <TORSDO>
F 6

$$$$
=
 OpenBabel11052415503D

 34 38  0  0  1  0  0  0  0  0999 V2000
  190.2890  177.6820  145.3110 C   0  0  0  0  0  0  0  0  0  0  0  0
  191.2180  176.5320  141.9020 C   0  0  0  0  0  2  0  0  0  0  0  0
  191.7810  175.6730  143.9730 C   0  0  0  0  0  3  0  0  0  0  0  0
  191.3300  176.6990  147.3150 N   0  0  0  0  0  0  0  0  0  0  0  0
  192.1700  175.6340  147.4140 C   0  0  0  0  0  3  0  0  0  0  0  0
  191.7960  175.8090  145.3520 C   0  0  0  0  0  0  0  0  0  0  0  0
  191.1120  176.7860  145.9920 C   0  0  0  0  0  0  0  0  0  0  0  0
  192.4480  175.1030  146.2350 O   0  0  0  0  0  0  0  0  0  0  0  0
  190.7860  177.5620  140.9130 C   0  0  0  0  0  2  0  0  0  0  0  0
  189.3100  177.7260  140.8550 C   0  0  0  0  0  0  0  0  0  0  0  0
  188.6240  178.1000  141.9340 C   0  0  0  0  0  3  0  0  0  0  0  0
  191.0040  176.5740  143.2200 C   0  0  0  0  0  0  0  0  0  0  0  0
  189.1420  178.1950  143.3100 C   0  0  0  0  0  2  0  0  0  0  0  0
  190.1640  177.5360  143.8950 C   0  0  0  0  0  0  0  0  0  0  0  0
  188.6350  177.6430  139.5490 C   0  0  0  0  0  0  0  0  0  0  0  0
  187.4150  178.2780  139.3560 O   0  0  0  0  0  1  0  0  0  0  0  0
  189.1530  176.9980  138.5970 O   0  0  0  0  0  0  0  0  0  0  0  0
  189.5410  178.7280  146.0900 C   0  0  0  0  0  2  0  0  0  0  0  0
  188.5110  178.0830  146.9510 C   0  0  0  0  0  0  0  0  0  0  0  0
  188.5390  178.2740  148.1960 O   0  0  0  0  0  0  0  0  0  0  0  0
  187.5210  177.2930  146.3520 O   0  0  0  0  0  0  0  0  0  0  0  0
  184.1380  178.7430  146.0360 C   0  0  0  0  0  3  0  0  0  0  0  0
  186.1230  177.7020  144.3720 C   0  0  0  0  0  3  0  0  0  0  0  0
  182.3500  178.7220  142.6940 C   0  0  2  0  0  3  0  0  0  0  0  0
  182.6380  179.2360  144.1020 C   0  0  0  0  0  2  0  0  0  0  0  0
  183.9160  178.6730  144.6590 C   0  0  0  0  0  0  0  0  0  0  0  0
  184.7130  178.0080  142.3360 C   0  0  0  0  0  2  0  0  0  0  0  0
  184.9290  178.1680  143.8150 C   0  0  0  0  0  0  0  0  0  0  0  0
  183.5850  178.8960  141.8170 C   0  0  0  0  0  2  0  0  0  0  0  0
  186.3420  177.7640  145.7560 C   0  0  0  0  0  0  0  0  0  0  0  0
  185.3400  178.2850  146.5810 C   0  0  0  0  0  3  0  0  0  0  0  0
  181.1890  179.4490  142.1070 C   0  0  0  0  0  0  0  0  0  0  0  0
  180.8550  179.2300  140.9120 O   0  0  0  0  0  0  0  0  0  0  0  0
  180.4740  180.3690  142.8660 O   0  0  0  0  0  1  0  0  0  0  0  0
  1  7  1  0  0  0  0
  1 18  1  0  0  0  0
  2 12  1  0  0  0  0
  3  6  1  0  0  0  0
  4  5  2  0  0  0  0
  6  7  2  0  0  0  0
  6  8  1  0  0  0  0
  7  4  1  0  0  0  0
  8  5  1  0  0  0  0
  9  2  1  0  0  0  0
 10  9  1  0  0  0  0
 10 11  2  0  0  0  0
 11 13  1  0  0  0  0
 12 14  1  0  0  0  0
 12  3  2  0  0  0  0
 13 14  1  0  0  0  0
 14  1  2  0  0  0  0
 15 10  1  0  0  0  0
 16 15  1  0  0  0  0
 17 15  2  0  0  0  0
 18 19  1  0  0  0  0
 19 20  2  0  0  0  0
 21 19  1  0  0  0  0
 22 31  1  0  0  0  0
 23 30  1  0  0  0  0
 24 32  1  6  0  0  0
 24 25  1  0  0  0  0
 25 26  1  0  0  0  0
 26 22  2  0  0  0  0
 27 28  1  0  0  0  0
 28 23  2  0  0  0  0
 28 26  1  0  0  0  0
 29 27  1  0  0  0  0
 29 24  1  0  0  0  0
 30 21  1  0  0  0  0
 30 31  2  0  0  0  0
 32 34  1  0  0  0  0
 33 32  2  0  0  0  0
M  END
>  <MODEL>
2

>  <REMARK>
 VINA RESULT:      -9.8      2.684      8.026
  Name = 
  6 active torsions:
  status: ('A' for Active; 'I' for Inactive)
    1  A    between atoms: C_1  and  C_9
    2  A    between atoms: C_3  and  C_25
    3  A    between atoms: C_7  and  C_11
    4  A    between atoms: C_8  and  C_9
    5  A    between atoms: C_8  and  O_18
    6  A    between atoms: O_18  and  C_30
                            x       y       z     vdW  Elec       q    Type
                         _______ _______ _______ _____ _____    ______ ____

>  <TORSDO>
F 6

$$$$
=
 OpenBabel11052415503D

 34 38  0  0  1  0  0  0  0  0999 V2000
  184.2740  178.2510  142.6270 C   0  0  0  0  0  0  0  0  0  0  0  0
  184.9990  179.0600  146.1800 C   0  0  0  0  0  2  0  0  0  0  0  0
  182.9970  179.0660  145.0250 C   0  0  0  0  0  3  0  0  0  0  0  0
  182.0500  178.6650  141.6540 N   0  0  0  0  0  0  0  0  0  0  0  0
  180.9020  179.0610  142.2670 C   0  0  0  0  0  3  0  0  0  0  0  0
  182.3210  178.9870  143.8190 C   0  0  0  0  0  0  0  0  0  0  0  0
  182.9330  178.6300  142.6660 C   0  0  0  0  0  0  0  0  0  0  0  0
  181.0680  179.2530  143.5660 O   0  0  0  0  0  0  0  0  0  0  0  0
  186.4780  179.1240  146.3670 C   0  0  0  0  0  2  0  0  0  0  0  0
  187.1460  177.8150  146.1450 C   0  0  0  0  0  0  0  0  0  0  0  0
  187.0610  177.1980  144.9680 C   0  0  0  0  0  3  0  0  0  0  0  0
  184.3650  178.7400  145.0480 C   0  0  0  0  0  0  0  0  0  0  0  0
  186.1800  177.5710  143.8460 C   0  0  0  0  0  2  0  0  0  0  0  0
  185.0020  178.2290  143.8560 C   0  0  0  0  0  0  0  0  0  0  0  0
  188.0510  177.2930  147.1820 C   0  0  0  0  0  0  0  0  0  0  0  0
  187.7180  177.4210  148.5250 O   0  0  0  0  0  1  0  0  0  0  0  0
  189.1340  176.7270  146.8670 O   0  0  0  0  0  0  0  0  0  0  0  0
  184.8840  177.8450  141.3130 C   0  0  0  0  0  2  0  0  0  0  0  0
  185.5780  179.0070  140.6930 C   0  0  0  0  0  0  0  0  0  0  0  0
  184.9500  179.7430  139.8860 O   0  0  0  0  0  0  0  0  0  0  0  0
  186.9120  179.2660  141.0370 O   0  0  0  0  0  0  0  0  0  0  0  0
  190.0640  177.3400  141.1110 C   0  0  0  0  0  3  0  0  0  0  0  0
  188.3010  178.3800  139.2120 C   0  0  0  0  0  3  0  0  0  0  0  0
  191.9430  176.6200  137.8980 C   0  0  2  0  0  3  0  0  0  0  0  0
  191.5410  176.3660  139.3490 C   0  0  0  0  0  2  0  0  0  0  0  0
  190.3370  177.1730  139.7510 C   0  0  0  0  0  0  0  0  0  0  0  0
  189.7180  177.5870  137.3180 C   0  0  0  0  0  2  0  0  0  0  0  0
  189.4340  177.6790  138.7910 C   0  0  0  0  0  0  0  0  0  0  0  0
  190.7250  176.4870  136.9920 C   0  0  0  0  0  2  0  0  0  0  0  0
  188.0310  178.5550  140.5780 C   0  0  0  0  0  0  0  0  0  0  0  0
  188.9220  178.0320  141.5200 C   0  0  0  0  0  3  0  0  0  0  0  0
  193.0080  175.6630  137.4840 C   0  0  0  0  0  0  0  0  0  0  0  0
  192.8210  174.4250  137.6190 O   0  0  0  0  0  1  0  0  0  0  0  0
  194.2070  176.1270  136.9540 O   0  0  0  0  0  0  0  0  0  0  0  0
  1  7  2  0  0  0  0
  1 14  1  0  0  0  0
  2  9  1  0  0  0  0
  3 12  1  0  0  0  0
  4  5  2  0  0  0  0
  4  7  1  0  0  0  0
  5  8  1  0  0  0  0
  6  3  2  0  0  0  0
  7  6  1  0  0  0  0
  8  6  1  0  0  0  0
 10  9  1  0  0  0  0
 10 15  1  0  0  0  0
 11 10  2  0  0  0  0
 12  2  1  0  0  0  0
 13 14  1  0  0  0  0
 13 11  1  0  0  0  0
 14 12  2  0  0  0  0
 15 16  1  0  0  0  0
 17 15  2  0  0  0  0
 18  1  1  0  0  0  0
 19 21  1  0  0  0  0
 19 18  1  0  0  0  0
 20 19  2  0  0  0  0
 22 31  1  0  0  0  0
 23 30  1  0  0  0  0
 24 32  1  6  0  0  0
 24 25  1  0  0  0  0
 25 26  1  0  0  0  0
 26 22  2  0  0  0  0
 27 28  1  0  0  0  0
 28 23  2  0  0  0  0
 28 26  1  0  0  0  0
 29 27  1  0  0  0  0
 29 24  1  0  0  0  0
 30 21  1  0  0  0  0
 30 31  2  0  0  0  0
 32 33  1  0  0  0  0
 34 32  2  0  0  0  0
M  END
>  <MODEL>
3

>  <REMARK>
 VINA RESULT:      -9.5      1.890      2.899
  Name = 
  6 active torsions:
  status: ('A' for Active; 'I' for Inactive)
    1  A    between atoms: C_1  and  C_9
    2  A    between atoms: C_3  and  C_25
    3  A    between atoms: C_7  and  C_11
    4  A    between atoms: C_8  and  C_9
    5  A    between atoms: C_8  and  O_18
    6  A    between atoms: O_18  and  C_30
                            x       y       z     vdW  Elec       q    Type
                         _______ _______ _______ _____ _____    ______ ____

>  <TORSDO>
F 6

$$$$
=
 OpenBabel11052415503D

 34 38  0  0  1  0  0  0  0  0999 V2000
  187.7740  177.4240  145.2550 C   0  0  0  0  0  0  0  0  0  0  0  0
  184.3910  178.7550  144.4890 C   0  0  0  0  0  2  0  0  0  0  0  0
  185.6650  178.9300  146.4090 C   0  0  0  0  0  3  0  0  0  0  0  0
  188.7040  177.5430  147.5330 N   0  0  0  0  0  0  0  0  0  0  0  0
  188.2090  178.1700  148.6330 C   0  0  0  0  0  3  0  0  0  0  0  0
  186.7780  178.5420  147.1360 C   0  0  0  0  0  0  0  0  0  0  0  0
  187.7710  177.7950  146.5990 C   0  0  0  0  0  0  0  0  0  0  0  0
  187.0530  178.7680  148.3920 O   0  0  0  0  0  0  0  0  0  0  0  0
  183.9270  178.1720  143.1960 C   0  0  0  0  0  2  0  0  0  0  0  0
  184.7580  178.5940  142.0390 C   0  0  0  0  0  0  0  0  0  0  0  0
  186.0580  178.3120  141.9970 C   0  0  0  0  0  3  0  0  0  0  0  0
  185.5830  178.5500  145.0570 C   0  0  0  0  0  0  0  0  0  0  0  0
  186.8730  177.7710  143.0990 C   0  0  0  0  0  2  0  0  0  0  0  0
  186.6940  177.8700  144.4330 C   0  0  0  0  0  0  0  0  0  0  0  0
  184.0940  179.1710  140.8580 C   0  0  0  0  0  0  0  0  0  0  0  0
  182.7210  179.0350  140.6970 O   0  0  0  0  0  1  0  0  0  0  0  0
  184.7600  179.7890  139.9830 O   0  0  0  0  0  0  0  0  0  0  0  0
  188.9220  176.6130  144.7210 C   0  0  0  0  0  2  0  0  0  0  0  0
  190.1150  177.4840  144.5260 C   0  0  0  0  0  0  0  0  0  0  0  0
  191.0430  177.4610  145.3780 O   0  0  0  0  0  0  0  0  0  0  0  0
  190.1840  178.2970  143.3870 O   0  0  0  0  0  0  0  0  0  0  0  0
  192.1090  177.2020  140.4290 C   0  0  0  0  0  3  0  0  0  0  0  0
  189.4480  177.6960  141.1200 C   0  0  0  0  0  3  0  0  0  0  0  0
  190.3990  176.8190  137.0670 C   0  0  2  0  0  3  0  0  0  0  0  0
  191.4840  176.5400  138.1040 C   0  0  0  0  0  2  0  0  0  0  0  0
  191.1070  177.0470  139.4690 C   0  0  0  0  0  0  0  0  0  0  0  0
  188.6520  177.1870  138.8100 C   0  0  0  0  0  2  0  0  0  0  0  0
  189.7580  177.2740  139.8240 C   0  0  0  0  0  0  0  0  0  0  0  0
  189.0470  176.3520  137.5940 C   0  0  0  0  0  2  0  0  0  0  0  0
  190.4560  177.8610  142.0820 C   0  0  0  0  0  0  0  0  0  0  0  0
  191.7850  177.6140  141.7250 C   0  0  0  0  0  3  0  0  0  0  0  0
  190.7220  176.1330  135.7840 C   0  0  0  0  0  0  0  0  0  0  0  0
  189.8140  175.9410  134.9340 O   0  0  0  0  0  0  0  0  0  0  0  0
  192.0170  175.7000  135.5210 O   0  0  0  0  0  1  0  0  0  0  0  0
  1  7  1  0  0  0  0
  2 12  1  0  0  0  0
  3  6  1  0  0  0  0
  4  5  2  0  0  0  0
  6  8  1  0  0  0  0
  7  6  2  0  0  0  0
  7  4  1  0  0  0  0
  8  5  1  0  0  0  0
  9  2  1  0  0  0  0
 10  9  1  0  0  0  0
 11 10  2  0  0  0  0
 11 13  1  0  0  0  0
 12  3  2  0  0  0  0
 13 14  1  0  0  0  0
 14 12  1  0  0  0  0
 14  1  2  0  0  0  0
 15 10  1  0  0  0  0
 16 15  1  0  0  0  0
 17 15  2  0  0  0  0
 18  1  1  0  0  0  0
 19 18  1  0  0  0  0
 19 20  2  0  0  0  0
 21 19  1  0  0  0  0
 22 31  1  0  0  0  0
 23 30  1  0  0  0  0
 24 32  1  6  0  0  0
 24 29  1  0  0  0  0
 24 25  1  0  0  0  0
 25 26  1  0  0  0  0
 26 28  1  0  0  0  0
 26 22  2  0  0  0  0
 27 28  1  0  0  0  0
 28 23  2  0  0  0  0
 29 27  1  0  0  0  0
 30 21  1  0  0  0  0
 31 30  2  0  0  0  0
 33 32  2  0  0  0  0
 34 32  1  0  0  0  0
M  END
>  <MODEL>
4

>  <REMARK>
 VINA RESULT:      -9.5      2.153      4.883
  Name = 
  6 active torsions:
  status: ('A' for Active; 'I' for Inactive)
    1  A    between atoms: C_1  and  C_9
    2  A    between atoms: C_3  and  C_25
    3  A    between atoms: C_7  and  C_11
    4  A    between atoms: C_8  and  C_9
    5  A    between atoms: C_8  and  O_18
    6  A    between atoms: O_18  and  C_30
                            x       y       z     vdW  Elec       q    Type
                         _______ _______ _______ _____ _____    ______ ____

>  <TORSDO>
F 6

$$$$
=
 OpenBabel11052415503D

 34 38  0  0  1  0  0  0  0  0999 V2000
  182.0430  178.8420  142.3280 C   0  0  0  0  0  0  0  0  0  0  0  0
  182.9500  178.8820  138.7250 C   0  0  0  0  0  2  0  0  0  0  0  0
  181.1670  179.8560  139.8270 C   0  0  0  0  0  3  0  0  0  0  0  0
  179.8870  179.7390  143.1100 N   0  0  0  0  0  0  0  0  0  0  0  0
  178.9330  180.4150  142.4150 C   0  0  0  0  0  3  0  0  0  0  0  0
  180.4170  179.9950  140.9840 C   0  0  0  0  0  0  0  0  0  0  0  0
  180.8150  179.4840  142.1720 C   0  0  0  0  0  0  0  0  0  0  0  0
  179.2540  180.5670  141.1400 O   0  0  0  0  0  0  0  0  0  0  0  0
  184.0620  177.9140  138.4980 C   0  0  0  0  0  2  0  0  0  0  0  0
  185.3160  178.2990  139.1960 C   0  0  0  0  0  0  0  0  0  0  0  0
  185.3470  178.4220  140.5220 C   0  0  0  0  0  3  0  0  0  0  0  0
  182.3980  179.1790  139.9050 C   0  0  0  0  0  0  0  0  0  0  0  0
  184.1850  178.4120  141.4290 C   0  0  0  0  0  2  0  0  0  0  0  0
  182.9000  178.7460  141.1880 C   0  0  0  0  0  0  0  0  0  0  0  0
  186.5680  178.3700  138.4240 C   0  0  0  0  0  0  0  0  0  0  0  0
  187.7920  178.3530  139.0800 O   0  0  0  0  0  1  0  0  0  0  0  0
  186.5440  178.4500  137.1650 O   0  0  0  0  0  0  0  0  0  0  0  0
  182.4310  178.3180  143.6840 C   0  0  0  0  0  2  0  0  0  0  0  0
  183.2200  179.3450  144.4200 C   0  0  0  0  0  0  0  0  0  0  0  0
  183.2730  180.5220  143.9720 O   0  0  0  0  0  0  0  0  0  0  0  0
  183.8710  178.9800  145.6060 O   0  0  0  0  0  0  0  0  0  0  0  0
  187.1580  177.5890  144.6520 C   0  0  0  0  0  3  0  0  0  0  0  0
  185.9160  178.6330  146.9240 C   0  0  0  0  0  3  0  0  0  0  0  0
  189.7990  176.9360  147.2910 C   0  0  2  0  0  3  0  0  0  0  0  0
  189.3020  177.2150  145.8760 C   0  0  0  0  0  2  0  0  0  0  0  0
  187.8620  177.6480  145.8560 C   0  0  0  0  0  0  0  0  0  0  0  0
  187.9320  178.2190  148.3350 C   0  0  0  0  0  2  0  0  0  0  0  0
  187.2420  178.1970  147.0000 C   0  0  0  0  0  0  0  0  0  0  0  0
  189.4490  178.1050  148.2040 C   0  0  0  0  0  2  0  0  0  0  0  0
  185.2060  178.5660  145.7160 C   0  0  0  0  0  0  0  0  0  0  0  0
  185.8370  178.0380  144.5840 C   0  0  0  0  0  3  0  0  0  0  0  0
  191.2720  176.7040  147.2850 C   0  0  0  0  0  0  0  0  0  0  0  0
  191.8130  176.1700  146.2810 O   0  0  0  0  0  0  0  0  0  0  0  0
  192.0490  177.0670  148.3780 O   0  0  0  0  0  1  0  0  0  0  0  0
  1 18  1  0  0  0  0
  2 12  1  0  0  0  0
  3 12  2  0  0  0  0
  3  6  1  0  0  0  0
  5  4  2  0  0  0  0
  6  8  1  0  0  0  0
  6  7  2  0  0  0  0
  7  1  1  0  0  0  0
  7  4  1  0  0  0  0
  8  5  1  0  0  0  0
  9  2  1  0  0  0  0
  9 10  1  0  0  0  0
 10 11  2  0  0  0  0
 11 13  1  0  0  0  0
 12 14  1  0  0  0  0
 14 13  1  0  0  0  0
 14  1  2  0  0  0  0
 15 16  1  0  0  0  0
 15 10  1  0  0  0  0
 17 15  2  0  0  0  0
 18 19  1  0  0  0  0
 19 21  1  0  0  0  0
 20 19  2  0  0  0  0
 21 30  1  0  0  0  0
 22 26  1  0  0  0  0
 23 28  1  0  0  0  0
 24 32  1  6  0  0  0
 24 29  1  0  0  0  0
 25 24  1  0  0  0  0
 26 25  1  0  0  0  0
 26 28  2  0  0  0  0
 28 27  1  0  0  0  0
 29 27  1  0  0  0  0
 30 23  2  0  0  0  0
 31 22  2  0  0  0  0
 31 30  1  0  0  0  0
 32 34  1  0  0  0  0
 33 32  2  0  0  0  0
M  END
>  <MODEL>
5

>  <REMARK>
 VINA RESULT:      -9.4      3.343      7.403
  Name = 
  6 active torsions:
  status: ('A' for Active; 'I' for Inactive)
    1  A    between atoms: C_1  and  C_9
    2  A    between atoms: C_3  and  C_25
    3  A    between atoms: C_7  and  C_11
    4  A    between atoms: C_8  and  C_9
    5  A    between atoms: C_8  and  O_18
    6  A    between atoms: O_18  and  C_30
                            x       y       z     vdW  Elec       q    Type
                         _______ _______ _______ _____ _____    ______ ____

>  <TORSDO>
F 6

$$$$
=
 OpenBabel11052415503D

 34 38  0  0  1  0  0  0  0  0999 V2000
  190.0140  176.7530  144.7400 C   0  0  0  0  0  0  0  0  0  0  0  0
  186.7000  177.7620  146.0820 C   0  0  0  0  0  2  0  0  0  0  0  0
  188.7520  177.6050  147.1340 C   0  0  0  0  0  3  0  0  0  0  0  0
  191.9410  176.4020  146.2330 N   0  0  0  0  0  0  0  0  0  0  0  0
  192.0530  176.6480  147.5660 C   0  0  0  0  0  3  0  0  0  0  0  0
  190.0760  177.1970  147.1010 C   0  0  0  0  0  0  0  0  0  0  0  0
  190.6720  176.7580  145.9690 C   0  0  0  0  0  0  0  0  0  0  0  0
  190.9320  177.1240  148.0840 O   0  0  0  0  0  0  0  0  0  0  0  0
  185.6570  177.4770  145.0540 C   0  0  0  0  0  2  0  0  0  0  0  0
  185.8190  178.2940  143.8240 C   0  0  0  0  0  0  0  0  0  0  0  0
  186.9300  178.2130  143.0940 C   0  0  0  0  0  3  0  0  0  0  0  0
  188.0160  177.5820  145.9350 C   0  0  0  0  0  0  0  0  0  0  0  0
  188.1750  177.5210  143.4700 C   0  0  0  0  0  2  0  0  0  0  0  0
  188.6730  177.2450  144.6940 C   0  0  0  0  0  0  0  0  0  0  0  0
  184.6670  179.0620  143.3220 C   0  0  0  0  0  0  0  0  0  0  0  0
  184.3470  179.0320  141.9700 O   0  0  0  0  0  0  0  0  0  0  0  0
  183.9620  179.7520  144.1070 O   0  0  0  0  0  1  0  0  0  0  0  0
  190.7460  176.2720  143.5170 C   0  0  0  0  0  2  0  0  0  0  0  0
  191.4610  177.4090  142.8710 C   0  0  0  0  0  0  0  0  0  0  0  0
  191.5710  178.5010  143.4910 O   0  0  0  0  0  0  0  0  0  0  0  0
  192.0090  177.2300  141.5950 O   0  0  0  0  0  0  0  0  0  0  0  0
  191.2800  176.7320  138.0070 C   0  0  0  0  0  3  0  0  0  0  0  0
  189.9610  177.6340  140.2970 C   0  0  0  0  0  3  0  0  0  0  0  0
  188.0070  177.9510  136.5320 C   0  0  2  0  0  3  0  0  0  0  0  0
  189.2530  177.0710  136.5890 C   0  0  0  0  0  2  0  0  0  0  0  0
  189.9570  177.1710  137.9140 C   0  0  0  0  0  0  0  0  0  0  0  0
  187.8840  178.1520  139.0150 C   0  0  0  0  0  2  0  0  0  0  0  0
  189.2820  177.6050  139.0760 C   0  0  0  0  0  0  0  0  0  0  0  0
  187.1410  177.7000  137.7610 C   0  0  0  0  0  2  0  0  0  0  0  0
  191.2930  177.2020  140.3890 C   0  0  0  0  0  0  0  0  0  0  0  0
  191.9450  176.7540  139.2360 C   0  0  0  0  0  3  0  0  0  0  0  0
  187.2370  177.6750  135.2860 C   0  0  0  0  0  0  0  0  0  0  0  0
  186.8040  178.6350  134.5960 O   0  0  0  0  0  0  0  0  0  0  0  0
  186.9890  176.3670  134.8840 O   0  0  0  0  0  1  0  0  0  0  0  0
  1  7  1  0  0  0  0
  4  5  2  0  0  0  0
  5  8  1  0  0  0  0
  6  3  1  0  0  0  0
  6  8  1  0  0  0  0
  7  4  1  0  0  0  0
  7  6  2  0  0  0  0
  9  2  1  0  0  0  0
 10  9  1  0  0  0  0
 11 13  1  0  0  0  0
 11 10  2  0  0  0  0
 12  2  1  0  0  0  0
 12  3  2  0  0  0  0
 13 14  1  0  0  0  0
 14  1  2  0  0  0  0
 14 12  1  0  0  0  0
 15 10  1  0  0  0  0
 15 17  1  0  0  0  0
 16 15  2  0  0  0  0
 18  1  1  0  0  0  0
 19 20  2  0  0  0  0
 19 18  1  0  0  0  0
 21 19  1  0  0  0  0
 22 31  1  0  0  0  0
 23 30  1  0  0  0  0
 24 32  1  6  0  0  0
 24 25  1  0  0  0  0
 24 29  1  0  0  0  0
 25 26  1  0  0  0  0
 26 22  2  0  0  0  0
 26 28  1  0  0  0  0
 27 28  1  0  0  0  0
 28 23  2  0  0  0  0
 29 27  1  0  0  0  0
 30 21  1  0  0  0  0
 31 30  2  0  0  0  0
 33 32  2  0  0  0  0
 34 32  1  0  0  0  0
M  END
>  <MODEL>
6

>  <REMARK>
 VINA RESULT:      -9.3      2.507      5.517
  Name = 
  6 active torsions:
  status: ('A' for Active; 'I' for Inactive)
    1  A    between atoms: C_1  and  C_9
    2  A    between atoms: C_3  and  C_25
    3  A    between atoms: C_7  and  C_11
    4  A    between atoms: C_8  and  C_9
    5  A    between atoms: C_8  and  O_18
    6  A    between atoms: O_18  and  C_30
                            x       y       z     vdW  Elec       q    Type
                         _______ _______ _______ _____ _____    ______ ____

>  <TORSDO>
F 6

$$$$
=
 OpenBabel11052415503D

 34 38  0  0  1  0  0  0  0  0999 V2000
  179.6780  178.1970  140.9250 C   0  0  0  0  0  0  0  0  0  0  0  0
  181.7980  179.3480  138.0990 C   0  0  0  0  0  2  0  0  0  0  0  0
  181.0290  177.2330  138.6240 C   0  0  0  0  0  3  0  0  0  0  0  0
  179.3060  175.7990  141.3440 N   0  0  0  0  0  0  0  0  0  0  0  0
  179.6700  174.7270  140.5910 C   0  0  0  0  0  3  0  0  0  0  0  0
  180.4080  176.3840  139.5260 C   0  0  0  0  0  0  0  0  0  0  0  0
  179.7910  176.8370  140.6410 C   0  0  0  0  0  0  0  0  0  0  0  0
  180.3320  175.0810  139.5010 O   0  0  0  0  0  0  0  0  0  0  0  0
  182.1960  180.7650  138.3440 C   0  0  0  0  0  2  0  0  0  0  0  0
  181.0410  181.7000  138.3390 C   0  0  0  0  0  0  0  0  0  0  0  0
  180.0470  181.5570  139.2140 C   0  0  0  0  0  3  0  0  0  0  0  0
  180.9910  178.6170  138.8730 C   0  0  0  0  0  0  0  0  0  0  0  0
  179.8340  180.4120  140.1170 C   0  0  0  0  0  2  0  0  0  0  0  0
  180.2230  179.1260  139.9860 C   0  0  0  0  0  0  0  0  0  0  0  0
  181.0920  182.8920  137.4760 C   0  0  0  0  0  0  0  0  0  0  0  0
  182.0380  183.8810  137.7120 O   0  0  0  0  0  1  0  0  0  0  0  0
  180.2810  183.0300  136.5200 O   0  0  0  0  0  0  0  0  0  0  0  0
  178.9590  178.6290  142.1730 C   0  0  0  0  0  2  0  0  0  0  0  0
  179.8900  178.5940  143.3360 C   0  0  0  0  0  0  0  0  0  0  0  0
  179.6810  177.7740  144.2700 O   0  0  0  0  0  0  0  0  0  0  0  0
  180.9880  179.4640  143.3540 O   0  0  0  0  0  0  0  0  0  0  0  0
  184.3700  178.2760  142.4580 C   0  0  0  0  0  3  0  0  0  0  0  0
  182.9780  179.0760  144.7430 C   0  0  0  0  0  3  0  0  0  0  0  0
  186.9020  177.4880  145.1670 C   0  0  2  0  0  3  0  0  0  0  0  0
  186.4640  177.8720  143.7560 C   0  0  0  0  0  2  0  0  0  0  0  0
  185.0110  178.2540  143.6980 C   0  0  0  0  0  0  0  0  0  0  0  0
  184.9370  178.6100  146.2170 C   0  0  0  0  0  2  0  0  0  0  0  0
  184.3140  178.6810  144.8510 C   0  0  0  0  0  0  0  0  0  0  0  0
  186.4610  178.5620  146.1560 C   0  0  0  0  0  2  0  0  0  0  0  0
  182.3320  179.0880  143.4980 C   0  0  0  0  0  0  0  0  0  0  0  0
  183.0370  178.6840  142.3600 C   0  0  0  0  0  3  0  0  0  0  0  0
  188.3810  177.3090  145.2170 C   0  0  0  0  0  0  0  0  0  0  0  0
  189.0210  177.6960  146.2300 O   0  0  0  0  0  1  0  0  0  0  0  0
  189.0580  176.7220  144.1540 O   0  0  0  0  0  0  0  0  0  0  0  0
  1 18  1  0  0  0  0
  2  9  1  0  0  0  0
  2 12  1  0  0  0  0
  3 12  2  0  0  0  0
  3  6  1  0  0  0  0
  5  4  2  0  0  0  0
  6  7  2  0  0  0  0
  7  1  1  0  0  0  0
  7  4  1  0  0  0  0
  8  6  1  0  0  0  0
  8  5  1  0  0  0  0
 10  9  1  0  0  0  0
 10 11  2  0  0  0  0
 11 13  1  0  0  0  0
 12 14  1  0  0  0  0
 14 13  1  0  0  0  0
 14  1  2  0  0  0  0
 15 16  1  0  0  0  0
 15 10  1  0  0  0  0
 17 15  2  0  0  0  0
 18 19  1  0  0  0  0
 19 21  1  0  0  0  0
 19 20  2  0  0  0  0
 21 30  1  0  0  0  0
 22 26  1  0  0  0  0
 23 28  1  0  0  0  0
 24 32  1  6  0  0  0
 24 29  1  0  0  0  0
 25 24  1  0  0  0  0
 26 25  1  0  0  0  0
 26 28  2  0  0  0  0
 28 27  1  0  0  0  0
 29 27  1  0  0  0  0
 30 23  2  0  0  0  0
 31 22  2  0  0  0  0
 31 30  1  0  0  0  0
 32 33  1  0  0  0  0
 34 32  2  0  0  0  0
M  END
>  <MODEL>
7

>  <REMARK>
 VINA RESULT:      -9.2      4.800      9.159
  Name = 
  6 active torsions:
  status: ('A' for Active; 'I' for Inactive)
    1  A    between atoms: C_1  and  C_9
    2  A    between atoms: C_3  and  C_25
    3  A    between atoms: C_7  and  C_11
    4  A    between atoms: C_8  and  C_9
    5  A    between atoms: C_8  and  O_18
    6  A    between atoms: O_18  and  C_30
                            x       y       z     vdW  Elec       q    Type
                         _______ _______ _______ _____ _____    ______ ____

>  <TORSDO>
F 6

$$$$
=
 OpenBabel11052415503D

 34 38  0  0  1  0  0  0  0  0999 V2000
  188.5490  177.9360  138.5240 C   0  0  0  0  0  0  0  0  0  0  0  0
  184.8610  178.3570  138.6770 C   0  0  0  0  0  2  0  0  0  0  0  0
  186.1720  177.2260  137.1470 C   0  0  0  0  0  3  0  0  0  0  0  0
  189.6340  176.9150  136.5630 N   0  0  0  0  0  0  0  0  0  0  0  0
  189.0690  176.3160  135.4810 C   0  0  0  0  0  3  0  0  0  0  0  0
  187.4300  176.9340  136.6470 C   0  0  0  0  0  0  0  0  0  0  0  0
  188.5670  177.2990  137.2830 C   0  0  0  0  0  0  0  0  0  0  0  0
  187.7470  176.3290  135.5340 O   0  0  0  0  0  0  0  0  0  0  0  0
  184.5350  179.3640  139.7300 C   0  0  0  0  0  2  0  0  0  0  0  0
  184.9100  178.9140  141.0960 C   0  0  0  0  0  0  0  0  0  0  0  0
  186.1760  178.6280  141.3940 C   0  0  0  0  0  3  0  0  0  0  0  0
  186.0820  177.9080  138.3750 C   0  0  0  0  0  0  0  0  0  0  0  0
  187.2940  178.5080  140.4420 C   0  0  0  0  0  2  0  0  0  0  0  0
  187.2800  178.1860  139.1310 C   0  0  0  0  0  0  0  0  0  0  0  0
  183.8970  178.9590  142.1630 C   0  0  0  0  0  0  0  0  0  0  0  0
  184.2510  179.3730  143.4410 O   0  0  0  0  0  1  0  0  0  0  0  0
  182.7030  178.6220  141.9330 O   0  0  0  0  0  0  0  0  0  0  0  0
  189.8520  178.2930  139.1840 C   0  0  0  0  0  2  0  0  0  0  0  0
  190.5610  177.0560  139.6150 C   0  0  0  0  0  0  0  0  0  0  0  0
  191.6650  176.7600  139.0850 O   0  0  0  0  0  0  0  0  0  0  0  0
  189.9900  176.2590  140.6160 O   0  0  0  0  0  0  0  0  0  0  0  0
  191.1100  176.9820  144.0620 C   0  0  0  0  0  3  0  0  0  0  0  0
  188.7080  176.7420  142.6570 C   0  0  0  0  0  3  0  0  0  0  0  0
  188.5870  177.2390  146.8800 C   0  0  2  0  0  3  0  0  0  0  0  0
  189.9220  177.5130  146.1930 C   0  0  0  0  0  2  0  0  0  0  0  0
  189.8970  177.1400  144.7370 C   0  0  0  0  0  0  0  0  0  0  0  0
  187.3520  177.1340  144.7150 C   0  0  0  0  0  2  0  0  0  0  0  0
  188.6830  177.0410  144.0220 C   0  0  0  0  0  0  0  0  0  0  0  0
  187.4510  177.8430  146.0630 C   0  0  0  0  0  2  0  0  0  0  0  0
  189.9260  176.5740  141.9810 C   0  0  0  0  0  0  0  0  0  0  0  0
  191.1230  176.6940  142.6950 C   0  0  0  0  0  3  0  0  0  0  0  0
  188.5920  177.8010  148.2610 C   0  0  0  0  0  0  0  0  0  0  0  0
  187.5460  177.7460  148.9590 O   0  0  0  0  0  1  0  0  0  0  0  0
  189.7400  178.3870  148.7810 O   0  0  0  0  0  0  0  0  0  0  0  0
  1 14  1  0  0  0  0
  1 18  1  0  0  0  0
  2  9  1  0  0  0  0
  3 12  1  0  0  0  0
  4  7  1  0  0  0  0
  5  8  1  0  0  0  0
  5  4  2  0  0  0  0
  6  3  2  0  0  0  0
  6  7  1  0  0  0  0
  7  1  2  0  0  0  0
  8  6  1  0  0  0  0
  9 10  1  0  0  0  0
 10 11  2  0  0  0  0
 10 15  1  0  0  0  0
 12  2  1  0  0  0  0
 12 14  2  0  0  0  0
 13 11  1  0  0  0  0
 14 13  1  0  0  0  0
 15 16  1  0  0  0  0
 17 15  2  0  0  0  0
 18 19  1  0  0  0  0
 19 21  1  0  0  0  0
 20 19  2  0  0  0  0
 21 30  1  0  0  0  0
 22 26  1  0  0  0  0
 23 28  1  0  0  0  0
 24 32  1  1  0  0  0
 25 24  1  0  0  0  0
 26 25  1  0  0  0  0
 27 29  1  0  0  0  0
 28 27  1  0  0  0  0
 28 26  2  0  0  0  0
 29 24  1  0  0  0  0
 30 23  2  0  0  0  0
 30 31  1  0  0  0  0
 31 22  2  0  0  0  0
 32 34  2  0  0  0  0
 32 33  1  0  0  0  0
M  END
>  <MODEL>
8

>  <REMARK>
 VINA RESULT:      -9.1      2.752      8.015
  Name = 
  6 active torsions:
  status: ('A' for Active; 'I' for Inactive)
    1  A    between atoms: C_1  and  C_9
    2  A    between atoms: C_3  and  C_25
    3  A    between atoms: C_7  and  C_11
    4  A    between atoms: C_8  and  C_9
    5  A    between atoms: C_8  and  O_18
    6  A    between atoms: O_18  and  C_30
                            x       y       z     vdW  Elec       q    Type
                         _______ _______ _______ _____ _____    ______ ____

>  <TORSDO>
F 6

$$$$
=
 OpenBabel11052415503D

 34 38  0  0  1  0  0  0  0  0999 V2000
  189.4430  177.1760  141.8210 C   0  0  0  0  0  0  0  0  0  0  0  0
  190.3270  177.2260  145.4290 C   0  0  0  0  0  2  0  0  0  0  0  0
  191.6480  177.5670  143.5630 C   0  0  0  0  0  3  0  0  0  0  0  0
  191.1830  177.2790  140.0810 N   0  0  0  0  0  0  0  0  0  0  0  0
  192.5200  177.4890  140.2120 C   0  0  0  0  0  3  0  0  0  0  0  0
  191.7940  177.5210  142.1860 C   0  0  0  0  0  0  0  0  0  0  0  0
  190.7510  177.3020  141.3530 C   0  0  0  0  0  0  0  0  0  0  0  0
  192.8840  177.6340  141.4760 O   0  0  0  0  0  0  0  0  0  0  0  0
  189.1640  176.7210  146.2160 C   0  0  0  0  0  2  0  0  0  0  0  0
  187.9720  177.6030  146.1180 C   0  0  0  0  0  0  0  0  0  0  0  0
  187.4010  177.8460  144.9400 C   0  0  0  0  0  3  0  0  0  0  0  0
  190.3590  177.4020  144.1050 C   0  0  0  0  0  0  0  0  0  0  0  0
  187.9390  177.4890  143.6160 C   0  0  0  0  0  2  0  0  0  0  0  0
  189.2180  177.3020  143.2260 C   0  0  0  0  0  0  0  0  0  0  0  0
  187.3230  178.0620  147.3570 C   0  0  0  0  0  0  0  0  0  0  0  0
  187.8270  177.6750  148.5920 O   0  0  0  0  0  1  0  0  0  0  0  0
  186.3040  178.8060  147.3120 O   0  0  0  0  0  0  0  0  0  0  0  0
  188.3290  176.9560  140.8340 C   0  0  0  0  0  2  0  0  0  0  0  0
  188.0360  178.2210  140.1050 C   0  0  0  0  0  0  0  0  0  0  0  0
  188.4970  178.3850  138.9440 O   0  0  0  0  0  0  0  0  0  0  0  0
  187.2390  179.1930  140.7230 O   0  0  0  0  0  0  0  0  0  0  0  0
  183.6000  178.6960  140.3180 C   0  0  0  0  0  3  0  0  0  0  0  0
  185.4230  179.1690  142.3790 C   0  0  0  0  0  3  0  0  0  0  0  0
  181.2620  179.1900  143.2600 C   0  0  2  0  0  3  0  0  0  0  0  0
  181.6750  178.6200  141.9060 C   0  0  0  0  0  2  0  0  0  0  0  0
  183.1400  178.8220  141.6300 C   0  0  0  0  0  0  0  0  0  0  0  0
  183.6120  179.2490  144.0940 C   0  0  0  0  0  2  0  0  0  0  0  0
  184.0640  179.0380  142.6760 C   0  0  0  0  0  0  0  0  0  0  0  0
  182.2120  178.6930  144.3430 C   0  0  0  0  0  2  0  0  0  0  0  0
  185.8850  179.0530  141.0600 C   0  0  0  0  0  0  0  0  0  0  0  0
  184.9630  178.8180  140.0340 C   0  0  0  0  0  3  0  0  0  0  0  0
  179.8590  178.7980  143.5780 C   0  0  0  0  0  0  0  0  0  0  0  0
  178.9700  179.6850  143.6700 O   0  0  0  0  0  0  0  0  0  0  0  0
  179.5270  177.4630  143.7780 O   0  0  0  0  0  1  0  0  0  0  0  0
  1 14  1  0  0  0  0
  2  9  1  0  0  0  0
  3 12  1  0  0  0  0
  4  5  2  0  0  0  0
  4  7  1  0  0  0  0
  5  8  1  0  0  0  0
  6  3  2  0  0  0  0
  7  1  2  0  0  0  0
  7  6  1  0  0  0  0
  8  6  1  0  0  0  0
 10  9  1  0  0  0  0
 10 15  1  0  0  0  0
 11 10  2  0  0  0  0
 12  2  1  0  0  0  0
 13 11  1  0  0  0  0
 14 13  1  0  0  0  0
 14 12  2  0  0  0  0
 15 16  1  0  0  0  0
 17 15  2  0  0  0  0
 18  1  1  0  0  0  0
 19 21  1  0  0  0  0
 19 18  1  0  0  0  0
 20 19  2  0  0  0  0
 21 30  1  0  0  0  0
 22 26  1  0  0  0  0
 23 28  1  0  0  0  0
 24 32  1  1  0  0  0
 24 29  1  0  0  0  0
 25 24  1  0  0  0  0
 26 25  1  0  0  0  0
 26 28  2  0  0  0  0
 27 29  1  0  0  0  0
 28 27  1  0  0  0  0
 30 23  2  0  0  0  0
 31 22  2  0  0  0  0
 31 30  1  0  0  0  0
 32 33  2  0  0  0  0
 32 34  1  0  0  0  0
M  END
>  <MODEL>
9

>  <REMARK>
 VINA RESULT:      -9.0      2.781      7.697
  Name = 
  6 active torsions:
  status: ('A' for Active; 'I' for Inactive)
    1  A    between atoms: C_1  and  C_9
    2  A    between atoms: C_3  and  C_25
    3  A    between atoms: C_7  and  C_11
    4  A    between atoms: C_8  and  C_9
    5  A    between atoms: C_8  and  O_18
    6  A    between atoms: O_18  and  C_30
                            x       y       z     vdW  Elec       q    Type
                         _______ _______ _______ _____ _____    ______ ____

>  <TORSDO>
F 6

$$$$
