=
 OpenBabel11052416163D

 43 49  0  0  1  0  0  0  0  0999 V2000
  182.4460  178.8630  143.0570 C   0  0  0  0  0  2  0  0  0  0  0  0
  187.4380  177.0700  143.1720 C   0  0  2  0  0  3  0  0  0  0  0  0
  188.6850  178.1750  140.7710 C   0  0  1  0  0  3  0  0  0  0  0  0
  185.1890  178.3380  144.4800 C   0  0  0  0  0  0  0  0  0  0  0  0
  183.3810  178.9240  141.8510 C   0  0  0  0  0  2  0  0  0  0  0  0
  183.0180  179.6550  144.2290 C   0  0  0  0  0  2  0  0  0  0  0  0
  185.5720  178.7670  143.0710 C   0  0  2  0  0  3  0  0  0  0  0  0
  183.8830  178.7620  145.1140 C   0  0  0  0  0  2  0  0  0  0  0  0
  184.6350  178.0890  142.0690 C   0  0  0  0  0  2  0  0  0  0  0  0
  187.3610  178.7700  141.2830 C   0  0  0  0  0  2  0  0  0  0  0  0
  187.0550  178.4910  142.7570 C   0  0  2  0  0  3  0  0  0  0  0  0
  187.2560  176.9380  144.6860 C   0  0  0  0  0  2  0  0  0  0  0  0
  188.8690  176.8040  142.8070 C   0  0  0  0  0  0  0  0  0  0  0  0
  189.3900  177.3270  141.7340 N   0  0  0  0  0  0  0  0  0  0  0  0
  185.9290  177.4520  145.1660 C   0  0  0  0  0  3  0  0  0  0  0  0
  188.5040  177.4300  139.4490 C   0  0  2  0  0  3  0  0  0  0  0  0
  187.0650  177.0810  137.4240 C   0  0  0  0  0  0  0  0  0  0  0  0
  189.4630  177.5060  137.1810 C   0  0  0  0  0  3  0  0  0  0  0  0
  189.6240  177.7320  138.4880 C   0  0  0  0  0  3  0  0  0  0  0  0
  188.1660  177.0330  136.6630 C   0  0  0  0  0  3  0  0  0  0  0  0
  187.1320  177.6830  138.8070 C   0  0  0  0  0  2  0  0  0  0  0  0
  184.7490  177.5040  136.6090 C   0  0  2  0  0  3  0  0  0  0  0  0
  185.5360  176.8520  135.4900 C   0  0  0  0  0  2  0  0  0  0  0  0
  185.8010  176.4480  136.9300 C   0  0  1  0  0  3  0  0  0  0  0  0
  182.7890  176.5500  135.6670 O   0  0  0  0  0  0  0  0  0  0  0  0
  183.3930  176.8890  136.7200 C   0  0  0  0  0  0  0  0  0  0  0  0
  182.8290  176.6730  137.9940 O   0  0  0  0  0  0  0  0  0  0  0  0
  181.0710  176.9810  139.6140 C   0  0  0  0  0  3  0  0  0  0  0  0
  181.9400  177.5290  138.6600 C   0  0  0  0  0  0  0  0  0  0  0  0
  180.9220  181.1800  138.8070 C   0  0  0  0  0  1  0  0  0  0  0  0
  180.1090  179.1630  140.0350 C   0  0  0  0  0  3  0  0  0  0  0  0
  180.9770  179.7220  139.0920 C   0  0  0  0  0  0  0  0  0  0  0  0
  180.1590  177.7930  140.2990 C   0  0  0  0  0  3  0  0  0  0  0  0
  181.8910  178.9120  138.4100 C   0  0  0  0  0  3  0  0  0  0  0  0
  189.6450  175.9670  143.6220 O   0  0  0  0  0  0  0  0  0  0  0  0
  192.0480  175.4490  144.0340 C   0  0  0  0  0  2  0  0  0  0  0  0
  190.8950  176.3610  144.1780 C   0  0  1  0  0  0  0  0  0  0  0  0
  191.8560  176.5430  143.1640 O   0  0  0  0  0  0  0  0  0  0  0  0
  190.9390  177.4850  145.2000 C   0  0  0  0  0  2  0  0  0  0  0  0
  190.7160  176.9780  146.5880 C   0  0  0  0  0  0  0  0  0  0  0  0
  191.6970  176.3280  147.2150 C   0  0  0  0  0  2  0  0  0  0  0  0
  189.3160  176.8940  147.1180 C   0  0  0  0  0  2  0  0  0  0  0  0
  189.0690  178.0050  148.1170 C   0  0  0  0  0  1  0  0  0  0  0  0
  1  6  1  0  0  0  0
  2 12  1  1  0  0  0
  3 10  1  1  0  0  0
  3 14  1  0  0  0  0
  4  8  1  0  0  0  0
  4 15  2  0  0  0  0
  5  9  1  0  0  0  0
  5  1  1  0  0  0  0
  6  8  1  0  0  0  0
  7  9  1  6  0  0  0
  7  4  1  0  0  0  0
 11 10  1  6  0  0  0
 11  7  1  0  0  0  0
 11  2  1  0  0  0  0
 12 15  1  0  0  0  0
 13  2  1  0  0  0  0
 13 35  1  0  0  0  0
 14 13  2  0  0  0  0
 16 19  1  6  0  0  0
 16  3  1  0  0  0  0
 17 21  1  0  0  0  0
 18 19  2  0  0  0  0
 20 18  1  0  0  0  0
 20 17  2  0  0  0  0
 21 16  1  0  0  0  0
 22 26  1  6  0  0  0
 22 24  1  0  0  0  0
 23 22  1  0  0  0  0
 23 24  1  0  0  0  0
 24 17  1  1  0  0  0
 25 26  2  0  0  0  0
 26 27  1  0  0  0  0
 27 29  1  0  0  0  0
 28 33  1  0  0  0  0
 29 28  2  0  0  0  0
 30 32  1  0  0  0  0
 31 33  2  0  0  0  0
 32 31  1  0  0  0  0
 34 29  1  0  0  0  0
 34 32  2  0  0  0  0
 35 37  1  0  0  0  0
 36 37  1  0  0  0  0
 37 39  1  1  0  0  0
 38 36  1  0  0  0  0
 38 37  1  0  0  0  0
 39 40  1  0  0  0  0
 40 42  1  0  0  0  0
 40 41  2  0  0  0  0
 42 43  1  0  0  0  0
M  END
>  <MODEL>
1

>  <REMARK>
 VINA RESULT:      -9.3      0.000      0.000
  Name = 
  10 active torsions:
  status: ('A' for Active; 'I' for Inactive)
    1  A    between atoms: O_1  and  C_34
    2  A    between atoms: O_1  and  C_35
    3  A    between atoms: C_2  and  C_13
    4  A    between atoms: C_3  and  C_42
    5  A    between atoms: O_4  and  C_14
    6  A    between atoms: O_4  and  C_41
    7  A    between atoms: C_9  and  C_19
    8  A    between atoms: C_10  and  C_41
    9  A    between atoms: C_19  and  C_32
   10  A    between atoms: C_32  and  C_35
                            x       y       z     vdW  Elec       q    Type
                         _______ _______ _______ _____ _____    ______ ____

>  <TORSDO>
F 10

$$$$
=
 OpenBabel11052416163D

 43 49  0  0  1  0  0  0  0  0999 V2000
  189.7970  178.0550  137.7290 C   0  0  0  0  0  2  0  0  0  0  0  0
  189.7700  177.8750  143.0310 C   0  0  2  0  0  3  0  0  0  0  0  0
  187.0600  177.0400  143.7370 C   0  0  1  0  0  3  0  0  0  0  0  0
  190.9950  177.2010  140.4970 C   0  0  0  0  0  0  0  0  0  0  0  0
  188.5150  177.9710  138.5530 C   0  0  0  0  0  2  0  0  0  0  0  0
  190.6900  176.8450  137.9880 C   0  0  0  0  0  2  0  0  0  0  0  0
  189.4920  177.0310  140.6690 C   0  0  2  0  0  3  0  0  0  0  0  0
  191.6540  177.1210  139.1390 C   0  0  0  0  0  2  0  0  0  0  0  0
  188.7770  178.2250  140.0310 C   0  0  0  0  0  2  0  0  0  0  0  0
  187.5660  176.8430  142.2970 C   0  0  0  0  0  2  0  0  0  0  0  0
  189.0890  176.8350  142.1420 C   0  0  2  0  0  3  0  0  0  0  0  0
  191.2860  177.6790  142.9380 C   0  0  0  0  0  2  0  0  0  0  0  0
  189.3220  177.7000  144.4520 C   0  0  0  0  0  0  0  0  0  0  0  0
  188.1080  177.3130  144.7230 N   0  0  0  0  0  0  0  0  0  0  0  0
  191.7790  177.5650  141.5240 C   0  0  0  0  0  3  0  0  0  0  0  0
  185.9690  178.1070  143.8210 C   0  0  2  0  0  3  0  0  0  0  0  0
  183.7080  178.8520  143.0310 C   0  0  0  0  0  0  0  0  0  0  0  0
  184.2280  178.7950  145.4220 C   0  0  0  0  0  3  0  0  0  0  0  0
  185.4190  178.2240  145.2180 C   0  0  0  0  0  3  0  0  0  0  0  0
  183.4130  179.2430  144.2780 C   0  0  0  0  0  3  0  0  0  0  0  0
  184.8480  177.8910  142.7940 C   0  0  0  0  0  2  0  0  0  0  0  0
  183.3510  178.7720  140.5670 C   0  0  2  0  0  3  0  0  0  0  0  0
  182.0450  178.4160  141.2490 C   0  0  0  0  0  2  0  0  0  0  0  0
  182.9630  179.4500  141.8770 C   0  0  1  0  0  3  0  0  0  0  0  0
  184.0850  180.3430  138.9440 O   0  0  0  0  0  0  0  0  0  0  0  0
  183.1080  179.7200  139.4400 C   0  0  0  0  0  0  0  0  0  0  0  0
  181.8020  179.8800  138.9340 O   0  0  0  0  0  0  0  0  0  0  0  0
  180.9620  180.2920  136.7130 C   0  0  0  0  0  3  0  0  0  0  0  0
  181.4040  180.7920  137.9440 C   0  0  0  0  0  0  0  0  0  0  0  0
  181.0840  184.5230  137.3380 C   0  0  0  0  0  1  0  0  0  0  0  0
  180.6050  182.5430  135.8930 C   0  0  0  0  0  3  0  0  0  0  0  0
  181.0360  183.0530  137.1210 C   0  0  0  0  0  0  0  0  0  0  0  0
  180.5640  181.1620  135.6900 C   0  0  0  0  0  3  0  0  0  0  0  0
  181.4300  182.1840  138.1440 C   0  0  0  0  0  3  0  0  0  0  0  0
  190.2150  177.9760  145.4980 O   0  0  0  0  0  0  0  0  0  0  0  0
  191.8330  176.1430  145.9770 C   0  0  0  0  0  2  0  0  0  0  0  0
  190.6920  176.9810  146.3980 C   0  0  1  0  0  0  0  0  0  0  0  0
  192.0100  177.2700  146.8050 O   0  0  0  0  0  0  0  0  0  0  0  0
  189.8250  176.5520  147.5680 C   0  0  0  0  0  2  0  0  0  0  0  0
  189.0600  177.7020  148.1400 C   0  0  0  0  0  0  0  0  0  0  0  0
  189.7000  178.6200  148.8640 C   0  0  0  0  0  2  0  0  0  0  0  0
  187.5640  177.6290  148.1920 C   0  0  0  0  0  2  0  0  0  0  0  0
  186.9660  179.0010  147.9610 C   0  0  0  0  0  1  0  0  0  0  0  0
  1  6  1  0  0  0  0
  1  5  1  0  0  0  0
  2 12  1  1  0  0  0
  2 13  1  0  0  0  0
  3 10  1  6  0  0  0
  3 16  1  0  0  0  0
  3 14  1  0  0  0  0
  4  7  1  0  0  0  0
  4 15  2  0  0  0  0
  5  9  1  0  0  0  0
  6  8  1  0  0  0  0
  7  9  1  1  0  0  0
  7 11  1  0  0  0  0
  8  4  1  0  0  0  0
 11 10  1  6  0  0  0
 11  2  1  0  0  0  0
 13 14  2  0  0  0  0
 13 35  1  0  0  0  0
 15 12  1  0  0  0  0
 16 21  1  6  0  0  0
 16 19  1  0  0  0  0
 17 20  2  0  0  0  0
 19 18  2  0  0  0  0
 20 18  1  0  0  0  0
 21 17  1  0  0  0  0
 22 26  1  6  0  0  0
 22 23  1  0  0  0  0
 22 24  1  0  0  0  0
 23 24  1  0  0  0  0
 24 17  1  1  0  0  0
 25 26  2  0  0  0  0
 27 26  1  0  0  0  0
 28 29  1  0  0  0  0
 29 34  2  0  0  0  0
 29 27  1  0  0  0  0
 31 32  2  0  0  0  0
 32 30  1  0  0  0  0
 32 34  1  0  0  0  0
 33 31  1  0  0  0  0
 33 28  2  0  0  0  0
 35 37  1  0  0  0  0
 36 37  1  0  0  0  0
 36 38  1  0  0  0  0
 37 38  1  0  0  0  0
 37 39  1  1  0  0  0
 39 40  1  0  0  0  0
 40 42  1  0  0  0  0
 40 41  2  0  0  0  0
 43 42  1  0  0  0  0
M  END
>  <MODEL>
2

>  <REMARK>
 VINA RESULT:      -8.9      2.136      5.359
  Name = 
  10 active torsions:
  status: ('A' for Active; 'I' for Inactive)
    1  A    between atoms: O_1  and  C_34
    2  A    between atoms: O_1  and  C_35
    3  A    between atoms: C_2  and  C_13
    4  A    between atoms: C_3  and  C_42
    5  A    between atoms: O_4  and  C_14
    6  A    between atoms: O_4  and  C_41
    7  A    between atoms: C_9  and  C_19
    8  A    between atoms: C_10  and  C_41
    9  A    between atoms: C_19  and  C_32
   10  A    between atoms: C_32  and  C_35
                            x       y       z     vdW  Elec       q    Type
                         _______ _______ _______ _____ _____    ______ ____

>  <TORSDO>
F 10

$$$$
=
 OpenBabel11052416163D

 43 49  0  0  1  0  0  0  0  0999 V2000
  191.4010  177.1600  141.5190 C   0  0  0  0  0  2  0  0  0  0  0  0
  187.7810  176.2770  137.7420 C   0  0  2  0  0  3  0  0  0  0  0  0
  185.7710  178.3630  138.1310 C   0  0  1  0  0  3  0  0  0  0  0  0
  190.5390  176.6040  138.5570 C   0  0  0  0  0  0  0  0  0  0  0  0
  190.0160  177.8040  141.5250 C   0  0  0  0  0  2  0  0  0  0  0  0
  192.1780  177.5540  140.2660 C   0  0  0  0  0  2  0  0  0  0  0  0
  189.4860  177.5710  139.0800 C   0  0  2  0  0  3  0  0  0  0  0  0
  191.9330  176.5530  139.1410 C   0  0  0  0  0  2  0  0  0  0  0  0
  189.0920  177.1610  140.5010 C   0  0  0  0  0  2  0  0  0  0  0  0
  187.1570  178.5110  138.7840 C   0  0  0  0  0  2  0  0  0  0  0  0
  188.2660  177.6700  138.1460 C   0  0  2  0  0  3  0  0  0  0  0  0
  188.9000  175.5780  136.9660 C   0  0  0  0  0  2  0  0  0  0  0  0
  186.5600  176.3960  136.8780 C   0  0  0  0  0  0  0  0  0  0  0  0
  185.6950  177.3490  137.0770 N   0  0  0  0  0  0  0  0  0  0  0  0
  190.2330  175.6610  137.6510 C   0  0  0  0  0  3  0  0  0  0  0  0
  184.6710  178.1300  139.1650 C   0  0  2  0  0  3  0  0  0  0  0  0
  183.8630  178.5800  141.4970 C   0  0  0  0  0  0  0  0  0  0  0  0
  182.3790  178.9300  139.5820 C   0  0  0  0  0  3  0  0  0  0  0  0
  183.3500  178.6830  138.6990 C   0  0  0  0  0  3  0  0  0  0  0  0
  182.6200  178.7360  141.0240 C   0  0  0  0  0  3  0  0  0  0  0  0
  185.0410  178.6640  140.5570 C   0  0  0  0  0  2  0  0  0  0  0  0
  184.6570  179.3980  143.7120 C   0  0  2  0  0  3  0  0  0  0  0  0
  183.1770  179.0870  143.8210 C   0  0  0  0  0  2  0  0  0  0  0  0
  184.0640  178.2260  142.9380 C   0  0  1  0  0  3  0  0  0  0  0  0
  185.1250  179.3490  146.0400 O   0  0  0  0  0  0  0  0  0  0  0  0
  185.3890  178.8740  144.9020 C   0  0  0  0  0  0  0  0  0  0  0  0
  186.3350  177.8420  144.7390 O   0  0  0  0  0  0  0  0  0  0  0  0
  187.3460  177.4890  146.8990 C   0  0  0  0  0  3  0  0  0  0  0  0
  187.4890  177.6480  145.5140 C   0  0  0  0  0  0  0  0  0  0  0  0
  191.2580  177.3920  145.1690 C   0  0  0  0  0  1  0  0  0  0  0  0
  189.7440  177.2710  147.1520 C   0  0  0  0  0  3  0  0  0  0  0  0
  189.8990  177.4200  145.7700 C   0  0  0  0  0  0  0  0  0  0  0  0
  188.4670  177.3020  147.7160 C   0  0  0  0  0  3  0  0  0  0  0  0
  188.7780  177.6030  144.9530 C   0  0  0  0  0  3  0  0  0  0  0  0
  186.3410  175.4570  135.8600 O   0  0  0  0  0  0  0  0  0  0  0  0
  185.7520  173.2090  134.9600 C   0  0  0  0  0  2  0  0  0  0  0  0
  185.8930  174.1280  136.1070 C   0  0  1  0  0  0  0  0  0  0  0  0
  186.8980  173.1960  135.7810 O   0  0  0  0  0  0  0  0  0  0  0  0
  185.2290  173.7960  137.4320 C   0  0  0  0  0  2  0  0  0  0  0  0
  183.7390  173.8540  137.3330 C   0  0  0  0  0  0  0  0  0  0  0  0
  183.0610  172.7580  136.9900 C   0  0  0  0  0  2  0  0  0  0  0  0
  183.0630  175.1910  137.2760 C   0  0  0  0  0  2  0  0  0  0  0  0
  182.0450  175.3090  138.3910 C   0  0  0  0  0  1  0  0  0  0  0  0
  1  5  1  0  0  0  0
  2 12  1  6  0  0  0
  2 11  1  0  0  0  0
  3 10  1  1  0  0  0
  3 16  1  0  0  0  0
  4  7  1  0  0  0  0
  4  8  1  0  0  0  0
  6  1  1  0  0  0  0
  7  9  1  1  0  0  0
  8  6  1  0  0  0  0
  9  5  1  0  0  0  0
 11 10  1  1  0  0  0
 11  7  1  0  0  0  0
 12 15  1  0  0  0  0
 13 14  2  0  0  0  0
 13  2  1  0  0  0  0
 14  3  1  0  0  0  0
 15  4  2  0  0  0  0
 16 19  1  6  0  0  0
 16 21  1  0  0  0  0
 18 20  1  0  0  0  0
 19 18  2  0  0  0  0
 20 17  2  0  0  0  0
 21 17  1  0  0  0  0
 22 23  1  0  0  0  0
 22 26  1  1  0  0  0
 24 17  1  6  0  0  0
 24 22  1  0  0  0  0
 24 23  1  0  0  0  0
 26 25  2  0  0  0  0
 27 26  1  0  0  0  0
 27 29  1  0  0  0  0
 28 33  1  0  0  0  0
 29 28  2  0  0  0  0
 30 32  1  0  0  0  0
 31 33  2  0  0  0  0
 32 31  1  0  0  0  0
 34 29  1  0  0  0  0
 34 32  2  0  0  0  0
 35 37  1  0  0  0  0
 35 13  1  0  0  0  0
 36 38  1  0  0  0  0
 36 37  1  0  0  0  0
 37 39  1  1  0  0  0
 38 37  1  0  0  0  0
 40 39  1  0  0  0  0
 41 40  2  0  0  0  0
 42 40  1  0  0  0  0
 42 43  1  0  0  0  0
M  END
>  <MODEL>
3

>  <REMARK>
 VINA RESULT:      -8.7      2.497      8.804
  Name = 
  10 active torsions:
  status: ('A' for Active; 'I' for Inactive)
    1  A    between atoms: O_1  and  C_34
    2  A    between atoms: O_1  and  C_35
    3  A    between atoms: C_2  and  C_13
    4  A    between atoms: C_3  and  C_42
    5  A    between atoms: O_4  and  C_14
    6  A    between atoms: O_4  and  C_41
    7  A    between atoms: C_9  and  C_19
    8  A    between atoms: C_10  and  C_41
    9  A    between atoms: C_19  and  C_32
   10  A    between atoms: C_32  and  C_35
                            x       y       z     vdW  Elec       q    Type
                         _______ _______ _______ _____ _____    ______ ____

>  <TORSDO>
F 10

$$$$
=
 OpenBabel11052416163D

 43 49  0  0  1  0  0  0  0  0999 V2000
  189.7490  178.0820  137.8540 C   0  0  0  0  0  2  0  0  0  0  0  0
  189.9280  177.7590  143.1470 C   0  0  2  0  0  3  0  0  0  0  0  0
  187.2400  176.9250  143.9360 C   0  0  1  0  0  3  0  0  0  0  0  0
  191.0470  177.1450  140.5490 C   0  0  0  0  0  0  0  0  0  0  0  0
  188.4990  177.9850  138.7260 C   0  0  0  0  0  2  0  0  0  0  0  0
  190.6410  176.8590  138.0460 C   0  0  0  0  0  2  0  0  0  0  0  0
  189.5500  176.9820  140.7760 C   0  0  2  0  0  3  0  0  0  0  0  0
  191.6520  177.0980  139.1650 C   0  0  0  0  0  2  0  0  0  0  0  0
  188.8210  178.1980  140.1990 C   0  0  0  0  0  2  0  0  0  0  0  0
  187.6880  176.7640  142.4730 C   0  0  0  0  0  2  0  0  0  0  0  0
  189.2040  176.7480  142.2580 C   0  0  2  0  0  3  0  0  0  0  0  0
  191.4360  177.5550  142.9890 C   0  0  0  0  0  2  0  0  0  0  0  0
  189.5330  177.5490  144.5790 C   0  0  0  0  0  0  0  0  0  0  0  0
  188.3280  177.1640  144.8870 N   0  0  0  0  0  0  0  0  0  0  0  0
  191.8730  177.4760  141.5540 C   0  0  0  0  0  3  0  0  0  0  0  0
  186.1620  177.9970  144.0910 C   0  0  2  0  0  3  0  0  0  0  0  0
  183.8690  178.7680  143.4270 C   0  0  0  0  0  0  0  0  0  0  0  0
  184.5080  178.6690  145.7880 C   0  0  0  0  0  3  0  0  0  0  0  0
  185.6830  178.0940  145.5160 C   0  0  0  0  0  3  0  0  0  0  0  0
  183.6400  179.1410  144.6930 C   0  0  0  0  0  3  0  0  0  0  0  0
  184.9900  177.8040  143.1180 C   0  0  0  0  0  2  0  0  0  0  0  0
  182.3760  178.3230  141.4840 C   0  0  2  0  0  3  0  0  0  0  0  0
  181.5930  179.1090  142.5160 C   0  0  0  0  0  2  0  0  0  0  0  0
  183.0730  179.3900  142.3220 C   0  0  1  0  0  3  0  0  0  0  0  0
  180.9950  179.3530  139.8500 O   0  0  0  0  0  0  0  0  0  0  0  0
  182.1270  178.8660  140.1160 C   0  0  0  0  0  0  0  0  0  0  0  0
  183.1640  178.8520  139.1620 O   0  0  0  0  0  0  0  0  0  0  0  0
  182.9370  176.5170  138.6080 C   0  0  0  0  0  3  0  0  0  0  0  0
  183.6220  177.7300  138.4540 C   0  0  0  0  0  0  0  0  0  0  0  0
  186.3500  176.6890  136.0330 C   0  0  0  0  0  1  0  0  0  0  0  0
  184.4750  175.4220  137.0920 C   0  0  0  0  0  3  0  0  0  0  0  0
  185.1610  176.6290  136.9240 C   0  0  0  0  0  0  0  0  0  0  0  0
  183.3610  175.3670  137.9310 C   0  0  0  0  0  3  0  0  0  0  0  0
  184.7360  177.7790  137.5970 C   0  0  0  0  0  3  0  0  0  0  0  0
  190.4690  177.7900  145.5960 O   0  0  0  0  0  0  0  0  0  0  0  0
  191.9780  175.9250  146.2710 C   0  0  0  0  0  2  0  0  0  0  0  0
  190.8350  176.8130  146.5660 C   0  0  1  0  0  0  0  0  0  0  0  0
  192.1230  177.0760  147.0740 O   0  0  0  0  0  0  0  0  0  0  0  0
  189.8590  176.4530  147.6720 C   0  0  0  0  0  2  0  0  0  0  0  0
  189.2020  177.6670  148.2450 C   0  0  0  0  0  0  0  0  0  0  0  0
  189.9460  178.5870  148.8610 C   0  0  0  0  0  2  0  0  0  0  0  0
  187.7150  177.6730  148.4310 C   0  0  0  0  0  2  0  0  0  0  0  0
  187.1640  179.0650  148.1950 C   0  0  0  0  0  1  0  0  0  0  0  0
  1  6  1  0  0  0  0
  1  5  1  0  0  0  0
  2 12  1  1  0  0  0
  2 13  1  0  0  0  0
  3 10  1  6  0  0  0
  3 16  1  0  0  0  0
  3 14  1  0  0  0  0
  4  7  1  0  0  0  0
  4 15  2  0  0  0  0
  5  9  1  0  0  0  0
  6  8  1  0  0  0  0
  7  9  1  1  0  0  0
  7 11  1  0  0  0  0
  8  4  1  0  0  0  0
 11 10  1  6  0  0  0
 11  2  1  0  0  0  0
 13 14  2  0  0  0  0
 13 35  1  0  0  0  0
 15 12  1  0  0  0  0
 16 21  1  6  0  0  0
 16 19  1  0  0  0  0
 17 20  2  0  0  0  0
 19 18  2  0  0  0  0
 20 18  1  0  0  0  0
 21 17  1  0  0  0  0
 22 26  1  6  0  0  0
 22 24  1  0  0  0  0
 22 23  1  0  0  0  0
 24 23  1  0  0  0  0
 24 17  1  1  0  0  0
 25 26  2  0  0  0  0
 27 26  1  0  0  0  0
 29 28  1  0  0  0  0
 29 27  1  0  0  0  0
 30 32  1  0  0  0  0
 31 33  1  0  0  0  0
 32 31  2  0  0  0  0
 32 34  1  0  0  0  0
 33 28  2  0  0  0  0
 34 29  2  0  0  0  0
 35 37  1  0  0  0  0
 36 37  1  0  0  0  0
 36 38  1  0  0  0  0
 37 38  1  0  0  0  0
 37 39  1  1  0  0  0
 39 40  1  0  0  0  0
 40 42  1  0  0  0  0
 40 41  2  0  0  0  0
 43 42  1  0  0  0  0
M  END
>  <MODEL>
4

>  <REMARK>
 VINA RESULT:      -8.7      1.724      5.552
  Name = 
  10 active torsions:
  status: ('A' for Active; 'I' for Inactive)
    1  A    between atoms: O_1  and  C_34
    2  A    between atoms: O_1  and  C_35
    3  A    between atoms: C_2  and  C_13
    4  A    between atoms: C_3  and  C_42
    5  A    between atoms: O_4  and  C_14
    6  A    between atoms: O_4  and  C_41
    7  A    between atoms: C_9  and  C_19
    8  A    between atoms: C_10  and  C_41
    9  A    between atoms: C_19  and  C_32
   10  A    between atoms: C_32  and  C_35
                            x       y       z     vdW  Elec       q    Type
                         _______ _______ _______ _____ _____    ______ ____

>  <TORSDO>
F 10

$$$$
=
 OpenBabel11052416163D

 43 49  0  0  1  0  0  0  0  0999 V2000
  190.3000  177.9130  138.5350 C   0  0  0  0  0  2  0  0  0  0  0  0
  189.4150  178.0430  143.7650 C   0  0  2  0  0  3  0  0  0  0  0  0
  186.6470  177.1580  144.0760 C   0  0  1  0  0  3  0  0  0  0  0  0
  191.0520  177.2630  141.5090 C   0  0  0  0  0  0  0  0  0  0  0  0
  188.9030  177.8340  139.1460 C   0  0  0  0  0  2  0  0  0  0  0  0
  191.1680  176.7510  139.0110 C   0  0  0  0  0  2  0  0  0  0  0  0
  189.5460  177.0530  141.4470 C   0  0  2  0  0  3  0  0  0  0  0  0
  191.9250  177.1270  140.2820 C   0  0  0  0  0  2  0  0  0  0  0  0
  188.9150  178.1820  140.6280 C   0  0  0  0  0  2  0  0  0  0  0  0
  187.3850  176.8950  142.7520 C   0  0  0  0  0  2  0  0  0  0  0  0
  188.9130  176.9290  142.8450 C   0  0  2  0  0  3  0  0  0  0  0  0
  190.9290  177.8940  143.9290 C   0  0  0  0  0  2  0  0  0  0  0  0
  188.7450  177.9360  145.1030 C   0  0  0  0  0  0  0  0  0  0  0  0
  187.5130  177.5240  145.1990 N   0  0  0  0  0  0  0  0  0  0  0  0
  191.6490  177.7140  142.6230 C   0  0  0  0  0  3  0  0  0  0  0  0
  185.5310  178.1900  143.9150 C   0  0  2  0  0  3  0  0  0  0  0  0
  183.3530  178.7610  142.8080 C   0  0  0  0  0  0  0  0  0  0  0  0
  183.6130  179.0030  145.2300 C   0  0  0  0  0  3  0  0  0  0  0  0
  184.8300  178.4520  145.2230 C   0  0  0  0  0  3  0  0  0  0  0  0
  182.9180  179.2860  143.9610 C   0  0  0  0  0  3  0  0  0  0  0  0
  184.5320  177.8170  142.8100 C   0  0  0  0  0  2  0  0  0  0  0  0
  181.7610  178.1340  140.9980 C   0  0  2  0  0  3  0  0  0  0  0  0
  181.2280  179.3700  141.6940 C   0  0  0  0  0  2  0  0  0  0  0  0
  182.7270  179.1930  141.5190 C   0  0  1  0  0  3  0  0  0  0  0  0
  181.1000  179.3150  139.0460 O   0  0  0  0  0  0  0  0  0  0  0  0
  181.6380  178.2760  139.5170 C   0  0  0  0  0  0  0  0  0  0  0  0
  182.1470  177.2660  138.6760 O   0  0  0  0  0  0  0  0  0  0  0  0
  184.3310  178.2570  138.4290 C   0  0  0  0  0  3  0  0  0  0  0  0
  183.4430  177.2110  138.1410 C   0  0  0  0  0  0  0  0  0  0  0  0
  185.6300  175.0250  135.9440 C   0  0  0  0  0  1  0  0  0  0  0  0
  186.0560  177.1990  137.0990 C   0  0  0  0  0  3  0  0  0  0  0  0
  185.1820  176.1460  136.8110 C   0  0  0  0  0  0  0  0  0  0  0  0
  185.6320  178.2530  137.9110 C   0  0  0  0  0  3  0  0  0  0  0  0
  183.8830  176.1480  137.3320 C   0  0  0  0  0  3  0  0  0  0  0  0
  189.4490  178.3030  146.2590 O   0  0  0  0  0  0  0  0  0  0  0  0
  189.0870  178.2530  148.7240 C   0  0  0  0  0  2  0  0  0  0  0  0
  189.4120  177.5490  147.4670 C   0  0  1  0  0  0  0  0  0  0  0  0
  188.1090  177.5350  148.0040 O   0  0  0  0  0  0  0  0  0  0  0  0
  190.0510  176.1720  147.5110 C   0  0  0  0  0  2  0  0  0  0  0  0
  191.5250  176.2400  147.2710 C   0  0  0  0  0  0  0  0  0  0  0  0
  192.0550  175.5640  146.2510 C   0  0  0  0  0  2  0  0  0  0  0  0
  192.4170  176.7640  148.3550 C   0  0  0  0  0  2  0  0  0  0  0  0
  193.1960  175.6280  148.9850 C   0  0  0  0  0  1  0  0  0  0  0  0
  1  6  1  0  0  0  0
  1  5  1  0  0  0  0
  2 12  1  1  0  0  0
  2 13  1  0  0  0  0
  3 10  1  6  0  0  0
  3 14  1  0  0  0  0
  4 15  2  0  0  0  0
  5  9  1  0  0  0  0
  6  8  1  0  0  0  0
  7  9  1  1  0  0  0
  7  4  1  0  0  0  0
  7 11  1  0  0  0  0
  8  4  1  0  0  0  0
 11 10  1  6  0  0  0
 11  2  1  0  0  0  0
 13 14  2  0  0  0  0
 13 35  1  0  0  0  0
 15 12  1  0  0  0  0
 16 21  1  6  0  0  0
 16  3  1  0  0  0  0
 16 19  1  0  0  0  0
 17 21  1  0  0  0  0
 17 20  2  0  0  0  0
 19 18  2  0  0  0  0
 20 18  1  0  0  0  0
 22 26  1  6  0  0  0
 22 24  1  0  0  0  0
 22 23  1  0  0  0  0
 24 23  1  0  0  0  0
 24 17  1  1  0  0  0
 25 26  2  0  0  0  0
 27 26  1  0  0  0  0
 29 28  1  0  0  0  0
 29 27  1  0  0  0  0
 30 32  1  0  0  0  0
 31 33  1  0  0  0  0
 32 31  2  0  0  0  0
 32 34  1  0  0  0  0
 33 28  2  0  0  0  0
 34 29  2  0  0  0  0
 35 37  1  0  0  0  0
 37 39  1  1  0  0  0
 37 38  1  0  0  0  0
 37 36  1  0  0  0  0
 38 36  1  0  0  0  0
 40 39  1  0  0  0  0
 40 42  1  0  0  0  0
 41 40  2  0  0  0  0
 42 43  1  0  0  0  0
M  END
>  <MODEL>
5

>  <REMARK>
 VINA RESULT:      -8.4      1.797      5.699
  Name = 
  10 active torsions:
  status: ('A' for Active; 'I' for Inactive)
    1  A    between atoms: O_1  and  C_34
    2  A    between atoms: O_1  and  C_35
    3  A    between atoms: C_2  and  C_13
    4  A    between atoms: C_3  and  C_42
    5  A    between atoms: O_4  and  C_14
    6  A    between atoms: O_4  and  C_41
    7  A    between atoms: C_9  and  C_19
    8  A    between atoms: C_10  and  C_41
    9  A    between atoms: C_19  and  C_32
   10  A    between atoms: C_32  and  C_35
                            x       y       z     vdW  Elec       q    Type
                         _______ _______ _______ _____ _____    ______ ____

>  <TORSDO>
F 10

$$$$
=
 OpenBabel11052416163D

 43 49  0  0  1  0  0  0  0  0999 V2000
  188.4790  177.0770  144.7310 C   0  0  0  0  0  2  0  0  0  0  0  0
  190.3250  177.0660  139.7570 C   0  0  2  0  0  3  0  0  0  0  0  0
  188.1700  178.2220  138.1570 C   0  0  1  0  0  3  0  0  0  0  0  0
  190.6700  177.6660  142.5670 C   0  0  0  0  0  0  0  0  0  0  0  0
  187.5880  177.2980  143.5110 C   0  0  0  0  0  2  0  0  0  0  0  0
  189.5610  178.1490  144.8150 C   0  0  0  0  0  2  0  0  0  0  0  0
  189.3580  178.0240  141.8820 C   0  0  2  0  0  3  0  0  0  0  0  0
  190.8190  177.7070  144.0710 C   0  0  0  0  0  2  0  0  0  0  0  0
  188.3120  176.9580  142.2160 C   0  0  0  0  0  2  0  0  0  0  0  0
  188.1640  178.4030  139.6850 C   0  0  0  0  0  2  0  0  0  0  0  0
  189.5240  178.2180  140.3640 C   0  0  2  0  0  3  0  0  0  0  0  0
  191.7250  177.0650  140.3770 C   0  0  0  0  0  2  0  0  0  0  0  0
  190.4270  177.2460  138.2710 C   0  0  0  0  0  0  0  0  0  0  0  0
  189.4480  177.7780  137.5970 N   0  0  0  0  0  0  0  0  0  0  0  0
  191.7050  177.1650  141.8750 C   0  0  0  0  0  3  0  0  0  0  0  0
  187.0430  177.3050  137.6840 C   0  0  2  0  0  3  0  0  0  0  0  0
  184.5670  176.9180  137.5800 C   0  0  0  0  0  0  0  0  0  0  0  0
  185.9330  176.7490  135.5560 C   0  0  0  0  0  3  0  0  0  0  0  0
  187.0350  177.1710  136.1840 C   0  0  0  0  0  3  0  0  0  0  0  0
  184.6980  176.4880  136.3190 C   0  0  0  0  0  3  0  0  0  0  0  0
  185.6670  177.7340  138.2150 C   0  0  0  0  0  2  0  0  0  0  0  0
  182.3100  177.5950  138.3900 C   0  0  2  0  0  3  0  0  0  0  0  0
  182.1490  176.3910  137.4830 C   0  0  0  0  0  2  0  0  0  0  0  0
  183.3710  176.4990  138.3790 C   0  0  1  0  0  3  0  0  0  0  0  0
  180.7300  176.4260  139.7230 O   0  0  0  0  0  0  0  0  0  0  0  0
  181.4680  177.4430  139.6130 C   0  0  0  0  0  0  0  0  0  0  0  0
  181.5330  178.4170  140.6290 O   0  0  0  0  0  0  0  0  0  0  0  0
  183.8780  178.9260  140.8610 C   0  0  0  0  0  3  0  0  0  0  0  0
  182.6350  178.6750  141.4580 C   0  0  0  0  0  0  0  0  0  0  0  0
  183.5580  178.9470  145.1270 C   0  0  0  0  0  1  0  0  0  0  0  0
  184.9060  179.1850  143.0380 C   0  0  0  0  0  3  0  0  0  0  0  0
  183.6690  178.9450  143.6450 C   0  0  0  0  0  0  0  0  0  0  0  0
  185.0090  179.1790  141.6450 C   0  0  0  0  0  3  0  0  0  0  0  0
  182.5380  178.6950  142.8610 C   0  0  0  0  0  3  0  0  0  0  0  0
  191.5830  176.8180  137.6010 O   0  0  0  0  0  0  0  0  0  0  0  0
  192.9240  174.7450  137.2610 C   0  0  0  0  0  2  0  0  0  0  0  0
  191.7030  175.5340  136.9970 C   0  0  1  0  0  0  0  0  0  0  0  0
  191.7300  174.5230  137.9790 O   0  0  0  0  0  0  0  0  0  0  0  0
  190.7970  175.1640  135.8360 C   0  0  0  0  0  2  0  0  0  0  0  0
  189.9450  173.9790  136.1570 C   0  0  0  0  0  0  0  0  0  0  0  0
  190.1330  172.8370  135.4950 C   0  0  0  0  0  2  0  0  0  0  0  0
  188.6860  174.1770  136.9460 C   0  0  0  0  0  2  0  0  0  0  0  0
  187.6590  173.1310  136.5640 C   0  0  0  0  0  1  0  0  0  0  0  0
  1  6  1  0  0  0  0
  2 11  1  0  0  0  0
  2 12  1  1  0  0  0
  3 10  1  1  0  0  0
  4  8  1  0  0  0  0
  5  1  1  0  0  0  0
  7  9  1  6  0  0  0
  7  4  1  0  0  0  0
  8  6  1  0  0  0  0
  9  5  1  0  0  0  0
 11 10  1  6  0  0  0
 11  7  1  0  0  0  0
 12 15  1  0  0  0  0
 13  2  1  0  0  0  0
 14  3  1  0  0  0  0
 14 13  2  0  0  0  0
 15  4  2  0  0  0  0
 16 19  1  6  0  0  0
 16  3  1  0  0  0  0
 16 21  1  0  0  0  0
 17 21  1  0  0  0  0
 18 19  2  0  0  0  0
 18 20  1  0  0  0  0
 20 17  2  0  0  0  0
 22 26  1  1  0  0  0
 23 24  1  0  0  0  0
 23 22  1  0  0  0  0
 24 17  1  6  0  0  0
 24 22  1  0  0  0  0
 26 25  2  0  0  0  0
 26 27  1  0  0  0  0
 27 29  1  0  0  0  0
 28 29  2  0  0  0  0
 28 33  1  0  0  0  0
 29 34  1  0  0  0  0
 31 32  1  0  0  0  0
 32 30  1  0  0  0  0
 33 31  2  0  0  0  0
 34 32  2  0  0  0  0
 35 13  1  0  0  0  0
 36 38  1  0  0  0  0
 37 39  1  6  0  0  0
 37 36  1  0  0  0  0
 37 35  1  0  0  0  0
 37 38  1  0  0  0  0
 39 40  1  0  0  0  0
 40 42  1  0  0  0  0
 41 40  2  0  0  0  0
 43 42  1  0  0  0  0
M  END
>  <MODEL>
6

>  <REMARK>
 VINA RESULT:      -8.4      2.398      5.931
  Name = 
  10 active torsions:
  status: ('A' for Active; 'I' for Inactive)
    1  A    between atoms: O_1  and  C_34
    2  A    between atoms: O_1  and  C_35
    3  A    between atoms: C_2  and  C_13
    4  A    between atoms: C_3  and  C_42
    5  A    between atoms: O_4  and  C_14
    6  A    between atoms: O_4  and  C_41
    7  A    between atoms: C_9  and  C_19
    8  A    between atoms: C_10  and  C_41
    9  A    between atoms: C_19  and  C_32
   10  A    between atoms: C_32  and  C_35
                            x       y       z     vdW  Elec       q    Type
                         _______ _______ _______ _____ _____    ______ ____

>  <TORSDO>
F 10

$$$$
=
 OpenBabel11052416163D

 43 49  0  0  1  0  0  0  0  0999 V2000
  187.1000  177.2210  146.1470 C   0  0  0  0  0  2  0  0  0  0  0  0
  189.6750  176.6890  141.5380 C   0  0  2  0  0  3  0  0  0  0  0  0
  188.1970  178.3690  139.6580 C   0  0  1  0  0  3  0  0  0  0  0  0
  189.6960  177.1920  144.3880 C   0  0  0  0  0  0  0  0  0  0  0  0
  186.5140  177.6640  144.8080 C   0  0  0  0  0  2  0  0  0  0  0  0
  188.3980  177.9660  146.4450 C   0  0  0  0  0  2  0  0  0  0  0  0
  188.6580  177.8830  143.5160 C   0  0  2  0  0  3  0  0  0  0  0  0
  189.5990  177.2010  145.8970 C   0  0  0  0  0  2  0  0  0  0  0  0
  187.3270  177.1360  143.6350 C   0  0  0  0  0  2  0  0  0  0  0  0
  187.9860  178.5540  141.1710 C   0  0  0  0  0  2  0  0  0  0  0  0
  189.1180  178.0170  142.0520 C   0  0  2  0  0  3  0  0  0  0  0  0
  190.9020  176.3190  142.3750 C   0  0  0  0  0  2  0  0  0  0  0  0
  190.0660  176.8270  140.0960 C   0  0  0  0  0  0  0  0  0  0  0  0
  189.3870  177.5970  139.2940 N   0  0  0  0  0  0  0  0  0  0  0  0
  190.6620  176.4290  143.8530 C   0  0  0  0  0  3  0  0  0  0  0  0
  186.9620  177.7830  138.9750 C   0  0  2  0  0  3  0  0  0  0  0  0
  184.5580  178.1280  138.3450 C   0  0  0  0  0  0  0  0  0  0  0  0
  186.1840  177.3860  136.6720 C   0  0  0  0  0  3  0  0  0  0  0  0
  187.2130  177.5210  137.5130 C   0  0  0  0  0  3  0  0  0  0  0  0
  184.8020  177.5660  137.1530 C   0  0  0  0  0  3  0  0  0  0  0  0
  185.7050  178.6400  139.1820 C   0  0  0  0  0  2  0  0  0  0  0  0
  182.3850  179.3450  138.3240 C   0  0  2  0  0  3  0  0  0  0  0  0
  182.1620  177.9620  137.7430 C   0  0  0  0  0  2  0  0  0  0  0  0
  183.1580  178.1510  138.8750 C   0  0  1  0  0  3  0  0  0  0  0  0
  180.8280  180.8670  139.2730 O   0  0  0  0  0  0  0  0  0  0  0  0
  181.2880  179.6930  139.2750 C   0  0  0  0  0  0  0  0  0  0  0  0
  180.7690  178.7020  140.1320 O   0  0  0  0  0  0  0  0  0  0  0  0
  179.7490  178.3200  142.2830 C   0  0  0  0  0  3  0  0  0  0  0  0
  180.8760  178.6800  141.5310 C   0  0  0  0  0  0  0  0  0  0  0  0
  183.3820  179.3380  144.3020 C   0  0  0  0  0  1  0  0  0  0  0  0
  180.9870  178.6260  144.3410 C   0  0  0  0  0  3  0  0  0  0  0  0
  182.1210  178.9790  143.6010 C   0  0  0  0  0  0  0  0  0  0  0  0
  179.8030  178.2930  143.6820 C   0  0  0  0  0  3  0  0  0  0  0  0
  182.0680  179.0020  142.2040 C   0  0  0  0  0  3  0  0  0  0  0  0
  191.1620  176.1030  139.6050 O   0  0  0  0  0  0  0  0  0  0  0  0
  193.1790  176.7530  138.2940 C   0  0  0  0  0  2  0  0  0  0  0  0
  191.7570  176.3550  138.3360 C   0  0  1  0  0  0  0  0  0  0  0  0
  192.7770  175.4190  138.0710 O   0  0  0  0  0  0  0  0  0  0  0  0
  190.8700  176.5750  137.1230 C   0  0  0  0  0  2  0  0  0  0  0  0
  190.4360  175.2820  136.5130 C   0  0  0  0  0  0  0  0  0  0  0  0
  190.7220  175.0300  135.2350 C   0  0  0  0  0  2  0  0  0  0  0  0
  189.4060  174.4520  137.2180 C   0  0  0  0  0  2  0  0  0  0  0  0
  188.2480  174.1560  136.2870 C   0  0  0  0  0  1  0  0  0  0  0  0
  1  6  1  0  0  0  0
  2 11  1  0  0  0  0
  2 12  1  1  0  0  0
  3 10  1  1  0  0  0
  4  8  1  0  0  0  0
  5  1  1  0  0  0  0
  7  9  1  6  0  0  0
  7  4  1  0  0  0  0
  8  6  1  0  0  0  0
  9  5  1  0  0  0  0
 11 10  1  6  0  0  0
 11  7  1  0  0  0  0
 12 15  1  0  0  0  0
 13  2  1  0  0  0  0
 14  3  1  0  0  0  0
 14 13  2  0  0  0  0
 15  4  2  0  0  0  0
 16 19  1  6  0  0  0
 16 21  1  0  0  0  0
 16  3  1  0  0  0  0
 17 21  1  0  0  0  0
 18 20  1  0  0  0  0
 18 19  2  0  0  0  0
 20 17  2  0  0  0  0
 22 24  1  0  0  0  0
 22 26  1  1  0  0  0
 23 22  1  0  0  0  0
 23 24  1  0  0  0  0
 24 17  1  6  0  0  0
 25 26  2  0  0  0  0
 26 27  1  0  0  0  0
 27 29  1  0  0  0  0
 28 33  1  0  0  0  0
 29 34  1  0  0  0  0
 29 28  2  0  0  0  0
 32 30  1  0  0  0  0
 32 31  1  0  0  0  0
 33 31  2  0  0  0  0
 34 32  2  0  0  0  0
 35 13  1  0  0  0  0
 36 37  1  0  0  0  0
 37 39  1  6  0  0  0
 37 35  1  0  0  0  0
 38 36  1  0  0  0  0
 38 37  1  0  0  0  0
 40 39  1  0  0  0  0
 40 42  1  0  0  0  0
 41 40  2  0  0  0  0
 43 42  1  0  0  0  0
M  END
>  <MODEL>
7

>  <REMARK>
 VINA RESULT:      -8.3      2.138      5.326
  Name = 
  10 active torsions:
  status: ('A' for Active; 'I' for Inactive)
    1  A    between atoms: O_1  and  C_34
    2  A    between atoms: O_1  and  C_35
    3  A    between atoms: C_2  and  C_13
    4  A    between atoms: C_3  and  C_42
    5  A    between atoms: O_4  and  C_14
    6  A    between atoms: O_4  and  C_41
    7  A    between atoms: C_9  and  C_19
    8  A    between atoms: C_10  and  C_41
    9  A    between atoms: C_19  and  C_32
   10  A    between atoms: C_32  and  C_35
                            x       y       z     vdW  Elec       q    Type
                         _______ _______ _______ _____ _____    ______ ____

>  <TORSDO>
F 10

$$$$
=
 OpenBabel11052416163D

 43 49  0  0  1  0  0  0  0  0999 V2000
  192.6690  174.2900  136.7670 C   0  0  0  0  0  2  0  0  0  0  0  0
  188.0090  176.7970  137.1490 C   0  0  2  0  0  3  0  0  0  0  0  0
  188.4150  178.8190  139.2190 C   0  0  1  0  0  3  0  0  0  0  0  0
  190.1810  175.7540  135.5450 C   0  0  0  0  0  0  0  0  0  0  0  0
  192.3110  175.2110  137.9310 C   0  0  0  0  0  2  0  0  0  0  0  0
  192.6300  175.0470  135.4430 C   0  0  0  0  0  2  0  0  0  0  0  0
  190.4960  176.5400  136.8100 C   0  0  2  0  0  3  0  0  0  0  0  0
  191.2430  174.9650  134.8130 C   0  0  0  0  0  2  0  0  0  0  0  0
  190.8290  175.5600  137.9380 C   0  0  0  0  0  2  0  0  0  0  0  0
  189.6340  178.1480  138.5620 C   0  0  0  0  0  2  0  0  0  0  0  0
  189.3620  177.5060  137.1980 C   0  0  2  0  0  3  0  0  0  0  0  0
  187.7510  176.3370  135.7110 C   0  0  0  0  0  2  0  0  0  0  0  0
  186.9250  177.7390  137.5830 C   0  0  0  0  0  0  0  0  0  0  0  0
  187.1520  178.6350  138.5010 N   0  0  0  0  0  0  0  0  0  0  0  0
  188.9200  175.6150  135.1050 C   0  0  0  0  0  3  0  0  0  0  0  0
  188.2520  178.4060  140.6810 C   0  0  2  0  0  3  0  0  0  0  0  0
  186.7100  177.4980  142.4400 C   0  0  0  0  0  0  0  0  0  0  0  0
  188.9320  176.5230  142.1170 C   0  0  0  0  0  3  0  0  0  0  0  0
  189.1790  177.2740  141.0410 C   0  0  0  0  0  3  0  0  0  0  0  0
  187.7120  176.7470  142.9150 C   0  0  0  0  0  3  0  0  0  0  0  0
  186.7980  178.0750  141.0470 C   0  0  0  0  0  2  0  0  0  0  0  0
  185.9260  178.9630  144.2960 C   0  0  2  0  0  3  0  0  0  0  0  0
  185.0860  179.2590  143.0690 C   0  0  0  0  0  2  0  0  0  0  0  0
  185.5580  177.8390  143.3330 C   0  0  1  0  0  3  0  0  0  0  0  0
  183.9000  179.3590  145.4700 O   0  0  0  0  0  0  0  0  0  0  0  0
  185.0610  178.8670  145.5080 C   0  0  0  0  0  0  0  0  0  0  0  0
  185.5420  178.2070  146.6570 O   0  0  0  0  0  0  0  0  0  0  0  0
  187.2500  178.3390  148.3530 C   0  0  0  0  0  3  0  0  0  0  0  0
  186.8880  178.0670  147.0270 C   0  0  0  0  0  0  0  0  0  0  0  0
  190.2610  177.1340  145.5620 C   0  0  0  0  0  1  0  0  0  0  0  0
  189.5650  177.8300  147.8580 C   0  0  0  0  0  3  0  0  0  0  0  0
  189.2150  177.5480  146.5340 C   0  0  0  0  0  0  0  0  0  0  0  0
  188.5820  178.2220  148.7690 C   0  0  0  0  0  3  0  0  0  0  0  0
  187.8830  177.6610  146.1200 C   0  0  0  0  0  3  0  0  0  0  0  0
  185.6500  177.6390  137.0070 O   0  0  0  0  0  0  0  0  0  0  0  0
  183.9870  175.8130  136.6720 C   0  0  0  0  0  2  0  0  0  0  0  0
  184.6120  176.8260  137.5470 C   0  0  1  0  0  0  0  0  0  0  0  0
  185.0080  175.4750  137.5850 O   0  0  0  0  0  0  0  0  0  0  0  0
  183.9250  177.2460  138.8350 C   0  0  0  0  0  2  0  0  0  0  0  0
  183.3770  178.6330  138.7420 C   0  0  0  0  0  0  0  0  0  0  0  0
  184.0110  179.6320  139.3570 C   0  0  0  0  0  2  0  0  0  0  0  0
  181.9690  178.8310  138.2690 C   0  0  0  0  0  2  0  0  0  0  0  0
  181.1960  177.5320  138.3700 C   0  0  0  0  0  1  0  0  0  0  0  0
  1  5  1  0  0  0  0
  2 12  1  6  0  0  0
  2 11  1  0  0  0  0
  2 13  1  0  0  0  0
  3 10  1  6  0  0  0
  3 16  1  0  0  0  0
  4  7  1  0  0  0  0
  5  9  1  0  0  0  0
  6  1  1  0  0  0  0
  7 11  1  0  0  0  0
  7  9  1  1  0  0  0
  8  6  1  0  0  0  0
  8  4  1  0  0  0  0
 11 10  1  1  0  0  0
 13 14  2  0  0  0  0
 14  3  1  0  0  0  0
 15  4  2  0  0  0  0
 15 12  1  0  0  0  0
 16 19  1  6  0  0  0
 16 21  1  0  0  0  0
 17 20  2  0  0  0  0
 18 20  1  0  0  0  0
 19 18  2  0  0  0  0
 21 17  1  0  0  0  0
 22 26  1  1  0  0  0
 23 24  1  0  0  0  0
 23 22  1  0  0  0  0
 24 17  1  6  0  0  0
 24 22  1  0  0  0  0
 25 26  2  0  0  0  0
 26 27  1  0  0  0  0
 27 29  1  0  0  0  0
 28 33  1  0  0  0  0
 29 28  2  0  0  0  0
 30 32  1  0  0  0  0
 31 33  2  0  0  0  0
 32 31  1  0  0  0  0
 34 32  2  0  0  0  0
 34 29  1  0  0  0  0
 35 37  1  0  0  0  0
 35 13  1  0  0  0  0
 36 37  1  0  0  0  0
 36 38  1  0  0  0  0
 37 38  1  0  0  0  0
 37 39  1  1  0  0  0
 40 39  1  0  0  0  0
 40 41  2  0  0  0  0
 42 43  1  0  0  0  0
 42 40  1  0  0  0  0
M  END
>  <MODEL>
8

>  <REMARK>
 VINA RESULT:      -8.3      2.378      9.176
  Name = 
  10 active torsions:
  status: ('A' for Active; 'I' for Inactive)
    1  A    between atoms: O_1  and  C_34
    2  A    between atoms: O_1  and  C_35
    3  A    between atoms: C_2  and  C_13
    4  A    between atoms: C_3  and  C_42
    5  A    between atoms: O_4  and  C_14
    6  A    between atoms: O_4  and  C_41
    7  A    between atoms: C_9  and  C_19
    8  A    between atoms: C_10  and  C_41
    9  A    between atoms: C_19  and  C_32
   10  A    between atoms: C_32  and  C_35
                            x       y       z     vdW  Elec       q    Type
                         _______ _______ _______ _____ _____    ______ ____

>  <TORSDO>
F 10

$$$$
=
 OpenBabel11052416163D

 43 49  0  0  1  0  0  0  0  0999 V2000
  181.7280  178.6180  141.9940 C   0  0  0  0  0  2  0  0  0  0  0  0
  186.5940  177.5000  143.7880 C   0  0  2  0  0  3  0  0  0  0  0  0
  188.3980  178.4380  141.6900 C   0  0  1  0  0  3  0  0  0  0  0  0
  183.9600  178.6290  144.1950 C   0  0  0  0  0  0  0  0  0  0  0  0
  182.9690  178.6430  141.1060 C   0  0  0  0  0  2  0  0  0  0  0  0
  181.8580  179.6190  143.1390 C   0  0  0  0  0  2  0  0  0  0  0  0
  184.7060  178.9210  142.9010 C   0  0  2  0  0  3  0  0  0  0  0  0
  182.4950  178.9620  144.3610 C   0  0  0  0  0  2  0  0  0  0  0  0
  184.1680  178.0080  141.7960 C   0  0  0  0  0  2  0  0  0  0  0  0
  186.9380  178.9220  141.7090 C   0  0  0  0  0  2  0  0  0  0  0  0
  186.2330  178.7960  143.0630 C   0  0  2  0  0  3  0  0  0  0  0  0
  185.9830  177.5390  145.1910 C   0  0  0  0  0  2  0  0  0  0  0  0
  188.0860  177.3720  143.8860 C   0  0  0  0  0  0  0  0  0  0  0  0
  188.8550  177.8160  142.9340 N   0  0  0  0  0  0  0  0  0  0  0  0
  184.5350  177.9390  145.1920 C   0  0  0  0  0  3  0  0  0  0  0  0
  188.6800  177.5150  140.5060 C   0  0  2  0  0  3  0  0  0  0  0  0
  188.2970  177.0620  138.0680 C   0  0  0  0  0  0  0  0  0  0  0  0
  190.5630  177.0340  138.9920 C   0  0  0  0  0  3  0  0  0  0  0  0
  190.1520  177.4540  140.1920 C   0  0  0  0  0  3  0  0  0  0  0  0
  189.5810  176.6990  137.9450 C   0  0  0  0  0  3  0  0  0  0  0  0
  187.8570  177.8770  139.2610 C   0  0  0  0  0  2  0  0  0  0  0  0
  186.1520  177.5680  136.9080 C   0  0  2  0  0  3  0  0  0  0  0  0
  187.2510  177.4980  135.8660 C   0  0  0  0  0  2  0  0  0  0  0  0
  187.2950  176.5710  137.0700 C   0  0  1  0  0  3  0  0  0  0  0  0
  184.6460  176.8750  135.2070 O   0  0  0  0  0  0  0  0  0  0  0  0
  184.9380  176.8400  136.4330 C   0  0  0  0  0  0  0  0  0  0  0  0
  184.1600  176.1080  137.3520 O   0  0  0  0  0  0  0  0  0  0  0  0
  182.3500  177.6980  137.4350 C   0  0  0  0  0  3  0  0  0  0  0  0
  182.9050  176.4820  137.8550 C   0  0  0  0  0  0  0  0  0  0  0  0
  180.1950  175.2560  140.2100 C   0  0  0  0  0  1  0  0  0  0  0  0
  180.4010  177.3230  138.8230 C   0  0  0  0  0  3  0  0  0  0  0  0
  180.9400  176.1030  139.2420 C   0  0  0  0  0  0  0  0  0  0  0  0
  181.1040  178.1190  137.9160 C   0  0  0  0  0  3  0  0  0  0  0  0
  182.1840  175.6810  138.7590 C   0  0  0  0  0  3  0  0  0  0  0  0
  188.6530  176.7500  145.0080 O   0  0  0  0  0  0  0  0  0  0  0  0
  188.9890  178.6170  146.6230 C   0  0  0  0  0  2  0  0  0  0  0  0
  189.5100  177.4250  145.9240 C   0  0  1  0  0  0  0  0  0  0  0  0
  188.9970  177.3460  147.2340 O   0  0  0  0  0  0  0  0  0  0  0  0
  191.0040  177.1570  145.8890 C   0  0  0  0  0  2  0  0  0  0  0  0
  191.5740  177.3820  144.5260 C   0  0  0  0  0  0  0  0  0  0  0  0
  191.6800  178.6260  144.0560 C   0  0  0  0  0  2  0  0  0  0  0  0
  191.6900  176.2230  143.5830 C   0  0  0  0  0  2  0  0  0  0  0  0
  192.0540  174.9650  144.3440 C   0  0  0  0  0  1  0  0  0  0  0  0
  1  6  1  0  0  0  0
  2 13  1  0  0  0  0
  2 12  1  1  0  0  0
  3 10  1  1  0  0  0
  3 14  1  0  0  0  0
  4  8  1  0  0  0  0
  4 15  2  0  0  0  0
  5  9  1  0  0  0  0
  5  1  1  0  0  0  0
  6  8  1  0  0  0  0
  7  9  1  6  0  0  0
  7 11  1  0  0  0  0
  7  4  1  0  0  0  0
 11 10  1  6  0  0  0
 11  2  1  0  0  0  0
 12 15  1  0  0  0  0
 13 35  1  0  0  0  0
 14 13  2  0  0  0  0
 16 21  1  6  0  0  0
 16  3  1  0  0  0  0
 17 21  1  0  0  0  0
 18 19  2  0  0  0  0
 19 16  1  0  0  0  0
 20 17  2  0  0  0  0
 20 18  1  0  0  0  0
 22 26  1  6  0  0  0
 22 24  1  0  0  0  0
 23 22  1  0  0  0  0
 23 24  1  0  0  0  0
 24 17  1  1  0  0  0
 25 26  2  0  0  0  0
 26 27  1  0  0  0  0
 27 29  1  0  0  0  0
 28 29  2  0  0  0  0
 28 33  1  0  0  0  0
 29 34  1  0  0  0  0
 31 32  1  0  0  0  0
 32 30  1  0  0  0  0
 33 31  2  0  0  0  0
 34 32  2  0  0  0  0
 35 37  1  0  0  0  0
 36 38  1  0  0  0  0
 37 39  1  6  0  0  0
 37 36  1  0  0  0  0
 37 38  1  0  0  0  0
 40 39  1  0  0  0  0
 41 40  2  0  0  0  0
 42 43  1  0  0  0  0
 42 40  1  0  0  0  0
M  END
>  <MODEL>
9

>  <REMARK>
 VINA RESULT:      -8.0      1.386      2.506
  Name = 
  10 active torsions:
  status: ('A' for Active; 'I' for Inactive)
    1  A    between atoms: O_1  and  C_34
    2  A    between atoms: O_1  and  C_35
    3  A    between atoms: C_2  and  C_13
    4  A    between atoms: C_3  and  C_42
    5  A    between atoms: O_4  and  C_14
    6  A    between atoms: O_4  and  C_41
    7  A    between atoms: C_9  and  C_19
    8  A    between atoms: C_10  and  C_41
    9  A    between atoms: C_19  and  C_32
   10  A    between atoms: C_32  and  C_35
                            x       y       z     vdW  Elec       q    Type
                         _______ _______ _______ _____ _____    ______ ____

>  <TORSDO>
F 10

$$$$
