=
 OpenBabel11052415443D

 34 38  0  0  1  0  0  0  0  0999 V2000
  188.5240  177.7610  143.5590 C   0  0  2  0  0  3  0  0  0  0  0  0
  191.7530  176.5700  145.3860 C   0  0  0  0  0  2  0  0  0  0  0  0
  191.5730  177.0410  142.7380 S   0  0  0  0  0  0  0  0  0  0  0  0
  188.1640  178.4360  141.2610 C   0  0  0  0  0  3  0  0  0  0  0  0
  189.5020  177.8050  139.3250 C   0  0  0  0  0  3  0  0  0  0  0  0
  188.3900  178.3530  139.8100 C   0  0  0  0  0  3  0  0  0  0  0  0
  190.1190  176.9580  141.6380 C   0  0  1  0  0  3  0  0  0  0  0  0
  188.9840  177.8400  142.1330 C   0  0  0  0  0  0  0  0  0  0  0  0
  190.6070  177.3640  140.2380 C   0  0  0  0  0  2  0  0  0  0  0  0
  191.1140  176.4400  146.7600 C   0  0  2  0  0  3  0  0  0  0  0  0
  190.2420  177.6580  147.0310 C   0  0  0  0  0  2  0  0  0  0  0  0
  190.6970  176.6630  144.2850 C   0  0  2  0  0  3  0  0  0  0  0  0
  189.1240  177.7200  146.0010 C   0  0  0  0  0  2  0  0  0  0  0  0
  189.6790  177.7800  144.5720 C   0  0  2  0  0  3  0  0  0  0  0  0
  193.0010  175.2030  147.8410 O   0  0  0  0  0  0  0  0  0  0  0  0
  192.2990  177.2200  148.6710 O   0  0  0  0  0  1  0  0  0  0  0  0
  192.1690  176.3160  147.8060 C   0  0  0  0  0  0  0  0  0  0  0  0
  187.5350  176.6030  143.7600 C   0  0  0  0  0  2  0  0  0  0  0  0
  186.4020  177.0230  144.4600 O   0  0  0  0  0  0  0  0  0  0  0  0
  186.4180  178.4150  144.3680 C   0  0  0  0  0  2  0  0  0  0  0  0
  182.6900  179.2210  143.9570 C   0  0  0  0  0  2  0  0  0  0  0  0
  184.9200  178.1150  142.3990 C   0  0  0  0  0  2  0  0  0  0  0  0
  181.0820  178.7610  140.4780 C   0  0  2  0  0  0  0  0  0  0  0  0
  181.5150  179.9110  139.8090 O   0  0  0  0  0  1  0  0  0  0  0  0
  181.1640  179.0090  141.9940 C   0  0  0  0  0  2  0  0  0  0  0  0
  182.4370  178.4650  142.6550 C   0  0  1  0  0  3  0  0  0  0  0  0
  183.4320  177.7620  140.4310 C   0  0  0  0  0  2  0  0  0  0  0  0
  183.6420  178.5800  141.7100 C   0  0  2  0  0  3  0  0  0  0  0  0
  181.9560  177.5750  140.0530 C   0  0  0  0  0  2  0  0  0  0  0  0
  185.1520  178.9030  143.6870 C   0  0  1  0  0  3  0  0  0  0  0  0
  183.9650  178.7180  144.6240 C   0  0  0  0  0  2  0  0  0  0  0  0
  179.6550  178.4700  140.1180 C   0  0  0  0  0  0  0  0  0  0  0  0
  178.9570  179.3400  139.2870 O   0  0  0  0  0  0  0  0  0  0  0  0
  179.0820  177.4300  140.5430 O   0  0  0  0  0  1  0  0  0  0  0  0
  1 18  1  6  0  0  0
  1 14  1  0  0  0  0
  2 10  1  0  0  0  0
  3 12  1  0  0  0  0
  4  8  2  0  0  0  0
  5  6  2  0  0  0  0
  5  9  1  0  0  0  0
  6  4  1  0  0  0  0
  7  9  1  6  0  0  0
  7  8  1  0  0  0  0
  7  3  1  0  0  0  0
  8  1  1  0  0  0  0
 10 11  1  0  0  0  0
 10 17  1  1  0  0  0
 12 14  1  0  0  0  0
 12  2  1  1  0  0  0
 13 11  1  0  0  0  0
 14 13  1  1  0  0  0
 17 15  2  0  0  0  0
 17 16  1  0  0  0  0
 18 19  1  0  0  0  0
 20 19  1  0  0  0  0
 21 31  1  0  0  0  0
 22 30  1  0  0  0  0
 23 24  1  6  0  0  0
 23 25  1  0  0  0  0
 26 25  1  6  0  0  0
 26 21  1  0  0  0  0
 28 27  1  6  0  0  0
 28 22  1  0  0  0  0
 28 26  1  0  0  0  0
 29 27  1  0  0  0  0
 29 23  1  0  0  0  0
 30 20  1  1  0  0  0
 30 31  1  0  0  0  0
 32 23  1  0  0  0  0
 32 34  1  0  0  0  0
 33 32  2  0  0  0  0
M  END
>  <MODEL>
1

>  <REMARK>
 VINA RESULT:      -9.8      0.000      0.000
  Name = 
  6 active torsions:
  status: ('A' for Active; 'I' for Inactive)
    1  A    between atoms: C_1  and  C_9
    2  A    between atoms: C_7  and  C_11
    3  A    between atoms: O_8  and  C_9
    4  A    between atoms: O_8  and  C_18
    5  A    between atoms: C_18  and  C_30
    6  A    between atoms: C_23  and  C_25
                            x       y       z     vdW  Elec       q    Type
                         _______ _______ _______ _____ _____    ______ ____

>  <TORSDO>
F 6

$$$$
=
 OpenBabel11052415443D

 34 38  0  0  1  0  0  0  0  0999 V2000
  186.6060  177.7260  142.4450 C   0  0  2  0  0  3  0  0  0  0  0  0
  189.2720  177.1220  145.2220 C   0  0  0  0  0  2  0  0  0  0  0  0
  186.7200  177.8590  145.6790 S   0  0  0  0  0  0  0  0  0  0  0  0
  184.2340  178.1900  142.6040 C   0  0  0  0  0  3  0  0  0  0  0  0
  183.0600  179.1740  144.4970 C   0  0  0  0  0  3  0  0  0  0  0  0
  183.0470  178.8010  143.2200 C   0  0  0  0  0  3  0  0  0  0  0  0
  185.5670  178.7840  144.6080 C   0  0  1  0  0  3  0  0  0  0  0  0
  185.4030  178.1220  143.2490 C   0  0  0  0  0  0  0  0  0  0  0  0
  184.2380  178.8770  145.3770 C   0  0  0  0  0  2  0  0  0  0  0  0
  190.4250  176.8400  144.2700 C   0  0  2  0  0  3  0  0  0  0  0  0
  189.9520  175.9080  143.1630 C   0  0  0  0  0  2  0  0  0  0  0  0
  188.1010  177.7850  144.4990 C   0  0  2  0  0  3  0  0  0  0  0  0
  188.8470  176.5860  142.3680 C   0  0  0  0  0  2  0  0  0  0  0  0
  187.6650  176.9740  143.2660 C   0  0  2  0  0  3  0  0  0  0  0  0
  191.9950  176.7670  146.2170 O   0  0  0  0  0  1  0  0  0  0  0  0
  192.1460  175.2170  144.5360 O   0  0  0  0  0  0  0  0  0  0  0  0
  191.5640  176.2260  145.0110 C   0  0  0  0  0  0  0  0  0  0  0  0
  187.1600  178.9180  141.6510 C   0  0  0  0  0  2  0  0  0  0  0  0
  187.3260  178.5930  140.3030 O   0  0  0  0  0  0  0  0  0  0  0  0
  188.6840  178.7930  140.0500 C   0  0  0  0  0  2  0  0  0  0  0  0
  188.4370  176.1860  137.2460 C   0  0  0  0  0  2  0  0  0  0  0  0
  190.4380  177.3160  139.0740 C   0  0  0  0  0  2  0  0  0  0  0  0
  191.6770  174.4670  136.0420 C   0  0  2  0  0  0  0  0  0  0  0  0
  192.2350  175.4540  135.2230 O   0  0  0  0  0  1  0  0  0  0  0  0
  190.1680  174.7370  136.1850 C   0  0  0  0  0  2  0  0  0  0  0  0
  189.7800  175.4930  137.4610 C   0  0  1  0  0  3  0  0  0  0  0  0
  192.2000  175.8170  138.1460 C   0  0  0  0  0  2  0  0  0  0  0  0
  190.8640  176.5090  137.8530 C   0  0  2  0  0  3  0  0  0  0  0  0
  192.3830  174.4860  137.4030 C   0  0  0  0  0  2  0  0  0  0  0  0
  189.1010  178.0080  138.8190 C   0  0  1  0  0  3  0  0  0  0  0  0
  188.0360  176.9680  138.4920 C   0  0  0  0  0  2  0  0  0  0  0  0
  191.8640  173.1170  135.4140 C   0  0  0  0  0  0  0  0  0  0  0  0
  193.1340  172.7000  135.0310 O   0  0  0  0  0  0  0  0  0  0  0  0
  190.8830  172.3440  135.2460 O   0  0  0  0  0  1  0  0  0  0  0  0
  1 18  1  1  0  0  0
  1  8  1  0  0  0  0
  1 14  1  0  0  0  0
  4  6  1  0  0  0  0
  4  8  2  0  0  0  0
  5  9  1  0  0  0  0
  6  5  2  0  0  0  0
  7  9  1  1  0  0  0
  7  3  1  0  0  0  0
  8  7  1  0  0  0  0
 10 17  1  1  0  0  0
 10  2  1  0  0  0  0
 11 10  1  0  0  0  0
 12  2  1  1  0  0  0
 12  3  1  0  0  0  0
 13 11  1  0  0  0  0
 14 13  1  6  0  0  0
 14 12  1  0  0  0  0
 16 17  2  0  0  0  0
 17 15  1  0  0  0  0
 19 18  1  0  0  0  0
 20 19  1  0  0  0  0
 21 26  1  0  0  0  0
 21 31  1  0  0  0  0
 23 24  1  6  0  0  0
 23 25  1  0  0  0  0
 23 29  1  0  0  0  0
 26 25  1  6  0  0  0
 26 28  1  0  0  0  0
 28 27  1  1  0  0  0
 28 22  1  0  0  0  0
 29 27  1  0  0  0  0
 30 22  1  0  0  0  0
 30 20  1  1  0  0  0
 31 30  1  0  0  0  0
 32 23  1  0  0  0  0
 33 32  2  0  0  0  0
 34 32  1  0  0  0  0
M  END
>  <MODEL>
2

>  <REMARK>
 VINA RESULT:      -9.5      4.320      7.909
  Name = 
  6 active torsions:
  status: ('A' for Active; 'I' for Inactive)
    1  A    between atoms: C_1  and  C_9
    2  A    between atoms: C_7  and  C_11
    3  A    between atoms: O_8  and  C_9
    4  A    between atoms: O_8  and  C_18
    5  A    between atoms: C_18  and  C_30
    6  A    between atoms: C_23  and  C_25
                            x       y       z     vdW  Elec       q    Type
                         _______ _______ _______ _____ _____    ______ ____

>  <TORSDO>
F 6

$$$$
=
 OpenBabel11052415443D

 34 38  0  0  1  0  0  0  0  0999 V2000
  187.8040  177.5850  142.7920 C   0  0  2  0  0  3  0  0  0  0  0  0
  189.5530  177.1450  146.2470 C   0  0  0  0  0  2  0  0  0  0  0  0
  186.9530  177.7750  145.9120 S   0  0  0  0  0  0  0  0  0  0  0  0
  185.4750  177.9450  142.2330 C   0  0  0  0  0  3  0  0  0  0  0  0
  183.7580  178.9070  143.6690 C   0  0  0  0  0  3  0  0  0  0  0  0
  184.1370  178.5130  142.4550 C   0  0  0  0  0  3  0  0  0  0  0  0
  186.1330  178.6300  144.5240 C   0  0  1  0  0  3  0  0  0  0  0  0
  186.4030  177.9400  143.1950 C   0  0  0  0  0  0  0  0  0  0  0  0
  184.6350  178.6770  144.8640 C   0  0  0  0  0  2  0  0  0  0  0  0
  190.9450  176.8990  145.6850 C   0  0  2  0  0  3  0  0  0  0  0  0
  190.8560  175.9300  144.5140 C   0  0  0  0  0  2  0  0  0  0  0  0
  188.6230  177.7440  145.1930 C   0  0  2  0  0  3  0  0  0  0  0  0
  190.0090  176.5450  143.4110 C   0  0  0  0  0  2  0  0  0  0  0  0
  188.6010  176.8940  143.9100 C   0  0  2  0  0  3  0  0  0  0  0  0
  192.0340  177.0450  147.9330 O   0  0  0  0  0  1  0  0  0  0  0  0
  192.4230  175.2520  146.5600 O   0  0  0  0  0  0  0  0  0  0  0  0
  191.8370  176.3490  146.7450 C   0  0  0  0  0  0  0  0  0  0  0  0
  188.5230  178.7880  142.1630 C   0  0  0  0  0  2  0  0  0  0  0  0
  188.4190  178.7650  140.7710 O   0  0  0  0  0  0  0  0  0  0  0  0
  188.6880  177.4440  140.4120 C   0  0  0  0  0  2  0  0  0  0  0  0
  189.9770  176.6110  136.8950 C   0  0  0  0  0  2  0  0  0  0  0  0
  190.9600  176.7500  139.6590 C   0  0  0  0  0  2  0  0  0  0  0  0
  193.7420  175.8950  136.4390 C   0  0  2  0  0  0  0  0  0  0  0  0
  194.2810  177.1860  136.4480 O   0  0  0  0  0  1  0  0  0  0  0  0
  192.2490  175.9840  136.0780 C   0  0  0  0  0  2  0  0  0  0  0  0
  191.3050  175.9690  137.2870 C   0  0  1  0  0  3  0  0  0  0  0  0
  193.2290  176.0140  138.9380 C   0  0  0  0  0  2  0  0  0  0  0  0
  191.9330  176.6950  138.4860 C   0  0  2  0  0  3  0  0  0  0  0  0
  193.9510  175.2550  137.8160 C   0  0  0  0  0  2  0  0  0  0  0  0
  189.6500  177.4130  139.2380 C   0  0  1  0  0  3  0  0  0  0  0  0
  189.0250  176.6330  138.0870 C   0  0  0  0  0  2  0  0  0  0  0  0
  194.4360  175.0610  135.4020 C   0  0  0  0  0  0  0  0  0  0  0  0
  193.7330  174.0730  134.7220 O   0  0  0  0  0  0  0  0  0  0  0  0
  195.6490  175.2590  135.1220 O   0  0  0  0  0  1  0  0  0  0  0  0
  1 18  1  1  0  0  0
  1  8  1  0  0  0  0
  1 14  1  0  0  0  0
  4  6  1  0  0  0  0
  4  8  2  0  0  0  0
  5  9  1  0  0  0  0
  6  5  2  0  0  0  0
  7  9  1  1  0  0  0
  7  3  1  0  0  0  0
  8  7  1  0  0  0  0
 10  2  1  0  0  0  0
 10 17  1  1  0  0  0
 11 10  1  0  0  0  0
 12  3  1  0  0  0  0
 12  2  1  1  0  0  0
 13 11  1  0  0  0  0
 14 13  1  6  0  0  0
 14 12  1  0  0  0  0
 16 17  2  0  0  0  0
 17 15  1  0  0  0  0
 19 18  1  0  0  0  0
 20 19  1  0  0  0  0
 21 26  1  0  0  0  0
 21 31  1  0  0  0  0
 23 24  1  1  0  0  0
 23 29  1  0  0  0  0
 25 23  1  0  0  0  0
 26 25  1  6  0  0  0
 26 28  1  0  0  0  0
 28 27  1  1  0  0  0
 28 22  1  0  0  0  0
 29 27  1  0  0  0  0
 30 22  1  0  0  0  0
 30 20  1  1  0  0  0
 31 30  1  0  0  0  0
 32 23  1  0  0  0  0
 33 32  2  0  0  0  0
 34 32  1  0  0  0  0
M  END
>  <MODEL>
3

>  <REMARK>
 VINA RESULT:      -9.3      4.446      8.395
  Name = 
  6 active torsions:
  status: ('A' for Active; 'I' for Inactive)
    1  A    between atoms: C_1  and  C_9
    2  A    between atoms: C_7  and  C_11
    3  A    between atoms: O_8  and  C_9
    4  A    between atoms: O_8  and  C_18
    5  A    between atoms: C_18  and  C_30
    6  A    between atoms: C_23  and  C_25
                            x       y       z     vdW  Elec       q    Type
                         _______ _______ _______ _____ _____    ______ ____

>  <TORSDO>
F 6

$$$$
=
 OpenBabel11052415443D

 34 38  0  0  1  0  0  0  0  0999 V2000
  190.4850  177.0020  138.3640 C   0  0  2  0  0  3  0  0  0  0  0  0
  192.0330  174.1460  136.2120 C   0  0  0  0  0  2  0  0  0  0  0  0
  189.4820  174.9970  136.0250 S   0  0  0  0  0  0  0  0  0  0  0  0
  188.3130  178.0690  138.2490 C   0  0  0  0  0  3  0  0  0  0  0  0
  186.2700  177.1310  137.3110 C   0  0  0  0  0  3  0  0  0  0  0  0
  186.8580  178.0820  138.0310 C   0  0  0  0  0  3  0  0  0  0  0  0
  188.4250  175.7860  137.2860 C   0  0  1  0  0  3  0  0  0  0  0  0
  189.0700  177.0360  137.8640 C   0  0  0  0  0  0  0  0  0  0  0  0
  187.0800  176.0860  136.6020 C   0  0  0  0  0  2  0  0  0  0  0  0
  193.3950  174.1630  136.8900 C   0  0  2  0  0  3  0  0  0  0  0  0
  193.8570  175.6030  137.0650 C   0  0  0  0  0  2  0  0  0  0  0  0
  190.9880  174.8920  137.0390 C   0  0  2  0  0  3  0  0  0  0  0  0
  192.8790  176.3430  137.9640 C   0  0  0  0  0  2  0  0  0  0  0  0
  191.4560  176.3150  137.3910 C   0  0  2  0  0  3  0  0  0  0  0  0
  194.5420  172.0300  136.2630 O   0  0  0  0  0  1  0  0  0  0  0  0
  195.0850  173.9970  135.2230 O   0  0  0  0  0  0  0  0  0  0  0  0
  194.3830  173.3980  136.0770 C   0  0  0  0  0  0  0  0  0  0  0  0
  190.5520  176.4630  139.8000 C   0  0  0  0  0  2  0  0  0  0  0  0
  190.8050  177.4890  140.7130 O   0  0  0  0  0  0  0  0  0  0  0  0
  190.6690  176.8960  141.9680 C   0  0  0  0  0  2  0  0  0  0  0  0
  188.2280  177.5420  144.8580 C   0  0  0  0  0  2  0  0  0  0  0  0
  188.2930  177.6460  141.9230 C   0  0  0  0  0  2  0  0  0  0  0  0
  184.7490  178.9960  144.0350 C   0  0  2  0  0  0  0  0  0  0  0  0
  185.0440  180.3490  143.8390 O   0  0  0  0  0  1  0  0  0  0  0  0
  185.8720  178.3600  144.8730 C   0  0  0  0  0  2  0  0  0  0  0  0
  186.9370  177.6270  144.0490 C   0  0  1  0  0  3  0  0  0  0  0  0
  185.9040  178.3540  141.8500 C   0  0  0  0  0  2  0  0  0  0  0  0
  187.1760  178.3310  142.7040 C   0  0  2  0  0  3  0  0  0  0  0  0
  184.6080  178.3110  142.6700 C   0  0  0  0  0  2  0  0  0  0  0  0
  189.5730  177.5950  142.7530 C   0  0  1  0  0  3  0  0  0  0  0  0
  189.3160  176.8390  144.0510 C   0  0  0  0  0  2  0  0  0  0  0  0
  183.4570  178.8610  144.7860 C   0  0  0  0  0  0  0  0  0  0  0  0
  182.2800  178.5810  144.0990 O   0  0  0  0  0  0  0  0  0  0  0  0
  183.4260  178.9770  146.0410 O   0  0  0  0  0  1  0  0  0  0  0  0
  1 18  1  1  0  0  0
  2 10  1  0  0  0  0
  3 12  1  0  0  0  0
  3  7  1  0  0  0  0
  5  6  2  0  0  0  0
  6  4  1  0  0  0  0
  7  9  1  6  0  0  0
  7  8  1  0  0  0  0
  8  4  2  0  0  0  0
  8  1  1  0  0  0  0
  9  5  1  0  0  0  0
 10 17  1  6  0  0  0
 10 11  1  0  0  0  0
 11 13  1  0  0  0  0
 12  2  1  6  0  0  0
 12 14  1  0  0  0  0
 14 13  1  1  0  0  0
 14  1  1  0  0  0  0
 16 17  2  0  0  0  0
 17 15  1  0  0  0  0
 18 19  1  0  0  0  0
 19 20  1  0  0  0  0
 22 28  1  0  0  0  0
 22 30  1  0  0  0  0
 23 24  1  6  0  0  0
 23 32  1  0  0  0  0
 23 25  1  0  0  0  0
 26 21  1  1  0  0  0
 26 25  1  0  0  0  0
 27 29  1  0  0  0  0
 28 27  1  6  0  0  0
 28 26  1  0  0  0  0
 29 23  1  0  0  0  0
 30 20  1  6  0  0  0
 30 31  1  0  0  0  0
 31 21  1  0  0  0  0
 32 34  1  0  0  0  0
 33 32  2  0  0  0  0
M  END
>  <MODEL>
4

>  <REMARK>
 VINA RESULT:      -8.9      4.461      6.948
  Name = 
  6 active torsions:
  status: ('A' for Active; 'I' for Inactive)
    1  A    between atoms: C_1  and  C_9
    2  A    between atoms: C_7  and  C_11
    3  A    between atoms: O_8  and  C_9
    4  A    between atoms: O_8  and  C_18
    5  A    between atoms: C_18  and  C_30
    6  A    between atoms: C_23  and  C_25
                            x       y       z     vdW  Elec       q    Type
                         _______ _______ _______ _____ _____    ______ ____

>  <TORSDO>
F 6

$$$$
=
 OpenBabel11052415443D

 34 38  0  0  1  0  0  0  0  0999 V2000
  185.6870  177.9080  142.5190 C   0  0  2  0  0  3  0  0  0  0  0  0
  186.9400  178.2370  146.1940 C   0  0  0  0  0  2  0  0  0  0  0  0
  184.4070  178.6890  145.3900 S   0  0  0  0  0  0  0  0  0  0  0  0
  183.4560  178.0610  141.5880 C   0  0  0  0  0  3  0  0  0  0  0  0
  181.5460  179.2260  142.5530 C   0  0  0  0  0  3  0  0  0  0  0  0
  182.0940  178.6120  141.5070 C   0  0  0  0  0  3  0  0  0  0  0  0
  183.7810  179.2160  143.7580 C   0  0  1  0  0  3  0  0  0  0  0  0
  184.2400  178.2850  142.6480 C   0  0  0  0  0  0  0  0  0  0  0  0
  182.2490  179.2740  143.8770 C   0  0  0  0  0  2  0  0  0  0  0  0
  188.3990  177.9360  145.8860 C   0  0  2  0  0  3  0  0  0  0  0  0
  188.4840  176.7490  144.9380 C   0  0  0  0  0  2  0  0  0  0  0  0
  186.1610  178.5770  144.9240 C   0  0  2  0  0  3  0  0  0  0  0  0
  187.7940  177.0970  143.6280 C   0  0  0  0  0  2  0  0  0  0  0  0
  186.3260  177.4870  143.8510 C   0  0  2  0  0  3  0  0  0  0  0  0
  188.5800  177.9540  148.3820 O   0  0  0  0  0  1  0  0  0  0  0  0
  190.2820  177.1220  147.0930 O   0  0  0  0  0  0  0  0  0  0  0  0
  189.1390  177.6440  147.1480 C   0  0  0  0  0  0  0  0  0  0  0  0
  186.4750  178.9870  141.7600 C   0  0  0  0  0  2  0  0  0  0  0  0
  186.8270  178.5480  140.4820 O   0  0  0  0  0  0  0  0  0  0  0  0
  188.1830  178.8520  140.3590 C   0  0  0  0  0  2  0  0  0  0  0  0
  191.1060  176.4040  139.9210 C   0  0  0  0  0  2  0  0  0  0  0  0
  189.0200  177.7020  138.3120 C   0  0  0  0  0  2  0  0  0  0  0  0
  191.6350  174.7710  136.4640 C   0  0  2  0  0  0  0  0  0  0  0  0
  190.6560  173.7710  136.4680 O   0  0  0  0  0  1  0  0  0  0  0  0
  191.9390  175.1730  137.9180 C   0  0  0  0  0  2  0  0  0  0  0  0
  191.1910  176.4230  138.3970 C   0  0  1  0  0  3  0  0  0  0  0  0
  189.8660  176.6000  136.2430 C   0  0  0  0  0  2  0  0  0  0  0  0
  189.7910  176.5030  137.7700 C   0  0  2  0  0  3  0  0  0  0  0  0
  191.1280  175.9640  135.6450 C   0  0  0  0  0  2  0  0  0  0  0  0
  188.9390  177.6430  139.8360 C   0  0  1  0  0  3  0  0  0  0  0  0
  190.3430  177.6240  140.4260 C   0  0  0  0  0  2  0  0  0  0  0  0
  192.8940  174.2480  135.8390 C   0  0  0  0  0  0  0  0  0  0  0  0
  193.9900  173.9390  136.6380 O   0  0  0  0  0  1  0  0  0  0  0  0
  192.9670  174.0630  134.5940 O   0  0  0  0  0  0  0  0  0  0  0  0
  1 18  1  1  0  0  0
  1  8  1  0  0  0  0
  1 14  1  0  0  0  0
  4  8  2  0  0  0  0
  5  9  1  0  0  0  0
  6  4  1  0  0  0  0
  6  5  2  0  0  0  0
  7  9  1  1  0  0  0
  7  3  1  0  0  0  0
  8  7  1  0  0  0  0
 10  2  1  0  0  0  0
 10 17  1  1  0  0  0
 11 10  1  0  0  0  0
 12  3  1  0  0  0  0
 12  2  1  1  0  0  0
 13 11  1  0  0  0  0
 14 13  1  6  0  0  0
 14 12  1  0  0  0  0
 16 17  2  0  0  0  0
 17 15  1  0  0  0  0
 19 18  1  0  0  0  0
 20 19  1  0  0  0  0
 21 31  1  0  0  0  0
 22 30  1  0  0  0  0
 23 24  1  6  0  0  0
 23 25  1  0  0  0  0
 26 25  1  6  0  0  0
 26 21  1  0  0  0  0
 28 27  1  6  0  0  0
 28 22  1  0  0  0  0
 28 26  1  0  0  0  0
 29 27  1  0  0  0  0
 29 23  1  0  0  0  0
 30 20  1  1  0  0  0
 30 31  1  0  0  0  0
 32 23  1  0  0  0  0
 32 33  1  0  0  0  0
 34 32  2  0  0  0  0
M  END
>  <MODEL>
5

>  <REMARK>
 VINA RESULT:      -8.8      4.199      8.103
  Name = 
  6 active torsions:
  status: ('A' for Active; 'I' for Inactive)
    1  A    between atoms: C_1  and  C_9
    2  A    between atoms: C_7  and  C_11
    3  A    between atoms: O_8  and  C_9
    4  A    between atoms: O_8  and  C_18
    5  A    between atoms: C_18  and  C_30
    6  A    between atoms: C_23  and  C_25
                            x       y       z     vdW  Elec       q    Type
                         _______ _______ _______ _____ _____    ______ ____

>  <TORSDO>
F 6

$$$$
=
 OpenBabel11052415443D

 34 38  0  0  1  0  0  0  0  0999 V2000
  182.6520  177.7630  139.6850 C   0  0  2  0  0  3  0  0  0  0  0  0
  184.9710  175.9420  137.1380 C   0  0  0  0  0  2  0  0  0  0  0  0
  182.4130  175.2580  137.6440 S   0  0  0  0  0  0  0  0  0  0  0  0
  180.2950  177.4730  140.1670 C   0  0  0  0  0  3  0  0  0  0  0  0
  178.9570  175.4760  139.7740 C   0  0  0  0  0  3  0  0  0  0  0  0
  179.0710  176.6760  140.3380 C   0  0  0  0  0  3  0  0  0  0  0  0
  181.4200  175.5080  139.1560 C   0  0  1  0  0  3  0  0  0  0  0  0
  181.3830  176.9700  139.5740 C   0  0  0  0  0  0  0  0  0  0  0  0
  180.0190  174.9500  138.8540 C   0  0  0  0  0  2  0  0  0  0  0  0
  186.2100  176.7720  137.4370 C   0  0  2  0  0  3  0  0  0  0  0  0
  185.8280  178.2430  137.5190 C   0  0  0  0  0  2  0  0  0  0  0  0
  183.9120  176.1070  138.2270 C   0  0  2  0  0  3  0  0  0  0  0  0
  184.8430  178.4480  138.6590 C   0  0  0  0  0  2  0  0  0  0  0  0
  183.5840  177.5890  138.4770 C   0  0  2  0  0  3  0  0  0  0  0  0
  187.6800  177.6280  135.6020 O   0  0  0  0  0  0  0  0  0  0  0  0
  187.6970  175.4090  136.1730 O   0  0  0  0  0  1  0  0  0  0  0  0
  187.2360  176.5620  136.3760 C   0  0  0  0  0  0  0  0  0  0  0  0
  183.3340  177.5290  141.0410 C   0  0  0  0  0  2  0  0  0  0  0  0
  183.0460  178.5630  141.9350 O   0  0  0  0  0  0  0  0  0  0  0  0
  184.2520  179.2450  142.0960 C   0  0  0  0  0  2  0  0  0  0  0  0
  186.5110  177.4960  144.6580 C   0  0  0  0  0  2  0  0  0  0  0  0
  186.6540  178.5990  141.9390 C   0  0  0  0  0  2  0  0  0  0  0  0
  190.0950  176.5340  143.5950 C   0  0  2  0  0  0  0  0  0  0  0  0
  189.8680  175.3770  142.8430 O   0  0  0  0  0  1  0  0  0  0  0  0
  188.8910  176.7630  144.5270 C   0  0  0  0  0  2  0  0  0  0  0  0
  187.8570  177.7600  143.9900 C   0  0  1  0  0  3  0  0  0  0  0  0
  189.0680  178.0030  141.7750 C   0  0  0  0  0  2  0  0  0  0  0  0
  187.7410  177.6650  142.4610 C   0  0  2  0  0  3  0  0  0  0  0  0
  190.3020  177.7170  142.6430 C   0  0  0  0  0  2  0  0  0  0  0  0
  185.3180  178.2960  142.6140 C   0  0  1  0  0  3  0  0  0  0  0  0
  185.4550  178.4580  144.1230 C   0  0  0  0  0  2  0  0  0  0  0  0
  191.3250  176.3620  144.4360 C   0  0  0  0  0  0  0  0  0  0  0  0
  191.6570  177.3220  145.3860 O   0  0  0  0  0  1  0  0  0  0  0  0
  192.0550  175.3420  144.3080 O   0  0  0  0  0  0  0  0  0  0  0  0
  1 18  1  1  0  0  0
  2 10  1  0  0  0  0
  3 12  1  0  0  0  0
  3  7  1  0  0  0  0
  4  6  1  0  0  0  0
  5  6  2  0  0  0  0
  7  9  1  6  0  0  0
  7  8  1  0  0  0  0
  8  1  1  0  0  0  0
  8  4  2  0  0  0  0
  9  5  1  0  0  0  0
 10 17  1  6  0  0  0
 10 11  1  0  0  0  0
 11 13  1  0  0  0  0
 12  2  1  6  0  0  0
 12 14  1  0  0  0  0
 14 13  1  1  0  0  0
 14  1  1  0  0  0  0
 15 17  2  0  0  0  0
 16 17  1  0  0  0  0
 18 19  1  0  0  0  0
 19 20  1  0  0  0  0
 22 28  1  0  0  0  0
 22 30  1  0  0  0  0
 23 24  1  6  0  0  0
 23 32  1  0  0  0  0
 23 25  1  0  0  0  0
 26 25  1  1  0  0  0
 26 21  1  0  0  0  0
 27 29  1  0  0  0  0
 28 27  1  6  0  0  0
 28 26  1  0  0  0  0
 29 23  1  0  0  0  0
 30 20  1  6  0  0  0
 30 31  1  0  0  0  0
 31 21  1  0  0  0  0
 32 33  1  0  0  0  0
 34 32  2  0  0  0  0
M  END
>  <MODEL>
6

>  <REMARK>
 VINA RESULT:      -8.5      3.501      9.148
  Name = 
  6 active torsions:
  status: ('A' for Active; 'I' for Inactive)
    1  A    between atoms: C_1  and  C_9
    2  A    between atoms: C_7  and  C_11
    3  A    between atoms: O_8  and  C_9
    4  A    between atoms: O_8  and  C_18
    5  A    between atoms: C_18  and  C_30
    6  A    between atoms: C_23  and  C_25
                            x       y       z     vdW  Elec       q    Type
                         _______ _______ _______ _____ _____    ______ ____

>  <TORSDO>
F 6

$$$$
=
 OpenBabel11052415443D

 34 38  0  0  1  0  0  0  0  0999 V2000
  180.2500  178.4380  140.2650 C   0  0  2  0  0  3  0  0  0  0  0  0
  180.9230  180.7910  137.2330 C   0  0  0  0  0  2  0  0  0  0  0  0
  180.6580  178.1140  137.0680 S   0  0  0  0  0  0  0  0  0  0  0  0
  179.7810  176.0630  140.3500 C   0  0  0  0  0  3  0  0  0  0  0  0
  180.3800  174.3930  138.6810 C   0  0  0  0  0  3  0  0  0  0  0  0
  179.9360  174.6700  139.9050 C   0  0  0  0  0  3  0  0  0  0  0  0
  180.9880  176.8330  138.3260 C   0  0  1  0  0  3  0  0  0  0  0  0
  180.2150  177.0880  139.6100 C   0  0  0  0  0  0  0  0  0  0  0  0
  180.6230  175.4850  137.6820 C   0  0  0  0  0  2  0  0  0  0  0  0
  181.0320  182.0690  138.0510 C   0  0  2  0  0  3  0  0  0  0  0  0
  179.9110  182.1120  139.0790 C   0  0  0  0  0  2  0  0  0  0  0  0
  181.0310  179.5510  138.1180 C   0  0  2  0  0  3  0  0  0  0  0  0
  180.0520  180.9350  140.0320 C   0  0  0  0  0  2  0  0  0  0  0  0
  180.0250  179.5960  139.2810 C   0  0  2  0  0  3  0  0  0  0  0  0
  181.9300  184.2520  137.2200 O   0  0  0  0  0  1  0  0  0  0  0  0
  180.0050  183.3710  136.3430 O   0  0  0  0  0  0  0  0  0  0  0  0
  180.9590  183.2590  137.1560 C   0  0  0  0  0  0  0  0  0  0  0  0
  181.5010  178.5960  141.1430 C   0  0  0  0  0  2  0  0  0  0  0  0
  181.1740  178.5430  142.4990 O   0  0  0  0  0  0  0  0  0  0  0  0
  182.0990  179.3800  143.1250 C   0  0  0  0  0  2  0  0  0  0  0  0
  184.9740  178.1930  145.3710 C   0  0  0  0  0  2  0  0  0  0  0  0
  184.4600  178.8240  142.5490 C   0  0  0  0  0  2  0  0  0  0  0  0
  188.3240  177.2270  143.7140 C   0  0  2  0  0  0  0  0  0  0  0  0
  188.0390  175.9500  143.2200 O   0  0  0  0  0  1  0  0  0  0  0  0
  187.3270  177.5560  144.8390 C   0  0  0  0  0  2  0  0  0  0  0  0
  186.1270  178.4000  144.3930 C   0  0  1  0  0  3  0  0  0  0  0  0
  186.8270  178.3190  141.9570 C   0  0  0  0  0  2  0  0  0  0  0  0
  185.7030  178.0420  142.9600 C   0  0  2  0  0  3  0  0  0  0  0  0
  188.2330  178.2400  142.5670 C   0  0  0  0  0  2  0  0  0  0  0  0
  183.3220  178.5810  143.5390 C   0  0  1  0  0  3  0  0  0  0  0  0
  183.7560  179.0020  144.9370 C   0  0  0  0  0  2  0  0  0  0  0  0
  189.7120  177.2550  144.2830 C   0  0  0  0  0  0  0  0  0  0  0  0
  190.0690  178.2410  145.1960 O   0  0  0  0  0  1  0  0  0  0  0  0
  190.5590  176.3790  143.9580 O   0  0  0  0  0  0  0  0  0  0  0  0
  1 18  1  6  0  0  0
  2 10  1  0  0  0  0
  3 12  1  0  0  0  0
  3  7  1  0  0  0  0
  5  6  2  0  0  0  0
  6  4  1  0  0  0  0
  7  9  1  6  0  0  0
  7  8  1  0  0  0  0
  8  1  1  0  0  0  0
  8  4  2  0  0  0  0
  9  5  1  0  0  0  0
 10 17  1  6  0  0  0
 10 11  1  0  0  0  0
 11 13  1  0  0  0  0
 12  2  1  6  0  0  0
 12 14  1  0  0  0  0
 14 13  1  1  0  0  0
 14  1  1  0  0  0  0
 16 17  2  0  0  0  0
 17 15  1  0  0  0  0
 18 19  1  0  0  0  0
 19 20  1  0  0  0  0
 22 28  1  0  0  0  0
 22 30  1  0  0  0  0
 23 24  1  6  0  0  0
 23 32  1  0  0  0  0
 23 25  1  0  0  0  0
 26 25  1  1  0  0  0
 26 21  1  0  0  0  0
 27 29  1  0  0  0  0
 28 27  1  6  0  0  0
 28 26  1  0  0  0  0
 29 23  1  0  0  0  0
 30 20  1  6  0  0  0
 30 31  1  0  0  0  0
 31 21  1  0  0  0  0
 32 33  1  0  0  0  0
 34 32  2  0  0  0  0
M  END
>  <MODEL>
7

>  <REMARK>
 VINA RESULT:      -8.5      3.464     10.176
  Name = 
  6 active torsions:
  status: ('A' for Active; 'I' for Inactive)
    1  A    between atoms: C_1  and  C_9
    2  A    between atoms: C_7  and  C_11
    3  A    between atoms: O_8  and  C_9
    4  A    between atoms: O_8  and  C_18
    5  A    between atoms: C_18  and  C_30
    6  A    between atoms: C_23  and  C_25
                            x       y       z     vdW  Elec       q    Type
                         _______ _______ _______ _____ _____    ______ ____

>  <TORSDO>
F 6

$$$$
=
 OpenBabel11052415443D

 34 38  0  0  1  0  0  0  0  0999 V2000
  188.7500  177.9180  143.1790 C   0  0  2  0  0  3  0  0  0  0  0  0
  185.0700  178.2320  144.4210 C   0  0  0  0  0  2  0  0  0  0  0  0
  187.1910  177.7480  146.0130 S   0  0  0  0  0  0  0  0  0  0  0  0
  190.8220  177.6890  144.4130 C   0  0  0  0  0  3  0  0  0  0  0  0
  191.0910  176.8100  146.6690 C   0  0  0  0  0  3  0  0  0  0  0  0
  191.6500  177.1930  145.5230 C   0  0  0  0  0  3  0  0  0  0  0  0
  188.7840  176.9500  145.6170 C   0  0  1  0  0  3  0  0  0  0  0  0
  189.4870  177.6360  144.4560 C   0  0  0  0  0  0  0  0  0  0  0  0
  189.6200  176.9820  146.9070 C   0  0  0  0  0  2  0  0  0  0  0  0
  184.4560  178.4070  143.0400 C   0  0  2  0  0  3  0  0  0  0  0  0
  185.2930  179.3890  142.2330 C   0  0  0  0  0  2  0  0  0  0  0  0
  186.4970  177.6940  144.3330 C   0  0  2  0  0  3  0  0  0  0  0  0
  186.6960  178.8310  142.0520 C   0  0  0  0  0  2  0  0  0  0  0  0
  187.3700  178.5540  143.4020 C   0  0  2  0  0  3  0  0  0  0  0  0
  182.2070  178.8950  142.0580 O   0  0  0  0  0  0  0  0  0  0  0  0
  182.6370  179.3290  144.2660 O   0  0  0  0  0  1  0  0  0  0  0  0
  183.0540  178.8980  143.1610 C   0  0  0  0  0  0  0  0  0  0  0  0
  188.7300  176.6830  142.2660 C   0  0  0  0  0  2  0  0  0  0  0  0
  189.7210  176.7650  141.2850 O   0  0  0  0  0  0  0  0  0  0  0  0
  189.0460  177.1420  140.1230 C   0  0  0  0  0  2  0  0  0  0  0  0
  190.2910  176.0700  136.6560 C   0  0  0  0  0  2  0  0  0  0  0  0
  191.3310  176.4890  139.3710 C   0  0  0  0  0  2  0  0  0  0  0  0
  194.0750  175.4880  136.1600 C   0  0  2  0  0  0  0  0  0  0  0  0
  194.5520  176.7980  136.0460 O   0  0  0  0  0  1  0  0  0  0  0  0
  192.5710  175.4780  135.8340 C   0  0  0  0  0  2  0  0  0  0  0  0
  191.6570  175.5250  137.0640 C   0  0  1  0  0  3  0  0  0  0  0  0
  193.6150  175.7970  138.6530 C   0  0  0  0  0  2  0  0  0  0  0  0
  192.2780  176.3780  138.1810 C   0  0  2  0  0  3  0  0  0  0  0  0
  194.3450  174.9770  137.5800 C   0  0  0  0  0  2  0  0  0  0  0  0
  189.9820  177.0540  138.9310 C   0  0  1  0  0  3  0  0  0  0  0  0
  189.3680  176.1520  137.8670 C   0  0  0  0  0  2  0  0  0  0  0  0
  194.7830  174.6000  135.1790 C   0  0  0  0  0  0  0  0  0  0  0  0
  196.1200  174.8290  134.8750 O   0  0  0  0  0  1  0  0  0  0  0  0
  194.1840  173.6320  134.6380 O   0  0  0  0  0  0  0  0  0  0  0  0
  1 18  1  1  0  0  0
  1 14  1  0  0  0  0
  1  8  1  0  0  0  0
  4  8  2  0  0  0  0
  4  6  1  0  0  0  0
  5  9  1  0  0  0  0
  6  5  2  0  0  0  0
  7  3  1  0  0  0  0
  7  9  1  1  0  0  0
  8  7  1  0  0  0  0
 10 17  1  1  0  0  0
 10  2  1  0  0  0  0
 11 10  1  0  0  0  0
 12  2  1  1  0  0  0
 12  3  1  0  0  0  0
 13 11  1  0  0  0  0
 14 13  1  6  0  0  0
 14 12  1  0  0  0  0
 15 17  2  0  0  0  0
 17 16  1  0  0  0  0
 19 18  1  0  0  0  0
 20 19  1  0  0  0  0
 21 26  1  0  0  0  0
 21 31  1  0  0  0  0
 23 24  1  6  0  0  0
 23 29  1  0  0  0  0
 25 23  1  0  0  0  0
 26 25  1  6  0  0  0
 26 28  1  0  0  0  0
 28 27  1  1  0  0  0
 28 22  1  0  0  0  0
 29 27  1  0  0  0  0
 30 22  1  0  0  0  0
 30 20  1  1  0  0  0
 31 30  1  0  0  0  0
 32 23  1  0  0  0  0
 33 32  1  0  0  0  0
 34 32  2  0  0  0  0
M  END
>  <MODEL>
8

>  <REMARK>
 VINA RESULT:      -8.5      4.756      9.585
  Name = 
  6 active torsions:
  status: ('A' for Active; 'I' for Inactive)
    1  A    between atoms: C_1  and  C_9
    2  A    between atoms: C_7  and  C_11
    3  A    between atoms: O_8  and  C_9
    4  A    between atoms: O_8  and  C_18
    5  A    between atoms: C_18  and  C_30
    6  A    between atoms: C_23  and  C_25
                            x       y       z     vdW  Elec       q    Type
                         _______ _______ _______ _____ _____    ______ ____

>  <TORSDO>
F 6

$$$$
=
 OpenBabel11052415443D

 34 38  0  0  1  0  0  0  0  0999 V2000
  185.3120  177.9530  137.7180 C   0  0  2  0  0  3  0  0  0  0  0  0
  188.3360  175.5290  137.3040 C   0  0  0  0  0  2  0  0  0  0  0  0
  185.8550  175.0640  136.3570 S   0  0  0  0  0  0  0  0  0  0  0  0
  183.0720  177.8570  136.8010 C   0  0  0  0  0  3  0  0  0  0  0  0
  181.8830  175.8690  136.0480 C   0  0  0  0  0  3  0  0  0  0  0  0
  181.8510  177.1600  136.3670 C   0  0  0  0  0  3  0  0  0  0  0  0
  184.2460  175.6790  136.9590 C   0  0  1  0  0  3  0  0  0  0  0  0
  184.2120  177.1980  137.0310 C   0  0  0  0  0  0  0  0  0  0  0  0
  183.1790  175.1150  136.0060 C   0  0  0  0  0  2  0  0  0  0  0  0
  189.3140  176.3640  138.1180 C   0  0  2  0  0  3  0  0  0  0  0  0
  189.1850  177.8280  137.7220 C   0  0  0  0  0  2  0  0  0  0  0  0
  186.8930  175.9700  137.5440 C   0  0  2  0  0  3  0  0  0  0  0  0
  187.7800  178.3170  138.0380 C   0  0  0  0  0  2  0  0  0  0  0  0
  186.7170  177.4810  137.3120 C   0  0  2  0  0  3  0  0  0  0  0  0
  191.6740  176.7470  137.3820 O   0  0  0  0  0  0  0  0  0  0  0  0
  191.0090  174.6940  138.1510 O   0  0  0  0  0  1  0  0  0  0  0  0
  190.7080  175.8870  137.8900 C   0  0  0  0  0  0  0  0  0  0  0  0
  185.0840  178.0070  139.2360 C   0  0  0  0  0  2  0  0  0  0  0  0
  185.2090  179.3120  139.7180 O   0  0  0  0  0  0  0  0  0  0  0  0
  184.8960  179.2250  141.0750 C   0  0  0  0  0  2  0  0  0  0  0  0
  186.6830  177.4730  143.9840 C   0  0  0  0  0  2  0  0  0  0  0  0
  187.2900  178.5790  141.3310 C   0  0  0  0  0  2  0  0  0  0  0  0
  190.3970  176.5140  143.5500 C   0  0  2  0  0  0  0  0  0  0  0  0
  190.3030  175.3580  142.7690 O   0  0  0  0  0  1  0  0  0  0  0  0
  189.0520  176.7420  144.2620 C   0  0  0  0  0  2  0  0  0  0  0  0
  188.1240  177.7390  143.5570 C   0  0  1  0  0  3  0  0  0  0  0  0
  189.6970  177.9850  141.5830 C   0  0  0  0  0  2  0  0  0  0  0  0
  188.2710  177.6450  142.0310 C   0  0  2  0  0  3  0  0  0  0  0  0
  190.7640  177.6990  142.6490 C   0  0  0  0  0  2  0  0  0  0  0  0
  185.8580  178.2750  141.7670 C   0  0  1  0  0  3  0  0  0  0  0  0
  185.7340  178.4350  143.2770 C   0  0  0  0  0  2  0  0  0  0  0  0
  191.4650  176.3420  144.5900 C   0  0  0  0  0  0  0  0  0  0  0  0
  191.7420  177.3740  145.4790 O   0  0  0  0  0  1  0  0  0  0  0  0
  192.1050  175.2590  144.6820 O   0  0  0  0  0  0  0  0  0  0  0  0
  1 18  1  1  0  0  0
  2 10  1  0  0  0  0
  3  7  1  0  0  0  0
  3 12  1  0  0  0  0
  4  8  2  0  0  0  0
  5  6  2  0  0  0  0
  6  4  1  0  0  0  0
  7  9  1  6  0  0  0
  7  8  1  0  0  0  0
  8  1  1  0  0  0  0
  9  5  1  0  0  0  0
 10 17  1  6  0  0  0
 11 13  1  0  0  0  0
 11 10  1  0  0  0  0
 12  2  1  6  0  0  0
 14 12  1  0  0  0  0
 14  1  1  0  0  0  0
 14 13  1  1  0  0  0
 15 17  2  0  0  0  0
 17 16  1  0  0  0  0
 18 19  1  0  0  0  0
 19 20  1  0  0  0  0
 22 30  1  0  0  0  0
 23 24  1  6  0  0  0
 23 25  1  0  0  0  0
 23 32  1  0  0  0  0
 26 21  1  6  0  0  0
 26 25  1  0  0  0  0
 27 28  1  0  0  0  0
 27 29  1  0  0  0  0
 28 22  1  6  0  0  0
 28 26  1  0  0  0  0
 29 23  1  0  0  0  0
 30 20  1  6  0  0  0
 30 31  1  0  0  0  0
 31 21  1  0  0  0  0
 32 34  2  0  0  0  0
 32 33  1  0  0  0  0
M  END
>  <MODEL>
9

>  <REMARK>
 VINA RESULT:      -8.4      3.656      8.359
  Name = 
  6 active torsions:
  status: ('A' for Active; 'I' for Inactive)
    1  A    between atoms: C_1  and  C_9
    2  A    between atoms: C_7  and  C_11
    3  A    between atoms: O_8  and  C_9
    4  A    between atoms: O_8  and  C_18
    5  A    between atoms: C_18  and  C_30
    6  A    between atoms: C_23  and  C_25
                            x       y       z     vdW  Elec       q    Type
                         _______ _______ _______ _____ _____    ______ ____

>  <TORSDO>
F 6

$$$$
