=
 OpenBabel11052413493D

 27 31  0  0  0  0  0  0  0  0999 V2000
  187.1480  178.1550  141.6850 C   0  0  0  0  0  0  0  0  0  0  0  0
  187.4630  177.8100  144.0740 C   0  0  0  0  0  0  0  0  0  0  0  0
  189.3030  177.5470  142.5510 N   0  0  0  0  0  0  0  0  0  0  0  0
  190.0250  176.8730  147.2870 C   0  0  0  0  0  3  0  0  0  0  0  0
  192.2050  176.2640  148.1180 O   0  0  0  0  0  1  0  0  0  0  0  0
  186.9920  177.7950  145.3970 C   0  0  0  0  0  3  0  0  0  0  0  0
  191.0390  176.8990  144.6780 C   0  0  0  0  0  3  0  0  0  0  0  0
  191.8760  176.5880  145.7520 C   0  0  0  0  0  3  0  0  0  0  0  0
  189.6860  177.2000  144.8960 C   0  0  0  0  0  0  0  0  0  0  0  0
  186.6100  178.1340  142.9920 C   0  0  0  0  0  0  0  0  0  0  0  0
  191.3710  176.5740  147.0540 C   0  0  0  0  0  0  0  0  0  0  0  0
  189.1810  177.1850  146.2180 C   0  0  0  0  0  0  0  0  0  0  0  0
  186.3540  178.4480  140.5630 C   0  0  0  0  0  3  0  0  0  0  0  0
  188.8270  177.5170  143.8240 C   0  0  0  0  0  0  0  0  0  0  0  0
  189.0620  177.8620  140.2060 C   0  0  0  0  0  3  0  0  0  0  0  0
  187.8410  177.4840  146.4580 C   0  0  0  0  0  3  0  0  0  0  0  0
  188.2610  178.1630  139.0950 C   0  0  0  0  0  0  0  0  0  0  0  0
  186.9070  178.4530  139.2810 C   0  0  0  0  0  3  0  0  0  0  0  0
  188.5140  177.8540  141.4920 C   0  0  0  0  0  0  0  0  0  0  0  0
  182.4690  179.0330  143.6640 C   0  0  0  0  0  3  0  0  0  0  0  0
  185.1760  178.4460  143.2250 C   0  0  0  0  0  0  0  0  0  0  0  0
  184.7540  178.9570  144.4610 C   0  0  0  0  0  3  0  0  0  0  0  0
  183.4050  179.2480  144.6800 C   0  0  0  0  0  3  0  0  0  0  0  0
  182.8830  178.5250  142.4300 C   0  0  0  0  0  3  0  0  0  0  0  0
  184.2320  178.2320  142.2110 C   0  0  0  0  0  3  0  0  0  0  0  0
  188.7840  178.1800  137.7980 O   0  0  0  0  0  0  0  0  0  0  0  0
  189.9010  177.3920  137.4100 C   0  0  0  0  0  1  0  0  0  0  0  0
  1 10  2  0  0  0  0
  2  6  1  0  0  0  0
  3 14  1  0  0  0  0
  6 16  2  0  0  0  0
  7  9  2  0  0  0  0
  7  8  1  0  0  0  0
  8 11  2  0  0  0  0
  9 12  1  0  0  0  0
 10 21  1  0  0  0  0
 10  2  1  0  0  0  0
 11  4  1  0  0  0  0
 11  5  1  0  0  0  0
 12 16  1  0  0  0  0
 12  4  2  0  0  0  0
 13  1  1  0  0  0  0
 14  2  2  0  0  0  0
 14  9  1  0  0  0  0
 15 19  1  0  0  0  0
 17 18  1  0  0  0  0
 17 15  2  0  0  0  0
 18 13  2  0  0  0  0
 19  1  1  0  0  0  0
 19  3  2  0  0  0  0
 20 23  1  0  0  0  0
 21 22  1  0  0  0  0
 22 23  2  0  0  0  0
 24 20  2  0  0  0  0
 25 24  1  0  0  0  0
 25 21  2  0  0  0  0
 26 17  1  0  0  0  0
 27 26  1  0  0  0  0
M  END
>  <MODEL>
1

>  <REMARK>
 VINA RESULT:     -11.3      0.000      0.000
  Name = 
  2 active torsions:
  status: ('A' for Active; 'I' for Inactive)
    1  A    between atoms: C_9  and  C_15
    2  A    between atoms: O_10  and  C_22
                            x       y       z     vdW  Elec       q    Type
                         _______ _______ _______ _____ _____    ______ ____

>  <TORSDO>
F 2

$$$$
=
 OpenBabel11052413493D

 27 31  0  0  0  0  0  0  0  0999 V2000
  188.4560  177.5880  143.7290 C   0  0  0  0  0  0  0  0  0  0  0  0
  186.2670  178.1670  144.6230 C   0  0  0  0  0  0  0  0  0  0  0  0
  186.5800  177.8780  142.2580 N   0  0  0  0  0  0  0  0  0  0  0  0
  182.1890  178.9990  143.9520 C   0  0  0  0  0  3  0  0  0  0  0  0
  180.3300  179.2800  142.4420 O   0  0  0  0  0  1  0  0  0  0  0  0
  185.3970  178.4400  145.6910 C   0  0  0  0  0  3  0  0  0  0  0  0
  183.8600  178.4480  141.7740 C   0  0  0  0  0  3  0  0  0  0  0  0
  182.5070  178.7270  141.5670 C   0  0  0  0  0  3  0  0  0  0  0  0
  184.3930  178.4410  143.0730 C   0  0  0  0  0  0  0  0  0  0  0  0
  187.6350  177.8780  144.8430 C   0  0  0  0  0  0  0  0  0  0  0  0
  181.6730  179.0030  142.6530 C   0  0  0  0  0  0  0  0  0  0  0  0
  183.5420  178.7200  144.1680 C   0  0  0  0  0  0  0  0  0  0  0  0
  189.8260  177.3130  143.8720 C   0  0  0  0  0  3  0  0  0  0  0  0
  185.7550  178.1610  143.3010 C   0  0  0  0  0  0  0  0  0  0  0  0
  188.6930  177.3200  141.3190 C   0  0  0  0  0  3  0  0  0  0  0  0
  184.0480  178.7160  145.4670 C   0  0  0  0  0  3  0  0  0  0  0  0
  190.0580  177.0380  141.4750 C   0  0  0  0  0  0  0  0  0  0  0  0
  190.6180  177.0380  142.7550 C   0  0  0  0  0  3  0  0  0  0  0  0
  187.8940  177.5960  142.4330 C   0  0  0  0  0  0  0  0  0  0  0  0
  189.2600  177.8780  148.8130 C   0  0  0  0  0  3  0  0  0  0  0  0
  188.1980  177.8780  146.2180 C   0  0  0  0  0  0  0  0  0  0  0  0
  189.5310  177.5030  146.4370 C   0  0  0  0  0  3  0  0  0  0  0  0
  190.0590  177.5020  147.7310 C   0  0  0  0  0  3  0  0  0  0  0  0
  187.9300  178.2530  148.6020 C   0  0  0  0  0  3  0  0  0  0  0  0
  187.4010  178.2530  147.3090 C   0  0  0  0  0  3  0  0  0  0  0  0
  190.8780  176.7570  140.3790 O   0  0  0  0  0  0  0  0  0  0  0  0
  190.3780  176.6540  139.0520 C   0  0  0  0  0  1  0  0  0  0  0  0
  1 13  1  0  0  0  0
  1 10  2  0  0  0  0
  2 10  1  0  0  0  0
  2  6  1  0  0  0  0
  3 19  2  0  0  0  0
  3 14  1  0  0  0  0
  4 12  1  0  0  0  0
  5 11  1  0  0  0  0
  7  9  1  0  0  0  0
  8  7  2  0  0  0  0
  8 11  1  0  0  0  0
  9 14  1  0  0  0  0
  9 12  2  0  0  0  0
 10 21  1  0  0  0  0
 11  4  2  0  0  0  0
 12 16  1  0  0  0  0
 14  2  2  0  0  0  0
 15 17  2  0  0  0  0
 15 19  1  0  0  0  0
 16  6  2  0  0  0  0
 17 18  1  0  0  0  0
 18 13  2  0  0  0  0
 19  1  1  0  0  0  0
 21 22  2  0  0  0  0
 21 25  1  0  0  0  0
 22 23  1  0  0  0  0
 23 20  2  0  0  0  0
 24 20  1  0  0  0  0
 25 24  2  0  0  0  0
 26 17  1  0  0  0  0
 27 26  1  0  0  0  0
M  END
>  <MODEL>
2

>  <REMARK>
 VINA RESULT:     -11.1      2.358      6.182
  Name = 
  2 active torsions:
  status: ('A' for Active; 'I' for Inactive)
    1  A    between atoms: C_9  and  C_15
    2  A    between atoms: O_10  and  C_22
                            x       y       z     vdW  Elec       q    Type
                         _______ _______ _______ _____ _____    ______ ____

>  <TORSDO>
F 2

$$$$
=
 OpenBabel11052413493D

 27 31  0  0  0  0  0  0  0  0999 V2000
  189.2480  177.2330  144.9830 C   0  0  0  0  0  0  0  0  0  0  0  0
  188.1770  177.8000  142.8720 C   0  0  0  0  0  0  0  0  0  0  0  0
  190.4490  177.0180  142.9150 N   0  0  0  0  0  0  0  0  0  0  0  0
  188.3870  178.0940  138.6720 C   0  0  0  0  0  3  0  0  0  0  0  0
  189.6250  177.8630  136.6160 O   0  0  0  0  0  1  0  0  0  0  0  0
  187.0710  178.2270  142.1180 C   0  0  0  0  0  3  0  0  0  0  0  0
  190.6260  177.2200  140.1070 C   0  0  0  0  0  3  0  0  0  0  0  0
  190.6820  177.3240  138.7140 C   0  0  0  0  0  3  0  0  0  0  0  0
  189.4510  177.5520  140.7970 C   0  0  0  0  0  0  0  0  0  0  0  0
  188.1090  177.6900  144.2810 C   0  0  0  0  0  0  0  0  0  0  0  0
  189.5650  177.7610  137.9990 C   0  0  0  0  0  0  0  0  0  0  0  0
  188.3220  177.9920  140.0650 C   0  0  0  0  0  0  0  0  0  0  0  0
  189.2580  177.1200  146.3830 C   0  0  0  0  0  3  0  0  0  0  0  0
  189.3760  177.4520  142.2010 C   0  0  0  0  0  0  0  0  0  0  0  0
  191.5560  176.4540  144.9420 C   0  0  0  0  0  3  0  0  0  0  0  0
  187.1430  178.3240  140.7290 C   0  0  0  0  0  3  0  0  0  0  0  0
  191.5520  176.3370  146.3400 C   0  0  0  0  0  0  0  0  0  0  0  0
  190.3990  176.6740  147.0540 C   0  0  0  0  0  3  0  0  0  0  0  0
  190.4180  176.9000  144.2640 C   0  0  0  0  0  0  0  0  0  0  0  0
  184.5180  178.7250  146.3870 C   0  0  0  0  0  3  0  0  0  0  0  0
  186.8650  178.0480  145.0110 C   0  0  0  0  0  0  0  0  0  0  0  0
  185.6520  178.1800  144.3190 C   0  0  0  0  0  3  0  0  0  0  0  0
  184.4830  178.5180  145.0060 C   0  0  0  0  0  3  0  0  0  0  0  0
  185.7230  178.5950  147.0830 C   0  0  0  0  0  3  0  0  0  0  0  0
  186.8930  178.2580  146.3970 C   0  0  0  0  0  3  0  0  0  0  0  0
  192.6760  175.8920  147.0420 O   0  0  0  0  0  0  0  0  0  0  0  0
  192.7500  175.9080  148.4610 C   0  0  0  0  0  1  0  0  0  0  0  0
  1 13  1  0  0  0  0
  2 10  2  0  0  0  0
  3 19  1  0  0  0  0
  4 12  1  0  0  0  0
  5 11  1  0  0  0  0
  6  2  1  0  0  0  0
  7  9  1  0  0  0  0
  8  7  2  0  0  0  0
  9 14  1  0  0  0  0
 10  1  1  0  0  0  0
 10 21  1  0  0  0  0
 11  4  2  0  0  0  0
 11  8  1  0  0  0  0
 12 16  1  0  0  0  0
 12  9  2  0  0  0  0
 13 18  2  0  0  0  0
 14  2  1  0  0  0  0
 14  3  2  0  0  0  0
 15 17  2  0  0  0  0
 16  6  2  0  0  0  0
 17 26  1  0  0  0  0
 17 18  1  0  0  0  0
 19 15  1  0  0  0  0
 19  1  2  0  0  0  0
 20 24  1  0  0  0  0
 21 25  1  0  0  0  0
 22 23  1  0  0  0  0
 22 21  2  0  0  0  0
 23 20  2  0  0  0  0
 25 24  2  0  0  0  0
 26 27  1  0  0  0  0
M  END
>  <MODEL>
3

>  <REMARK>
 VINA RESULT:     -11.0      1.262      6.237
  Name = 
  2 active torsions:
  status: ('A' for Active; 'I' for Inactive)
    1  A    between atoms: C_9  and  C_15
    2  A    between atoms: O_10  and  C_22
                            x       y       z     vdW  Elec       q    Type
                         _______ _______ _______ _____ _____    ______ ____

>  <TORSDO>
F 2

$$$$
=
 OpenBabel11052413493D

 27 31  0  0  0  0  0  0  0  0999 V2000
  185.9250  178.3280  144.2230 C   0  0  0  0  0  0  0  0  0  0  0  0
  188.1300  177.7710  143.3550 C   0  0  0  0  0  0  0  0  0  0  0  0
  186.3160  178.2550  141.8550 N   0  0  0  0  0  0  0  0  0  0  0  0
  190.6730  177.1860  140.0450 C   0  0  0  0  0  3  0  0  0  0  0  0
  191.0270  177.1240  137.6610 O   0  0  0  0  0  1  0  0  0  0  0  0
  189.4840  177.4430  143.5300 C   0  0  0  0  0  3  0  0  0  0  0  0
  187.9880  177.8530  139.6190 C   0  0  0  0  0  3  0  0  0  0  0  0
  188.8420  177.6540  138.5310 C   0  0  0  0  0  3  0  0  0  0  0  0
  188.4660  177.7210  140.9320 C   0  0  0  0  0  0  0  0  0  0  0  0
  187.2730  177.9780  144.4620 C   0  0  0  0  0  0  0  0  0  0  0  0
  190.1820  177.3210  138.7440 C   0  0  0  0  0  0  0  0  0  0  0  0
  189.8260  177.3830  141.1390 C   0  0  0  0  0  0  0  0  0  0  0  0
  185.0150  178.5280  145.2740 C   0  0  0  0  0  3  0  0  0  0  0  0
  187.6200  177.9180  142.0410 C   0  0  0  0  0  0  0  0  0  0  0  0
  184.1370  178.8000  142.6360 C   0  0  0  0  0  3  0  0  0  0  0  0
  190.3240  177.2500  142.4340 C   0  0  0  0  0  3  0  0  0  0  0  0
  183.2390  179.0050  143.6940 C   0  0  0  0  0  0  0  0  0  0  0  0
  183.6850  178.8660  145.0110 C   0  0  0  0  0  3  0  0  0  0  0  0
  185.4690  178.4620  142.8930 C   0  0  0  0  0  0  0  0  0  0  0  0
  188.7400  177.5520  148.4720 C   0  0  0  0  0  3  0  0  0  0  0  0
  187.7810  177.8300  145.8510 C   0  0  0  0  0  0  0  0  0  0  0  0
  187.0760  178.3920  146.9260 C   0  0  0  0  0  3  0  0  0  0  0  0
  187.5550  178.2530  148.2320 C   0  0  0  0  0  3  0  0  0  0  0  0
  189.4470  176.9900  147.4050 C   0  0  0  0  0  3  0  0  0  0  0  0
  188.9690  177.1290  146.0990 C   0  0  0  0  0  3  0  0  0  0  0  0
  181.9030  179.3450  143.4660 O   0  0  0  0  0  0  0  0  0  0  0  0
  181.2160  179.0020  142.2700 C   0  0  0  0  0  1  0  0  0  0  0  0
  1 10  1  0  0  0  0
  1 13  1  0  0  0  0
  2  6  1  0  0  0  0
  2 10  2  0  0  0  0
  3 14  2  0  0  0  0
  3 19  1  0  0  0  0
  4 12  1  0  0  0  0
  5 11  1  0  0  0  0
  7  9  1  0  0  0  0
  8 11  1  0  0  0  0
  8  7  2  0  0  0  0
  9 12  2  0  0  0  0
  9 14  1  0  0  0  0
 10 21  1  0  0  0  0
 11  4  2  0  0  0  0
 12 16  1  0  0  0  0
 14  2  1  0  0  0  0
 15 19  1  0  0  0  0
 15 17  2  0  0  0  0
 16  6  2  0  0  0  0
 17 18  1  0  0  0  0
 18 13  2  0  0  0  0
 19  1  2  0  0  0  0
 21 25  2  0  0  0  0
 21 22  1  0  0  0  0
 22 23  2  0  0  0  0
 23 20  1  0  0  0  0
 24 20  2  0  0  0  0
 25 24  1  0  0  0  0
 26 17  1  0  0  0  0
 27 26  1  0  0  0  0
M  END
>  <MODEL>
4

>  <REMARK>
 VINA RESULT:     -10.8      2.465      6.104
  Name = 
  2 active torsions:
  status: ('A' for Active; 'I' for Inactive)
    1  A    between atoms: C_9  and  C_15
    2  A    between atoms: O_10  and  C_22
                            x       y       z     vdW  Elec       q    Type
                         _______ _______ _______ _____ _____    ______ ____

>  <TORSDO>
F 2

$$$$
=
 OpenBabel11052413493D

 27 31  0  0  0  0  0  0  0  0999 V2000
  186.9170  178.0670  141.7080 C   0  0  0  0  0  0  0  0  0  0  0  0
  189.1610  177.4890  142.4540 C   0  0  0  0  0  0  0  0  0  0  0  0
  187.3900  177.8050  144.0470 N   0  0  0  0  0  0  0  0  0  0  0  0
  191.8130  176.6300  145.6160 C   0  0  0  0  0  3  0  0  0  0  0  0
  192.2490  176.3750  147.9730 O   0  0  0  0  0  1  0  0  0  0  0  0
  190.5050  177.1650  142.2060 C   0  0  0  0  0  3  0  0  0  0  0  0
  189.1440  177.2520  146.1860 C   0  0  0  0  0  3  0  0  0  0  0  0
  190.0350  176.9670  147.2240 C   0  0  0  0  0  3  0  0  0  0  0  0
  189.5780  177.2290  144.8520 C   0  0  0  0  0  0  0  0  0  0  0  0
  188.2630  177.7690  141.3960 C   0  0  0  0  0  0  0  0  0  0  0  0
  191.3670  176.6570  146.9400 C   0  0  0  0  0  0  0  0  0  0  0  0
  190.9290  176.9140  144.5710 C   0  0  0  0  0  0  0  0  0  0  0  0
  185.9770  178.3740  140.7100 C   0  0  0  0  0  3  0  0  0  0  0  0
  188.6930  177.5130  143.7920 C   0  0  0  0  0  0  0  0  0  0  0  0
  185.1790  178.3770  143.3860 C   0  0  0  0  0  3  0  0  0  0  0  0
  191.3810  176.8820  143.2530 C   0  0  0  0  0  3  0  0  0  0  0  0
  184.2470  178.6750  142.3810 C   0  0  0  0  0  0  0  0  0  0  0  0
  184.6550  178.6730  141.0440 C   0  0  0  0  0  3  0  0  0  0  0  0
  186.5040  178.0770  143.0590 C   0  0  0  0  0  0  0  0  0  0  0  0
  189.6000  177.7160  137.3200 C   0  0  0  0  0  3  0  0  0  0  0  0
  188.7260  177.7510  139.9840 C   0  0  0  0  0  0  0  0  0  0  0  0
  188.8700  178.9500  139.2710 C   0  0  0  0  0  3  0  0  0  0  0  0
  189.3050  178.9310  137.9430 C   0  0  0  0  0  3  0  0  0  0  0  0
  189.4590  176.5180  138.0250 C   0  0  0  0  0  3  0  0  0  0  0  0
  189.0230  176.5350  139.3530 C   0  0  0  0  0  3  0  0  0  0  0  0
  182.9160  178.9760  142.6800 O   0  0  0  0  0  0  0  0  0  0  0  0
  182.4000  178.9420  144.0050 C   0  0  0  0  0  1  0  0  0  0  0  0
  1 19  1  0  0  0  0
  2 14  1  0  0  0  0
  4 11  2  0  0  0  0
  6  2  2  0  0  0  0
  6 16  1  0  0  0  0
  7  8  2  0  0  0  0
  9  7  1  0  0  0  0
 10  1  2  0  0  0  0
 10  2  1  0  0  0  0
 11  8  1  0  0  0  0
 11  5  1  0  0  0  0
 12  9  1  0  0  0  0
 12  4  1  0  0  0  0
 13 18  2  0  0  0  0
 13  1  1  0  0  0  0
 14  3  1  0  0  0  0
 14  9  2  0  0  0  0
 16 12  2  0  0  0  0
 17 26  1  0  0  0  0
 17 15  2  0  0  0  0
 18 17  1  0  0  0  0
 19 15  1  0  0  0  0
 19  3  2  0  0  0  0
 20 23  2  0  0  0  0
 20 24  1  0  0  0  0
 21 10  1  0  0  0  0
 22 21  2  0  0  0  0
 23 22  1  0  0  0  0
 24 25  2  0  0  0  0
 25 21  1  0  0  0  0
 26 27  1  0  0  0  0
M  END
>  <MODEL>
5

>  <REMARK>
 VINA RESULT:     -10.8      1.767      4.932
  Name = 
  2 active torsions:
  status: ('A' for Active; 'I' for Inactive)
    1  A    between atoms: C_9  and  C_15
    2  A    between atoms: O_10  and  C_22
                            x       y       z     vdW  Elec       q    Type
                         _______ _______ _______ _____ _____    ______ ____

>  <TORSDO>
F 2

$$$$
=
 OpenBabel11052413493D

 27 31  0  0  0  0  0  0  0  0999 V2000
  189.8990  177.1940  144.3190 C   0  0  0  0  0  0  0  0  0  0  0  0
  187.9210  177.7880  143.0320 C   0  0  0  0  0  0  0  0  0  0  0  0
  187.8250  177.6710  145.4300 N   0  0  0  0  0  0  0  0  0  0  0  0
  183.8530  178.8900  142.9510 C   0  0  0  0  0  3  0  0  0  0  0  0
  181.7880  179.3640  144.1030 O   0  0  0  0  0  1  0  0  0  0  0  0
  187.2650  178.0550  141.8180 C   0  0  0  0  0  3  0  0  0  0  0  0
  185.0970  178.3900  145.4090 C   0  0  0  0  0  3  0  0  0  0  0  0
  183.7490  178.7540  145.3670 C   0  0  0  0  0  3  0  0  0  0  0  0
  185.8380  178.2710  144.2230 C   0  0  0  0  0  0  0  0  0  0  0  0
  189.2890  177.4280  143.0660 C   0  0  0  0  0  0  0  0  0  0  0  0
  183.1280  179.0030  144.1410 C   0  0  0  0  0  0  0  0  0  0  0  0
  185.2020  178.5260  142.9840 C   0  0  0  0  0  0  0  0  0  0  0  0
  191.2470  176.8120  144.4260 C   0  0  0  0  0  3  0  0  0  0  0  0
  187.1990  177.9060  144.2460 C   0  0  0  0  0  0  0  0  0  0  0  0
  189.7180  177.0900  146.7470 C   0  0  0  0  0  3  0  0  0  0  0  0
  185.9190  178.4190  141.7940 C   0  0  0  0  0  3  0  0  0  0  0  0
  191.0670  176.7180  146.8410 C   0  0  0  0  0  0  0  0  0  0  0  0
  191.8250  176.5790  145.6760 C   0  0  0  0  0  3  0  0  0  0  0  0
  189.1330  177.3250  145.4990 C   0  0  0  0  0  0  0  0  0  0  0  0
  191.5430  177.0480  139.4350 C   0  0  0  0  0  3  0  0  0  0  0  0
  190.0700  177.2970  141.8080 C   0  0  0  0  0  0  0  0  0  0  0  0
  189.4500  176.8420  140.6350 C   0  0  0  0  0  3  0  0  0  0  0  0
  190.1860  176.7180  139.4530 C   0  0  0  0  0  3  0  0  0  0  0  0
  192.1660  177.5030  140.6010 C   0  0  0  0  0  3  0  0  0  0  0  0
  191.4320  177.6260  141.7840 C   0  0  0  0  0  3  0  0  0  0  0  0
  191.6770  176.4790  148.0760 O   0  0  0  0  0  0  0  0  0  0  0  0
  192.8060  175.6280  148.2230 C   0  0  0  0  0  1  0  0  0  0  0  0
  1 13  2  0  0  0  0
  1 19  1  0  0  0  0
  2 10  2  0  0  0  0
  2 14  1  0  0  0  0
  3 19  1  0  0  0  0
  4 12  2  0  0  0  0
  4 11  1  0  0  0  0
  5 11  1  0  0  0  0
  6  2  1  0  0  0  0
  8  7  1  0  0  0  0
  9 14  1  0  0  0  0
  9  7  2  0  0  0  0
 10  1  1  0  0  0  0
 11  8  2  0  0  0  0
 12  9  1  0  0  0  0
 13 18  1  0  0  0  0
 14  3  2  0  0  0  0
 15 17  1  0  0  0  0
 16  6  2  0  0  0  0
 16 12  1  0  0  0  0
 17 26  1  0  0  0  0
 18 17  2  0  0  0  0
 19 15  2  0  0  0  0
 20 23  2  0  0  0  0
 20 24  1  0  0  0  0
 21 10  1  0  0  0  0
 22 21  2  0  0  0  0
 23 22  1  0  0  0  0
 24 25  2  0  0  0  0
 25 21  1  0  0  0  0
 26 27  1  0  0  0  0
M  END
>  <MODEL>
6

>  <REMARK>
 VINA RESULT:     -10.8      2.344      7.174
  Name = 
  2 active torsions:
  status: ('A' for Active; 'I' for Inactive)
    1  A    between atoms: C_9  and  C_15
    2  A    between atoms: O_10  and  C_22
                            x       y       z     vdW  Elec       q    Type
                         _______ _______ _______ _____ _____    ______ ____

>  <TORSDO>
F 2

$$$$
=
 OpenBabel11052413493D

 27 31  0  0  0  0  0  0  0  0999 V2000
  187.2580  177.9400  144.4880 C   0  0  0  0  0  0  0  0  0  0  0  0
  189.0200  177.5430  142.8560 C   0  0  0  0  0  0  0  0  0  0  0  0
  186.8260  178.2160  142.1430 N   0  0  0  0  0  0  0  0  0  0  0  0
  190.2780  177.4780  138.8330 C   0  0  0  0  0  3  0  0  0  0  0  0
  189.8050  177.7670  136.4870 O   0  0  0  0  0  1  0  0  0  0  0  0
  190.3410  177.2110  142.5150 C   0  0  0  0  0  3  0  0  0  0  0  0
  187.6320  178.1640  139.4400 C   0  0  0  0  0  3  0  0  0  0  0  0
  188.0620  178.1360  138.1110 C   0  0  0  0  0  3  0  0  0  0  0  0
  188.5190  177.8490  140.4800 C   0  0  0  0  0  0  0  0  0  0  0  0
  188.5940  177.5760  144.2060 C   0  0  0  0  0  0  0  0  0  0  0  0
  189.3820  177.7930  137.8080 C   0  0  0  0  0  0  0  0  0  0  0  0
  189.8550  177.5030  140.1660 C   0  0  0  0  0  0  0  0  0  0  0  0
  186.7630  177.9730  145.8030 C   0  0  0  0  0  3  0  0  0  0  0  0
  188.1030  177.8730  141.8260 C   0  0  0  0  0  0  0  0  0  0  0  0
  185.0590  178.6130  143.6830 C   0  0  0  0  0  3  0  0  0  0  0  0
  190.7550  177.1890  141.1830 C   0  0  0  0  0  3  0  0  0  0  0  0
  184.5780  178.6500  145.0000 C   0  0  0  0  0  0  0  0  0  0  0  0
  185.4360  178.3270  146.0550 C   0  0  0  0  0  3  0  0  0  0  0  0
  186.3860  178.2580  143.4240 C   0  0  0  0  0  0  0  0  0  0  0  0
  191.3080  176.5920  147.3800 C   0  0  0  0  0  3  0  0  0  0  0  0
  189.5340  177.2350  145.3050 C   0  0  0  0  0  0  0  0  0  0  0  0
  189.1660  177.4470  146.6420 C   0  0  0  0  0  3  0  0  0  0  0  0
  190.0510  177.1270  147.6750 C   0  0  0  0  0  3  0  0  0  0  0  0
  191.6800  176.3780  146.0500 C   0  0  0  0  0  3  0  0  0  0  0  0
  190.7970  176.6980  145.0160 C   0  0  0  0  0  3  0  0  0  0  0  0
  183.2560  179.0030  145.2880 O   0  0  0  0  0  0  0  0  0  0  0  0
  182.2300  179.0010  144.3050 C   0  0  0  0  0  1  0  0  0  0  0  0
  1 13  1  0  0  0  0
  2 10  2  0  0  0  0
  3 19  1  0  0  0  0
  4 12  1  0  0  0  0
  5 11  1  0  0  0  0
  6  2  1  0  0  0  0
  7  9  1  0  0  0  0
  8  7  2  0  0  0  0
  9 14  1  0  0  0  0
 10  1  1  0  0  0  0
 10 21  1  0  0  0  0
 11  8  1  0  0  0  0
 11  4  2  0  0  0  0
 12  9  2  0  0  0  0
 12 16  1  0  0  0  0
 13 18  2  0  0  0  0
 14  3  2  0  0  0  0
 14  2  1  0  0  0  0
 15 17  2  0  0  0  0
 16  6  2  0  0  0  0
 17 26  1  0  0  0  0
 17 18  1  0  0  0  0
 19 15  1  0  0  0  0
 19  1  2  0  0  0  0
 20 23  1  0  0  0  0
 21 22  1  0  0  0  0
 22 23  2  0  0  0  0
 24 20  2  0  0  0  0
 25 21  2  0  0  0  0
 25 24  1  0  0  0  0
 27 26  1  0  0  0  0
M  END
>  <MODEL>
7

>  <REMARK>
 VINA RESULT:     -10.7      2.155      6.883
  Name = 
  2 active torsions:
  status: ('A' for Active; 'I' for Inactive)
    1  A    between atoms: C_9  and  C_15
    2  A    between atoms: O_10  and  C_22
                            x       y       z     vdW  Elec       q    Type
                         _______ _______ _______ _____ _____    ______ ____

>  <TORSDO>
F 2

$$$$
=
 OpenBabel11052413493D

 27 31  0  0  0  0  0  0  0  0999 V2000
  188.7730  177.8960  140.8420 C   0  0  0  0  0  0  0  0  0  0  0  0
  187.1800  178.1260  142.6680 C   0  0  0  0  0  0  0  0  0  0  0  0
  186.4490  178.2870  140.3850 N   0  0  0  0  0  0  0  0  0  0  0  0
  183.2100  178.7260  143.9520 C   0  0  0  0  0  3  0  0  0  0  0  0
  180.8840  179.1170  143.4530 O   0  0  0  0  0  1  0  0  0  0  0  0
  186.8530  178.1320  144.0340 C   0  0  0  0  0  3  0  0  0  0  0  0
  183.7850  178.7090  141.2120 C   0  0  0  0  0  3  0  0  0  0  0  0
  182.4740  178.9090  141.6530 C   0  0  0  0  0  3  0  0  0  0  0  0
  184.8230  178.5150  142.1370 C   0  0  0  0  0  0  0  0  0  0  0  0
  188.5090  177.9140  142.2300 C   0  0  0  0  0  0  0  0  0  0  0  0
  182.1870  178.9180  143.0190 C   0  0  0  0  0  0  0  0  0  0  0  0
  184.5240  178.5250  143.5200 C   0  0  0  0  0  0  0  0  0  0  0  0
  190.0720  177.7120  140.3380 C   0  0  0  0  0  3  0  0  0  0  0  0
  186.1510  178.3120  141.7110 C   0  0  0  0  0  0  0  0  0  0  0  0
  187.9530  178.0790  138.5550 C   0  0  0  0  0  3  0  0  0  0  0  0
  185.5390  178.3320  144.4560 C   0  0  0  0  0  3  0  0  0  0  0  0
  189.2530  177.8870  138.0630 C   0  0  0  0  0  0  0  0  0  0  0  0
  190.3070  177.7060  138.9620 C   0  0  0  0  0  3  0  0  0  0  0  0
  187.7100  178.0870  139.9310 C   0  0  0  0  0  0  0  0  0  0  0  0
  191.6810  177.3430  145.0630 C   0  0  0  0  0  3  0  0  0  0  0  0
  189.6080  177.7170  143.2120 C   0  0  0  0  0  0  0  0  0  0  0  0
  190.5200  178.7500  143.4700 C   0  0  0  0  0  3  0  0  0  0  0  0
  191.5540  178.5630  144.3920 C   0  0  0  0  0  3  0  0  0  0  0  0
  190.7750  176.3100  144.8100 C   0  0  0  0  0  3  0  0  0  0  0  0
  189.7420  176.4960  143.8870 C   0  0  0  0  0  3  0  0  0  0  0  0
  189.5230  177.8730  136.6920 O   0  0  0  0  0  0  0  0  0  0  0  0
  188.5040  177.7440  135.7100 C   0  0  0  0  0  1  0  0  0  0  0  0
  1 10  2  0  0  0  0
  2  6  1  0  0  0  0
  3 14  1  0  0  0  0
  6 16  2  0  0  0  0
  7  8  2  0  0  0  0
  7  9  1  0  0  0  0
  8 11  1  0  0  0  0
  9 12  2  0  0  0  0
 10  2  1  0  0  0  0
 10 21  1  0  0  0  0
 11  5  1  0  0  0  0
 11  4  2  0  0  0  0
 12  4  1  0  0  0  0
 12 16  1  0  0  0  0
 13  1  1  0  0  0  0
 14  9  1  0  0  0  0
 14  2  2  0  0  0  0
 15 19  1  0  0  0  0
 17 15  2  0  0  0  0
 17 18  1  0  0  0  0
 18 13  2  0  0  0  0
 19  3  2  0  0  0  0
 19  1  1  0  0  0  0
 21 22  2  0  0  0  0
 21 25  1  0  0  0  0
 22 23  1  0  0  0  0
 23 20  2  0  0  0  0
 24 20  1  0  0  0  0
 25 24  2  0  0  0  0
 26 17  1  0  0  0  0
 27 26  1  0  0  0  0
M  END
>  <MODEL>
8

>  <REMARK>
 VINA RESULT:     -10.4      2.701      6.018
  Name = 
  2 active torsions:
  status: ('A' for Active; 'I' for Inactive)
    1  A    between atoms: C_9  and  C_15
    2  A    between atoms: O_10  and  C_22
                            x       y       z     vdW  Elec       q    Type
                         _______ _______ _______ _____ _____    ______ ____

>  <TORSDO>
F 2

$$$$
=
 OpenBabel11052413493D

 27 31  0  0  0  0  0  0  0  0999 V2000
  187.7890  177.8340  144.0460 C   0  0  0  0  0  0  0  0  0  0  0  0
  186.0110  178.1650  142.4170 C   0  0  0  0  0  0  0  0  0  0  0  0
  185.5270  178.1880  144.7700 N   0  0  0  0  0  0  0  0  0  0  0  0
  181.9380  178.8850  141.6010 C   0  0  0  0  0  3  0  0  0  0  0  0
  179.6800  179.2390  142.3670 O   0  0  0  0  0  1  0  0  0  0  0  0
  185.5470  178.2960  141.0970 C   0  0  0  0  0  3  0  0  0  0  0  0
  182.7920  178.6520  144.2570 C   0  0  0  0  0  3  0  0  0  0  0  0
  181.4450  178.8880  143.9720 C   0  0  0  0  0  3  0  0  0  0  0  0
  183.7270  178.5290  143.2180 C   0  0  0  0  0  0  0  0  0  0  0  0
  187.3790  177.9330  142.6970 C   0  0  0  0  0  0  0  0  0  0  0  0
  181.0190  179.0040  142.6470 C   0  0  0  0  0  0  0  0  0  0  0  0
  183.2880  178.6480  141.8780 C   0  0  0  0  0  0  0  0  0  0  0  0
  189.1260  177.5840  144.3960 C   0  0  0  0  0  3  0  0  0  0  0  0
  185.0900  178.2910  143.4870 C   0  0  0  0  0  0  0  0  0  0  0  0
  187.2140  177.8630  146.4140 C   0  0  0  0  0  3  0  0  0  0  0  0
  184.2000  178.5330  140.8300 C   0  0  0  0  0  3  0  0  0  0  0  0
  188.5540  177.6210  146.7510 C   0  0  0  0  0  0  0  0  0  0  0  0
  189.5040  177.4810  145.7370 C   0  0  0  0  0  3  0  0  0  0  0  0
  186.8290  177.9670  145.0740 C   0  0  0  0  0  0  0  0  0  0  0  0
  190.2280  177.5390  139.5140 C   0  0  0  0  0  3  0  0  0  0  0  0
  188.3660  177.7970  141.5950 C   0  0  0  0  0  0  0  0  0  0  0  0
  188.2870  178.6280  140.4680 C   0  0  0  0  0  3  0  0  0  0  0  0
  189.2150  178.4980  139.4310 C   0  0  0  0  0  3  0  0  0  0  0  0
  190.3120  176.7080  140.6340 C   0  0  0  0  0  3  0  0  0  0  0  0
  189.3840  176.8360  141.6710 C   0  0  0  0  0  3  0  0  0  0  0  0
  188.9670  177.5150  148.0830 O   0  0  0  0  0  0  0  0  0  0  0  0
  188.3060  178.1850  149.1470 C   0  0  0  0  0  1  0  0  0  0  0  0
  1 13  2  0  0  0  0
  1 19  1  0  0  0  0
  2 10  2  0  0  0  0
  2 14  1  0  0  0  0
  3 19  1  0  0  0  0
  4 12  2  0  0  0  0
  4 11  1  0  0  0  0
  5 11  1  0  0  0  0
  6  2  1  0  0  0  0
  8  7  1  0  0  0  0
  9 14  1  0  0  0  0
  9  7  2  0  0  0  0
 10  1  1  0  0  0  0
 11  8  2  0  0  0  0
 12  9  1  0  0  0  0
 13 18  1  0  0  0  0
 14  3  2  0  0  0  0
 15 17  1  0  0  0  0
 16  6  2  0  0  0  0
 16 12  1  0  0  0  0
 17 26  1  0  0  0  0
 18 17  2  0  0  0  0
 19 15  2  0  0  0  0
 20 24  1  0  0  0  0
 21 25  1  0  0  0  0
 21 10  1  0  0  0  0
 22 21  2  0  0  0  0
 23 20  2  0  0  0  0
 23 22  1  0  0  0  0
 24 25  2  0  0  0  0
 26 27  1  0  0  0  0
M  END
>  <MODEL>
9

>  <REMARK>
 VINA RESULT:     -10.3      2.552      7.553
  Name = 
  2 active torsions:
  status: ('A' for Active; 'I' for Inactive)
    1  A    between atoms: C_9  and  C_15
    2  A    between atoms: O_10  and  C_22
                            x       y       z     vdW  Elec       q    Type
                         _______ _______ _______ _____ _____    ______ ____

>  <TORSDO>
F 2

$$$$
