=
 OpenBabel11052413453D

 27 31  0  0  1  0  0  0  0  0999 V2000
  190.0580  178.1970  141.2000 N   0  0  0  0  0  2  0  0  0  0  0  0
  187.6410  177.8290  141.3750 C   0  0  0  0  0  0  0  0  0  0  0  0
  188.4510  176.8990  143.6920 C   0  0  0  0  0  2  0  0  0  0  0  0
  183.9190  179.0770  143.1520 C   0  0  0  0  0  2  0  0  0  0  0  0
  182.7430  179.2400  145.2430 N   0  0  0  0  0  2  0  0  0  0  0  0
  186.6170  178.4640  140.6580 C   0  0  0  0  0  3  0  0  0  0  0  0
  185.9480  177.7060  144.8190 C   0  0  0  0  0  2  0  0  0  0  0  0
  191.2040  176.5560  145.3200 C   0  0  0  0  0  2  0  0  0  0  0  0
  185.0910  178.7950  145.4470 C   0  0  0  0  0  2  0  0  0  0  0  0
  192.2030  177.5610  144.9920 N   0  0  0  0  0  2  0  0  0  0  0  0
  186.2260  177.9940  143.3650 C   0  0  0  0  0  0  0  0  0  0  0  0
  188.9270  177.4630  140.6450 C   0  0  1  0  0  3  0  0  0  0  0  0
  183.8390  178.9500  144.6470 C   0  0  0  0  0  0  0  0  0  0  0  0
  185.2350  178.6170  142.5770 C   0  0  0  0  0  0  0  0  0  0  0  0
  190.4650  177.9110  142.5320 C   0  0  0  0  0  0  0  0  0  0  0  0
  187.4450  177.5880  142.7720 C   0  0  0  0  0  0  0  0  0  0  0  0
  190.7670  175.8340  144.0550 C   0  0  0  0  0  2  0  0  0  0  0  0
  185.4610  178.8330  141.2580 N   0  0  0  0  0  0  0  0  0  0  0  0
  191.4840  178.7780  144.6570 C   0  0  0  0  0  2  0  0  0  0  0  0
  191.1750  178.8310  143.1930 C   0  0  0  0  0  3  0  0  0  0  0  0
  189.8620  176.6850  143.1610 C   0  0  1  0  0  3  0  0  0  0  0  0
  188.8520  177.8760  136.3610 C   0  0  0  0  0  3  0  0  0  0  0  0
  188.8810  177.5940  139.1480 C   0  0  0  0  0  0  0  0  0  0  0  0
  189.1310  178.8410  138.5650 C   0  0  0  0  0  3  0  0  0  0  0  0
  189.1140  178.9830  137.1740 C   0  0  0  0  0  3  0  0  0  0  0  0
  188.6070  176.6270  136.9390 C   0  0  0  0  0  3  0  0  0  0  0  0
  188.6240  176.4840  138.3290 C   0  0  0  0  0  3  0  0  0  0  0  0
  1 15  1  0  0  0  0
  2 16  1  0  0  0  0
  4 13  1  0  0  0  0
  6 18  1  0  0  0  0
  6  2  2  0  0  0  0
  7  9  1  0  0  0  0
 10  8  1  0  0  0  0
 11  7  1  0  0  0  0
 12 23  1  6  0  0  0
 12  1  1  0  0  0  0
 12  2  1  0  0  0  0
 13  5  2  0  0  0  0
 13  9  1  0  0  0  0
 14  4  1  0  0  0  0
 14 11  1  0  0  0  0
 15 21  1  0  0  0  0
 15 20  2  0  0  0  0
 16 11  2  0  0  0  0
 16  3  1  0  0  0  0
 17  8  1  0  0  0  0
 18 14  2  0  0  0  0
 19 10  1  0  0  0  0
 20 19  1  0  0  0  0
 21  3  1  1  0  0  0
 21 17  1  0  0  0  0
 22 26  2  0  0  0  0
 22 25  1  0  0  0  0
 24 23  1  0  0  0  0
 25 24  2  0  0  0  0
 26 27  1  0  0  0  0
 27 23  2  0  0  0  0
M  END
>  <MODEL>
1

>  <REMARK>
 VINA RESULT:      -8.3      0.000      0.000
  Name = 
  1 active torsions:
  status: ('A' for Active; 'I' for Inactive)
    1  A    between atoms: C_9  and  C_15
                            x       y       z     vdW  Elec       q    Type
                         _______ _______ _______ _____ _____    ______ ____

>  <TORSDO>
F 1

$$$$
=
 OpenBabel11052413453D

 27 31  0  0  1  0  0  0  0  0999 V2000
  187.0970  177.2400  143.2510 N   0  0  0  0  0  2  0  0  0  0  0  0
  186.6280  178.3590  141.1210 C   0  0  0  0  0  0  0  0  0  0  0  0
  189.2510  178.4680  141.1690 C   0  0  0  0  0  2  0  0  0  0  0  0
  186.6960  178.1060  136.8200 C   0  0  0  0  0  2  0  0  0  0  0  0
  188.1650  177.9270  134.9250 N   0  0  0  0  0  2  0  0  0  0  0  0
  185.4710  178.2680  140.3340 C   0  0  0  0  0  3  0  0  0  0  0  0
  189.2450  178.3410  138.3110 C   0  0  0  0  0  2  0  0  0  0  0  0
  191.6650  177.5220  143.0720 C   0  0  0  0  0  2  0  0  0  0  0  0
  189.2060  177.5020  137.0420 C   0  0  0  0  0  2  0  0  0  0  0  0
  191.3630  176.3280  143.8460 N   0  0  0  0  0  2  0  0  0  0  0  0
  187.9330  178.2790  139.0510 C   0  0  0  0  0  0  0  0  0  0  0  0
  186.4800  178.4100  142.6360 C   0  0  1  0  0  3  0  0  0  0  0  0
  188.0550  177.9460  136.2000 C   0  0  0  0  0  0  0  0  0  0  0  0
  186.7250  178.2020  138.3250 C   0  0  0  0  0  0  0  0  0  0  0  0
  188.5090  177.0940  143.1670 C   0  0  0  0  0  0  0  0  0  0  0  0
  187.8990  178.3620  140.4630 C   0  0  0  0  0  0  0  0  0  0  0  0
  190.6200  178.5910  143.3460 C   0  0  0  0  0  2  0  0  0  0  0  0
  185.5420  178.1960  138.9840 N   0  0  0  0  0  0  0  0  0  0  0  0
  190.4620  175.5210  143.0420 C   0  0  0  0  0  2  0  0  0  0  0  0
  189.0340  175.8750  143.3210 C   0  0  0  0  0  3  0  0  0  0  0  0
  189.2730  178.2970  142.6820 C   0  0  1  0  0  3  0  0  0  0  0  0
  182.4910  179.0300  144.1290 C   0  0  0  0  0  3  0  0  0  0  0  0
  185.0800  178.6100  143.1430 C   0  0  0  0  0  0  0  0  0  0  0  0
  184.8690  178.7850  144.5150 C   0  0  0  0  0  3  0  0  0  0  0  0
  183.5780  178.9920  145.0080 C   0  0  0  0  0  3  0  0  0  0  0  0
  182.6960  178.8610  142.7560 C   0  0  0  0  0  3  0  0  0  0  0  0
  183.9880  178.6540  142.2630 C   0  0  0  0  0  3  0  0  0  0  0  0
  2 12  1  0  0  0  0
  4 14  1  0  0  0  0
  5 13  2  0  0  0  0
  6  2  2  0  0  0  0
  7 11  1  0  0  0  0
  8 17  1  0  0  0  0
  8 10  1  0  0  0  0
  9  7  1  0  0  0  0
 11 16  2  0  0  0  0
 12 23  1  6  0  0  0
 12  1  1  0  0  0  0
 13  4  1  0  0  0  0
 13  9  1  0  0  0  0
 14 18  2  0  0  0  0
 14 11  1  0  0  0  0
 15  1  1  0  0  0  0
 15 20  2  0  0  0  0
 16  2  1  0  0  0  0
 16  3  1  0  0  0  0
 18  6  1  0  0  0  0
 19 20  1  0  0  0  0
 19 10  1  0  0  0  0
 21  3  1  6  0  0  0
 21 15  1  0  0  0  0
 21 17  1  0  0  0  0
 22 25  1  0  0  0  0
 23 24  1  0  0  0  0
 24 25  2  0  0  0  0
 26 22  2  0  0  0  0
 27 26  1  0  0  0  0
 27 23  2  0  0  0  0
M  END
>  <MODEL>
2

>  <REMARK>
 VINA RESULT:      -7.9      1.855      5.958
  Name = 
  1 active torsions:
  status: ('A' for Active; 'I' for Inactive)
    1  A    between atoms: C_9  and  C_15
                            x       y       z     vdW  Elec       q    Type
                         _______ _______ _______ _____ _____    ______ ____

>  <TORSDO>
F 1

$$$$
=
 OpenBabel11052413453D

 27 31  0  0  1  0  0  0  0  0999 V2000
  189.5500  176.7500  140.4880 N   0  0  0  0  0  2  0  0  0  0  0  0
  187.8560  178.0220  141.7210 C   0  0  0  0  0  0  0  0  0  0  0  0
  187.3350  178.7660  139.2580 C   0  0  0  0  0  2  0  0  0  0  0  0
  183.6920  178.4340  142.7490 C   0  0  0  0  0  2  0  0  0  0  0  0
  181.5200  178.9070  141.8310 N   0  0  0  0  0  2  0  0  0  0  0  0
  187.3470  177.7660  143.0020 C   0  0  0  0  0  3  0  0  0  0  0  0
  184.5880  179.0670  139.9970 C   0  0  0  0  0  2  0  0  0  0  0  0
  188.4110  178.1730  136.2860 C   0  0  0  0  0  2  0  0  0  0  0  0
  183.2160  178.4420  140.2010 C   0  0  0  0  0  2  0  0  0  0  0  0
  188.9720  176.8400  136.1240 N   0  0  0  0  0  2  0  0  0  0  0  0
  185.5750  178.5740  141.0250 C   0  0  0  0  0  0  0  0  0  0  0  0
  189.3430  177.8100  141.4680 C   0  0  1  0  0  3  0  0  0  0  0  0
  182.7630  178.7080  141.6000 C   0  0  0  0  0  0  0  0  0  0  0  0
  185.1380  178.3100  142.3410 C   0  0  0  0  0  0  0  0  0  0  0  0
  189.1230  176.9710  139.1500 C   0  0  0  0  0  0  0  0  0  0  0  0
  186.9450  178.4350  140.6980 C   0  0  0  0  0  0  0  0  0  0  0  0
  189.1270  178.8980  137.4140 C   0  0  0  0  0  2  0  0  0  0  0  0
  186.0310  177.9150  143.2800 N   0  0  0  0  0  0  0  0  0  0  0  0
  188.2420  175.9640  137.0250 C   0  0  0  0  0  2  0  0  0  0  0  0
  188.9010  175.9100  138.3680 C   0  0  0  0  0  3  0  0  0  0  0  0
  188.7370  178.3830  138.8010 C   0  0  1  0  0  3  0  0  0  0  0  0
  191.7060  177.1940  145.0130 C   0  0  0  0  0  3  0  0  0  0  0  0
  190.1810  177.5800  142.6940 C   0  0  0  0  0  0  0  0  0  0  0  0
  190.5290  178.6720  143.4970 C   0  0  0  0  0  3  0  0  0  0  0  0
  191.2920  178.4800  144.6530 C   0  0  0  0  0  3  0  0  0  0  0  0
  191.3550  176.0990  144.2180 C   0  0  0  0  0  3  0  0  0  0  0  0
  190.5930  176.2900  143.0620 C   0  0  0  0  0  3  0  0  0  0  0  0
  1 12  1  0  0  0  0
  2  6  1  0  0  0  0
  3 16  1  0  0  0  0
  6 18  2  0  0  0  0
  7  9  1  0  0  0  0
  7 11  1  0  0  0  0
  8 17  1  0  0  0  0
  9 13  1  0  0  0  0
 10  8  1  0  0  0  0
 10 19  1  0  0  0  0
 11 14  2  0  0  0  0
 12  2  1  0  0  0  0
 12 23  1  1  0  0  0
 13  5  2  0  0  0  0
 13  4  1  0  0  0  0
 14  4  1  0  0  0  0
 14 18  1  0  0  0  0
 15  1  1  0  0  0  0
 16 11  1  0  0  0  0
 16  2  2  0  0  0  0
 19 20  1  0  0  0  0
 20 15  2  0  0  0  0
 21 17  1  6  0  0  0
 21 15  1  0  0  0  0
 21  3  1  0  0  0  0
 23 27  2  0  0  0  0
 23 24  1  0  0  0  0
 24 25  2  0  0  0  0
 25 22  1  0  0  0  0
 26 22  2  0  0  0  0
 27 26  1  0  0  0  0
M  END
>  <MODEL>
3

>  <REMARK>
 VINA RESULT:      -7.8      1.716      5.427
  Name = 
  1 active torsions:
  status: ('A' for Active; 'I' for Inactive)
    1  A    between atoms: C_9  and  C_15
                            x       y       z     vdW  Elec       q    Type
                         _______ _______ _______ _____ _____    ______ ____

>  <TORSDO>
F 1

$$$$
=
 OpenBabel11052413453D

 27 31  0  0  1  0  0  0  0  0999 V2000
  189.3740  175.6390  137.5930 N   0  0  0  0  0  2  0  0  0  0  0  0
  189.9140  176.7560  139.7070 C   0  0  0  0  0  0  0  0  0  0  0  0
  187.7270  178.0340  139.0170 C   0  0  0  0  0  2  0  0  0  0  0  0
  188.9290  177.2720  143.8690 C   0  0  0  0  0  2  0  0  0  0  0  0
  187.2290  178.0940  145.3580 N   0  0  0  0  0  2  0  0  0  0  0  0
  190.7140  176.2800  140.7550 C   0  0  0  0  0  3  0  0  0  0  0  0
  187.1360  178.3900  141.7930 C   0  0  0  0  0  2  0  0  0  0  0  0
  185.5600  177.9880  136.6410 C   0  0  0  0  0  2  0  0  0  0  0  0
  186.5290  177.8470  143.0780 C   0  0  0  0  0  2  0  0  0  0  0  0
  185.3910  176.6790  136.0310 N   0  0  0  0  0  2  0  0  0  0  0  0
  188.3700  177.6180  141.3980 C   0  0  0  0  0  0  0  0  0  0  0  0
  190.3490  176.4840  138.2720 C   0  0  1  0  0  3  0  0  0  0  0  0
  187.5710  177.8510  144.1480 C   0  0  0  0  0  0  0  0  0  0  0  0
  189.2320  177.1220  142.4000 C   0  0  0  0  0  0  0  0  0  0  0  0
  188.0780  176.1660  137.3390 C   0  0  0  0  0  0  0  0  0  0  0  0
  188.7030  177.4430  140.0340 C   0  0  0  0  0  0  0  0  0  0  0  0
  187.0200  178.4050  136.5690 C   0  0  0  0  0  2  0  0  0  0  0  0
  190.3670  176.4710  142.0490 N   0  0  0  0  0  0  0  0  0  0  0  0
  185.6260  175.6950  137.0740 C   0  0  0  0  0  2  0  0  0  0  0  0
  187.0720  175.3110  137.1310 C   0  0  0  0  0  3  0  0  0  0  0  0
  187.9090  177.6450  137.5550 C   0  0  1  0  0  3  0  0  0  0  0  0
  194.3160  174.8990  137.7490 C   0  0  0  0  0  3  0  0  0  0  0  0
  191.7400  175.9400  138.1100 C   0  0  0  0  0  0  0  0  0  0  0  0
  191.9110  174.6370  137.6300 C   0  0  0  0  0  3  0  0  0  0  0  0
  193.1970  174.1160  137.4520 C   0  0  0  0  0  3  0  0  0  0  0  0
  194.1510  176.2040  138.2220 C   0  0  0  0  0  3  0  0  0  0  0  0
  192.8660  176.7250  138.4010 C   0  0  0  0  0  3  0  0  0  0  0  0
  1 12  1  0  0  0  0
  2 16  2  0  0  0  0
  2  6  1  0  0  0  0
  3 16  1  0  0  0  0
  4 13  1  0  0  0  0
  6 18  2  0  0  0  0
  7  9  1  0  0  0  0
  9 13  1  0  0  0  0
 10  8  1  0  0  0  0
 10 19  1  0  0  0  0
 11  7  1  0  0  0  0
 11 14  2  0  0  0  0
 12 23  1  1  0  0  0
 12  2  1  0  0  0  0
 13  5  2  0  0  0  0
 14  4  1  0  0  0  0
 15 21  1  0  0  0  0
 15  1  1  0  0  0  0
 16 11  1  0  0  0  0
 17  8  1  0  0  0  0
 18 14  1  0  0  0  0
 19 20  1  0  0  0  0
 20 15  2  0  0  0  0
 21 17  1  6  0  0  0
 21  3  1  0  0  0  0
 22 26  1  0  0  0  0
 23 27  1  0  0  0  0
 24 23  2  0  0  0  0
 25 24  1  0  0  0  0
 25 22  2  0  0  0  0
 26 27  2  0  0  0  0
M  END
>  <MODEL>
4

>  <REMARK>
 VINA RESULT:      -6.8      3.097      5.954
  Name = 
  1 active torsions:
  status: ('A' for Active; 'I' for Inactive)
    1  A    between atoms: C_9  and  C_15
                            x       y       z     vdW  Elec       q    Type
                         _______ _______ _______ _____ _____    ______ ____

>  <TORSDO>
F 1

$$$$
=
 OpenBabel11052413453D

 27 31  0  0  1  0  0  0  0  0999 V2000
  182.8960  179.3780  140.5840 N   0  0  0  0  0  2  0  0  0  0  0  0
  185.0330  178.2760  140.1050 C   0  0  0  0  0  0  0  0  0  0  0  0
  183.6220  177.5500  138.0130 C   0  0  0  0  0  2  0  0  0  0  0  0
  188.6230  178.2450  137.7240 C   0  0  0  0  0  2  0  0  0  0  0  0
  189.4440  177.9540  135.4820 N   0  0  0  0  0  2  0  0  0  0  0  0
  186.3000  178.5920  140.6140 C   0  0  0  0  0  3  0  0  0  0  0  0
  186.0390  177.5010  136.4820 C   0  0  0  0  0  2  0  0  0  0  0  0
  180.6700  178.0070  136.8230 C   0  0  0  0  0  2  0  0  0  0  0  0
  187.0700  178.2470  135.6480 C   0  0  0  0  0  2  0  0  0  0  0  0
  180.0820  179.2830  137.1990 N   0  0  0  0  0  2  0  0  0  0  0  0
  186.0950  177.9180  137.9300 C   0  0  0  0  0  0  0  0  0  0  0  0
  183.8300  178.3530  141.0370 C   0  0  1  0  0  3  0  0  0  0  0  0
  188.4220  178.0400  136.2490 C   0  0  0  0  0  0  0  0  0  0  0  0
  187.3390  178.2360  138.5150 C   0  0  0  0  0  0  0  0  0  0  0  0
  182.2150  179.1780  139.3520 C   0  0  0  0  0  0  0  0  0  0  0  0
  184.9220  177.9310  138.7210 C   0  0  0  0  0  0  0  0  0  0  0  0
  181.0670  177.2360  138.0710 C   0  0  0  0  0  2  0  0  0  0  0  0
  187.4020  178.5630  139.8280 N   0  0  0  0  0  0  0  0  0  0  0  0
  181.1750  180.2310  137.3230 C   0  0  0  0  0  2  0  0  0  0  0  0
  181.7150  180.2450  138.7190 C   0  0  0  0  0  3  0  0  0  0  0  0
  182.3150  177.8020  138.7530 C   0  0  1  0  0  3  0  0  0  0  0  0
  184.6900  178.8140  145.2290 C   0  0  0  0  0  3  0  0  0  0  0  0
  184.1510  178.5240  142.4950 C   0  0  0  0  0  0  0  0  0  0  0  0
  183.1610  179.0030  143.3600 C   0  0  0  0  0  3  0  0  0  0  0  0
  183.4300  179.1500  144.7240 C   0  0  0  0  0  3  0  0  0  0  0  0
  185.6810  178.3290  144.3700 C   0  0  0  0  0  3  0  0  0  0  0  0
  185.4120  178.1820  143.0060 C   0  0  0  0  0  3  0  0  0  0  0  0
  1 12  1  0  0  0  0
  2  6  1  0  0  0  0
  2 12  1  0  0  0  0
  3 16  1  0  0  0  0
  4 14  1  0  0  0  0
  5 13  2  0  0  0  0
  7 11  1  0  0  0  0
  8 10  1  0  0  0  0
  8 17  1  0  0  0  0
  9 13  1  0  0  0  0
  9  7  1  0  0  0  0
 10 19  1  0  0  0  0
 11 14  2  0  0  0  0
 11 16  1  0  0  0  0
 12 23  1  1  0  0  0
 13  4  1  0  0  0  0
 14 18  1  0  0  0  0
 15  1  1  0  0  0  0
 16  2  2  0  0  0  0
 17 21  1  0  0  0  0
 18  6  2  0  0  0  0
 19 20  1  0  0  0  0
 20 15  2  0  0  0  0
 21  3  1  6  0  0  0
 21 15  1  0  0  0  0
 23 27  2  0  0  0  0
 23 24  1  0  0  0  0
 24 25  2  0  0  0  0
 25 22  1  0  0  0  0
 26 22  2  0  0  0  0
 27 26  1  0  0  0  0
M  END
>  <MODEL>
5

>  <REMARK>
 VINA RESULT:      -6.6      3.580      8.650
  Name = 
  1 active torsions:
  status: ('A' for Active; 'I' for Inactive)
    1  A    between atoms: C_9  and  C_15
                            x       y       z     vdW  Elec       q    Type
                         _______ _______ _______ _____ _____    ______ ____

>  <TORSDO>
F 1

$$$$
=
 OpenBabel11052413453D

 27 31  0  0  1  0  0  0  0  0999 V2000
  191.7170  177.3710  140.8040 N   0  0  0  0  0  2  0  0  0  0  0  0
  189.4650  177.0940  139.8780 C   0  0  0  0  0  0  0  0  0  0  0  0
  188.9710  176.8920  142.4490 C   0  0  0  0  0  2  0  0  0  0  0  0
  185.5810  178.8500  139.2470 C   0  0  0  0  0  2  0  0  0  0  0  0
  183.6170  179.6400  140.3880 N   0  0  0  0  0  2  0  0  0  0  0  0
  188.9930  177.4950  138.6200 C   0  0  0  0  0  3  0  0  0  0  0  0
  186.3850  178.0210  141.9750 C   0  0  0  0  0  2  0  0  0  0  0  0
  190.5830  177.0260  145.2280 C   0  0  0  0  0  2  0  0  0  0  0  0
  185.5120  179.2560  141.8060 C   0  0  0  0  0  2  0  0  0  0  0  0
  191.7610  177.8770  145.1780 N   0  0  0  0  0  2  0  0  0  0  0  0
  187.3390  177.8590  140.8190 C   0  0  0  0  0  0  0  0  0  0  0  0
  190.8700  176.5150  139.9830 C   0  0  1  0  0  3  0  0  0  0  0  0
  184.8060  179.1760  140.4920 C   0  0  0  0  0  0  0  0  0  0  0  0
  186.9270  178.2270  139.5190 C   0  0  0  0  0  0  0  0  0  0  0  0
  191.4200  177.4920  142.1890 C   0  0  0  0  0  0  0  0  0  0  0  0
  188.6160  177.2830  141.0150 C   0  0  0  0  0  0  0  0  0  0  0  0
  190.6700  175.9630  144.1450 C   0  0  0  0  0  2  0  0  0  0  0  0
  187.7620  178.0370  138.4700 N   0  0  0  0  0  0  0  0  0  0  0  0
  191.4690  178.9450  144.2370 C   0  0  0  0  0  2  0  0  0  0  0  0
  191.8780  178.5610  142.8490 C   0  0  0  0  0  3  0  0  0  0  0  0
  190.4180  176.5150  142.7410 C   0  0  1  0  0  3  0  0  0  0  0  0
  192.8370  175.5900  136.2680 C   0  0  0  0  0  3  0  0  0  0  0  0
  191.5370  176.1940  138.6750 C   0  0  0  0  0  0  0  0  0  0  0  0
  192.7580  176.8000  138.3640 C   0  0  0  0  0  3  0  0  0  0  0  0
  193.4060  176.5010  137.1620 C   0  0  0  0  0  3  0  0  0  0  0  0
  191.6190  174.9760  136.5760 C   0  0  0  0  0  3  0  0  0  0  0  0
  190.9700  175.2750  137.7770 C   0  0  0  0  0  3  0  0  0  0  0  0
  1 15  1  0  0  0  0
  2 12  1  0  0  0  0
  2 16  1  0  0  0  0
  4 14  1  0  0  0  0
  4 13  1  0  0  0  0
  5 13  2  0  0  0  0
  6  2  2  0  0  0  0
  9  7  1  0  0  0  0
 10  8  1  0  0  0  0
 11 16  2  0  0  0  0
 11  7  1  0  0  0  0
 12 23  1  6  0  0  0
 12  1  1  0  0  0  0
 13  9  1  0  0  0  0
 14 11  1  0  0  0  0
 15 21  1  0  0  0  0
 15 20  2  0  0  0  0
 16  3  1  0  0  0  0
 17  8  1  0  0  0  0
 18  6  1  0  0  0  0
 18 14  2  0  0  0  0
 19 10  1  0  0  0  0
 20 19  1  0  0  0  0
 21  3  1  1  0  0  0
 21 17  1  0  0  0  0
 22 26  2  0  0  0  0
 22 25  1  0  0  0  0
 24 23  1  0  0  0  0
 25 24  2  0  0  0  0
 26 27  1  0  0  0  0
 27 23  2  0  0  0  0
M  END
>  <MODEL>
6

>  <REMARK>
 VINA RESULT:      -6.5      2.206      3.004
  Name = 
  1 active torsions:
  status: ('A' for Active; 'I' for Inactive)
    1  A    between atoms: C_9  and  C_15
                            x       y       z     vdW  Elec       q    Type
                         _______ _______ _______ _____ _____    ______ ____

>  <TORSDO>
F 1

$$$$
=
 OpenBabel11052413453D

 27 31  0  0  1  0  0  0  0  0999 V2000
  188.6890  177.7420  139.4340 N   0  0  0  0  0  2  0  0  0  0  0  0
  190.8040  176.5520  139.0910 C   0  0  0  0  0  0  0  0  0  0  0  0
  189.4090  175.6780  137.0460 C   0  0  0  0  0  2  0  0  0  0  0  0
  194.4300  176.2270  136.7860 C   0  0  0  0  0  2  0  0  0  0  0  0
  195.2780  175.7220  134.5940 N   0  0  0  0  0  2  0  0  0  0  0  0
  192.0710  176.8820  139.5930 C   0  0  0  0  0  3  0  0  0  0  0  0
  191.8470  175.4380  135.5680 C   0  0  0  0  0  2  0  0  0  0  0  0
  186.4880  176.1000  135.7680 C   0  0  0  0  0  2  0  0  0  0  0  0
  192.9100  176.0830  134.6910 C   0  0  0  0  0  2  0  0  0  0  0  0
  185.9260  177.4170  136.0210 N   0  0  0  0  0  2  0  0  0  0  0  0
  191.8920  175.9790  136.9750 C   0  0  0  0  0  0  0  0  0  0  0  0
  189.5890  176.7390  139.9910 C   0  0  1  0  0  3  0  0  0  0  0  0
  194.2470  175.8980  135.3310 C   0  0  0  0  0  0  0  0  0  0  0  0
  193.1340  176.3180  137.5520 C   0  0  0  0  0  0  0  0  0  0  0  0
  188.0220  177.4510  138.2120 C   0  0  0  0  0  0  0  0  0  0  0  0
  190.7070  176.0900  137.7410 C   0  0  0  0  0  0  0  0  0  0  0  0
  186.8470  175.4320  137.0860 C   0  0  0  0  0  2  0  0  0  0  0  0
  193.1840  176.7580  138.8330 N   0  0  0  0  0  0  0  0  0  0  0  0
  187.0410  178.3460  136.0810 C   0  0  0  0  0  2  0  0  0  0  0  0
  187.5590  178.4690  137.4800 C   0  0  0  0  0  3  0  0  0  0  0  0
  188.0970  176.0250  137.7380 C   0  0  1  0  0  3  0  0  0  0  0  0
  190.3960  177.6000  144.1300 C   0  0  0  0  0  3  0  0  0  0  0  0
  189.8910  177.0290  141.4340 C   0  0  0  0  0  0  0  0  0  0  0  0
  189.5910  178.2930  141.9540 C   0  0  0  0  0  3  0  0  0  0  0  0
  189.8440  178.5790  143.2990 C   0  0  0  0  0  3  0  0  0  0  0  0
  190.6920  176.3330  143.6180 C   0  0  0  0  0  3  0  0  0  0  0  0
  190.4390  176.0470  142.2730 C   0  0  0  0  0  3  0  0  0  0  0  0
  1 12  1  0  0  0  0
  2  6  1  0  0  0  0
  2 12  1  0  0  0  0
  3 16  1  0  0  0  0
  4 14  1  0  0  0  0
  5 13  2  0  0  0  0
  7 11  1  0  0  0  0
  8 10  1  0  0  0  0
  8 17  1  0  0  0  0
  9 13  1  0  0  0  0
  9  7  1  0  0  0  0
 10 19  1  0  0  0  0
 11 14  2  0  0  0  0
 11 16  1  0  0  0  0
 12 23  1  1  0  0  0
 13  4  1  0  0  0  0
 14 18  1  0  0  0  0
 15  1  1  0  0  0  0
 16  2  2  0  0  0  0
 17 21  1  0  0  0  0
 18  6  2  0  0  0  0
 19 20  1  0  0  0  0
 20 15  2  0  0  0  0
 21  3  1  6  0  0  0
 21 15  1  0  0  0  0
 23 24  2  0  0  0  0
 23 27  1  0  0  0  0
 24 25  1  0  0  0  0
 25 22  2  0  0  0  0
 26 22  1  0  0  0  0
 27 26  2  0  0  0  0
M  END
>  <MODEL>
7

>  <REMARK>
 VINA RESULT:      -6.4      3.497      8.650
  Name = 
  1 active torsions:
  status: ('A' for Active; 'I' for Inactive)
    1  A    between atoms: C_9  and  C_15
                            x       y       z     vdW  Elec       q    Type
                         _______ _______ _______ _____ _____    ______ ____

>  <TORSDO>
F 1

$$$$
=
 OpenBabel11052413453D

 27 31  0  0  1  0  0  0  0  0999 V2000
  191.9010  174.6710  136.2990 N   0  0  0  0  0  2  0  0  0  0  0  0
  192.1950  176.4760  137.9300 C   0  0  0  0  0  0  0  0  0  0  0  0
  189.6030  176.5900  137.5290 C   0  0  0  0  0  2  0  0  0  0  0  0
  191.6450  177.7900  141.9970 C   0  0  0  0  0  2  0  0  0  0  0  0
  189.9710  178.3220  143.6390 N   0  0  0  0  0  2  0  0  0  0  0  0
  193.2520  176.6610  138.8320 C   0  0  0  0  0  3  0  0  0  0  0  0
  189.2910  177.5010  140.2230 C   0  0  0  0  0  2  0  0  0  0  0  0
  187.3630  175.0500  135.8110 C   0  0  0  0  0  2  0  0  0  0  0  0
  189.1450  177.1750  141.7020 C   0  0  0  0  0  2  0  0  0  0  0  0
  187.6820  173.6540  135.5550 N   0  0  0  0  0  2  0  0  0  0  0  0
  190.6700  177.1620  139.7180 C   0  0  0  0  0  0  0  0  0  0  0  0
  192.5100  175.9760  136.5260 C   0  0  1  0  0  3  0  0  0  0  0  0
  190.2200  177.8790  142.4640 C   0  0  0  0  0  0  0  0  0  0  0  0
  191.7860  177.3380  140.5650 C   0  0  0  0  0  0  0  0  0  0  0  0
  190.4830  174.5810  136.2570 C   0  0  0  0  0  0  0  0  0  0  0  0
  190.8620  176.7300  138.3840 C   0  0  0  0  0  0  0  0  0  0  0  0
  188.4880  175.9360  135.3020 C   0  0  0  0  0  2  0  0  0  0  0  0
  193.0320  177.0810  140.1000 N   0  0  0  0  0  0  0  0  0  0  0  0
  188.4460  173.1810  136.6970 C   0  0  0  0  0  2  0  0  0  0  0  0
  189.9120  173.3940  136.4850 C   0  0  0  0  0  3  0  0  0  0  0  0
  189.7370  175.8860  136.1850 C   0  0  1  0  0  3  0  0  0  0  0  0
  196.6750  175.8770  135.4450 C   0  0  0  0  0  3  0  0  0  0  0  0
  193.9660  175.9640  136.1550 C   0  0  0  0  0  0  0  0  0  0  0  0
  194.7550  174.8690  136.5230 C   0  0  0  0  0  3  0  0  0  0  0  0
  196.1070  174.8260  136.1710 C   0  0  0  0  0  3  0  0  0  0  0  0
  195.8890  176.9720  135.0690 C   0  0  0  0  0  3  0  0  0  0  0  0
  194.5370  177.0150  135.4210 C   0  0  0  0  0  3  0  0  0  0  0  0
  1 12  1  0  0  0  0
  2 16  2  0  0  0  0
  2  6  1  0  0  0  0
  3 16  1  0  0  0  0
  4 13  1  0  0  0  0
  6 18  2  0  0  0  0
  7  9  1  0  0  0  0
  9 13  1  0  0  0  0
 10  8  1  0  0  0  0
 10 19  1  0  0  0  0
 11  7  1  0  0  0  0
 11 14  2  0  0  0  0
 12 23  1  1  0  0  0
 12  2  1  0  0  0  0
 13  5  2  0  0  0  0
 14  4  1  0  0  0  0
 15  1  1  0  0  0  0
 15 20  2  0  0  0  0
 16 11  1  0  0  0  0
 17  8  1  0  0  0  0
 18 14  1  0  0  0  0
 20 19  1  0  0  0  0
 21 17  1  1  0  0  0
 21 15  1  0  0  0  0
 21  3  1  0  0  0  0
 22 25  1  0  0  0  0
 23 24  1  0  0  0  0
 25 24  2  0  0  0  0
 26 27  1  0  0  0  0
 26 22  2  0  0  0  0
 27 23  2  0  0  0  0
M  END
>  <MODEL>
8

>  <REMARK>
 VINA RESULT:      -6.3      4.345      7.500
  Name = 
  1 active torsions:
  status: ('A' for Active; 'I' for Inactive)
    1  A    between atoms: C_9  and  C_15
                            x       y       z     vdW  Elec       q    Type
                         _______ _______ _______ _____ _____    ______ ____

>  <TORSDO>
F 1

$$$$
=
 OpenBabel11052413453D

 27 31  0  0  1  0  0  0  0  0999 V2000
  187.7650  177.4590  142.8030 N   0  0  0  0  0  2  0  0  0  0  0  0
  188.3180  177.8440  140.4460 C   0  0  0  0  0  0  0  0  0  0  0  0
  190.6580  178.2260  141.5720 C   0  0  0  0  0  2  0  0  0  0  0  0
  190.2450  176.3380  136.8990 C   0  0  0  0  0  2  0  0  0  0  0  0
  192.3850  175.7550  135.9700 N   0  0  0  0  0  2  0  0  0  0  0  0
  187.6180  177.4080  139.3130 C   0  0  0  0  0  3  0  0  0  0  0  0
  191.8950  177.2590  139.1800 C   0  0  0  0  0  2  0  0  0  0  0  0
  191.9600  178.1340  144.5110 C   0  0  0  0  0  2  0  0  0  0  0  0
  192.3800  176.0830  138.3450 C   0  0  0  0  0  2  0  0  0  0  0  0
  191.3020  177.1990  145.4100 N   0  0  0  0  0  2  0  0  0  0  0  0
  190.3900  177.2870  139.2690 C   0  0  0  0  0  0  0  0  0  0  0  0
  187.5260  178.3260  141.6550 C   0  0  1  0  0  3  0  0  0  0  0  0
  191.7300  176.1390  137.0020 C   0  0  0  0  0  0  0  0  0  0  0  0
  189.6180  176.8770  138.1600 C   0  0  0  0  0  0  0  0  0  0  0  0
  189.0640  177.4380  143.3790 C   0  0  0  0  0  0  0  0  0  0  0  0
  189.7470  177.7800  140.4290 C   0  0  0  0  0  0  0  0  0  0  0  0
  190.9440  179.1250  143.9670 C   0  0  0  0  0  2  0  0  0  0  0  0
  188.2670  176.9470  138.2180 N   0  0  0  0  0  0  0  0  0  0  0  0
  190.8110  176.1030  144.5930 C   0  0  0  0  0  2  0  0  0  0  0  0
  189.4200  176.3780  144.1120 C   0  0  0  0  0  3  0  0  0  0  0  0
  190.0110  178.5140  142.9200 C   0  0  1  0  0  3  0  0  0  0  0  0
  183.3050  178.9230  141.0610 C   0  0  0  0  0  3  0  0  0  0  0  0
  186.0530  178.5250  141.4270 C   0  0  0  0  0  0  0  0  0  0  0  0
  185.1590  178.2560  142.4690 C   0  0  0  0  0  3  0  0  0  0  0  0
  183.7870  178.4530  142.2860 C   0  0  0  0  0  3  0  0  0  0  0  0
  184.1950  179.1990  140.0190 C   0  0  0  0  0  3  0  0  0  0  0  0
  185.5660  179.0020  140.2010 C   0  0  0  0  0  3  0  0  0  0  0  0
  1 15  1  0  0  0  0
  2 12  1  0  0  0  0
  4 13  1  0  0  0  0
  4 14  1  0  0  0  0
  5 13  2  0  0  0  0
  6  2  2  0  0  0  0
  7 11  1  0  0  0  0
  8 10  1  0  0  0  0
  9  7  1  0  0  0  0
 11 16  2  0  0  0  0
 12 23  1  6  0  0  0
 12  1  1  0  0  0  0
 13  9  1  0  0  0  0
 14 18  2  0  0  0  0
 14 11  1  0  0  0  0
 15 20  2  0  0  0  0
 16  2  1  0  0  0  0
 16  3  1  0  0  0  0
 17  8  1  0  0  0  0
 18  6  1  0  0  0  0
 19 10  1  0  0  0  0
 20 19  1  0  0  0  0
 21  3  1  6  0  0  0
 21 15  1  0  0  0  0
 21 17  1  0  0  0  0
 22 25  1  0  0  0  0
 23 24  1  0  0  0  0
 25 24  2  0  0  0  0
 26 27  1  0  0  0  0
 26 22  2  0  0  0  0
 27 23  2  0  0  0  0
M  END
>  <MODEL>
9

>  <REMARK>
 VINA RESULT:      -6.3      2.160      5.992
  Name = 
  1 active torsions:
  status: ('A' for Active; 'I' for Inactive)
    1  A    between atoms: C_9  and  C_15
                            x       y       z     vdW  Elec       q    Type
                         _______ _______ _______ _____ _____    ______ ____

>  <TORSDO>
F 1

$$$$
