=
 OpenBabel11052413143D

 31 34  0  0  1  0  0  0  0  0999 V2000
  190.7890  176.3580  145.6130 C   0  0  0  0  0  0  0  0  0  0  0  0
  188.0320  178.1270  143.5940 C   0  0  1  0  0  3  0  0  0  0  0  0
  186.8920  178.2390  144.6010 C   0  0  0  0  0  0  0  0  0  0  0  0
  186.1460  178.6990  146.8740 C   0  0  0  0  0  3  0  0  0  0  0  0
  189.2670  177.3320  143.9850 C   0  0  0  0  0  0  0  0  0  0  0  0
  191.6910  176.0490  144.5930 C   0  0  0  0  0  3  0  0  0  0  0  0
  187.1710  178.4820  145.9540 C   0  0  0  0  0  3  0  0  0  0  0  0
  188.6830  177.6900  141.2160 C   0  0  0  0  0  0  0  0  0  0  0  0
  191.0840  176.0430  146.8960 F   0  0  0  0  0  0  0  0  0  0  0  0
  185.1870  178.1250  142.7060 C   0  0  0  0  0  2  0  0  0  0  0  0
  184.8190  178.7050  146.4470 C   0  0  0  0  0  3  0  0  0  0  0  0
  189.8770  177.3280  141.5940 N   0  0  0  0  0  0  0  0  0  0  0  0
  187.5500  177.6610  142.2110 C   0  0  2  0  0  3  0  0  0  0  0  0
  188.4180  177.9560  139.8340 N   0  0  0  0  0  2  0  0  0  0  0  0
  189.5890  177.0080  145.3110 C   0  0  0  0  0  3  0  0  0  0  0  0
  182.8210  178.5530  144.6200 Cl  0  0  0  0  0  0  0  0  0  0  0  0
  190.1850  177.0130  142.9610 C   0  0  0  0  0  0  0  0  0  0  0  0
  191.3910  176.3780  143.2690 C   0  0  0  0  0  3  0  0  0  0  0  0
  186.3430  178.4770  141.7810 C   0  0  0  0  0  2  0  0  0  0  0  0
  185.5420  178.3110  144.1610 C   0  0  0  0  0  0  0  0  0  0  0  0
  184.5110  178.5130  145.1000 C   0  0  0  0  0  0  0  0  0  0  0  0
  189.1340  179.0000  137.7470 C   0  0  0  0  0  1  0  0  0  0  0  0
  189.4590  177.9700  138.8150 C   0  0  2  0  0  3  0  0  0  0  0  0
  188.5750  176.0470  137.7140 O   0  0  0  0  0  0  0  0  0  0  0  0
  190.9880  174.6200  137.5820 C   0  0  0  0  0  1  0  0  0  0  0  0
  190.8650  175.9410  138.1810 N   0  0  0  0  0  0  0  0  0  0  0  0
  189.5940  176.6090  138.2040 C   0  0  0  0  0  0  0  0  0  0  0  0
  192.0610  176.5700  138.7250 C   0  0  0  0  0  2  0  0  0  0  0  0
  193.2420  176.2700  137.8670 C   0  0  0  0  0  0  0  0  0  0  0  0
  193.2740  176.6720  136.6760 O   0  0  0  0  0  0  0  0  0  0  0  0
  194.3490  175.5550  138.4040 N   0  0  0  0  0  1  0  0  0  0  0  0
  1  9  1  0  0  0  0
  2  5  1  1  0  0  0
  2  3  1  0  0  0  0
  3  7  1  0  0  0  0
  5 15  2  0  0  0  0
  6  1  2  0  0  0  0
  7  4  2  0  0  0  0
  8 12  2  0  0  0  0
  8 13  1  0  0  0  0
 10 20  1  0  0  0  0
 11  4  1  0  0  0  0
 12 17  1  0  0  0  0
 13 19  1  6  0  0  0
 13  2  1  0  0  0  0
 14  8  1  0  0  0  0
 15  1  1  0  0  0  0
 16 21  1  0  0  0  0
 17 18  2  0  0  0  0
 17  5  1  0  0  0  0
 18  6  1  0  0  0  0
 19 10  1  0  0  0  0
 20  3  2  0  0  0  0
 20 21  1  0  0  0  0
 21 11  2  0  0  0  0
 23 22  1  6  0  0  0
 23 14  1  0  0  0  0
 24 27  2  0  0  0  0
 25 26  1  0  0  0  0
 26 27  1  0  0  0  0
 26 28  1  0  0  0  0
 27 23  1  0  0  0  0
 29 31  1  0  0  0  0
 29 28  1  0  0  0  0
 30 29  2  0  0  0  0
M  END
>  <MODEL>
1

>  <REMARK>
 VINA RESULT:      -9.7      0.000      0.000
  Name = 
  4 active torsions:
  status: ('A' for Active; 'I' for Inactive)
    1  A    between atoms: C_1  and  C_24
    2  A    between atoms: C_9  and  C_22
    3  A    between atoms: C_9  and  N_23
    4  A    between atoms: N_19  and  C_24
                            x       y       z     vdW  Elec       q    Type
                         _______ _______ _______ _____ _____    ______ ____

>  <TORSDO>
F 4

$$$$
=
 OpenBabel11052413143D

 31 34  0  0  1  0  0  0  0  0999 V2000
  186.5680  178.2560  146.8950 C   0  0  0  0  0  0  0  0  0  0  0  0
  187.3850  177.4930  143.2140 C   0  0  1  0  0  3  0  0  0  0  0  0
  188.9030  177.3410  143.2270 C   0  0  0  0  0  0  0  0  0  0  0  0
  190.9110  176.4940  144.3140 C   0  0  0  0  0  3  0  0  0  0  0  0
  186.6930  177.9570  144.4850 C   0  0  0  0  0  0  0  0  0  0  0  0
  185.2300  178.6400  146.7830 C   0  0  0  0  0  3  0  0  0  0  0  0
  189.5400  176.7450  144.3260 C   0  0  0  0  0  3  0  0  0  0  0  0
  185.3840  178.3590  141.9830 C   0  0  0  0  0  0  0  0  0  0  0  0
  187.1590  178.2080  148.1120 F   0  0  0  0  0  0  0  0  0  0  0  0
  189.0230  178.1780  140.8190 C   0  0  0  0  0  2  0  0  0  0  0  0
  191.6670  176.8090  143.1870 C   0  0  0  0  0  3  0  0  0  0  0  0
  184.7070  178.4190  143.0960 N   0  0  0  0  0  0  0  0  0  0  0  0
  186.8910  178.3430  142.0320 C   0  0  2  0  0  3  0  0  0  0  0  0
  184.7080  178.4720  140.7260 N   0  0  0  0  0  2  0  0  0  0  0  0
  187.2910  177.9040  145.7520 C   0  0  0  0  0  3  0  0  0  0  0  0
  192.0570  177.7140  140.6610 Cl  0  0  0  0  0  0  0  0  0  0  0  0
  185.3410  178.3490  144.3830 C   0  0  0  0  0  0  0  0  0  0  0  0
  184.6160  178.6850  145.5290 C   0  0  0  0  0  3  0  0  0  0  0  0
  187.5360  177.8640  140.7430 C   0  0  0  0  0  2  0  0  0  0  0  0
  189.6660  177.6000  142.0560 C   0  0  0  0  0  0  0  0  0  0  0  0
  191.0550  177.3590  142.0600 C   0  0  0  0  0  0  0  0  0  0  0  0
  182.7270  177.2030  140.0720 C   0  0  0  0  0  1  0  0  0  0  0  0
  183.2570  178.5230  140.6070 C   0  0  2  0  0  3  0  0  0  0  0  0
  183.7410  180.2440  139.0280 O   0  0  0  0  0  0  0  0  0  0  0  0
  181.1030  181.1550  138.7330 C   0  0  0  0  0  1  0  0  0  0  0  0
  181.4840  180.0610  139.6140 N   0  0  0  0  0  0  0  0  0  0  0  0
  182.8570  179.6490  139.7050 C   0  0  0  0  0  0  0  0  0  0  0  0
  180.4390  179.3850  140.3720 C   0  0  0  0  0  2  0  0  0  0  0  0
  180.0600  180.1900  141.5670 C   0  0  0  0  0  0  0  0  0  0  0  0
  180.7280  180.0930  142.6300 O   0  0  0  0  0  0  0  0  0  0  0  0
  178.9630  181.0920  141.5000 N   0  0  0  0  0  1  0  0  0  0  0  0
  1  9  1  0  0  0  0
  2  3  1  1  0  0  0
  2  5  1  0  0  0  0
  3  7  1  0  0  0  0
  4  7  2  0  0  0  0
  5 15  1  0  0  0  0
  6  1  1  0  0  0  0
  8 13  1  0  0  0  0
  8 12  2  0  0  0  0
 10 20  1  0  0  0  0
 11  4  1  0  0  0  0
 12 17  1  0  0  0  0
 13 19  1  6  0  0  0
 13  2  1  0  0  0  0
 14  8  1  0  0  0  0
 15  1  2  0  0  0  0
 16 21  1  0  0  0  0
 17  5  2  0  0  0  0
 17 18  1  0  0  0  0
 18  6  2  0  0  0  0
 19 10  1  0  0  0  0
 20 21  1  0  0  0  0
 20  3  2  0  0  0  0
 21 11  2  0  0  0  0
 23 22  1  6  0  0  0
 23 14  1  0  0  0  0
 24 27  2  0  0  0  0
 25 26  1  0  0  0  0
 26 27  1  0  0  0  0
 26 28  1  0  0  0  0
 27 23  1  0  0  0  0
 28 29  1  0  0  0  0
 29 30  2  0  0  0  0
 31 29  1  0  0  0  0
M  END
>  <MODEL>
2

>  <REMARK>
 VINA RESULT:      -9.6      4.454      7.694
  Name = 
  4 active torsions:
  status: ('A' for Active; 'I' for Inactive)
    1  A    between atoms: C_1  and  C_24
    2  A    between atoms: C_9  and  C_22
    3  A    between atoms: C_9  and  N_23
    4  A    between atoms: N_19  and  C_24
                            x       y       z     vdW  Elec       q    Type
                         _______ _______ _______ _____ _____    ______ ____

>  <TORSDO>
F 4

$$$$
=
 OpenBabel11052413143D

 31 34  0  0  1  0  0  0  0  0999 V2000
  191.0880  176.2190  146.9410 C   0  0  0  0  0  0  0  0  0  0  0  0
  188.6670  177.7410  144.3670 C   0  0  1  0  0  3  0  0  0  0  0  0
  187.4350  178.0610  145.2070 C   0  0  0  0  0  0  0  0  0  0  0  0
  186.4790  178.9160  147.2780 C   0  0  0  0  0  3  0  0  0  0  0  0
  189.8060  176.9720  145.0170 C   0  0  0  0  0  0  0  0  0  0  0  0
  192.0740  175.7110  146.0930 C   0  0  0  0  0  3  0  0  0  0  0  0
  187.5820  178.5110  146.5270 C   0  0  0  0  0  3  0  0  0  0  0  0
  189.5410  176.8950  142.1780 C   0  0  0  0  0  0  0  0  0  0  0  0
  191.2260  176.1070  148.2840 F   0  0  0  0  0  0  0  0  0  0  0  0
  185.9370  177.7050  143.1710 C   0  0  0  0  0  2  0  0  0  0  0  0
  185.2080  178.9040  146.7070 C   0  0  0  0  0  3  0  0  0  0  0  0
  190.6650  176.5520  142.7420 N   0  0  0  0  0  0  0  0  0  0  0  0
  188.3080  177.0740  143.0300 C   0  0  2  0  0  3  0  0  0  0  0  0
  189.4390  176.9410  140.7510 N   0  0  0  0  0  2  0  0  0  0  0  0
  189.9660  176.8570  146.4060 C   0  0  0  0  0  3  0  0  0  0  0  0
  183.4100  178.5350  144.7120 Cl  0  0  0  0  0  0  0  0  0  0  0  0
  190.8080  176.4540  144.1680 C   0  0  0  0  0  0  0  0  0  0  0  0
  191.9360  175.8300  144.7080 C   0  0  0  0  0  3  0  0  0  0  0  0
  187.2030  177.8550  142.3410 C   0  0  0  0  0  2  0  0  0  0  0  0
  186.1460  178.1130  144.6100 C   0  0  0  0  0  0  0  0  0  0  0  0
  185.0340  178.5070  145.3810 C   0  0  0  0  0  0  0  0  0  0  0  0
  191.7510  177.6040  140.3250 C   0  0  0  0  0  1  0  0  0  0  0  0
  190.5820  176.7460  139.8680 C   0  0  2  0  0  3  0  0  0  0  0  0
  189.5070  178.1170  138.2380 O   0  0  0  0  0  0  0  0  0  0  0  0
  190.2500  176.5920  136.0020 C   0  0  0  0  0  1  0  0  0  0  0  0
  190.6190  176.2520  137.3680 N   0  0  0  0  0  0  0  0  0  0  0  0
  190.2040  177.0880  138.4600 C   0  0  0  0  0  0  0  0  0  0  0  0
  191.4360  175.0670  137.5910 C   0  0  0  0  0  2  0  0  0  0  0  0
  190.7970  173.8710  136.9710 C   0  0  0  0  0  0  0  0  0  0  0  0
  189.6960  173.4470  137.4090 O   0  0  0  0  0  0  0  0  0  0  0  0
  191.4150  173.2260  135.8640 N   0  0  0  0  0  1  0  0  0  0  0  0
  1  9  1  0  0  0  0
  2  5  1  1  0  0  0
  2  3  1  0  0  0  0
  3  7  1  0  0  0  0
  5 15  2  0  0  0  0
  6  1  2  0  0  0  0
  7  4  2  0  0  0  0
  8 12  2  0  0  0  0
  8 13  1  0  0  0  0
 10 20  1  0  0  0  0
 11  4  1  0  0  0  0
 12 17  1  0  0  0  0
 13 19  1  6  0  0  0
 13  2  1  0  0  0  0
 14  8  1  0  0  0  0
 15  1  1  0  0  0  0
 16 21  1  0  0  0  0
 17 18  2  0  0  0  0
 17  5  1  0  0  0  0
 18  6  1  0  0  0  0
 19 10  1  0  0  0  0
 20  3  2  0  0  0  0
 20 21  1  0  0  0  0
 21 11  2  0  0  0  0
 23 22  1  1  0  0  0
 23 14  1  0  0  0  0
 24 27  2  0  0  0  0
 25 26  1  0  0  0  0
 26 28  1  0  0  0  0
 26 27  1  0  0  0  0
 27 23  1  0  0  0  0
 29 30  2  0  0  0  0
 29 28  1  0  0  0  0
 31 29  1  0  0  0  0
M  END
>  <MODEL>
3

>  <REMARK>
 VINA RESULT:      -9.1      1.567      1.999
  Name = 
  4 active torsions:
  status: ('A' for Active; 'I' for Inactive)
    1  A    between atoms: C_1  and  C_24
    2  A    between atoms: C_9  and  C_22
    3  A    between atoms: C_9  and  N_23
    4  A    between atoms: N_19  and  C_24
                            x       y       z     vdW  Elec       q    Type
                         _______ _______ _______ _____ _____    ______ ____

>  <TORSDO>
F 4

$$$$
=
 OpenBabel11052413143D

 31 34  0  0  1  0  0  0  0  0999 V2000
  188.0400  177.2330  145.3350 C   0  0  0  0  0  0  0  0  0  0  0  0
  186.0230  178.5970  142.3570 C   0  0  1  0  0  3  0  0  0  0  0  0
  184.6000  178.6440  142.9030 C   0  0  0  0  0  0  0  0  0  0  0  0
  183.0800  179.1470  144.7390 C   0  0  0  0  0  3  0  0  0  0  0  0
  187.1050  177.9550  143.2100 C   0  0  0  0  0  0  0  0  0  0  0  0
  189.2610  176.9630  144.7130 C   0  0  0  0  0  3  0  0  0  0  0  0
  184.3730  178.9880  144.2450 C   0  0  0  0  0  3  0  0  0  0  0  0
  187.4880  178.1010  140.3880 C   0  0  0  0  0  0  0  0  0  0  0  0
  187.8970  177.0200  146.6650 F   0  0  0  0  0  0  0  0  0  0  0  0
  183.6700  178.2530  140.5590 C   0  0  0  0  0  2  0  0  0  0  0  0
  181.9860  178.9930  143.8890 C   0  0  0  0  0  3  0  0  0  0  0  0
  188.5020  177.8850  141.1780 N   0  0  0  0  0  0  0  0  0  0  0  0
  186.0870  178.0090  140.9380 C   0  0  2  0  0  3  0  0  0  0  0  0
  187.6980  178.2630  138.9810 N   0  0  0  0  0  2  0  0  0  0  0  0
  186.9720  177.7380  144.5900 C   0  0  0  0  0  3  0  0  0  0  0  0
  180.7620  178.5380  141.5120 Cl  0  0  0  0  0  0  0  0  0  0  0  0
  188.3420  177.6780  142.5900 C   0  0  0  0  0  0  0  0  0  0  0  0
  189.4130  177.1870  143.3430 C   0  0  0  0  0  3  0  0  0  0  0  0
  185.0440  178.6710  140.0550 C   0  0  0  0  0  2  0  0  0  0  0  0
  183.4840  178.5530  142.0270 C   0  0  0  0  0  0  0  0  0  0  0  0
  182.1800  178.6980  142.5390 C   0  0  0  0  0  0  0  0  0  0  0  0
  189.0540  179.3920  137.2930 C   0  0  0  0  0  1  0  0  0  0  0  0
  189.0230  178.3290  138.3780 C   0  0  2  0  0  3  0  0  0  0  0  0
  188.6870  176.4930  136.8920 O   0  0  0  0  0  0  0  0  0  0  0  0
  190.8900  174.9830  137.7510 C   0  0  0  0  0  1  0  0  0  0  0  0
  190.5350  176.2790  138.3100 N   0  0  0  0  0  0  0  0  0  0  0  0
  189.3930  176.9940  137.8110 C   0  0  0  0  0  0  0  0  0  0  0  0
  191.3780  176.8370  139.3590 C   0  0  0  0  0  2  0  0  0  0  0  0
  192.8020  176.8700  138.9180 C   0  0  0  0  0  0  0  0  0  0  0  0
  193.0900  176.6990  137.7050 O   0  0  0  0  0  0  0  0  0  0  0  0
  193.8340  177.1260  139.8620 N   0  0  0  0  0  1  0  0  0  0  0  0
  1  9  1  0  0  0  0
  2  3  1  1  0  0  0
  2  5  1  0  0  0  0
  3  7  1  0  0  0  0
  5 15  1  0  0  0  0
  6  1  1  0  0  0  0
  7  4  2  0  0  0  0
  8 13  1  0  0  0  0
  8 12  2  0  0  0  0
 10 20  1  0  0  0  0
 11  4  1  0  0  0  0
 12 17  1  0  0  0  0
 13 19  1  6  0  0  0
 13  2  1  0  0  0  0
 14  8  1  0  0  0  0
 15  1  2  0  0  0  0
 16 21  1  0  0  0  0
 17  5  2  0  0  0  0
 17 18  1  0  0  0  0
 18  6  2  0  0  0  0
 19 10  1  0  0  0  0
 20 21  1  0  0  0  0
 20  3  2  0  0  0  0
 21 11  2  0  0  0  0
 23 22  1  6  0  0  0
 23 14  1  0  0  0  0
 24 27  2  0  0  0  0
 25 26  1  0  0  0  0
 26 28  1  0  0  0  0
 27 26  1  0  0  0  0
 27 23  1  0  0  0  0
 29 28  1  0  0  0  0
 29 31  1  0  0  0  0
 30 29  2  0  0  0  0
M  END
>  <MODEL>
4

>  <REMARK>
 VINA RESULT:      -8.9      1.649      2.340
  Name = 
  4 active torsions:
  status: ('A' for Active; 'I' for Inactive)
    1  A    between atoms: C_1  and  C_24
    2  A    between atoms: C_9  and  C_22
    3  A    between atoms: C_9  and  N_23
    4  A    between atoms: N_19  and  C_24
                            x       y       z     vdW  Elec       q    Type
                         _______ _______ _______ _____ _____    ______ ____

>  <TORSDO>
F 4

$$$$
=
 OpenBabel11052413143D

 31 34  0  0  1  0  0  0  0  0999 V2000
  190.7500  176.3970  146.0310 C   0  0  0  0  0  0  0  0  0  0  0  0
  188.0720  178.1070  143.8610 C   0  0  1  0  0  3  0  0  0  0  0  0
  186.9050  178.2730  144.8290 C   0  0  0  0  0  0  0  0  0  0  0  0
  186.1010  178.8390  147.0580 C   0  0  0  0  0  3  0  0  0  0  0  0
  189.2860  177.3160  144.3210 C   0  0  0  0  0  0  0  0  0  0  0  0
  191.6770  176.0340  145.0520 C   0  0  0  0  0  3  0  0  0  0  0  0
  187.1490  178.5720  146.1780 C   0  0  0  0  0  3  0  0  0  0  0  0
  188.7840  177.5610  141.5240 C   0  0  0  0  0  0  0  0  0  0  0  0
  191.0050  176.1340  147.3350 F   0  0  0  0  0  0  0  0  0  0  0  0
  185.2530  178.0960  142.8920 C   0  0  0  0  0  2  0  0  0  0  0  0
  184.7870  178.8410  146.5940 C   0  0  0  0  0  3  0  0  0  0  0  0
  189.9620  177.2020  141.9500 N   0  0  0  0  0  0  0  0  0  0  0  0
  187.6230  177.5860  142.4860 C   0  0  2  0  0  3  0  0  0  0  0  0
  188.5610  177.7690  140.1250 N   0  0  0  0  0  2  0  0  0  0  0  0
  189.5670  177.0450  145.6680 C   0  0  0  0  0  3  0  0  0  0  0  0
  182.8400  178.6320  144.7190 Cl  0  0  0  0  0  0  0  0  0  0  0  0
  190.2290  176.9430  143.3380 C   0  0  0  0  0  0  0  0  0  0  0  0
  191.4180  176.3090  143.7070 C   0  0  0  0  0  3  0  0  0  0  0  0
  186.4390  178.3950  141.9870 C   0  0  0  0  0  2  0  0  0  0  0  0
  185.5700  178.3410  144.3480 C   0  0  0  0  0  0  0  0  0  0  0  0
  184.5150  178.5940  145.2480 C   0  0  0  0  0  0  0  0  0  0  0  0
  189.4230  178.8140  138.0930 C   0  0  0  0  0  1  0  0  0  0  0  0
  189.6310  177.7280  139.1360 C   0  0  2  0  0  3  0  0  0  0  0  0
  190.6470  175.6120  138.7140 O   0  0  0  0  0  0  0  0  0  0  0  0
  188.6690  174.6520  136.9700 C   0  0  0  0  0  1  0  0  0  0  0  0
  188.6230  175.9650  137.5970 N   0  0  0  0  0  0  0  0  0  0  0  0
  189.6730  176.3800  138.4850 C   0  0  0  0  0  0  0  0  0  0  0  0
  187.4780  176.8240  137.3240 C   0  0  0  0  0  2  0  0  0  0  0  0
  187.1720  176.8330  135.8650 C   0  0  0  0  0  0  0  0  0  0  0  0
  186.1390  176.2580  135.4350 O   0  0  0  0  0  0  0  0  0  0  0  0
  188.0290  177.5190  134.9620 N   0  0  0  0  0  1  0  0  0  0  0  0
  1  9  1  0  0  0  0
  2  5  1  1  0  0  0
  2  3  1  0  0  0  0
  3  7  1  0  0  0  0
  5 15  2  0  0  0  0
  6  1  2  0  0  0  0
  7  4  2  0  0  0  0
  8 12  2  0  0  0  0
  8 13  1  0  0  0  0
 10 20  1  0  0  0  0
 11  4  1  0  0  0  0
 12 17  1  0  0  0  0
 13 19  1  6  0  0  0
 13  2  1  0  0  0  0
 14  8  1  0  0  0  0
 15  1  1  0  0  0  0
 16 21  1  0  0  0  0
 17 18  2  0  0  0  0
 17  5  1  0  0  0  0
 18  6  1  0  0  0  0
 19 10  1  0  0  0  0
 20  3  2  0  0  0  0
 20 21  1  0  0  0  0
 21 11  2  0  0  0  0
 23 22  1  6  0  0  0
 23 14  1  0  0  0  0
 25 26  1  0  0  0  0
 26 27  1  0  0  0  0
 27 24  2  0  0  0  0
 27 23  1  0  0  0  0
 28 26  1  0  0  0  0
 29 28  1  0  0  0  0
 30 29  2  0  0  0  0
 31 29  1  0  0  0  0
M  END
>  <MODEL>
5

>  <REMARK>
 VINA RESULT:      -8.9      1.645      2.487
  Name = 
  4 active torsions:
  status: ('A' for Active; 'I' for Inactive)
    1  A    between atoms: C_1  and  C_24
    2  A    between atoms: C_9  and  C_22
    3  A    between atoms: C_9  and  N_23
    4  A    between atoms: N_19  and  C_24
                            x       y       z     vdW  Elec       q    Type
                         _______ _______ _______ _____ _____    ______ ____

>  <TORSDO>
F 4

$$$$
=
 OpenBabel11052413143D

 31 34  0  0  1  0  0  0  0  0999 V2000
  184.4230  179.2560  143.6440 C   0  0  0  0  0  0  0  0  0  0  0  0
  187.7640  177.3820  144.0070 C   0  0  1  0  0  3  0  0  0  0  0  0
  188.0700  177.5190  145.4950 C   0  0  0  0  0  0  0  0  0  0  0  0
  187.2910  177.4920  147.8020 C   0  0  0  0  0  3  0  0  0  0  0  0
  186.5740  178.1400  143.4410 C   0  0  0  0  0  0  0  0  0  0  0  0
  184.3230  179.3290  142.2530 C   0  0  0  0  0  3  0  0  0  0  0  0
  187.0280  177.4810  146.4330 C   0  0  0  0  0  3  0  0  0  0  0  0
  188.6820  177.3750  141.6780 C   0  0  0  0  0  0  0  0  0  0  0  0
  183.4330  179.7550  144.4210 F   0  0  0  0  0  0  0  0  0  0  0  0
  190.5730  177.4420  145.0010 C   0  0  0  0  0  2  0  0  0  0  0  0
  188.6070  177.5110  148.2580 C   0  0  0  0  0  3  0  0  0  0  0  0
  187.5150  177.7090  141.2010 N   0  0  0  0  0  0  0  0  0  0  0  0
  188.9960  177.6480  143.1270 C   0  0  2  0  0  3  0  0  0  0  0  0
  189.7090  176.9070  140.7970 N   0  0  0  0  0  2  0  0  0  0  0  0
  185.5380  178.6540  144.2340 C   0  0  0  0  0  3  0  0  0  0  0  0
  191.3050  177.5030  147.9860 Cl  0  0  0  0  0  0  0  0  0  0  0  0
  186.4640  178.2200  142.0360 C   0  0  0  0  0  0  0  0  0  0  0  0
  185.3410  178.8100  141.4490 C   0  0  0  0  0  3  0  0  0  0  0  0
  190.1850  176.8620  143.6490 C   0  0  0  0  0  2  0  0  0  0  0  0
  189.4110  177.4720  145.9650 C   0  0  0  0  0  0  0  0  0  0  0  0
  189.6670  177.5010  147.3500 C   0  0  0  0  0  0  0  0  0  0  0  0
  190.7750  176.2020  138.7160 C   0  0  0  0  0  1  0  0  0  0  0  0
  189.4840  176.6520  139.3800 C   0  0  2  0  0  3  0  0  0  0  0  0
  189.4310  179.0120  139.0370 O   0  0  0  0  0  0  0  0  0  0  0  0
  187.4150  179.0030  137.0850 C   0  0  0  0  0  1  0  0  0  0  0  0
  187.9190  177.7990  137.7280 N   0  0  0  0  0  0  0  0  0  0  0  0
  188.9580  177.8870  138.7160 C   0  0  0  0  0  0  0  0  0  0  0  0
  187.3630  176.5140  137.3250 C   0  0  0  0  0  2  0  0  0  0  0  0
  187.7720  176.1860  135.9300 C   0  0  0  0  0  0  0  0  0  0  0  0
  188.9910  176.1540  135.6220 O   0  0  0  0  0  0  0  0  0  0  0  0
  186.7860  175.8770  134.9530 N   0  0  0  0  0  1  0  0  0  0  0  0
  1 15  1  0  0  0  0
  1  9  1  0  0  0  0
  2  5  1  6  0  0  0
  2  3  1  0  0  0  0
  3 20  2  0  0  0  0
  3  7  1  0  0  0  0
  4 11  1  0  0  0  0
  5 15  2  0  0  0  0
  6  1  2  0  0  0  0
  7  4  2  0  0  0  0
  8 13  1  0  0  0  0
 10 20  1  0  0  0  0
 12  8  2  0  0  0  0
 12 17  1  0  0  0  0
 13 19  1  1  0  0  0
 13  2  1  0  0  0  0
 14  8  1  0  0  0  0
 17  5  1  0  0  0  0
 18 17  2  0  0  0  0
 18  6  1  0  0  0  0
 19 10  1  0  0  0  0
 20 21  1  0  0  0  0
 21 16  1  0  0  0  0
 21 11  2  0  0  0  0
 23 22  1  6  0  0  0
 23 14  1  0  0  0  0
 25 26  1  0  0  0  0
 26 27  1  0  0  0  0
 27 24  2  0  0  0  0
 27 23  1  0  0  0  0
 28 26  1  0  0  0  0
 29 28  1  0  0  0  0
 30 29  2  0  0  0  0
 31 29  1  0  0  0  0
M  END
>  <MODEL>
6

>  <REMARK>
 VINA RESULT:      -8.7      2.959      4.894
  Name = 
  4 active torsions:
  status: ('A' for Active; 'I' for Inactive)
    1  A    between atoms: C_1  and  C_24
    2  A    between atoms: C_9  and  C_22
    3  A    between atoms: C_9  and  N_23
    4  A    between atoms: N_19  and  C_24
                            x       y       z     vdW  Elec       q    Type
                         _______ _______ _______ _____ _____    ______ ____

>  <TORSDO>
F 4

$$$$
=
 OpenBabel11052413143D

 31 34  0  0  1  0  0  0  0  0999 V2000
  184.5500  178.6260  145.8030 C   0  0  0  0  0  0  0  0  0  0  0  0
  186.8980  177.7910  142.8720 C   0  0  1  0  0  3  0  0  0  0  0  0
  188.2540  177.6430  143.5540 C   0  0  0  0  0  0  0  0  0  0  0  0
  189.5730  176.8210  145.4300 C   0  0  0  0  0  3  0  0  0  0  0  0
  185.7210  178.2790  143.7000 C   0  0  0  0  0  0  0  0  0  0  0  0
  183.4000  179.0050  145.1070 C   0  0  0  0  0  3  0  0  0  0  0  0
  188.3380  177.0700  144.8320 C   0  0  0  0  0  3  0  0  0  0  0  0
  185.6480  178.6280  140.8700 C   0  0  0  0  0  0  0  0  0  0  0  0
  184.5450  178.6040  147.1560 F   0  0  0  0  0  0  0  0  0  0  0  0
  189.4270  178.4310  141.4290 C   0  0  0  0  0  2  0  0  0  0  0  0
  190.7500  177.1150  144.7440 C   0  0  0  0  0  3  0  0  0  0  0  0
  184.5520  178.7090  141.5700 N   0  0  0  0  0  0  0  0  0  0  0  0
  186.9800  178.6170  141.5780 C   0  0  2  0  0  3  0  0  0  0  0  0
  185.5950  178.7140  139.4420 N   0  0  0  0  0  2  0  0  0  0  0  0
  185.7000  178.2530  145.1020 C   0  0  0  0  0  3  0  0  0  0  0  0
  192.2180  177.9710  142.6310 Cl  0  0  0  0  0  0  0  0  0  0  0  0
  184.5540  178.6660  143.0060 C   0  0  0  0  0  0  0  0  0  0  0  0
  183.4010  179.0230  143.7100 C   0  0  0  0  0  3  0  0  0  0  0  0
  188.1230  178.1130  140.7130 C   0  0  0  0  0  2  0  0  0  0  0  0
  189.4570  177.8790  142.8340 C   0  0  0  0  0  0  0  0  0  0  0  0
  190.7000  177.6410  143.4530 C   0  0  0  0  0  0  0  0  0  0  0  0
  183.3190  179.5980  139.4410 C   0  0  0  0  0  1  0  0  0  0  0  0
  184.3450  178.7600  138.6960 C   0  0  2  0  0  3  0  0  0  0  0  0
  182.9720  176.8990  139.2800 O   0  0  0  0  0  0  0  0  0  0  0  0
  183.7910  175.2290  137.1780 C   0  0  0  0  0  1  0  0  0  0  0  0
  184.3010  176.5770  137.3830 N   0  0  0  0  0  0  0  0  0  0  0  0
  183.8270  177.3720  138.4810 C   0  0  0  0  0  0  0  0  0  0  0  0
  185.2760  177.1000  136.4350 C   0  0  0  0  0  2  0  0  0  0  0  0
  186.5570  176.3440  136.5360 C   0  0  0  0  0  0  0  0  0  0  0  0
  187.2280  176.3800  137.5990 O   0  0  0  0  0  0  0  0  0  0  0  0
  187.0070  175.5550  135.4410 N   0  0  0  0  0  1  0  0  0  0  0  0
  1  9  1  0  0  0  0
  2  3  1  1  0  0  0
  2  5  1  0  0  0  0
  3  7  1  0  0  0  0
  5 15  1  0  0  0  0
  6  1  1  0  0  0  0
  7  4  2  0  0  0  0
  8 12  2  0  0  0  0
  8 13  1  0  0  0  0
 10 20  1  0  0  0  0
 11  4  1  0  0  0  0
 12 17  1  0  0  0  0
 13 19  1  6  0  0  0
 13  2  1  0  0  0  0
 14  8  1  0  0  0  0
 15  1  2  0  0  0  0
 16 21  1  0  0  0  0
 17  5  2  0  0  0  0
 17 18  1  0  0  0  0
 18  6  2  0  0  0  0
 19 10  1  0  0  0  0
 20 21  1  0  0  0  0
 20  3  2  0  0  0  0
 21 11  2  0  0  0  0
 23 22  1  1  0  0  0
 23 14  1  0  0  0  0
 25 26  1  0  0  0  0
 26 27  1  0  0  0  0
 27 23  1  0  0  0  0
 27 24  2  0  0  0  0
 28 29  1  0  0  0  0
 28 26  1  0  0  0  0
 29 30  2  0  0  0  0
 31 29  1  0  0  0  0
M  END
>  <MODEL>
7

>  <REMARK>
 VINA RESULT:      -8.6      3.683      5.760
  Name = 
  4 active torsions:
  status: ('A' for Active; 'I' for Inactive)
    1  A    between atoms: C_1  and  C_24
    2  A    between atoms: C_9  and  C_22
    3  A    between atoms: C_9  and  N_23
    4  A    between atoms: N_19  and  C_24
                            x       y       z     vdW  Elec       q    Type
                         _______ _______ _______ _____ _____    ______ ____

>  <TORSDO>
F 4

$$$$
=
 OpenBabel11052413143D

 31 34  0  0  1  0  0  0  0  0999 V2000
  183.4360  178.8800  144.2340 C   0  0  0  0  0  0  0  0  0  0  0  0
  186.8100  177.7760  142.7500 C   0  0  1  0  0  3  0  0  0  0  0  0
  187.7200  177.7280  143.9730 C   0  0  0  0  0  0  0  0  0  0  0  0
  188.0480  177.1390  146.3140 C   0  0  0  0  0  3  0  0  0  0  0  0
  185.4030  178.3300  142.9160 C   0  0  0  0  0  0  0  0  0  0  0  0
  182.7240  179.1600  143.0660 C   0  0  0  0  0  3  0  0  0  0  0  0
  187.2130  177.2990  145.2090 C   0  0  0  0  0  3  0  0  0  0  0  0
  186.5990  178.3690  140.3260 C   0  0  0  0  0  0  0  0  0  0  0  0
  182.8330  179.0050  145.4400 F   0  0  0  0  0  0  0  0  0  0  0  0
  189.7340  178.3030  142.5160 C   0  0  0  0  0  2  0  0  0  0  0  0
  189.4150  177.3790  146.1920 C   0  0  0  0  0  3  0  0  0  0  0  0
  185.3090  178.5040  140.4560 N   0  0  0  0  0  0  0  0  0  0  0  0
  187.4800  178.4590  141.5470 C   0  0  2  0  0  3  0  0  0  0  0  0
  187.1850  178.2990  139.0220 N   0  0  0  0  0  2  0  0  0  0  0  0
  184.7650  178.4550  144.1580 C   0  0  0  0  0  3  0  0  0  0  0  0
  191.6920  178.0280  144.8700 Cl  0  0  0  0  0  0  0  0  0  0  0  0
  184.6760  178.6180  141.7410 C   0  0  0  0  0  0  0  0  0  0  0  0
  183.3420  179.0270  141.8200 C   0  0  0  0  0  3  0  0  0  0  0  0
  188.8710  177.8850  141.3350 C   0  0  0  0  0  2  0  0  0  0  0  0
  189.1230  177.9080  143.8380 C   0  0  0  0  0  0  0  0  0  0  0  0
  189.9570  177.7610  144.9650 C   0  0  0  0  0  0  0  0  0  0  0  0
  185.4140  177.0810  137.8630 C   0  0  0  0  0  1  0  0  0  0  0  0
  186.3940  178.2400  137.7990 C   0  0  2  0  0  3  0  0  0  0  0  0
  187.1410  178.8570  135.6190 O   0  0  0  0  0  0  0  0  0  0  0  0
  189.2000  176.9590  135.4410 C   0  0  0  0  0  1  0  0  0  0  0  0
  188.3250  177.0920  136.5960 N   0  0  0  0  0  0  0  0  0  0  0  0
  187.2960  178.0950  136.6130 C   0  0  0  0  0  0  0  0  0  0  0  0
  188.5380  176.2070  137.7340 C   0  0  0  0  0  2  0  0  0  0  0  0
  189.9890  176.1280  138.0650 C   0  0  0  0  0  0  0  0  0  0  0  0
  190.6060  177.1580  138.4420 O   0  0  0  0  0  0  0  0  0  0  0  0
  190.6710  174.8830  137.9860 N   0  0  0  0  0  1  0  0  0  0  0  0
  1  9  1  0  0  0  0
  2  5  1  1  0  0  0
  2  3  1  0  0  0  0
  3  7  1  0  0  0  0
  5 15  2  0  0  0  0
  6  1  2  0  0  0  0
  7  4  2  0  0  0  0
  8 12  2  0  0  0  0
  8 13  1  0  0  0  0
 10 20  1  0  0  0  0
 11  4  1  0  0  0  0
 12 17  1  0  0  0  0
 13 19  1  6  0  0  0
 13  2  1  0  0  0  0
 14  8  1  0  0  0  0
 15  1  1  0  0  0  0
 16 21  1  0  0  0  0
 17 18  2  0  0  0  0
 17  5  1  0  0  0  0
 18  6  1  0  0  0  0
 19 10  1  0  0  0  0
 20  3  2  0  0  0  0
 20 21  1  0  0  0  0
 21 11  2  0  0  0  0
 23 22  1  1  0  0  0
 23 14  1  0  0  0  0
 24 27  2  0  0  0  0
 25 26  1  0  0  0  0
 26 27  1  0  0  0  0
 26 28  1  0  0  0  0
 27 23  1  0  0  0  0
 28 29  1  0  0  0  0
 29 30  2  0  0  0  0
 31 29  1  0  0  0  0
M  END
>  <MODEL>
8

>  <REMARK>
 VINA RESULT:      -8.4      2.974      4.846
  Name = 
  4 active torsions:
  status: ('A' for Active; 'I' for Inactive)
    1  A    between atoms: C_1  and  C_24
    2  A    between atoms: C_9  and  C_22
    3  A    between atoms: C_9  and  N_23
    4  A    between atoms: N_19  and  C_24
                            x       y       z     vdW  Elec       q    Type
                         _______ _______ _______ _____ _____    ______ ____

>  <TORSDO>
F 4

$$$$
=
 OpenBabel11052413143D

 31 34  0  0  1  0  0  0  0  0999 V2000
  184.8890  178.8840  140.3070 C   0  0  0  0  0  0  0  0  0  0  0  0
  188.6320  178.2250  139.7040 C   0  0  1  0  0  3  0  0  0  0  0  0
  188.6770  177.8500  138.2270 C   0  0  0  0  0  0  0  0  0  0  0  0
  187.9200  178.2410  135.9440 C   0  0  0  0  0  3  0  0  0  0  0  0
  187.2740  178.4120  140.3620 C   0  0  0  0  0  0  0  0  0  0  0  0
  184.8660  178.9620  141.7010 C   0  0  0  0  0  3  0  0  0  0  0  0
  187.8220  178.4850  137.3140 C   0  0  0  0  0  3  0  0  0  0  0  0
  189.5180  177.7730  142.0020 C   0  0  0  0  0  0  0  0  0  0  0  0
  183.7510  179.0780  139.5990 F   0  0  0  0  0  0  0  0  0  0  0  0
  190.7080  176.3640  138.6510 C   0  0  0  0  0  2  0  0  0  0  0  0
  188.9000  177.3770  135.4610 C   0  0  0  0  0  3  0  0  0  0  0  0
  188.4370  178.2710  142.5330 N   0  0  0  0  0  0  0  0  0  0  0  0
  189.4870  177.2900  140.5730 C   0  0  2  0  0  3  0  0  0  0  0  0
  190.6740  177.5380  142.8140 N   0  0  0  0  0  2  0  0  0  0  0  0
  186.0900  178.6230  139.6410 C   0  0  0  0  0  3  0  0  0  0  0  0
  191.0240  175.7030  135.6660 Cl  0  0  0  0  0  0  0  0  0  0  0  0
  187.2400  178.4900  141.7710 C   0  0  0  0  0  0  0  0  0  0  0  0
  186.0410  178.7680  142.4320 C   0  0  0  0  0  3  0  0  0  0  0  0
  190.8660  177.1270  139.9570 C   0  0  0  0  0  2  0  0  0  0  0  0
  189.7160  177.0200  137.7220 C   0  0  0  0  0  0  0  0  0  0  0  0
  189.7960  176.7660  136.3380 C   0  0  0  0  0  0  0  0  0  0  0  0
  191.6350  179.1860  144.3380 C   0  0  0  0  0  1  0  0  0  0  0  0
  190.7600  177.9500  144.2090 C   0  0  2  0  0  3  0  0  0  0  0  0
  192.0470  175.9620  144.4960 O   0  0  0  0  0  0  0  0  0  0  0  0
  191.5430  175.6520  147.2390 C   0  0  0  0  0  1  0  0  0  0  0  0
  191.0010  176.7390  146.4380 N   0  0  0  0  0  0  0  0  0  0  0  0
  191.3120  176.8320  145.0390 C   0  0  0  0  0  0  0  0  0  0  0  0
  190.1670  177.7360  147.0970 C   0  0  0  0  0  2  0  0  0  0  0  0
  188.7490  177.2790  147.1410 C   0  0  0  0  0  0  0  0  0  0  0  0
  188.3040  176.7070  148.1690 O   0  0  0  0  0  0  0  0  0  0  0  0
  187.8880  177.5180  146.0350 N   0  0  0  0  0  1  0  0  0  0  0  0
  1  6  1  0  0  0  0
  2  3  1  6  0  0  0
  2  5  1  0  0  0  0
  2 13  1  0  0  0  0
  4  7  1  0  0  0  0
  5 17  2  0  0  0  0
  6 18  2  0  0  0  0
  7  3  2  0  0  0  0
  8 12  2  0  0  0  0
  8 14  1  0  0  0  0
  9  1  1  0  0  0  0
 10 19  1  0  0  0  0
 11  4  2  0  0  0  0
 11 21  1  0  0  0  0
 13 19  1  6  0  0  0
 13  8  1  0  0  0  0
 14 23  1  0  0  0  0
 15  1  2  0  0  0  0
 15  5  1  0  0  0  0
 16 21  1  0  0  0  0
 17 18  1  0  0  0  0
 17 12  1  0  0  0  0
 20  3  1  0  0  0  0
 20 10  1  0  0  0  0
 21 20  2  0  0  0  0
 23 22  1  6  0  0  0
 23 27  1  0  0  0  0
 24 27  2  0  0  0  0
 26 28  1  0  0  0  0
 26 25  1  0  0  0  0
 27 26  1  0  0  0  0
 28 29  1  0  0  0  0
 29 30  2  0  0  0  0
 31 29  1  0  0  0  0
M  END
>  <MODEL>
9

>  <REMARK>
 VINA RESULT:      -8.4      4.262      7.988
  Name = 
  4 active torsions:
  status: ('A' for Active; 'I' for Inactive)
    1  A    between atoms: C_1  and  C_24
    2  A    between atoms: C_9  and  C_22
    3  A    between atoms: C_9  and  N_23
    4  A    between atoms: N_19  and  C_24
                            x       y       z     vdW  Elec       q    Type
                         _______ _______ _______ _____ _____    ______ ____

>  <TORSDO>
F 4

$$$$
