=
 OpenBabel11052413473D

 27 29  0  0  1  0  0  0  0  0999 V2000
  187.3470  176.0940  143.7010 C   0  0  0  0  0  1  0  0  0  0  0  0
  188.0430  177.3970  144.1340 C   0  0  2  0  0  0  0  0  0  0  0  0
  191.5730  178.4490  143.0380 C   0  0  0  0  0  3  0  0  0  0  0  0
  191.8640  177.4910  142.0660 C   0  0  0  0  0  3  0  0  0  0  0  0
  189.3990  177.4100  143.4320 C   0  0  0  0  0  0  0  0  0  0  0  0
  190.0910  179.3880  144.6290 F   0  0  0  0  0  0  0  0  0  0  0  0
  190.9280  176.5040  141.7580 C   0  0  0  0  0  3  0  0  0  0  0  0
  189.7050  176.4690  142.4300 C   0  0  0  0  0  3  0  0  0  0  0  0
  190.3490  178.4190  143.7140 C   0  0  0  0  0  0  0  0  0  0  0  0
  188.5700  177.6810  148.4350 C   0  0  0  0  0  3  0  0  0  0  0  0
  188.2230  177.4550  145.6540 C   0  0  0  0  0  0  0  0  0  0  0  0
  187.2680  178.1160  146.4430 C   0  0  0  0  0  3  0  0  0  0  0  0
  187.4360  178.2230  147.8260 C   0  0  0  0  0  3  0  0  0  0  0  0
  189.5380  177.0360  147.6620 C   0  0  0  0  0  3  0  0  0  0  0  0
  189.3690  176.9290  146.2780 C   0  0  0  0  0  3  0  0  0  0  0  0
  187.3090  178.5290  143.6840 O   0  0  0  0  0  0  0  0  0  0  0  0
  186.5040  178.1910  142.5780 C   0  0  0  0  0  2  0  0  0  0  0  0
  183.3800  178.8500  144.5930 C   0  0  0  0  0  3  0  0  0  0  0  0
  181.1240  179.2290  143.9490 F   0  0  0  0  0  0  0  0  0  0  0  0
  182.7620  178.8490  142.2510 C   0  0  0  0  0  0  0  0  0  0  0  0
  181.7840  178.9790  141.2700 O   0  0  0  0  0  1  0  0  0  0  0  0
  184.0980  178.5930  141.8940 C   0  0  0  0  0  0  0  0  0  0  0  0
  182.4090  178.9780  143.5990 C   0  0  0  0  0  0  0  0  0  0  0  0
  185.0710  178.4490  142.9050 C   0  0  0  0  0  0  0  0  0  0  0  0
  184.7070  178.5880  144.2470 C   0  0  0  0  0  3  0  0  0  0  0  0
  184.7750  179.6900  139.9090 O   0  0  0  0  0  1  0  0  0  0  0  0
  184.4650  178.4430  140.4500 C   0  0  0  0  0  2  0  0  0  0  0  0
  2  1  1  6  0  0  0
  2 11  1  0  0  0  0
  3  9  1  0  0  0  0
  4  3  2  0  0  0  0
  5  9  2  0  0  0  0
  5  2  1  0  0  0  0
  7  4  1  0  0  0  0
  7  8  2  0  0  0  0
  8  5  1  0  0  0  0
  9  6  1  0  0  0  0
 11 15  2  0  0  0  0
 11 12  1  0  0  0  0
 12 13  2  0  0  0  0
 13 10  1  0  0  0  0
 14 10  2  0  0  0  0
 15 14  1  0  0  0  0
 16  2  1  0  0  0  0
 17 24  1  0  0  0  0
 17 16  1  0  0  0  0
 20 23  1  0  0  0  0
 21 20  1  0  0  0  0
 22 20  2  0  0  0  0
 22 24  1  0  0  0  0
 23 19  1  0  0  0  0
 23 18  2  0  0  0  0
 24 25  2  0  0  0  0
 25 18  1  0  0  0  0
 26 27  1  0  0  0  0
 27 22  1  0  0  0  0
M  END
>  <MODEL>
1

>  <REMARK>
 VINA RESULT:      -8.6      0.000      0.000
  Name = 
  6 active torsions:
  status: ('A' for Active; 'I' for Inactive)
    1  A    between atoms: O_2  and  C_6
    2  A    between atoms: O_2  and  C_15
    3  A    between atoms: C_6  and  C_17
    4  A    between atoms: C_9  and  C_15
    5  A    between atoms: C_14  and  C_19
    6  A    between atoms: C_15  and  C_18
                            x       y       z     vdW  Elec       q    Type
                         _______ _______ _______ _____ _____    ______ ____

>  <TORSDO>
F 6

$$$$
=
 OpenBabel11052413473D

 27 29  0  0  1  0  0  0  0  0999 V2000
  190.0090  178.8900  144.1190 C   0  0  0  0  0  1  0  0  0  0  0  0
  189.9870  177.4200  143.6630 C   0  0  2  0  0  0  0  0  0  0  0  0
  192.1220  174.6460  145.2470 C   0  0  0  0  0  3  0  0  0  0  0  0
  192.4440  175.2070  146.4830 C   0  0  0  0  0  3  0  0  0  0  0  0
  190.8790  176.6570  144.6390 C   0  0  0  0  0  0  0  0  0  0  0  0
  191.0220  174.7610  143.1520 F   0  0  0  0  0  0  0  0  0  0  0  0
  191.9760  176.4790  146.8130 C   0  0  0  0  0  3  0  0  0  0  0  0
  191.1950  177.1930  145.9020 C   0  0  0  0  0  3  0  0  0  0  0  0
  191.3400  175.3560  144.3310 C   0  0  0  0  0  0  0  0  0  0  0  0
  191.4790  177.1230  139.5950 C   0  0  0  0  0  3  0  0  0  0  0  0
  190.5080  177.2720  142.2300 C   0  0  0  0  0  0  0  0  0  0  0  0
  191.8460  177.5860  141.9410 C   0  0  0  0  0  3  0  0  0  0  0  0
  192.3310  177.5060  140.6330 C   0  0  0  0  0  3  0  0  0  0  0  0
  190.1400  176.8250  139.8640 C   0  0  0  0  0  3  0  0  0  0  0  0
  189.6560  176.9050  141.1720 C   0  0  0  0  0  3  0  0  0  0  0  0
  188.6730  176.8850  143.7630 O   0  0  0  0  0  0  0  0  0  0  0  0
  187.9630  177.5070  144.8110 C   0  0  0  0  0  2  0  0  0  0  0  0
  185.1270  178.2950  142.4470 C   0  0  0  0  0  3  0  0  0  0  0  0
  182.9010  179.0380  142.8270 F   0  0  0  0  0  0  0  0  0  0  0  0
  184.3370  178.6810  144.7040 C   0  0  0  0  0  0  0  0  0  0  0  0
  183.3140  179.0630  145.5670 O   0  0  0  0  0  1  0  0  0  0  0  0
  185.5910  178.3000  145.2130 C   0  0  0  0  0  0  0  0  0  0  0  0
  184.1090  178.6760  143.3230 C   0  0  0  0  0  0  0  0  0  0  0  0
  186.6190  177.9330  144.3210 C   0  0  0  0  0  0  0  0  0  0  0  0
  186.3770  177.9230  142.9440 C   0  0  0  0  0  3  0  0  0  0  0  0
  185.8080  179.6400  147.1520 O   0  0  0  0  0  1  0  0  0  0  0  0
  185.8310  178.3230  146.6910 C   0  0  0  0  0  2  0  0  0  0  0  0
  2 16  1  0  0  0  0
  2  1  1  1  0  0  0
  2  5  1  0  0  0  0
  3  4  1  0  0  0  0
  4  7  2  0  0  0  0
  5  8  2  0  0  0  0
  6  9  1  0  0  0  0
  8  7  1  0  0  0  0
  9  5  1  0  0  0  0
  9  3  2  0  0  0  0
 10 14  2  0  0  0  0
 10 13  1  0  0  0  0
 11  2  1  0  0  0  0
 12 11  1  0  0  0  0
 13 12  2  0  0  0  0
 14 15  1  0  0  0  0
 15 11  2  0  0  0  0
 16 17  1  0  0  0  0
 18 25  2  0  0  0  0
 18 23  1  0  0  0  0
 19 23  1  0  0  0  0
 20 22  1  0  0  0  0
 20 21  1  0  0  0  0
 22 27  1  0  0  0  0
 23 20  2  0  0  0  0
 24 17  1  0  0  0  0
 24 22  2  0  0  0  0
 25 24  1  0  0  0  0
 27 26  1  0  0  0  0
M  END
>  <MODEL>
2

>  <REMARK>
 VINA RESULT:      -8.1      2.291      4.822
  Name = 
  6 active torsions:
  status: ('A' for Active; 'I' for Inactive)
    1  A    between atoms: O_2  and  C_6
    2  A    between atoms: O_2  and  C_15
    3  A    between atoms: C_6  and  C_17
    4  A    between atoms: C_9  and  C_15
    5  A    between atoms: C_14  and  C_19
    6  A    between atoms: C_15  and  C_18
                            x       y       z     vdW  Elec       q    Type
                         _______ _______ _______ _____ _____    ______ ____

>  <TORSDO>
F 6

$$$$
=
 OpenBabel11052413473D

 27 29  0  0  1  0  0  0  0  0999 V2000
  187.5790  176.0630  143.6450 C   0  0  0  0  0  1  0  0  0  0  0  0
  187.4720  177.5390  144.0690 C   0  0  2  0  0  0  0  0  0  0  0  0
  189.7580  177.2040  147.1390 C   0  0  0  0  0  3  0  0  0  0  0  0
  188.9240  177.6510  148.1630 C   0  0  0  0  0  3  0  0  0  0  0  0
  187.9940  177.6110  145.5020 C   0  0  0  0  0  0  0  0  0  0  0  0
  190.1330  176.7020  144.8550 F   0  0  0  0  0  0  0  0  0  0  0  0
  187.6220  178.0610  147.8720 C   0  0  0  0  0  3  0  0  0  0  0  0
  187.1610  178.0340  146.5560 C   0  0  0  0  0  3  0  0  0  0  0  0
  189.3010  177.1740  145.8180 C   0  0  0  0  0  0  0  0  0  0  0  0
  183.4060  179.0410  143.7990 C   0  0  0  0  0  3  0  0  0  0  0  0
  186.0250  178.0360  143.9980 C   0  0  0  0  0  0  0  0  0  0  0  0
  185.3470  178.0300  142.7670 C   0  0  0  0  0  3  0  0  0  0  0  0
  184.0440  178.5230  142.6700 C   0  0  0  0  0  3  0  0  0  0  0  0
  184.0730  179.0700  145.0260 C   0  0  0  0  0  3  0  0  0  0  0  0
  185.3770  178.5770  145.1230 C   0  0  0  0  0  3  0  0  0  0  0  0
  188.3100  178.3540  143.2580 O   0  0  0  0  0  0  0  0  0  0  0  0
  188.1310  178.0460  141.8940 C   0  0  0  0  0  2  0  0  0  0  0  0
  191.8490  177.4990  141.5310 C   0  0  0  0  0  3  0  0  0  0  0  0
  193.2060  177.0020  139.6440 F   0  0  0  0  0  0  0  0  0  0  0  0
  190.8500  177.2620  139.3370 C   0  0  0  0  0  0  0  0  0  0  0  0
  190.9930  177.0150  137.9760 O   0  0  0  0  0  1  0  0  0  0  0  0
  189.5800  177.5180  139.8840 C   0  0  0  0  0  0  0  0  0  0  0  0
  191.9800  177.2520  140.1640 C   0  0  0  0  0  0  0  0  0  0  0  0
  189.4580  177.7830  141.2630 C   0  0  0  0  0  0  0  0  0  0  0  0
  190.5930  177.7620  142.0790 C   0  0  0  0  0  3  0  0  0  0  0  0
  188.2240  178.8140  138.4400 O   0  0  0  0  0  1  0  0  0  0  0  0
  188.3780  177.5410  138.9900 C   0  0  0  0  0  2  0  0  0  0  0  0
  2  1  1  6  0  0  0
  2  5  1  0  0  0  0
  3  4  1  0  0  0  0
  5  9  1  0  0  0  0
  5  8  2  0  0  0  0
  6  9  1  0  0  0  0
  7  4  2  0  0  0  0
  8  7  1  0  0  0  0
  9  3  2  0  0  0  0
 10 14  1  0  0  0  0
 11  2  1  0  0  0  0
 11 15  1  0  0  0  0
 12 11  2  0  0  0  0
 13 12  1  0  0  0  0
 13 10  2  0  0  0  0
 14 15  2  0  0  0  0
 16  2  1  0  0  0  0
 17 16  1  0  0  0  0
 18 25  1  0  0  0  0
 19 23  1  0  0  0  0
 20 22  2  0  0  0  0
 20 23  1  0  0  0  0
 21 20  1  0  0  0  0
 22 24  1  0  0  0  0
 23 18  2  0  0  0  0
 24 17  1  0  0  0  0
 24 25  2  0  0  0  0
 26 27  1  0  0  0  0
 27 22  1  0  0  0  0
M  END
>  <MODEL>
3

>  <REMARK>
 VINA RESULT:      -7.9      2.623      6.114
  Name = 
  6 active torsions:
  status: ('A' for Active; 'I' for Inactive)
    1  A    between atoms: O_2  and  C_6
    2  A    between atoms: O_2  and  C_15
    3  A    between atoms: C_6  and  C_17
    4  A    between atoms: C_9  and  C_15
    5  A    between atoms: C_14  and  C_19
    6  A    between atoms: C_15  and  C_18
                            x       y       z     vdW  Elec       q    Type
                         _______ _______ _______ _____ _____    ______ ____

>  <TORSDO>
F 6

$$$$
=
 OpenBabel11052413473D

 27 29  0  0  1  0  0  0  0  0999 V2000
  188.7420  179.3150  141.5450 C   0  0  0  0  0  1  0  0  0  0  0  0
  189.0640  177.8150  141.6770 C   0  0  2  0  0  0  0  0  0  0  0  0
  191.2520  176.3280  144.4630 C   0  0  0  0  0  3  0  0  0  0  0  0
  191.8290  177.4740  145.0120 C   0  0  0  0  0  3  0  0  0  0  0  0
  190.0620  177.6920  142.8260 C   0  0  0  0  0  0  0  0  0  0  0  0
  189.8050  175.2940  142.9000 F   0  0  0  0  0  0  0  0  0  0  0  0
  191.5160  178.7290  144.4900 C   0  0  0  0  0  3  0  0  0  0  0  0
  190.6360  178.8370  143.4130 C   0  0  0  0  0  3  0  0  0  0  0  0
  190.3690  176.4300  143.3840 C   0  0  0  0  0  0  0  0  0  0  0  0
  190.8120  176.3430  137.9840 C   0  0  0  0  0  3  0  0  0  0  0  0
  189.6630  177.2570  140.3820 C   0  0  0  0  0  0  0  0  0  0  0  0
  191.0570  177.1400  140.2550 C   0  0  0  0  0  3  0  0  0  0  0  0
  191.6280  176.6800  139.0660 C   0  0  0  0  0  3  0  0  0  0  0  0
  189.4240  176.4710  138.0890 C   0  0  0  0  0  3  0  0  0  0  0  0
  188.8540  176.9320  139.2790 C   0  0  0  0  0  3  0  0  0  0  0  0
  187.8970  177.0830  142.0320 O   0  0  0  0  0  0  0  0  0  0  0  0
  186.7760  177.9350  142.0910 C   0  0  0  0  0  2  0  0  0  0  0  0
  186.6520  177.5400  145.8440 C   0  0  0  0  0  3  0  0  0  0  0  0
  185.0410  178.2060  147.4600 F   0  0  0  0  0  0  0  0  0  0  0  0
  184.6400  178.7000  145.1560 C   0  0  0  0  0  0  0  0  0  0  0  0
  183.4320  179.3050  145.4900 O   0  0  0  0  0  1  0  0  0  0  0  0
  185.0600  178.6430  143.8150 C   0  0  0  0  0  0  0  0  0  0  0  0
  185.4380  178.1500  146.1660 C   0  0  0  0  0  0  0  0  0  0  0  0
  186.2790  178.0100  143.4970 C   0  0  0  0  0  0  0  0  0  0  0  0
  187.0720  177.4720  144.5150 C   0  0  0  0  0  3  0  0  0  0  0  0
  183.2790  178.2610  142.3040 O   0  0  0  0  0  1  0  0  0  0  0  0
  184.1920  179.2210  142.7400 C   0  0  0  0  0  2  0  0  0  0  0  0
  2  1  1  6  0  0  0
  2 16  1  0  0  0  0
  2  5  1  0  0  0  0
  3  4  1  0  0  0  0
  5  9  1  0  0  0  0
  5  8  2  0  0  0  0
  6  9  1  0  0  0  0
  7  4  2  0  0  0  0
  8  7  1  0  0  0  0
  9  3  2  0  0  0  0
 10 14  2  0  0  0  0
 10 13  1  0  0  0  0
 11  2  1  0  0  0  0
 12 11  1  0  0  0  0
 13 12  2  0  0  0  0
 14 15  1  0  0  0  0
 15 11  2  0  0  0  0
 16 17  1  0  0  0  0
 17 24  1  0  0  0  0
 18 23  1  0  0  0  0
 20 21  1  0  0  0  0
 20 23  2  0  0  0  0
 22 20  1  0  0  0  0
 23 19  1  0  0  0  0
 24 22  2  0  0  0  0
 24 25  1  0  0  0  0
 25 18  2  0  0  0  0
 26 27  1  0  0  0  0
 27 22  1  0  0  0  0
M  END
>  <MODEL>
4

>  <REMARK>
 VINA RESULT:      -7.8      2.479      4.902
  Name = 
  6 active torsions:
  status: ('A' for Active; 'I' for Inactive)
    1  A    between atoms: O_2  and  C_6
    2  A    between atoms: O_2  and  C_15
    3  A    between atoms: C_6  and  C_17
    4  A    between atoms: C_9  and  C_15
    5  A    between atoms: C_14  and  C_19
    6  A    between atoms: C_15  and  C_18
                            x       y       z     vdW  Elec       q    Type
                         _______ _______ _______ _____ _____    ______ ____

>  <TORSDO>
F 6

$$$$
=
 OpenBabel11052413473D

 27 29  0  0  1  0  0  0  0  0999 V2000
  189.7840  178.9130  143.0780 C   0  0  0  0  0  1  0  0  0  0  0  0
  189.8410  177.4060  142.7690 C   0  0  2  0  0  0  0  0  0  0  0  0
  191.4290  176.8180  146.2190 C   0  0  0  0  0  3  0  0  0  0  0  0
  192.1330  175.6320  146.0080 C   0  0  0  0  0  3  0  0  0  0  0  0
  190.6180  176.7650  143.9170 C   0  0  0  0  0  0  0  0  0  0  0  0
  190.0380  178.5610  145.4200 F   0  0  0  0  0  0  0  0  0  0  0  0
  192.1010  175.0160  144.7570 C   0  0  0  0  0  3  0  0  0  0  0  0
  191.3570  175.5820  143.7200 C   0  0  0  0  0  3  0  0  0  0  0  0
  190.6820  177.3890  145.1840 C   0  0  0  0  0  0  0  0  0  0  0  0
  191.8240  176.7640  138.9590 C   0  0  0  0  0  3  0  0  0  0  0  0
  190.5380  177.1370  141.4320 C   0  0  0  0  0  0  0  0  0  0  0  0
  191.8770  177.5250  141.2550 C   0  0  0  0  0  3  0  0  0  0  0  0
  192.5180  177.3340  140.0280 C   0  0  0  0  0  3  0  0  0  0  0  0
  190.4870  176.3890  139.1140 C   0  0  0  0  0  3  0  0  0  0  0  0
  189.8460  176.5810  140.3410 C   0  0  0  0  0  3  0  0  0  0  0  0
  188.5340  176.8470  142.7610 O   0  0  0  0  0  0  0  0  0  0  0  0
  187.5640  177.8560  142.5970 C   0  0  0  0  0  2  0  0  0  0  0  0
  186.4770  177.4820  146.1930 C   0  0  0  0  0  3  0  0  0  0  0  0
  184.5270  178.2000  147.3470 F   0  0  0  0  0  0  0  0  0  0  0  0
  184.7400  178.6940  145.0180 C   0  0  0  0  0  0  0  0  0  0  0  0
  183.5040  179.3330  145.0340 O   0  0  0  0  0  1  0  0  0  0  0  0
  185.4860  178.6180  143.8280 C   0  0  0  0  0  0  0  0  0  0  0  0
  185.2390  178.1270  146.1960 C   0  0  0  0  0  0  0  0  0  0  0  0
  186.7280  177.9510  143.8290 C   0  0  0  0  0  0  0  0  0  0  0  0
  187.2190  177.3960  145.0140 C   0  0  0  0  0  3  0  0  0  0  0  0
  184.1310  178.2810  141.9170 O   0  0  0  0  0  1  0  0  0  0  0  0
  184.9370  179.2150  142.5690 C   0  0  0  0  0  2  0  0  0  0  0  0
  2  1  1  1  0  0  0
  2  5  1  0  0  0  0
  4  3  1  0  0  0  0
  5  9  1  0  0  0  0
  7  4  2  0  0  0  0
  8  5  2  0  0  0  0
  8  7  1  0  0  0  0
  9  6  1  0  0  0  0
  9  3  2  0  0  0  0
 10 14  2  0  0  0  0
 10 13  1  0  0  0  0
 11  2  1  0  0  0  0
 12 11  1  0  0  0  0
 13 12  2  0  0  0  0
 14 15  1  0  0  0  0
 15 11  2  0  0  0  0
 16  2  1  0  0  0  0
 17 16  1  0  0  0  0
 17 24  1  0  0  0  0
 18 23  1  0  0  0  0
 20 21  1  0  0  0  0
 20 23  2  0  0  0  0
 22 24  2  0  0  0  0
 22 20  1  0  0  0  0
 23 19  1  0  0  0  0
 24 25  1  0  0  0  0
 25 18  2  0  0  0  0
 26 27  1  0  0  0  0
 27 22  1  0  0  0  0
M  END
>  <MODEL>
5

>  <REMARK>
 VINA RESULT:      -7.5      2.184      4.573
  Name = 
  6 active torsions:
  status: ('A' for Active; 'I' for Inactive)
    1  A    between atoms: O_2  and  C_6
    2  A    between atoms: O_2  and  C_15
    3  A    between atoms: C_6  and  C_17
    4  A    between atoms: C_9  and  C_15
    5  A    between atoms: C_14  and  C_19
    6  A    between atoms: C_15  and  C_18
                            x       y       z     vdW  Elec       q    Type
                         _______ _______ _______ _____ _____    ______ ____

>  <TORSDO>
F 6

$$$$
=
 OpenBabel11052413473D

 27 29  0  0  1  0  0  0  0  0999 V2000
  188.5190  175.7700  143.0650 C   0  0  0  0  0  1  0  0  0  0  0  0
  189.2510  177.0850  143.3880 C   0  0  2  0  0  0  0  0  0  0  0  0
  190.9060  177.2340  139.9230 C   0  0  0  0  0  3  0  0  0  0  0  0
  192.2280  177.5340  140.2530 C   0  0  0  0  0  3  0  0  0  0  0  0
  190.2890  177.2770  142.2850 C   0  0  0  0  0  0  0  0  0  0  0  0
  188.6730  176.7720  140.5650 F   0  0  0  0  0  0  0  0  0  0  0  0
  192.5930  177.6900  141.5910 C   0  0  0  0  0  3  0  0  0  0  0  0
  191.6340  177.5550  142.5960 C   0  0  0  0  0  3  0  0  0  0  0  0
  189.9410  177.0970  140.9260 C   0  0  0  0  0  0  0  0  0  0  0  0
  191.1630  176.7900  147.2760 C   0  0  0  0  0  3  0  0  0  0  0  0
  189.9290  177.0240  144.7600 C   0  0  0  0  0  0  0  0  0  0  0  0
  191.1920  176.4210  144.8850 C   0  0  0  0  0  3  0  0  0  0  0  0
  191.8080  176.3110  146.1340 C   0  0  0  0  0  3  0  0  0  0  0  0
  189.8990  177.3760  147.1700 C   0  0  0  0  0  3  0  0  0  0  0  0
  189.2830  177.4860  145.9210 C   0  0  0  0  0  3  0  0  0  0  0  0
  188.3500  178.1850  143.3350 O   0  0  0  0  0  0  0  0  0  0  0  0
  187.2300  177.8710  142.5390 C   0  0  0  0  0  2  0  0  0  0  0  0
  184.8900  178.6280  145.4030 C   0  0  0  0  0  3  0  0  0  0  0  0
  182.5830  179.1990  145.4630 F   0  0  0  0  0  0  0  0  0  0  0  0
  183.6230  178.8050  143.3460 C   0  0  0  0  0  0  0  0  0  0  0  0
  182.4170  179.0590  142.7000 O   0  0  0  0  0  1  0  0  0  0  0  0
  184.7720  178.4780  142.6050 C   0  0  0  0  0  0  0  0  0  0  0  0
  183.6860  178.8800  144.7430 C   0  0  0  0  0  0  0  0  0  0  0  0
  185.9800  178.2080  143.2810 C   0  0  0  0  0  0  0  0  0  0  0  0
  186.0330  178.2940  144.6750 C   0  0  0  0  0  3  0  0  0  0  0  0
  185.0470  179.6090  140.5450 O   0  0  0  0  0  1  0  0  0  0  0  0
  184.6910  178.3860  141.1130 C   0  0  0  0  0  2  0  0  0  0  0  0
  2  1  1  6  0  0  0
  2 11  1  0  0  0  0
  3  4  2  0  0  0  0
  3  9  1  0  0  0  0
  4  7  1  0  0  0  0
  5  8  1  0  0  0  0
  5  2  1  0  0  0  0
  6  9  1  0  0  0  0
  7  8  2  0  0  0  0
  9  5  2  0  0  0  0
 11 12  2  0  0  0  0
 11 15  1  0  0  0  0
 12 13  1  0  0  0  0
 13 10  2  0  0  0  0
 14 10  1  0  0  0  0
 15 14  2  0  0  0  0
 16  2  1  0  0  0  0
 17 24  1  0  0  0  0
 17 16  1  0  0  0  0
 20 23  2  0  0  0  0
 21 20  1  0  0  0  0
 22 24  2  0  0  0  0
 22 20  1  0  0  0  0
 23 18  1  0  0  0  0
 23 19  1  0  0  0  0
 24 25  1  0  0  0  0
 25 18  2  0  0  0  0
 26 27  1  0  0  0  0
 27 22  1  0  0  0  0
M  END
>  <MODEL>
6

>  <REMARK>
 VINA RESULT:      -7.4      1.639      2.334
  Name = 
  6 active torsions:
  status: ('A' for Active; 'I' for Inactive)
    1  A    between atoms: O_2  and  C_6
    2  A    between atoms: O_2  and  C_15
    3  A    between atoms: C_6  and  C_17
    4  A    between atoms: C_9  and  C_15
    5  A    between atoms: C_14  and  C_19
    6  A    between atoms: C_15  and  C_18
                            x       y       z     vdW  Elec       q    Type
                         _______ _______ _______ _____ _____    ______ ____

>  <TORSDO>
F 6

$$$$
=
 OpenBabel11052413473D

 27 29  0  0  1  0  0  0  0  0999 V2000
  190.7230  179.0270  143.7590 C   0  0  0  0  0  1  0  0  0  0  0  0
  190.2280  177.5720  143.8580 C   0  0  2  0  0  0  0  0  0  0  0  0
  186.5130  178.1570  143.0690 C   0  0  0  0  0  3  0  0  0  0  0  0
  185.9160  177.8790  144.2980 C   0  0  0  0  0  3  0  0  0  0  0  0
  188.7100  177.6460  144.0030 C   0  0  0  0  0  0  0  0  0  0  0  0
  188.4450  178.3620  141.7130 F   0  0  0  0  0  0  0  0  0  0  0  0
  186.7040  177.5030  145.3860 C   0  0  0  0  0  3  0  0  0  0  0  0
  188.0880  177.3950  145.2410 C   0  0  0  0  0  3  0  0  0  0  0  0
  187.9000  178.0510  142.9170 C   0  0  0  0  0  0  0  0  0  0  0  0
  192.0600  175.6280  147.2820 C   0  0  0  0  0  3  0  0  0  0  0  0
  190.8490  176.8530  145.0590 C   0  0  0  0  0  0  0  0  0  0  0  0
  190.6550  177.3650  146.3530 C   0  0  0  0  0  3  0  0  0  0  0  0
  191.2510  176.7520  147.4580 C   0  0  0  0  0  3  0  0  0  0  0  0
  192.2770  175.1180  145.9990 C   0  0  0  0  0  3  0  0  0  0  0  0
  191.6810  175.7300  144.8940 C   0  0  0  0  0  3  0  0  0  0  0  0
  190.5180  176.8640  142.6590 O   0  0  0  0  0  0  0  0  0  0  0  0
  191.5260  177.5210  141.9260 C   0  0  0  0  0  2  0  0  0  0  0  0
  190.0780  176.3960  138.6260 C   0  0  0  0  0  3  0  0  0  0  0  0
  191.0690  176.0300  136.4970 F   0  0  0  0  0  0  0  0  0  0  0  0
  192.4530  176.7530  138.3080 C   0  0  0  0  0  0  0  0  0  0  0  0
  193.5640  176.7420  137.4710 O   0  0  0  0  0  1  0  0  0  0  0  0
  192.5810  177.1280  139.6560 C   0  0  0  0  0  0  0  0  0  0  0  0
  191.2010  176.3900  137.7970 C   0  0  0  0  0  0  0  0  0  0  0  0
  191.4450  177.1170  140.4910 C   0  0  0  0  0  0  0  0  0  0  0  0
  190.1990  176.7600  139.9680 C   0  0  0  0  0  3  0  0  0  0  0  0
  194.7540  176.3790  140.2190 O   0  0  0  0  0  1  0  0  0  0  0  0
  193.9270  177.5010  140.1980 C   0  0  0  0  0  2  0  0  0  0  0  0
  2  1  1  6  0  0  0
  2  5  1  0  0  0  0
  2 11  1  0  0  0  0
  3  4  1  0  0  0  0
  4  7  2  0  0  0  0
  5  8  2  0  0  0  0
  6  9  1  0  0  0  0
  8  7  1  0  0  0  0
  9  3  2  0  0  0  0
  9  5  1  0  0  0  0
 10 13  1  0  0  0  0
 11 12  1  0  0  0  0
 12 13  2  0  0  0  0
 14 10  2  0  0  0  0
 15 11  2  0  0  0  0
 15 14  1  0  0  0  0
 16  2  1  0  0  0  0
 17 16  1  0  0  0  0
 18 25  1  0  0  0  0
 19 23  1  0  0  0  0
 20 22  2  0  0  0  0
 21 20  1  0  0  0  0
 22 27  1  0  0  0  0
 22 24  1  0  0  0  0
 23 20  1  0  0  0  0
 23 18  2  0  0  0  0
 24 17  1  0  0  0  0
 25 24  2  0  0  0  0
 27 26  1  0  0  0  0
M  END
>  <MODEL>
7

>  <REMARK>
 VINA RESULT:      -7.4      3.673      6.919
  Name = 
  6 active torsions:
  status: ('A' for Active; 'I' for Inactive)
    1  A    between atoms: O_2  and  C_6
    2  A    between atoms: O_2  and  C_15
    3  A    between atoms: C_6  and  C_17
    4  A    between atoms: C_9  and  C_15
    5  A    between atoms: C_14  and  C_19
    6  A    between atoms: C_15  and  C_18
                            x       y       z     vdW  Elec       q    Type
                         _______ _______ _______ _____ _____    ______ ____

>  <TORSDO>
F 6

$$$$
=
 OpenBabel11052413473D

 27 29  0  0  1  0  0  0  0  0999 V2000
  191.4120  179.3780  143.9640 C   0  0  0  0  0  1  0  0  0  0  0  0
  190.4330  178.2080  143.7580 C   0  0  2  0  0  0  0  0  0  0  0  0
  191.5350  176.0790  146.7610 C   0  0  0  0  0  3  0  0  0  0  0  0
  192.0580  174.9490  146.1310 C   0  0  0  0  0  3  0  0  0  0  0  0
  190.9720  177.0490  144.5930 C   0  0  0  0  0  0  0  0  0  0  0  0
  190.5330  178.2230  146.6550 F   0  0  0  0  0  0  0  0  0  0  0  0
  192.0580  174.8670  144.7380 C   0  0  0  0  0  3  0  0  0  0  0  0
  191.5270  175.9100  143.9770 C   0  0  0  0  0  3  0  0  0  0  0  0
  191.0020  177.1270  146.0040 C   0  0  0  0  0  0  0  0  0  0  0  0
  190.2310  177.1850  139.5420 C   0  0  0  0  0  3  0  0  0  0  0  0
  190.3410  177.8110  142.2820 C   0  0  0  0  0  0  0  0  0  0  0  0
  191.5130  177.5090  141.5690 C   0  0  0  0  0  3  0  0  0  0  0  0
  191.4570  177.1920  140.2090 C   0  0  0  0  0  3  0  0  0  0  0  0
  189.0580  177.5000  140.2340 C   0  0  0  0  0  3  0  0  0  0  0  0
  189.1140  177.8170  141.5940 C   0  0  0  0  0  3  0  0  0  0  0  0
  189.1430  178.5420  144.2570 O   0  0  0  0  0  0  0  0  0  0  0  0
  188.2860  177.4240  144.2030 C   0  0  0  0  0  2  0  0  0  0  0  0
  184.7360  178.5920  143.6710 C   0  0  0  0  0  3  0  0  0  0  0  0
  182.9530  179.0040  145.1890 F   0  0  0  0  0  0  0  0  0  0  0  0
  185.0570  178.2640  146.0490 C   0  0  0  0  0  0  0  0  0  0  0  0
  184.5470  178.3000  147.3430 O   0  0  0  0  0  1  0  0  0  0  0  0
  186.3860  177.8660  145.8190 C   0  0  0  0  0  0  0  0  0  0  0  0
  184.2360  178.6240  144.9740 C   0  0  0  0  0  0  0  0  0  0  0  0
  186.8880  177.8520  144.5010 C   0  0  0  0  0  0  0  0  0  0  0  0
  186.0560  178.2060  143.4350 C   0  0  0  0  0  3  0  0  0  0  0  0
  187.5640  178.6360  147.7210 O   0  0  0  0  0  1  0  0  0  0  0  0
  187.2610  177.4960  146.9760 C   0  0  0  0  0  2  0  0  0  0  0  0
  2  1  1  1  0  0  0
  2 16  1  0  0  0  0
  2  5  1  0  0  0  0
  4  3  1  0  0  0  0
  5  9  1  0  0  0  0
  7  4  2  0  0  0  0
  8  5  2  0  0  0  0
  8  7  1  0  0  0  0
  9  6  1  0  0  0  0
  9  3  2  0  0  0  0
 10 13  2  0  0  0  0
 10 14  1  0  0  0  0
 11  2  1  0  0  0  0
 12 11  2  0  0  0  0
 13 12  1  0  0  0  0
 14 15  2  0  0  0  0
 15 11  1  0  0  0  0
 17 16  1  0  0  0  0
 17 24  1  0  0  0  0
 18 23  1  0  0  0  0
 20 21  1  0  0  0  0
 22 20  1  0  0  0  0
 22 27  1  0  0  0  0
 23 19  1  0  0  0  0
 23 20  2  0  0  0  0
 24 22  2  0  0  0  0
 25 18  2  0  0  0  0
 25 24  1  0  0  0  0
 27 26  1  0  0  0  0
M  END
>  <MODEL>
8

>  <REMARK>
 VINA RESULT:      -7.3      2.381      4.889
  Name = 
  6 active torsions:
  status: ('A' for Active; 'I' for Inactive)
    1  A    between atoms: O_2  and  C_6
    2  A    between atoms: O_2  and  C_15
    3  A    between atoms: C_6  and  C_17
    4  A    between atoms: C_9  and  C_15
    5  A    between atoms: C_14  and  C_19
    6  A    between atoms: C_15  and  C_18
                            x       y       z     vdW  Elec       q    Type
                         _______ _______ _______ _____ _____    ______ ____

>  <TORSDO>
F 6

$$$$
=
 OpenBabel11052413473D

 27 29  0  0  1  0  0  0  0  0999 V2000
  184.5120  179.4430  139.6990 C   0  0  0  0  0  1  0  0  0  0  0  0
  183.5000  178.3660  140.1310 C   0  0  2  0  0  0  0  0  0  0  0  0
  182.7510  175.1610  138.1470 C   0  0  0  0  0  3  0  0  0  0  0  0
  183.5940  175.3080  137.0450 C   0  0  0  0  0  3  0  0  0  0  0  0
  183.5070  177.3090  139.0300 C   0  0  0  0  0  0  0  0  0  0  0  0
  181.9000  175.9500  140.2120 F   0  0  0  0  0  0  0  0  0  0  0  0
  184.4060  176.4370  136.9340 C   0  0  0  0  0  3  0  0  0  0  0  0
  184.3680  177.4230  137.9210 C   0  0  0  0  0  3  0  0  0  0  0  0
  182.7090  176.1460  139.1390 C   0  0  0  0  0  0  0  0  0  0  0  0
  179.5700  180.1510  140.6090 C   0  0  0  0  0  3  0  0  0  0  0  0
  182.0970  178.9560  140.3000 C   0  0  0  0  0  0  0  0  0  0  0  0
  181.5250  179.7020  139.2560 C   0  0  0  0  0  3  0  0  0  0  0  0
  180.2660  180.2900  139.4070 C   0  0  0  0  0  3  0  0  0  0  0  0
  180.1330  179.4270  141.6630 C   0  0  0  0  0  3  0  0  0  0  0  0
  181.3910  178.8390  141.5120 C   0  0  0  0  0  3  0  0  0  0  0  0
  183.9180  177.7420  141.3380 O   0  0  0  0  0  0  0  0  0  0  0  0
  185.1490  178.2750  141.7710 C   0  0  0  0  0  2  0  0  0  0  0  0
  183.9590  178.8090  145.3140 C   0  0  0  0  0  3  0  0  0  0  0  0
  185.0480  178.5540  147.4120 F   0  0  0  0  0  0  0  0  0  0  0  0
  186.2680  178.0830  145.4110 C   0  0  0  0  0  0  0  0  0  0  0  0
  187.3920  177.7610  146.1660 O   0  0  0  0  0  1  0  0  0  0  0  0
  186.3070  178.0060  144.0080 C   0  0  0  0  0  0  0  0  0  0  0  0
  185.0930  178.4820  146.0600 C   0  0  0  0  0  0  0  0  0  0  0  0
  185.1630  178.3530  143.2620 C   0  0  0  0  0  0  0  0  0  0  0  0
  183.9930  178.7430  143.9210 C   0  0  0  0  0  3  0  0  0  0  0  0
  187.7210  176.2070  143.4020 O   0  0  0  0  0  1  0  0  0  0  0  0
  187.5730  177.5920  143.3230 C   0  0  0  0  0  2  0  0  0  0  0  0
  2  1  1  6  0  0  0
  2 11  1  0  0  0  0
  2 16  1  0  0  0  0
  3  9  1  0  0  0  0
  4  3  2  0  0  0  0
  5  9  2  0  0  0  0
  5  2  1  0  0  0  0
  7  4  1  0  0  0  0
  7  8  2  0  0  0  0
  8  5  1  0  0  0  0
  9  6  1  0  0  0  0
 10 14  1  0  0  0  0
 11 15  1  0  0  0  0
 12 13  1  0  0  0  0
 12 11  2  0  0  0  0
 13 10  2  0  0  0  0
 15 14  2  0  0  0  0
 16 17  1  0  0  0  0
 17 24  1  0  0  0  0
 18 23  1  0  0  0  0
 20 23  2  0  0  0  0
 20 21  1  0  0  0  0
 22 20  1  0  0  0  0
 23 19  1  0  0  0  0
 24 25  1  0  0  0  0
 24 22  2  0  0  0  0
 25 18  2  0  0  0  0
 27 26  1  0  0  0  0
 27 22  1  0  0  0  0
M  END
>  <MODEL>
9

>  <REMARK>
 VINA RESULT:      -7.3      2.864      7.432
  Name = 
  6 active torsions:
  status: ('A' for Active; 'I' for Inactive)
    1  A    between atoms: O_2  and  C_6
    2  A    between atoms: O_2  and  C_15
    3  A    between atoms: C_6  and  C_17
    4  A    between atoms: C_9  and  C_15
    5  A    between atoms: C_14  and  C_19
    6  A    between atoms: C_15  and  C_18
                            x       y       z     vdW  Elec       q    Type
                         _______ _______ _______ _____ _____    ______ ____

>  <TORSDO>
F 6

$$$$
