=
 OpenBabel11052416333D

 43 49  0  0  1  0  0  0  0  0999 V2000
  191.0600  176.4580  146.7610 C   0  0  0  0  0  0  0  0  0  0  0  0
  188.3620  177.9580  142.7750 C   0  0  0  0  0  0  0  0  0  0  0  0
  185.7600  178.4360  143.7510 C   0  0  0  0  0  0  0  0  0  0  0  0
  190.3820  177.0860  144.4950 C   0  0  1  0  0  3  0  0  0  0  0  0
  189.8430  176.6990  147.2600 C   0  0  0  0  0  3  0  0  0  0  0  0
  192.1470  175.9940  147.6630 C   0  0  0  0  0  1  0  0  0  0  0  0
  189.0300  177.3520  145.0070 C   0  0  0  0  0  0  0  0  0  0  0  0
  191.3380  176.6630  145.3240 C   0  0  0  0  0  3  0  0  0  0  0  0
  188.7810  177.1520  146.4050 N   0  0  0  0  0  0  0  0  0  0  0  0
  186.7780  178.0100  144.6170 C   0  0  0  0  0  3  0  0  0  0  0  0
  188.0740  177.7660  144.1530 C   0  0  0  0  0  0  0  0  0  0  0  0
  189.5960  177.7230  142.2970 C   0  0  0  0  0  3  0  0  0  0  0  0
  187.3480  178.3870  141.9010 C   0  0  0  0  0  0  0  0  0  0  0  0
  186.0590  178.6210  142.3970 C   0  0  0  0  0  3  0  0  0  0  0  0
  190.6280  177.2850  143.1380 O   0  0  0  0  0  0  0  0  0  0  0  0
  184.3870  178.6800  144.2510 C   0  0  0  0  0  0  0  0  0  0  0  0
  183.3760  178.8460  143.3890 C   0  0  0  0  0  3  0  0  0  0  0  0
  184.1360  178.7470  145.7270 C   0  0  0  0  0  1  0  0  0  0  0  0
  180.9780  179.2800  142.6290 C   0  0  2  0  0  3  0  0  0  0  0  0
  181.9540  179.1110  143.8010 C   0  0  1  0  0  3  0  0  0  0  0  0
  181.0670  177.9560  143.3700 C   0  0  0  0  0  2  0  0  0  0  0  0
  181.6350  179.1630  141.3330 N   0  0  0  0  0  2  0  0  0  0  0  0
  180.6460  178.6480  140.3990 C   0  0  0  0  0  2  0  0  0  0  0  0
  182.0730  179.1050  138.4040 C   0  0  0  0  0  3  0  0  0  0  0  0
  180.8960  179.2100  139.0340 C   0  0  0  0  0  3  0  0  0  0  0  0
  183.2680  178.4090  138.9920 C   0  0  2  0  0  3  0  0  0  0  0  0
  184.4290  179.3940  139.0920 C   0  0  0  0  0  1  0  0  0  0  0  0
  184.0750  177.2710  137.0010 C   0  0  0  0  0  0  0  0  0  0  0  0
  183.6210  177.1690  138.2100 C   0  0  0  0  0  0  0  0  0  0  0  0
  183.1500  175.7780  138.5980 C   0  0  0  0  0  2  0  0  0  0  0  0
  184.4090  175.5360  135.4170 C   0  0  0  0  0  2  0  0  0  0  0  0
  183.4050  174.6980  136.2530 C   0  0  0  0  0  2  0  0  0  0  0  0
  184.4570  176.9900  135.8010 C   0  0  0  0  0  3  0  0  0  0  0  0
  183.7600  174.6270  137.7540 C   0  0  0  0  0  2  0  0  0  0  0  0
  187.6330  178.5770  140.5420 O   0  0  0  0  0  0  0  0  0  0  0  0
  189.9400  177.1750  138.1700 O   0  0  0  0  0  0  0  0  0  0  0  0
  189.2650  176.4570  137.1680 C   0  0  0  0  0  0  0  0  0  0  0  0
  189.5770  177.0450  135.8000 C   0  0  0  0  0  1  0  0  0  0  0  0
  187.6270  177.7780  138.2860 C   0  0  2  0  0  3  0  0  0  0  0  0
  189.0470  178.1560  138.6500 C   0  0  1  0  0  3  0  0  0  0  0  0
  188.1330  177.5500  139.6990 C   0  0  1  0  0  3  0  0  0  0  0  0
  189.6990  175.0040  137.2010 C   0  0  0  0  0  1  0  0  0  0  0  0
  187.7850  176.5450  137.4450 C   0  0  0  0  0  2  0  0  0  0  0  0
  1  5  1  0  0  0  0
  1  6  1  0  0  0  0
  2 11  1  0  0  0  0
  3 16  1  0  0  0  0
  3 10  2  0  0  0  0
  4  7  1  0  0  0  0
  4  8  1  6  0  0  0
  7  9  1  0  0  0  0
  8  1  2  0  0  0  0
  9  5  2  0  0  0  0
 11 10  1  0  0  0  0
 11  7  2  0  0  0  0
 12  2  2  0  0  0  0
 12 15  1  0  0  0  0
 13 14  2  0  0  0  0
 13  2  1  0  0  0  0
 14  3  1  0  0  0  0
 15  4  1  0  0  0  0
 16 18  1  0  0  0  0
 17 16  2  0  0  0  0
 19 22  1  6  0  0  0
 19 21  1  0  0  0  0
 19 20  1  0  0  0  0
 20 17  1  6  0  0  0
 21 20  1  0  0  0  0
 23 22  1  0  0  0  0
 24 26  1  0  0  0  0
 24 25  2  0  0  0  0
 25 23  1  0  0  0  0
 26 27  1  6  0  0  0
 28 29  2  0  0  0  0
 29 30  1  0  0  0  0
 29 26  1  0  0  0  0
 31 33  1  0  0  0  0
 31 32  1  0  0  0  0
 32 34  1  0  0  0  0
 33 28  2  0  0  0  0
 34 30  1  0  0  0  0
 35 13  1  0  0  0  0
 37 42  1  0  0  0  0
 37 43  1  0  0  0  0
 37 36  1  0  0  0  0
 38 37  1  0  0  0  0
 39 43  1  6  0  0  0
 39 40  1  0  0  0  0
 39 41  1  0  0  0  0
 40 36  1  6  0  0  0
 40 41  1  0  0  0  0
 41 35  1  1  0  0  0
M  END
>  <MODEL>
1

>  <REMARK>
 VINA RESULT:      -9.7      0.000      0.000
  Name = 
  9 active torsions:
  status: ('A' for Active; 'I' for Inactive)
    1  A    between atoms: O_1  and  C_34
    2  A    between atoms: O_1  and  C_35
    3  A    between atoms: C_2  and  C_13
    4  A    between atoms: C_3  and  N_4
    5  A    between atoms: N_4  and  C_15
    6  A    between atoms: C_6  and  C_12
    7  A    between atoms: C_10  and  C_22
    8  A    between atoms: C_14  and  C_22
    9  A    between atoms: C_15  and  C_42
                            x       y       z     vdW  Elec       q    Type
                         _______ _______ _______ _____ _____    ______ ____

>  <TORSDO>
F 9

$$$$
=
 OpenBabel11052416333D

 43 49  0  0  1  0  0  0  0  0999 V2000
  184.7210  178.6200  145.3680 C   0  0  0  0  0  0  0  0  0  0  0  0
  182.3410  178.9530  140.9370 C   0  0  0  0  0  0  0  0  0  0  0  0
  184.2640  178.2840  138.9860 C   0  0  0  0  0  0  0  0  0  0  0  0
  183.0170  178.9660  143.6460 C   0  0  0  0  0  0  0  0  0  0  0  0
  185.6500  178.2750  144.4700 C   0  0  0  0  0  3  0  0  0  0  0  0
  185.0650  178.6310  146.8150 C   0  0  0  0  0  1  0  0  0  0  0  0
  184.0150  178.6000  142.6310 C   0  0  0  0  0  0  0  0  0  0  0  0
  183.3530  178.9760  144.9380 C   0  0  0  0  0  3  0  0  0  0  0  0
  185.3360  178.2540  143.0690 N   0  0  0  0  0  2  0  0  0  0  0  0
  184.6000  178.2780  140.3480 C   0  0  0  0  0  3  0  0  0  0  0  0
  183.6620  178.6080  141.3310 C   0  0  0  0  0  0  0  0  0  0  0  0
  181.4200  179.2830  141.8580 C   0  0  0  0  0  3  0  0  0  0  0  0
  181.9950  178.9580  139.5740 C   0  0  0  0  0  0  0  0  0  0  0  0
  182.9590  178.6240  138.6140 C   0  0  0  0  0  3  0  0  0  0  0  0
  181.7320  179.2980  143.2240 O   0  0  0  0  0  0  0  0  0  0  0  0
  185.2690  177.9450  137.9520 C   0  0  0  0  0  0  0  0  0  0  0  0
  186.5580  178.2510  138.1390 C   0  0  0  0  0  3  0  0  0  0  0  0
  184.8320  177.2630  136.6890 C   0  0  0  0  0  1  0  0  0  0  0  0
  189.0550  178.3440  137.6140 C   0  0  2  0  0  3  0  0  0  0  0  0
  187.6460  177.9590  137.1420 C   0  0  1  0  0  3  0  0  0  0  0  0
  188.5850  176.9010  137.6960 C   0  0  0  0  0  2  0  0  0  0  0  0
  189.0560  178.9370  138.9450 N   0  0  0  0  0  2  0  0  0  0  0  0
  189.6590  177.9650  139.8430 C   0  0  0  0  0  2  0  0  0  0  0  0
  188.9260  177.3900  142.1580 C   0  0  0  0  0  3  0  0  0  0  0  0
  188.6510  177.5120  140.8530 C   0  0  0  0  0  3  0  0  0  0  0  0
  190.2710  177.6980  142.7540 C   0  0  2  0  0  3  0  0  0  0  0  0
  191.3650  177.1270  141.8570 C   0  0  0  0  0  1  0  0  0  0  0  0
  189.3820  177.3960  144.9960 C   0  0  0  0  0  0  0  0  0  0  0  0
  190.3670  177.2070  144.1760 C   0  0  0  0  0  0  0  0  0  0  0  0
  191.6790  176.8160  144.8360 C   0  0  0  0  0  2  0  0  0  0  0  0
  189.3490  177.0410  147.3420 C   0  0  0  0  0  2  0  0  0  0  0  0
  190.8970  177.1280  147.2900 C   0  0  0  0  0  2  0  0  0  0  0  0
  188.6700  177.4720  146.0700 C   0  0  0  0  0  3  0  0  0  0  0  0
  191.5330  176.1840  146.2460 C   0  0  0  0  0  2  0  0  0  0  0  0
  180.6920  179.2970  139.1880 O   0  0  0  0  0  0  0  0  0  0  0  0
  181.2770  182.2720  137.2590 O   0  0  0  0  0  0  0  0  0  0  0  0
  180.0780  182.9650  137.0180 C   0  0  0  0  0  0  0  0  0  0  0  0
  180.1630  184.3740  137.5870 C   0  0  0  0  0  1  0  0  0  0  0  0
  179.6240  181.3940  138.7510 C   0  0  2  0  0  3  0  0  0  0  0  0
  181.1020  181.5440  138.4540 C   0  0  1  0  0  3  0  0  0  0  0  0
  180.4000  180.2310  138.1590 C   0  0  1  0  0  3  0  0  0  0  0  0
  179.8240  183.0410  135.5240 C   0  0  0  0  0  1  0  0  0  0  0  0
  178.9560  182.2050  137.6790 C   0  0  0  0  0  2  0  0  0  0  0  0
  1  6  1  0  0  0  0
  2 11  1  0  0  0  0
  2 12  2  0  0  0  0
  3 10  2  0  0  0  0
  4  8  2  0  0  0  0
  5  1  2  0  0  0  0
  7  9  1  0  0  0  0
  7  4  1  0  0  0  0
  8  1  1  0  0  0  0
  9  5  1  0  0  0  0
 10 11  1  0  0  0  0
 11  7  2  0  0  0  0
 12 15  1  0  0  0  0
 13  2  1  0  0  0  0
 14  3  1  0  0  0  0
 14 13  2  0  0  0  0
 15  4  1  0  0  0  0
 16 17  2  0  0  0  0
 16  3  1  0  0  0  0
 18 16  1  0  0  0  0
 19 21  1  0  0  0  0
 19 22  1  1  0  0  0
 20 19  1  0  0  0  0
 20 21  1  0  0  0  0
 20 17  1  1  0  0  0
 22 23  1  0  0  0  0
 23 25  1  0  0  0  0
 24 26  1  0  0  0  0
 25 24  2  0  0  0  0
 26 27  1  6  0  0  0
 26 29  1  0  0  0  0
 28 33  2  0  0  0  0
 29 30  1  0  0  0  0
 29 28  2  0  0  0  0
 30 34  1  0  0  0  0
 32 31  1  0  0  0  0
 33 31  1  0  0  0  0
 34 32  1  0  0  0  0
 35 13  1  0  0  0  0
 37 36  1  0  0  0  0
 37 38  1  0  0  0  0
 37 43  1  0  0  0  0
 39 43  1  6  0  0  0
 40 36  1  6  0  0  0
 40 39  1  0  0  0  0
 41 40  1  0  0  0  0
 41 39  1  0  0  0  0
 41 35  1  1  0  0  0
 42 37  1  0  0  0  0
M  END
>  <MODEL>
2

>  <REMARK>
 VINA RESULT:      -9.4      2.970      8.738
  Name = 
  9 active torsions:
  status: ('A' for Active; 'I' for Inactive)
    1  A    between atoms: O_1  and  C_34
    2  A    between atoms: O_1  and  C_35
    3  A    between atoms: C_2  and  C_13
    4  A    between atoms: C_3  and  N_4
    5  A    between atoms: N_4  and  C_15
    6  A    between atoms: C_6  and  C_12
    7  A    between atoms: C_10  and  C_22
    8  A    between atoms: C_14  and  C_22
    9  A    between atoms: C_15  and  C_42
                            x       y       z     vdW  Elec       q    Type
                         _______ _______ _______ _____ _____    ______ ____

>  <TORSDO>
F 9

$$$$
=
 OpenBabel11052416333D

 43 49  0  0  1  0  0  0  0  0999 V2000
  193.5920  175.1620  136.2360 C   0  0  0  0  0  0  0  0  0  0  0  0
  189.5740  177.4310  138.2670 C   0  0  0  0  0  0  0  0  0  0  0  0
  190.1220  177.6250  141.0270 C   0  0  0  0  0  0  0  0  0  0  0  0
  191.4220  176.2530  136.5370 C   0  0  1  0  0  3  0  0  0  0  0  0
  193.8920  175.2600  137.5360 C   0  0  0  0  0  3  0  0  0  0  0  0
  194.5650  174.5380  135.3010 C   0  0  0  0  0  1  0  0  0  0  0  0
  191.7150  176.3700  137.9720 C   0  0  0  0  0  0  0  0  0  0  0  0
  192.3080  175.6810  135.7190 C   0  0  0  0  0  3  0  0  0  0  0  0
  192.9680  175.8640  138.4540 N   0  0  0  0  0  0  0  0  0  0  0  0
  191.0560  177.0440  140.1550 C   0  0  0  0  0  3  0  0  0  0  0  0
  190.8030  176.9370  138.7840 C   0  0  0  0  0  0  0  0  0  0  0  0
  189.2990  177.3340  136.9560 C   0  0  0  0  0  3  0  0  0  0  0  0
  188.6350  178.0170  139.1340 C   0  0  0  0  0  0  0  0  0  0  0  0
  188.9180  178.1070  140.5030 C   0  0  0  0  0  3  0  0  0  0  0  0
  190.2080  176.7470  136.0650 O   0  0  0  0  0  0  0  0  0  0  0  0
  190.3950  177.7230  142.4800 C   0  0  0  0  0  0  0  0  0  0  0  0
  189.4110  178.0440  143.3290 C   0  0  0  0  0  3  0  0  0  0  0  0
  191.7800  177.4660  142.9940 C   0  0  0  0  0  1  0  0  0  0  0  0
  188.4000  177.6930  145.6470 C   0  0  2  0  0  3  0  0  0  0  0  0
  189.5950  178.1810  144.8160 C   0  0  1  0  0  3  0  0  0  0  0  0
  189.6210  176.8060  145.4620 C   0  0  0  0  0  2  0  0  0  0  0  0
  187.3060  177.2030  144.8190 N   0  0  0  0  0  2  0  0  0  0  0  0
  186.0750  177.4320  145.5600 C   0  0  0  0  0  2  0  0  0  0  0  0
  185.0950  179.4550  144.4780 C   0  0  0  0  0  3  0  0  0  0  0  0
  185.7190  178.8850  145.5170 C   0  0  0  0  0  3  0  0  0  0  0  0
  184.6800  178.7010  143.2460 C   0  0  2  0  0  3  0  0  0  0  0  0
  185.3330  179.3330  142.0220 C   0  0  0  0  0  1  0  0  0  0  0  0
  182.6170  178.6180  141.9630 C   0  0  0  0  0  0  0  0  0  0  0  0
  183.1780  178.6210  143.1310 C   0  0  0  0  0  0  0  0  0  0  0  0
  182.2380  178.9050  144.2890 C   0  0  0  0  0  2  0  0  0  0  0  0
  180.3080  178.8280  141.4560 C   0  0  0  0  0  2  0  0  0  0  0  0
  180.1450  179.4650  142.8610 C   0  0  0  0  0  2  0  0  0  0  0  0
  181.7390  178.6720  141.0180 C   0  0  0  0  0  3  0  0  0  0  0  0
  180.7420  178.6080  143.9990 C   0  0  0  0  0  2  0  0  0  0  0  0
  187.4250  178.5040  138.6230 O   0  0  0  0  0  0  0  0  0  0  0  0
  184.8330  176.2880  137.4900 O   0  0  0  0  0  0  0  0  0  0  0  0
  183.5590  176.8110  137.7710 C   0  0  0  0  0  0  0  0  0  0  0  0
  182.7650  176.9780  136.4840 C   0  0  0  0  0  1  0  0  0  0  0  0
  185.1070  178.6020  138.0330 C   0  0  2  0  0  3  0  0  0  0  0  0
  185.7130  177.3830  137.3700 C   0  0  1  0  0  3  0  0  0  0  0  0
  186.1910  177.8130  138.7450 C   0  0  1  0  0  3  0  0  0  0  0  0
  182.8160  175.8700  138.7010 C   0  0  0  0  0  1  0  0  0  0  0  0
  183.7390  178.1460  138.4480 C   0  0  0  0  0  2  0  0  0  0  0  0
  1  5  1  0  0  0  0
  2 11  1  0  0  0  0
  2 13  1  0  0  0  0
  3 16  1  0  0  0  0
  4  8  1  1  0  0  0
  4  7  1  0  0  0  0
  5  9  2  0  0  0  0
  6  1  1  0  0  0  0
  7  9  1  0  0  0  0
  7 11  2  0  0  0  0
  8  1  2  0  0  0  0
 10  3  2  0  0  0  0
 11 10  1  0  0  0  0
 12  2  2  0  0  0  0
 13 14  2  0  0  0  0
 14  3  1  0  0  0  0
 15  4  1  0  0  0  0
 15 12  1  0  0  0  0
 16 18  1  0  0  0  0
 16 17  2  0  0  0  0
 19 22  1  6  0  0  0
 20 17  1  6  0  0  0
 20 21  1  0  0  0  0
 20 19  1  0  0  0  0
 21 19  1  0  0  0  0
 22 23  1  0  0  0  0
 24 25  2  0  0  0  0
 25 23  1  0  0  0  0
 26 27  1  6  0  0  0
 26 24  1  0  0  0  0
 28 29  2  0  0  0  0
 29 26  1  0  0  0  0
 29 30  1  0  0  0  0
 31 32  1  0  0  0  0
 32 34  1  0  0  0  0
 33 31  1  0  0  0  0
 33 28  2  0  0  0  0
 34 30  1  0  0  0  0
 35 13  1  0  0  0  0
 36 37  1  0  0  0  0
 37 43  1  0  0  0  0
 37 42  1  0  0  0  0
 38 37  1  0  0  0  0
 39 43  1  1  0  0  0
 39 41  1  0  0  0  0
 40 36  1  1  0  0  0
 40 39  1  0  0  0  0
 40 41  1  0  0  0  0
 41 35  1  6  0  0  0
M  END
>  <MODEL>
3

>  <REMARK>
 VINA RESULT:      -9.4      2.421      6.926
  Name = 
  9 active torsions:
  status: ('A' for Active; 'I' for Inactive)
    1  A    between atoms: O_1  and  C_34
    2  A    between atoms: O_1  and  C_35
    3  A    between atoms: C_2  and  C_13
    4  A    between atoms: C_3  and  N_4
    5  A    between atoms: N_4  and  C_15
    6  A    between atoms: C_6  and  C_12
    7  A    between atoms: C_10  and  C_22
    8  A    between atoms: C_14  and  C_22
    9  A    between atoms: C_15  and  C_42
                            x       y       z     vdW  Elec       q    Type
                         _______ _______ _______ _____ _____    ______ ____

>  <TORSDO>
F 9

$$$$
=
 OpenBabel11052416333D

 43 49  0  0  1  0  0  0  0  0999 V2000
  191.0310  176.5050  146.7230 C   0  0  0  0  0  0  0  0  0  0  0  0
  188.5750  178.0300  142.5920 C   0  0  0  0  0  0  0  0  0  0  0  0
  185.8990  178.4190  143.3960 C   0  0  0  0  0  0  0  0  0  0  0  0
  190.4940  177.1690  144.4290 C   0  0  1  0  0  3  0  0  0  0  0  0
  189.7760  176.7030  147.1410 C   0  0  0  0  0  3  0  0  0  0  0  0
  192.0650  176.0470  147.6880 C   0  0  0  0  0  1  0  0  0  0  0  0
  189.1030  177.3890  144.8520 C   0  0  0  0  0  0  0  0  0  0  0  0
  191.4020  176.7500  145.3130 C   0  0  0  0  0  3  0  0  0  0  0  0
  188.7640  177.1490  146.2250 N   0  0  0  0  0  0  0  0  0  0  0  0
  186.8670  177.9980  144.3210 C   0  0  0  0  0  3  0  0  0  0  0  0
  188.1980  177.7980  143.9430 C   0  0  0  0  0  0  0  0  0  0  0  0
  189.8440  177.8380  142.1970 C   0  0  0  0  0  3  0  0  0  0  0  0
  187.6120  178.4550  141.6600 C   0  0  0  0  0  0  0  0  0  0  0  0
  186.2860  178.6440  142.0700 C   0  0  0  0  0  3  0  0  0  0  0  0
  190.8270  177.4060  143.0980 O   0  0  0  0  0  0  0  0  0  0  0  0
  184.4890  178.6160  143.8040 C   0  0  0  0  0  0  0  0  0  0  0  0
  183.5360  178.7750  142.8780 C   0  0  0  0  0  3  0  0  0  0  0  0
  184.1360  178.6440  145.2610 C   0  0  0  0  0  1  0  0  0  0  0  0
  181.2030  179.2770  141.9700 C   0  0  2  0  0  3  0  0  0  0  0  0
  182.0820  178.9940  143.1960 C   0  0  1  0  0  3  0  0  0  0  0  0
  181.2450  177.8850  142.5800 C   0  0  0  0  0  2  0  0  0  0  0  0
  181.9660  179.2930  140.7280 N   0  0  0  0  0  2  0  0  0  0  0  0
  181.2220  178.4990  139.7620 C   0  0  0  0  0  2  0  0  0  0  0  0
  181.5480  179.2150  137.3950 C   0  0  0  0  0  3  0  0  0  0  0  0
  181.9420  178.4900  138.4500 C   0  0  0  0  0  3  0  0  0  0  0  0
  180.3470  180.1190  137.4120 C   0  0  2  0  0  3  0  0  0  0  0  0
  179.1910  179.4390  136.6870 C   0  0  0  0  0  1  0  0  0  0  0  0
  181.2140  182.3830  137.5960 C   0  0  0  0  0  0  0  0  0  0  0  0
  180.6740  181.4770  136.8430 C   0  0  0  0  0  0  0  0  0  0  0  0
  180.0930  181.9960  135.5390 C   0  0  0  0  0  2  0  0  0  0  0  0
  181.5450  184.6810  137.1030 C   0  0  0  0  0  2  0  0  0  0  0  0
  180.4370  184.5210  136.0280 C   0  0  0  0  0  2  0  0  0  0  0  0
  181.6570  183.5100  138.0420 C   0  0  0  0  0  3  0  0  0  0  0  0
  180.6870  183.3470  135.0560 C   0  0  0  0  0  2  0  0  0  0  0  0
  187.9850  178.6830  140.3290 O   0  0  0  0  0  0  0  0  0  0  0  0
  188.3970  175.9530  138.0290 O   0  0  0  0  0  0  0  0  0  0  0  0
  188.0150  176.3230  136.7280 C   0  0  0  0  0  0  0  0  0  0  0  0
  189.1850  176.1540  135.7700 C   0  0  0  0  0  1  0  0  0  0  0  0
  188.2430  178.3410  137.9740 C   0  0  2  0  0  3  0  0  0  0  0  0
  188.8010  177.1300  138.6930 C   0  0  1  0  0  3  0  0  0  0  0  0
  187.5870  177.8490  139.2520 C   0  0  1  0  0  3  0  0  0  0  0  0
  186.8610  175.4520  136.2680 C   0  0  0  0  0  1  0  0  0  0  0  0
  187.5740  177.7640  136.7610 C   0  0  0  0  0  2  0  0  0  0  0  0
  1  5  1  0  0  0  0
  1  6  1  0  0  0  0
  2 11  1  0  0  0  0
  3 16  1  0  0  0  0
  3 10  2  0  0  0  0
  4  7  1  0  0  0  0
  4  8  1  6  0  0  0
  7  9  1  0  0  0  0
  8  1  2  0  0  0  0
  9  5  2  0  0  0  0
 11 10  1  0  0  0  0
 11  7  2  0  0  0  0
 12  2  2  0  0  0  0
 12 15  1  0  0  0  0
 13 14  2  0  0  0  0
 13  2  1  0  0  0  0
 14  3  1  0  0  0  0
 15  4  1  0  0  0  0
 16 18  1  0  0  0  0
 17 16  2  0  0  0  0
 19 22  1  6  0  0  0
 19 21  1  0  0  0  0
 19 20  1  0  0  0  0
 20 17  1  6  0  0  0
 21 20  1  0  0  0  0
 23 22  1  0  0  0  0
 24 26  1  0  0  0  0
 24 25  2  0  0  0  0
 25 23  1  0  0  0  0
 26 27  1  6  0  0  0
 28 33  2  0  0  0  0
 29 26  1  0  0  0  0
 29 28  2  0  0  0  0
 30 29  1  0  0  0  0
 31 33  1  0  0  0  0
 32 31  1  0  0  0  0
 34 30  1  0  0  0  0
 34 32  1  0  0  0  0
 35 13  1  0  0  0  0
 37 43  1  0  0  0  0
 37 36  1  0  0  0  0
 38 37  1  0  0  0  0
 39 43  1  6  0  0  0
 39 40  1  0  0  0  0
 39 41  1  0  0  0  0
 40 36  1  6  0  0  0
 40 41  1  0  0  0  0
 41 35  1  1  0  0  0
 42 37  1  0  0  0  0
M  END
>  <MODEL>
4

>  <REMARK>
 VINA RESULT:      -9.3      2.135      3.559
  Name = 
  9 active torsions:
  status: ('A' for Active; 'I' for Inactive)
    1  A    between atoms: O_1  and  C_34
    2  A    between atoms: O_1  and  C_35
    3  A    between atoms: C_2  and  C_13
    4  A    between atoms: C_3  and  N_4
    5  A    between atoms: N_4  and  C_15
    6  A    between atoms: C_6  and  C_12
    7  A    between atoms: C_10  and  C_22
    8  A    between atoms: C_14  and  C_22
    9  A    between atoms: C_15  and  C_42
                            x       y       z     vdW  Elec       q    Type
                         _______ _______ _______ _____ _____    ______ ____

>  <TORSDO>
F 9

$$$$
=
 OpenBabel11052416333D

 43 49  0  0  1  0  0  0  0  0999 V2000
  190.7070  176.5980  146.6430 C   0  0  0  0  0  0  0  0  0  0  0  0
  188.1880  178.0460  142.5230 C   0  0  0  0  0  0  0  0  0  0  0  0
  185.5530  178.5650  143.3830 C   0  0  0  0  0  0  0  0  0  0  0  0
  190.1270  177.1890  144.3400 C   0  0  1  0  0  3  0  0  0  0  0  0
  189.4720  176.8590  147.0870 C   0  0  0  0  0  3  0  0  0  0  0  0
  191.7510  176.1410  147.5980 C   0  0  0  0  0  1  0  0  0  0  0  0
  188.7590  177.4770  144.7910 C   0  0  0  0  0  0  0  0  0  0  0  0
  191.0450  176.7720  145.2150 C   0  0  0  0  0  3  0  0  0  0  0  0
  188.4510  177.3050  146.1820 N   0  0  0  0  0  0  0  0  0  0  0  0
  186.5310  178.1470  144.2980 C   0  0  0  0  0  3  0  0  0  0  0  0
  187.8420  177.8830  143.8920 C   0  0  0  0  0  0  0  0  0  0  0  0
  189.4380  177.7900  142.1000 C   0  0  0  0  0  3  0  0  0  0  0  0
  187.2140  178.4670  141.6000 C   0  0  0  0  0  0  0  0  0  0  0  0
  185.9090  178.7220  142.0390 C   0  0  0  0  0  3  0  0  0  0  0  0
  190.4310  177.3590  142.9910 O   0  0  0  0  0  0  0  0  0  0  0  0
  184.1630  178.8310  143.8210 C   0  0  0  0  0  0  0  0  0  0  0  0
  183.1890  178.9820  142.9160 C   0  0  0  0  0  3  0  0  0  0  0  0
  183.8550  178.9360  145.2850 C   0  0  0  0  0  1  0  0  0  0  0  0
  180.7650  179.0230  142.1170 C   0  0  2  0  0  3  0  0  0  0  0  0
  181.7530  179.2680  143.2650 C   0  0  1  0  0  3  0  0  0  0  0  0
  180.9430  177.9840  143.2120 C   0  0  0  0  0  2  0  0  0  0  0  0
  181.4240  178.5720  140.8980 N   0  0  0  0  0  2  0  0  0  0  0  0
  180.8370  177.2880  140.5480 C   0  0  0  0  0  2  0  0  0  0  0  0
  181.3410  176.7920  138.1550 C   0  0  0  0  0  3  0  0  0  0  0  0
  180.5040  177.2630  139.0890 C   0  0  0  0  0  3  0  0  0  0  0  0
  182.7010  176.2340  138.4670 C   0  0  2  0  0  3  0  0  0  0  0  0
  183.7610  177.2920  138.1790 C   0  0  0  0  0  1  0  0  0  0  0  0
  181.9570  174.1600  137.4390 C   0  0  0  0  0  0  0  0  0  0  0  0
  182.9480  174.9440  137.7250 C   0  0  0  0  0  0  0  0  0  0  0  0
  184.3210  174.3080  137.5950 C   0  0  0  0  0  2  0  0  0  0  0  0
  182.0470  171.9470  136.5860 C   0  0  0  0  0  2  0  0  0  0  0  0
  183.5020  171.8920  137.1250 C   0  0  0  0  0  2  0  0  0  0  0  0
  181.2630  173.1360  137.0710 C   0  0  0  0  0  3  0  0  0  0  0  0
  184.3780  173.0740  136.6560 C   0  0  0  0  0  2  0  0  0  0  0  0
  187.5570  178.6280  140.2510 O   0  0  0  0  0  0  0  0  0  0  0  0
  189.1250  176.2910  138.0180 O   0  0  0  0  0  0  0  0  0  0  0  0
  188.4070  176.1780  136.8140 C   0  0  0  0  0  0  0  0  0  0  0  0
  189.2950  176.5530  135.6370 C   0  0  0  0  0  1  0  0  0  0  0  0
  187.6050  178.1360  137.9090 C   0  0  2  0  0  3  0  0  0  0  0  0
  188.8640  177.5760  138.5370 C   0  0  1  0  0  3  0  0  0  0  0  0
  187.5610  177.5620  139.3140 C   0  0  1  0  0  3  0  0  0  0  0  0
  187.9210  174.7510  136.6420 C   0  0  0  0  0  1  0  0  0  0  0  0
  187.2210  177.1060  136.8870 C   0  0  0  0  0  2  0  0  0  0  0  0
  1  5  1  0  0  0  0
  1  6  1  0  0  0  0
  2 11  1  0  0  0  0
  3 16  1  0  0  0  0
  3 10  2  0  0  0  0
  4  7  1  0  0  0  0
  4  8  1  6  0  0  0
  7  9  1  0  0  0  0
  8  1  2  0  0  0  0
  9  5  2  0  0  0  0
 11 10  1  0  0  0  0
 11  7  2  0  0  0  0
 12  2  2  0  0  0  0
 12 15  1  0  0  0  0
 13 14  2  0  0  0  0
 13  2  1  0  0  0  0
 14  3  1  0  0  0  0
 15  4  1  0  0  0  0
 16 18  1  0  0  0  0
 17 16  2  0  0  0  0
 19 22  1  6  0  0  0
 19 21  1  0  0  0  0
 19 20  1  0  0  0  0
 20 17  1  6  0  0  0
 21 20  1  0  0  0  0
 23 22  1  0  0  0  0
 24 26  1  0  0  0  0
 24 25  2  0  0  0  0
 25 23  1  0  0  0  0
 26 27  1  6  0  0  0
 28 29  2  0  0  0  0
 29 26  1  0  0  0  0
 30 29  1  0  0  0  0
 31 33  1  0  0  0  0
 31 32  1  0  0  0  0
 33 28  2  0  0  0  0
 34 32  1  0  0  0  0
 34 30  1  0  0  0  0
 35 13  1  0  0  0  0
 37 43  1  0  0  0  0
 37 36  1  0  0  0  0
 38 37  1  0  0  0  0
 39 43  1  6  0  0  0
 39 40  1  0  0  0  0
 39 41  1  0  0  0  0
 40 36  1  6  0  0  0
 40 41  1  0  0  0  0
 41 35  1  1  0  0  0
 42 37  1  0  0  0  0
M  END
>  <MODEL>
5

>  <REMARK>
 VINA RESULT:      -9.2      1.151      1.665
  Name = 
  9 active torsions:
  status: ('A' for Active; 'I' for Inactive)
    1  A    between atoms: O_1  and  C_34
    2  A    between atoms: O_1  and  C_35
    3  A    between atoms: C_2  and  C_13
    4  A    between atoms: C_3  and  N_4
    5  A    between atoms: N_4  and  C_15
    6  A    between atoms: C_6  and  C_12
    7  A    between atoms: C_10  and  C_22
    8  A    between atoms: C_14  and  C_22
    9  A    between atoms: C_15  and  C_42
                            x       y       z     vdW  Elec       q    Type
                         _______ _______ _______ _____ _____    ______ ____

>  <TORSDO>
F 9

$$$$
=
 OpenBabel11052416333D

 43 49  0  0  1  0  0  0  0  0999 V2000
  190.2860  176.8610  146.3510 C   0  0  0  0  0  0  0  0  0  0  0  0
  187.6580  178.2340  142.2740 C   0  0  0  0  0  0  0  0  0  0  0  0
  185.0100  178.6160  143.1660 C   0  0  0  0  0  0  0  0  0  0  0  0
  189.6550  177.4500  144.0610 C   0  0  1  0  0  3  0  0  0  0  0  0
  189.0450  177.0570  146.8100 C   0  0  0  0  0  3  0  0  0  0  0  0
  191.3610  176.4440  147.2900 C   0  0  0  0  0  1  0  0  0  0  0  0
  188.2790  177.6660  144.5290 C   0  0  0  0  0  0  0  0  0  0  0  0
  190.6010  177.0680  144.9220 C   0  0  0  0  0  3  0  0  0  0  0  0
  187.9940  177.4630  145.9210 N   0  0  0  0  0  0  0  0  0  0  0  0
  186.0170  178.2340  144.0660 C   0  0  0  0  0  3  0  0  0  0  0  0
  187.3350  178.0380  143.6440 C   0  0  0  0  0  0  0  0  0  0  0  0
  188.9140  178.0450  141.8360 C   0  0  0  0  0  3  0  0  0  0  0  0
  186.6560  178.6200  141.3660 C   0  0  0  0  0  0  0  0  0  0  0  0
  185.3440  178.8060  141.8210 C   0  0  0  0  0  3  0  0  0  0  0  0
  189.9360  177.6510  142.7120 O   0  0  0  0  0  0  0  0  0  0  0  0
  183.6130  178.8090  143.6210 C   0  0  0  0  0  0  0  0  0  0  0  0
  182.6150  178.8520  142.7310 C   0  0  0  0  0  3  0  0  0  0  0  0
  183.3250  178.9630  145.0840 C   0  0  0  0  0  1  0  0  0  0  0  0
  180.3240  179.6980  141.9880 C   0  0  2  0  0  3  0  0  0  0  0  0
  181.1700  179.0570  143.0960 C   0  0  1  0  0  3  0  0  0  0  0  0
  180.2860  178.1950  142.2110 C   0  0  0  0  0  2  0  0  0  0  0  0
  181.1020  179.9980  140.7930 N   0  0  0  0  0  2  0  0  0  0  0  0
  180.1850  180.5720  139.8210 C   0  0  0  0  0  2  0  0  0  0  0  0
  181.1890  181.0170  137.5810 C   0  0  0  0  0  3  0  0  0  0  0  0
  180.9440  181.4080  138.8380 C   0  0  0  0  0  3  0  0  0  0  0  0
  180.7270  179.7030  137.0160 C   0  0  2  0  0  3  0  0  0  0  0  0
  179.2110  179.6000  137.1490 C   0  0  0  0  0  1  0  0  0  0  0  0
  180.7750  177.5670  138.1760 C   0  0  0  0  0  0  0  0  0  0  0  0
  181.4490  178.5450  137.6590 C   0  0  0  0  0  0  0  0  0  0  0  0
  182.9110  178.5990  138.0690 C   0  0  0  0  0  2  0  0  0  0  0  0
  181.5870  175.7900  139.5250 C   0  0  0  0  0  2  0  0  0  0  0  0
  182.8100  176.6950  139.8290 C   0  0  0  0  0  2  0  0  0  0  0  0
  180.4550  176.5060  138.8380 C   0  0  0  0  0  3  0  0  0  0  0  0
  183.4970  177.2490  138.5610 C   0  0  0  0  0  2  0  0  0  0  0  0
  186.9760  178.8130  140.0160 O   0  0  0  0  0  0  0  0  0  0  0  0
  189.2490  177.2990  137.6800 O   0  0  0  0  0  0  0  0  0  0  0  0
  188.5550  176.6540  136.6420 C   0  0  0  0  0  0  0  0  0  0  0  0
  188.9530  177.2470  135.2980 C   0  0  0  0  0  1  0  0  0  0  0  0
  186.9830  178.0660  137.7420 C   0  0  2  0  0  3  0  0  0  0  0  0
  188.4150  178.3310  138.1570 C   0  0  1  0  0  3  0  0  0  0  0  0
  187.4270  177.7710  139.1630 C   0  0  1  0  0  3  0  0  0  0  0  0
  188.8820  175.1720  136.6530 C   0  0  0  0  0  1  0  0  0  0  0  0
  187.0780  176.8440  136.8760 C   0  0  0  0  0  2  0  0  0  0  0  0
  1  5  1  0  0  0  0
  1  6  1  0  0  0  0
  2 11  1  0  0  0  0
  3 16  1  0  0  0  0
  3 10  2  0  0  0  0
  4  7  1  0  0  0  0
  4  8  1  6  0  0  0
  7  9  1  0  0  0  0
  8  1  2  0  0  0  0
  9  5  2  0  0  0  0
 11 10  1  0  0  0  0
 11  7  2  0  0  0  0
 12  2  2  0  0  0  0
 12 15  1  0  0  0  0
 13 14  2  0  0  0  0
 13  2  1  0  0  0  0
 14  3  1  0  0  0  0
 15  4  1  0  0  0  0
 16 18  1  0  0  0  0
 17 16  2  0  0  0  0
 19 22  1  6  0  0  0
 19 21  1  0  0  0  0
 19 20  1  0  0  0  0
 20 17  1  6  0  0  0
 21 20  1  0  0  0  0
 23 22  1  0  0  0  0
 24 25  2  0  0  0  0
 25 23  1  0  0  0  0
 26 27  1  1  0  0  0
 26 24  1  0  0  0  0
 26 29  1  0  0  0  0
 28 33  2  0  0  0  0
 29 30  1  0  0  0  0
 29 28  2  0  0  0  0
 30 34  1  0  0  0  0
 31 32  1  0  0  0  0
 33 31  1  0  0  0  0
 34 32  1  0  0  0  0
 35 13  1  0  0  0  0
 37 42  1  0  0  0  0
 37 43  1  0  0  0  0
 37 36  1  0  0  0  0
 38 37  1  0  0  0  0
 39 43  1  6  0  0  0
 39 40  1  0  0  0  0
 39 41  1  0  0  0  0
 40 36  1  6  0  0  0
 40 41  1  0  0  0  0
 41 35  1  1  0  0  0
M  END
>  <MODEL>
6

>  <REMARK>
 VINA RESULT:      -9.1      1.360      2.097
  Name = 
  9 active torsions:
  status: ('A' for Active; 'I' for Inactive)
    1  A    between atoms: O_1  and  C_34
    2  A    between atoms: O_1  and  C_35
    3  A    between atoms: C_2  and  C_13
    4  A    between atoms: C_3  and  N_4
    5  A    between atoms: N_4  and  C_15
    6  A    between atoms: C_6  and  C_12
    7  A    between atoms: C_10  and  C_22
    8  A    between atoms: C_14  and  C_22
    9  A    between atoms: C_15  and  C_42
                            x       y       z     vdW  Elec       q    Type
                         _______ _______ _______ _____ _____    ______ ____

>  <TORSDO>
F 9

$$$$
=
 OpenBabel11052416333D

 43 49  0  0  1  0  0  0  0  0999 V2000
  191.3640  176.3820  146.9720 C   0  0  0  0  0  0  0  0  0  0  0  0
  187.5780  177.8420  143.9810 C   0  0  0  0  0  0  0  0  0  0  0  0
  188.6340  177.8590  141.3660 C   0  0  0  0  0  0  0  0  0  0  0  0
  189.1790  177.1160  146.1500 C   0  0  0  0  0  0  0  0  0  0  0  0
  191.8890  176.3560  145.7420 C   0  0  0  0  0  3  0  0  0  0  0  0
  192.2030  175.9970  148.1380 C   0  0  0  0  0  1  0  0  0  0  0  0
  189.7250  177.1080  144.7850 C   0  0  0  0  0  0  0  0  0  0  0  0
  189.9550  176.7750  147.1810 C   0  0  0  0  0  3  0  0  0  0  0  0
  191.0940  176.7190  144.6030 N   0  0  0  0  0  2  0  0  0  0  0  0
  189.4350  177.4820  142.4550 C   0  0  0  0  0  3  0  0  0  0  0  0
  188.9310  177.4680  143.7590 C   0  0  0  0  0  0  0  0  0  0  0  0
  187.0680  177.8480  145.2240 C   0  0  0  0  0  3  0  0  0  0  0  0
  186.7680  178.2190  142.8950 C   0  0  0  0  0  0  0  0  0  0  0  0
  187.3040  178.2240  141.6010 C   0  0  0  0  0  3  0  0  0  0  0  0
  187.8490  177.4880  146.3310 O   0  0  0  0  0  0  0  0  0  0  0  0
  189.1810  177.8820  139.9900 C   0  0  0  0  0  0  0  0  0  0  0  0
  188.4150  178.2800  138.9670 C   0  0  0  0  0  3  0  0  0  0  0  0
  190.5960  177.4500  139.7470 C   0  0  0  0  0  1  0  0  0  0  0  0
  188.1820  177.3110  136.6170 C   0  0  2  0  0  3  0  0  0  0  0  0
  188.8770  178.3230  137.5360 C   0  0  1  0  0  3  0  0  0  0  0  0
  187.7340  178.7630  136.6370 C   0  0  0  0  0  2  0  0  0  0  0  0
  187.2100  176.4870  137.3260 N   0  0  0  0  0  2  0  0  0  0  0  0
  185.9290  176.6730  136.6620 C   0  0  0  0  0  2  0  0  0  0  0  0
  185.2720  174.4620  135.7100 C   0  0  0  0  0  3  0  0  0  0  0  0
  185.7890  175.6870  135.5440 C   0  0  0  0  0  3  0  0  0  0  0  0
  184.7710  173.9460  137.0290 C   0  0  2  0  0  3  0  0  0  0  0  0
  185.7960  172.9820  137.6180 C   0  0  0  0  0  1  0  0  0  0  0  0
  182.3430  174.0490  137.0900 C   0  0  0  0  0  0  0  0  0  0  0  0
  183.4010  173.3290  136.8930 C   0  0  0  0  0  0  0  0  0  0  0  0
  183.1600  171.8290  136.8900 C   0  0  0  0  0  2  0  0  0  0  0  0
  180.0930  173.3170  137.2710 C   0  0  0  0  0  2  0  0  0  0  0  0
  180.6670  171.9150  137.6070 C   0  0  0  0  0  2  0  0  0  0  0  0
  181.1200  174.4160  137.2830 C   0  0  0  0  0  3  0  0  0  0  0  0
  181.6990  171.4080  136.5760 C   0  0  0  0  0  2  0  0  0  0  0  0
  185.4350  178.5860  143.1150 O   0  0  0  0  0  0  0  0  0  0  0  0
  183.4320  178.3130  140.1440 O   0  0  0  0  0  0  0  0  0  0  0  0
  182.0610  178.3220  140.4530 C   0  0  0  0  0  0  0  0  0  0  0  0
  181.3730  179.4840  139.7510 C   0  0  0  0  0  1  0  0  0  0  0  0
  183.2060  179.0850  142.3980 C   0  0  2  0  0  3  0  0  0  0  0  0
  184.0930  179.0150  141.1720 C   0  0  1  0  0  3  0  0  0  0  0  0
  184.3500  178.0880  142.3460 C   0  0  1  0  0  3  0  0  0  0  0  0
  181.4280  177.0180  140.0040 C   0  0  0  0  0  1  0  0  0  0  0  0
  181.9180  178.4600  141.9480 C   0  0  0  0  0  2  0  0  0  0  0  0
  1  8  1  0  0  0  0
  1  6  1  0  0  0  0
  2 12  2  0  0  0  0
  3 14  1  0  0  0  0
  3 10  2  0  0  0  0
  4 15  1  0  0  0  0
  4  8  2  0  0  0  0
  5  1  2  0  0  0  0
  7  4  1  0  0  0  0
  9  7  1  0  0  0  0
  9  5  1  0  0  0  0
 10 11  1  0  0  0  0
 11  2  1  0  0  0  0
 11  7  2  0  0  0  0
 12 15  1  0  0  0  0
 13 35  1  0  0  0  0
 13  2  1  0  0  0  0
 14 13  2  0  0  0  0
 16  3  1  0  0  0  0
 17 16  2  0  0  0  0
 18 16  1  0  0  0  0
 19 21  1  0  0  0  0
 19 22  1  1  0  0  0
 19 20  1  0  0  0  0
 20 17  1  1  0  0  0
 21 20  1  0  0  0  0
 23 22  1  0  0  0  0
 24 26  1  0  0  0  0
 25 24  2  0  0  0  0
 25 23  1  0  0  0  0
 26 27  1  6  0  0  0
 28 33  2  0  0  0  0
 29 26  1  0  0  0  0
 29 28  2  0  0  0  0
 30 29  1  0  0  0  0
 31 33  1  0  0  0  0
 31 32  1  0  0  0  0
 34 30  1  0  0  0  0
 34 32  1  0  0  0  0
 36 37  1  0  0  0  0
 37 43  1  0  0  0  0
 38 37  1  0  0  0  0
 39 43  1  6  0  0  0
 40 36  1  6  0  0  0
 40 41  1  0  0  0  0
 40 39  1  0  0  0  0
 41 39  1  0  0  0  0
 41 35  1  1  0  0  0
 42 37  1  0  0  0  0
M  END
>  <MODEL>
7

>  <REMARK>
 VINA RESULT:      -9.0      2.298      5.623
  Name = 
  9 active torsions:
  status: ('A' for Active; 'I' for Inactive)
    1  A    between atoms: O_1  and  C_34
    2  A    between atoms: O_1  and  C_35
    3  A    between atoms: C_2  and  C_13
    4  A    between atoms: C_3  and  N_4
    5  A    between atoms: N_4  and  C_15
    6  A    between atoms: C_6  and  C_12
    7  A    between atoms: C_10  and  C_22
    8  A    between atoms: C_14  and  C_22
    9  A    between atoms: C_15  and  C_42
                            x       y       z     vdW  Elec       q    Type
                         _______ _______ _______ _____ _____    ______ ____

>  <TORSDO>
F 9

$$$$
=
 OpenBabel11052416333D

 43 49  0  0  1  0  0  0  0  0999 V2000
  189.3850  177.7720  139.0860 C   0  0  0  0  0  0  0  0  0  0  0  0
  184.4500  178.6330  139.6460 C   0  0  0  0  0  0  0  0  0  0  0  0
  184.0060  178.7490  142.4280 C   0  0  0  0  0  0  0  0  0  0  0  0
  187.0130  178.1730  138.6390 C   0  0  1  0  0  3  0  0  0  0  0  0
  189.2130  177.8460  140.4110 C   0  0  0  0  0  3  0  0  0  0  0  0
  190.7440  177.5290  138.5340 C   0  0  0  0  0  1  0  0  0  0  0  0
  186.7850  178.2510  140.0880 C   0  0  0  0  0  0  0  0  0  0  0  0
  188.2410  177.9450  138.1670 C   0  0  0  0  0  3  0  0  0  0  0  0
  187.9100  178.0850  140.9630 N   0  0  0  0  0  0  0  0  0  0  0  0
  185.2970  178.5300  141.9220 C   0  0  0  0  0  3  0  0  0  0  0  0
  185.5370  178.4680  140.5460 C   0  0  0  0  0  0  0  0  0  0  0  0
  184.6480  178.5680  138.3180 C   0  0  0  0  0  3  0  0  0  0  0  0
  183.1540  178.8550  140.1460 C   0  0  0  0  0  0  0  0  0  0  0  0
  182.9460  178.9100  141.5300 C   0  0  0  0  0  3  0  0  0  0  0  0
  185.9240  178.3390  137.7860 O   0  0  0  0  0  0  0  0  0  0  0  0
  183.7600  178.8010  143.8880 C   0  0  0  0  0  0  0  0  0  0  0  0
  184.7770  178.6700  144.7480 C   0  0  0  0  0  3  0  0  0  0  0  0
  182.3630  178.9950  144.3980 C   0  0  0  0  0  1  0  0  0  0  0  0
  185.8100  178.1000  147.0120 C   0  0  2  0  0  3  0  0  0  0  0  0
  184.6230  178.6960  146.2450 C   0  0  1  0  0  3  0  0  0  0  0  0
  185.6740  179.6060  146.8570 C   0  0  0  0  0  2  0  0  0  0  0  0
  186.8570  177.6070  146.1260 N   0  0  0  0  0  2  0  0  0  0  0  0
  187.7220  176.7520  146.9240 C   0  0  0  0  0  2  0  0  0  0  0  0
  189.8770  177.5020  147.9340 C   0  0  0  0  0  3  0  0  0  0  0  0
  188.5420  177.5880  147.8560 C   0  0  0  0  0  3  0  0  0  0  0  0
  190.6970  176.5640  147.0940 C   0  0  2  0  0  3  0  0  0  0  0  0
  192.0790  176.4030  147.7170 C   0  0  0  0  0  1  0  0  0  0  0  0
  191.2240  176.2320  144.7440 C   0  0  0  0  0  0  0  0  0  0  0  0
  190.7550  177.0210  145.6580 C   0  0  0  0  0  0  0  0  0  0  0  0
  190.6340  178.4770  145.2410 C   0  0  0  0  0  2  0  0  0  0  0  0
  191.7440  176.7580  142.4890 C   0  0  0  0  0  2  0  0  0  0  0  0
  191.8110  178.2410  142.9410 C   0  0  0  0  0  2  0  0  0  0  0  0
  191.6830  175.7760  143.6270 C   0  0  0  0  0  3  0  0  0  0  0  0
  190.5550  178.7100  143.7090 C   0  0  0  0  0  2  0  0  0  0  0  0
  182.0840  179.0180  139.2570 O   0  0  0  0  0  0  0  0  0  0  0  0
  179.4000  181.0510  137.9990 O   0  0  0  0  0  0  0  0  0  0  0  0
  179.8310  182.3670  137.7580 C   0  0  0  0  0  0  0  0  0  0  0  0
  179.6180  182.7280  136.2950 C   0  0  0  0  0  1  0  0  0  0  0  0
  181.7940  181.0410  138.0100 C   0  0  2  0  0  3  0  0  0  0  0  0
  180.5310  180.2160  137.8750 C   0  0  1  0  0  3  0  0  0  0  0  0
  181.3070  180.2030  139.1790 C   0  0  1  0  0  3  0  0  0  0  0  0
  179.0470  183.3280  138.6320 C   0  0  0  0  0  1  0  0  0  0  0  0
  181.2950  182.4530  138.1060 C   0  0  0  0  0  2  0  0  0  0  0  0
  1  5  1  0  0  0  0
  2 13  1  0  0  0  0
  2 11  1  0  0  0  0
  3 16  1  0  0  0  0
  4  8  1  1  0  0  0
  4  7  1  0  0  0  0
  5  9  2  0  0  0  0
  6  1  1  0  0  0  0
  7 11  2  0  0  0  0
  7  9  1  0  0  0  0
  8  1  2  0  0  0  0
 10  3  2  0  0  0  0
 11 10  1  0  0  0  0
 12  2  2  0  0  0  0
 13 14  2  0  0  0  0
 14  3  1  0  0  0  0
 15 12  1  0  0  0  0
 15  4  1  0  0  0  0
 16 18  1  0  0  0  0
 16 17  2  0  0  0  0
 19 22  1  6  0  0  0
 20 17  1  6  0  0  0
 20 21  1  0  0  0  0
 20 19  1  0  0  0  0
 21 19  1  0  0  0  0
 22 23  1  0  0  0  0
 23 25  1  0  0  0  0
 25 24  2  0  0  0  0
 26 27  1  1  0  0  0
 26 24  1  0  0  0  0
 28 29  2  0  0  0  0
 29 26  1  0  0  0  0
 30 29  1  0  0  0  0
 31 32  1  0  0  0  0
 31 33  1  0  0  0  0
 32 34  1  0  0  0  0
 33 28  2  0  0  0  0
 34 30  1  0  0  0  0
 35 13  1  0  0  0  0
 37 36  1  0  0  0  0
 37 43  1  0  0  0  0
 37 42  1  0  0  0  0
 38 37  1  0  0  0  0
 39 43  1  1  0  0  0
 39 41  1  0  0  0  0
 40 36  1  1  0  0  0
 40 39  1  0  0  0  0
 40 41  1  0  0  0  0
 41 35  1  6  0  0  0
M  END
>  <MODEL>
8

>  <REMARK>
 VINA RESULT:      -9.0      2.628      8.340
  Name = 
  9 active torsions:
  status: ('A' for Active; 'I' for Inactive)
    1  A    between atoms: O_1  and  C_34
    2  A    between atoms: O_1  and  C_35
    3  A    between atoms: C_2  and  C_13
    4  A    between atoms: C_3  and  N_4
    5  A    between atoms: N_4  and  C_15
    6  A    between atoms: C_6  and  C_12
    7  A    between atoms: C_10  and  C_22
    8  A    between atoms: C_14  and  C_22
    9  A    between atoms: C_15  and  C_42
                            x       y       z     vdW  Elec       q    Type
                         _______ _______ _______ _____ _____    ______ ____

>  <TORSDO>
F 9

$$$$
=
 OpenBabel11052416333D

 43 49  0  0  1  0  0  0  0  0999 V2000
  191.5370  176.3680  147.1050 C   0  0  0  0  0  0  0  0  0  0  0  0
  187.7480  177.8260  144.1160 C   0  0  0  0  0  0  0  0  0  0  0  0
  188.7930  177.8090  141.4970 C   0  0  0  0  0  0  0  0  0  0  0  0
  189.3530  177.1100  146.2860 C   0  0  0  0  0  0  0  0  0  0  0  0
  192.0550  176.3250  145.8740 C   0  0  0  0  0  3  0  0  0  0  0  0
  192.3780  175.9880  148.2720 C   0  0  0  0  0  1  0  0  0  0  0  0
  189.8930  177.0840  144.9190 C   0  0  0  0  0  0  0  0  0  0  0  0
  190.1310  176.7730  147.3170 C   0  0  0  0  0  3  0  0  0  0  0  0
  191.2580  176.6830  144.7350 N   0  0  0  0  0  2  0  0  0  0  0  0
  189.5960  177.4370  142.5860 C   0  0  0  0  0  3  0  0  0  0  0  0
  189.0980  177.4400  143.8920 C   0  0  0  0  0  0  0  0  0  0  0  0
  187.2440  177.8480  145.3620 C   0  0  0  0  0  3  0  0  0  0  0  0
  186.9370  178.1970  143.0300 C   0  0  0  0  0  0  0  0  0  0  0  0
  187.4670  178.1850  141.7330 C   0  0  0  0  0  3  0  0  0  0  0  0
  188.0270  177.4940  146.4680 O   0  0  0  0  0  0  0  0  0  0  0  0
  189.3340  177.8130  140.1180 C   0  0  0  0  0  0  0  0  0  0  0  0
  188.6210  178.3420  139.1160 C   0  0  0  0  0  3  0  0  0  0  0  0
  190.6830  177.2170  139.8490 C   0  0  0  0  0  1  0  0  0  0  0  0
  188.4130  177.3360  136.7790 C   0  0  2  0  0  3  0  0  0  0  0  0
  189.0800  178.3800  137.6840 C   0  0  1  0  0  3  0  0  0  0  0  0
  187.9250  178.7760  136.7810 C   0  0  0  0  0  2  0  0  0  0  0  0
  187.4660  176.4950  137.5000 N   0  0  0  0  0  2  0  0  0  0  0  0
  186.4570  176.0710  136.5410 C   0  0  0  0  0  2  0  0  0  0  0  0
  187.2820  174.0030  135.4150 C   0  0  0  0  0  3  0  0  0  0  0  0
  187.1080  175.3310  135.4140 C   0  0  0  0  0  3  0  0  0  0  0  0
  186.8420  173.1100  136.5410 C   0  0  2  0  0  3  0  0  0  0  0  0
  188.0180  172.2530  136.9970 C   0  0  0  0  0  1  0  0  0  0  0  0
  184.5110  172.4600  136.7680 C   0  0  0  0  0  0  0  0  0  0  0  0
  185.6370  172.2900  136.1530 C   0  0  0  0  0  0  0  0  0  0  0  0
  185.7270  171.0170  135.3290 C   0  0  0  0  0  2  0  0  0  0  0  0
  182.5520  171.1280  136.6210 C   0  0  0  0  0  2  0  0  0  0  0  0
  183.4690  169.9920  136.0940 C   0  0  0  0  0  2  0  0  0  0  0  0
  183.3020  172.3010  137.1920 C   0  0  0  0  0  3  0  0  0  0  0  0
  184.3590  170.4200  134.9050 C   0  0  0  0  0  2  0  0  0  0  0  0
  185.6070  178.5770  143.2520 O   0  0  0  0  0  0  0  0  0  0  0  0
  183.5950  178.2980  140.2870 O   0  0  0  0  0  0  0  0  0  0  0  0
  182.2250  178.3240  140.5990 C   0  0  0  0  0  0  0  0  0  0  0  0
  181.5470  179.4860  139.8890 C   0  0  0  0  0  1  0  0  0  0  0  0
  183.3810  179.0920  142.5350 C   0  0  2  0  0  3  0  0  0  0  0  0
  184.2660  179.0030  141.3080 C   0  0  1  0  0  3  0  0  0  0  0  0
  184.5150  178.0830  142.4890 C   0  0  1  0  0  3  0  0  0  0  0  0
  181.5780  177.0230  140.1610 C   0  0  0  0  0  1  0  0  0  0  0  0
  182.0860  178.4760  142.0930 C   0  0  0  0  0  2  0  0  0  0  0  0
  1  8  1  0  0  0  0
  1  6  1  0  0  0  0
  2 12  2  0  0  0  0
  3 14  1  0  0  0  0
  3 10  2  0  0  0  0
  4 15  1  0  0  0  0
  4  8  2  0  0  0  0
  5  1  2  0  0  0  0
  7  4  1  0  0  0  0
  9  7  1  0  0  0  0
  9  5  1  0  0  0  0
 10 11  1  0  0  0  0
 11  2  1  0  0  0  0
 11  7  2  0  0  0  0
 12 15  1  0  0  0  0
 13 35  1  0  0  0  0
 13  2  1  0  0  0  0
 14 13  2  0  0  0  0
 16  3  1  0  0  0  0
 17 16  2  0  0  0  0
 18 16  1  0  0  0  0
 19 21  1  0  0  0  0
 19 22  1  1  0  0  0
 19 20  1  0  0  0  0
 20 17  1  1  0  0  0
 21 20  1  0  0  0  0
 23 22  1  0  0  0  0
 24 26  1  0  0  0  0
 25 24  2  0  0  0  0
 25 23  1  0  0  0  0
 26 27  1  6  0  0  0
 28 33  2  0  0  0  0
 29 26  1  0  0  0  0
 29 28  2  0  0  0  0
 30 29  1  0  0  0  0
 31 33  1  0  0  0  0
 32 31  1  0  0  0  0
 34 30  1  0  0  0  0
 34 32  1  0  0  0  0
 36 37  1  0  0  0  0
 37 43  1  0  0  0  0
 38 37  1  0  0  0  0
 39 43  1  6  0  0  0
 40 36  1  6  0  0  0
 40 41  1  0  0  0  0
 40 39  1  0  0  0  0
 41 39  1  0  0  0  0
 41 35  1  1  0  0  0
 42 37  1  0  0  0  0
M  END
>  <MODEL>
9

>  <REMARK>
 VINA RESULT:      -8.8      2.601      5.946
  Name = 
  9 active torsions:
  status: ('A' for Active; 'I' for Inactive)
    1  A    between atoms: O_1  and  C_34
    2  A    between atoms: O_1  and  C_35
    3  A    between atoms: C_2  and  C_13
    4  A    between atoms: C_3  and  N_4
    5  A    between atoms: N_4  and  C_15
    6  A    between atoms: C_6  and  C_12
    7  A    between atoms: C_10  and  C_22
    8  A    between atoms: C_14  and  C_22
    9  A    between atoms: C_15  and  C_42
                            x       y       z     vdW  Elec       q    Type
                         _______ _______ _______ _____ _____    ______ ____

>  <TORSDO>
F 9

$$$$
