=
 OpenBabel11052413113D

 31 35  0  0  1  0  0  0  0  0999 V2000
  189.9820  177.3130  147.1410 C   0  0  0  0  0  0  0  0  0  0  0  0
  188.4970  177.4310  143.7770 C   0  0  0  0  0  0  0  0  0  0  0  0
  187.1060  178.0080  144.0380 C   0  0  2  0  0  3  0  0  0  0  0  0
  185.3430  177.8980  145.8130 C   0  0  0  0  0  3  0  0  0  0  0  0
  189.4220  177.2130  144.8260 C   0  0  0  0  0  0  0  0  0  0  0  0
  191.2400  176.7640  146.8900 C   0  0  0  0  0  3  0  0  0  0  0  0
  186.4250  177.3720  145.2170 C   0  0  0  0  0  3  0  0  0  0  0  0
  190.1800  176.6490  142.1730 C   0  0  0  0  0  0  0  0  0  0  0  0
  189.6070  177.6490  148.4720 N   0  0  0  0  0  1  0  0  0  0  0  0
  186.8720  178.3670  141.5580 C   0  0  0  0  0  2  0  0  0  0  0  0
  184.6650  179.2030  145.4490 C   0  0  0  0  0  2  0  0  0  0  0  0
  191.0580  176.3840  143.2280 C   0  0  0  0  0  3  0  0  0  0  0  0
  188.9200  177.2070  142.4430 C   0  0  0  0  0  0  0  0  0  0  0  0
  189.1120  177.5240  146.1180 N   0  0  0  0  0  0  0  0  0  0  0  0
  184.8730  179.7190  144.0180 C   0  0  0  0  0  2  0  0  0  0  0  0
  190.6950  176.6720  144.5400 C   0  0  0  0  0  0  0  0  0  0  0  0
  191.5960  176.4440  145.5810 C   0  0  0  0  0  3  0  0  0  0  0  0
  188.0630  177.5600  141.3500 N   0  0  0  0  0  2  0  0  0  0  0  0
  186.1690  177.8880  142.8130 C   0  0  2  0  0  3  0  0  0  0  0  0
  184.8210  178.6040  142.9780 C   0  0  0  0  0  2  0  0  0  0  0  0
  192.3320  177.9010  140.6020 O   0  0  0  0  0  0  0  0  0  0  0  0
  191.6070  177.0200  140.0630 C   0  0  0  0  0  0  0  0  0  0  0  0
  190.5540  176.3900  140.8100 N   0  0  0  0  0  2  0  0  0  0  0  0
  192.3560  175.8660  135.9980 C   0  0  0  0  0  0  0  0  0  0  0  0
  193.1330  176.2640  138.2530 C   0  0  0  0  0  3  0  0  0  0  0  0
  189.5260  176.9440  138.0350 F   0  0  0  0  0  0  0  0  0  0  0  0
  192.6310  175.4650  134.5940 C   0  0  0  0  0  1  0  0  0  0  0  0
  193.3920  175.8860  136.9330 C   0  0  0  0  0  3  0  0  0  0  0  0
  190.7970  176.6030  137.7010 C   0  0  0  0  0  0  0  0  0  0  0  0
  191.8380  176.6260  138.6550 C   0  0  0  0  0  0  0  0  0  0  0  0
  191.0630  176.2240  136.3820 C   0  0  0  0  0  3  0  0  0  0  0  0
  1  9  1  0  0  0  0
  2  3  1  0  0  0  0
  2  5  1  0  0  0  0
  3  7  1  1  0  0  0
  5 14  1  0  0  0  0
  6  1  1  0  0  0  0
  7  4  2  0  0  0  0
  8 13  1  0  0  0  0
  8 12  2  0  0  0  0
 11  4  1  0  0  0  0
 12 16  1  0  0  0  0
 13  2  2  0  0  0  0
 14  1  2  0  0  0  0
 15 11  1  0  0  0  0
 16  5  2  0  0  0  0
 16 17  1  0  0  0  0
 17  6  2  0  0  0  0
 18 10  1  0  0  0  0
 18 13  1  0  0  0  0
 19 10  1  6  0  0  0
 19 20  1  0  0  0  0
 19  3  1  0  0  0  0
 20 15  1  0  0  0  0
 22 21  2  0  0  0  0
 22 23  1  0  0  0  0
 23  8  1  0  0  0  0
 24 31  2  0  0  0  0
 24 28  1  0  0  0  0
 25 30  1  0  0  0  0
 27 24  1  0  0  0  0
 28 25  2  0  0  0  0
 29 26  1  0  0  0  0
 29 30  2  0  0  0  0
 30 22  1  0  0  0  0
 31 29  1  0  0  0  0
M  END
>  <MODEL>
1

>  <REMARK>
 VINA RESULT:     -10.8      0.000      0.000
  Name = 
  2 active torsions:
  status: ('A' for Active; 'I' for Inactive)
    1  A    between atoms: C_9  and  C_22
    2  A    between atoms: C_15  and  N_23
                            x       y       z     vdW  Elec       q    Type
                         _______ _______ _______ _____ _____    ______ ____

>  <TORSDO>
F 2

$$$$
=
 OpenBabel11052413113D

 31 35  0  0  1  0  0  0  0  0999 V2000
  190.3560  177.1960  142.5230 C   0  0  0  0  0  0  0  0  0  0  0  0
  186.8650  178.3120  142.8430 C   0  0  0  0  0  0  0  0  0  0  0  0
  186.6430  178.3110  144.3550 C   0  0  2  0  0  3  0  0  0  0  0  0
  187.3610  176.9720  146.3450 C   0  0  0  0  0  3  0  0  0  0  0  0
  188.1040  177.9370  142.2710 C   0  0  0  0  0  0  0  0  0  0  0  0
  190.5350  177.1800  141.1390 C   0  0  0  0  0  3  0  0  0  0  0  0
  187.1760  177.0740  145.0200 C   0  0  0  0  0  3  0  0  0  0  0  0
  186.0070  178.7880  140.5940 C   0  0  0  0  0  0  0  0  0  0  0  0
  191.4240  176.8170  143.3810 N   0  0  0  0  0  1  0  0  0  0  0  0
  184.5200  179.6080  143.9690 C   0  0  0  0  0  2  0  0  0  0  0  0
  187.1200  178.0630  147.3700 C   0  0  0  0  0  2  0  0  0  0  0  0
  187.2180  178.3560  140.0440 C   0  0  0  0  0  3  0  0  0  0  0  0
  185.8450  178.8030  141.9880 C   0  0  0  0  0  0  0  0  0  0  0  0
  189.1600  177.5700  143.0520 N   0  0  0  0  0  0  0  0  0  0  0  0
  186.1320  179.1720  146.9850 C   0  0  0  0  0  2  0  0  0  0  0  0
  188.2620  177.9470  140.8680 C   0  0  0  0  0  0  0  0  0  0  0  0
  189.4810  177.5590  140.3090 C   0  0  0  0  0  3  0  0  0  0  0  0
  184.6360  179.3330  142.5470 N   0  0  0  0  0  2  0  0  0  0  0  0
  185.1540  178.4670  144.7420 C   0  0  2  0  0  3  0  0  0  0  0  0
  184.9080  178.6390  146.2470 C   0  0  0  0  0  2  0  0  0  0  0  0
  183.5130  177.3880  139.8970 O   0  0  0  0  0  0  0  0  0  0  0  0
  183.7250  178.5400  139.4290 C   0  0  0  0  0  0  0  0  0  0  0  0
  184.9310  179.2470  139.7580 N   0  0  0  0  0  2  0  0  0  0  0  0
  180.8420  180.4500  136.8880 C   0  0  0  0  0  0  0  0  0  0  0  0
  182.3130  180.4870  138.8070 C   0  0  0  0  0  3  0  0  0  0  0  0
  182.5520  177.2340  137.1120 F   0  0  0  0  0  0  0  0  0  0  0  0
  179.8440  181.1250  136.0180 C   0  0  0  0  0  1  0  0  0  0  0  0
  181.3750  181.1230  137.9900 C   0  0  0  0  0  3  0  0  0  0  0  0
  182.1840  178.5030  137.4210 C   0  0  0  0  0  0  0  0  0  0  0  0
  182.7290  179.1750  138.5360 C   0  0  0  0  0  0  0  0  0  0  0  0
  181.2460  179.1450  136.6060 C   0  0  0  0  0  3  0  0  0  0  0  0
  1 14  1  0  0  0  0
  1  9  1  0  0  0  0
  2  3  1  0  0  0  0
  3 19  1  0  0  0  0
  3  7  1  6  0  0  0
  4 11  1  0  0  0  0
  5  2  1  0  0  0  0
  5 14  2  0  0  0  0
  6  1  2  0  0  0  0
  7  4  2  0  0  0  0
  8 13  1  0  0  0  0
 12  8  2  0  0  0  0
 12 16  1  0  0  0  0
 13 18  1  0  0  0  0
 13  2  2  0  0  0  0
 15 11  1  0  0  0  0
 16  5  1  0  0  0  0
 17 16  2  0  0  0  0
 17  6  1  0  0  0  0
 18 10  1  0  0  0  0
 19 10  1  6  0  0  0
 19 20  1  0  0  0  0
 20 15  1  0  0  0  0
 22 23  1  0  0  0  0
 22 21  2  0  0  0  0
 23  8  1  0  0  0  0
 24 28  1  0  0  0  0
 26 29  1  0  0  0  0
 27 24  1  0  0  0  0
 28 25  2  0  0  0  0
 29 30  2  0  0  0  0
 30 25  1  0  0  0  0
 30 22  1  0  0  0  0
 31 24  2  0  0  0  0
 31 29  1  0  0  0  0
M  END
>  <MODEL>
2

>  <REMARK>
 VINA RESULT:      -9.8      4.170      6.879
  Name = 
  2 active torsions:
  status: ('A' for Active; 'I' for Inactive)
    1  A    between atoms: C_9  and  C_22
    2  A    between atoms: C_15  and  N_23
                            x       y       z     vdW  Elec       q    Type
                         _______ _______ _______ _____ _____    ______ ____

>  <TORSDO>
F 2

$$$$
=
 OpenBabel11052413113D

 31 35  0  0  1  0  0  0  0  0999 V2000
  184.1290  178.7390  144.3000 C   0  0  0  0  0  0  0  0  0  0  0  0
  187.6490  177.6800  144.1460 C   0  0  0  0  0  0  0  0  0  0  0  0
  188.0320  177.5510  145.6200 C   0  0  2  0  0  3  0  0  0  0  0  0
  187.5140  178.6910  147.7880 C   0  0  0  0  0  3  0  0  0  0  0  0
  186.3510  178.0760  143.7450 C   0  0  0  0  0  0  0  0  0  0  0  0
  183.8020  178.8750  142.9510 C   0  0  0  0  0  3  0  0  0  0  0  0
  187.5570  178.7120  146.4470 C   0  0  0  0  0  3  0  0  0  0  0  0
  188.2670  177.4250  141.7850 C   0  0  0  0  0  0  0  0  0  0  0  0
  183.1550  179.0160  145.2980 N   0  0  0  0  0  1  0  0  0  0  0  0
  190.1180  176.3430  144.8950 C   0  0  0  0  0  2  0  0  0  0  0  0
  187.8780  177.5190  148.6780 C   0  0  0  0  0  2  0  0  0  0  0  0
  186.9980  177.8770  141.4080 C   0  0  0  0  0  3  0  0  0  0  0  0
  188.5780  177.2900  143.1470 C   0  0  0  0  0  0  0  0  0  0  0  0
  185.3800  178.3480  144.6630 N   0  0  0  0  0  0  0  0  0  0  0  0
  188.8340  176.4720  148.0910 C   0  0  0  0  0  2  0  0  0  0  0  0
  186.0430  178.1880  142.3710 C   0  0  0  0  0  0  0  0  0  0  0  0
  184.7660  178.5950  141.9820 C   0  0  0  0  0  3  0  0  0  0  0  0
  189.8470  176.7410  143.5240 N   0  0  0  0  0  2  0  0  0  0  0  0
  189.5560  177.3960  145.8310 C   0  0  2  0  0  3  0  0  0  0  0  0
  189.9650  177.0970  147.2800 C   0  0  0  0  0  2  0  0  0  0  0  0
  188.9280  178.8140  139.2750 O   0  0  0  0  0  0  0  0  0  0  0  0
  189.5510  177.7610  139.5800 C   0  0  0  0  0  0  0  0  0  0  0  0
  189.2520  177.0680  140.8020 N   0  0  0  0  0  2  0  0  0  0  0  0
  192.5370  176.2170  136.9120 C   0  0  0  0  0  0  0  0  0  0  0  0
  190.2560  176.8780  137.3670 C   0  0  0  0  0  3  0  0  0  0  0  0
  192.3270  177.3940  140.3590 F   0  0  0  0  0  0  0  0  0  0  0  0
  193.5600  175.6800  135.9770 C   0  0  0  0  0  1  0  0  0  0  0  0
  191.2160  176.3740  136.4870 C   0  0  0  0  0  3  0  0  0  0  0  0
  191.9390  177.0680  139.1010 C   0  0  0  0  0  0  0  0  0  0  0  0
  190.6010  177.2310  138.6800 C   0  0  0  0  0  0  0  0  0  0  0  0
  192.8960  176.5630  138.2150 C   0  0  0  0  0  3  0  0  0  0  0  0
  1 14  1  0  0  0  0
  1  9  1  0  0  0  0
  2  3  1  0  0  0  0
  3 19  1  0  0  0  0
  3  7  1  1  0  0  0
  4 11  1  0  0  0  0
  5  2  1  0  0  0  0
  5 14  2  0  0  0  0
  6  1  2  0  0  0  0
  7  4  2  0  0  0  0
  8 13  1  0  0  0  0
 12  8  2  0  0  0  0
 12 16  1  0  0  0  0
 13 18  1  0  0  0  0
 13  2  2  0  0  0  0
 15 11  1  0  0  0  0
 16  5  1  0  0  0  0
 17 16  2  0  0  0  0
 17  6  1  0  0  0  0
 18 10  1  0  0  0  0
 19 10  1  6  0  0  0
 19 20  1  0  0  0  0
 20 15  1  0  0  0  0
 21 22  2  0  0  0  0
 22 23  1  0  0  0  0
 23  8  1  0  0  0  0
 24 31  1  0  0  0  0
 25 30  2  0  0  0  0
 27 24  1  0  0  0  0
 28 24  2  0  0  0  0
 28 25  1  0  0  0  0
 29 26  1  0  0  0  0
 30 29  1  0  0  0  0
 30 22  1  0  0  0  0
 31 29  2  0  0  0  0
M  END
>  <MODEL>
3

>  <REMARK>
 VINA RESULT:      -9.6      2.092      4.302
  Name = 
  2 active torsions:
  status: ('A' for Active; 'I' for Inactive)
    1  A    between atoms: C_9  and  C_22
    2  A    between atoms: C_15  and  N_23
                            x       y       z     vdW  Elec       q    Type
                         _______ _______ _______ _____ _____    ______ ____

>  <TORSDO>
F 2

$$$$
=
 OpenBabel11052413113D

 31 35  0  0  1  0  0  0  0  0999 V2000
  186.7450  177.8530  146.3300 C   0  0  0  0  0  0  0  0  0  0  0  0
  187.1140  178.2720  142.6940 C   0  0  0  0  0  0  0  0  0  0  0  0
  188.5610  177.8470  142.4460 C   0  0  2  0  0  3  0  0  0  0  0  0
  190.7720  177.9880  143.6120 C   0  0  0  0  0  3  0  0  0  0  0  0
  186.5460  178.2620  143.9900 C   0  0  0  0  0  0  0  0  0  0  0  0
  185.4290  178.2660  146.5430 C   0  0  0  0  0  3  0  0  0  0  0  0
  189.5180  178.4350  143.4440 C   0  0  0  0  0  3  0  0  0  0  0  0
  184.9540  179.0030  141.7870 C   0  0  0  0  0  0  0  0  0  0  0  0
  187.5420  177.4290  147.4290 N   0  0  0  0  0  1  0  0  0  0  0  0
  188.0420  177.7810  139.9840 C   0  0  0  0  0  2  0  0  0  0  0  0
  191.4130  176.8220  142.8870 C   0  0  0  0  0  2  0  0  0  0  0  0
  184.4290  179.0460  143.0820 C   0  0  0  0  0  3  0  0  0  0  0  0
  186.2790  178.5800  141.5900 C   0  0  0  0  0  0  0  0  0  0  0  0
  187.2680  177.8590  145.0750 N   0  0  0  0  0  0  0  0  0  0  0  0
  190.8150  176.4360  141.5270 C   0  0  0  0  0  2  0  0  0  0  0  0
  185.2060  178.6690  144.1730 C   0  0  0  0  0  0  0  0  0  0  0  0
  184.6570  178.6740  145.4560 C   0  0  0  0  0  3  0  0  0  0  0  0
  186.7800  178.4510  140.2540 N   0  0  0  0  0  2  0  0  0  0  0  0
  189.0570  178.2090  141.0270 C   0  0  2  0  0  3  0  0  0  0  0  0
  190.4450  177.6520  140.6820 C   0  0  0  0  0  2  0  0  0  0  0  0
  182.7990  177.4490  140.5210 O   0  0  0  0  0  0  0  0  0  0  0  0
  183.1100  178.5740  140.0440 C   0  0  0  0  0  0  0  0  0  0  0  0
  184.1540  179.3550  140.6470 N   0  0  0  0  0  2  0  0  0  0  0  0
  181.0350  180.1760  136.6460 C   0  0  0  0  0  0  0  0  0  0  0  0
  181.8750  180.4030  138.9020 C   0  0  0  0  0  3  0  0  0  0  0  0
  182.7160  177.0760  137.5840 F   0  0  0  0  0  0  0  0  0  0  0  0
  180.3130  180.7440  135.4780 C   0  0  0  0  0  1  0  0  0  0  0  0
  181.1960  180.9380  137.8050 C   0  0  0  0  0  3  0  0  0  0  0  0
  182.2300  178.3390  137.6820 C   0  0  0  0  0  0  0  0  0  0  0  0
  182.3990  179.1020  138.8580 C   0  0  0  0  0  0  0  0  0  0  0  0
  181.5500  178.8800  136.5860 C   0  0  0  0  0  3  0  0  0  0  0  0
  1  6  1  0  0  0  0
  1  9  1  0  0  0  0
  2  5  1  0  0  0  0
  3  2  1  0  0  0  0
  3  7  1  1  0  0  0
  5 16  2  0  0  0  0
  5 14  1  0  0  0  0
  7  4  2  0  0  0  0
  8 12  2  0  0  0  0
 10 18  1  0  0  0  0
 11  4  1  0  0  0  0
 12 16  1  0  0  0  0
 13  8  1  0  0  0  0
 13  2  2  0  0  0  0
 14  1  2  0  0  0  0
 15 11  1  0  0  0  0
 16 17  1  0  0  0  0
 17  6  2  0  0  0  0
 18 13  1  0  0  0  0
 19 10  1  6  0  0  0
 19  3  1  0  0  0  0
 20 19  1  0  0  0  0
 20 15  1  0  0  0  0
 22 21  2  0  0  0  0
 22 23  1  0  0  0  0
 23  8  1  0  0  0  0
 24 28  1  0  0  0  0
 26 29  1  0  0  0  0
 27 24  1  0  0  0  0
 28 25  2  0  0  0  0
 29 30  2  0  0  0  0
 30 25  1  0  0  0  0
 30 22  1  0  0  0  0
 31 24  2  0  0  0  0
 31 29  1  0  0  0  0
M  END
>  <MODEL>
4

>  <REMARK>
 VINA RESULT:      -9.4      4.118      7.298
  Name = 
  2 active torsions:
  status: ('A' for Active; 'I' for Inactive)
    1  A    between atoms: C_9  and  C_22
    2  A    between atoms: C_15  and  N_23
                            x       y       z     vdW  Elec       q    Type
                         _______ _______ _______ _____ _____    ______ ____

>  <TORSDO>
F 2

$$$$
=
 OpenBabel11052413113D

 31 35  0  0  1  0  0  0  0  0999 V2000
  187.2040  178.3730  136.4820 C   0  0  0  0  0  0  0  0  0  0  0  0
  186.3420  178.4110  140.0590 C   0  0  0  0  0  0  0  0  0  0  0  0
  184.8210  178.5680  140.0420 C   0  0  2  0  0  3  0  0  0  0  0  0
  183.0810  179.7320  138.6690 C   0  0  0  0  0  3  0  0  0  0  0  0
  187.0980  178.3510  138.8640 C   0  0  0  0  0  0  0  0  0  0  0  0
  188.5930  178.2530  136.5150 C   0  0  0  0  0  3  0  0  0  0  0  0
  184.3560  179.6170  139.0720 C   0  0  0  0  0  3  0  0  0  0  0  0
  188.4070  178.0940  141.3450 C   0  0  0  0  0  0  0  0  0  0  0  0
  186.5270  178.4530  135.2340 N   0  0  0  0  0  1  0  0  0  0  0  0
  184.8080  177.9710  142.4870 C   0  0  0  0  0  2  0  0  0  0  0  0
  181.9300  178.8310  139.0680 C   0  0  0  0  0  2  0  0  0  0  0  0
  189.1430  178.0990  140.1560 C   0  0  0  0  0  3  0  0  0  0  0  0
  187.0090  178.2110  141.2940 C   0  0  0  0  0  0  0  0  0  0  0  0
  186.4950  178.4180  137.6420 N   0  0  0  0  0  0  0  0  0  0  0  0
  182.0760  178.0610  140.3880 C   0  0  0  0  0  2  0  0  0  0  0  0
  188.5020  178.2120  138.9270 C   0  0  0  0  0  0  0  0  0  0  0  0
  189.2440  178.1700  137.7460 C   0  0  0  0  0  3  0  0  0  0  0  0
  186.2540  178.1140  142.5090 N   0  0  0  0  0  2  0  0  0  0  0  0
  184.2390  178.9030  141.4350 C   0  0  2  0  0  3  0  0  0  0  0  0
  182.7050  178.9030  141.4940 C   0  0  0  0  0  2  0  0  0  0  0  0
  188.5660  175.6880  143.0330 O   0  0  0  0  0  0  0  0  0  0  0  0
  189.1100  176.7560  143.4280 C   0  0  0  0  0  0  0  0  0  0  0  0
  189.0520  177.9420  142.6200 N   0  0  0  0  0  2  0  0  0  0  0  0
  191.2280  176.8520  147.1590 C   0  0  0  0  0  0  0  0  0  0  0  0
  191.2010  176.5720  144.7570 C   0  0  0  0  0  3  0  0  0  0  0  0
  187.8030  177.2720  145.9730 F   0  0  0  0  0  0  0  0  0  0  0  0
  191.9750  176.8820  148.4430 C   0  0  0  0  0  1  0  0  0  0  0  0
  191.9040  176.5990  145.9640 C   0  0  0  0  0  3  0  0  0  0  0  0
  189.1410  177.0490  145.9420 C   0  0  0  0  0  0  0  0  0  0  0  0
  189.8160  176.7950  144.7290 C   0  0  0  0  0  0  0  0  0  0  0  0
  189.8510  177.0760  147.1470 C   0  0  0  0  0  3  0  0  0  0  0  0
  1  6  2  0  0  0  0
  1 14  1  0  0  0  0
  2 13  2  0  0  0  0
  3  7  1  6  0  0  0
  3  2  1  0  0  0  0
  3 19  1  0  0  0  0
  4 11  1  0  0  0  0
  4  7  2  0  0  0  0
  5 16  1  0  0  0  0
  5  2  1  0  0  0  0
  6 17  1  0  0  0  0
  8 23  1  0  0  0  0
  9  1  1  0  0  0  0
 10 18  1  0  0  0  0
 11 15  1  0  0  0  0
 12  8  2  0  0  0  0
 13  8  1  0  0  0  0
 13 18  1  0  0  0  0
 14  5  2  0  0  0  0
 15 20  1  0  0  0  0
 16 12  1  0  0  0  0
 17 16  2  0  0  0  0
 19 20  1  6  0  0  0
 19 10  1  0  0  0  0
 21 22  2  0  0  0  0
 22 30  1  0  0  0  0
 23 22  1  0  0  0  0
 24 27  1  0  0  0  0
 25 28  1  0  0  0  0
 28 24  2  0  0  0  0
 29 26  1  0  0  0  0
 29 31  2  0  0  0  0
 30 25  2  0  0  0  0
 30 29  1  0  0  0  0
 31 24  1  0  0  0  0
M  END
>  <MODEL>
5

>  <REMARK>
 VINA RESULT:      -9.2      3.212      7.458
  Name = 
  2 active torsions:
  status: ('A' for Active; 'I' for Inactive)
    1  A    between atoms: C_9  and  C_22
    2  A    between atoms: C_15  and  N_23
                            x       y       z     vdW  Elec       q    Type
                         _______ _______ _______ _____ _____    ______ ____

>  <TORSDO>
F 2

$$$$
=
 OpenBabel11052413113D

 31 35  0  0  1  0  0  0  0  0999 V2000
  192.5200  176.0230  136.2610 C   0  0  0  0  0  0  0  0  0  0  0  0
  189.7370  177.2010  138.3580 C   0  0  0  0  0  0  0  0  0  0  0  0
  188.6060  177.3940  137.3480 C   0  0  2  0  0  3  0  0  0  0  0  0
  188.3340  178.1280  134.9700 C   0  0  0  0  0  3  0  0  0  0  0  0
  191.0180  176.7470  137.9650 C   0  0  0  0  0  0  0  0  0  0  0  0
  193.5490  175.8740  137.1920 C   0  0  0  0  0  3  0  0  0  0  0  0
  189.0550  178.1030  136.1020 C   0  0  0  0  0  3  0  0  0  0  0  0
  190.4990  177.2340  140.6900 C   0  0  0  0  0  0  0  0  0  0  0  0
  192.7570  175.7320  134.8900 N   0  0  0  0  0  1  0  0  0  0  0  0
  187.0100  177.5890  139.2850 C   0  0  0  0  0  2  0  0  0  0  0  0
  187.0080  177.4340  134.7360 C   0  0  0  0  0  2  0  0  0  0  0  0
  191.7760  176.8440  140.2750 C   0  0  0  0  0  3  0  0  0  0  0  0
  189.4740  177.3740  139.7410 C   0  0  0  0  0  0  0  0  0  0  0  0
  191.2930  176.4500  136.6630 N   0  0  0  0  0  0  0  0  0  0  0  0
  186.1650  177.1090  135.9770 C   0  0  0  0  0  2  0  0  0  0  0  0
  192.0350  176.5890  138.9320 C   0  0  0  0  0  0  0  0  0  0  0  0
  193.3020  176.1580  138.5350 C   0  0  0  0  0  3  0  0  0  0  0  0
  188.1470  177.6850  140.1850 N   0  0  0  0  0  2  0  0  0  0  0  0
  187.4020  178.1650  137.9380 C   0  0  2  0  0  3  0  0  0  0  0  0
  186.1810  178.2330  137.0090 C   0  0  0  0  0  2  0  0  0  0  0  0
  190.1780  175.2530  142.8430 O   0  0  0  0  0  0  0  0  0  0  0  0
  190.0480  176.4790  143.1090 C   0  0  0  0  0  0  0  0  0  0  0  0
  190.2060  177.4660  142.0780 N   0  0  0  0  0  2  0  0  0  0  0  0
  189.0610  177.7570  147.0850 C   0  0  0  0  0  0  0  0  0  0  0  0
  188.4700  177.4600  144.7590 C   0  0  0  0  0  3  0  0  0  0  0  0
  191.8990  176.2670  145.3400 F   0  0  0  0  0  0  0  0  0  0  0  0
  188.7060  178.2050  148.4570 C   0  0  0  0  0  1  0  0  0  0  0  0
  188.1350  177.8810  146.0480 C   0  0  0  0  0  3  0  0  0  0  0  0
  190.6640  176.7910  145.5450 C   0  0  0  0  0  0  0  0  0  0  0  0
  189.7340  176.9120  144.4900 C   0  0  0  0  0  0  0  0  0  0  0  0
  190.3220  177.2140  146.8330 C   0  0  0  0  0  3  0  0  0  0  0  0
  1 14  2  0  0  0  0
  1  6  1  0  0  0  0
  2 13  1  0  0  0  0
  3  7  1  6  0  0  0
  3 19  1  0  0  0  0
  3  2  1  0  0  0  0
  4  7  2  0  0  0  0
  5  2  2  0  0  0  0
  5 16  1  0  0  0  0
  6 17  2  0  0  0  0
  8 23  1  0  0  0  0
  9  1  1  0  0  0  0
 10 18  1  0  0  0  0
 11  4  1  0  0  0  0
 11 15  1  0  0  0  0
 12  8  1  0  0  0  0
 13 18  1  0  0  0  0
 13  8  2  0  0  0  0
 14  5  1  0  0  0  0
 15 20  1  0  0  0  0
 16 12  2  0  0  0  0
 17 16  1  0  0  0  0
 19 20  1  6  0  0  0
 19 10  1  0  0  0  0
 21 22  2  0  0  0  0
 22 30  1  0  0  0  0
 23 22  1  0  0  0  0
 24 27  1  0  0  0  0
 25 28  1  0  0  0  0
 26 29  1  0  0  0  0
 28 24  2  0  0  0  0
 29 31  2  0  0  0  0
 30 25  2  0  0  0  0
 30 29  1  0  0  0  0
 31 24  1  0  0  0  0
M  END
>  <MODEL>
6

>  <REMARK>
 VINA RESULT:      -8.9      2.960      8.176
  Name = 
  2 active torsions:
  status: ('A' for Active; 'I' for Inactive)
    1  A    between atoms: C_9  and  C_22
    2  A    between atoms: C_15  and  N_23
                            x       y       z     vdW  Elec       q    Type
                         _______ _______ _______ _____ _____    ______ ____

>  <TORSDO>
F 2

$$$$
=
 OpenBabel11052413113D

 31 35  0  0  1  0  0  0  0  0999 V2000
  190.0250  176.4630  143.4480 C   0  0  0  0  0  0  0  0  0  0  0  0
  188.4150  177.6360  140.3550 C   0  0  0  0  0  0  0  0  0  0  0  0
  189.3910  177.1840  139.2690 C   0  0  2  0  0  3  0  0  0  0  0  0
  191.8640  176.9290  138.9730 C   0  0  0  0  0  3  0  0  0  0  0  0
  188.6560  177.3820  141.7260 C   0  0  0  0  0  0  0  0  0  0  0  0
  189.1350  176.9020  144.4290 C   0  0  0  0  0  3  0  0  0  0  0  0
  190.8230  177.4800  139.6150 C   0  0  0  0  0  3  0  0  0  0  0  0
  186.2780  178.6810  140.9560 C   0  0  0  0  0  0  0  0  0  0  0  0
  191.2040  175.7610  143.8220 N   0  0  0  0  0  1  0  0  0  0  0  0
  187.6100  177.6860  137.5630 C   0  0  0  0  0  2  0  0  0  0  0  0
  191.7890  175.9090  137.8540 C   0  0  0  0  0  2  0  0  0  0  0  0
  186.5630  178.4760  142.3090 C   0  0  0  0  0  3  0  0  0  0  0  0
  187.1820  178.2280  139.9810 C   0  0  0  0  0  0  0  0  0  0  0  0
  189.7690  176.7080  142.1350 N   0  0  0  0  0  0  0  0  0  0  0  0
  190.4900  175.8660  137.0390 C   0  0  0  0  0  2  0  0  0  0  0  0
  187.7290  177.8230  142.6960 C   0  0  0  0  0  0  0  0  0  0  0  0
  187.9800  177.5850  144.0480 C   0  0  0  0  0  3  0  0  0  0  0  0
  186.8400  178.3610  138.5960 N   0  0  0  0  0  2  0  0  0  0  0  0
  189.0850  177.8130  137.8890 C   0  0  2  0  0  3  0  0  0  0  0  0
  189.9370  177.2570  136.7400 C   0  0  0  0  0  2  0  0  0  0  0  0
  183.6340  177.4650  140.5150 O   0  0  0  0  0  0  0  0  0  0  0  0
  183.7830  178.7030  140.3250 C   0  0  0  0  0  0  0  0  0  0  0  0
  185.0610  179.3220  140.5390 N   0  0  0  0  0  2  0  0  0  0  0  0
  180.5120  181.1350  138.9810 C   0  0  0  0  0  0  0  0  0  0  0  0
  182.8070  180.3950  138.7900 C   0  0  0  0  0  3  0  0  0  0  0  0
  181.1630  178.6610  141.5830 F   0  0  0  0  0  0  0  0  0  0  0  0
  179.3890  181.9840  138.5050 C   0  0  0  0  0  1  0  0  0  0  0  0
  181.7520  181.1940  138.3410 C   0  0  0  0  0  3  0  0  0  0  0  0
  181.3810  179.4790  140.5240 C   0  0  0  0  0  0  0  0  0  0  0  0
  182.6380  179.5310  139.8820 C   0  0  0  0  0  0  0  0  0  0  0  0
  180.3290  180.2800  140.0690 C   0  0  0  0  0  3  0  0  0  0  0  0
  1  9  1  0  0  0  0
  1  6  1  0  0  0  0
  2  5  1  0  0  0  0
  3  7  1  1  0  0  0
  3  2  1  0  0  0  0
  4  7  2  0  0  0  0
  5 14  1  0  0  0  0
  5 16  2  0  0  0  0
  8 12  2  0  0  0  0
 10 19  1  0  0  0  0
 10 18  1  0  0  0  0
 11  4  1  0  0  0  0
 12 16  1  0  0  0  0
 13  2  2  0  0  0  0
 13  8  1  0  0  0  0
 14  1  2  0  0  0  0
 15 11  1  0  0  0  0
 16 17  1  0  0  0  0
 17  6  2  0  0  0  0
 18 13  1  0  0  0  0
 19 20  1  6  0  0  0
 19  3  1  0  0  0  0
 20 15  1  0  0  0  0
 22 21  2  0  0  0  0
 22 23  1  0  0  0  0
 23  8  1  0  0  0  0
 24 31  1  0  0  0  0
 25 30  2  0  0  0  0
 27 24  1  0  0  0  0
 28 25  1  0  0  0  0
 28 24  2  0  0  0  0
 29 26  1  0  0  0  0
 30 22  1  0  0  0  0
 30 29  1  0  0  0  0
 31 29  2  0  0  0  0
M  END
>  <MODEL>
7

>  <REMARK>
 VINA RESULT:      -8.9      3.904      8.027
  Name = 
  2 active torsions:
  status: ('A' for Active; 'I' for Inactive)
    1  A    between atoms: C_9  and  C_22
    2  A    between atoms: C_15  and  N_23
                            x       y       z     vdW  Elec       q    Type
                         _______ _______ _______ _____ _____    ______ ____

>  <TORSDO>
F 2

$$$$
=
 OpenBabel11052413113D

 31 35  0  0  1  0  0  0  0  0999 V2000
  187.1820  178.0490  147.6600 C   0  0  0  0  0  0  0  0  0  0  0  0
  187.5990  177.8990  144.0080 C   0  0  0  0  0  0  0  0  0  0  0  0
  189.0650  177.4980  143.8470 C   0  0  2  0  0  3  0  0  0  0  0  0
  191.2490  177.9120  145.0010 C   0  0  0  0  0  3  0  0  0  0  0  0
  187.0090  178.0730  145.2830 C   0  0  0  0  0  0  0  0  0  0  0  0
  185.8480  178.4370  147.7900 C   0  0  0  0  0  3  0  0  0  0  0  0
  189.9820  178.2760  144.7490 C   0  0  0  0  0  3  0  0  0  0  0  0
  185.4290  178.3890  142.9720 C   0  0  0  0  0  0  0  0  0  0  0  0
  187.9760  177.8380  148.8210 N   0  0  0  0  0  1  0  0  0  0  0  0
  188.5920  177.0200  141.4220 C   0  0  0  0  0  2  0  0  0  0  0  0
  191.9460  176.6720  144.4780 C   0  0  0  0  0  2  0  0  0  0  0  0
  184.8810  178.6160  144.2380 C   0  0  0  0  0  3  0  0  0  0  0  0
  186.7720  177.9940  142.8600 C   0  0  0  0  0  0  0  0  0  0  0  0
  187.7260  177.8770  146.4260 N   0  0  0  0  0  0  0  0  0  0  0  0
  191.3870  176.0510  143.1910 C   0  0  0  0  0  2  0  0  0  0  0  0
  185.6520  178.4490  145.3830 C   0  0  0  0  0  0  0  0  0  0  0  0
  185.0800  178.6360  146.6430 C   0  0  0  0  0  3  0  0  0  0  0  0
  187.3020  177.6740  141.5670 N   0  0  0  0  0  2  0  0  0  0  0  0
  189.5710  177.6490  142.3940 C   0  0  2  0  0  3  0  0  0  0  0  0
  190.9860  177.1010  142.1580 C   0  0  0  0  0  2  0  0  0  0  0  0
  182.5150  178.7350  142.7500 O   0  0  0  0  0  0  0  0  0  0  0  0
  183.2110  178.6850  141.7000 C   0  0  0  0  0  0  0  0  0  0  0  0
  184.6360  178.5220  141.7810 N   0  0  0  0  0  2  0  0  0  0  0  0
  181.3960  179.0640  137.8300 C   0  0  0  0  0  0  0  0  0  0  0  0
  183.1020  179.6830  139.4270 C   0  0  0  0  0  3  0  0  0  0  0  0
  180.8670  177.1640  140.9010 F   0  0  0  0  0  0  0  0  0  0  0  0
  180.7780  179.2060  136.4860 C   0  0  0  0  0  1  0  0  0  0  0  0
  182.5220  179.8180  138.1640 C   0  0  0  0  0  3  0  0  0  0  0  0
  181.4260  178.0370  140.0260 C   0  0  0  0  0  0  0  0  0  0  0  0
  182.5650  178.7960  140.3730 C   0  0  0  0  0  0  0  0  0  0  0  0
  180.8500  178.1770  138.7590 C   0  0  0  0  0  3  0  0  0  0  0  0
  1  6  1  0  0  0  0
  1  9  1  0  0  0  0
  2  5  1  0  0  0  0
  3  2  1  0  0  0  0
  3  7  1  1  0  0  0
  5 16  2  0  0  0  0
  5 14  1  0  0  0  0
  7  4  2  0  0  0  0
  8 12  2  0  0  0  0
 10 18  1  0  0  0  0
 11  4  1  0  0  0  0
 12 16  1  0  0  0  0
 13  8  1  0  0  0  0
 13  2  2  0  0  0  0
 14  1  2  0  0  0  0
 15 11  1  0  0  0  0
 16 17  1  0  0  0  0
 17  6  2  0  0  0  0
 18 13  1  0  0  0  0
 19 10  1  6  0  0  0
 19  3  1  0  0  0  0
 20 19  1  0  0  0  0
 20 15  1  0  0  0  0
 22 23  1  0  0  0  0
 22 21  2  0  0  0  0
 23  8  1  0  0  0  0
 24 28  2  0  0  0  0
 24 31  1  0  0  0  0
 25 30  2  0  0  0  0
 27 24  1  0  0  0  0
 28 25  1  0  0  0  0
 29 30  1  0  0  0  0
 29 26  1  0  0  0  0
 30 22  1  0  0  0  0
 31 29  2  0  0  0  0
M  END
>  <MODEL>
8

>  <REMARK>
 VINA RESULT:      -8.8      3.836      7.141
  Name = 
  2 active torsions:
  status: ('A' for Active; 'I' for Inactive)
    1  A    between atoms: C_9  and  C_22
    2  A    between atoms: C_15  and  N_23
                            x       y       z     vdW  Elec       q    Type
                         _______ _______ _______ _____ _____    ______ ____

>  <TORSDO>
F 2

$$$$
=
 OpenBabel11052413113D

 31 35  0  0  1  0  0  0  0  0999 V2000
  186.7710  177.8920  145.4420 C   0  0  0  0  0  0  0  0  0  0  0  0
  186.8180  178.3600  141.7930 C   0  0  0  0  0  0  0  0  0  0  0  0
  188.2440  177.9580  141.4150 C   0  0  2  0  0  3  0  0  0  0  0  0
  190.5460  178.1160  142.3870 C   0  0  0  0  0  3  0  0  0  0  0  0
  186.3650  178.3270  143.1330 C   0  0  0  0  0  0  0  0  0  0  0  0
  185.4740  178.2840  145.7730 C   0  0  0  0  0  3  0  0  0  0  0  0
  189.2760  178.5480  142.3340 C   0  0  0  0  0  3  0  0  0  0  0  0
  184.5790  179.0710  141.0860 C   0  0  0  0  0  0  0  0  0  0  0  0
  187.6660  177.4660  146.4620 N   0  0  0  0  0  1  0  0  0  0  0  0
  187.5140  177.9140  139.0070 C   0  0  0  0  0  2  0  0  0  0  0  0
  191.1360  176.9680  141.5940 C   0  0  0  0  0  2  0  0  0  0  0  0
  184.1680  179.0910  142.4220 C   0  0  0  0  0  3  0  0  0  0  0  0
  185.8870  178.6700  140.7690 C   0  0  0  0  0  0  0  0  0  0  0  0
  187.1830  177.9210  144.1460 N   0  0  0  0  0  0  0  0  0  0  0  0
  190.4280  176.5910  140.2860 C   0  0  0  0  0  2  0  0  0  0  0  0
  185.0410  178.7130  143.4370 C   0  0  0  0  0  0  0  0  0  0  0  0
  184.6050  178.6940  144.7620 C   0  0  0  0  0  3  0  0  0  0  0  0
  186.2720  178.5640  139.3930 N   0  0  0  0  0  2  0  0  0  0  0  0
  188.6100  178.3440  139.9630 C   0  0  2  0  0  3  0  0  0  0  0  0
  189.9700  177.8110  139.4920 C   0  0  0  0  0  2  0  0  0  0  0  0
  181.6980  178.5070  140.8730 O   0  0  0  0  0  0  0  0  0  0  0  0
  182.2740  179.1330  139.9410 C   0  0  0  0  0  0  0  0  0  0  0  0
  183.6780  179.4260  140.0240 N   0  0  0  0  0  2  0  0  0  0  0  0
  180.1000  180.3630  136.4520 C   0  0  0  0  0  0  0  0  0  0  0  0
  181.8780  179.0940  137.4890 C   0  0  0  0  0  3  0  0  0  0  0  0
  180.0110  180.9530  140.0520 F   0  0  0  0  0  0  0  0  0  0  0  0
  179.3570  180.7810  135.2340 C   0  0  0  0  0  1  0  0  0  0  0  0
  181.1810  179.4860  136.3430 C   0  0  0  0  0  3  0  0  0  0  0  0
  180.4130  180.4600  138.8540 C   0  0  0  0  0  0  0  0  0  0  0  0
  181.5070  179.5730  138.7540 C   0  0  0  0  0  0  0  0  0  0  0  0
  179.7190  180.8480  137.7030 C   0  0  0  0  0  3  0  0  0  0  0  0
  1  6  1  0  0  0  0
  1  9  1  0  0  0  0
  2  5  1  0  0  0  0
  3  2  1  0  0  0  0
  3  7  1  1  0  0  0
  5 16  2  0  0  0  0
  5 14  1  0  0  0  0
  7  4  2  0  0  0  0
  8 12  2  0  0  0  0
 10 18  1  0  0  0  0
 11  4  1  0  0  0  0
 12 16  1  0  0  0  0
 13  8  1  0  0  0  0
 13  2  2  0  0  0  0
 14  1  2  0  0  0  0
 15 11  1  0  0  0  0
 16 17  1  0  0  0  0
 17  6  2  0  0  0  0
 18 13  1  0  0  0  0
 19 10  1  6  0  0  0
 19  3  1  0  0  0  0
 20 19  1  0  0  0  0
 20 15  1  0  0  0  0
 22 23  1  0  0  0  0
 22 21  2  0  0  0  0
 23  8  1  0  0  0  0
 24 31  1  0  0  0  0
 25 30  2  0  0  0  0
 27 24  1  0  0  0  0
 28 24  2  0  0  0  0
 28 25  1  0  0  0  0
 29 26  1  0  0  0  0
 30 29  1  0  0  0  0
 30 22  1  0  0  0  0
 31 29  2  0  0  0  0
M  END
>  <MODEL>
9

>  <REMARK>
 VINA RESULT:      -8.5      4.769      7.980
  Name = 
  2 active torsions:
  status: ('A' for Active; 'I' for Inactive)
    1  A    between atoms: C_9  and  C_22
    2  A    between atoms: C_15  and  N_23
                            x       y       z     vdW  Elec       q    Type
                         _______ _______ _______ _____ _____    ______ ____

>  <TORSDO>
F 2

$$$$
