=
 OpenBabel11052416553D

 32 36  0  0  1  0  0  0  0  0999 V2000
  189.0630  177.0670  142.2690 C   0  0  0  0  0  0  0  0  0  0  0  0
  191.1290  176.9500  146.6020 C   0  0  0  0  0  3  0  0  0  0  0  0
  189.8920  177.0270  147.1620 N   0  0  0  0  0  0  0  0  0  0  0  0
  190.6860  176.9600  140.8930 N   0  0  0  0  0  0  0  0  0  0  0  0
  191.2440  176.9280  142.1320 C   0  0  0  0  0  3  0  0  0  0  0  0
  191.2750  176.9370  145.2130 C   0  0  0  0  0  3  0  0  0  0  0  0
  190.1950  176.9980  143.0240 C   0  0  0  0  0  0  0  0  0  0  0  0
  190.1330  177.0060  144.4130 C   0  0  0  0  0  0  0  0  0  0  0  0
  187.6930  177.1580  144.1780 C   0  0  0  0  0  0  0  0  0  0  0  0
  188.7620  177.0950  146.4050 C   0  0  0  0  0  3  0  0  0  0  0  0
  188.8480  177.0880  145.0080 C   0  0  0  0  0  0  0  0  0  0  0  0
  189.3590  177.0450  140.9630 N   0  0  0  0  0  0  0  0  0  0  0  0
  187.8260  177.1470  142.8160 N   0  0  0  0  0  0  0  0  0  0  0  0
  191.3850  176.3750  137.2690 C   0  0  0  0  0  3  0  0  0  0  0  0
  190.7080  176.6960  138.3760 C   0  0  0  0  0  3  0  0  0  0  0  0
  193.5190  177.0760  138.3600 C   0  0  0  0  0  2  0  0  0  0  0  0
  191.4180  176.9120  139.6580 C   0  0  0  0  0  0  0  0  0  0  0  0
  192.7520  177.0480  139.6540 C   0  0  0  0  0  3  0  0  0  0  0  0
  192.8700  176.1440  137.3280 C   0  0  2  0  0  3  0  0  0  0  0  0
  193.4390  176.3510  136.0420 O   0  0  0  0  0  0  0  0  0  0  0  0
  194.8070  176.5540  135.8530 C   0  0  0  0  0  0  0  0  0  0  0  0
  195.6410  175.6570  136.1510 O   0  0  0  0  0  0  0  0  0  0  0  0
  195.2640  177.7850  135.3050 N   0  0  0  0  0  1  0  0  0  0  0  0
  186.3210  177.2530  144.7690 C   0  0  0  0  0  2  0  0  0  0  0  0
  184.6790  178.9880  143.8390 C   0  0  1  0  0  3  0  0  0  0  0  0
  185.1410  178.9400  146.0950 C   0  0  0  0  0  0  0  0  0  0  0  0
  183.7510  179.0530  145.9150 N   0  0  0  0  0  2  0  0  0  0  0  0
  183.4040  178.8970  144.5670 N   0  0  0  0  0  2  0  0  0  0  0  0
  185.7000  179.0480  147.2180 O   0  0  0  0  0  0  0  0  0  0  0  0
  185.8390  178.7050  144.8220 C   0  0  1  0  0  3  0  0  0  0  0  0
  184.6510  178.1480  142.5970 C   0  0  0  0  0  3  0  0  0  0  0  0
  184.8960  178.6900  141.4060 C   0  0  0  0  0  2  0  0  0  0  0  0
  1 13  1  0  0  0  0
  1  7  1  0  0  0  0
  2  3  1  0  0  0  0
  4 12  1  0  0  0  0
  4  5  1  0  0  0  0
  5  7  2  0  0  0  0
  6  2  2  0  0  0  0
  7  8  1  0  0  0  0
  8 11  2  0  0  0  0
  8  6  1  0  0  0  0
  9 24  1  0  0  0  0
  9 11  1  0  0  0  0
 10  3  2  0  0  0  0
 11 10  1  0  0  0  0
 12  1  2  0  0  0  0
 13  9  2  0  0  0  0
 14 19  1  0  0  0  0
 14 15  2  0  0  0  0
 15 17  1  0  0  0  0
 16 18  1  0  0  0  0
 17  4  1  0  0  0  0
 18 17  2  0  0  0  0
 19 20  1  6  0  0  0
 19 16  1  0  0  0  0
 21 20  1  0  0  0  0
 21 22  2  0  0  0  0
 23 21  1  0  0  0  0
 25 31  1  6  0  0  0
 25 28  1  0  0  0  0
 25 30  1  0  0  0  0
 26 29  2  0  0  0  0
 27 26  1  0  0  0  0
 28 27  1  0  0  0  0
 30 24  1  1  0  0  0
 30 26  1  0  0  0  0
 32 31  2  0  0  0  0
M  END
>  <MODEL>
1

>  <REMARK>
 VINA RESULT:      -9.5      0.000      0.000
  Name = 
  6 active torsions:
  status: ('A' for Active; 'I' for Inactive)
    1  A    between atoms: C_1  and  O_10
    2  A    between atoms: C_6  and  C_7
    3  A    between atoms: N_8  and  C_21
    4  A    between atoms: O_10  and  C_24
    5  A    between atoms: C_16  and  C_27
    6  A    between atoms: C_27  and  C_32
                            x       y       z     vdW  Elec       q    Type
                         _______ _______ _______ _____ _____    ______ ____

>  <TORSDO>
F 6

$$$$
=
 OpenBabel11052416553D

 32 36  0  0  1  0  0  0  0  0999 V2000
  185.8720  178.2910  142.3490 C   0  0  0  0  0  0  0  0  0  0  0  0
  181.2730  178.9990  143.5310 C   0  0  0  0  0  3  0  0  0  0  0  0
  180.9770  179.0910  142.2060 N   0  0  0  0  0  0  0  0  0  0  0  0
  186.8810  178.0630  144.2120 N   0  0  0  0  0  0  0  0  0  0  0  0
  185.5720  178.2640  144.5180 C   0  0  0  0  0  3  0  0  0  0  0  0
  182.5870  178.7710  143.9460 C   0  0  0  0  0  3  0  0  0  0  0  0
  184.9180  178.4130  143.3130 C   0  0  0  0  0  0  0  0  0  0  0  0
  183.5880  178.6410  142.9810 C   0  0  0  0  0  0  0  0  0  0  0  0
  184.2990  178.6060  140.6310 C   0  0  0  0  0  0  0  0  0  0  0  0
  181.9330  178.9670  141.2450 C   0  0  0  0  0  3  0  0  0  0  0  0
  183.2670  178.7410  141.6020 C   0  0  0  0  0  0  0  0  0  0  0  0
  187.0770  178.0770  142.8950 N   0  0  0  0  0  0  0  0  0  0  0  0
  185.5900  178.3830  141.0270 N   0  0  0  0  0  0  0  0  0  0  0  0
  190.3250  177.5290  145.5600 C   0  0  0  0  0  3  0  0  0  0  0  0
  189.3500  177.9790  144.7650 C   0  0  0  0  0  3  0  0  0  0  0  0
  188.7240  177.4120  147.4730 C   0  0  0  0  0  2  0  0  0  0  0  0
  187.9300  177.8610  145.1720 C   0  0  0  0  0  0  0  0  0  0  0  0
  187.6360  177.5490  146.4430 C   0  0  0  0  0  3  0  0  0  0  0  0
  189.9910  176.8180  146.8430 C   0  0  2  0  0  3  0  0  0  0  0  0
  191.0870  176.9130  147.7430 O   0  0  0  0  0  0  0  0  0  0  0  0
  192.1920  176.0630  147.6690 C   0  0  0  0  0  0  0  0  0  0  0  0
  192.3490  175.2920  146.6840 O   0  0  0  0  0  0  0  0  0  0  0  0
  193.1590  176.0780  148.7110 N   0  0  0  0  0  1  0  0  0  0  0  0
  184.0020  178.7110  139.1680 C   0  0  0  0  0  2  0  0  0  0  0  0
  182.9840  177.0650  137.4860 C   0  0  1  0  0  3  0  0  0  0  0  0
  185.2620  177.3990  137.5290 C   0  0  0  0  0  0  0  0  0  0  0  0
  184.8210  177.4270  136.1940 N   0  0  0  0  0  2  0  0  0  0  0  0
  183.4220  177.4180  136.1270 N   0  0  0  0  0  2  0  0  0  0  0  0
  186.4790  177.3960  137.8500 O   0  0  0  0  0  0  0  0  0  0  0  0
  184.1380  177.3520  138.4750 C   0  0  1  0  0  3  0  0  0  0  0  0
  181.6660  177.7040  137.8100 C   0  0  0  0  0  3  0  0  0  0  0  0
  181.0560  178.4860  136.9230 C   0  0  0  0  0  2  0  0  0  0  0  0
  1 12  2  0  0  0  0
  1  7  1  0  0  0  0
  2  6  1  0  0  0  0
  3  2  2  0  0  0  0
  4  5  1  0  0  0  0
  4 17  1  0  0  0  0
  7  5  2  0  0  0  0
  8  7  1  0  0  0  0
  8  6  2  0  0  0  0
  9 13  2  0  0  0  0
  9 11  1  0  0  0  0
 10 11  2  0  0  0  0
 10  3  1  0  0  0  0
 11  8  1  0  0  0  0
 12  4  1  0  0  0  0
 13  1  1  0  0  0  0
 14 19  1  0  0  0  0
 15 17  1  0  0  0  0
 15 14  2  0  0  0  0
 17 18  2  0  0  0  0
 18 16  1  0  0  0  0
 19 16  1  0  0  0  0
 19 20  1  1  0  0  0
 21 20  1  0  0  0  0
 21 23  1  0  0  0  0
 22 21  2  0  0  0  0
 24  9  1  0  0  0  0
 25 31  1  1  0  0  0
 25 30  1  0  0  0  0
 26 29  2  0  0  0  0
 26 30  1  0  0  0  0
 27 26  1  0  0  0  0
 28 27  1  0  0  0  0
 28 25  1  0  0  0  0
 30 24  1  6  0  0  0
 32 31  2  0  0  0  0
M  END
>  <MODEL>
2

>  <REMARK>
 VINA RESULT:      -8.7      4.833      8.282
  Name = 
  6 active torsions:
  status: ('A' for Active; 'I' for Inactive)
    1  A    between atoms: C_1  and  O_10
    2  A    between atoms: C_6  and  C_7
    3  A    between atoms: N_8  and  C_21
    4  A    between atoms: O_10  and  C_24
    5  A    between atoms: C_16  and  C_27
    6  A    between atoms: C_27  and  C_32
                            x       y       z     vdW  Elec       q    Type
                         _______ _______ _______ _____ _____    ______ ____

>  <TORSDO>
F 6

$$$$
=
 OpenBabel11052416553D

 32 36  0  0  1  0  0  0  0  0999 V2000
  185.7940  178.5460  141.7620 C   0  0  0  0  0  0  0  0  0  0  0  0
  185.7250  178.1410  146.5450 C   0  0  0  0  0  3  0  0  0  0  0  0
  184.4170  178.5160  146.5290 N   0  0  0  0  0  0  0  0  0  0  0  0
  187.7830  178.0240  141.2030 N   0  0  0  0  0  0  0  0  0  0  0  0
  187.7350  177.9160  142.5570 C   0  0  0  0  0  3  0  0  0  0  0  0
  186.4450  178.0410  145.3520 C   0  0  0  0  0  3  0  0  0  0  0  0
  186.4480  178.2550  142.9200 C   0  0  0  0  0  0  0  0  0  0  0  0
  185.8010  178.3320  144.1480 C   0  0  0  0  0  0  0  0  0  0  0  0
  183.7960  179.0180  142.9080 C   0  0  0  0  0  0  0  0  0  0  0  0
  183.7650  178.8050  145.3690 C   0  0  0  0  0  3  0  0  0  0  0  0
  184.4370  178.7240  144.1440 C   0  0  0  0  0  0  0  0  0  0  0  0
  186.6080  178.4070  140.7070 N   0  0  0  0  0  0  0  0  0  0  0  0
  184.4930  178.9230  141.7330 N   0  0  0  0  0  0  0  0  0  0  0  0
  189.8620  177.5070  138.1410 C   0  0  0  0  0  3  0  0  0  0  0  0
  188.9040  177.9970  138.9340 C   0  0  0  0  0  3  0  0  0  0  0  0
  191.3100  177.0930  140.1330 C   0  0  0  0  0  2  0  0  0  0  0  0
  188.9420  177.7640  140.3970 C   0  0  0  0  0  0  0  0  0  0  0  0
  190.0670  177.2950  140.9560 C   0  0  0  0  0  3  0  0  0  0  0  0
  190.9480  176.6380  138.7130 C   0  0  2  0  0  3  0  0  0  0  0  0
  192.0920  176.6810  137.8690 O   0  0  0  0  0  0  0  0  0  0  0  0
  193.0830  175.6990  137.9000 C   0  0  0  0  0  0  0  0  0  0  0  0
  194.2380  175.9590  138.3320 O   0  0  0  0  0  0  0  0  0  0  0  0
  192.7800  174.3840  137.4510 N   0  0  0  0  0  1  0  0  0  0  0  0
  182.3610  179.4410  142.8630 C   0  0  0  0  0  2  0  0  0  0  0  0
  180.1140  178.2650  142.4870 C   0  0  1  0  0  3  0  0  0  0  0  0
  181.2080  179.2410  140.7110 C   0  0  0  0  0  0  0  0  0  0  0  0
  179.8500  179.6010  140.6650 N   0  0  0  0  0  2  0  0  0  0  0  0
  179.1810  179.1890  141.8250 N   0  0  0  0  0  2  0  0  0  0  0  0
  182.0190  179.4970  139.7830 O   0  0  0  0  0  0  0  0  0  0  0  0
  181.5410  178.5240  141.9510 C   0  0  1  0  0  3  0  0  0  0  0  0
  179.9530  178.3140  143.9770 C   0  0  0  0  0  3  0  0  0  0  0  0
  179.0170  179.0800  144.5330 C   0  0  0  0  0  2  0  0  0  0  0  0
  1  7  1  0  0  0  0
  3  2  1  0  0  0  0
  4  5  1  0  0  0  0
  5  7  2  0  0  0  0
  6  2  2  0  0  0  0
  7  8  1  0  0  0  0
  8  6  1  0  0  0  0
  9 11  1  0  0  0  0
 10  3  2  0  0  0  0
 11  8  2  0  0  0  0
 11 10  1  0  0  0  0
 12  4  1  0  0  0  0
 12  1  2  0  0  0  0
 13  1  1  0  0  0  0
 13  9  2  0  0  0  0
 14 19  1  0  0  0  0
 14 15  2  0  0  0  0
 15 17  1  0  0  0  0
 16 18  1  0  0  0  0
 17 18  2  0  0  0  0
 17  4  1  0  0  0  0
 19 20  1  6  0  0  0
 19 16  1  0  0  0  0
 20 21  1  0  0  0  0
 21 22  2  0  0  0  0
 23 21  1  0  0  0  0
 24  9  1  0  0  0  0
 25 31  1  1  0  0  0
 26 30  1  0  0  0  0
 27 26  1  0  0  0  0
 27 28  1  0  0  0  0
 28 25  1  0  0  0  0
 29 26  2  0  0  0  0
 30 25  1  0  0  0  0
 30 24  1  1  0  0  0
 31 32  2  0  0  0  0
M  END
>  <MODEL>
3

>  <REMARK>
 VINA RESULT:      -8.6      3.128      4.556
  Name = 
  6 active torsions:
  status: ('A' for Active; 'I' for Inactive)
    1  A    between atoms: C_1  and  O_10
    2  A    between atoms: C_6  and  C_7
    3  A    between atoms: N_8  and  C_21
    4  A    between atoms: O_10  and  C_24
    5  A    between atoms: C_16  and  C_27
    6  A    between atoms: C_27  and  C_32
                            x       y       z     vdW  Elec       q    Type
                         _______ _______ _______ _____ _____    ______ ____

>  <TORSDO>
F 6

$$$$
=
 OpenBabel11052416553D

 32 36  0  0  1  0  0  0  0  0999 V2000
  189.5370  176.8470  141.5360 C   0  0  0  0  0  0  0  0  0  0  0  0
  185.3010  179.0620  141.0980 C   0  0  0  0  0  3  0  0  0  0  0  0
  185.0800  178.8390  142.4210 N   0  0  0  0  0  0  0  0  0  0  0  0
  190.3910  176.9190  139.5860 N   0  0  0  0  0  0  0  0  0  0  0  0
  189.1870  177.5430  139.4900 C   0  0  0  0  0  3  0  0  0  0  0  0
  186.4840  178.6270  140.4970 C   0  0  0  0  0  3  0  0  0  0  0  0
  188.6330  177.4960  140.7520 C   0  0  0  0  0  0  0  0  0  0  0  0
  187.4310  177.9590  141.2760 C   0  0  0  0  0  0  0  0  0  0  0  0
  188.1640  177.0470  143.4340 C   0  0  0  0  0  0  0  0  0  0  0  0
  185.9860  178.1910  143.2030 C   0  0  0  0  0  3  0  0  0  0  0  0
  187.1890  177.7300  142.6540 C   0  0  0  0  0  0  0  0  0  0  0  0
  190.6160  176.4910  140.8260 N   0  0  0  0  0  0  0  0  0  0  0  0
  189.3270  176.6160  142.8550 N   0  0  0  0  0  0  0  0  0  0  0  0
  191.6310  176.0650  136.1660 C   0  0  0  0  0  3  0  0  0  0  0  0
  190.8110  176.5070  137.1240 C   0  0  0  0  0  3  0  0  0  0  0  0
  193.6080  176.6420  137.5780 C   0  0  0  0  0  2  0  0  0  0  0  0
  191.3120  176.7360  138.4990 C   0  0  0  0  0  0  0  0  0  0  0  0
  192.6350  176.7560  138.7200 C   0  0  0  0  0  3  0  0  0  0  0  0
  193.0560  175.7110  136.4910 C   0  0  2  0  0  3  0  0  0  0  0  0
  193.8510  175.7920  135.3140 O   0  0  0  0  0  0  0  0  0  0  0  0
  195.2360  175.9570  135.3570 C   0  0  0  0  0  0  0  0  0  0  0  0
  195.9920  174.9990  135.6730 O   0  0  0  0  0  0  0  0  0  0  0  0
  195.8020  177.2200  135.0280 N   0  0  0  0  0  1  0  0  0  0  0  0
  187.9410  176.7800  144.8900 C   0  0  0  0  0  2  0  0  0  0  0  0
  187.7660  178.1810  147.0300 C   0  0  1  0  0  3  0  0  0  0  0  0
  189.8050  177.3300  146.3810 C   0  0  0  0  0  0  0  0  0  0  0  0
  189.6290  177.0960  147.7560 N   0  0  0  0  0  2  0  0  0  0  0  0
  188.3280  177.4240  148.1590 N   0  0  0  0  0  2  0  0  0  0  0  0
  190.8910  177.1160  145.7810 O   0  0  0  0  0  0  0  0  0  0  0  0
  188.5850  177.8650  145.7570 C   0  0  1  0  0  3  0  0  0  0  0  0
  186.2840  177.9700  146.9270 C   0  0  0  0  0  3  0  0  0  0  0  0
  185.4630  179.0030  146.7600 C   0  0  0  0  0  2  0  0  0  0  0  0
  1 13  1  0  0  0  0
  2  3  1  0  0  0  0
  3 10  2  0  0  0  0
  4 12  1  0  0  0  0
  5  4  1  0  0  0  0
  5  7  2  0  0  0  0
  6  2  2  0  0  0  0
  6  8  1  0  0  0  0
  7  8  1  0  0  0  0
  7  1  1  0  0  0  0
  8 11  2  0  0  0  0
  9 24  1  0  0  0  0
 11 10  1  0  0  0  0
 11  9  1  0  0  0  0
 12  1  2  0  0  0  0
 13  9  2  0  0  0  0
 14 19  1  0  0  0  0
 14 15  2  0  0  0  0
 15 17  1  0  0  0  0
 16 18  1  0  0  0  0
 17 18  2  0  0  0  0
 17  4  1  0  0  0  0
 19 20  1  6  0  0  0
 19 16  1  0  0  0  0
 20 21  1  0  0  0  0
 21 22  2  0  0  0  0
 23 21  1  0  0  0  0
 25 31  1  6  0  0  0
 25 28  1  0  0  0  0
 26 27  1  0  0  0  0
 27 28  1  0  0  0  0
 29 26  2  0  0  0  0
 30 24  1  6  0  0  0
 30 26  1  0  0  0  0
 30 25  1  0  0  0  0
 32 31  2  0  0  0  0
M  END
>  <MODEL>
4

>  <REMARK>
 VINA RESULT:      -8.2      1.751      3.834
  Name = 
  6 active torsions:
  status: ('A' for Active; 'I' for Inactive)
    1  A    between atoms: C_1  and  O_10
    2  A    between atoms: C_6  and  C_7
    3  A    between atoms: N_8  and  C_21
    4  A    between atoms: O_10  and  C_24
    5  A    between atoms: C_16  and  C_27
    6  A    between atoms: C_27  and  C_32
                            x       y       z     vdW  Elec       q    Type
                         _______ _______ _______ _____ _____    ______ ____

>  <TORSDO>
F 6

$$$$
=
 OpenBabel11052416553D

 32 36  0  0  1  0  0  0  0  0999 V2000
  190.0560  176.9920  139.9900 C   0  0  0  0  0  0  0  0  0  0  0  0
  187.6390  178.2190  136.0270 C   0  0  0  0  0  3  0  0  0  0  0  0
  188.6810  177.7560  135.2840 N   0  0  0  0  0  0  0  0  0  0  0  0
  188.7710  177.5400  141.5990 N   0  0  0  0  0  0  0  0  0  0  0  0
  188.1090  177.8760  140.4610 C   0  0  0  0  0  3  0  0  0  0  0  0
  187.6860  178.1580  137.4220 C   0  0  0  0  0  3  0  0  0  0  0  0
  188.9400  177.5230  139.4180 C   0  0  0  0  0  0  0  0  0  0  0  0
  188.8170  177.6190  138.0370 C   0  0  0  0  0  0  0  0  0  0  0  0
  191.0440  176.5940  137.8940 C   0  0  0  0  0  0  0  0  0  0  0  0
  189.7950  177.2250  135.8580 C   0  0  0  0  0  3  0  0  0  0  0  0
  189.8980  177.1410  137.2520 C   0  0  0  0  0  0  0  0  0  0  0  0
  189.9580  177.0010  141.3260 N   0  0  0  0  0  0  0  0  0  0  0  0
  191.1000  176.5310  139.2600 N   0  0  0  0  0  0  0  0  0  0  0  0
  188.7640  177.7470  145.3300 C   0  0  0  0  0  3  0  0  0  0  0  0
  189.2090  177.8440  144.0730 C   0  0  0  0  0  3  0  0  0  0  0  0
  186.4210  178.0880  144.5370 C   0  0  0  0  0  2  0  0  0  0  0  0
  188.2710  177.7350  142.9310 C   0  0  0  0  0  0  0  0  0  0  0  0
  186.9520  177.8060  143.1570 C   0  0  0  0  0  3  0  0  0  0  0  0
  187.3170  177.4410  145.6010 C   0  0  2  0  0  3  0  0  0  0  0  0
  186.9640  177.9030  146.8990 O   0  0  0  0  0  0  0  0  0  0  0  0
  185.8780  178.7520  147.1210 C   0  0  0  0  0  0  0  0  0  0  0  0
  186.0560  179.9580  147.4430 O   0  0  0  0  0  0  0  0  0  0  0  0
  184.5550  178.2530  146.9680 N   0  0  0  0  0  1  0  0  0  0  0  0
  192.2070  176.0860  137.1000 C   0  0  0  0  0  2  0  0  0  0  0  0
  192.4340  173.5940  136.5450 C   0  0  1  0  0  3  0  0  0  0  0  0
  194.1240  174.6750  137.6760 C   0  0  0  0  0  0  0  0  0  0  0  0
  194.6860  173.8920  136.6520 N   0  0  0  0  0  2  0  0  0  0  0  0
  193.6920  173.3650  135.8180 N   0  0  0  0  0  2  0  0  0  0  0  0
  194.8130  175.2530  138.5560 O   0  0  0  0  0  0  0  0  0  0  0  0
  192.6560  174.7080  137.5940 C   0  0  1  0  0  3  0  0  0  0  0  0
  191.2940  173.8050  135.5930 C   0  0  0  0  0  3  0  0  0  0  0  0
  190.0840  173.3230  135.8670 C   0  0  0  0  0  2  0  0  0  0  0  0
  1 12  2  0  0  0  0
  2  6  1  0  0  0  0
  3 10  1  0  0  0  0
  3  2  2  0  0  0  0
  4 17  1  0  0  0  0
  5  4  1  0  0  0  0
  6  8  2  0  0  0  0
  7  1  1  0  0  0  0
  7  5  2  0  0  0  0
  8  7  1  0  0  0  0
  9 13  2  0  0  0  0
 10 11  2  0  0  0  0
 11  9  1  0  0  0  0
 11  8  1  0  0  0  0
 12  4  1  0  0  0  0
 13  1  1  0  0  0  0
 14 19  1  0  0  0  0
 15 14  2  0  0  0  0
 16 19  1  0  0  0  0
 17 18  2  0  0  0  0
 17 15  1  0  0  0  0
 18 16  1  0  0  0  0
 19 20  1  1  0  0  0
 20 21  1  0  0  0  0
 21 22  2  0  0  0  0
 23 21  1  0  0  0  0
 24  9  1  0  0  0  0
 25 31  1  6  0  0  0
 25 30  1  0  0  0  0
 26 29  2  0  0  0  0
 27 26  1  0  0  0  0
 28 25  1  0  0  0  0
 28 27  1  0  0  0  0
 30 24  1  6  0  0  0
 30 26  1  0  0  0  0
 31 32  2  0  0  0  0
M  END
>  <MODEL>
5

>  <REMARK>
 VINA RESULT:      -8.1      2.435     10.066
  Name = 
  6 active torsions:
  status: ('A' for Active; 'I' for Inactive)
    1  A    between atoms: C_1  and  O_10
    2  A    between atoms: C_6  and  C_7
    3  A    between atoms: N_8  and  C_21
    4  A    between atoms: O_10  and  C_24
    5  A    between atoms: C_16  and  C_27
    6  A    between atoms: C_27  and  C_32
                            x       y       z     vdW  Elec       q    Type
                         _______ _______ _______ _____ _____    ______ ____

>  <TORSDO>
F 6

$$$$
=
 OpenBabel11052416553D

 32 36  0  0  1  0  0  0  0  0999 V2000
  187.5640  178.2560  141.0230 C   0  0  0  0  0  0  0  0  0  0  0  0
  187.0910  177.3730  145.7180 C   0  0  0  0  0  3  0  0  0  0  0  0
  185.8300  177.8780  145.6570 N   0  0  0  0  0  0  0  0  0  0  0  0
  189.5310  177.5940  140.5430 N   0  0  0  0  0  0  0  0  0  0  0  0
  189.3700  177.3540  141.8710 C   0  0  0  0  0  3  0  0  0  0  0  0
  187.8870  177.3220  144.5720 C   0  0  0  0  0  3  0  0  0  0  0  0
  188.0970  177.7830  142.1830 C   0  0  0  0  0  0  0  0  0  0  0  0
  187.3680  177.7990  143.3670 C   0  0  0  0  0  0  0  0  0  0  0  0
  185.5370  178.8090  142.0790 C   0  0  0  0  0  0  0  0  0  0  0  0
  185.2990  178.3490  144.4950 C   0  0  0  0  0  3  0  0  0  0  0  0
  186.0520  178.3260  143.3150 C   0  0  0  0  0  0  0  0  0  0  0  0
  188.4390  178.1440  140.0150 N   0  0  0  0  0  0  0  0  0  0  0  0
  186.3100  178.7640  140.9500 N   0  0  0  0  0  0  0  0  0  0  0  0
  191.6800  176.3100  137.7690 C   0  0  0  0  0  3  0  0  0  0  0  0
  190.6220  176.8450  138.3850 C   0  0  0  0  0  3  0  0  0  0  0  0
  193.1820  177.1970  139.5560 C   0  0  0  0  0  2  0  0  0  0  0  0
  190.7200  177.3020  139.7910 C   0  0  0  0  0  0  0  0  0  0  0  0
  191.9290  177.4260  140.3580 C   0  0  0  0  0  3  0  0  0  0  0  0
  192.9630  176.0860  138.5210 C   0  0  2  0  0  3  0  0  0  0  0  0
  194.0520  176.0340  137.6080 O   0  0  0  0  0  0  0  0  0  0  0  0
  194.7910  174.8690  137.3900 C   0  0  0  0  0  0  0  0  0  0  0  0
  194.2220  173.7470  137.3170 O   0  0  0  0  0  0  0  0  0  0  0  0
  196.2020  174.9540  137.2370 N   0  0  0  0  0  1  0  0  0  0  0  0
  184.1560  179.3780  141.9860 C   0  0  0  0  0  2  0  0  0  0  0  0
  181.7640  178.4650  141.8540 C   0  0  1  0  0  3  0  0  0  0  0  0
  182.9430  178.8750  139.9190 C   0  0  0  0  0  0  0  0  0  0  0  0
  181.6450  179.3980  139.7830 N   0  0  0  0  0  2  0  0  0  0  0  0
  180.9500  179.3420  140.9980 N   0  0  0  0  0  2  0  0  0  0  0  0
  183.7620  178.8110  138.9640 O   0  0  0  0  0  0  0  0  0  0  0  0
  183.2020  178.4050  141.2880 C   0  0  1  0  0  3  0  0  0  0  0  0
  181.6410  178.8580  143.2960 C   0  0  0  0  0  3  0  0  0  0  0  0
  180.5160  178.6280  143.9680 C   0  0  0  0  0  2  0  0  0  0  0  0
  1  7  1  0  0  0  0
  3  2  1  0  0  0  0
  4  5  1  0  0  0  0
  5  7  2  0  0  0  0
  6  2  2  0  0  0  0
  7  8  1  0  0  0  0
  8  6  1  0  0  0  0
  9 11  1  0  0  0  0
 10  3  2  0  0  0  0
 11  8  2  0  0  0  0
 11 10  1  0  0  0  0
 12  4  1  0  0  0  0
 12  1  2  0  0  0  0
 13  1  1  0  0  0  0
 13  9  2  0  0  0  0
 14 15  2  0  0  0  0
 14 19  1  0  0  0  0
 15 17  1  0  0  0  0
 16 18  1  0  0  0  0
 17 18  2  0  0  0  0
 17  4  1  0  0  0  0
 19 20  1  6  0  0  0
 19 16  1  0  0  0  0
 21 20  1  0  0  0  0
 22 21  2  0  0  0  0
 23 21  1  0  0  0  0
 24  9  1  0  0  0  0
 25 31  1  1  0  0  0
 26 30  1  0  0  0  0
 27 26  1  0  0  0  0
 27 28  1  0  0  0  0
 28 25  1  0  0  0  0
 29 26  2  0  0  0  0
 30 25  1  0  0  0  0
 30 24  1  1  0  0  0
 31 32  2  0  0  0  0
M  END
>  <MODEL>
6

>  <REMARK>
 VINA RESULT:      -8.0      2.659      3.629
  Name = 
  6 active torsions:
  status: ('A' for Active; 'I' for Inactive)
    1  A    between atoms: C_1  and  O_10
    2  A    between atoms: C_6  and  C_7
    3  A    between atoms: N_8  and  C_21
    4  A    between atoms: O_10  and  C_24
    5  A    between atoms: C_16  and  C_27
    6  A    between atoms: C_27  and  C_32
                            x       y       z     vdW  Elec       q    Type
                         _______ _______ _______ _____ _____    ______ ____

>  <TORSDO>
F 6

$$$$
=
 OpenBabel11052416553D

 32 36  0  0  1  0  0  0  0  0999 V2000
  185.8080  178.0880  142.1020 C   0  0  0  0  0  0  0  0  0  0  0  0
  189.9130  177.9460  139.6160 C   0  0  0  0  0  3  0  0  0  0  0  0
  190.5300  177.4440  140.7200 N   0  0  0  0  0  0  0  0  0  0  0  0
  184.3720  178.8620  140.7330 N   0  0  0  0  0  0  0  0  0  0  0  0
  185.5470  178.8100  140.0520 C   0  0  0  0  0  3  0  0  0  0  0  0
  188.5500  178.2500  139.6470 C   0  0  0  0  0  3  0  0  0  0  0  0
  186.4790  178.3100  140.9380 C   0  0  0  0  0  0  0  0  0  0  0  0
  187.8360  178.0330  140.8270 C   0  0  0  0  0  0  0  0  0  0  0  0
  187.7490  177.2960  143.1680 C   0  0  0  0  0  0  0  0  0  0  0  0
  189.8580  177.2220  141.8830 C   0  0  0  0  0  3  0  0  0  0  0  0
  188.4910  177.5110  141.9730 C   0  0  0  0  0  0  0  0  0  0  0  0
  184.5180  178.4260  141.9820 N   0  0  0  0  0  0  0  0  0  0  0  0
  186.4130  177.5920  143.2090 N   0  0  0  0  0  0  0  0  0  0  0  0
  182.0040  180.7770  138.5670 C   0  0  0  0  0  3  0  0  0  0  0  0
  183.1030  180.1100  138.9330 C   0  0  0  0  0  3  0  0  0  0  0  0
  180.6560  179.4830  140.2230 C   0  0  0  0  0  2  0  0  0  0  0  0
  183.1260  179.3260  140.1900 C   0  0  0  0  0  0  0  0  0  0  0  0
  181.9720  179.0680  140.8230 C   0  0  0  0  0  3  0  0  0  0  0  0
  180.8020  180.8120  139.4700 C   0  0  2  0  0  3  0  0  0  0  0  0
  179.6350  181.0820  138.7040 O   0  0  0  0  0  0  0  0  0  0  0  0
  179.5270  182.1990  137.8740 C   0  0  0  0  0  0  0  0  0  0  0  0
  179.6090  183.3650  138.3460 O   0  0  0  0  0  0  0  0  0  0  0  0
  179.3340  182.0180  136.4770 N   0  0  0  0  0  1  0  0  0  0  0  0
  188.4060  176.7530  144.3990 C   0  0  0  0  0  2  0  0  0  0  0  0
  188.1950  178.0210  146.6170 C   0  0  1  0  0  3  0  0  0  0  0  0
  190.2790  177.4990  145.7890 C   0  0  0  0  0  0  0  0  0  0  0  0
  190.2400  177.1830  147.1580 N   0  0  0  0  0  2  0  0  0  0  0  0
  188.9400  177.3050  147.6640 N   0  0  0  0  0  2  0  0  0  0  0  0
  191.3370  177.4690  145.1070 O   0  0  0  0  0  0  0  0  0  0  0  0
  188.9550  177.8810  145.2780 C   0  0  1  0  0  3  0  0  0  0  0  0
  186.7540  177.6050  146.6020 C   0  0  0  0  0  3  0  0  0  0  0  0
  185.7860  178.5140  146.6930 C   0  0  0  0  0  2  0  0  0  0  0  0
  1 13  1  0  0  0  0
  2  6  2  0  0  0  0
  2  3  1  0  0  0  0
  3 10  2  0  0  0  0
  4 12  1  0  0  0  0
  5  4  1  0  0  0  0
  5  7  2  0  0  0  0
  6  8  1  0  0  0  0
  7  1  1  0  0  0  0
  8  7  1  0  0  0  0
  8 11  2  0  0  0  0
  9 13  2  0  0  0  0
  9 24  1  0  0  0  0
 10 11  1  0  0  0  0
 11  9  1  0  0  0  0
 12  1  2  0  0  0  0
 14 15  2  0  0  0  0
 14 19  1  0  0  0  0
 15 17  1  0  0  0  0
 16 18  1  0  0  0  0
 17  4  1  0  0  0  0
 17 18  2  0  0  0  0
 19 20  1  6  0  0  0
 19 16  1  0  0  0  0
 21 22  2  0  0  0  0
 21 20  1  0  0  0  0
 23 21  1  0  0  0  0
 25 31  1  6  0  0  0
 25 28  1  0  0  0  0
 26 27  1  0  0  0  0
 27 28  1  0  0  0  0
 29 26  2  0  0  0  0
 30 24  1  6  0  0  0
 30 26  1  0  0  0  0
 30 25  1  0  0  0  0
 31 32  2  0  0  0  0
M  END
>  <MODEL>
7

>  <REMARK>
 VINA RESULT:      -8.0      4.277      8.620
  Name = 
  6 active torsions:
  status: ('A' for Active; 'I' for Inactive)
    1  A    between atoms: C_1  and  O_10
    2  A    between atoms: C_6  and  C_7
    3  A    between atoms: N_8  and  C_21
    4  A    between atoms: O_10  and  C_24
    5  A    between atoms: C_16  and  C_27
    6  A    between atoms: C_27  and  C_32
                            x       y       z     vdW  Elec       q    Type
                         _______ _______ _______ _____ _____    ______ ____

>  <TORSDO>
F 6

$$$$
=
 OpenBabel11052416553D

 32 36  0  0  1  0  0  0  0  0999 V2000
  187.1860  178.3540  140.8360 C   0  0  0  0  0  0  0  0  0  0  0  0
  189.1890  177.6160  136.5350 C   0  0  0  0  0  3  0  0  0  0  0  0
  187.9920  177.9100  135.9590 N   0  0  0  0  0  0  0  0  0  0  0  0
  188.7570  178.0020  142.2320 N   0  0  0  0  0  0  0  0  0  0  0  0
  189.2980  177.8010  141.0020 C   0  0  0  0  0  3  0  0  0  0  0  0
  189.3290  177.6450  137.9240 C   0  0  0  0  0  3  0  0  0  0  0  0
  188.2830  178.0270  140.0970 C   0  0  0  0  0  0  0  0  0  0  0  0
  188.2230  177.9770  138.7080 C   0  0  0  0  0  0  0  0  0  0  0  0
  185.8610  178.6150  138.9110 C   0  0  0  0  0  0  0  0  0  0  0  0
  186.8980  178.2370  136.7000 C   0  0  0  0  0  3  0  0  0  0  0  0
  186.9790  178.2790  138.0970 C   0  0  0  0  0  0  0  0  0  0  0  0
  187.4710  178.3390  142.1440 N   0  0  0  0  0  0  0  0  0  0  0  0
  185.9880  178.6460  140.2740 N   0  0  0  0  0  0  0  0  0  0  0  0
  191.6310  177.8670  144.6160 C   0  0  0  0  0  3  0  0  0  0  0  0
  190.8970  178.2380  143.5620 C   0  0  0  0  0  3  0  0  0  0  0  0
  189.5500  177.3360  145.8900 C   0  0  0  0  0  2  0  0  0  0  0  0
  189.4640  177.8710  143.4750 C   0  0  0  0  0  0  0  0  0  0  0  0
  188.8390  177.4030  144.5650 C   0  0  0  0  0  3  0  0  0  0  0  0
  191.0330  176.9990  145.6890 C   0  0  2  0  0  3  0  0  0  0  0  0
  191.7530  177.1730  146.9030 O   0  0  0  0  0  0  0  0  0  0  0  0
  192.1350  176.0970  147.7070 C   0  0  0  0  0  0  0  0  0  0  0  0
  191.6090  174.9610  147.5590 O   0  0  0  0  0  0  0  0  0  0  0  0
  193.1390  176.2840  148.6970 N   0  0  0  0  0  1  0  0  0  0  0  0
  184.5310  178.9340  138.3030 C   0  0  0  0  0  2  0  0  0  0  0  0
  182.2860  177.9710  139.0830 C   0  0  1  0  0  3  0  0  0  0  0  0
  183.0670  177.4930  136.9700 C   0  0  0  0  0  0  0  0  0  0  0  0
  181.7090  177.8440  136.8860 N   0  0  0  0  0  2  0  0  0  0  0  0
  181.2370  178.3250  138.1140 N   0  0  0  0  0  2  0  0  0  0  0  0
  183.7190  177.0300  135.9960 O   0  0  0  0  0  0  0  0  0  0  0  0
  183.6070  177.7140  138.3200 C   0  0  1  0  0  3  0  0  0  0  0  0
  182.3540  178.9760  140.1930 C   0  0  0  0  0  3  0  0  0  0  0  0
  182.4240  178.5810  141.4620 C   0  0  0  0  0  2  0  0  0  0  0  0
  1 12  2  0  0  0  0
  2  6  1  0  0  0  0
  3  2  2  0  0  0  0
  3 10  1  0  0  0  0
  4 17  1  0  0  0  0
  5  4  1  0  0  0  0
  6  8  2  0  0  0  0
  7  1  1  0  0  0  0
  7  5  2  0  0  0  0
  8  7  1  0  0  0  0
  9 13  2  0  0  0  0
 10 11  2  0  0  0  0
 11  8  1  0  0  0  0
 11  9  1  0  0  0  0
 12  4  1  0  0  0  0
 13  1  1  0  0  0  0
 14 19  1  0  0  0  0
 15 14  2  0  0  0  0
 17 15  1  0  0  0  0
 17 18  2  0  0  0  0
 18 16  1  0  0  0  0
 19 16  1  0  0  0  0
 19 20  1  1  0  0  0
 20 21  1  0  0  0  0
 21 23  1  0  0  0  0
 22 21  2  0  0  0  0
 24  9  1  0  0  0  0
 25 31  1  1  0  0  0
 26 30  1  0  0  0  0
 27 26  1  0  0  0  0
 27 28  1  0  0  0  0
 28 25  1  0  0  0  0
 29 26  2  0  0  0  0
 30 24  1  6  0  0  0
 30 25  1  0  0  0  0
 31 32  2  0  0  0  0
M  END
>  <MODEL>
8

>  <REMARK>
 VINA RESULT:      -7.9      4.208      7.827
  Name = 
  6 active torsions:
  status: ('A' for Active; 'I' for Inactive)
    1  A    between atoms: C_1  and  O_10
    2  A    between atoms: C_6  and  C_7
    3  A    between atoms: N_8  and  C_21
    4  A    between atoms: O_10  and  C_24
    5  A    between atoms: C_16  and  C_27
    6  A    between atoms: C_27  and  C_32
                            x       y       z     vdW  Elec       q    Type
                         _______ _______ _______ _____ _____    ______ ____

>  <TORSDO>
F 6

$$$$
=
 OpenBabel11052416553D

 32 36  0  0  1  0  0  0  0  0999 V2000
  188.1770  178.0080  140.6930 C   0  0  0  0  0  0  0  0  0  0  0  0
  184.0780  178.5270  138.2480 C   0  0  0  0  0  3  0  0  0  0  0  0
  183.5000  179.0190  139.3780 N   0  0  0  0  0  0  0  0  0  0  0  0
  189.5530  177.2050  139.2790 N   0  0  0  0  0  0  0  0  0  0  0  0
  188.3800  177.3630  138.6110 C   0  0  0  0  0  3  0  0  0  0  0  0
  185.4180  178.1340  138.2550 C   0  0  0  0  0  3  0  0  0  0  0  0
  187.4880  177.8820  139.5250 C   0  0  0  0  0  0  0  0  0  0  0  0
  186.1500  178.2520  139.4380 C   0  0  0  0  0  0  0  0  0  0  0  0
  186.2970  178.8770  141.8080 C   0  0  0  0  0  0  0  0  0  0  0  0
  184.1910  179.1440  140.5440 C   0  0  0  0  0  3  0  0  0  0  0  0
  185.5370  178.7630  140.6100 C   0  0  0  0  0  0  0  0  0  0  0  0
  189.4420  177.5940  140.5480 N   0  0  0  0  0  0  0  0  0  0  0  0
  187.6110  178.4930  141.8250 N   0  0  0  0  0  0  0  0  0  0  0  0
  191.7900  175.0270  137.2270 C   0  0  0  0  0  3  0  0  0  0  0  0
  190.7060  175.7230  137.5820 C   0  0  0  0  0  3  0  0  0  0  0  0
  193.2310  176.5770  138.5510 C   0  0  0  0  0  2  0  0  0  0  0  0
  190.7630  176.6850  138.7070 C   0  0  0  0  0  0  0  0  0  0  0  0
  191.9570  177.0550  139.1930 C   0  0  0  0  0  3  0  0  0  0  0  0
  193.0630  175.1480  138.0190 C   0  0  2  0  0  3  0  0  0  0  0  0
  194.1710  174.7860  137.2040 O   0  0  0  0  0  0  0  0  0  0  0  0
  195.3980  174.3950  137.7420 C   0  0  0  0  0  0  0  0  0  0  0  0
  196.4700  174.9510  137.3790 O   0  0  0  0  0  0  0  0  0  0  0  0
  195.4380  173.3650  138.7210 N   0  0  0  0  0  1  0  0  0  0  0  0
  185.6830  179.4050  143.0670 C   0  0  0  0  0  2  0  0  0  0  0  0
  185.6890  177.9060  145.1460 C   0  0  1  0  0  3  0  0  0  0  0  0
  183.7150  178.8330  144.4080 C   0  0  0  0  0  0  0  0  0  0  0  0
  183.8060  179.0000  145.8000 N   0  0  0  0  0  2  0  0  0  0  0  0
  185.0700  178.6240  146.2710 N   0  0  0  0  0  2  0  0  0  0  0  0
  182.6750  179.0990  143.7490 O   0  0  0  0  0  0  0  0  0  0  0  0
  184.9610  178.2980  143.8390 C   0  0  1  0  0  3  0  0  0  0  0  0
  187.1790  178.0860  145.1480 C   0  0  0  0  0  3  0  0  0  0  0  0
  187.8850  177.8780  146.2570 C   0  0  0  0  0  2  0  0  0  0  0  0
  1 13  1  0  0  0  0
  2  6  2  0  0  0  0
  2  3  1  0  0  0  0
  3 10  2  0  0  0  0
  4 12  1  0  0  0  0
  5  4  1  0  0  0  0
  5  7  2  0  0  0  0
  6  8  1  0  0  0  0
  7  1  1  0  0  0  0
  8  7  1  0  0  0  0
  8 11  2  0  0  0  0
  9 13  2  0  0  0  0
  9 24  1  0  0  0  0
 10 11  1  0  0  0  0
 11  9  1  0  0  0  0
 12  1  2  0  0  0  0
 14 15  2  0  0  0  0
 14 19  1  0  0  0  0
 15 17  1  0  0  0  0
 16 18  1  0  0  0  0
 17 18  2  0  0  0  0
 17  4  1  0  0  0  0
 19 20  1  6  0  0  0
 19 16  1  0  0  0  0
 20 21  1  0  0  0  0
 21 23  1  0  0  0  0
 22 21  2  0  0  0  0
 25 31  1  6  0  0  0
 25 28  1  0  0  0  0
 26 27  1  0  0  0  0
 27 28  1  0  0  0  0
 29 26  2  0  0  0  0
 30 24  1  1  0  0  0
 30 26  1  0  0  0  0
 30 25  1  0  0  0  0
 31 32  2  0  0  0  0
M  END
>  <MODEL>
9

>  <REMARK>
 VINA RESULT:      -7.8      2.358      4.526
  Name = 
  6 active torsions:
  status: ('A' for Active; 'I' for Inactive)
    1  A    between atoms: C_1  and  O_10
    2  A    between atoms: C_6  and  C_7
    3  A    between atoms: N_8  and  C_21
    4  A    between atoms: O_10  and  C_24
    5  A    between atoms: C_16  and  C_27
    6  A    between atoms: C_27  and  C_32
                            x       y       z     vdW  Elec       q    Type
                         _______ _______ _______ _____ _____    ______ ____

>  <TORSDO>
F 6

$$$$
