=
 OpenBabel11052413503D

 27 31  0  0  1  0  0  0  0  0999 V2000
  189.1910  177.6850  145.1560 C   0  0  0  0  0  3  0  0  0  0  0  0
  188.2930  177.7260  142.7940 C   0  0  0  0  0  0  0  0  0  0  0  0
  190.5400  176.8260  142.6210 N   0  0  0  0  0  0  0  0  0  0  0  0
  188.7250  178.2570  138.2490 S   0  0  0  0  0  0  0  0  0  0  0  0
  190.6750  176.4030  137.7190 C   0  0  0  0  0  1  0  0  0  0  0  0
  187.1690  178.0650  142.0020 C   0  0  0  0  0  3  0  0  0  0  0  0
  190.7340  177.5290  139.8800 N   0  0  0  0  0  0  0  0  0  0  0  0
  192.0890  174.5290  145.1650 C   0  0  0  0  0  3  0  0  0  0  0  0
  192.1050  177.4810  140.3670 C   0  0  0  0  0  1  0  0  0  0  0  0
  192.3110  175.0290  146.3770 C   0  0  0  0  0  3  0  0  0  0  0  0
  189.5890  177.7160  140.7110 C   0  0  0  0  0  0  0  0  0  0  0  0
  188.1200  177.7340  144.1480 C   0  0  0  0  0  0  0  0  0  0  0  0
  190.4670  177.7120  138.4570 C   0  0  2  0  0  3  0  0  0  0  0  0
  188.4720  178.0860  140.0030 C   0  0  0  0  0  0  0  0  0  0  0  0
  190.3620  177.0770  145.1120 C   0  0  0  0  0  0  0  0  0  0  0  0
  189.5250  177.4530  142.1030 C   0  0  0  0  0  0  0  0  0  0  0  0
  191.5480  175.2260  143.9900 C   0  0  0  0  0  3  0  0  0  0  0  0
  187.2430  178.2330  140.6230 C   0  0  0  0  0  3  0  0  0  0  0  0
  192.0480  176.3970  146.8360 C   0  0  0  0  0  3  0  0  0  0  0  0
  191.2060  177.2740  146.2970 C   0  0  0  0  0  3  0  0  0  0  0  0
  190.7970  176.3270  143.9310 C   0  0  0  0  0  0  0  0  0  0  0  0
  184.3300  178.6320  145.9320 C   0  0  0  0  0  3  0  0  0  0  0  0
  186.8000  178.0210  144.7560 C   0  0  0  0  0  0  0  0  0  0  0  0
  185.6890  178.3200  143.9530 C   0  0  0  0  0  3  0  0  0  0  0  0
  184.4570  178.6200  144.5410 C   0  0  0  0  0  3  0  0  0  0  0  0
  185.4360  178.3490  146.7380 C   0  0  0  0  0  3  0  0  0  0  0  0
  186.6690  178.0490  146.1520 C   0  0  0  0  0  3  0  0  0  0  0  0
  2 12  1  0  0  0  0
  3 21  2  0  0  0  0
  4 13  1  0  0  0  0
  4 14  1  0  0  0  0
  6  2  2  0  0  0  0
  7  9  1  0  0  0  0
  7 11  1  0  0  0  0
  8 10  1  0  0  0  0
 10 19  2  0  0  0  0
 11 16  2  0  0  0  0
 12 23  1  0  0  0  0
 12  1  2  0  0  0  0
 13  5  1  6  0  0  0
 13  7  1  0  0  0  0
 14 18  2  0  0  0  0
 14 11  1  0  0  0  0
 15  1  1  0  0  0  0
 15 20  2  0  0  0  0
 16  3  1  0  0  0  0
 16  2  1  0  0  0  0
 17  8  2  0  0  0  0
 18  6  1  0  0  0  0
 20 19  1  0  0  0  0
 21 17  1  0  0  0  0
 21 15  1  0  0  0  0
 22 26  1  0  0  0  0
 23 27  1  0  0  0  0
 24 25  1  0  0  0  0
 24 23  2  0  0  0  0
 25 22  2  0  0  0  0
 27 26  2  0  0  0  0
M  END
>  <MODEL>
1

>  <REMARK>
 VINA RESULT:     -10.4      0.000      0.000
  Name = 
  1 active torsions:
  status: ('A' for Active; 'I' for Inactive)
    1  A    between atoms: C_9  and  C_15
                            x       y       z     vdW  Elec       q    Type
                         _______ _______ _______ _____ _____    ______ ____

>  <TORSDO>
F 1

$$$$
=
 OpenBabel11052413503D

 27 31  0  0  1  0  0  0  0  0999 V2000
  191.0350  177.4370  142.7890 C   0  0  0  0  0  3  0  0  0  0  0  0
  188.6780  177.3390  143.6960 C   0  0  0  0  0  0  0  0  0  0  0  0
  188.4410  177.5580  141.2910 N   0  0  0  0  0  0  0  0  0  0  0  0
  184.2340  178.5120  143.7090 S   0  0  0  0  0  0  0  0  0  0  0  0
  183.5250  177.7920  141.1600 C   0  0  0  0  0  1  0  0  0  0  0  0
  187.9100  177.2290  144.8820 C   0  0  0  0  0  3  0  0  0  0  0  0
  185.8040  178.5760  141.5280 N   0  0  0  0  0  0  0  0  0  0  0  0
  190.7270  175.9210  138.7930 C   0  0  0  0  0  3  0  0  0  0  0  0
  186.3060  179.0890  140.2620 C   0  0  0  0  0  1  0  0  0  0  0  0
  191.9920  176.3280  138.7730 C   0  0  0  0  0  3  0  0  0  0  0  0
  186.6310  178.1400  142.6070 C   0  0  0  0  0  0  0  0  0  0  0  0
  190.0200  177.1170  143.8050 C   0  0  0  0  0  0  0  0  0  0  0  0
  184.4070  178.7800  141.9000 C   0  0  2  0  0  3  0  0  0  0  0  0
  185.9510  178.0520  143.7970 C   0  0  0  0  0  0  0  0  0  0  0  0
  190.9410  177.4220  141.4710 C   0  0  0  0  0  0  0  0  0  0  0  0
  187.9810  177.7220  142.4970 C   0  0  0  0  0  0  0  0  0  0  0  0
  189.6320  176.4320  139.6290 C   0  0  0  0  0  3  0  0  0  0  0  0
  186.5620  177.5660  144.9390 C   0  0  0  0  0  3  0  0  0  0  0  0
  192.6030  177.3750  139.5980 C   0  0  0  0  0  3  0  0  0  0  0  0
  192.1550  177.8400  140.7600 C   0  0  0  0  0  3  0  0  0  0  0  0
  189.6880  177.0820  140.7920 C   0  0  0  0  0  0  0  0  0  0  0  0
  191.8610  175.9980  147.5090 C   0  0  0  0  0  3  0  0  0  0  0  0
  190.6340  176.7170  145.0930 C   0  0  0  0  0  0  0  0  0  0  0  0
  190.2070  177.2880  146.3010 C   0  0  0  0  0  3  0  0  0  0  0  0
  190.8160  176.9260  147.5050 C   0  0  0  0  0  3  0  0  0  0  0  0
  192.3010  175.4350  146.3070 C   0  0  0  0  0  3  0  0  0  0  0  0
  191.6920  175.7970  145.1020 C   0  0  0  0  0  3  0  0  0  0  0  0
  1 12  1  0  0  0  0
  2 12  2  0  0  0  0
  2  6  1  0  0  0  0
  3 16  2  0  0  0  0
  4 14  1  0  0  0  0
  6 18  2  0  0  0  0
  7 13  1  0  0  0  0
  7 11  1  0  0  0  0
  8 17  1  0  0  0  0
  9  7  1  0  0  0  0
 10  8  2  0  0  0  0
 10 19  1  0  0  0  0
 11 14  2  0  0  0  0
 12 23  1  0  0  0  0
 13  5  1  6  0  0  0
 13  4  1  0  0  0  0
 14 18  1  0  0  0  0
 15  1  2  0  0  0  0
 16 11  1  0  0  0  0
 16  2  1  0  0  0  0
 17 21  2  0  0  0  0
 19 20  2  0  0  0  0
 20 15  1  0  0  0  0
 21  3  1  0  0  0  0
 21 15  1  0  0  0  0
 23 27  2  0  0  0  0
 23 24  1  0  0  0  0
 24 25  2  0  0  0  0
 25 22  1  0  0  0  0
 26 22  2  0  0  0  0
 27 26  1  0  0  0  0
M  END
>  <MODEL>
2

>  <REMARK>
 VINA RESULT:      -9.7      2.169      5.453
  Name = 
  1 active torsions:
  status: ('A' for Active; 'I' for Inactive)
    1  A    between atoms: C_9  and  C_15
                            x       y       z     vdW  Elec       q    Type
                         _______ _______ _______ _____ _____    ______ ____

>  <TORSDO>
F 1

$$$$
=
 OpenBabel11052413503D

 27 31  0  0  1  0  0  0  0  0999 V2000
  191.3340  177.1560  140.2830 C   0  0  0  0  0  3  0  0  0  0  0  0
  188.9280  177.5970  140.9200 C   0  0  0  0  0  0  0  0  0  0  0  0
  188.8740  176.9440  138.5830 N   0  0  0  0  0  0  0  0  0  0  0  0
  184.6590  179.0680  140.0610 S   0  0  0  0  0  0  0  0  0  0  0  0
  184.0380  177.5320  137.8760 C   0  0  0  0  0  1  0  0  0  0  0  0
  188.0780  177.9910  141.9820 C   0  0  0  0  0  3  0  0  0  0  0  0
  186.3630  178.2000  138.1720 N   0  0  0  0  0  0  0  0  0  0  0  0
  191.1100  174.3210  137.0770 C   0  0  0  0  0  3  0  0  0  0  0  0
  187.0030  178.1710  136.8640 C   0  0  0  0  0  1  0  0  0  0  0  0
  192.4130  174.5830  137.0430 C   0  0  0  0  0  3  0  0  0  0  0  0
  187.0630  178.1170  139.4140 C   0  0  0  0  0  0  0  0  0  0  0  0
  190.2250  177.3160  141.2370 C   0  0  0  0  0  0  0  0  0  0  0  0
  184.9790  178.6420  138.3030 C   0  0  2  0  0  3  0  0  0  0  0  0
  186.3020  178.5260  140.4810 C   0  0  0  0  0  0  0  0  0  0  0  0
  191.3240  176.6710  139.0540 C   0  0  0  0  0  0  0  0  0  0  0  0
  188.3600  177.5740  139.5980 C   0  0  0  0  0  0  0  0  0  0  0  0
  190.0300  175.1920  137.5610 C   0  0  0  0  0  3  0  0  0  0  0  0
  186.7770  178.4400  141.7780 C   0  0  0  0  0  3  0  0  0  0  0  0
  193.0870  175.8030  137.5000 C   0  0  0  0  0  3  0  0  0  0  0  0
  192.6220  176.6950  138.3690 C   0  0  0  0  0  3  0  0  0  0  0  0
  190.0870  176.2150  138.4160 C   0  0  0  0  0  0  0  0  0  0  0  0
  191.6770  177.4130  145.2670 C   0  0  0  0  0  3  0  0  0  0  0  0
  190.7050  177.3610  142.6380 C   0  0  0  0  0  0  0  0  0  0  0  0
  191.0910  178.5750  143.2260 C   0  0  0  0  0  3  0  0  0  0  0  0
  191.5720  178.6000  144.5390 C   0  0  0  0  0  3  0  0  0  0  0  0
  191.3060  176.1980  144.6830 C   0  0  0  0  0  3  0  0  0  0  0  0
  190.8260  176.1720  143.3710 C   0  0  0  0  0  3  0  0  0  0  0  0
  1 12  1  0  0  0  0
  2 12  2  0  0  0  0
  2  6  1  0  0  0  0
  3 16  2  0  0  0  0
  4 14  1  0  0  0  0
  7 13  1  0  0  0  0
  7 11  1  0  0  0  0
  8 17  1  0  0  0  0
  9  7  1  0  0  0  0
 10  8  2  0  0  0  0
 10 19  1  0  0  0  0
 11 16  1  0  0  0  0
 11 14  2  0  0  0  0
 12 23  1  0  0  0  0
 13  5  1  1  0  0  0
 13  4  1  0  0  0  0
 14 18  1  0  0  0  0
 15  1  2  0  0  0  0
 16  2  1  0  0  0  0
 17 21  2  0  0  0  0
 18  6  2  0  0  0  0
 19 20  2  0  0  0  0
 20 15  1  0  0  0  0
 21  3  1  0  0  0  0
 21 15  1  0  0  0  0
 23 24  2  0  0  0  0
 23 27  1  0  0  0  0
 24 25  1  0  0  0  0
 25 22  2  0  0  0  0
 26 22  1  0  0  0  0
 27 26  2  0  0  0  0
M  END
>  <MODEL>
3

>  <REMARK>
 VINA RESULT:      -9.6      2.572      5.756
  Name = 
  1 active torsions:
  status: ('A' for Active; 'I' for Inactive)
    1  A    between atoms: C_9  and  C_15
                            x       y       z     vdW  Elec       q    Type
                         _______ _______ _______ _____ _____    ______ ____

>  <TORSDO>
F 1

$$$$
=
 OpenBabel11052413503D

 27 31  0  0  1  0  0  0  0  0999 V2000
  183.9130  179.2370  144.1570 C   0  0  0  0  0  3  0  0  0  0  0  0
  183.9640  178.5610  141.7220 C   0  0  0  0  0  0  0  0  0  0  0  0
  186.2200  178.2070  142.5440 N   0  0  0  0  0  0  0  0  0  0  0  0
  185.9750  178.2040  137.6050 S   0  0  0  0  0  0  0  0  0  0  0  0
  188.2330  176.8000  138.2780 C   0  0  0  0  0  1  0  0  0  0  0  0
  183.1800  178.4460  140.5480 C   0  0  0  0  0  3  0  0  0  0  0  0
  187.3160  178.3390  139.9300 N   0  0  0  0  0  0  0  0  0  0  0  0
  187.0300  176.9400  145.9910 C   0  0  0  0  0  3  0  0  0  0  0  0
  188.3980  178.7250  140.8260 C   0  0  0  0  0  1  0  0  0  0  0  0
  186.7080  177.7230  147.0160 C   0  0  0  0  0  3  0  0  0  0  0  0
  185.9290  178.4200  140.2600 C   0  0  0  0  0  0  0  0  0  0  0  0
  183.3010  178.8140  142.8870 C   0  0  0  0  0  0  0  0  0  0  0  0
  187.5740  178.1470  138.5070 C   0  0  2  0  0  3  0  0  0  0  0  0
  185.1150  178.3530  139.1560 C   0  0  0  0  0  0  0  0  0  0  0  0
  185.0920  178.9300  144.6660 C   0  0  0  0  0  0  0  0  0  0  0  0
  185.3910  178.4500  141.5710 C   0  0  0  0  0  0  0  0  0  0  0  0
  186.8700  177.2220  144.5580 C   0  0  0  0  0  3  0  0  0  0  0  0
  183.7370  178.3300  139.2790 C   0  0  0  0  0  3  0  0  0  0  0  0
  186.0940  179.0540  146.9590 C   0  0  0  0  0  3  0  0  0  0  0  0
  185.3950  179.5700  145.9530 C   0  0  0  0  0  3  0  0  0  0  0  0
  186.0420  178.0740  143.9510 C   0  0  0  0  0  0  0  0  0  0  0  0
  179.0300  179.1190  143.0660 C   0  0  0  0  0  3  0  0  0  0  0  0
  181.8220  178.9000  142.9310 C   0  0  0  0  0  0  0  0  0  0  0  0
  181.1030  179.4540  141.8610 C   0  0  0  0  0  3  0  0  0  0  0  0
  179.7110  179.5580  141.9270 C   0  0  0  0  0  3  0  0  0  0  0  0
  179.7420  178.5780  144.1410 C   0  0  0  0  0  3  0  0  0  0  0  0
  181.1340  178.4730  144.0760 C   0  0  0  0  0  3  0  0  0  0  0  0
  1 15  1  0  0  0  0
  2 12  1  0  0  0  0
  3 21  2  0  0  0  0
  4 13  1  0  0  0  0
  4 14  1  0  0  0  0
  6  2  2  0  0  0  0
  7 11  1  0  0  0  0
  7  9  1  0  0  0  0
  8 10  1  0  0  0  0
 11 16  2  0  0  0  0
 12 23  1  0  0  0  0
 12  1  2  0  0  0  0
 13  5  1  1  0  0  0
 13  7  1  0  0  0  0
 14 18  2  0  0  0  0
 14 11  1  0  0  0  0
 15 20  2  0  0  0  0
 16  2  1  0  0  0  0
 16  3  1  0  0  0  0
 17  8  2  0  0  0  0
 18  6  1  0  0  0  0
 19 10  2  0  0  0  0
 20 19  1  0  0  0  0
 21 17  1  0  0  0  0
 21 15  1  0  0  0  0
 22 26  1  0  0  0  0
 23 27  1  0  0  0  0
 24 25  1  0  0  0  0
 24 23  2  0  0  0  0
 25 22  2  0  0  0  0
 27 26  2  0  0  0  0
M  END
>  <MODEL>
4

>  <REMARK>
 VINA RESULT:      -9.5      3.111      4.940
  Name = 
  1 active torsions:
  status: ('A' for Active; 'I' for Inactive)
    1  A    between atoms: C_9  and  C_15
                            x       y       z     vdW  Elec       q    Type
                         _______ _______ _______ _____ _____    ______ ____

>  <TORSDO>
F 1

$$$$
=
 OpenBabel11052413503D

 27 31  0  0  1  0  0  0  0  0999 V2000
  184.0220  178.2200  142.1060 C   0  0  0  0  0  3  0  0  0  0  0  0
  186.4960  178.2920  141.5990 C   0  0  0  0  0  0  0  0  0  0  0  0
  185.3860  178.6540  139.4720 N   0  0  0  0  0  0  0  0  0  0  0  0
  190.1670  177.5030  138.9480 S   0  0  0  0  0  0  0  0  0  0  0  0
  189.4300  178.8450  136.6720 C   0  0  0  0  0  1  0  0  0  0  0  0
  187.7870  178.1860  142.1740 C   0  0  0  0  0  3  0  0  0  0  0  0
  187.6680  177.8200  138.0080 N   0  0  0  0  0  0  0  0  0  0  0  0
  182.2160  180.6370  139.0620 C   0  0  0  0  0  3  0  0  0  0  0  0
  186.5320  177.5750  137.1310 C   0  0  0  0  0  1  0  0  0  0  0  0
  181.1180  180.1470  139.6290 C   0  0  0  0  0  3  0  0  0  0  0  0
  187.5810  177.9280  139.4290 C   0  0  0  0  0  0  0  0  0  0  0  0
  185.4410  178.3760  142.4600 C   0  0  0  0  0  0  0  0  0  0  0  0
  189.0300  177.6470  137.5120 C   0  0  2  0  0  3  0  0  0  0  0  0
  188.7990  177.7940  140.0490 C   0  0  0  0  0  0  0  0  0  0  0  0
  183.3910  178.5460  140.9920 C   0  0  0  0  0  0  0  0  0  0  0  0
  186.4120  178.2530  140.1630 C   0  0  0  0  0  0  0  0  0  0  0  0
  183.5560  180.0350  139.0310 C   0  0  0  0  0  3  0  0  0  0  0  0
  188.9310  177.9530  141.4170 C   0  0  0  0  0  3  0  0  0  0  0  0
  180.9870  178.8930  140.3770 C   0  0  0  0  0  3  0  0  0  0  0  0
  181.9630  178.2090  140.9680 C   0  0  0  0  0  3  0  0  0  0  0  0
  184.0970  179.1320  139.8490 C   0  0  0  0  0  0  0  0  0  0  0  0
  185.9530  178.4710  146.7130 C   0  0  0  0  0  3  0  0  0  0  0  0
  185.6430  178.4190  143.9270 C   0  0  0  0  0  0  0  0  0  0  0  0
  186.4960  177.5030  144.5620 C   0  0  0  0  0  3  0  0  0  0  0  0
  186.6530  177.5330  145.9500 C   0  0  0  0  0  3  0  0  0  0  0  0
  185.0920  179.3780  146.0890 C   0  0  0  0  0  3  0  0  0  0  0  0
  184.9330  179.3490  144.7000 C   0  0  0  0  0  3  0  0  0  0  0  0
  1 12  1  0  0  0  0
  2  6  1  0  0  0  0
  2 12  2  0  0  0  0
  3 21  1  0  0  0  0
  3 16  2  0  0  0  0
  4 14  1  0  0  0  0
  7 11  1  0  0  0  0
  8 10  2  0  0  0  0
  9  7  1  0  0  0  0
 10 19  1  0  0  0  0
 11 14  2  0  0  0  0
 11 16  1  0  0  0  0
 12 23  1  0  0  0  0
 13  5  1  6  0  0  0
 13  7  1  0  0  0  0
 13  4  1  0  0  0  0
 14 18  1  0  0  0  0
 15  1  2  0  0  0  0
 16  2  1  0  0  0  0
 17  8  1  0  0  0  0
 17 21  2  0  0  0  0
 18  6  2  0  0  0  0
 19 20  2  0  0  0  0
 20 15  1  0  0  0  0
 21 15  1  0  0  0  0
 23 24  2  0  0  0  0
 23 27  1  0  0  0  0
 24 25  1  0  0  0  0
 25 22  2  0  0  0  0
 26 22  1  0  0  0  0
 27 26  2  0  0  0  0
M  END
>  <MODEL>
5

>  <REMARK>
 VINA RESULT:      -9.5      3.083      6.415
  Name = 
  1 active torsions:
  status: ('A' for Active; 'I' for Inactive)
    1  A    between atoms: C_9  and  C_15
                            x       y       z     vdW  Elec       q    Type
                         _______ _______ _______ _____ _____    ______ ____

>  <TORSDO>
F 1

$$$$
=
 OpenBabel11052413503D

 27 31  0  0  1  0  0  0  0  0999 V2000
  188.7630  178.4630  140.1000 C   0  0  0  0  0  3  0  0  0  0  0  0
  186.8930  178.1780  141.7760 C   0  0  0  0  0  0  0  0  0  0  0  0
  185.8050  178.3880  139.6170 N   0  0  0  0  0  0  0  0  0  0  0  0
  182.6700  179.0020  143.3920 S   0  0  0  0  0  0  0  0  0  0  0  0
  181.1580  178.2400  141.2340 C   0  0  0  0  0  1  0  0  0  0  0  0
  186.6050  178.0040  143.1520 C   0  0  0  0  0  3  0  0  0  0  0  0
  183.3570  179.1970  140.8010 N   0  0  0  0  0  0  0  0  0  0  0  0
  187.1700  176.9440  136.4230 C   0  0  0  0  0  3  0  0  0  0  0  0
  183.3410  179.7530  139.4550 C   0  0  0  0  0  1  0  0  0  0  0  0
  188.3140  177.4490  135.9710 C   0  0  0  0  0  3  0  0  0  0  0  0
  184.5420  178.8220  141.5040 C   0  0  0  0  0  0  0  0  0  0  0  0
  188.1990  178.0610  141.3980 C   0  0  0  0  0  0  0  0  0  0  0  0
  182.1720  179.2900  141.6470 C   0  0  2  0  0  3  0  0  0  0  0  0
  184.3350  178.6760  142.8540 C   0  0  0  0  0  0  0  0  0  0  0  0
  188.2100  178.4470  138.9000 C   0  0  0  0  0  0  0  0  0  0  0  0
  185.7920  178.5110  140.9120 C   0  0  0  0  0  0  0  0  0  0  0  0
  186.4080  177.3650  137.6070 C   0  0  0  0  0  3  0  0  0  0  0  0
  185.3440  178.2350  143.6920 C   0  0  0  0  0  3  0  0  0  0  0  0
  189.1010  178.5370  136.5600 C   0  0  0  0  0  3  0  0  0  0  0  0
  189.0610  178.9600  137.8200 C   0  0  0  0  0  3  0  0  0  0  0  0
  186.8250  178.0130  138.6960 C   0  0  0  0  0  0  0  0  0  0  0  0
  191.3050  177.0180  144.1590 C   0  0  0  0  0  3  0  0  0  0  0  0
  189.2560  177.7050  142.3730 C   0  0  0  0  0  0  0  0  0  0  0  0
  189.8640  178.6900  143.1660 C   0  0  0  0  0  3  0  0  0  0  0  0
  190.8820  178.3460  144.0590 C   0  0  0  0  0  3  0  0  0  0  0  0
  190.7130  176.0330  143.3630 C   0  0  0  0  0  3  0  0  0  0  0  0
  189.6950  176.3770  142.4690 C   0  0  0  0  0  3  0  0  0  0  0  0
  1 12  1  0  0  0  0
  2  6  1  0  0  0  0
  3 16  2  0  0  0  0
  6 18  2  0  0  0  0
  7 11  1  0  0  0  0
  7 13  1  0  0  0  0
  8 17  1  0  0  0  0
  9  7  1  0  0  0  0
 10  8  2  0  0  0  0
 10 19  1  0  0  0  0
 11 14  2  0  0  0  0
 12  2  2  0  0  0  0
 12 23  1  0  0  0  0
 13  5  1  6  0  0  0
 13  4  1  0  0  0  0
 14  4  1  0  0  0  0
 14 18  1  0  0  0  0
 15  1  2  0  0  0  0
 16 11  1  0  0  0  0
 16  2  1  0  0  0  0
 17 21  2  0  0  0  0
 19 20  2  0  0  0  0
 20 15  1  0  0  0  0
 21 15  1  0  0  0  0
 21  3  1  0  0  0  0
 23 27  2  0  0  0  0
 23 24  1  0  0  0  0
 24 25  2  0  0  0  0
 25 22  1  0  0  0  0
 26 22  2  0  0  0  0
 27 26  1  0  0  0  0
M  END
>  <MODEL>
6

>  <REMARK>
 VINA RESULT:      -9.4      3.200      7.048
  Name = 
  1 active torsions:
  status: ('A' for Active; 'I' for Inactive)
    1  A    between atoms: C_9  and  C_15
                            x       y       z     vdW  Elec       q    Type
                         _______ _______ _______ _____ _____    ______ ____

>  <TORSDO>
F 1

$$$$
=
 OpenBabel11052413503D

 27 31  0  0  1  0  0  0  0  0999 V2000
  189.0560  178.1570  143.3940 C   0  0  0  0  0  3  0  0  0  0  0  0
  188.8290  177.4950  140.9660 C   0  0  0  0  0  0  0  0  0  0  0  0
  191.0480  176.7710  141.6340 N   0  0  0  0  0  0  0  0  0  0  0  0
  190.4690  176.8340  136.7230 S   0  0  0  0  0  0  0  0  0  0  0  0
  192.5070  175.0750  137.2490 C   0  0  0  0  0  1  0  0  0  0  0  0
  187.9580  177.5150  139.8490 C   0  0  0  0  0  3  0  0  0  0  0  0
  191.9690  176.7350  138.9510 N   0  0  0  0  0  0  0  0  0  0  0  0
  191.8730  175.3700  145.0260 C   0  0  0  0  0  3  0  0  0  0  0  0
  193.1580  176.9330  139.7680 C   0  0  0  0  0  1  0  0  0  0  0  0
  191.7540  176.1910  146.0650 C   0  0  0  0  0  3  0  0  0  0  0  0
  190.6400  177.0400  139.3740 C   0  0  0  0  0  0  0  0  0  0  0  0
  188.2970  177.8470  142.1720 C   0  0  0  0  0  0  0  0  0  0  0  0
  192.0950  176.5110  137.5150 C   0  0  2  0  0  3  0  0  0  0  0  0
  189.7530  177.1140  138.3280 C   0  0  0  0  0  0  0  0  0  0  0  0
  190.2010  177.6590  143.8240 C   0  0  0  0  0  0  0  0  0  0  0  0
  190.2050  177.1520  140.7190 C   0  0  0  0  0  0  0  0  0  0  0  0
  191.6630  175.6830  143.6050 C   0  0  0  0  0  3  0  0  0  0  0  0
  188.4010  177.3170  138.5450 C   0  0  0  0  0  3  0  0  0  0  0  0
  191.3650  177.6050  146.0420 C   0  0  0  0  0  3  0  0  0  0  0  0
  190.6920  178.2330  145.0830 C   0  0  0  0  0  3  0  0  0  0  0  0
  190.9460  176.6620  143.0510 C   0  0  0  0  0  0  0  0  0  0  0  0
  184.1570  178.8480  142.6380 C   0  0  0  0  0  3  0  0  0  0  0  0
  186.8590  178.1740  142.3160 C   0  0  0  0  0  0  0  0  0  0  0  0
  186.1620  178.8160  141.2810 C   0  0  0  0  0  3  0  0  0  0  0  0
  184.8140  179.1470  141.4420 C   0  0  0  0  0  3  0  0  0  0  0  0
  184.8500  178.2210  143.6780 C   0  0  0  0  0  3  0  0  0  0  0  0
  186.1990  177.8890  143.5190 C   0  0  0  0  0  3  0  0  0  0  0  0
  1 15  1  0  0  0  0
  2 12  1  0  0  0  0
  3 21  2  0  0  0  0
  4 13  1  0  0  0  0
  4 14  1  0  0  0  0
  6  2  2  0  0  0  0
  7 11  1  0  0  0  0
  7  9  1  0  0  0  0
  8 10  1  0  0  0  0
 11 16  2  0  0  0  0
 12 23  1  0  0  0  0
 12  1  2  0  0  0  0
 13  5  1  1  0  0  0
 13  7  1  0  0  0  0
 14 18  2  0  0  0  0
 14 11  1  0  0  0  0
 15 20  2  0  0  0  0
 16  2  1  0  0  0  0
 16  3  1  0  0  0  0
 17  8  2  0  0  0  0
 18  6  1  0  0  0  0
 19 10  2  0  0  0  0
 20 19  1  0  0  0  0
 21 17  1  0  0  0  0
 21 15  1  0  0  0  0
 22 26  1  0  0  0  0
 23 27  1  0  0  0  0
 24 25  1  0  0  0  0
 24 23  2  0  0  0  0
 25 22  2  0  0  0  0
 27 26  2  0  0  0  0
M  END
>  <MODEL>
7

>  <REMARK>
 VINA RESULT:      -9.0      1.461      2.112
  Name = 
  1 active torsions:
  status: ('A' for Active; 'I' for Inactive)
    1  A    between atoms: C_9  and  C_15
                            x       y       z     vdW  Elec       q    Type
                         _______ _______ _______ _____ _____    ______ ____

>  <TORSDO>
F 1

$$$$
=
 OpenBabel11052413503D

 27 31  0  0  1  0  0  0  0  0999 V2000
  185.3420  178.1220  138.7820 C   0  0  0  0  0  3  0  0  0  0  0  0
  185.3090  178.5850  141.2660 C   0  0  0  0  0  0  0  0  0  0  0  0
  187.6010  177.9800  140.7480 N   0  0  0  0  0  0  0  0  0  0  0  0
  186.6490  177.8360  145.5990 S   0  0  0  0  0  0  0  0  0  0  0  0
  189.3590  178.1700  145.3420 C   0  0  0  0  0  1  0  0  0  0  0  0
  184.4790  178.9650  142.3500 C   0  0  0  0  0  3  0  0  0  0  0  0
  188.1400  177.2590  143.4380 N   0  0  0  0  0  0  0  0  0  0  0  0
  189.3690  178.9530  137.5730 C   0  0  0  0  0  3  0  0  0  0  0  0
  189.0830  176.4930  142.6330 C   0  0  0  0  0  1  0  0  0  0  0  0
  188.9050  178.4370  136.4390 C   0  0  0  0  0  3  0  0  0  0  0  0
  186.9120  177.7970  142.9470 C   0  0  0  0  0  0  0  0  0  0  0  0
  184.7820  178.7010  140.0130 C   0  0  0  0  0  0  0  0  0  0  0  0
  188.2410  177.2490  144.8940 C   0  0  2  0  0  3  0  0  0  0  0  0
  186.0460  178.1480  143.9530 C   0  0  0  0  0  0  0  0  0  0  0  0
  186.6040  177.9190  138.4450 C   0  0  0  0  0  0  0  0  0  0  0  0
  186.6120  178.0670  141.5880 C   0  0  0  0  0  0  0  0  0  0  0  0
  188.8940  178.6940  138.9390 C   0  0  0  0  0  3  0  0  0  0  0  0
  184.8380  178.7660  143.6790 C   0  0  0  0  0  3  0  0  0  0  0  0
  187.7910  177.4950  136.2810 C   0  0  0  0  0  3  0  0  0  0  0  0
  186.8000  177.2790  137.1390 C   0  0  0  0  0  3  0  0  0  0  0  0
  187.7060  178.2490  139.3520 C   0  0  0  0  0  0  0  0  0  0  0  0
  180.8630  180.2840  139.3080 C   0  0  0  0  0  3  0  0  0  0  0  0
  183.4260  179.2580  139.7940 C   0  0  0  0  0  0  0  0  0  0  0  0
  182.3080  178.7000  140.4320 C   0  0  0  0  0  3  0  0  0  0  0  0
  181.0310  179.2160  140.1930 C   0  0  0  0  0  3  0  0  0  0  0  0
  181.9710  180.8360  138.6580 C   0  0  0  0  0  3  0  0  0  0  0  0
  183.2490  180.3210  138.8970 C   0  0  0  0  0  3  0  0  0  0  0  0
  1 12  1  0  0  0  0
  2 16  1  0  0  0  0
  2  6  1  0  0  0  0
  3 16  2  0  0  0  0
  6 18  2  0  0  0  0
  7 13  1  0  0  0  0
  8 17  1  0  0  0  0
  9  7  1  0  0  0  0
 10  8  2  0  0  0  0
 11  7  1  0  0  0  0
 11 14  2  0  0  0  0
 12  2  2  0  0  0  0
 13  5  1  6  0  0  0
 13  4  1  0  0  0  0
 14  4  1  0  0  0  0
 15  1  2  0  0  0  0
 15 21  1  0  0  0  0
 16 11  1  0  0  0  0
 17 21  2  0  0  0  0
 18 14  1  0  0  0  0
 19 10  1  0  0  0  0
 19 20  2  0  0  0  0
 20 15  1  0  0  0  0
 21  3  1  0  0  0  0
 22 25  1  0  0  0  0
 23 12  1  0  0  0  0
 23 24  1  0  0  0  0
 25 24  2  0  0  0  0
 26 27  1  0  0  0  0
 26 22  2  0  0  0  0
 27 23  2  0  0  0  0
M  END
>  <MODEL>
8

>  <REMARK>
 VINA RESULT:      -8.9      3.436      6.837
  Name = 
  1 active torsions:
  status: ('A' for Active; 'I' for Inactive)
    1  A    between atoms: C_9  and  C_15
                            x       y       z     vdW  Elec       q    Type
                         _______ _______ _______ _____ _____    ______ ____

>  <TORSDO>
F 1

$$$$
=
 OpenBabel11052413503D

 27 31  0  0  1  0  0  0  0  0999 V2000
  187.5370  177.2580  144.5880 C   0  0  0  0  0  3  0  0  0  0  0  0
  189.3010  177.4280  142.7870 C   0  0  0  0  0  0  0  0  0  0  0  0
  187.2550  178.2470  141.7720 N   0  0  0  0  0  0  0  0  0  0  0  0
  190.7520  177.2170  138.4300 S   0  0  0  0  0  0  0  0  0  0  0  0
  189.0560  179.0250  137.2570 C   0  0  0  0  0  1  0  0  0  0  0  0
  190.6680  177.1940  142.4960 C   0  0  0  0  0  3  0  0  0  0  0  0
  188.2160  177.7410  139.1510 N   0  0  0  0  0  0  0  0  0  0  0  0
  184.6710  180.2850  143.5940 C   0  0  0  0  0  3  0  0  0  0  0  0
  186.7640  177.6970  139.0480 C   0  0  0  0  0  1  0  0  0  0  0  0
  184.0200  179.6890  144.5870 C   0  0  0  0  0  3  0  0  0  0  0  0
  188.9450  177.5390  140.3620 C   0  0  0  0  0  0  0  0  0  0  0  0
  188.9210  177.3270  144.0930 C   0  0  0  0  0  0  0  0  0  0  0  0
  189.0390  177.6750  137.9480 C   0  0  2  0  0  3  0  0  0  0  0  0
  190.2740  177.2680  140.1440 C   0  0  0  0  0  0  0  0  0  0  0  0
  186.4420  177.8210  144.1080 C   0  0  0  0  0  0  0  0  0  0  0  0
  188.4310  177.7010  141.6740 C   0  0  0  0  0  0  0  0  0  0  0  0
  185.6800  179.6990  142.7010 C   0  0  0  0  0  3  0  0  0  0  0  0
  191.1600  177.1260  141.1970 C   0  0  0  0  0  3  0  0  0  0  0  0
  184.1680  178.3020  145.0420 C   0  0  0  0  0  3  0  0  0  0  0  0
  185.2110  177.5030  144.8420 C   0  0  0  0  0  3  0  0  0  0  0  0
  186.4640  178.6370  142.8920 C   0  0  0  0  0  0  0  0  0  0  0  0
  191.7200  176.4700  147.2220 C   0  0  0  0  0  3  0  0  0  0  0  0
  189.9050  177.0490  145.1650 C   0  0  0  0  0  0  0  0  0  0  0  0
  191.1040  176.3780  144.8820 C   0  0  0  0  0  3  0  0  0  0  0  0
  192.0110  176.0940  145.9080 C   0  0  0  0  0  3  0  0  0  0  0  0
  190.5210  177.1280  147.5120 C   0  0  0  0  0  3  0  0  0  0  0  0
  189.6140  177.4120  146.4870 C   0  0  0  0  0  3  0  0  0  0  0  0
  2 12  1  0  0  0  0
  3 21  2  0  0  0  0
  4 14  1  0  0  0  0
  6  2  1  0  0  0  0
  7 11  1  0  0  0  0
  8 10  1  0  0  0  0
  9  7  1  0  0  0  0
 10 19  2  0  0  0  0
 11 16  1  0  0  0  0
 12  1  2  0  0  0  0
 12 23  1  0  0  0  0
 13  5  1  1  0  0  0
 13  4  1  0  0  0  0
 13  7  1  0  0  0  0
 14 11  2  0  0  0  0
 14 18  1  0  0  0  0
 15  1  1  0  0  0  0
 15 20  2  0  0  0  0
 16  3  1  0  0  0  0
 16  2  2  0  0  0  0
 17 21  1  0  0  0  0
 17  8  2  0  0  0  0
 18  6  2  0  0  0  0
 20 19  1  0  0  0  0
 21 15  1  0  0  0  0
 22 26  1  0  0  0  0
 23 27  1  0  0  0  0
 24 23  2  0  0  0  0
 24 25  1  0  0  0  0
 25 22  2  0  0  0  0
 27 26  2  0  0  0  0
M  END
>  <MODEL>
9

>  <REMARK>
 VINA RESULT:      -8.8      1.539      5.117
  Name = 
  1 active torsions:
  status: ('A' for Active; 'I' for Inactive)
    1  A    between atoms: C_9  and  C_15
                            x       y       z     vdW  Elec       q    Type
                         _______ _______ _______ _____ _____    ______ ____

>  <TORSDO>
F 1

$$$$
