=
 OpenBabel11052414373D

 32 37  0  0  1  0  0  0  0  0999 V2000
  187.2250  178.1400  140.9690 C   0  0  1  0  0  3  0  0  0  0  0  0
  188.2630  177.8100  138.6320 C   0  0  2  0  0  3  0  0  0  0  0  0
  186.3350  179.1580  141.6880 C   0  0  0  0  0  2  0  0  0  0  0  0
  187.1560  178.4590  139.4820 C   0  0  1  0  0  3  0  0  0  0  0  0
  187.7880  176.5110  137.9800 C   0  0  2  0  0  3  0  0  0  0  0  0
  192.9550  176.1550  138.1520 C   0  0  0  0  0  2  0  0  0  0  0  0
  189.5860  177.6570  139.4130 C   0  0  1  0  0  3  0  0  0  0  0  0
  191.3010  175.2160  136.9420 C   0  0  0  0  0  2  0  0  0  0  0  0
  190.2380  175.9780  137.6860 C   0  0  0  0  0  0  0  0  0  0  0  0
  185.7460  178.0790  139.0460 C   0  0  2  0  0  3  0  0  0  0  0  0
  188.8820  175.9090  137.2290 N   0  0  0  0  0  2  0  0  0  0  0  0
  185.6530  177.9230  137.5330 C   0  0  0  0  0  2  0  0  0  0  0  0
  184.7760  179.0860  139.6520 C   0  0  0  0  0  2  0  0  0  0  0  0
  189.3720  177.1300  140.7000 O   0  0  0  0  0  0  0  0  0  0  0  0
  188.6830  178.1150  141.4330 C   0  0  2  0  0  3  0  0  0  0  0  0
  190.6000  176.8270  138.6710 C   0  0  0  0  0  0  0  0  0  0  0  0
  186.5800  176.7810  137.0530 C   0  0  2  0  0  3  0  0  0  0  0  0
  184.8820  179.0310  141.1900 C   0  0  0  0  0  2  0  0  0  0  0  0
  192.3910  174.9210  137.7840 O   0  0  0  0  0  0  0  0  0  0  0  0
  192.0310  176.8700  139.1410 C   0  0  0  0  0  2  0  0  0  0  0  0
  190.1500  177.3680  144.8620 C   0  0  0  0  0  0  0  0  0  0  0  0
  191.4780  177.1740  145.5060 C   0  0  0  0  0  1  0  0  0  0  0  0
  188.7900  177.8180  142.9000 C   0  0  0  0  0  0  0  0  0  0  0  0
  188.9930  177.2760  145.6420 C   0  0  0  0  0  3  0  0  0  0  0  0
  187.6350  177.7260  143.6900 C   0  0  0  0  0  3  0  0  0  0  0  0
  190.0510  177.6400  143.4900 C   0  0  0  0  0  0  0  0  0  0  0  0
  191.1750  177.7320  142.7330 F   0  0  0  0  0  0  0  0  0  0  0  0
  187.7360  177.4600  145.0590 C   0  0  0  0  0  0  0  0  0  0  0  0
  185.5090  178.4210  145.5000 C   0  0  0  0  0  1  0  0  0  0  0  0
  186.5050  177.3450  145.8890 C   0  0  0  0  0  2  0  0  0  0  0  0
  185.7870  175.5030  136.8090 C   0  0  0  0  0  2  0  0  0  0  0  0
  185.9710  175.0470  135.5020 O   0  0  0  0  0  1  0  0  0  0  0  0
  1 15  1  0  0  0  0
  1  3  1  1  0  0  0
  2  7  1  0  0  0  0
  2  4  1  0  0  0  0
  4  1  1  0  0  0  0
  5  2  1  0  0  0  0
  6 20  1  0  0  0  0
  7 14  1  0  0  0  0
  8  9  1  0  0  0  0
  8 19  1  0  0  0  0
  9 16  2  0  0  0  0
 10  4  1  0  0  0  0
 10 13  1  0  0  0  0
 11  9  1  0  0  0  0
 11  5  1  0  0  0  0
 12 10  1  0  0  0  0
 13 18  1  0  0  0  0
 14 15  1  0  0  0  0
 15 23  1  0  0  0  0
 16 20  1  0  0  0  0
 16  7  1  0  0  0  0
 17 12  1  0  0  0  0
 17  5  1  0  0  0  0
 18  3  1  0  0  0  0
 19  6  1  0  0  0  0
 21 22  1  0  0  0  0
 21 24  1  0  0  0  0
 23 26  1  0  0  0  0
 23 25  2  0  0  0  0
 25 28  1  0  0  0  0
 26 21  2  0  0  0  0
 27 26  1  0  0  0  0
 28 24  2  0  0  0  0
 28 30  1  0  0  0  0
 29 30  1  0  0  0  0
 31 17  1  0  0  0  0
 32 31  1  0  0  0  0
M  END
>  <MODEL>
1

>  <REMARK>
 VINA RESULT:      -9.4      0.000      0.000
  Name = 
  3 active torsions:
  status: ('A' for Active; 'I' for Inactive)
    1  A    between atoms: C_13  and  C_29
    2  A    between atoms: C_15  and  C_26
    3  A    between atoms: C_16  and  C_27
                            x       y       z     vdW  Elec       q    Type
                         _______ _______ _______ _____ _____    ______ ____

>  <TORSDO>
F 3

$$$$
=
 OpenBabel11052414373D

 32 37  0  0  1  0  0  0  0  0999 V2000
  184.9890  178.5080  142.3360 C   0  0  1  0  0  3  0  0  0  0  0  0
  184.0020  178.6990  139.9620 C   0  0  2  0  0  3  0  0  0  0  0  0
  184.8770  179.2350  143.6790 C   0  0  0  0  0  2  0  0  0  0  0  0
  183.8480  179.0080  141.4620 C   0  0  1  0  0  3  0  0  0  0  0  0
  183.2400  177.4350  139.5630 C   0  0  2  0  0  3  0  0  0  0  0  0
  186.9040  178.0310  135.9480 C   0  0  0  0  0  2  0  0  0  0  0  0
  185.4800  178.6910  139.5160 C   0  0  1  0  0  3  0  0  0  0  0  0
  184.9190  176.9720  136.0890 C   0  0  0  0  0  2  0  0  0  0  0  0
  184.7130  177.4140  137.5140 C   0  0  0  0  0  0  0  0  0  0  0  0
  182.5770  178.4330  142.0780 C   0  0  2  0  0  3  0  0  0  0  0  0
  183.4560  177.1550  138.1490 N   0  0  0  0  0  2  0  0  0  0  0  0
  181.4140  178.4700  141.0950 C   0  0  0  0  0  2  0  0  0  0  0  0
  182.3280  179.1500  143.4000 C   0  0  0  0  0  2  0  0  0  0  0  0
  186.2890  177.9640  140.4080 O   0  0  0  0  0  0  0  0  0  0  0  0
  186.3250  178.6930  141.6120 C   0  0  2  0  0  3  0  0  0  0  0  0
  185.6550  178.1740  138.1120 C   0  0  0  0  0  0  0  0  0  0  0  0
  181.7310  177.5970  139.8570 C   0  0  2  0  0  3  0  0  0  0  0  0
  183.5240  178.9070  144.3430 C   0  0  0  0  0  2  0  0  0  0  0  0
  186.2860  176.7740  135.8170 O   0  0  0  0  0  0  0  0  0  0  0  0
  186.9740  178.4190  137.4270 C   0  0  0  0  0  2  0  0  0  0  0  0
  189.8360  177.6900  142.6750 C   0  0  0  0  0  0  0  0  0  0  0  0
  191.2020  177.5730  142.0960 C   0  0  0  0  0  1  0  0  0  0  0  0
  187.4770  178.2250  142.4510 C   0  0  0  0  0  0  0  0  0  0  0  0
  189.6340  177.3630  144.0190 C   0  0  0  0  0  3  0  0  0  0  0  0
  187.2830  177.8970  143.8000 C   0  0  0  0  0  3  0  0  0  0  0  0
  188.7590  178.1230  141.8880 C   0  0  0  0  0  0  0  0  0  0  0  0
  188.9560  178.4430  140.5830 F   0  0  0  0  0  0  0  0  0  0  0  0
  188.3600  177.4700  144.5840 C   0  0  0  0  0  0  0  0  0  0  0  0
  186.8870  177.7730  146.5380 C   0  0  0  0  0  1  0  0  0  0  0  0
  188.1440  177.1050  146.0120 C   0  0  0  0  0  2  0  0  0  0  0  0
  181.0480  176.2390  139.9600 C   0  0  0  0  0  2  0  0  0  0  0  0
  179.8860  176.3240  140.7300 O   0  0  0  0  0  1  0  0  0  0  0  0
  1  3  1  1  0  0  0
  2  4  1  0  0  0  0
  3 18  1  0  0  0  0
  4 10  1  0  0  0  0
  4  1  1  0  0  0  0
  5 17  1  0  0  0  0
  5  2  1  0  0  0  0
  6 20  1  0  0  0  0
  7  2  1  0  0  0  0
  7 14  1  0  0  0  0
  8  9  1  0  0  0  0
  9 16  2  0  0  0  0
  9 11  1  0  0  0  0
 10 13  1  0  0  0  0
 11  5  1  0  0  0  0
 12 10  1  0  0  0  0
 13 18  1  0  0  0  0
 14 15  1  0  0  0  0
 15  1  1  0  0  0  0
 15 23  1  0  0  0  0
 16  7  1  0  0  0  0
 17 31  1  0  0  0  0
 17 12  1  0  0  0  0
 19  6  1  0  0  0  0
 19  8  1  0  0  0  0
 20 16  1  0  0  0  0
 21 24  1  0  0  0  0
 22 21  1  0  0  0  0
 23 25  2  0  0  0  0
 24 28  2  0  0  0  0
 25 28  1  0  0  0  0
 26 23  1  0  0  0  0
 26 21  2  0  0  0  0
 27 26  1  0  0  0  0
 28 30  1  0  0  0  0
 30 29  1  0  0  0  0
 31 32  1  0  0  0  0
M  END
>  <MODEL>
2

>  <REMARK>
 VINA RESULT:      -9.0      2.689      4.401
  Name = 
  3 active torsions:
  status: ('A' for Active; 'I' for Inactive)
    1  A    between atoms: C_13  and  C_29
    2  A    between atoms: C_15  and  C_26
    3  A    between atoms: C_16  and  C_27
                            x       y       z     vdW  Elec       q    Type
                         _______ _______ _______ _____ _____    ______ ____

>  <TORSDO>
F 3

$$$$
=
 OpenBabel11052414373D

 32 37  0  0  1  0  0  0  0  0999 V2000
  186.0070  178.4500  140.4560 C   0  0  1  0  0  3  0  0  0  0  0  0
  188.5550  178.2600  140.1140 C   0  0  2  0  0  3  0  0  0  0  0  0
  184.8240  179.1890  139.8240 C   0  0  0  0  0  2  0  0  0  0  0  0
  187.1830  178.5930  139.5010 C   0  0  1  0  0  3  0  0  0  0  0  0
  188.9800  176.8240  139.8080 C   0  0  2  0  0  3  0  0  0  0  0  0
  191.6410  178.1690  144.0450 C   0  0  0  0  0  2  0  0  0  0  0  0
  188.6250  178.6140  141.6150 C   0  0  1  0  0  3  0  0  0  0  0  0
  191.8650  176.6410  142.4040 C   0  0  0  0  0  2  0  0  0  0  0  0
  190.5940  177.0840  141.7310 C   0  0  0  0  0  0  0  0  0  0  0  0
  186.8320  177.7400  138.2870 C   0  0  2  0  0  3  0  0  0  0  0  0
  190.2560  176.5400  140.4490 N   0  0  0  0  0  2  0  0  0  0  0  0
  188.0660  177.4250  137.4510 C   0  0  0  0  0  2  0  0  0  0  0  0
  185.7020  178.4320  137.5350 C   0  0  0  0  0  2  0  0  0  0  0  0
  187.4860  178.1660  142.3090 O   0  0  0  0  0  0  0  0  0  0  0  0
  186.4020  178.9390  141.8520 C   0  0  2  0  0  3  0  0  0  0  0  0
  189.8760  178.0910  142.2730 C   0  0  0  0  0  0  0  0  0  0  0  0
  189.0820  176.6040  138.2810 C   0  0  2  0  0  3  0  0  0  0  0  0
  184.4750  178.5550  138.4630 C   0  0  0  0  0  2  0  0  0  0  0  0
  191.7730  176.7910  143.8010 O   0  0  0  0  0  0  0  0  0  0  0  0
  190.2440  178.6350  143.6280 C   0  0  0  0  0  2  0  0  0  0  0  0
  184.4470  178.5390  145.0900 C   0  0  0  0  0  0  0  0  0  0  0  0
  184.6960  178.3350  146.5430 C   0  0  0  0  0  1  0  0  0  0  0  0
  185.2600  178.8280  142.8190 C   0  0  0  0  0  0  0  0  0  0  0  0
  183.1300  178.6330  144.6300 C   0  0  0  0  0  3  0  0  0  0  0  0
  183.9360  178.9230  142.3660 C   0  0  0  0  0  3  0  0  0  0  0  0
  185.5150  178.6380  144.1860 C   0  0  0  0  0  0  0  0  0  0  0  0
  186.7940  178.5490  144.6340 F   0  0  0  0  0  0  0  0  0  0  0  0
  182.8740  178.8290  143.2700 C   0  0  0  0  0  0  0  0  0  0  0  0
  180.5040  178.5720  143.9000 C   0  0  0  0  0  1  0  0  0  0  0  0
  181.4690  178.9120  142.7800 C   0  0  0  0  0  2  0  0  0  0  0  0
  188.9910  175.1220  137.9380 C   0  0  0  0  0  2  0  0  0  0  0  0
  190.2640  174.5770  137.7520 O   0  0  0  0  0  1  0  0  0  0  0  0
  1  3  1  6  0  0  0
  1 15  1  0  0  0  0
  2  7  1  0  0  0  0
  4  2  1  0  0  0  0
  4  1  1  0  0  0  0
  5  2  1  0  0  0  0
  5 11  1  0  0  0  0
  7 16  1  0  0  0  0
  7 14  1  0  0  0  0
  8 19  1  0  0  0  0
  9 16  2  0  0  0  0
  9  8  1  0  0  0  0
 10  4  1  0  0  0  0
 11  9  1  0  0  0  0
 12 17  1  0  0  0  0
 12 10  1  0  0  0  0
 13 10  1  0  0  0  0
 13 18  1  0  0  0  0
 15 14  1  0  0  0  0
 15 23  1  0  0  0  0
 16 20  1  0  0  0  0
 17  5  1  0  0  0  0
 18  3  1  0  0  0  0
 19  6  1  0  0  0  0
 20  6  1  0  0  0  0
 21 22  1  0  0  0  0
 23 26  1  0  0  0  0
 24 21  1  0  0  0  0
 25 23  2  0  0  0  0
 25 28  1  0  0  0  0
 26 27  1  0  0  0  0
 26 21  2  0  0  0  0
 28 24  2  0  0  0  0
 30 28  1  0  0  0  0
 30 29  1  0  0  0  0
 31 17  1  0  0  0  0
 32 31  1  0  0  0  0
M  END
>  <MODEL>
3

>  <REMARK>
 VINA RESULT:      -8.5      2.256      4.234
  Name = 
  3 active torsions:
  status: ('A' for Active; 'I' for Inactive)
    1  A    between atoms: C_13  and  C_29
    2  A    between atoms: C_15  and  C_26
    3  A    between atoms: C_16  and  C_27
                            x       y       z     vdW  Elec       q    Type
                         _______ _______ _______ _____ _____    ______ ____

>  <TORSDO>
F 3

$$$$
=
 OpenBabel11052414373D

 32 37  0  0  1  0  0  0  0  0999 V2000
  185.8120  178.2500  140.2010 C   0  0  1  0  0  3  0  0  0  0  0  0
  187.3070  177.8250  138.1440 C   0  0  2  0  0  3  0  0  0  0  0  0
  184.7230  179.2360  140.6350 C   0  0  0  0  0  2  0  0  0  0  0  0
  186.0090  178.4350  138.7030 C   0  0  1  0  0  3  0  0  0  0  0  0
  187.0700  176.4370  137.5500 C   0  0  2  0  0  3  0  0  0  0  0  0
  192.1160  176.5920  138.7170 C   0  0  0  0  0  2  0  0  0  0  0  0
  188.4600  177.8660  139.1700 C   0  0  1  0  0  3  0  0  0  0  0  0
  190.8080  175.4000  137.3220 C   0  0  0  0  0  2  0  0  0  0  0  0
  189.5640  176.1170  137.7730 C   0  0  0  0  0  0  0  0  0  0  0  0
  184.7440  177.8860  138.0520 C   0  0  2  0  0  3  0  0  0  0  0  0
  188.3330  175.8800  137.0810 N   0  0  0  0  0  2  0  0  0  0  0  0
  184.9600  177.5960  136.5730 C   0  0  0  0  0  2  0  0  0  0  0  0
  183.6000  178.8430  138.3620 C   0  0  0  0  0  2  0  0  0  0  0  0
  188.0420  177.4320  140.4410 O   0  0  0  0  0  0  0  0  0  0  0  0
  187.1480  178.4050  140.9300 C   0  0  2  0  0  3  0  0  0  0  0  0
  189.6610  177.0770  138.7180 C   0  0  0  0  0  0  0  0  0  0  0  0
  186.0490  176.5110  136.3920 C   0  0  2  0  0  3  0  0  0  0  0  0
  183.4080  178.9290  139.8900 C   0  0  0  0  0  2  0  0  0  0  0  0
  191.7320  175.2830  138.3780 O   0  0  0  0  0  0  0  0  0  0  0  0
  190.9650  177.2970  139.4400 C   0  0  0  0  0  2  0  0  0  0  0  0
  187.9360  177.6940  144.5820 C   0  0  0  0  0  0  0  0  0  0  0  0
  189.0820  177.2630  145.4280 C   0  0  0  0  0  1  0  0  0  0  0  0
  186.9910  178.2440  142.4130 C   0  0  0  0  0  0  0  0  0  0  0  0
  186.7020  177.9560  145.1860 C   0  0  0  0  0  3  0  0  0  0  0  0
  185.7570  178.5060  143.0260 C   0  0  0  0  0  3  0  0  0  0  0  0
  188.0830  177.8390  143.1950 C   0  0  0  0  0  0  0  0  0  0  0  0
  189.2830  177.5860  142.6090 F   0  0  0  0  0  0  0  0  0  0  0  0
  185.6140  178.3660  144.4100 C   0  0  0  0  0  0  0  0  0  0  0  0
  183.2630  178.9870  144.0020 C   0  0  0  0  0  1  0  0  0  0  0  0
  184.2970  178.6290  145.0530 C   0  0  0  0  0  2  0  0  0  0  0  0
  185.4200  175.1470  136.1340 C   0  0  0  0  0  2  0  0  0  0  0  0
  185.2130  174.4610  137.3330 O   0  0  0  0  0  1  0  0  0  0  0  0
  1  3  1  1  0  0  0
  1 15  1  0  0  0  0
  2  4  1  0  0  0  0
  2  7  1  0  0  0  0
  4  1  1  0  0  0  0
  5  2  1  0  0  0  0
  6 20  1  0  0  0  0
  7 14  1  0  0  0  0
  8  9  1  0  0  0  0
  8 19  1  0  0  0  0
  9 16  2  0  0  0  0
 10 13  1  0  0  0  0
 10  4  1  0  0  0  0
 11  5  1  0  0  0  0
 11  9  1  0  0  0  0
 12 10  1  0  0  0  0
 13 18  1  0  0  0  0
 14 15  1  0  0  0  0
 15 23  1  0  0  0  0
 16  7  1  0  0  0  0
 16 20  1  0  0  0  0
 17 12  1  0  0  0  0
 17  5  1  0  0  0  0
 18  3  1  0  0  0  0
 19  6  1  0  0  0  0
 21 24  1  0  0  0  0
 21 22  1  0  0  0  0
 23 25  2  0  0  0  0
 23 26  1  0  0  0  0
 25 28  1  0  0  0  0
 26 21  2  0  0  0  0
 27 26  1  0  0  0  0
 28 30  1  0  0  0  0
 28 24  2  0  0  0  0
 29 30  1  0  0  0  0
 31 17  1  0  0  0  0
 31 32  1  0  0  0  0
M  END
>  <MODEL>
4

>  <REMARK>
 VINA RESULT:      -8.4      1.173      1.689
  Name = 
  3 active torsions:
  status: ('A' for Active; 'I' for Inactive)
    1  A    between atoms: C_13  and  C_29
    2  A    between atoms: C_15  and  C_26
    3  A    between atoms: C_16  and  C_27
                            x       y       z     vdW  Elec       q    Type
                         _______ _______ _______ _____ _____    ______ ____

>  <TORSDO>
F 3

$$$$
=
 OpenBabel11052414373D

 32 37  0  0  1  0  0  0  0  0999 V2000
  185.1780  178.0760  139.9200 C   0  0  1  0  0  3  0  0  0  0  0  0
  186.7410  178.7450  141.8580 C   0  0  2  0  0  3  0  0  0  0  0  0
  184.8800  178.5300  138.4880 C   0  0  0  0  0  2  0  0  0  0  0  0
  186.4710  178.7590  140.3430 C   0  0  1  0  0  3  0  0  0  0  0  0
  187.6700  177.5980  142.2570 C   0  0  2  0  0  3  0  0  0  0  0  0
  185.0580  178.8150  146.5640 C   0  0  0  0  0  2  0  0  0  0  0  0
  185.4380  178.7960  142.6840 C   0  0  1  0  0  3  0  0  0  0  0  0
  187.0050  177.7880  146.0810 C   0  0  0  0  0  2  0  0  0  0  0  0
  186.7960  177.9480  144.5990 C   0  0  0  0  0  0  0  0  0  0  0  0
  187.5720  178.1000  139.5180 C   0  0  2  0  0  3  0  0  0  0  0  0
  187.8550  177.5940  143.7030 N   0  0  0  0  0  2  0  0  0  0  0  0
  188.9470  178.3510  140.1240 C   0  0  0  0  0  2  0  0  0  0  0  0
  187.4110  178.5500  138.0720 C   0  0  0  0  0  2  0  0  0  0  0  0
  184.4760  177.8930  142.1940 O   0  0  0  0  0  0  0  0  0  0  0  0
  184.0720  178.3730  140.9340 C   0  0  2  0  0  3  0  0  0  0  0  0
  185.6770  178.5590  144.1530 C   0  0  0  0  0  0  0  0  0  0  0  0
  189.0320  177.7290  141.5380 C   0  0  2  0  0  3  0  0  0  0  0  0
  186.0290  178.1060  137.5520 C   0  0  0  0  0  2  0  0  0  0  0  0
  185.7760  177.6210  146.7480 O   0  0  0  0  0  0  0  0  0  0  0  0
  184.5720  178.9070  145.1150 C   0  0  0  0  0  2  0  0  0  0  0  0
  180.3520  177.6250  140.6740 C   0  0  0  0  0  0  0  0  0  0  0  0
  179.0570  178.1350  141.2000 C   0  0  0  0  0  1  0  0  0  0  0  0
  182.7750  177.7290  140.5420 C   0  0  0  0  0  0  0  0  0  0  0  0
  180.3510  176.5340  139.7990 C   0  0  0  0  0  3  0  0  0  0  0  0
  182.7650  176.6350  139.6630 C   0  0  0  0  0  3  0  0  0  0  0  0
  181.5630  178.2250  141.0460 C   0  0  0  0  0  0  0  0  0  0  0  0
  181.5630  179.2860  141.8950 F   0  0  0  0  0  0  0  0  0  0  0  0
  181.5560  176.0420  139.2900 C   0  0  0  0  0  0  0  0  0  0  0  0
  182.8570  174.8080  137.5980 C   0  0  0  0  0  1  0  0  0  0  0  0
  181.5540  174.8690  138.3710 C   0  0  0  0  0  2  0  0  0  0  0  0
  189.7590  176.3900  141.5020 C   0  0  0  0  0  2  0  0  0  0  0  0
  190.5240  176.2720  140.3400 O   0  0  0  0  0  1  0  0  0  0  0  0
  1  3  1  6  0  0  0
  1  4  1  0  0  0  0
  1 15  1  0  0  0  0
  2  5  1  0  0  0  0
  2  7  1  0  0  0  0
  4  2  1  0  0  0  0
  5 11  1  0  0  0  0
  6 19  1  0  0  0  0
  7 16  1  0  0  0  0
  8 19  1  0  0  0  0
  9  8  1  0  0  0  0
 10 12  1  0  0  0  0
 10  4  1  0  0  0  0
 11  9  1  0  0  0  0
 12 17  1  0  0  0  0
 13 10  1  0  0  0  0
 14  7  1  0  0  0  0
 15 14  1  0  0  0  0
 16  9  2  0  0  0  0
 16 20  1  0  0  0  0
 17  5  1  0  0  0  0
 18 13  1  0  0  0  0
 18  3  1  0  0  0  0
 20  6  1  0  0  0  0
 21 26  1  0  0  0  0
 21 22  1  0  0  0  0
 23 15  1  0  0  0  0
 23 26  2  0  0  0  0
 24 21  2  0  0  0  0
 25 23  1  0  0  0  0
 26 27  1  0  0  0  0
 28 25  2  0  0  0  0
 28 24  1  0  0  0  0
 29 30  1  0  0  0  0
 30 28  1  0  0  0  0
 31 17  1  0  0  0  0
 32 31  1  0  0  0  0
M  END
>  <MODEL>
5

>  <REMARK>
 VINA RESULT:      -8.4      3.559      7.555
  Name = 
  3 active torsions:
  status: ('A' for Active; 'I' for Inactive)
    1  A    between atoms: C_13  and  C_29
    2  A    between atoms: C_15  and  C_26
    3  A    between atoms: C_16  and  C_27
                            x       y       z     vdW  Elec       q    Type
                         _______ _______ _______ _____ _____    ______ ____

>  <TORSDO>
F 3

$$$$
=
 OpenBabel11052414373D

 32 37  0  0  1  0  0  0  0  0999 V2000
  187.9940  177.5440  139.7080 C   0  0  1  0  0  3  0  0  0  0  0  0
  189.2900  176.9230  137.5670 C   0  0  2  0  0  3  0  0  0  0  0  0
  187.0230  178.6320  140.1780 C   0  0  0  0  0  2  0  0  0  0  0  0
  188.0910  177.6580  138.1930 C   0  0  1  0  0  3  0  0  0  0  0  0
  188.8980  175.5390  137.0510 C   0  0  2  0  0  3  0  0  0  0  0  0
  194.0140  175.3150  137.8400 C   0  0  0  0  0  2  0  0  0  0  0  0
  190.5170  176.9050  138.5040 C   0  0  1  0  0  3  0  0  0  0  0  0
  192.5130  174.1870  136.5950 C   0  0  0  0  0  2  0  0  0  0  0  0
  191.3680  175.0210  137.1050 C   0  0  0  0  0  0  0  0  0  0  0  0
  186.7400  177.1930  137.6590 C   0  0  2  0  0  3  0  0  0  0  0  0
  190.0720  174.8630  136.5150 N   0  0  0  0  0  2  0  0  0  0  0  0
  186.8200  176.8330  136.1810 C   0  0  0  0  0  2  0  0  0  0  0  0
  185.7040  178.2530  138.0110 C   0  0  0  0  0  2  0  0  0  0  0  0
  190.1630  176.5520  139.8190 O   0  0  0  0  0  0  0  0  0  0  0  0
  189.3900  177.6130  140.3300 C   0  0  2  0  0  3  0  0  0  0  0  0
  191.6130  176.0030  137.9990 C   0  0  0  0  0  0  0  0  0  0  0  0
  187.8010  175.6550  135.9680 C   0  0  2  0  0  3  0  0  0  0  0  0
  185.6360  178.4080  139.5440 C   0  0  0  0  0  2  0  0  0  0  0  0
  193.5020  174.0320  137.5840 O   0  0  0  0  0  0  0  0  0  0  0  0
  192.9810  176.1390  138.6140 C   0  0  0  0  0  2  0  0  0  0  0  0
  190.4490  177.5880  143.9830 C   0  0  0  0  0  0  0  0  0  0  0  0
  191.6810  177.7430  144.8040 C   0  0  0  0  0  1  0  0  0  0  0  0
  189.3330  177.5190  141.8260 C   0  0  0  0  0  0  0  0  0  0  0  0
  189.2270  177.3580  144.6220 C   0  0  0  0  0  3  0  0  0  0  0  0
  188.1110  177.2900  142.4760 C   0  0  0  0  0  3  0  0  0  0  0  0
  190.5050  177.6700  142.5840 C   0  0  0  0  0  0  0  0  0  0  0  0
  191.6920  177.8960  141.9640 F   0  0  0  0  0  0  0  0  0  0  0  0
  188.0570  177.2140  143.8700 C   0  0  0  0  0  0  0  0  0  0  0  0
  186.0100  178.2530  144.7670 C   0  0  0  0  0  1  0  0  0  0  0  0
  186.7600  176.9520  144.5530 C   0  0  0  0  0  2  0  0  0  0  0  0
  187.0470  174.3400  135.8140 C   0  0  0  0  0  2  0  0  0  0  0  0
  186.8510  173.7320  137.0560 O   0  0  0  0  0  1  0  0  0  0  0  0
  1  3  1  1  0  0  0
  1 15  1  0  0  0  0
  2  4  1  0  0  0  0
  2  7  1  0  0  0  0
  4  1  1  0  0  0  0
  5  2  1  0  0  0  0
  6 20  1  0  0  0  0
  7 14  1  0  0  0  0
  8  9  1  0  0  0  0
  8 19  1  0  0  0  0
  9 16  2  0  0  0  0
 10 13  1  0  0  0  0
 10  4  1  0  0  0  0
 11  5  1  0  0  0  0
 11  9  1  0  0  0  0
 12 10  1  0  0  0  0
 13 18  1  0  0  0  0
 14 15  1  0  0  0  0
 15 23  1  0  0  0  0
 16  7  1  0  0  0  0
 16 20  1  0  0  0  0
 17 12  1  0  0  0  0
 17  5  1  0  0  0  0
 18  3  1  0  0  0  0
 19  6  1  0  0  0  0
 21 24  1  0  0  0  0
 21 22  1  0  0  0  0
 23 25  2  0  0  0  0
 23 26  1  0  0  0  0
 25 28  1  0  0  0  0
 26 21  2  0  0  0  0
 27 26  1  0  0  0  0
 28 30  1  0  0  0  0
 28 24  2  0  0  0  0
 30 29  1  0  0  0  0
 31 17  1  0  0  0  0
 31 32  1  0  0  0  0
M  END
>  <MODEL>
6

>  <REMARK>
 VINA RESULT:      -8.3      1.176      1.563
  Name = 
  3 active torsions:
  status: ('A' for Active; 'I' for Inactive)
    1  A    between atoms: C_13  and  C_29
    2  A    between atoms: C_15  and  C_26
    3  A    between atoms: C_16  and  C_27
                            x       y       z     vdW  Elec       q    Type
                         _______ _______ _______ _____ _____    ______ ____

>  <TORSDO>
F 3

$$$$
=
 OpenBabel11052414373D

 32 37  0  0  1  0  0  0  0  0999 V2000
  187.2370  177.7860  144.1010 C   0  0  1  0  0  3  0  0  0  0  0  0
  189.4810  176.8880  143.2050 C   0  0  2  0  0  3  0  0  0  0  0  0
  186.2760  177.5000  145.2590 C   0  0  0  0  0  2  0  0  0  0  0  0
  188.5330  177.0480  144.4070 C   0  0  1  0  0  3  0  0  0  0  0  0
  190.5570  177.9730  143.1840 C   0  0  2  0  0  3  0  0  0  0  0  0
  190.1970  176.3000  138.2930 C   0  0  0  0  0  2  0  0  0  0  0  0
  188.7160  176.7560  141.8710 C   0  0  1  0  0  3  0  0  0  0  0  0
  191.7500  177.3570  139.5370 C   0  0  0  0  0  2  0  0  0  0  0  0
  190.8620  177.3690  140.7520 C   0  0  0  0  0  0  0  0  0  0  0  0
  189.1570  177.7850  145.5860 C   0  0  2  0  0  3  0  0  0  0  0  0
  191.3970  177.8110  142.0050 N   0  0  0  0  0  2  0  0  0  0  0  0
  190.6380  177.4550  145.7290 C   0  0  0  0  0  2  0  0  0  0  0  0
  188.3110  177.5040  146.8210 C   0  0  0  0  0  2  0  0  0  0  0  0
  187.6940  177.7170  141.7590 O   0  0  0  0  0  0  0  0  0  0  0  0
  186.7180  177.3860  142.7180 C   0  0  2  0  0  3  0  0  0  0  0  0
  189.6290  176.8230  140.6740 C   0  0  0  0  0  0  0  0  0  0  0  0
  191.4130  177.9110  144.4700 C   0  0  2  0  0  3  0  0  0  0  0  0
  186.8760  178.0170  146.5810 C   0  0  0  0  0  2  0  0  0  0  0  0
  190.9890  177.4590  138.3570 O   0  0  0  0  0  0  0  0  0  0  0  0
  189.0840  176.3780  139.3420 C   0  0  0  0  0  2  0  0  0  0  0  0
  184.0000  179.2080  140.7800 C   0  0  0  0  0  0  0  0  0  0  0  0
  183.7430  179.7250  139.4080 C   0  0  0  0  0  1  0  0  0  0  0  0
  185.4320  178.0830  142.3890 C   0  0  0  0  0  0  0  0  0  0  0  0
  183.0230  179.3740  141.7670 C   0  0  0  0  0  3  0  0  0  0  0  0
  184.4460  178.2530  143.3710 C   0  0  0  0  0  3  0  0  0  0  0  0
  185.2060  178.5610  141.0880 C   0  0  0  0  0  0  0  0  0  0  0  0
  186.1540  178.3980  140.1290 F   0  0  0  0  0  0  0  0  0  0  0  0
  183.2430  178.8930  143.0610 C   0  0  0  0  0  0  0  0  0  0  0  0
  180.8480  178.6560  143.5960 C   0  0  0  0  0  1  0  0  0  0  0  0
  182.2070  179.0860  144.1140 C   0  0  0  0  0  2  0  0  0  0  0  0
  192.1190  179.2390  144.7170 C   0  0  0  0  0  2  0  0  0  0  0  0
  191.3050  180.3110  144.3440 O   0  0  0  0  0  1  0  0  0  0  0  0
  1  4  1  0  0  0  0
  1  3  1  1  0  0  0
  2  4  1  0  0  0  0
  3 18  1  0  0  0  0
  4 10  1  0  0  0  0
  5  2  1  0  0  0  0
  5 17  1  0  0  0  0
  6 19  1  0  0  0  0
  6 20  1  0  0  0  0
  7  2  1  0  0  0  0
  8  9  1  0  0  0  0
  9 11  1  0  0  0  0
 10 12  1  0  0  0  0
 10 13  1  0  0  0  0
 11  5  1  0  0  0  0
 14  7  1  0  0  0  0
 14 15  1  0  0  0  0
 15  1  1  0  0  0  0
 16  9  2  0  0  0  0
 16  7  1  0  0  0  0
 17 31  1  0  0  0  0
 17 12  1  0  0  0  0
 18 13  1  0  0  0  0
 19  8  1  0  0  0  0
 20 16  1  0  0  0  0
 21 26  2  0  0  0  0
 21 24  1  0  0  0  0
 22 21  1  0  0  0  0
 23 15  1  0  0  0  0
 23 25  2  0  0  0  0
 24 28  2  0  0  0  0
 26 23  1  0  0  0  0
 27 26  1  0  0  0  0
 28 25  1  0  0  0  0
 28 30  1  0  0  0  0
 29 30  1  0  0  0  0
 32 31  1  0  0  0  0
M  END
>  <MODEL>
7

>  <REMARK>
 VINA RESULT:      -8.0      2.532      6.055
  Name = 
  3 active torsions:
  status: ('A' for Active; 'I' for Inactive)
    1  A    between atoms: C_13  and  C_29
    2  A    between atoms: C_15  and  C_26
    3  A    between atoms: C_16  and  C_27
                            x       y       z     vdW  Elec       q    Type
                         _______ _______ _______ _____ _____    ______ ____

>  <TORSDO>
F 3

$$$$
=
 OpenBabel11052414373D

 32 37  0  0  1  0  0  0  0  0999 V2000
  186.0940  178.1770  139.7980 C   0  0  1  0  0  3  0  0  0  0  0  0
  187.1720  178.6080  142.1000 C   0  0  2  0  0  3  0  0  0  0  0  0
  186.2730  178.6420  138.3500 C   0  0  0  0  0  2  0  0  0  0  0  0
  187.3250  178.6330  140.5680 C   0  0  1  0  0  3  0  0  0  0  0  0
  187.7460  177.3260  142.7050 C   0  0  2  0  0  3  0  0  0  0  0  0
  184.3290  179.0810  146.1830 C   0  0  0  0  0  2  0  0  0  0  0  0
  185.7250  178.9040  142.5470 C   0  0  1  0  0  3  0  0  0  0  0  0
  186.1250  177.7190  146.2140 C   0  0  0  0  0  2  0  0  0  0  0  0
  186.3510  177.8780  144.7350 C   0  0  0  0  0  0  0  0  0  0  0  0
  188.4730  177.7730  140.0520 C   0  0  2  0  0  3  0  0  0  0  0  0
  187.5330  177.3240  144.1460 N   0  0  0  0  0  2  0  0  0  0  0  0
  189.6580  177.7940  141.0100 C   0  0  0  0  0  2  0  0  0  0  0  0
  188.7870  178.2110  138.6270 C   0  0  0  0  0  2  0  0  0  0  0  0
  184.7870  178.1720  141.7960 O   0  0  0  0  0  0  0  0  0  0  0  0
  184.8250  178.6860  140.4860 C   0  0  2  0  0  3  0  0  0  0  0  0
  185.5170  178.6630  144.0200 C   0  0  0  0  0  0  0  0  0  0  0  0
  189.2520  177.2010  142.3800 C   0  0  2  0  0  3  0  0  0  0  0  0
  187.5390  178.0020  137.7450 C   0  0  0  0  0  2  0  0  0  0  0  0
  184.7530  177.7840  146.5240 O   0  0  0  0  0  0  0  0  0  0  0  0
  184.2730  179.2220  144.6600 C   0  0  0  0  0  2  0  0  0  0  0  0
  181.7900  178.7810  138.1960 C   0  0  0  0  0  0  0  0  0  0  0  0
  181.0880  179.7290  137.2890 C   0  0  0  0  0  1  0  0  0  0  0  0
  183.5900  178.2670  139.7450 C   0  0  0  0  0  0  0  0  0  0  0  0
  181.2890  177.4850  138.3490 C   0  0  0  0  0  3  0  0  0  0  0  0
  183.0810  176.9690  139.8910 C   0  0  0  0  0  3  0  0  0  0  0  0
  182.9420  179.1750  138.8920 C   0  0  0  0  0  0  0  0  0  0  0  0
  183.4300  180.4340  138.7410 F   0  0  0  0  0  0  0  0  0  0  0  0
  181.9360  176.5770  139.1920 C   0  0  0  0  0  0  0  0  0  0  0  0
  180.0790  175.2520  140.1280 C   0  0  0  0  0  1  0  0  0  0  0  0
  181.3900  175.2020  139.3660 C   0  0  0  0  0  2  0  0  0  0  0  0
  189.7170  175.7550  142.5060 C   0  0  0  0  0  2  0  0  0  0  0  0
  190.8570  175.6680  143.3070 O   0  0  0  0  0  1  0  0  0  0  0  0
  1  3  1  6  0  0  0
  1 15  1  0  0  0  0
  1  4  1  0  0  0  0
  2  7  1  0  0  0  0
  2  5  1  0  0  0  0
  4  2  1  0  0  0  0
  5 11  1  0  0  0  0
  6 19  1  0  0  0  0
  7 16  1  0  0  0  0
  8 19  1  0  0  0  0
  9  8  1  0  0  0  0
 10  4  1  0  0  0  0
 10 12  1  0  0  0  0
 11  9  1  0  0  0  0
 12 17  1  0  0  0  0
 13 10  1  0  0  0  0
 14  7  1  0  0  0  0
 15 14  1  0  0  0  0
 16 20  1  0  0  0  0
 16  9  2  0  0  0  0
 17 31  1  0  0  0  0
 17  5  1  0  0  0  0
 18  3  1  0  0  0  0
 18 13  1  0  0  0  0
 20  6  1  0  0  0  0
 21 24  2  0  0  0  0
 21 26  1  0  0  0  0
 22 21  1  0  0  0  0
 23 25  1  0  0  0  0
 23 15  1  0  0  0  0
 24 28  1  0  0  0  0
 26 23  2  0  0  0  0
 27 26  1  0  0  0  0
 28 30  1  0  0  0  0
 28 25  2  0  0  0  0
 30 29  1  0  0  0  0
 31 32  1  0  0  0  0
M  END
>  <MODEL>
8

>  <REMARK>
 VINA RESULT:      -8.0      3.487      7.698
  Name = 
  3 active torsions:
  status: ('A' for Active; 'I' for Inactive)
    1  A    between atoms: C_13  and  C_29
    2  A    between atoms: C_15  and  C_26
    3  A    between atoms: C_16  and  C_27
                            x       y       z     vdW  Elec       q    Type
                         _______ _______ _______ _____ _____    ______ ____

>  <TORSDO>
F 3

$$$$
=
 OpenBabel11052414373D

 32 37  0  0  1  0  0  0  0  0999 V2000
  189.7350  176.9790  138.8080 C   0  0  1  0  0  3  0  0  0  0  0  0
  189.3740  178.1210  141.0910 C   0  0  2  0  0  3  0  0  0  0  0  0
  190.6870  177.0940  137.6140 C   0  0  0  0  0  2  0  0  0  0  0  0
  190.3450  177.7900  139.9420 C   0  0  1  0  0  3  0  0  0  0  0  0
  189.5060  177.1290  142.2470 C   0  0  2  0  0  3  0  0  0  0  0  0
  184.7600  179.1550  142.7080 C   0  0  0  0  0  2  0  0  0  0  0  0
  187.9230  178.2990  140.5970 C   0  0  1  0  0  3  0  0  0  0  0  0
  186.2270  178.1280  144.0760 C   0  0  0  0  0  2  0  0  0  0  0  0
  187.2310  177.9490  142.9690 C   0  0  0  0  0  0  0  0  0  0  0  0
  191.5780  177.0120  140.3870 C   0  0  2  0  0  3  0  0  0  0  0  0
  188.5360  177.4510  143.2850 N   0  0  0  0  0  2  0  0  0  0  0  0
  192.0410  177.4460  141.7720 C   0  0  0  0  0  2  0  0  0  0  0  0
  192.6290  177.1260  139.2900 C   0  0  0  0  0  2  0  0  0  0  0  0
  187.5450  177.2710  139.7120 O   0  0  0  0  0  0  0  0  0  0  0  0
  188.3030  177.4460  138.5390 C   0  0  2  0  0  3  0  0  0  0  0  0
  186.9360  178.4000  141.7310 C   0  0  0  0  0  0  0  0  0  0  0  0
  190.9410  177.1550  142.8210 C   0  0  2  0  0  3  0  0  0  0  0  0
  192.0690  176.5220  137.9860 C   0  0  0  0  0  2  0  0  0  0  0  0
  184.9110  178.0610  143.5780 O   0  0  0  0  0  0  0  0  0  0  0  0
  185.5520  178.9060  141.4220 C   0  0  0  0  0  2  0  0  0  0  0  0
  186.1720  176.5900  135.5070 C   0  0  0  0  0  0  0  0  0  0  0  0
  185.1930  177.2400  134.5940 C   0  0  0  0  0  1  0  0  0  0  0  0
  187.6740  176.6780  137.4140 C   0  0  0  0  0  0  0  0  0  0  0  0
  186.5080  175.2490  135.3040 C   0  0  0  0  0  3  0  0  0  0  0  0
  188.0070  175.3320  137.2020 C   0  0  0  0  0  3  0  0  0  0  0  0
  186.7550  177.3080  136.5610 C   0  0  0  0  0  0  0  0  0  0  0  0
  186.4290  178.6130  136.7570 F   0  0  0  0  0  0  0  0  0  0  0  0
  187.4290  174.6200  136.1470 C   0  0  0  0  0  0  0  0  0  0  0  0
  187.5740  172.4080  137.2260 C   0  0  0  0  0  1  0  0  0  0  0  0
  187.7730  173.1860  135.9390 C   0  0  0  0  0  2  0  0  0  0  0  0
  191.2440  175.8720  143.5850 C   0  0  0  0  0  2  0  0  0  0  0  0
  191.6720  176.1560  144.8840 O   0  0  0  0  0  1  0  0  0  0  0  0
  1  3  1  6  0  0  0
  1  4  1  0  0  0  0
  2  5  1  0  0  0  0
  3 18  1  0  0  0  0
  4 10  1  0  0  0  0
  4  2  1  0  0  0  0
  5 17  1  0  0  0  0
  5 11  1  0  0  0  0
  6 19  1  0  0  0  0
  7  2  1  0  0  0  0
  7 16  1  0  0  0  0
  9 11  1  0  0  0  0
  9  8  1  0  0  0  0
 10 12  1  0  0  0  0
 12 17  1  0  0  0  0
 13 10  1  0  0  0  0
 14  7  1  0  0  0  0
 15  1  1  0  0  0  0
 15 14  1  0  0  0  0
 16  9  2  0  0  0  0
 17 31  1  0  0  0  0
 18 13  1  0  0  0  0
 19  8  1  0  0  0  0
 20 16  1  0  0  0  0
 20  6  1  0  0  0  0
 21 26  1  0  0  0  0
 22 21  1  0  0  0  0
 23 15  1  0  0  0  0
 24 21  2  0  0  0  0
 24 28  1  0  0  0  0
 25 23  1  0  0  0  0
 26 27  1  0  0  0  0
 26 23  2  0  0  0  0
 28 25  2  0  0  0  0
 30 28  1  0  0  0  0
 30 29  1  0  0  0  0
 31 32  1  0  0  0  0
M  END
>  <MODEL>
9

>  <REMARK>
 VINA RESULT:      -7.9      2.665      7.746
  Name = 
  3 active torsions:
  status: ('A' for Active; 'I' for Inactive)
    1  A    between atoms: C_13  and  C_29
    2  A    between atoms: C_15  and  C_26
    3  A    between atoms: C_16  and  C_27
                            x       y       z     vdW  Elec       q    Type
                         _______ _______ _______ _____ _____    ______ ____

>  <TORSDO>
F 3

$$$$
