=
 OpenBabel11052413113D

 31 35  0  0  1  0  0  0  0  0999 V2000
  188.6350  177.4400  144.0760 C   0  0  0  0  0  0  0  0  0  0  0  0
  189.3550  177.3130  145.3010 C   0  0  2  0  0  3  0  0  0  0  0  0
  189.5130  177.4850  147.7570 C   0  0  0  0  0  0  0  0  0  0  0  0
  187.3520  177.8580  143.9940 C   0  0  0  0  0  0  0  0  0  0  0  0
  185.3610  178.5500  144.4380 C   0  0  0  0  0  0  0  0  0  0  0  0
  188.7900  177.6090  146.4830 C   0  0  0  0  0  3  0  0  0  0  0  0
  188.5710  177.2250  141.5310 C   0  0  0  0  0  0  0  0  0  0  0  0
  191.3090  176.5520  144.0570 C   0  0  0  0  0  3  0  0  0  0  0  0
  188.8870  177.8000  148.9160 F   0  0  0  0  0  0  0  0  0  0  0  0
  187.2980  177.6440  141.5150 C   0  0  0  0  0  3  0  0  0  0  0  0
  189.2850  177.1120  142.8470 C   0  0  0  0  0  0  0  0  0  0  0  0
  186.4700  178.2360  145.0470 N   0  0  0  0  0  0  0  0  0  0  0  0
  190.7780  177.0690  147.7810 C   0  0  0  0  0  3  0  0  0  0  0  0
  186.6930  177.9630  142.7610 N   0  0  0  0  0  0  0  0  0  0  0  0
  185.3970  178.4040  143.0090 N   0  0  0  0  0  2  0  0  0  0  0  0
  190.6110  176.6730  142.8610 C   0  0  0  0  0  3  0  0  0  0  0  0
  190.6990  176.8640  145.2710 C   0  0  0  0  0  0  0  0  0  0  0  0
  191.5210  176.7070  146.5260 C   0  0  0  0  0  3  0  0  0  0  0  0
  189.0510  178.8990  139.1610 O   0  0  0  0  0  0  0  0  0  0  0  0
  189.4850  177.7170  139.1710 C   0  0  0  0  0  0  0  0  0  0  0  0
  189.2630  176.8800  140.3180 N   0  0  0  0  0  2  0  0  0  0  0  0
  191.7680  176.1050  135.9020 C   0  0  0  0  0  0  0  0  0  0  0  0
  191.5400  176.7120  138.2270 C   0  0  0  0  0  3  0  0  0  0  0  0
  188.0720  177.6150  136.2690 Cl  0  0  0  0  0  0  0  0  0  0  0  0
  192.7230  175.4440  134.5940 Cl  0  0  0  0  0  0  0  0  0  0  0  0
  192.3040  176.1850  137.1860 C   0  0  0  0  0  3  0  0  0  0  0  0
  189.6930  177.0840  136.6970 C   0  0  0  0  0  0  0  0  0  0  0  0
  190.2300  177.1700  138.0080 C   0  0  0  0  0  0  0  0  0  0  0  0
  190.4700  176.5530  135.6610 C   0  0  0  0  0  3  0  0  0  0  0  0
  184.1390  178.9710  145.1730 C   0  0  0  0  0  2  0  0  0  0  0  0
  182.9420  178.9360  144.2440 C   0  0  0  0  0  1  0  0  0  0  0  0
  1  2  1  0  0  0  0
  2  6  1  6  0  0  0
  3 13  1  0  0  0  0
  3  9  1  0  0  0  0
  4  1  2  0  0  0  0
  4 12  1  0  0  0  0
  5 12  2  0  0  0  0
  5 30  1  0  0  0  0
  6  3  2  0  0  0  0
  7 11  1  0  0  0  0
  8 17  2  0  0  0  0
 10  7  2  0  0  0  0
 10 14  1  0  0  0  0
 11 16  2  0  0  0  0
 11  1  1  0  0  0  0
 14 15  1  0  0  0  0
 14  4  1  0  0  0  0
 15  5  1  0  0  0  0
 16  8  1  0  0  0  0
 17  2  1  0  0  0  0
 17 18  1  0  0  0  0
 18 13  2  0  0  0  0
 19 20  2  0  0  0  0
 20 21  1  0  0  0  0
 21  7  1  0  0  0  0
 22 26  1  0  0  0  0
 24 27  1  0  0  0  0
 25 22  1  0  0  0  0
 26 23  2  0  0  0  0
 27 28  2  0  0  0  0
 28 23  1  0  0  0  0
 28 20  1  0  0  0  0
 29 22  2  0  0  0  0
 29 27  1  0  0  0  0
 31 30  1  0  0  0  0
M  END
>  <MODEL>
1

>  <REMARK>
 VINA RESULT:     -10.3      0.000      0.000
  Name = 
  3 active torsions:
  status: ('A' for Active; 'I' for Inactive)
    1  A    between atoms: C_2  and  C_13
    2  A    between atoms: C_9  and  C_22
    3  A    between atoms: C_15  and  N_23
                            x       y       z     vdW  Elec       q    Type
                         _______ _______ _______ _____ _____    ______ ____

>  <TORSDO>
F 3

$$$$
=
 OpenBabel11052413113D

 31 35  0  0  1  0  0  0  0  0999 V2000
  188.5650  177.4910  144.2830 C   0  0  0  0  0  0  0  0  0  0  0  0
  189.1540  177.4340  145.5800 C   0  0  2  0  0  3  0  0  0  0  0  0
  189.0490  177.7090  148.0300 C   0  0  0  0  0  0  0  0  0  0  0  0
  187.2870  177.8670  144.0500 C   0  0  0  0  0  0  0  0  0  0  0  0
  185.2440  178.5150  144.2540 C   0  0  0  0  0  0  0  0  0  0  0  0
  188.4610  177.7600  146.6830 C   0  0  0  0  0  3  0  0  0  0  0  0
  188.7750  177.1730  141.7560 C   0  0  0  0  0  0  0  0  0  0  0  0
  191.2480  176.6840  144.5810 C   0  0  0  0  0  3  0  0  0  0  0  0
  188.2970  178.0500  149.1030 F   0  0  0  0  0  0  0  0  0  0  0  0
  187.5000  177.5530  141.5900 C   0  0  0  0  0  3  0  0  0  0  0  0
  189.3490  177.1340  143.1430 C   0  0  0  0  0  0  0  0  0  0  0  0
  186.2900  178.2590  144.9880 N   0  0  0  0  0  0  0  0  0  0  0  0
  190.3140  177.3320  148.2030 C   0  0  0  0  0  3  0  0  0  0  0  0
  186.7590  177.9030  142.7510 N   0  0  0  0  0  0  0  0  0  0  0  0
  185.4330  178.3140  142.8440 N   0  0  0  0  0  2  0  0  0  0  0  0
  190.6770  176.7360  143.3140 C   0  0  0  0  0  3  0  0  0  0  0  0
  190.5050  177.0260  145.7100 C   0  0  0  0  0  0  0  0  0  0  0  0
  191.1950  176.9430  147.0490 C   0  0  0  0  0  3  0  0  0  0  0  0
  189.2810  178.6760  139.2790 O   0  0  0  0  0  0  0  0  0  0  0  0
  189.8310  177.5540  139.4360 C   0  0  0  0  0  0  0  0  0  0  0  0
  189.5990  176.8020  140.6380 N   0  0  0  0  0  2  0  0  0  0  0  0
  192.2880  175.9110  136.3120 C   0  0  0  0  0  0  0  0  0  0  0  0
  190.1420  176.6030  137.1730 C   0  0  0  0  0  3  0  0  0  0  0  0
  192.9940  177.2700  140.0170 Cl  0  0  0  0  0  0  0  0  0  0  0  0
  193.2600  175.2390  135.0210 Cl  0  0  0  0  0  0  0  0  0  0  0  0
  190.9140  176.0670  136.1420 C   0  0  0  0  0  3  0  0  0  0  0  0
  192.1240  176.8300  138.5540 C   0  0  0  0  0  0  0  0  0  0  0  0
  190.7240  176.9930  138.3900 C   0  0  0  0  0  0  0  0  0  0  0  0
  192.8880  176.2910  137.5120 C   0  0  0  0  0  3  0  0  0  0  0  0
  183.9400  178.9290  144.8390 C   0  0  0  0  0  2  0  0  0  0  0  0
  182.8890  179.0050  143.7510 C   0  0  0  0  0  1  0  0  0  0  0  0
  1  2  1  0  0  0  0
  2 17  1  0  0  0  0
  2  6  1  6  0  0  0
  3 13  1  0  0  0  0
  3  9  1  0  0  0  0
  4  1  2  0  0  0  0
  4 12  1  0  0  0  0
  5 30  1  0  0  0  0
  5 12  2  0  0  0  0
  6  3  2  0  0  0  0
  7 11  1  0  0  0  0
  8 17  2  0  0  0  0
 10  7  2  0  0  0  0
 10 14  1  0  0  0  0
 11 16  2  0  0  0  0
 11  1  1  0  0  0  0
 14 15  1  0  0  0  0
 14  4  1  0  0  0  0
 15  5  1  0  0  0  0
 16  8  1  0  0  0  0
 17 18  1  0  0  0  0
 18 13  2  0  0  0  0
 19 20  2  0  0  0  0
 20 21  1  0  0  0  0
 21  7  1  0  0  0  0
 22 29  1  0  0  0  0
 23 28  2  0  0  0  0
 25 22  1  0  0  0  0
 26 22  2  0  0  0  0
 26 23  1  0  0  0  0
 27 24  1  0  0  0  0
 28 27  1  0  0  0  0
 28 20  1  0  0  0  0
 29 27  2  0  0  0  0
 31 30  1  0  0  0  0
M  END
>  <MODEL>
2

>  <REMARK>
 VINA RESULT:     -10.3      1.163      1.490
  Name = 
  3 active torsions:
  status: ('A' for Active; 'I' for Inactive)
    1  A    between atoms: C_2  and  C_13
    2  A    between atoms: C_9  and  C_22
    3  A    between atoms: C_15  and  N_23
                            x       y       z     vdW  Elec       q    Type
                         _______ _______ _______ _____ _____    ______ ____

>  <TORSDO>
F 3

$$$$
=
 OpenBabel11052413113D

 31 35  0  0  0  0  0  0  0  0999 V2000
  188.8820  177.2040  144.7080 C   0  0  0  0  0  0  0  0  0  0  0  0
  187.6250  177.6770  145.1870 C   0  0  0  0  0  0  0  0  0  0  0  0
  186.1280  178.4070  147.0080 C   0  0  0  0  0  0  0  0  0  0  0  0
  189.9500  176.9610  145.5010 C   0  0  0  0  0  0  0  0  0  0  0  0
  191.2890  176.7570  147.1750 C   0  0  0  0  0  0  0  0  0  0  0  0
  187.4150  177.9190  146.4920 C   0  0  0  0  0  3  0  0  0  0  0  0
  190.3540  176.4670  142.7540 C   0  0  0  0  0  0  0  0  0  0  0  0
  186.7630  177.6540  142.9070 C   0  0  0  0  0  3  0  0  0  0  0  0
  185.9790  178.6310  148.3350 F   0  0  0  0  0  0  0  0  0  0  0  0
  191.3780  176.2470  143.5910 C   0  0  0  0  0  3  0  0  0  0  0  0
  189.0510  176.9630  143.3100 C   0  0  0  0  0  0  0  0  0  0  0  0
  190.0660  177.1220  146.9120 N   0  0  0  0  0  0  0  0  0  0  0  0
  185.1070  178.6290  146.1820 C   0  0  0  0  0  3  0  0  0  0  0  0
  191.1640  176.4960  144.9740 N   0  0  0  0  0  0  0  0  0  0  0  0
  192.0590  176.3570  146.0300 N   0  0  0  0  0  2  0  0  0  0  0  0
  187.9870  177.1930  142.4350 C   0  0  0  0  0  3  0  0  0  0  0  0
  186.5710  177.8980  144.2660 C   0  0  0  0  0  0  0  0  0  0  0  0
  185.2150  178.3970  144.7010 C   0  0  0  0  0  2  0  0  0  0  0  0
  192.0580  177.8880  140.8230 O   0  0  0  0  0  0  0  0  0  0  0  0
  191.3220  176.9520  140.4140 C   0  0  0  0  0  0  0  0  0  0  0  0
  190.4810  176.2430  141.3390 N   0  0  0  0  0  2  0  0  0  0  0  0
  191.4450  175.7910  136.2750 C   0  0  0  0  0  0  0  0  0  0  0  0
  192.5130  176.1050  138.4170 C   0  0  0  0  0  3  0  0  0  0  0  0
  188.5850  177.1810  138.7170 Cl  0  0  0  0  0  0  0  0  0  0  0  0
  191.5280  175.3110  134.5940 Cl  0  0  0  0  0  0  0  0  0  0  0  0
  192.5820  175.7220  137.0770 C   0  0  0  0  0  3  0  0  0  0  0  0
  190.1580  176.6300  138.1550 C   0  0  0  0  0  0  0  0  0  0  0  0
  191.3100  176.5640  138.9800 C   0  0  0  0  0  0  0  0  0  0  0  0
  190.2400  176.2430  136.8120 C   0  0  0  0  0  3  0  0  0  0  0  0
  191.8570  176.8060  148.5500 C   0  0  0  0  0  2  0  0  0  0  0  0
  192.8780  175.7000  148.7240 C   0  0  0  0  0  1  0  0  0  0  0  0
  1  2  1  0  0  0  0
  1  4  2  0  0  0  0
  2  6  2  0  0  0  0
  3  9  1  0  0  0  0
  4 12  1  0  0  0  0
  5 30  1  0  0  0  0
  6  3  1  0  0  0  0
  7 11  1  0  0  0  0
  7 10  2  0  0  0  0
  8 17  2  0  0  0  0
 10 14  1  0  0  0  0
 11  1  1  0  0  0  0
 12  5  2  0  0  0  0
 13  3  2  0  0  0  0
 14  4  1  0  0  0  0
 14 15  1  0  0  0  0
 15  5  1  0  0  0  0
 16  8  1  0  0  0  0
 16 11  2  0  0  0  0
 17 18  1  0  0  0  0
 17  2  1  0  0  0  0
 18 13  1  0  0  0  0
 20 19  2  0  0  0  0
 20 21  1  0  0  0  0
 21  7  1  0  0  0  0
 22 29  2  0  0  0  0
 22 26  1  0  0  0  0
 23 28  1  0  0  0  0
 25 22  1  0  0  0  0
 26 23  2  0  0  0  0
 27 24  1  0  0  0  0
 27 28  2  0  0  0  0
 28 20  1  0  0  0  0
 29 27  1  0  0  0  0
 30 31  1  0  0  0  0
M  END
>  <MODEL>
3

>  <REMARK>
 VINA RESULT:      -9.9      2.185      4.362
  Name = 
  3 active torsions:
  status: ('A' for Active; 'I' for Inactive)
    1  A    between atoms: C_2  and  C_13
    2  A    between atoms: C_9  and  C_22
    3  A    between atoms: C_15  and  N_23
                            x       y       z     vdW  Elec       q    Type
                         _______ _______ _______ _____ _____    ______ ____

>  <TORSDO>
F 3

$$$$
=
 OpenBabel11052413113D

 31 35  0  0  1  0  0  0  0  0999 V2000
  186.9350  178.2470  143.7030 C   0  0  0  0  0  0  0  0  0  0  0  0
  186.9250  178.1420  145.1250 C   0  0  1  0  0  3  0  0  0  0  0  0
  188.0000  177.5680  147.2710 C   0  0  0  0  0  0  0  0  0  0  0  0
  187.9880  177.9040  142.9290 C   0  0  0  0  0  0  0  0  0  0  0  0
  189.9040  177.2370  142.2060 C   0  0  0  0  0  0  0  0  0  0  0  0
  187.9890  177.6840  145.8050 C   0  0  0  0  0  3  0  0  0  0  0  0
  185.7350  178.8740  141.5360 C   0  0  0  0  0  0  0  0  0  0  0  0
  184.6460  179.0090  145.1590 C   0  0  0  0  0  3  0  0  0  0  0  0
  189.1050  177.0980  147.8970 F   0  0  0  0  0  0  0  0  0  0  0  0
  186.8130  178.5190  140.8220 C   0  0  0  0  0  3  0  0  0  0  0  0
  185.7750  178.7410  143.0310 C   0  0  0  0  0  0  0  0  0  0  0  0
  189.2590  177.3990  143.3270 N   0  0  0  0  0  0  0  0  0  0  0  0
  186.9340  177.9200  147.9870 C   0  0  0  0  0  3  0  0  0  0  0  0
  187.9430  178.0280  141.5320 N   0  0  0  0  0  0  0  0  0  0  0  0
  189.1700  177.6100  141.0290 N   0  0  0  0  0  2  0  0  0  0  0  0
  184.6520  179.1130  143.7730 C   0  0  0  0  0  3  0  0  0  0  0  0
  185.7650  178.5310  145.8400 C   0  0  0  0  0  0  0  0  0  0  0  0
  185.6820  178.4470  147.3450 C   0  0  0  0  0  3  0  0  0  0  0  0
  183.4010  177.3720  140.5640 O   0  0  0  0  0  0  0  0  0  0  0  0
  183.4180  178.6250  140.4340 C   0  0  0  0  0  0  0  0  0  0  0  0
  184.5480  179.3800  140.9010 N   0  0  0  0  0  2  0  0  0  0  0  0
  180.2260  180.7520  138.4890 C   0  0  0  0  0  0  0  0  0  0  0  0
  182.5450  180.1000  138.6490 C   0  0  0  0  0  3  0  0  0  0  0  0
  180.4660  178.3920  141.7210 Cl  0  0  0  0  0  0  0  0  0  0  0  0
  178.9500  181.6290  137.6740 Cl  0  0  0  0  0  0  0  0  0  0  0  0
  181.5300  180.8000  137.9980 C   0  0  0  0  0  3  0  0  0  0  0  0
  180.9500  179.2970  140.2930 C   0  0  0  0  0  0  0  0  0  0  0  0
  182.2810  179.3400  139.8010 C   0  0  0  0  0  0  0  0  0  0  0  0
  179.9400  180.0050  139.6310 C   0  0  0  0  0  3  0  0  0  0  0  0
  191.3110  176.7550  142.1570 C   0  0  0  0  0  2  0  0  0  0  0  0
  191.6800  176.1110  143.4780 C   0  0  0  0  0  1  0  0  0  0  0  0
  1  2  1  0  0  0  0
  2  6  1  1  0  0  0
  2 17  1  0  0  0  0
  3  9  1  0  0  0  0
  3 13  1  0  0  0  0
  4 12  1  0  0  0  0
  4  1  2  0  0  0  0
  5 12  2  0  0  0  0
  6  3  2  0  0  0  0
  7 11  1  0  0  0  0
  8 17  2  0  0  0  0
 10 14  1  0  0  0  0
 10  7  2  0  0  0  0
 11  1  1  0  0  0  0
 11 16  2  0  0  0  0
 14  4  1  0  0  0  0
 15 14  1  0  0  0  0
 15  5  1  0  0  0  0
 16  8  1  0  0  0  0
 17 18  1  0  0  0  0
 18 13  2  0  0  0  0
 20 19  2  0  0  0  0
 20 21  1  0  0  0  0
 21  7  1  0  0  0  0
 22 29  1  0  0  0  0
 23 28  2  0  0  0  0
 25 22  1  0  0  0  0
 26 22  2  0  0  0  0
 26 23  1  0  0  0  0
 27 24  1  0  0  0  0
 28 27  1  0  0  0  0
 28 20  1  0  0  0  0
 29 27  2  0  0  0  0
 30  5  1  0  0  0  0
 30 31  1  0  0  0  0
M  END
>  <MODEL>
4

>  <REMARK>
 VINA RESULT:      -9.7      4.318      7.085
  Name = 
  3 active torsions:
  status: ('A' for Active; 'I' for Inactive)
    1  A    between atoms: C_2  and  C_13
    2  A    between atoms: C_9  and  C_22
    3  A    between atoms: C_15  and  N_23
                            x       y       z     vdW  Elec       q    Type
                         _______ _______ _______ _____ _____    ______ ____

>  <TORSDO>
F 3

$$$$
=
 OpenBabel11052413113D

 31 35  0  0  0  0  0  0  0  0999 V2000
  187.5570  178.1570  139.4480 C   0  0  0  0  0  0  0  0  0  0  0  0
  188.0910  177.9050  138.1490 C   0  0  0  0  0  0  0  0  0  0  0  0
  187.9000  177.8750  135.6890 C   0  0  0  0  0  0  0  0  0  0  0  0
  186.3110  178.6300  139.6740 C   0  0  0  0  0  0  0  0  0  0  0  0
  184.3030  179.3780  139.4570 C   0  0  0  0  0  0  0  0  0  0  0  0
  187.3700  178.1270  137.0380 C   0  0  0  0  0  3  0  0  0  0  0  0
  187.8550  178.1540  141.9860 C   0  0  0  0  0  0  0  0  0  0  0  0
  190.1810  177.1680  139.1660 C   0  0  0  0  0  3  0  0  0  0  0  0
  187.1230  178.1190  134.6080 F   0  0  0  0  0  0  0  0  0  0  0  0
  186.6100  178.6250  142.1450 C   0  0  0  0  0  3  0  0  0  0  0  0
  188.3680  177.9020  140.5970 C   0  0  0  0  0  0  0  0  0  0  0  0
  185.3060  178.9770  138.7260 N   0  0  0  0  0  0  0  0  0  0  0  0
  189.1360  177.4080  135.5240 C   0  0  0  0  0  3  0  0  0  0  0  0
  185.8390  178.8600  140.9740 N   0  0  0  0  0  0  0  0  0  0  0  0
  184.5410  179.3510  140.8730 N   0  0  0  0  0  2  0  0  0  0  0  0
  189.6650  177.4130  140.4340 C   0  0  0  0  0  3  0  0  0  0  0  0
  189.4120  177.4080  138.0280 C   0  0  0  0  0  0  0  0  0  0  0  0
  190.0420  177.1180  136.6870 C   0  0  0  0  0  2  0  0  0  0  0  0
  187.1930  176.7530  144.4850 O   0  0  0  0  0  0  0  0  0  0  0  0
  188.3590  177.2000  144.3270 C   0  0  0  0  0  0  0  0  0  0  0  0
  188.7060  177.8880  143.1140 N   0  0  0  0  0  2  0  0  0  0  0  0
  191.4510  176.6450  147.2650 C   0  0  0  0  0  0  0  0  0  0  0  0
  190.6590  176.5670  144.9860 C   0  0  0  0  0  3  0  0  0  0  0  0
  187.6360  177.8720  147.4010 Cl  0  0  0  0  0  0  0  0  0  0  0  0
  192.7300  176.4090  148.4350 Cl  0  0  0  0  0  0  0  0  0  0  0  0
  191.6800  176.3780  145.9160 C   0  0  0  0  0  3  0  0  0  0  0  0
  189.1670  177.2940  146.7560 C   0  0  0  0  0  0  0  0  0  0  0  0
  189.3910  177.0250  145.3810 C   0  0  0  0  0  0  0  0  0  0  0  0
  190.2000  177.1000  147.6810 C   0  0  0  0  0  3  0  0  0  0  0  0
  183.0340  179.8780  138.8640 C   0  0  0  0  0  2  0  0  0  0  0  0
  182.3780  178.7800  138.0510 C   0  0  0  0  0  1  0  0  0  0  0  0
  1  4  2  0  0  0  0
  1 11  1  0  0  0  0
  2  1  1  0  0  0  0
  3  6  1  0  0  0  0
  4 14  1  0  0  0  0
  5 15  1  0  0  0  0
  6  2  2  0  0  0  0
  7 10  2  0  0  0  0
  7 21  1  0  0  0  0
  8 16  1  0  0  0  0
  9  3  1  0  0  0  0
 11  7  1  0  0  0  0
 12  5  2  0  0  0  0
 12  4  1  0  0  0  0
 13  3  2  0  0  0  0
 13 18  1  0  0  0  0
 14 10  1  0  0  0  0
 15 14  1  0  0  0  0
 16 11  2  0  0  0  0
 17  2  1  0  0  0  0
 17  8  2  0  0  0  0
 18 17  1  0  0  0  0
 20 19  2  0  0  0  0
 20 28  1  0  0  0  0
 21 20  1  0  0  0  0
 22 29  1  0  0  0  0
 22 25  1  0  0  0  0
 23 28  2  0  0  0  0
 23 26  1  0  0  0  0
 26 22  2  0  0  0  0
 27 24  1  0  0  0  0
 27 29  2  0  0  0  0
 28 27  1  0  0  0  0
 30  5  1  0  0  0  0
 31 30  1  0  0  0  0
M  END
>  <MODEL>
5

>  <REMARK>
 VINA RESULT:      -9.6      4.725      8.029
  Name = 
  3 active torsions:
  status: ('A' for Active; 'I' for Inactive)
    1  A    between atoms: C_2  and  C_13
    2  A    between atoms: C_9  and  C_22
    3  A    between atoms: C_15  and  N_23
                            x       y       z     vdW  Elec       q    Type
                         _______ _______ _______ _____ _____    ______ ____

>  <TORSDO>
F 3

$$$$
=
 OpenBabel11052413113D

 31 35  0  0  1  0  0  0  0  0999 V2000
  187.5970  178.0280  143.5580 C   0  0  0  0  0  0  0  0  0  0  0  0
  187.6970  177.8710  144.9710 C   0  0  2  0  0  3  0  0  0  0  0  0
  188.9820  177.3650  147.0160 C   0  0  0  0  0  0  0  0  0  0  0  0
  188.6300  177.8550  142.7030 C   0  0  0  0  0  0  0  0  0  0  0  0
  190.5620  177.4730  141.8320 C   0  0  0  0  0  0  0  0  0  0  0  0
  188.8550  177.5320  145.5610 C   0  0  0  0  0  3  0  0  0  0  0  0
  186.1810  178.5710  141.5010 C   0  0  0  0  0  0  0  0  0  0  0  0
  185.3340  178.4290  145.1880 C   0  0  0  0  0  3  0  0  0  0  0  0
  190.1780  177.0220  147.5500 F   0  0  0  0  0  0  0  0  0  0  0  0
  187.2440  178.3870  140.7050 C   0  0  0  0  0  3  0  0  0  0  0  0
  186.3400  178.3900  142.9830 C   0  0  0  0  0  0  0  0  0  0  0  0
  189.9800  177.5090  142.9980 N   0  0  0  0  0  0  0  0  0  0  0  0
  187.9300  177.5470  147.8130 C   0  0  0  0  0  3  0  0  0  0  0  0
  188.4740  178.0240  141.3200 N   0  0  0  0  0  0  0  0  0  0  0  0
  189.7070  177.7900  140.7220 N   0  0  0  0  0  2  0  0  0  0  0  0
  185.2310  178.5840  143.8100 C   0  0  0  0  0  3  0  0  0  0  0  0
  186.5480  178.0770  145.7750 C   0  0  0  0  0  0  0  0  0  0  0  0
  186.5800  177.9280  147.2760 C   0  0  0  0  0  3  0  0  0  0  0  0
  185.4200  178.9690  138.6880 O   0  0  0  0  0  0  0  0  0  0  0  0
  184.5500  179.1290  139.5840 C   0  0  0  0  0  0  0  0  0  0  0  0
  184.8980  178.9390  140.9650 N   0  0  0  0  0  2  0  0  0  0  0  0
  180.5750  180.3810  138.5240 C   0  0  0  0  0  0  0  0  0  0  0  0
  182.9420  180.8060  138.7350 C   0  0  0  0  0  3  0  0  0  0  0  0
  182.1570  176.9980  139.9810 Cl  0  0  0  0  0  0  0  0  0  0  0  0
  178.9700  180.9220  138.0840 Cl  0  0  0  0  0  0  0  0  0  0  0  0
  181.6630  181.2400  138.3830 C   0  0  0  0  0  3  0  0  0  0  0  0
  182.0430  178.6440  139.3730 C   0  0  0  0  0  0  0  0  0  0  0  0
  183.1580  179.5110  139.2330 C   0  0  0  0  0  0  0  0  0  0  0  0
  180.7660  179.0910  139.0160 C   0  0  0  0  0  3  0  0  0  0  0  0
  192.0130  177.1840  141.6730 C   0  0  0  0  0  2  0  0  0  0  0  0
  192.4420  177.4700  140.2490 C   0  0  0  0  0  1  0  0  0  0  0  0
  1  2  1  0  0  0  0
  2  6  1  6  0  0  0
  2 17  1  0  0  0  0
  3  9  1  0  0  0  0
  3 13  1  0  0  0  0
  4 12  1  0  0  0  0
  4  1  2  0  0  0  0
  5 12  2  0  0  0  0
  6  3  2  0  0  0  0
  7 11  1  0  0  0  0
  8 17  2  0  0  0  0
 10 14  1  0  0  0  0
 10  7  2  0  0  0  0
 11  1  1  0  0  0  0
 11 16  2  0  0  0  0
 14  4  1  0  0  0  0
 15 14  1  0  0  0  0
 15  5  1  0  0  0  0
 16  8  1  0  0  0  0
 17 18  1  0  0  0  0
 18 13  2  0  0  0  0
 19 20  2  0  0  0  0
 20 21  1  0  0  0  0
 21  7  1  0  0  0  0
 22 29  1  0  0  0  0
 23 28  2  0  0  0  0
 25 22  1  0  0  0  0
 26 22  2  0  0  0  0
 26 23  1  0  0  0  0
 27 24  1  0  0  0  0
 28 27  1  0  0  0  0
 28 20  1  0  0  0  0
 29 27  2  0  0  0  0
 30  5  1  0  0  0  0
 31 30  1  0  0  0  0
M  END
>  <MODEL>
6

>  <REMARK>
 VINA RESULT:      -9.5      3.698      6.698
  Name = 
  3 active torsions:
  status: ('A' for Active; 'I' for Inactive)
    1  A    between atoms: C_2  and  C_13
    2  A    between atoms: C_9  and  C_22
    3  A    between atoms: C_15  and  N_23
                            x       y       z     vdW  Elec       q    Type
                         _______ _______ _______ _____ _____    ______ ____

>  <TORSDO>
F 3

$$$$
=
 OpenBabel11052413113D

 31 35  0  0  1  0  0  0  0  0999 V2000
  185.8400  178.4870  140.4490 C   0  0  0  0  0  0  0  0  0  0  0  0
  184.4260  178.6530  140.5200 C   0  0  2  0  0  3  0  0  0  0  0  0
  182.2210  178.9970  139.4660 C   0  0  0  0  0  0  0  0  0  0  0  0
  186.5430  178.4850  139.2950 C   0  0  0  0  0  0  0  0  0  0  0  0
  187.1380  178.5520  137.2260 C   0  0  0  0  0  0  0  0  0  0  0  0
  183.6810  178.8230  139.4160 C   0  0  0  0  0  3  0  0  0  0  0  0
  188.0740  178.1270  141.6370 C   0  0  0  0  0  0  0  0  0  0  0  0
  184.5390  178.4650  142.9490 C   0  0  0  0  0  3  0  0  0  0  0  0
  181.5270  179.1640  138.3150 F   0  0  0  0  0  0  0  0  0  0  0  0
  188.7150  178.1320  140.4590 C   0  0  0  0  0  3  0  0  0  0  0  0
  186.5840  178.3100  141.6570 C   0  0  0  0  0  0  0  0  0  0  0  0
  186.0640  178.6280  137.9610 N   0  0  0  0  0  0  0  0  0  0  0  0
  181.5780  178.9910  140.6310 C   0  0  0  0  0  3  0  0  0  0  0  0
  187.9350  178.3160  139.2840 N   0  0  0  0  0  0  0  0  0  0  0  0
  188.3570  178.3490  137.9590 N   0  0  0  0  0  2  0  0  0  0  0  0
  185.9180  178.3020  142.8850 C   0  0  0  0  0  3  0  0  0  0  0  0
  183.7890  178.6390  141.7870 C   0  0  0  0  0  0  0  0  0  0  0  0
  182.2980  178.8100  141.9380 C   0  0  0  0  0  3  0  0  0  0  0  0
  188.3950  175.6690  143.2190 O   0  0  0  0  0  0  0  0  0  0  0  0
  188.9250  176.7330  143.6310 C   0  0  0  0  0  0  0  0  0  0  0  0
  188.7820  177.9480  142.8750 N   0  0  0  0  0  2  0  0  0  0  0  0
  191.3090  176.7480  147.2110 C   0  0  0  0  0  0  0  0  0  0  0  0
  191.0560  176.3840  144.8380 C   0  0  0  0  0  3  0  0  0  0  0  0
  187.4830  177.6180  146.3820 Cl  0  0  0  0  0  0  0  0  0  0  0  0
  192.3050  176.7430  148.6490 Cl  0  0  0  0  0  0  0  0  0  0  0  0
  191.8540  176.3790  145.9830 C   0  0  0  0  0  3  0  0  0  0  0  0
  189.1570  177.1300  146.1520 C   0  0  0  0  0  0  0  0  0  0  0  0
  189.7030  176.7550  144.8960 C   0  0  0  0  0  0  0  0  0  0  0  0
  189.9670  177.1210  147.2930 C   0  0  0  0  0  3  0  0  0  0  0  0
  187.0940  178.6160  135.7400 C   0  0  0  0  0  2  0  0  0  0  0  0
  186.5120  177.3310  135.1880 C   0  0  0  0  0  1  0  0  0  0  0  0
  1  2  1  0  0  0  0
  1 11  1  0  0  0  0
  2  6  1  1  0  0  0
  2 17  1  0  0  0  0
  3 13  1  0  0  0  0
  4  1  2  0  0  0  0
  5 15  1  0  0  0  0
  5 12  2  0  0  0  0
  6  3  2  0  0  0  0
  7 11  1  0  0  0  0
  7 21  1  0  0  0  0
  9  3  1  0  0  0  0
 10  7  2  0  0  0  0
 11 16  2  0  0  0  0
 12  4  1  0  0  0  0
 13 18  2  0  0  0  0
 14  4  1  0  0  0  0
 14 10  1  0  0  0  0
 15 14  1  0  0  0  0
 16  8  1  0  0  0  0
 17 18  1  0  0  0  0
 17  8  2  0  0  0  0
 19 20  2  0  0  0  0
 20 28  1  0  0  0  0
 21 20  1  0  0  0  0
 22 29  1  0  0  0  0
 22 25  1  0  0  0  0
 23 28  2  0  0  0  0
 23 26  1  0  0  0  0
 26 22  2  0  0  0  0
 27 24  1  0  0  0  0
 27 29  2  0  0  0  0
 28 27  1  0  0  0  0
 30  5  1  0  0  0  0
 31 30  1  0  0  0  0
M  END
>  <MODEL>
7

>  <REMARK>
 VINA RESULT:      -9.5      4.551      8.227
  Name = 
  3 active torsions:
  status: ('A' for Active; 'I' for Inactive)
    1  A    between atoms: C_2  and  C_13
    2  A    between atoms: C_9  and  C_22
    3  A    between atoms: C_15  and  N_23
                            x       y       z     vdW  Elec       q    Type
                         _______ _______ _______ _____ _____    ______ ____

>  <TORSDO>
F 3

$$$$
=
 OpenBabel11052413113D

 31 35  0  0  1  0  0  0  0  0999 V2000
  189.1280  177.5810  142.6250 C   0  0  0  0  0  0  0  0  0  0  0  0
  189.4100  177.4020  144.0110 C   0  0  2  0  0  3  0  0  0  0  0  0
  188.7660  177.5010  146.3910 C   0  0  0  0  0  0  0  0  0  0  0  0
  187.9470  178.0330  142.1470 C   0  0  0  0  0  0  0  0  0  0  0  0
  185.9290  178.7590  141.9460 C   0  0  0  0  0  0  0  0  0  0  0  0
  188.4970  177.6780  144.9560 C   0  0  0  0  0  3  0  0  0  0  0  0
  189.8900  177.4410  140.1890 C   0  0  0  0  0  0  0  0  0  0  0  0
  191.6510  176.6300  143.4410 C   0  0  0  0  0  3  0  0  0  0  0  0
  187.8030  177.7960  147.2950 F   0  0  0  0  0  0  0  0  0  0  0  0
  188.6960  177.8910  139.7770 C   0  0  0  0  0  3  0  0  0  0  0  0
  190.1370  177.2730  141.6610 C   0  0  0  0  0  0  0  0  0  0  0  0
  186.7760  178.4010  142.8700 N   0  0  0  0  0  0  0  0  0  0  0  0
  189.9490  177.0530  146.8080 C   0  0  0  0  0  3  0  0  0  0  0  0
  187.7240  178.1890  140.7700 N   0  0  0  0  0  0  0  0  0  0  0  0
  186.4240  178.6530  140.6020 N   0  0  0  0  0  2  0  0  0  0  0  0
  191.3810  176.8020  142.0880 C   0  0  0  0  0  3  0  0  0  0  0  0
  190.6850  176.9220  144.4020 C   0  0  0  0  0  0  0  0  0  0  0  0
  191.0550  176.7100  145.8490 C   0  0  0  0  0  3  0  0  0  0  0  0
  189.9760  175.2350  138.2460 O   0  0  0  0  0  0  0  0  0  0  0  0
  190.9520  176.0280  138.3130 C   0  0  0  0  0  0  0  0  0  0  0  0
  190.9320  177.1140  139.2540 N   0  0  0  0  0  2  0  0  0  0  0  0
  194.4570  175.5080  135.8760 C   0  0  0  0  0  0  0  0  0  0  0  0
  193.3610  175.5420  138.0260 C   0  0  0  0  0  3  0  0  0  0  0  0
  190.6200  176.3960  135.1220 Cl  0  0  0  0  0  0  0  0  0  0  0  0
  195.9010  175.2910  134.9120 Cl  0  0  0  0  0  0  0  0  0  0  0  0
  194.5140  175.3680  137.2610 C   0  0  0  0  0  3  0  0  0  0  0  0
  192.0830  176.0010  136.0140 C   0  0  0  0  0  0  0  0  0  0  0  0
  192.1310  175.8600  137.4260 C   0  0  0  0  0  0  0  0  0  0  0  0
  193.2480  175.8240  135.2580 C   0  0  0  0  0  3  0  0  0  0  0  0
  184.5400  179.1890  142.2610 C   0  0  0  0  0  2  0  0  0  0  0  0
  183.5510  178.3340  141.4950 C   0  0  0  0  0  1  0  0  0  0  0  0
  1  2  1  0  0  0  0
  2 17  1  0  0  0  0
  2  6  1  1  0  0  0
  3 13  1  0  0  0  0
  3  9  1  0  0  0  0
  4  1  2  0  0  0  0
  4 12  1  0  0  0  0
  5 30  1  0  0  0  0
  5 12  2  0  0  0  0
  6  3  2  0  0  0  0
  7 11  1  0  0  0  0
  8 17  2  0  0  0  0
 10  7  2  0  0  0  0
 10 14  1  0  0  0  0
 11 16  2  0  0  0  0
 11  1  1  0  0  0  0
 14  4  1  0  0  0  0
 15 14  1  0  0  0  0
 15  5  1  0  0  0  0
 16  8  1  0  0  0  0
 17 18  1  0  0  0  0
 18 13  2  0  0  0  0
 19 20  2  0  0  0  0
 20 21  1  0  0  0  0
 21  7  1  0  0  0  0
 22 26  1  0  0  0  0
 24 27  1  0  0  0  0
 25 22  1  0  0  0  0
 26 23  2  0  0  0  0
 27 28  2  0  0  0  0
 28 23  1  0  0  0  0
 28 20  1  0  0  0  0
 29 22  2  0  0  0  0
 29 27  1  0  0  0  0
 31 30  1  0  0  0  0
M  END
>  <MODEL>
8

>  <REMARK>
 VINA RESULT:      -9.5      1.755      2.244
  Name = 
  3 active torsions:
  status: ('A' for Active; 'I' for Inactive)
    1  A    between atoms: C_2  and  C_13
    2  A    between atoms: C_9  and  C_22
    3  A    between atoms: C_15  and  N_23
                            x       y       z     vdW  Elec       q    Type
                         _______ _______ _______ _____ _____    ______ ____

>  <TORSDO>
F 3

$$$$
=
 OpenBabel11052413113D

 31 35  0  0  1  0  0  0  0  0999 V2000
  188.7870  177.2750  144.9180 C   0  0  0  0  0  0  0  0  0  0  0  0
  187.8920  177.7270  145.9320 C   0  0  1  0  0  3  0  0  0  0  0  0
  187.2990  178.1050  148.2970 C   0  0  0  0  0  0  0  0  0  0  0  0
  190.0010  176.7380  145.1680 C   0  0  0  0  0  0  0  0  0  0  0  0
  191.7850  175.9860  146.1130 C   0  0  0  0  0  0  0  0  0  0  0  0
  188.2060  177.6460  147.2350 C   0  0  0  0  0  3  0  0  0  0  0  0
  189.3070  176.9280  142.4410 C   0  0  0  0  0  0  0  0  0  0  0  0
  186.2880  178.3710  144.2110 C   0  0  0  0  0  3  0  0  0  0  0  0
  187.6740  177.9960  149.5930 F   0  0  0  0  0  0  0  0  0  0  0  0
  190.5020  176.4050  142.7520 C   0  0  0  0  0  3  0  0  0  0  0  0
  188.4010  177.3860  143.5460 C   0  0  0  0  0  0  0  0  0  0  0  0
  190.6370  176.5210  146.4240 N   0  0  0  0  0  0  0  0  0  0  0  0
  186.1110  178.6270  147.9950 C   0  0  0  0  0  3  0  0  0  0  0  0
  190.8420  176.3100  144.1290 N   0  0  0  0  0  0  0  0  0  0  0  0
  192.0100  175.8210  144.7030 N   0  0  0  0  0  2  0  0  0  0  0  0
  187.1580  177.9320  143.2190 C   0  0  0  0  0  3  0  0  0  0  0  0
  186.6400  178.2760  145.5570 C   0  0  0  0  0  0  0  0  0  0  0  0
  185.6430  178.7730  146.5750 C   0  0  0  0  0  3  0  0  0  0  0  0
  190.9220  177.6170  140.0810 O   0  0  0  0  0  0  0  0  0  0  0  0
  189.6900  177.4000  139.9350 C   0  0  0  0  0  0  0  0  0  0  0  0
  188.8800  177.0620  141.0740 N   0  0  0  0  0  2  0  0  0  0  0  0
  187.7140  177.7050  136.1280 C   0  0  0  0  0  0  0  0  0  0  0  0
  187.7140  177.9020  138.5330 C   0  0  0  0  0  3  0  0  0  0  0  0
  191.4000  176.6520  137.3010 Cl  0  0  0  0  0  0  0  0  0  0  0  0
  186.8810  177.8390  134.5940 Cl  0  0  0  0  0  0  0  0  0  0  0  0
  187.0470  178.0100  137.3130 C   0  0  0  0  0  3  0  0  0  0  0  0
  189.7250  177.1810  137.3830 C   0  0  0  0  0  0  0  0  0  0  0  0
  189.0550  177.4880  138.5960 C   0  0  0  0  0  0  0  0  0  0  0  0
  189.0450  177.2930  136.1640 C   0  0  0  0  0  3  0  0  0  0  0  0
  192.8020  175.6270  147.1380 C   0  0  0  0  0  2  0  0  0  0  0  0
  192.4290  176.2450  148.4700 C   0  0  0  0  0  1  0  0  0  0  0  0
  1  4  2  0  0  0  0
  1  2  1  0  0  0  0
  2  6  1  6  0  0  0
  3  9  1  0  0  0  0
  4 12  1  0  0  0  0
  5 12  2  0  0  0  0
  5 30  1  0  0  0  0
  6  3  2  0  0  0  0
  7 10  2  0  0  0  0
  7 11  1  0  0  0  0
  8 17  2  0  0  0  0
 10 14  1  0  0  0  0
 11  1  1  0  0  0  0
 13  3  1  0  0  0  0
 14 15  1  0  0  0  0
 14  4  1  0  0  0  0
 15  5  1  0  0  0  0
 16 11  2  0  0  0  0
 16  8  1  0  0  0  0
 17  2  1  0  0  0  0
 17 18  1  0  0  0  0
 18 13  2  0  0  0  0
 20 19  2  0  0  0  0
 20 21  1  0  0  0  0
 21  7  1  0  0  0  0
 22 29  2  0  0  0  0
 22 26  1  0  0  0  0
 23 28  1  0  0  0  0
 24 27  1  0  0  0  0
 25 22  1  0  0  0  0
 26 23  2  0  0  0  0
 27 28  2  0  0  0  0
 28 20  1  0  0  0  0
 29 27  1  0  0  0  0
 30 31  1  0  0  0  0
M  END
>  <MODEL>
9

>  <REMARK>
 VINA RESULT:      -9.3      2.172      4.566
  Name = 
  3 active torsions:
  status: ('A' for Active; 'I' for Inactive)
    1  A    between atoms: C_2  and  C_13
    2  A    between atoms: C_9  and  C_22
    3  A    between atoms: C_15  and  N_23
                            x       y       z     vdW  Elec       q    Type
                         _______ _______ _______ _____ _____    ______ ____

>  <TORSDO>
F 3

$$$$
