=
 OpenBabel11052417043D

 32 36  0  0  1  0  0  0  0  0999 V2000
  191.4690  176.5100  137.2760 C   0  0  0  0  0  0  0  0  0  0  0  0
  188.3130  177.9600  140.9360 C   0  0  0  0  0  0  0  0  0  0  0  0
  185.8760  178.6300  141.3500 C   0  0  0  0  0  0  0  0  0  0  0  0
  184.7790  178.6160  142.3310 C   0  0  0  0  0  0  0  0  0  0  0  0
  189.2560  177.3980  138.7670 C   0  0  0  0  0  0  0  0  0  0  0  0
  190.4860  176.8180  140.8480 C   0  0  0  0  0  3  0  0  0  0  0  0
  182.8800  179.0780  144.3900 C   0  0  0  0  0  3  0  0  0  0  0  0
  191.4530  176.3580  138.6730 O   0  0  0  0  0  0  0  0  0  0  0  0
  189.5670  177.4890  141.5650 C   0  0  0  0  0  0  0  0  0  0  0  0
  189.7790  177.8060  142.9600 N   0  0  0  0  0  0  0  0  0  0  0  0
  187.3700  177.8320  143.2080 C   0  0  1  0  0  3  0  0  0  0  0  0
  182.3920  178.7960  142.9900 C   0  0  0  0  0  2  0  0  0  0  0  0
  190.4460  177.1110  136.6630 C   0  0  0  0  0  3  0  0  0  0  0  0
  190.2350  176.4480  139.4140 C   0  0  2  0  0  3  0  0  0  0  0  0
  183.5040  178.8000  141.9730 C   0  0  0  0  0  3  0  0  0  0  0  0
  189.3230  177.6410  137.4580 C   0  0  0  0  0  3  0  0  0  0  0  0
  188.6890  177.9070  143.8670 N   0  0  0  0  0  0  0  0  0  0  0  0
  186.3250  178.2700  144.1410 N   0  0  0  0  0  0  0  0  0  0  0  0
  188.2000  177.9880  139.5980 C   0  0  0  0  0  3  0  0  0  0  0  0
  185.6210  178.7970  140.1260 O   0  0  0  0  0  0  0  0  0  0  0  0
  184.1260  178.9190  144.7270 N   0  0  0  0  0  0  0  0  0  0  0  0
  187.3070  178.5940  141.8630 C   0  0  1  0  0  3  0  0  0  0  0  0
  185.1170  178.5510  143.7610 C   0  0  0  0  0  0  0  0  0  0  0  0
  191.3510  179.3740  143.9820 C   0  0  0  0  0  2  0  0  0  0  0  0
  191.0740  178.1770  143.4750 C   0  0  0  0  0  3  0  0  0  0  0  0
  188.9290  177.2350  146.1920 C   0  0  0  0  0  1  0  0  0  0  0  0
  188.7710  176.7580  144.7630 C   0  0  0  0  0  2  0  0  0  0  0  0
  192.5530  176.0640  136.5250 O   0  0  0  0  0  0  0  0  0  0  0  0
  193.3370  174.9560  136.9440 C   0  0  0  0  0  2  0  0  0  0  0  0
  194.6630  175.4100  137.3260 N   0  0  0  0  0  0  0  0  0  0  0  0
  195.5330  175.1920  136.1840 C   0  0  0  0  0  1  0  0  0  0  0  0
  195.1220  174.5170  138.3740 C   0  0  0  0  0  1  0  0  0  0  0  0
  1  8  1  0  0  0  0
  2  9  1  0  0  0  0
  3 22  1  0  0  0  0
  3  4  1  0  0  0  0
  4 23  1  0  0  0  0
  5 14  1  0  0  0  0
  5 19  1  0  0  0  0
  6  9  2  0  0  0  0
  7 21  2  0  0  0  0
  8 14  1  0  0  0  0
  9 10  1  0  0  0  0
 10 25  1  0  0  0  0
 10 17  1  0  0  0  0
 11 17  1  0  0  0  0
 11 18  1  1  0  0  0
 12  7  1  0  0  0  0
 13  1  2  0  0  0  0
 13 16  1  0  0  0  0
 14  6  1  1  0  0  0
 15  4  2  0  0  0  0
 15 12  1  0  0  0  0
 16  5  2  0  0  0  0
 17 27  1  0  0  0  0
 19  2  2  0  0  0  0
 20  3  2  0  0  0  0
 22  2  1  6  0  0  0
 22 11  1  0  0  0  0
 23 18  2  0  0  0  0
 23 21  1  0  0  0  0
 25 24  2  0  0  0  0
 27 26  1  0  0  0  0
 28 29  1  0  0  0  0
 28  1  1  0  0  0  0
 29 30  1  0  0  0  0
 30 32  1  0  0  0  0
 31 30  1  0  0  0  0
M  END
>  <MODEL>
1

>  <REMARK>
 VINA RESULT:      -8.9      0.000      0.000
  Name = 
  5 active torsions:
  status: ('A' for Active; 'I' for Inactive)
    1  A    between atoms: N_1  and  C_10
    2  A    between atoms: C_2  and  O_24
    3  A    between atoms: C_10  and  O_24
    4  A    between atoms: C_13  and  N_15
    5  A    between atoms: C_25  and  N_26
                            x       y       z     vdW  Elec       q    Type
                         _______ _______ _______ _____ _____    ______ ____

>  <TORSDO>
F 5

$$$$
=
 OpenBabel11052417043D

 32 36  0  0  1  0  0  0  0  0999 V2000
  189.2190  177.9490  137.4740 C   0  0  0  0  0  0  0  0  0  0  0  0
  187.8570  177.6470  142.3230 C   0  0  0  0  0  0  0  0  0  0  0  0
  188.8190  177.2960  144.6700 C   0  0  0  0  0  0  0  0  0  0  0  0
  188.6540  177.6260  146.0950 C   0  0  0  0  0  0  0  0  0  0  0  0
  189.1510  177.6150  140.2660 C   0  0  0  0  0  0  0  0  0  0  0  0
  186.8500  178.5540  140.2740 C   0  0  0  0  0  3  0  0  0  0  0  0
  188.0090  177.8100  148.8530 C   0  0  0  0  0  3  0  0  0  0  0  0
  188.1210  178.4190  138.2140 O   0  0  0  0  0  0  0  0  0  0  0  0
  186.6990  178.1450  141.5460 C   0  0  0  0  0  0  0  0  0  0  0  0
  185.4050  178.1410  142.1930 N   0  0  0  0  0  0  0  0  0  0  0  0
  186.5780  178.3730  144.2990 C   0  0  1  0  0  3  0  0  0  0  0  0
  189.4600  177.8020  148.4370 C   0  0  0  0  0  2  0  0  0  0  0  0
  190.2130  177.3090  138.0960 C   0  0  0  0  0  3  0  0  0  0  0  0
  188.2050  178.6030  139.6280 C   0  0  2  0  0  3  0  0  0  0  0  0
  189.6450  177.4710  146.9790 C   0  0  0  0  0  3  0  0  0  0  0  0
  190.1360  177.0720  139.5490 C   0  0  0  0  0  3  0  0  0  0  0  0
  185.2800  178.3430  143.5940 N   0  0  0  0  0  0  0  0  0  0  0  0
  186.3580  178.2500  145.7450 N   0  0  0  0  0  0  0  0  0  0  0  0
  188.9990  177.3210  141.6950 C   0  0  0  0  0  3  0  0  0  0  0  0
  189.9290  176.8730  144.2480 O   0  0  0  0  0  0  0  0  0  0  0  0
  187.0480  177.9390  147.9870 N   0  0  0  0  0  0  0  0  0  0  0  0
  187.5920  177.3290  143.7720 C   0  0  1  0  0  3  0  0  0  0  0  0
  187.3150  177.9900  146.5820 C   0  0  0  0  0  0  0  0  0  0  0  0
  183.5220  178.6400  140.7170 C   0  0  0  0  0  2  0  0  0  0  0  0
  184.1960  177.7920  141.4870 C   0  0  0  0  0  3  0  0  0  0  0  0
  183.2920  179.4980  144.3830 C   0  0  0  0  0  1  0  0  0  0  0  0
  184.6740  179.6560  143.7850 C   0  0  0  0  0  2  0  0  0  0  0  0
  189.2710  178.1180  136.0930 O   0  0  0  0  0  0  0  0  0  0  0  0
  188.9910  177.0430  135.2070 C   0  0  0  0  0  2  0  0  0  0  0  0
  187.7670  176.3750  135.6180 N   0  0  0  0  0  0  0  0  0  0  0  0
  187.9290  174.9650  135.3130 C   0  0  0  0  0  1  0  0  0  0  0  0
  186.7140  176.8690  134.7500 C   0  0  0  0  0  1  0  0  0  0  0  0
  1 13  2  0  0  0  0
  1  8  1  0  0  0  0
  3  4  1  0  0  0  0
  4 23  1  0  0  0  0
  4 15  2  0  0  0  0
  5 19  1  0  0  0  0
  6  9  2  0  0  0  0
  8 14  1  0  0  0  0
  9 10  1  0  0  0  0
  9  2  1  0  0  0  0
 10 17  1  0  0  0  0
 11 18  1  1  0  0  0
 12  7  1  0  0  0  0
 13 16  1  0  0  0  0
 14  5  1  0  0  0  0
 14  6  1  1  0  0  0
 15 12  1  0  0  0  0
 16  5  2  0  0  0  0
 17 27  1  0  0  0  0
 17 11  1  0  0  0  0
 18 23  2  0  0  0  0
 19  2  2  0  0  0  0
 20  3  2  0  0  0  0
 21  7  2  0  0  0  0
 22  2  1  6  0  0  0
 22 11  1  0  0  0  0
 22  3  1  0  0  0  0
 23 21  1  0  0  0  0
 24 25  2  0  0  0  0
 25 10  1  0  0  0  0
 27 26  1  0  0  0  0
 28  1  1  0  0  0  0
 29 30  1  0  0  0  0
 29 28  1  0  0  0  0
 31 30  1  0  0  0  0
 32 30  1  0  0  0  0
M  END
>  <MODEL>
2

>  <REMARK>
 VINA RESULT:      -8.2      2.793      5.197
  Name = 
  5 active torsions:
  status: ('A' for Active; 'I' for Inactive)
    1  A    between atoms: N_1  and  C_10
    2  A    between atoms: C_2  and  O_24
    3  A    between atoms: C_10  and  O_24
    4  A    between atoms: C_13  and  N_15
    5  A    between atoms: C_25  and  N_26
                            x       y       z     vdW  Elec       q    Type
                         _______ _______ _______ _____ _____    ______ ____

>  <TORSDO>
F 5

$$$$
=
 OpenBabel11052417043D

 32 36  0  0  1  0  0  0  0  0999 V2000
  181.8590  179.0020  142.3070 C   0  0  0  0  0  0  0  0  0  0  0  0
  186.6850  178.2250  143.5620 C   0  0  0  0  0  0  0  0  0  0  0  0
  188.1920  177.7390  145.5740 C   0  0  0  0  0  0  0  0  0  0  0  0
  189.4280  177.0700  146.0120 C   0  0  0  0  0  0  0  0  0  0  0  0
  184.2810  178.5720  143.6710 C   0  0  0  0  0  0  0  0  0  0  0  0
  185.3740  178.1160  141.4860 C   0  0  0  0  0  3  0  0  0  0  0  0
  192.0560  176.2690  146.7260 C   0  0  0  0  0  3  0  0  0  0  0  0
  182.9950  178.5640  141.6060 O   0  0  0  0  0  0  0  0  0  0  0  0
  186.5770  178.1850  142.0860 C   0  0  0  0  0  0  0  0  0  0  0  0
  187.8020  178.2560  141.3220 N   0  0  0  0  0  0  0  0  0  0  0  0
  188.9170  177.2450  143.2180 C   0  0  1  0  0  3  0  0  0  0  0  0
  190.9420  176.1170  147.7330 C   0  0  0  0  0  2  0  0  0  0  0  0
  181.9430  179.2500  143.6170 C   0  0  0  0  0  3  0  0  0  0  0  0
  184.1110  177.9900  142.2890 C   0  0  2  0  0  3  0  0  0  0  0  0
  189.6660  176.7900  147.2970 C   0  0  0  0  0  3  0  0  0  0  0  0
  183.2340  179.0930  144.3120 C   0  0  0  0  0  3  0  0  0  0  0  0
  189.0150  177.7090  141.8190 N   0  0  0  0  0  0  0  0  0  0  0  0
  190.2620  177.0090  143.7570 N   0  0  0  0  0  0  0  0  0  0  0  0
  185.5990  178.4890  144.3090 C   0  0  0  0  0  3  0  0  0  0  0  0
  187.3080  178.0430  146.4210 O   0  0  0  0  0  0  0  0  0  0  0  0
  191.8190  176.5640  145.4820 N   0  0  0  0  0  0  0  0  0  0  0  0
  188.0820  178.1820  144.1230 C   0  0  1  0  0  3  0  0  0  0  0  0
  190.4940  176.8470  145.0230 C   0  0  0  0  0  0  0  0  0  0  0  0
  187.6750  178.4800  138.8910 C   0  0  0  0  0  2  0  0  0  0  0  0
  187.8960  179.0050  140.0920 C   0  0  0  0  0  3  0  0  0  0  0  0
  190.6060  176.7520  140.2490 C   0  0  0  0  0  1  0  0  0  0  0  0
  189.3160  176.5310  141.0120 C   0  0  0  0  0  2  0  0  0  0  0  0
  180.6510  179.2080  141.6460 O   0  0  0  0  0  0  0  0  0  0  0  0
  180.5490  179.0740  140.2360 C   0  0  0  0  0  2  0  0  0  0  0  0
  180.8410  180.3470  139.5990 N   0  0  0  0  0  0  0  0  0  0  0  0
  179.7460  181.2460  139.9220 C   0  0  0  0  0  1  0  0  0  0  0  0
  180.7810  180.1180  138.1680 C   0  0  0  0  0  1  0  0  0  0  0  0
  1 13  2  0  0  0  0
  2 19  2  0  0  0  0
  3  4  1  0  0  0  0
  3 20  2  0  0  0  0
  4 15  2  0  0  0  0
  5 19  1  0  0  0  0
  5 16  2  0  0  0  0
  6  9  2  0  0  0  0
  7 12  1  0  0  0  0
  8 14  1  0  0  0  0
  8  1  1  0  0  0  0
  9  2  1  0  0  0  0
 10 17  1  0  0  0  0
 10  9  1  0  0  0  0
 11 18  1  1  0  0  0
 11 22  1  0  0  0  0
 13 16  1  0  0  0  0
 14  6  1  6  0  0  0
 14  5  1  0  0  0  0
 15 12  1  0  0  0  0
 17 11  1  0  0  0  0
 18 23  2  0  0  0  0
 21  7  2  0  0  0  0
 22  2  1  6  0  0  0
 22  3  1  0  0  0  0
 23 21  1  0  0  0  0
 23  4  1  0  0  0  0
 24 25  2  0  0  0  0
 25 10  1  0  0  0  0
 26 27  1  0  0  0  0
 27 17  1  0  0  0  0
 28  1  1  0  0  0  0
 29 28  1  0  0  0  0
 30 31  1  0  0  0  0
 30 29  1  0  0  0  0
 32 30  1  0  0  0  0
M  END
>  <MODEL>
3

>  <REMARK>
 VINA RESULT:      -7.5      3.800      8.566
  Name = 
  5 active torsions:
  status: ('A' for Active; 'I' for Inactive)
    1  A    between atoms: N_1  and  C_10
    2  A    between atoms: C_2  and  O_24
    3  A    between atoms: C_10  and  O_24
    4  A    between atoms: C_13  and  N_15
    5  A    between atoms: C_25  and  N_26
                            x       y       z     vdW  Elec       q    Type
                         _______ _______ _______ _____ _____    ______ ____

>  <TORSDO>
F 5

$$$$
=
 OpenBabel11052417043D

 32 36  0  0  1  0  0  0  0  0999 V2000
  189.5210  177.9820  144.4280 C   0  0  0  0  0  0  0  0  0  0  0  0
  190.9970  176.9730  139.7100 C   0  0  0  0  0  0  0  0  0  0  0  0
  193.0670  176.3610  138.3320 C   0  0  0  0  0  0  0  0  0  0  0  0
  193.5450  175.6300  137.1470 C   0  0  0  0  0  0  0  0  0  0  0  0
  190.9940  177.4110  142.1010 C   0  0  0  0  0  0  0  0  0  0  0  0
  188.8540  176.9850  140.9100 C   0  0  0  0  0  3  0  0  0  0  0  0
  194.3660  174.7020  134.5940 C   0  0  0  0  0  3  0  0  0  0  0  0
  188.8650  177.5230  143.2740 O   0  0  0  0  0  0  0  0  0  0  0  0
  189.5170  176.9850  139.7400 C   0  0  0  0  0  0  0  0  0  0  0  0
  188.8210  177.0330  138.4740 N   0  0  0  0  0  0  0  0  0  0  0  0
  190.7360  175.9160  137.5010 C   0  0  1  0  0  3  0  0  0  0  0  0
  195.3080  174.5610  135.7640 C   0  0  0  0  0  2  0  0  0  0  0  0
  190.8410  178.1830  144.4050 C   0  0  0  0  0  3  0  0  0  0  0  0
  189.5850  176.8830  142.2190 C   0  0  2  0  0  3  0  0  0  0  0  0
  194.8300  175.2980  136.9880 C   0  0  0  0  0  3  0  0  0  0  0  0
  191.5960  177.9520  143.1600 C   0  0  0  0  0  3  0  0  0  0  0  0
  189.3620  176.4220  137.3110 N   0  0  0  0  0  0  0  0  0  0  0  0
  191.3360  175.6100  136.1970 N   0  0  0  0  0  0  0  0  0  0  0  0
  191.6960  177.2550  140.8230 C   0  0  0  0  0  3  0  0  0  0  0  0
  193.8770  176.6720  139.2470 O   0  0  0  0  0  0  0  0  0  0  0  0
  193.1220  175.0460  134.7520 N   0  0  0  0  0  0  0  0  0  0  0  0
  191.6290  176.8560  138.3470 C   0  0  1  0  0  3  0  0  0  0  0  0
  192.6050  175.3970  136.0390 C   0  0  0  0  0  0  0  0  0  0  0  0
  187.4430  178.6530  137.2680 C   0  0  0  0  0  2  0  0  0  0  0  0
  187.6240  177.8180  138.2860 C   0  0  0  0  0  3  0  0  0  0  0  0
  187.9050  175.4200  135.6410 C   0  0  0  0  0  1  0  0  0  0  0  0
  188.5300  175.2610  137.0120 C   0  0  0  0  0  2  0  0  0  0  0  0
  188.8060  178.2580  145.5910 O   0  0  0  0  0  0  0  0  0  0  0  0
  187.5530  177.6410  145.8500 C   0  0  0  0  0  2  0  0  0  0  0  0
  186.4910  178.6280  145.7540 N   0  0  0  0  0  0  0  0  0  0  0  0
  185.7080  178.5330  146.9740 C   0  0  0  0  0  1  0  0  0  0  0  0
  185.6250  178.2010  144.6710 C   0  0  0  0  0  1  0  0  0  0  0  0
  1 28  1  0  0  0  0
  2  9  1  0  0  0  0
  2 19  2  0  0  0  0
  3 20  2  0  0  0  0
  4  3  1  0  0  0  0
  5 14  1  0  0  0  0
  5 16  2  0  0  0  0
  7 21  2  0  0  0  0
  7 12  1  0  0  0  0
  8  1  1  0  0  0  0
  9  6  2  0  0  0  0
 10  9  1  0  0  0  0
 11 18  1  6  0  0  0
 11 22  1  0  0  0  0
 12 15  1  0  0  0  0
 13  1  2  0  0  0  0
 14  6  1  6  0  0  0
 14  8  1  0  0  0  0
 15  4  2  0  0  0  0
 16 13  1  0  0  0  0
 17 11  1  0  0  0  0
 17 10  1  0  0  0  0
 19  5  1  0  0  0  0
 21 23  1  0  0  0  0
 22  3  1  1  0  0  0
 22  2  1  0  0  0  0
 23 18  2  0  0  0  0
 23  4  1  0  0  0  0
 24 25  2  0  0  0  0
 25 10  1  0  0  0  0
 26 27  1  0  0  0  0
 27 17  1  0  0  0  0
 28 29  1  0  0  0  0
 30 29  1  0  0  0  0
 30 31  1  0  0  0  0
 32 30  1  0  0  0  0
M  END
>  <MODEL>
4

>  <REMARK>
 VINA RESULT:      -7.4      2.539      9.219
  Name = 
  5 active torsions:
  status: ('A' for Active; 'I' for Inactive)
    1  A    between atoms: N_1  and  C_10
    2  A    between atoms: C_2  and  O_24
    3  A    between atoms: C_10  and  O_24
    4  A    between atoms: C_13  and  N_15
    5  A    between atoms: C_25  and  N_26
                            x       y       z     vdW  Elec       q    Type
                         _______ _______ _______ _____ _____    ______ ____

>  <TORSDO>
F 5

$$$$
=
 OpenBabel11052417043D

 32 36  0  0  1  0  0  0  0  0999 V2000
  190.7830  176.7290  143.7340 C   0  0  0  0  0  0  0  0  0  0  0  0
  186.3580  178.3680  141.9490 C   0  0  0  0  0  0  0  0  0  0  0  0
  185.0480  178.6640  139.7690 C   0  0  0  0  0  0  0  0  0  0  0  0
  183.7030  178.6730  139.1690 C   0  0  0  0  0  0  0  0  0  0  0  0
  188.6290  177.5150  142.1060 C   0  0  0  0  0  0  0  0  0  0  0  0
  187.2030  177.6430  144.1390 C   0  0  0  0  0  3  0  0  0  0  0  0
  181.1160  179.2330  138.1460 C   0  0  0  0  0  3  0  0  0  0  0  0
  189.5030  176.8910  144.2890 O   0  0  0  0  0  0  0  0  0  0  0  0
  186.2600  178.2810  143.4230 C   0  0  0  0  0  0  0  0  0  0  0  0
  185.1370  178.9340  144.0610 N   0  0  0  0  0  0  0  0  0  0  0  0
  183.9050  178.5820  142.0060 C   0  0  1  0  0  3  0  0  0  0  0  0
  182.1310  178.5640  137.2520 C   0  0  0  0  0  2  0  0  0  0  0  0
  190.9820  176.9850  142.4390 C   0  0  0  0  0  3  0  0  0  0  0  0
  188.3370  176.9250  143.4650 C   0  0  2  0  0  3  0  0  0  0  0  0
  183.5120  178.5400  137.8530 C   0  0  0  0  0  3  0  0  0  0  0  0
  189.8640  177.4680  141.6070 C   0  0  0  0  0  3  0  0  0  0  0  0
  183.8780  179.0370  143.4110 N   0  0  0  0  0  0  0  0  0  0  0  0
  182.6840  179.0220  141.3200 N   0  0  0  0  0  0  0  0  0  0  0  0
  187.5160  178.0760  141.3330 C   0  0  0  0  0  3  0  0  0  0  0  0
  186.0610  178.5060  139.0350 O   0  0  0  0  0  0  0  0  0  0  0  0
  181.3170  179.3790  139.4220 N   0  0  0  0  0  0  0  0  0  0  0  0
  185.1850  179.0010  141.2450 C   0  0  1  0  0  3  0  0  0  0  0  0
  182.5530  178.9900  140.0300 C   0  0  0  0  0  0  0  0  0  0  0  0
  185.3200  179.0310  146.4960 C   0  0  0  0  0  2  0  0  0  0  0  0
  185.2690  179.6360  145.3140 C   0  0  0  0  0  3  0  0  0  0  0  0
  181.5940  178.8000  144.2100 C   0  0  0  0  0  1  0  0  0  0  0  0
  182.9590  178.1500  144.1160 C   0  0  0  0  0  2  0  0  0  0  0  0
  191.8570  176.3280  144.5260 O   0  0  0  0  0  0  0  0  0  0  0  0
  191.6530  175.6570  145.7610 C   0  0  0  0  0  2  0  0  0  0  0  0
  191.9990  176.5390  146.8620 N   0  0  0  0  0  0  0  0  0  0  0  0
  192.6430  175.7240  147.8760 C   0  0  0  0  0  1  0  0  0  0  0  0
  190.7460  176.9980  147.4340 C   0  0  0  0  0  1  0  0  0  0  0  0
  1  8  1  0  0  0  0
  1 28  1  0  0  0  0
  2  9  1  0  0  0  0
  4  3  1  0  0  0  0
  4 23  1  0  0  0  0
  5 14  1  0  0  0  0
  7 21  2  0  0  0  0
  9 10  1  0  0  0  0
  9  6  2  0  0  0  0
 10 25  1  0  0  0  0
 11 18  1  6  0  0  0
 11 17  1  0  0  0  0
 12 15  1  0  0  0  0
 12  7  1  0  0  0  0
 13  1  2  0  0  0  0
 14  6  1  1  0  0  0
 14  8  1  0  0  0  0
 15  4  2  0  0  0  0
 16  5  2  0  0  0  0
 16 13  1  0  0  0  0
 17 10  1  0  0  0  0
 17 27  1  0  0  0  0
 19  2  2  0  0  0  0
 19  5  1  0  0  0  0
 20  3  2  0  0  0  0
 21 23  1  0  0  0  0
 22  3  1  6  0  0  0
 22  2  1  0  0  0  0
 22 11  1  0  0  0  0
 23 18  2  0  0  0  0
 25 24  2  0  0  0  0
 27 26  1  0  0  0  0
 28 29  1  0  0  0  0
 29 30  1  0  0  0  0
 30 32  1  0  0  0  0
 30 31  1  0  0  0  0
M  END
>  <MODEL>
5

>  <REMARK>
 VINA RESULT:      -7.3      3.871      5.961
  Name = 
  5 active torsions:
  status: ('A' for Active; 'I' for Inactive)
    1  A    between atoms: N_1  and  C_10
    2  A    between atoms: C_2  and  O_24
    3  A    between atoms: C_10  and  O_24
    4  A    between atoms: C_13  and  N_15
    5  A    between atoms: C_25  and  N_26
                            x       y       z     vdW  Elec       q    Type
                         _______ _______ _______ _____ _____    ______ ____

>  <TORSDO>
F 5

$$$$
=
 OpenBabel11052417043D

 32 36  0  0  1  0  0  0  0  0999 V2000
  180.8210  178.7560  140.7850 C   0  0  0  0  0  0  0  0  0  0  0  0
  185.1080  178.6300  143.4430 C   0  0  0  0  0  0  0  0  0  0  0  0
  185.9930  178.6600  145.8460 C   0  0  0  0  0  0  0  0  0  0  0  0
  187.0700  178.1910  146.7330 C   0  0  0  0  0  0  0  0  0  0  0  0
  182.7640  178.7930  142.8170 C   0  0  0  0  0  0  0  0  0  0  0  0
  184.4450  178.0200  141.1570 C   0  0  0  0  0  3  0  0  0  0  0  0
  189.4050  177.7580  148.2870 C   0  0  0  0  0  3  0  0  0  0  0  0
  182.1190  178.2870  140.5270 O   0  0  0  0  0  0  0  0  0  0  0  0
  185.4250  178.3000  142.0350 C   0  0  0  0  0  0  0  0  0  0  0  0
  186.8150  178.3240  141.6370 N   0  0  0  0  0  0  0  0  0  0  0  0
  187.3700  177.7870  143.9320 C   0  0  1  0  0  3  0  0  0  0  0  0
  188.0550  177.7100  148.9600 C   0  0  0  0  0  2  0  0  0  0  0  0
  180.5230  179.2550  141.9870 C   0  0  0  0  0  3  0  0  0  0  0  0
  183.0090  177.9470  141.5920 C   0  0  2  0  0  3  0  0  0  0  0  0
  186.9400  178.1810  148.0630 C   0  0  0  0  0  3  0  0  0  0  0  0
  181.5660  179.3400  143.0250 C   0  0  0  0  0  3  0  0  0  0  0  0
  187.8500  177.9820  142.5490 N   0  0  0  0  0  0  0  0  0  0  0  0
  188.5110  177.7700  144.8550 N   0  0  0  0  0  0  0  0  0  0  0  0
  183.8490  178.9410  143.7940 C   0  0  0  0  0  3  0  0  0  0  0  0
  184.8980  179.0470  146.3380 O   0  0  0  0  0  0  0  0  0  0  0  0
  189.5250  177.7900  146.9920 N   0  0  0  0  0  0  0  0  0  0  0  0
  186.2890  178.8080  144.3610 C   0  0  1  0  0  3  0  0  0  0  0  0
  188.3770  177.8710  146.1410 C   0  0  0  0  0  0  0  0  0  0  0  0
  187.4220  178.0630  139.2840 C   0  0  0  0  0  2  0  0  0  0  0  0
  187.2370  178.8300  140.3530 C   0  0  0  0  0  3  0  0  0  0  0  0
  189.8720  176.8550  141.8070 C   0  0  0  0  0  1  0  0  0  0  0  0
  188.3970  176.7010  142.1150 C   0  0  0  0  0  2  0  0  0  0  0  0
  179.8450  178.7330  139.7910 O   0  0  0  0  0  0  0  0  0  0  0  0
  179.9670  179.5270  138.6190 C   0  0  0  0  0  2  0  0  0  0  0  0
  180.3750  180.8740  138.9790 N   0  0  0  0  0  0  0  0  0  0  0  0
  179.1810  181.7000  138.9600 C   0  0  0  0  0  1  0  0  0  0  0  0
  181.2260  181.3500  137.9040 C   0  0  0  0  0  1  0  0  0  0  0  0
  1 13  2  0  0  0  0
  2 19  2  0  0  0  0
  3 20  2  0  0  0  0
  3  4  1  0  0  0  0
  4 15  2  0  0  0  0
  5 16  2  0  0  0  0
  5 19  1  0  0  0  0
  6  9  2  0  0  0  0
  7 12  1  0  0  0  0
  8  1  1  0  0  0  0
  8 14  1  0  0  0  0
  9  2  1  0  0  0  0
 10  9  1  0  0  0  0
 10 17  1  0  0  0  0
 11 22  1  0  0  0  0
 11 18  1  1  0  0  0
 13 16  1  0  0  0  0
 14  6  1  6  0  0  0
 14  5  1  0  0  0  0
 15 12  1  0  0  0  0
 17 11  1  0  0  0  0
 18 23  2  0  0  0  0
 21  7  2  0  0  0  0
 22  2  1  6  0  0  0
 22  3  1  0  0  0  0
 23  4  1  0  0  0  0
 23 21  1  0  0  0  0
 24 25  2  0  0  0  0
 25 10  1  0  0  0  0
 26 27  1  0  0  0  0
 27 17  1  0  0  0  0
 28  1  1  0  0  0  0
 29 30  1  0  0  0  0
 29 28  1  0  0  0  0
 31 30  1  0  0  0  0
 32 30  1  0  0  0  0
M  END
>  <MODEL>
6

>  <REMARK>
 VINA RESULT:      -7.2      4.281      8.458
  Name = 
  5 active torsions:
  status: ('A' for Active; 'I' for Inactive)
    1  A    between atoms: N_1  and  C_10
    2  A    between atoms: C_2  and  O_24
    3  A    between atoms: C_10  and  O_24
    4  A    between atoms: C_13  and  N_15
    5  A    between atoms: C_25  and  N_26
                            x       y       z     vdW  Elec       q    Type
                         _______ _______ _______ _____ _____    ______ ____

>  <TORSDO>
F 5

$$$$
=
 OpenBabel11052417043D

 32 36  0  0  1  0  0  0  0  0999 V2000
  189.6420  176.9170  145.9660 C   0  0  0  0  0  0  0  0  0  0  0  0
  188.4340  177.9340  141.1730 C   0  0  0  0  0  0  0  0  0  0  0  0
  189.3300  177.7380  138.7830 C   0  0  0  0  0  0  0  0  0  0  0  0
  188.9510  177.5560  137.3710 C   0  0  0  0  0  0  0  0  0  0  0  0
  189.6380  177.2570  143.1740 C   0  0  0  0  0  0  0  0  0  0  0  0
  187.1910  177.6860  143.2790 C   0  0  0  0  0  3  0  0  0  0  0  0
  188.1850  177.7650  134.6470 C   0  0  0  0  0  3  0  0  0  0  0  0
  188.4310  177.1080  145.2810 O   0  0  0  0  0  0  0  0  0  0  0  0
  187.2250  178.1220  142.0070 C   0  0  0  0  0  0  0  0  0  0  0  0
  186.1040  178.8190  141.4150 N   0  0  0  0  0  0  0  0  0  0  0  0
  186.8780  178.0150  139.2660 C   0  0  1  0  0  3  0  0  0  0  0  0
  189.4350  176.9980  135.0020 C   0  0  0  0  0  2  0  0  0  0  0  0
  190.7950  176.9340  145.2920 C   0  0  0  0  0  3  0  0  0  0  0  0
  188.3410  176.9190  143.8680 C   0  0  2  0  0  3  0  0  0  0  0  0
  189.8320  177.1670  136.4450 C   0  0  0  0  0  3  0  0  0  0  0  0
  190.7910  177.1870  143.8390 C   0  0  0  0  0  3  0  0  0  0  0  0
  185.8280  178.7250  140.0240 N   0  0  0  0  0  0  0  0  0  0  0  0
  186.6930  178.2470  137.8280 N   0  0  0  0  0  0  0  0  0  0  0  0
  189.6010  177.5980  141.7480 C   0  0  0  0  0  3  0  0  0  0  0  0
  190.5130  177.5020  139.1510 O   0  0  0  0  0  0  0  0  0  0  0  0
  187.3420  178.1610  135.5550 N   0  0  0  0  0  0  0  0  0  0  0  0
  188.3140  178.3550  139.7320 C   0  0  1  0  0  3  0  0  0  0  0  0
  187.6030  177.9640  136.9480 C   0  0  0  0  0  0  0  0  0  0  0  0
  184.4100  179.3860  143.0840 C   0  0  0  0  0  2  0  0  0  0  0  0
  185.2980  179.7520  142.1640 C   0  0  0  0  0  3  0  0  0  0  0  0
  183.5310  178.7770  139.2280 C   0  0  0  0  0  1  0  0  0  0  0  0
  184.6090  177.9360  139.8820 C   0  0  0  0  0  2  0  0  0  0  0  0
  189.6580  176.7350  147.3460 O   0  0  0  0  0  0  0  0  0  0  0  0
  188.4530  176.6370  148.0920 C   0  0  0  0  0  2  0  0  0  0  0  0
  188.2280  177.8700  148.8270 N   0  0  0  0  0  0  0  0  0  0  0  0
  187.2310  178.6280  148.0940 C   0  0  0  0  0  1  0  0  0  0  0  0
  189.4640  178.6280  148.7520 C   0  0  0  0  0  1  0  0  0  0  0  0
  1 28  1  0  0  0  0
  2 19  2  0  0  0  0
  2  9  1  0  0  0  0
  3 20  2  0  0  0  0
  4  3  1  0  0  0  0
  5 16  2  0  0  0  0
  5 14  1  0  0  0  0
  7 12  1  0  0  0  0
  7 21  2  0  0  0  0
  8  1  1  0  0  0  0
  9  6  2  0  0  0  0
 10  9  1  0  0  0  0
 10 25  1  0  0  0  0
 11 18  1  6  0  0  0
 11 22  1  0  0  0  0
 11 17  1  0  0  0  0
 12 15  1  0  0  0  0
 13  1  2  0  0  0  0
 14  6  1  6  0  0  0
 14  8  1  0  0  0  0
 15  4  2  0  0  0  0
 16 13  1  0  0  0  0
 17 10  1  0  0  0  0
 19  5  1  0  0  0  0
 21 23  1  0  0  0  0
 22  3  1  6  0  0  0
 22  2  1  0  0  0  0
 23  4  1  0  0  0  0
 23 18  2  0  0  0  0
 25 24  2  0  0  0  0
 26 27  1  0  0  0  0
 27 17  1  0  0  0  0
 28 29  1  0  0  0  0
 29 30  1  0  0  0  0
 31 30  1  0  0  0  0
 32 30  1  0  0  0  0
M  END
>  <MODEL>
7

>  <REMARK>
 VINA RESULT:      -7.1      3.186      7.950
  Name = 
  5 active torsions:
  status: ('A' for Active; 'I' for Inactive)
    1  A    between atoms: N_1  and  C_10
    2  A    between atoms: C_2  and  O_24
    3  A    between atoms: C_10  and  O_24
    4  A    between atoms: C_13  and  N_15
    5  A    between atoms: C_25  and  N_26
                            x       y       z     vdW  Elec       q    Type
                         _______ _______ _______ _____ _____    ______ ____

>  <TORSDO>
F 5

$$$$
=
 OpenBabel11052417043D

 32 36  0  0  1  0  0  0  0  0999 V2000
  189.2850  177.5650  147.1860 C   0  0  0  0  0  0  0  0  0  0  0  0
  186.8170  177.8400  142.7930 C   0  0  0  0  0  0  0  0  0  0  0  0
  184.4970  178.2920  141.8080 C   0  0  0  0  0  0  0  0  0  0  0  0
  183.7720  178.8350  140.6480 C   0  0  0  0  0  0  0  0  0  0  0  0
  187.3410  177.8000  145.1670 C   0  0  0  0  0  0  0  0  0  0  0  0
  189.1700  177.9510  143.4910 C   0  0  0  0  0  3  0  0  0  0  0  0
  182.4140  179.3620  138.2120 C   0  0  0  0  0  3  0  0  0  0  0  0
  189.6730  177.8070  145.8580 O   0  0  0  0  0  0  0  0  0  0  0  0
  188.2680  177.7820  142.5070 C   0  0  0  0  0  0  0  0  0  0  0  0
  188.6730  177.5030  141.1470 N   0  0  0  0  0  0  0  0  0  0  0  0
  186.5910  178.5120  140.4340 C   0  0  1  0  0  3  0  0  0  0  0  0
  181.7490  179.7250  139.5160 C   0  0  0  0  0  2  0  0  0  0  0  0
  187.9910  177.4100  147.4800 C   0  0  0  0  0  3  0  0  0  0  0  0
  188.7410  178.2900  144.8890 C   0  0  2  0  0  3  0  0  0  0  0  0
  182.4830  179.1820  140.7150 C   0  0  0  0  0  3  0  0  0  0  0  0
  186.9830  177.4600  146.4050 C   0  0  0  0  0  3  0  0  0  0  0  0
  187.8920  177.9350  140.0420 N   0  0  0  0  0  0  0  0  0  0  0  0
  185.7220  178.6220  139.2570 N   0  0  0  0  0  0  0  0  0  0  0  0
  186.3780  177.7690  144.0600 C   0  0  0  0  0  3  0  0  0  0  0  0
  183.9050  178.1630  142.9140 O   0  0  0  0  0  0  0  0  0  0  0  0
  183.6630  179.0040  138.1550 N   0  0  0  0  0  0  0  0  0  0  0  0
  185.9040  177.7560  141.5970 C   0  0  1  0  0  3  0  0  0  0  0  0
  184.4480  178.8510  139.3420 C   0  0  0  0  0  0  0  0  0  0  0  0
  191.0520  177.0980  140.7580 C   0  0  0  0  0  2  0  0  0  0  0  0
  189.8010  176.6570  140.8400 C   0  0  0  0  0  3  0  0  0  0  0  0
  188.9970  178.5770  137.9730 C   0  0  0  0  0  1  0  0  0  0  0  0
  188.6370  179.0020  139.3820 C   0  0  0  0  0  2  0  0  0  0  0  0
  190.2350  177.4590  148.1980 O   0  0  0  0  0  0  0  0  0  0  0  0
  191.6110  177.2700  147.9000 C   0  0  0  0  0  2  0  0  0  0  0  0
  191.9120  175.8490  147.8500 N   0  0  0  0  0  0  0  0  0  0  0  0
  193.1240  175.6420  148.6220 C   0  0  0  0  0  1  0  0  0  0  0  0
  192.2430  175.5440  146.4700 C   0  0  0  0  0  1  0  0  0  0  0  0
  1 13  2  0  0  0  0
  1 28  1  0  0  0  0
  2 19  2  0  0  0  0
  3 20  2  0  0  0  0
  4 15  2  0  0  0  0
  4  3  1  0  0  0  0
  5 16  2  0  0  0  0
  7 12  1  0  0  0  0
  8  1  1  0  0  0  0
  9  2  1  0  0  0  0
  9  6  2  0  0  0  0
 10  9  1  0  0  0  0
 11 18  1  6  0  0  0
 11 22  1  0  0  0  0
 12 15  1  0  0  0  0
 14  6  1  6  0  0  0
 14  5  1  0  0  0  0
 14  8  1  0  0  0  0
 16 13  1  0  0  0  0
 17 11  1  0  0  0  0
 17 10  1  0  0  0  0
 18 23  2  0  0  0  0
 19  5  1  0  0  0  0
 21  7  2  0  0  0  0
 21 23  1  0  0  0  0
 22  3  1  1  0  0  0
 22  2  1  0  0  0  0
 23  4  1  0  0  0  0
 24 25  2  0  0  0  0
 25 10  1  0  0  0  0
 26 27  1  0  0  0  0
 27 17  1  0  0  0  0
 29 28  1  0  0  0  0
 30 29  1  0  0  0  0
 30 31  1  0  0  0  0
 32 30  1  0  0  0  0
M  END
>  <MODEL>
8

>  <REMARK>
 VINA RESULT:      -6.9      3.722      6.705
  Name = 
  5 active torsions:
  status: ('A' for Active; 'I' for Inactive)
    1  A    between atoms: N_1  and  C_10
    2  A    between atoms: C_2  and  O_24
    3  A    between atoms: C_10  and  O_24
    4  A    between atoms: C_13  and  N_15
    5  A    between atoms: C_25  and  N_26
                            x       y       z     vdW  Elec       q    Type
                         _______ _______ _______ _____ _____    ______ ____

>  <TORSDO>
F 5

$$$$
=
 OpenBabel11052417043D

 32 36  0  0  1  0  0  0  0  0999 V2000
  182.6510  178.9540  138.3120 C   0  0  0  0  0  0  0  0  0  0  0  0
  186.9630  178.4040  140.8750 C   0  0  0  0  0  0  0  0  0  0  0  0
  187.8740  178.1070  143.2500 C   0  0  0  0  0  0  0  0  0  0  0  0
  188.9500  177.5070  144.0550 C   0  0  0  0  0  0  0  0  0  0  0  0
  184.6170  178.6910  140.3060 C   0  0  0  0  0  0  0  0  0  0  0  0
  186.2630  178.1060  138.5380 C   0  0  0  0  0  3  0  0  0  0  0  0
  191.2920  176.8330  145.5090 C   0  0  0  0  0  3  0  0  0  0  0  0
  183.9370  178.4970  137.9790 O   0  0  0  0  0  0  0  0  0  0  0  0
  187.2580  178.2520  139.4320 C   0  0  0  0  0  0  0  0  0  0  0  0
  188.6440  178.3000  139.0220 N   0  0  0  0  0  0  0  0  0  0  0  0
  189.2120  177.4620  141.2210 C   0  0  1  0  0  3  0  0  0  0  0  0
  189.9490  176.7250  146.1880 C   0  0  0  0  0  2  0  0  0  0  0  0
  182.3760  179.2990  139.5730 C   0  0  0  0  0  3  0  0  0  0  0  0
  184.8310  178.0050  138.9790 C   0  0  2  0  0  3  0  0  0  0  0  0
  188.8340  177.3290  145.3740 C   0  0  0  0  0  3  0  0  0  0  0  0
  183.4330  179.2300  140.5990 C   0  0  0  0  0  3  0  0  0  0  0  0
  189.6810  177.8240  139.8690 N   0  0  0  0  0  0  0  0  0  0  0  0
  190.3630  177.3030  142.1190 N   0  0  0  0  0  0  0  0  0  0  0  0
  185.7150  178.6920  141.2790 C   0  0  0  0  0  3  0  0  0  0  0  0
  186.7920  178.4490  143.8020 O   0  0  0  0  0  0  0  0  0  0  0  0
  191.3990  177.0290  144.2280 N   0  0  0  0  0  0  0  0  0  0  0  0
  188.1580  178.4400  141.7930 C   0  0  1  0  0  3  0  0  0  0  0  0
  190.2450  177.2410  143.4090 C   0  0  0  0  0  0  0  0  0  0  0  0
  188.8850  178.4480  136.5940 C   0  0  0  0  0  2  0  0  0  0  0  0
  189.0620  178.9590  137.8080 C   0  0  0  0  0  3  0  0  0  0  0  0
  191.6790  176.7500  138.9940 C   0  0  0  0  0  1  0  0  0  0  0  0
  190.1960  176.5990  139.2670 C   0  0  0  0  0  2  0  0  0  0  0  0
  181.6650  179.0780  137.3370 O   0  0  0  0  0  0  0  0  0  0  0  0
  181.0400  180.3260  137.0740 C   0  0  0  0  0  2  0  0  0  0  0  0
  180.2710  180.2400  135.8440 N   0  0  0  0  0  0  0  0  0  0  0  0
  180.9010  179.2260  135.0170 C   0  0  0  0  0  1  0  0  0  0  0  0
  180.4470  181.5050  135.1550 C   0  0  0  0  0  1  0  0  0  0  0  0
  1 13  2  0  0  0  0
  2 19  2  0  0  0  0
  3 20  2  0  0  0  0
  3  4  1  0  0  0  0
  4 15  2  0  0  0  0
  5 16  2  0  0  0  0
  5 19  1  0  0  0  0
  6  9  2  0  0  0  0
  7 12  1  0  0  0  0
  8  1  1  0  0  0  0
  8 14  1  0  0  0  0
  9  2  1  0  0  0  0
 10  9  1  0  0  0  0
 10 17  1  0  0  0  0
 11 22  1  0  0  0  0
 11 18  1  1  0  0  0
 13 16  1  0  0  0  0
 14  6  1  6  0  0  0
 14  5  1  0  0  0  0
 15 12  1  0  0  0  0
 17 11  1  0  0  0  0
 18 23  2  0  0  0  0
 21  7  2  0  0  0  0
 22  2  1  6  0  0  0
 22  3  1  0  0  0  0
 23  4  1  0  0  0  0
 23 21  1  0  0  0  0
 24 25  2  0  0  0  0
 25 10  1  0  0  0  0
 26 27  1  0  0  0  0
 27 17  1  0  0  0  0
 28  1  1  0  0  0  0
 29 28  1  0  0  0  0
 30 29  1  0  0  0  0
 31 30  1  0  0  0  0
 32 30  1  0  0  0  0
M  END
>  <MODEL>
9

>  <REMARK>
 VINA RESULT:      -6.8      3.462      7.900
  Name = 
  5 active torsions:
  status: ('A' for Active; 'I' for Inactive)
    1  A    between atoms: N_1  and  C_10
    2  A    between atoms: C_2  and  O_24
    3  A    between atoms: C_10  and  O_24
    4  A    between atoms: C_13  and  N_15
    5  A    between atoms: C_25  and  N_26
                            x       y       z     vdW  Elec       q    Type
                         _______ _______ _______ _____ _____    ______ ____

>  <TORSDO>
F 5

$$$$
