=
 OpenBabel11052412423D

 25 28  0  0  1  0  0  0  0  0999 V2000
  187.1260  177.9670  145.6550 C   0  0  0  0  0  0  0  0  0  0  0  0
  188.3870  177.5020  145.2860 C   0  0  2  0  0  3  0  0  0  0  0  0
  187.8070  178.1970  147.9500 C   0  0  0  0  0  3  0  0  0  0  0  0
  185.9680  178.1920  144.9510 C   0  0  0  0  0  0  0  0  0  0  0  0
  183.4020  178.8310  144.1370 C   0  0  0  0  0  3  0  0  0  0  0  0
  189.0460  177.7400  147.5990 N   0  0  0  0  0  0  0  0  0  0  0  0
  185.0490  178.6560  145.8710 C   0  0  0  0  0  0  0  0  0  0  0  0
  183.7500  178.9850  145.4910 C   0  0  0  0  0  3  0  0  0  0  0  0
  190.6380  176.9240  145.9790 C   0  0  0  0  0  0  0  0  0  0  0  0
  191.6440  176.7930  146.9790 N   0  0  0  0  0  1  0  0  0  0  0  0
  188.7110  177.1470  143.9750 C   0  0  0  0  0  3  0  0  0  0  0  0
  184.3460  178.3550  143.2010 C   0  0  0  0  0  3  0  0  0  0  0  0
  186.8370  178.3090  146.9580 C   0  0  0  0  0  0  0  0  0  0  0  0
  185.5640  178.7370  147.1200 N   0  0  0  0  0  0  0  0  0  0  0  0
  190.9210  176.5840  144.6910 N   0  0  0  0  0  0  0  0  0  0  0  0
  185.6520  178.0270  143.6030 C   0  0  0  0  0  3  0  0  0  0  0  0
  190.0010  176.6920  143.6940 C   0  0  0  0  0  0  0  0  0  0  0  0
  189.3600  177.3930  146.3100 C   0  0  0  0  0  0  0  0  0  0  0  0
  190.3540  176.2800  142.3080 C   0  0  0  0  0  2  0  0  0  0  0  0
  190.0720  177.3720  141.3770 N   0  0  0  0  0  0  0  0  0  0  0  0
  188.6260  177.4010  141.1780 C   0  0  0  0  0  1  0  0  0  0  0  0
  190.1010  178.0080  139.0030 C   0  0  0  0  0  1  0  0  0  0  0  0
  190.7690  177.1750  140.0870 C   0  0  0  0  0  0  0  0  0  0  0  0
  190.6760  175.8340  139.7040 O   0  0  0  0  0  1  0  0  0  0  0  0
  192.2470  177.5600  140.1530 C   0  0  0  0  0  1  0  0  0  0  0  0
  1 13  1  0  0  0  0
  2 11  1  1  0  0  0
  2  1  1  0  0  0  0
  2 18  1  0  0  0  0
  4  1  2  0  0  0  0
  4  7  1  0  0  0  0
  5  8  2  0  0  0  0
  6  3  1  0  0  0  0
  7 14  2  0  0  0  0
  8  7  1  0  0  0  0
  9 18  1  0  0  0  0
  9 10  1  0  0  0  0
 12 16  2  0  0  0  0
 12  5  1  0  0  0  0
 13 14  1  0  0  0  0
 13  3  2  0  0  0  0
 15  9  2  0  0  0  0
 16  4  1  0  0  0  0
 17 11  2  0  0  0  0
 17 15  1  0  0  0  0
 18  6  2  0  0  0  0
 19 17  1  0  0  0  0
 20 19  1  0  0  0  0
 21 20  1  0  0  0  0
 22 23  1  0  0  0  0
 23 25  1  0  0  0  0
 23 20  1  0  0  0  0
 24 23  1  0  0  0  0
M  END
>  <MODEL>
1

>  <REMARK>
 VINA RESULT:     -10.4      0.000      0.000
  Name = 
  3 active torsions:
  status: ('A' for Active; 'I' for Inactive)
    1  A    between atoms: C_6  and  N_15
    2  A    between atoms: C_6  and  C_23
    3  A    between atoms: C_7  and  N_15
                            x       y       z     vdW  Elec       q    Type
                         _______ _______ _______ _____ _____    ______ ____

>  <TORSDO>
F 3

$$$$
=
 OpenBabel11052412423D

 25 28  0  0  0  0  0  0  0  0999 V2000
  187.9860  177.7310  144.4190 C   0  0  0  0  0  0  0  0  0  0  0  0
  187.6560  178.0140  143.0940 C   0  0  0  0  0  0  0  0  0  0  0  0
  185.7260  178.1350  145.1390 C   0  0  0  0  0  3  0  0  0  0  0  0
  189.1580  177.3680  145.0350 C   0  0  0  0  0  0  0  0  0  0  0  0
  191.1350  176.6410  146.8280 C   0  0  0  0  0  3  0  0  0  0  0  0
  185.3930  178.4160  143.8430 N   0  0  0  0  0  0  0  0  0  0  0  0
  188.8550  177.2280  146.3740 C   0  0  0  0  0  0  0  0  0  0  0  0
  189.8300  176.8630  147.3010 C   0  0  0  0  0  3  0  0  0  0  0  0
  185.9420  178.6630  141.5060 C   0  0  0  0  0  0  0  0  0  0  0  0
  184.6010  179.0270  141.1920 N   0  0  0  0  0  1  0  0  0  0  0  0
  188.5860  177.9650  142.0540 C   0  0  0  0  0  2  0  0  0  0  0  0
  191.4400  176.7860  145.4570 C   0  0  0  0  0  3  0  0  0  0  0  0
  187.0440  177.7890  145.4230 C   0  0  0  0  0  0  0  0  0  0  0  0
  187.5530  177.4830  146.6390 N   0  0  0  0  0  0  0  0  0  0  0  0
  186.8730  178.6080  140.5150 N   0  0  0  0  0  0  0  0  0  0  0  0
  190.4430  177.1560  144.5370 C   0  0  0  0  0  3  0  0  0  0  0  0
  188.1680  178.2620  140.7560 C   0  0  0  0  0  0  0  0  0  0  0  0
  186.3100  178.3660  142.8250 C   0  0  0  0  0  0  0  0  0  0  0  0
  189.1530  178.2460  139.6400 C   0  0  0  0  0  2  0  0  0  0  0  0
  188.6120  177.4920  138.5100 N   0  0  0  0  0  0  0  0  0  0  0  0
  189.5370  176.3930  138.2470 C   0  0  0  0  0  1  0  0  0  0  0  0
  189.3020  177.7810  136.1680 C   0  0  0  0  0  1  0  0  0  0  0  0
  188.4700  178.3470  137.3100 C   0  0  0  0  0  0  0  0  0  0  0  0
  188.9520  179.6280  137.5870 O   0  0  0  0  0  1  0  0  0  0  0  0
  187.0200  178.4630  136.8410 C   0  0  0  0  0  1  0  0  0  0  0  0
  1  4  1  0  0  0  0
  1 13  1  0  0  0  0
  2  1  2  0  0  0  0
  3 13  1  0  0  0  0
  4  7  1  0  0  0  0
  5  8  1  0  0  0  0
  6  3  2  0  0  0  0
  7 14  1  0  0  0  0
  7  8  2  0  0  0  0
  9 18  2  0  0  0  0
 10  9  1  0  0  0  0
 11  2  1  0  0  0  0
 12  5  2  0  0  0  0
 13 14  2  0  0  0  0
 15 17  2  0  0  0  0
 15  9  1  0  0  0  0
 16  4  2  0  0  0  0
 16 12  1  0  0  0  0
 17 11  1  0  0  0  0
 18  2  1  0  0  0  0
 18  6  1  0  0  0  0
 19 17  1  0  0  0  0
 20 19  1  0  0  0  0
 21 20  1  0  0  0  0
 22 23  1  0  0  0  0
 23 24  1  0  0  0  0
 23 20  1  0  0  0  0
 25 23  1  0  0  0  0
M  END
>  <MODEL>
2

>  <REMARK>
 VINA RESULT:     -10.1      2.389      4.951
  Name = 
  3 active torsions:
  status: ('A' for Active; 'I' for Inactive)
    1  A    between atoms: C_6  and  N_15
    2  A    between atoms: C_6  and  C_23
    3  A    between atoms: C_7  and  N_15
                            x       y       z     vdW  Elec       q    Type
                         _______ _______ _______ _____ _____    ______ ____

>  <TORSDO>
F 3

$$$$
=
 OpenBabel11052412423D

 25 28  0  0  0  0  0  0  0  0999 V2000
  186.7370  178.0740  144.2410 C   0  0  0  0  0  0  0  0  0  0  0  0
  186.6810  178.2930  142.8650 C   0  0  0  0  0  0  0  0  0  0  0  0
  184.4090  178.6240  144.4930 C   0  0  0  0  0  3  0  0  0  0  0  0
  187.7500  177.6940  145.0880 C   0  0  0  0  0  0  0  0  0  0  0  0
  189.3080  176.9830  147.2610 C   0  0  0  0  0  3  0  0  0  0  0  0
  184.3430  178.8430  143.1460 N   0  0  0  0  0  0  0  0  0  0  0  0
  187.1920  177.6470  146.3490 C   0  0  0  0  0  0  0  0  0  0  0  0
  187.9510  177.2930  147.4620 C   0  0  0  0  0  3  0  0  0  0  0  0
  185.3380  178.9260  140.9480 C   0  0  0  0  0  0  0  0  0  0  0  0
  184.1030  179.3330  140.3650 N   0  0  0  0  0  1  0  0  0  0  0  0
  187.7860  178.1400  142.0270 C   0  0  0  0  0  2  0  0  0  0  0  0
  189.8730  177.0330  145.9680 C   0  0  0  0  0  3  0  0  0  0  0  0
  185.6280  178.2340  145.0420 C   0  0  0  0  0  0  0  0  0  0  0  0
  185.8790  177.9770  146.3460 N   0  0  0  0  0  0  0  0  0  0  0  0
  186.4350  178.7690  140.1580 N   0  0  0  0  0  0  0  0  0  0  0  0
  189.0910  177.3940  144.8570 C   0  0  0  0  0  3  0  0  0  0  0  0
  187.6390  178.3790  140.6590 C   0  0  0  0  0  0  0  0  0  0  0  0
  185.4320  178.6910  142.3260 C   0  0  0  0  0  0  0  0  0  0  0  0
  188.8150  178.2510  139.7550 C   0  0  0  0  0  2  0  0  0  0  0  0
  188.4520  177.4710  138.5740 N   0  0  0  0  0  0  0  0  0  0  0  0
  189.4100  176.3730  138.4760 C   0  0  0  0  0  1  0  0  0  0  0  0
  189.4260  177.6750  136.3260 C   0  0  0  0  0  1  0  0  0  0  0  0
  188.4870  178.2990  137.3480 C   0  0  0  0  0  0  0  0  0  0  0  0
  188.9820  179.5690  137.6540 O   0  0  0  0  0  1  0  0  0  0  0  0
  187.1080  178.4550  136.7070 C   0  0  0  0  0  1  0  0  0  0  0  0
  1 13  1  0  0  0  0
  1  4  1  0  0  0  0
  2  1  2  0  0  0  0
  3 13  1  0  0  0  0
  4  7  1  0  0  0  0
  5  8  1  0  0  0  0
  6  3  2  0  0  0  0
  7  8  2  0  0  0  0
  9 18  2  0  0  0  0
 10  9  1  0  0  0  0
 11  2  1  0  0  0  0
 12  5  2  0  0  0  0
 13 14  2  0  0  0  0
 14  7  1  0  0  0  0
 15 17  2  0  0  0  0
 15  9  1  0  0  0  0
 16  4  2  0  0  0  0
 16 12  1  0  0  0  0
 17 11  1  0  0  0  0
 18  2  1  0  0  0  0
 18  6  1  0  0  0  0
 19 17  1  0  0  0  0
 20 19  1  0  0  0  0
 21 20  1  0  0  0  0
 22 23  1  0  0  0  0
 23 24  1  0  0  0  0
 23 20  1  0  0  0  0
 25 23  1  0  0  0  0
M  END
>  <MODEL>
3

>  <REMARK>
 VINA RESULT:     -10.1      2.543      4.901
  Name = 
  3 active torsions:
  status: ('A' for Active; 'I' for Inactive)
    1  A    between atoms: C_6  and  N_15
    2  A    between atoms: C_6  and  C_23
    3  A    between atoms: C_7  and  N_15
                            x       y       z     vdW  Elec       q    Type
                         _______ _______ _______ _____ _____    ______ ____

>  <TORSDO>
F 3

$$$$
=
 OpenBabel11052412423D

 25 28  0  0  1  0  0  0  0  0999 V2000
  185.9860  178.5030  142.2430 C   0  0  0  0  0  0  0  0  0  0  0  0
  187.2280  178.2910  141.6470 C   0  0  0  0  0  0  0  0  0  0  0  0
  184.9420  178.8480  140.1040 C   0  0  0  0  0  3  0  0  0  0  0  0
  185.5630  178.5060  143.5500 C   0  0  0  0  0  0  0  0  0  0  0  0
  184.1140  178.6530  145.9020 C   0  0  0  0  0  3  0  0  0  0  0  0
  186.1560  178.6450  139.5100 N   0  0  0  0  0  0  0  0  0  0  0  0
  184.2100  178.7810  143.5100 C   0  0  1  0  0  3  0  0  0  0  0  0
  183.4550  178.8610  144.6770 C   0  0  0  0  0  3  0  0  0  0  0  0
  188.5200  178.1710  139.5990 C   0  0  0  0  0  0  0  0  0  0  0  0
  188.6270  178.2480  138.1800 N   0  0  0  0  0  1  0  0  0  0  0  0
  188.3830  178.0140  142.3800 C   0  0  0  0  0  3  0  0  0  0  0  0
  185.4970  178.3730  145.9370 C   0  0  0  0  0  3  0  0  0  0  0  0
  184.8640  178.7750  141.4920 C   0  0  0  0  0  0  0  0  0  0  0  0
  183.7550  178.9510  142.2470 N   0  0  0  0  0  0  0  0  0  0  0  0
  189.6290  177.9030  140.3430 N   0  0  0  0  0  0  0  0  0  0  0  0
  186.2440  178.2970  144.7480 C   0  0  0  0  0  3  0  0  0  0  0  0
  189.5860  177.8140  141.7000 C   0  0  0  0  0  0  0  0  0  0  0  0
  187.2880  178.3720  140.2340 C   0  0  0  0  0  0  0  0  0  0  0  0
  190.8340  177.5480  142.4680 C   0  0  0  0  0  2  0  0  0  0  0  0
  190.7100  178.0880  143.8210 N   0  0  0  0  0  0  0  0  0  0  0  0
  191.6950  179.1590  143.9460 C   0  0  0  0  0  1  0  0  0  0  0  0
  189.6550  176.7400  145.5860 C   0  0  0  0  0  1  0  0  0  0  0  0
  190.9480  177.0440  144.8420 C   0  0  0  0  0  0  0  0  0  0  0  0
  191.8740  177.5080  145.7800 O   0  0  0  0  0  1  0  0  0  0  0  0
  191.4780  175.7430  144.2390 C   0  0  0  0  0  1  0  0  0  0  0  0
  1  4  2  0  0  0  0
  2  1  1  0  0  0  0
  2 11  1  0  0  0  0
  3 13  1  0  0  0  0
  4 16  1  0  0  0  0
  5 12  1  0  0  0  0
  6  3  2  0  0  0  0
  6 18  1  0  0  0  0
  7  4  1  0  0  0  0
  7  8  1  1  0  0  0
  8  5  2  0  0  0  0
  9 18  1  0  0  0  0
  9 15  2  0  0  0  0
 10  9  1  0  0  0  0
 13  1  1  0  0  0  0
 13 14  2  0  0  0  0
 14  7  1  0  0  0  0
 15 17  1  0  0  0  0
 16 12  2  0  0  0  0
 17 11  2  0  0  0  0
 17 19  1  0  0  0  0
 18  2  2  0  0  0  0
 19 20  1  0  0  0  0
 20 21  1  0  0  0  0
 20 23  1  0  0  0  0
 23 22  1  0  0  0  0
 23 24  1  0  0  0  0
 25 23  1  0  0  0  0
M  END
>  <MODEL>
4

>  <REMARK>
 VINA RESULT:     -10.0      2.475      5.000
  Name = 
  3 active torsions:
  status: ('A' for Active; 'I' for Inactive)
    1  A    between atoms: C_6  and  N_15
    2  A    between atoms: C_6  and  C_23
    3  A    between atoms: C_7  and  N_15
                            x       y       z     vdW  Elec       q    Type
                         _______ _______ _______ _____ _____    ______ ____

>  <TORSDO>
F 3

$$$$
=
 OpenBabel11052412423D

 25 28  0  0  0  0  0  0  0  0999 V2000
  187.2900  177.8980  144.0420 C   0  0  0  0  0  0  0  0  0  0  0  0
  188.2610  177.7930  143.0470 C   0  0  0  0  0  0  0  0  0  0  0  0
  188.8260  177.1160  145.7190 C   0  0  0  0  0  3  0  0  0  0  0  0
  185.9750  178.2950  144.0290 C   0  0  0  0  0  0  0  0  0  0  0  0
  183.3650  178.9580  144.6610 C   0  0  0  0  0  3  0  0  0  0  0  0
  189.7850  177.0070  144.7510 N   0  0  0  0  0  0  0  0  0  0  0  0
  185.5320  178.1820  145.3310 C   0  0  0  0  0  0  0  0  0  0  0  0
  184.2230  178.5080  145.6800 C   0  0  0  0  0  3  0  0  0  0  0  0
  190.5410  177.2050  142.4680 C   0  0  0  0  0  0  0  0  0  0  0  0
  191.8400  176.7370  142.8180 N   0  0  0  0  0  1  0  0  0  0  0  0
  188.0160  178.1180  141.7120 C   0  0  0  0  0  2  0  0  0  0  0  0
  183.8230  179.0720  143.3300 C   0  0  0  0  0  3  0  0  0  0  0  0
  187.5620  177.5670  145.3510 C   0  0  0  0  0  0  0  0  0  0  0  0
  186.4960  177.7340  146.1680 N   0  0  0  0  0  0  0  0  0  0  0  0
  190.2700  177.5300  141.1730 N   0  0  0  0  0  0  0  0  0  0  0  0
  185.1480  178.7370  142.9980 C   0  0  0  0  0  3  0  0  0  0  0  0
  189.0490  177.9850  140.7810 C   0  0  0  0  0  0  0  0  0  0  0  0
  189.5400  177.3290  143.4410 C   0  0  0  0  0  0  0  0  0  0  0  0
  188.7970  178.2980  139.3470 C   0  0  0  0  0  2  0  0  0  0  0  0
  187.9440  177.2690  138.7560 N   0  0  0  0  0  0  0  0  0  0  0  0
  188.8100  176.3970  137.9680 C   0  0  0  0  0  1  0  0  0  0  0  0
  187.5280  178.7370  136.8280 C   0  0  0  0  0  1  0  0  0  0  0  0
  186.8930  177.8640  137.9010 C   0  0  0  0  0  0  0  0  0  0  0  0
  186.0670  178.6830  138.6750 O   0  0  0  0  0  1  0  0  0  0  0  0
  186.0260  176.8080  137.2160 C   0  0  0  0  0  1  0  0  0  0  0  0
  1 13  1  0  0  0  0
  2 18  1  0  0  0  0
  2  1  2  0  0  0  0
  4  1  1  0  0  0  0
  4  7  1  0  0  0  0
  5  8  1  0  0  0  0
  6  3  2  0  0  0  0
  7  8  2  0  0  0  0
  7 14  1  0  0  0  0
  9 10  1  0  0  0  0
  9 18  2  0  0  0  0
 11  2  1  0  0  0  0
 12  5  2  0  0  0  0
 13  3  1  0  0  0  0
 13 14  2  0  0  0  0
 15  9  1  0  0  0  0
 16 12  1  0  0  0  0
 16  4  2  0  0  0  0
 17 15  2  0  0  0  0
 17 11  1  0  0  0  0
 18  6  1  0  0  0  0
 19 17  1  0  0  0  0
 20 19  1  0  0  0  0
 21 20  1  0  0  0  0
 22 23  1  0  0  0  0
 23 24  1  0  0  0  0
 23 20  1  0  0  0  0
 25 23  1  0  0  0  0
M  END
>  <MODEL>
5

>  <REMARK>
 VINA RESULT:      -9.6      2.136      3.179
  Name = 
  3 active torsions:
  status: ('A' for Active; 'I' for Inactive)
    1  A    between atoms: C_6  and  N_15
    2  A    between atoms: C_6  and  C_23
    3  A    between atoms: C_7  and  N_15
                            x       y       z     vdW  Elec       q    Type
                         _______ _______ _______ _____ _____    ______ ____

>  <TORSDO>
F 3

$$$$
=
 OpenBabel11052412423D

 25 28  0  0  0  0  0  0  0  0999 V2000
  187.7510  177.8690  144.3800 C   0  0  0  0  0  0  0  0  0  0  0  0
  188.5000  177.7410  143.2100 C   0  0  0  0  0  0  0  0  0  0  0  0
  189.6840  177.4320  145.7440 C   0  0  0  0  0  3  0  0  0  0  0  0
  186.4260  178.1390  144.6190 C   0  0  0  0  0  0  0  0  0  0  0  0
  183.9460  178.6250  145.7430 C   0  0  0  0  0  3  0  0  0  0  0  0
  190.4250  177.3020  144.6040 N   0  0  0  0  0  0  0  0  0  0  0  0
  186.2800  178.1360  145.9910 C   0  0  0  0  0  0  0  0  0  0  0  0
  185.0440  178.3770  146.5870 C   0  0  0  0  0  3  0  0  0  0  0  0
  190.6610  177.3050  142.2020 C   0  0  0  0  0  0  0  0  0  0  0  0
  192.0500  177.0030  142.3010 N   0  0  0  0  0  1  0  0  0  0  0  0
  187.9470  177.8870  141.9370 C   0  0  0  0  0  2  0  0  0  0  0  0
  184.1010  178.6270  144.3400 C   0  0  0  0  0  3  0  0  0  0  0  0
  188.3270  177.7190  145.6220 C   0  0  0  0  0  0  0  0  0  0  0  0
  187.4420  177.8780  146.6340 N   0  0  0  0  0  0  0  0  0  0  0  0
  190.0910  177.4520  140.9740 N   0  0  0  0  0  0  0  0  0  0  0  0
  185.3570  178.3800  143.7580 C   0  0  0  0  0  3  0  0  0  0  0  0
  188.7710  177.7440  140.8190 C   0  0  0  0  0  0  0  0  0  0  0  0
  189.8780  177.4470  143.3550 C   0  0  0  0  0  0  0  0  0  0  0  0
  188.1910  177.8650  139.4530 C   0  0  0  0  0  2  0  0  0  0  0  0
  189.2600  177.8520  138.4560 N   0  0  0  0  0  0  0  0  0  0  0  0
  189.0700  179.0270  137.6100 C   0  0  0  0  0  1  0  0  0  0  0  0
  187.8070  176.0680  137.5910 C   0  0  0  0  0  1  0  0  0  0  0  0
  189.2260  176.6170  137.6420 C   0  0  0  0  0  0  0  0  0  0  0  0
  190.0330  175.6430  138.2340 O   0  0  0  0  0  1  0  0  0  0  0  0
  189.7080  176.8450  136.2090 C   0  0  0  0  0  1  0  0  0  0  0  0
  1  4  1  0  0  0  0
  1 13  1  0  0  0  0
  2 18  1  0  0  0  0
  2  1  2  0  0  0  0
  4  7  1  0  0  0  0
  5  8  1  0  0  0  0
  6  3  2  0  0  0  0
  7  8  2  0  0  0  0
  7 14  1  0  0  0  0
  9 10  1  0  0  0  0
  9 18  2  0  0  0  0
 11  2  1  0  0  0  0
 12  5  2  0  0  0  0
 13  3  1  0  0  0  0
 13 14  2  0  0  0  0
 15  9  1  0  0  0  0
 16 12  1  0  0  0  0
 16  4  2  0  0  0  0
 17 15  2  0  0  0  0
 17 11  1  0  0  0  0
 18  6  1  0  0  0  0
 19 17  1  0  0  0  0
 20 19  1  0  0  0  0
 21 20  1  0  0  0  0
 22 23  1  0  0  0  0
 23 24  1  0  0  0  0
 23 20  1  0  0  0  0
 25 23  1  0  0  0  0
M  END
>  <MODEL>
6

>  <REMARK>
 VINA RESULT:      -9.6      1.586      2.880
  Name = 
  3 active torsions:
  status: ('A' for Active; 'I' for Inactive)
    1  A    between atoms: C_6  and  N_15
    2  A    between atoms: C_6  and  C_23
    3  A    between atoms: C_7  and  N_15
                            x       y       z     vdW  Elec       q    Type
                         _______ _______ _______ _____ _____    ______ ____

>  <TORSDO>
F 3

$$$$
=
 OpenBabel11052412423D

 25 28  0  0  1  0  0  0  0  0999 V2000
  188.9230  177.5320  143.7880 C   0  0  0  0  0  0  0  0  0  0  0  0
  188.3150  177.8790  142.5830 C   0  0  0  0  0  0  0  0  0  0  0  0
  190.9420  176.8730  142.6580 C   0  0  0  0  0  3  0  0  0  0  0  0
  188.4990  177.5650  145.0940 C   0  0  0  0  0  0  0  0  0  0  0  0
  188.2610  177.3840  147.8450 C   0  0  0  0  0  3  0  0  0  0  0  0
  190.3540  177.2080  141.4710 N   0  0  0  0  0  0  0  0  0  0  0  0
  189.5550  177.0900  145.8470 C   0  0  0  0  0  0  0  0  0  0  0  0
  189.4640  176.9870  147.2340 C   0  0  0  0  0  3  0  0  0  0  0  0
  188.4970  178.0340  140.1700 C   0  0  0  0  0  0  0  0  0  0  0  0
  189.2240  177.8660  138.9560 N   0  0  0  0  0  1  0  0  0  0  0  0
  187.0150  178.3810  142.5060 C   0  0  0  0  0  3  0  0  0  0  0  0
  187.1850  177.8680  147.0690 C   0  0  0  0  0  3  0  0  0  0  0  0
  190.2090  177.0380  143.8300 C   0  0  0  0  0  0  0  0  0  0  0  0
  190.6240  176.7580  145.0870 N   0  0  0  0  0  0  0  0  0  0  0  0
  187.2250  178.5200  140.1290 N   0  0  0  0  0  0  0  0  0  0  0  0
  187.2950  177.9640  145.6710 C   0  0  0  0  0  3  0  0  0  0  0  0
  186.4850  178.7050  141.2560 C   0  0  0  0  0  0  0  0  0  0  0  0
  189.0760  177.7010  141.4010 C   0  0  1  0  0  3  0  0  0  0  0  0
  185.0880  179.2110  141.1530 C   0  0  0  0  0  2  0  0  0  0  0  0
  184.4030  178.5570  140.0400 N   0  0  0  0  0  0  0  0  0  0  0  0
  184.3320  179.5270  138.9520 C   0  0  0  0  0  1  0  0  0  0  0  0
  182.8030  178.4090  141.9010 C   0  0  0  0  0  1  0  0  0  0  0  0
  183.0450  178.1150  140.4280 C   0  0  0  0  0  0  0  0  0  0  0  0
  182.9330  176.7330  140.2510 O   0  0  0  0  0  1  0  0  0  0  0  0
  181.9490  178.8000  139.6110 C   0  0  0  0  0  1  0  0  0  0  0  0
  1 13  1  0  0  0  0
  1  4  1  0  0  0  0
  2  1  2  0  0  0  0
  3 13  1  0  0  0  0
  4 16  2  0  0  0  0
  4  7  1  0  0  0  0
  6  3  2  0  0  0  0
  7  8  2  0  0  0  0
  8  5  1  0  0  0  0
 10  9  1  0  0  0  0
 11  2  1  0  0  0  0
 12  5  2  0  0  0  0
 13 14  2  0  0  0  0
 14  7  1  0  0  0  0
 15  9  2  0  0  0  0
 15 17  1  0  0  0  0
 16 12  1  0  0  0  0
 17 11  2  0  0  0  0
 18  9  1  6  0  0  0
 18  6  1  0  0  0  0
 18  2  1  0  0  0  0
 19 17  1  0  0  0  0
 20 23  1  0  0  0  0
 20 19  1  0  0  0  0
 21 20  1  0  0  0  0
 23 22  1  0  0  0  0
 24 23  1  0  0  0  0
 25 23  1  0  0  0  0
M  END
>  <MODEL>
7

>  <REMARK>
 VINA RESULT:      -9.3      2.751      5.945
  Name = 
  3 active torsions:
  status: ('A' for Active; 'I' for Inactive)
    1  A    between atoms: C_6  and  N_15
    2  A    between atoms: C_6  and  C_23
    3  A    between atoms: C_7  and  N_15
                            x       y       z     vdW  Elec       q    Type
                         _______ _______ _______ _____ _____    ______ ____

>  <TORSDO>
F 3

$$$$
=
 OpenBabel11052412423D

 25 28  0  0  1  0  0  0  0  0999 V2000
  187.6570  177.6260  144.6250 C   0  0  0  0  0  0  0  0  0  0  0  0
  186.3920  177.9380  144.1270 C   0  0  2  0  0  3  0  0  0  0  0  0
  187.0140  178.2750  146.8500 C   0  0  0  0  0  3  0  0  0  0  0  0
  188.8000  177.1410  144.0400 C   0  0  0  0  0  0  0  0  0  0  0  0
  191.3460  176.2100  143.4870 C   0  0  0  0  0  3  0  0  0  0  0  0
  185.7720  178.5860  146.3710 N   0  0  0  0  0  0  0  0  0  0  0  0
  189.7320  177.0400  145.0540 C   0  0  0  0  0  0  0  0  0  0  0  0
  191.0210  176.5750  144.8060 C   0  0  0  0  0  3  0  0  0  0  0  0
  184.1590  178.7620  144.5850 C   0  0  0  0  0  0  0  0  0  0  0  0
  183.1710  179.2690  145.4780 N   0  0  0  0  0  1  0  0  0  0  0  0
  186.0490  177.7840  142.7830 C   0  0  0  0  0  3  0  0  0  0  0  0
  190.3900  176.3160  142.4540 C   0  0  0  0  0  3  0  0  0  0  0  0
  187.9650  177.7900  145.9580 C   0  0  0  0  0  0  0  0  0  0  0  0
  189.2380  177.4350  146.2500 N   0  0  0  0  0  0  0  0  0  0  0  0
  183.8550  178.6030  143.2680 N   0  0  0  0  0  0  0  0  0  0  0  0
  189.0930  176.7890  142.7230 C   0  0  0  0  0  3  0  0  0  0  0  0
  184.7570  178.1200  142.3700 C   0  0  0  0  0  0  0  0  0  0  0  0
  185.4390  178.4330  145.0500 C   0  0  0  0  0  0  0  0  0  0  0  0
  184.3830  177.9920  140.9350 C   0  0  0  0  0  2  0  0  0  0  0  0
  183.3740  178.9930  140.5930 N   0  0  0  0  0  0  0  0  0  0  0  0
  182.0690  178.3820  140.8300 C   0  0  0  0  0  1  0  0  0  0  0  0
  183.9590  178.2550  138.3220 C   0  0  0  0  0  1  0  0  0  0  0  0
  183.4950  179.4220  139.1820 C   0  0  0  0  0  0  0  0  0  0  0  0
  184.4580  180.4290  139.0800 O   0  0  0  0  0  1  0  0  0  0  0  0
  182.1770  179.9490  138.6140 C   0  0  0  0  0  1  0  0  0  0  0  0
  1 13  1  0  0  0  0
  2 11  1  6  0  0  0
  2  1  1  0  0  0  0
  2 18  1  0  0  0  0
  4  1  2  0  0  0  0
  4  7  1  0  0  0  0
  5  8  2  0  0  0  0
  6  3  1  0  0  0  0
  7 14  2  0  0  0  0
  8  7  1  0  0  0  0
  9 18  1  0  0  0  0
  9 10  1  0  0  0  0
 12 16  2  0  0  0  0
 12  5  1  0  0  0  0
 13 14  1  0  0  0  0
 13  3  2  0  0  0  0
 15  9  2  0  0  0  0
 16  4  1  0  0  0  0
 17 11  2  0  0  0  0
 17 15  1  0  0  0  0
 18  6  2  0  0  0  0
 19 17  1  0  0  0  0
 20 21  1  0  0  0  0
 20 19  1  0  0  0  0
 22 23  1  0  0  0  0
 23 20  1  0  0  0  0
 24 23  1  0  0  0  0
 25 23  1  0  0  0  0
M  END
>  <MODEL>
8

>  <REMARK>
 VINA RESULT:      -9.2      3.071      6.005
  Name = 
  3 active torsions:
  status: ('A' for Active; 'I' for Inactive)
    1  A    between atoms: C_6  and  N_15
    2  A    between atoms: C_6  and  C_23
    3  A    between atoms: C_7  and  N_15
                            x       y       z     vdW  Elec       q    Type
                         _______ _______ _______ _____ _____    ______ ____

>  <TORSDO>
F 3

$$$$
=
 OpenBabel11052412423D

 25 28  0  0  0  0  0  0  0  0999 V2000
  189.0270  177.6580  143.8170 C   0  0  0  0  0  0  0  0  0  0  0  0
  189.4290  177.6400  142.4820 C   0  0  0  0  0  0  0  0  0  0  0  0
  191.2780  177.2700  144.5710 C   0  0  0  0  0  3  0  0  0  0  0  0
  187.8070  177.8320  144.4250 C   0  0  0  0  0  0  0  0  0  0  0  0
  185.7130  178.1010  146.2130 C   0  0  0  0  0  3  0  0  0  0  0  0
  191.6820  177.2480  143.2660 N   0  0  0  0  0  0  0  0  0  0  0  0
  188.0450  177.7460  145.7820 C   0  0  0  0  0  0  0  0  0  0  0  0
  187.0110  177.8780  146.7060 C   0  0  0  0  0  3  0  0  0  0  0  0
  191.2470  177.3940  140.8970 C   0  0  0  0  0  0  0  0  0  0  0  0
  192.6210  177.1740  140.5930 N   0  0  0  0  0  1  0  0  0  0  0  0
  188.5410  177.8180  141.4200 C   0  0  0  0  0  2  0  0  0  0  0  0
  185.4760  178.1870  144.8240 C   0  0  0  0  0  3  0  0  0  0  0  0
  189.9280  177.4780  144.8430 C   0  0  0  0  0  0  0  0  0  0  0  0
  189.3500  177.5280  146.0650 N   0  0  0  0  0  0  0  0  0  0  0  0
  190.3550  177.5690  139.8830 N   0  0  0  0  0  0  0  0  0  0  0  0
  186.5330  178.0510  143.9060 C   0  0  0  0  0  3  0  0  0  0  0  0
  189.0310  177.7860  140.1130 C   0  0  0  0  0  0  0  0  0  0  0  0
  190.8050  177.4250  142.2260 C   0  0  0  0  0  0  0  0  0  0  0  0
  188.0930  177.9430  138.9680 C   0  0  0  0  0  2  0  0  0  0  0  0
  188.8230  177.8260  137.7070 N   0  0  0  0  0  0  0  0  0  0  0  0
  189.0550  179.1840  137.2200 C   0  0  0  0  0  1  0  0  0  0  0  0
  187.8340  175.6280  137.2240 C   0  0  0  0  0  1  0  0  0  0  0  0
  188.0590  177.0430  136.7110 C   0  0  0  0  0  0  0  0  0  0  0  0
  188.7930  176.9500  135.5260 O   0  0  0  0  0  1  0  0  0  0  0  0
  186.6990  177.6650  136.3930 C   0  0  0  0  0  1  0  0  0  0  0  0
  1  4  1  0  0  0  0
  1 13  1  0  0  0  0
  2  1  2  0  0  0  0
  3 13  1  0  0  0  0
  4  7  1  0  0  0  0
  5  8  1  0  0  0  0
  6  3  2  0  0  0  0
  7 14  1  0  0  0  0
  7  8  2  0  0  0  0
  9 18  2  0  0  0  0
 10  9  1  0  0  0  0
 11  2  1  0  0  0  0
 12  5  2  0  0  0  0
 13 14  2  0  0  0  0
 15 17  2  0  0  0  0
 15  9  1  0  0  0  0
 16  4  2  0  0  0  0
 16 12  1  0  0  0  0
 17 11  1  0  0  0  0
 18  2  1  0  0  0  0
 18  6  1  0  0  0  0
 19 17  1  0  0  0  0
 20 19  1  0  0  0  0
 21 20  1  0  0  0  0
 23 22  1  0  0  0  0
 23 20  1  0  0  0  0
 24 23  1  0  0  0  0
 25 23  1  0  0  0  0
M  END
>  <MODEL>
9

>  <REMARK>
 VINA RESULT:      -9.2      2.194      4.131
  Name = 
  3 active torsions:
  status: ('A' for Active; 'I' for Inactive)
    1  A    between atoms: C_6  and  N_15
    2  A    between atoms: C_6  and  C_23
    3  A    between atoms: C_7  and  N_15
                            x       y       z     vdW  Elec       q    Type
                         _______ _______ _______ _____ _____    ______ ____

>  <TORSDO>
F 3

$$$$
