=
 OpenBabel11052416263D

 43 46  0  0  1  0  0  0  0  0999 V2000
  185.8450  178.6550  140.9440 C   0  0  0  0  0  0  0  0  0  0  0  0
  185.3550  178.3210  143.7420 C   0  0  2  0  0  3  0  0  0  0  0  0
  188.4130  178.1430  139.8590 C   0  0  2  0  0  3  0  0  0  0  0  0
  188.0210  177.7490  141.1770 O   0  0  0  0  0  0  0  0  0  0  0  0
  186.6180  178.0590  143.1260 O   0  0  0  0  0  0  0  0  0  0  0  0
  186.8080  178.1590  141.7420 C   0  0  0  0  0  0  0  0  0  0  0  0
  186.0620  178.7010  139.5270 N   0  0  0  0  0  0  0  0  0  0  0  0
  184.5070  179.0660  141.5070 C   0  0  2  0  0  3  0  0  0  0  0  0
  184.6150  179.4270  142.9900 C   0  0  0  0  0  2  0  0  0  0  0  0
  187.2180  178.4340  138.9960 C   0  0  0  0  0  3  0  0  0  0  0  0
  185.5410  178.7010  145.2030 C   0  0  2  0  0  3  0  0  0  0  0  0
  185.6980  180.0730  145.3270 F   0  0  0  0  0  0  0  0  0  0  0  0
  186.7480  177.9790  145.7780 C   0  0  0  0  0  2  0  0  0  0  0  0
  186.5970  177.8180  147.2760 C   0  0  0  0  0  2  0  0  0  0  0  0
  187.9040  177.3270  147.8660 C   0  0  0  0  0  2  0  0  0  0  0  0
  189.0750  177.8340  147.0420 C   0  0  0  0  0  2  0  0  0  0  0  0
  190.3970  177.2970  147.5820 C   0  0  0  0  0  2  0  0  0  0  0  0
  190.9920  176.3570  146.6400 N   0  0  0  0  0  0  0  0  0  0  0  0
  192.6660  176.4350  148.2600 O   0  0  0  0  0  1  0  0  0  0  0  0
  191.9890  175.5950  147.3740 C   0  0  0  0  0  2  0  0  0  0  0  0
  191.7150  177.1410  145.6510 C   0  0  0  0  0  2  0  0  0  0  0  0
  191.2760  177.5510  143.1330 C   0  0  2  0  0  3  0  0  0  0  0  0
  191.4540  176.5980  144.2560 C   0  0  2  0  0  0  0  0  0  0  0  0
  190.1780  176.9270  143.7720 O   0  0  0  0  0  0  0  0  0  0  0  0
  191.7910  175.2720  143.9710 O   0  0  0  0  0  1  0  0  0  0  0  0
  191.4920  176.9070  141.7700 C   0  0  0  0  0  2  0  0  0  0  0  0
  192.3220  177.8120  140.8750 C   0  0  0  0  0  2  0  0  0  0  0  0
  194.3490  176.8690  140.0210 O   0  0  0  0  0  1  0  0  0  0  0  0
  192.9870  177.0230  139.7580 C   0  0  0  0  0  2  0  0  0  0  0  0
  183.4610  177.9660  141.3150 C   0  0  0  0  0  2  0  0  0  0  0  0
  181.6220  178.6530  138.0790 C   0  0  0  0  0  2  0  0  0  0  0  0
  180.1990  178.4950  138.5990 C   0  0  1  0  0  3  0  0  0  0  0  0
  181.0430  178.7790  140.9270 C   0  0  0  0  0  2  0  0  0  0  0  0
  182.5940  178.2760  139.0870 N   0  0  0  0  0  0  0  0  0  0  0  0
  182.3880  178.3810  140.3590 C   0  0  0  0  0  0  0  0  0  0  0  0
  180.0840  179.3190  139.8690 C   0  0  0  0  0  2  0  0  0  0  0  0
  179.2960  178.9690  137.6480 O   0  0  0  0  0  0  0  0  0  0  0  0
  179.6340  180.6490  137.5260 S   0  0  0  0  0  1  0  0  0  0  0  0
  189.2710  177.0680  139.2130 C   0  0  0  0  0  2  0  0  0  0  0  0
  188.8140  176.7790  137.7880 C   0  0  2  0  0  3  0  0  0  0  0  0
  188.4230  175.4450  137.6780 O   0  0  0  0  0  1  0  0  0  0  0  0
  189.8940  177.1010  136.7570 C   0  0  0  0  0  2  0  0  0  0  0  0
  189.3100  177.6950  135.4830 C   0  0  0  0  0  1  0  0  0  0  0  0
  1  8  1  0  0  0  0
  1  6  2  0  0  0  0
  2 11  1  1  0  0  0
  3 39  1  6  0  0  0
  3  4  1  0  0  0  0
  4  6  1  0  0  0  0
  5  2  1  0  0  0  0
  6  5  1  0  0  0  0
  7  1  1  0  0  0  0
  8 30  1  1  0  0  0
  8  9  1  0  0  0  0
  9  2  1  0  0  0  0
 10  7  2  0  0  0  0
 10  3  1  0  0  0  0
 11 12  1  6  0  0  0
 11 13  1  0  0  0  0
 13 14  1  0  0  0  0
 14 15  1  0  0  0  0
 16 17  1  0  0  0  0
 16 15  1  0  0  0  0
 18 20  1  0  0  0  0
 18 17  1  0  0  0  0
 20 19  1  0  0  0  0
 21 18  1  0  0  0  0
 22 26  1  6  0  0  0
 22 24  1  0  0  0  0
 22 23  1  0  0  0  0
 23 25  1  6  0  0  0
 23 21  1  0  0  0  0
 24 23  1  0  0  0  0
 27 26  1  0  0  0  0
 29 28  1  0  0  0  0
 29 27  1  0  0  0  0
 31 32  1  0  0  0  0
 31 34  1  0  0  0  0
 32 37  1  6  0  0  0
 32 36  1  0  0  0  0
 34 35  2  0  0  0  0
 35 33  1  0  0  0  0
 35 30  1  0  0  0  0
 36 33  1  0  0  0  0
 38 37  1  0  0  0  0
 40 41  1  1  0  0  0
 40 39  1  0  0  0  0
 42 40  1  0  0  0  0
 43 42  1  0  0  0  0
M  END
>  <MODEL>
1

>  <REMARK>
 VINA RESULT:      -6.7      0.000      0.000
  Name = 
  19 active torsions:
  status: ('A' for Active; 'I' for Inactive)
    1  A    between atoms: C_1  and  C_34
    2  A    between atoms: C_1  and  C_35
    3  A    between atoms: C_2  and  C_6
    4  A    between atoms: C_2  and  C_13
    5  A    between atoms: C_3  and  C_12
    6  A    between atoms: C_3  and  C_15
    7  A    between atoms: N_4  and  C_15
    8  A    between atoms: N_4  and  C_22
    9  A    between atoms: N_4  and  C_42
   10  A    between atoms: C_5  and  C_18
   11  A    between atoms: C_5  and  C_23
   12  A    between atoms: C_6  and  C_17
   13  A    between atoms: C_11  and  C_36
   14  A    between atoms: C_12  and  C_17
   15  A    between atoms: C_14  and  C_22
   16  A    between atoms: C_16  and  C_23
   17  A    between atoms: C_19  and  O_25
   18  A    between atoms: C_29  and  C_31
   19  A    between atoms: C_29  and  C_36
                            x       y       z     vdW  Elec       q    Type
                         _______ _______ _______ _____ _____    ______ ____

>  <TORSDO>
F 19

$$$$
=
 OpenBabel11052416263D

 43 46  0  0  1  0  0  0  0  0999 V2000
  182.4250  178.7510  138.9780 C   0  0  0  0  0  0  0  0  0  0  0  0
  183.0680  178.8780  141.7610 C   0  0  2  0  0  3  0  0  0  0  0  0
  180.1070  180.0370  137.9740 C   0  0  2  0  0  3  0  0  0  0  0  0
  180.6360  180.2720  139.2820 O   0  0  0  0  0  0  0  0  0  0  0  0
  181.9300  179.5210  141.1850 O   0  0  0  0  0  0  0  0  0  0  0  0
  181.6810  179.5040  139.8070 C   0  0  0  0  0  0  0  0  0  0  0  0
  182.1660  178.7940  137.5670 N   0  0  0  0  0  0  0  0  0  0  0  0
  183.5900  177.9430  139.4970 C   0  0  2  0  0  3  0  0  0  0  0  0
  183.4170  177.6100  140.9810 C   0  0  0  0  0  2  0  0  0  0  0  0
  181.1330  179.4080  137.0730 C   0  0  0  0  0  3  0  0  0  0  0  0
  182.8150  178.5500  143.2250 C   0  0  2  0  0  3  0  0  0  0  0  0
  181.4590  178.6210  143.5060 F   0  0  0  0  0  0  0  0  0  0  0  0
  183.5870  179.5120  144.1130 C   0  0  0  0  0  2  0  0  0  0  0  0
  184.2330  178.7630  145.2590 C   0  0  0  0  0  2  0  0  0  0  0  0
  185.7400  178.8850  145.1590 C   0  0  0  0  0  2  0  0  0  0  0  0
  186.4050  177.6400  145.7220 C   0  0  0  0  0  2  0  0  0  0  0  0
  187.8290  177.9410  146.1800 C   0  0  0  0  0  2  0  0  0  0  0  0
  188.7870  177.1130  145.4580 N   0  0  0  0  0  0  0  0  0  0  0  0
  191.0940  176.8200  145.6040 O   0  0  0  0  0  1  0  0  0  0  0  0
  189.9150  176.8950  146.3480 C   0  0  0  0  0  2  0  0  0  0  0  0
  189.2850  177.9060  144.3440 C   0  0  0  0  0  2  0  0  0  0  0  0
  188.5400  178.0040  141.8680 C   0  0  2  0  0  3  0  0  0  0  0  0
  188.9980  177.2020  143.0290 C   0  0  2  0  0  0  0  0  0  0  0  0
  187.6430  177.2540  142.6660 O   0  0  0  0  0  0  0  0  0  0  0  0
  189.5480  175.9370  142.8020 O   0  0  0  0  0  1  0  0  0  0  0  0
  188.7410  177.2890  140.5380 C   0  0  0  0  0  2  0  0  0  0  0  0
  189.8920  177.9090  139.7650 C   0  0  0  0  0  2  0  0  0  0  0  0
  190.6650  175.7730  139.0100 O   0  0  0  0  0  1  0  0  0  0  0  0
  191.0640  176.9470  139.6530 C   0  0  0  0  0  2  0  0  0  0  0  0
  184.9140  178.6750  139.2810 C   0  0  0  0  0  2  0  0  0  0  0  0
  187.6430  178.1470  136.7110 C   0  0  0  0  0  2  0  0  0  0  0  0
  187.4360  176.6570  136.4760 C   0  0  1  0  0  3  0  0  0  0  0  0
  185.1650  176.8370  137.4880 C   0  0  0  0  0  2  0  0  0  0  0  0
  186.8210  178.6250  137.8060 N   0  0  0  0  0  0  0  0  0  0  0  0
  185.6850  178.1020  138.1340 C   0  0  0  0  0  0  0  0  0  0  0  0
  185.9510  176.4350  136.2430 C   0  0  0  0  0  2  0  0  0  0  0  0
  188.1530  176.2550  135.3490 O   0  0  0  0  0  0  0  0  0  0  0  0
  189.3300  177.4840  135.1200 S   0  0  0  0  0  1  0  0  0  0  0  0
  179.6000  181.3310  137.3600 C   0  0  0  0  0  2  0  0  0  0  0  0
  180.7430  182.1460  136.7670 C   0  0  2  0  0  3  0  0  0  0  0  0
  181.3920  182.8560  137.7760 O   0  0  0  0  0  1  0  0  0  0  0  0
  180.2670  183.0980  135.6720 C   0  0  0  0  0  2  0  0  0  0  0  0
  180.6860  184.5360  135.9420 C   0  0  0  0  0  1  0  0  0  0  0  0
  1  8  1  0  0  0  0
  1  6  2  0  0  0  0
  2 11  1  1  0  0  0
  3 39  1  6  0  0  0
  3  4  1  0  0  0  0
  4  6  1  0  0  0  0
  5  2  1  0  0  0  0
  6  5  1  0  0  0  0
  7  1  1  0  0  0  0
  8 30  1  1  0  0  0
  8  9  1  0  0  0  0
  9  2  1  0  0  0  0
 10  7  2  0  0  0  0
 10  3  1  0  0  0  0
 11 12  1  1  0  0  0
 11 13  1  0  0  0  0
 13 14  1  0  0  0  0
 15 14  1  0  0  0  0
 15 16  1  0  0  0  0
 16 17  1  0  0  0  0
 18 17  1  0  0  0  0
 18 20  1  0  0  0  0
 19 20  1  0  0  0  0
 21 18  1  0  0  0  0
 22 26  1  6  0  0  0
 22 24  1  0  0  0  0
 22 23  1  0  0  0  0
 23 25  1  6  0  0  0
 23 21  1  0  0  0  0
 24 23  1  0  0  0  0
 27 26  1  0  0  0  0
 28 29  1  0  0  0  0
 29 27  1  0  0  0  0
 31 34  1  0  0  0  0
 32 37  1  6  0  0  0
 32 31  1  0  0  0  0
 33 35  1  0  0  0  0
 34 35  2  0  0  0  0
 35 30  1  0  0  0  0
 36 32  1  0  0  0  0
 36 33  1  0  0  0  0
 38 37  1  0  0  0  0
 40 39  1  0  0  0  0
 40 41  1  1  0  0  0
 42 43  1  0  0  0  0
 42 40  1  0  0  0  0
M  END
>  <MODEL>
2

>  <REMARK>
 VINA RESULT:      -6.6      2.987      5.885
  Name = 
  19 active torsions:
  status: ('A' for Active; 'I' for Inactive)
    1  A    between atoms: C_1  and  C_34
    2  A    between atoms: C_1  and  C_35
    3  A    between atoms: C_2  and  C_6
    4  A    between atoms: C_2  and  C_13
    5  A    between atoms: C_3  and  C_12
    6  A    between atoms: C_3  and  C_15
    7  A    between atoms: N_4  and  C_15
    8  A    between atoms: N_4  and  C_22
    9  A    between atoms: N_4  and  C_42
   10  A    between atoms: C_5  and  C_18
   11  A    between atoms: C_5  and  C_23
   12  A    between atoms: C_6  and  C_17
   13  A    between atoms: C_11  and  C_36
   14  A    between atoms: C_12  and  C_17
   15  A    between atoms: C_14  and  C_22
   16  A    between atoms: C_16  and  C_23
   17  A    between atoms: C_19  and  O_25
   18  A    between atoms: C_29  and  C_31
   19  A    between atoms: C_29  and  C_36
                            x       y       z     vdW  Elec       q    Type
                         _______ _______ _______ _____ _____    ______ ____

>  <TORSDO>
F 19

$$$$
=
 OpenBabel11052416263D

 43 46  0  0  1  0  0  0  0  0999 V2000
  190.2160  177.3530  139.7210 C   0  0  0  0  0  0  0  0  0  0  0  0
  188.1230  177.3490  137.7730 C   0  0  2  0  0  3  0  0  0  0  0  0
  189.6390  177.8310  142.4540 C   0  0  2  0  0  3  0  0  0  0  0  0
  188.6360  177.5510  141.4740 O   0  0  0  0  0  0  0  0  0  0  0  0
  187.9000  177.5600  139.1680 O   0  0  0  0  0  0  0  0  0  0  0  0
  188.9350  177.4820  140.1090 C   0  0  0  0  0  0  0  0  0  0  0  0
  191.2420  177.2330  140.7160 N   0  0  0  0  0  0  0  0  0  0  0  0
  190.5760  177.2300  138.2610 C   0  0  2  0  0  3  0  0  0  0  0  0
  189.5050  177.8620  137.3690 C   0  0  0  0  0  2  0  0  0  0  0  0
  191.0020  177.4090  141.9820 C   0  0  0  0  0  3  0  0  0  0  0  0
  187.0400  178.0280  136.9480 C   0  0  2  0  0  3  0  0  0  0  0  0
  186.2120  178.7800  137.7680 F   0  0  0  0  0  0  0  0  0  0  0  0
  186.2300  176.9860  136.1960 C   0  0  0  0  0  2  0  0  0  0  0  0
  184.7490  177.2050  136.4300 C   0  0  0  0  0  2  0  0  0  0  0  0
  184.2450  176.2070  137.4530 C   0  0  0  0  0  2  0  0  0  0  0  0
  183.1090  176.8140  138.2610 C   0  0  0  0  0  2  0  0  0  0  0  0
  182.9240  178.2890  137.9190 C   0  0  0  0  0  2  0  0  0  0  0  0
  182.6080  179.0570  139.1170 N   0  0  0  0  0  0  0  0  0  0  0  0
  180.9580  180.7030  139.0790 O   0  0  0  0  0  1  0  0  0  0  0  0
  182.2620  180.4000  138.6810 C   0  0  0  0  0  2  0  0  0  0  0  0
  183.8370  179.1760  139.8860 C   0  0  0  0  0  2  0  0  0  0  0  0
  184.6730  178.9990  142.3300 C   0  0  2  0  0  3  0  0  0  0  0  0
  183.5860  178.8070  141.3390 C   0  0  2  0  0  0  0  0  0  0  0  0
  184.3770  177.7320  141.7740 O   0  0  0  0  0  0  0  0  0  0  0  0
  182.2680  178.6980  141.7930 O   0  0  0  0  0  1  0  0  0  0  0  0
  184.1640  179.0450  143.7650 C   0  0  0  0  0  2  0  0  0  0  0  0
  185.1610  178.3940  144.7080 C   0  0  0  0  0  2  0  0  0  0  0  0
  185.1920  178.6790  147.0850 O   0  0  0  0  0  1  0  0  0  0  0  0
  185.4950  179.3090  145.8760 C   0  0  0  0  0  2  0  0  0  0  0  0
  190.7870  175.7690  137.8610 C   0  0  0  0  0  2  0  0  0  0  0  0
  193.1260  175.5320  134.8950 C   0  0  0  0  0  2  0  0  0  0  0  0
  194.4150  175.9330  135.6010 C   0  0  1  0  0  3  0  0  0  0  0  0
  193.3440  175.4270  137.7940 C   0  0  0  0  0  2  0  0  0  0  0  0
  191.9790  175.6930  135.7670 N   0  0  0  0  0  0  0  0  0  0  0  0
  192.0340  175.5880  137.0550 C   0  0  0  0  0  0  0  0  0  0  0  0
  194.5160  175.1050  136.8700 C   0  0  0  0  0  2  0  0  0  0  0  0
  195.5060  175.6620  134.7760 O   0  0  0  0  0  0  0  0  0  0  0  0
  196.6070  174.8040  135.7780 S   0  0  0  0  0  1  0  0  0  0  0  0
  189.3100  177.1450  143.7700 C   0  0  0  0  0  2  0  0  0  0  0  0
  189.7350  177.9970  144.9590 C   0  0  2  0  0  3  0  0  0  0  0  0
  191.0490  177.6940  145.3120 O   0  0  0  0  0  1  0  0  0  0  0  0
  188.8090  177.8170  146.1600 C   0  0  0  0  0  2  0  0  0  0  0  0
  189.3390  176.7800  147.1410 C   0  0  0  0  0  1  0  0  0  0  0  0
  1  6  2  0  0  0  0
  1  7  1  0  0  0  0
  2 11  1  6  0  0  0
  2  5  1  0  0  0  0
  3 39  1  1  0  0  0
  4  3  1  0  0  0  0
  5  6  1  0  0  0  0
  6  4  1  0  0  0  0
  7 10  2  0  0  0  0
  8 30  1  6  0  0  0
  8  1  1  0  0  0  0
  9  2  1  0  0  0  0
  9  8  1  0  0  0  0
 10  3  1  0  0  0  0
 11 12  1  1  0  0  0
 13 14  1  0  0  0  0
 13 11  1  0  0  0  0
 14 15  1  0  0  0  0
 15 16  1  0  0  0  0
 17 16  1  0  0  0  0
 17 18  1  0  0  0  0
 18 21  1  0  0  0  0
 20 19  1  0  0  0  0
 20 18  1  0  0  0  0
 21 23  1  0  0  0  0
 22 26  1  1  0  0  0
 23 24  1  0  0  0  0
 23 25  1  1  0  0  0
 23 22  1  0  0  0  0
 24 22  1  0  0  0  0
 26 27  1  0  0  0  0
 27 29  1  0  0  0  0
 29 28  1  0  0  0  0
 31 32  1  0  0  0  0
 31 34  1  0  0  0  0
 32 37  1  6  0  0  0
 32 36  1  0  0  0  0
 34 35  2  0  0  0  0
 35 33  1  0  0  0  0
 35 30  1  0  0  0  0
 36 33  1  0  0  0  0
 37 38  1  0  0  0  0
 39 40  1  0  0  0  0
 40 41  1  1  0  0  0
 40 42  1  0  0  0  0
 42 43  1  0  0  0  0
M  END
>  <MODEL>
3

>  <REMARK>
 VINA RESULT:      -6.5      4.078     10.043
  Name = 
  19 active torsions:
  status: ('A' for Active; 'I' for Inactive)
    1  A    between atoms: C_1  and  C_34
    2  A    between atoms: C_1  and  C_35
    3  A    between atoms: C_2  and  C_6
    4  A    between atoms: C_2  and  C_13
    5  A    between atoms: C_3  and  C_12
    6  A    between atoms: C_3  and  C_15
    7  A    between atoms: N_4  and  C_15
    8  A    between atoms: N_4  and  C_22
    9  A    between atoms: N_4  and  C_42
   10  A    between atoms: C_5  and  C_18
   11  A    between atoms: C_5  and  C_23
   12  A    between atoms: C_6  and  C_17
   13  A    between atoms: C_11  and  C_36
   14  A    between atoms: C_12  and  C_17
   15  A    between atoms: C_14  and  C_22
   16  A    between atoms: C_16  and  C_23
   17  A    between atoms: C_19  and  O_25
   18  A    between atoms: C_29  and  C_31
   19  A    between atoms: C_29  and  C_36
                            x       y       z     vdW  Elec       q    Type
                         _______ _______ _______ _____ _____    ______ ____

>  <TORSDO>
F 19

$$$$
=
 OpenBabel11052416263D

 43 46  0  0  1  0  0  0  0  0999 V2000
  187.2340  177.7870  142.8190 C   0  0  0  0  0  0  0  0  0  0  0  0
  184.7990  179.0910  143.5560 C   0  0  2  0  0  3  0  0  0  0  0  0
  188.2070  177.9460  140.1610 C   0  0  2  0  0  3  0  0  0  0  0  0
  187.1580  178.7760  140.6680 O   0  0  0  0  0  0  0  0  0  0  0  0
  185.3570  179.1490  142.2420 O   0  0  0  0  0  0  0  0  0  0  0  0
  186.5900  178.5620  141.9290 C   0  0  0  0  0  0  0  0  0  0  0  0
  188.5150  177.2400  142.4760 N   0  0  0  0  0  0  0  0  0  0  0  0
  186.6780  177.5690  144.2050 C   0  0  2  0  0  3  0  0  0  0  0  0
  185.1610  177.7690  144.2320 C   0  0  0  0  0  2  0  0  0  0  0  0
  189.0060  177.3300  141.2750 C   0  0  0  0  0  3  0  0  0  0  0  0
  183.2890  179.2670  143.5050 C   0  0  2  0  0  3  0  0  0  0  0  0
  182.6960  178.6580  144.6010 F   0  0  0  0  0  0  0  0  0  0  0  0
  182.7410  178.6790  142.2160 C   0  0  0  0  0  2  0  0  0  0  0  0
  181.3270  179.1650  141.9770 C   0  0  0  0  0  2  0  0  0  0  0  0
  180.5070  178.0510  141.3570 C   0  0  0  0  0  2  0  0  0  0  0  0
  181.2370  177.4680  140.1580 C   0  0  0  0  0  2  0  0  0  0  0  0
  180.3120  177.3730  138.9490 C   0  0  0  0  0  2  0  0  0  0  0  0
  181.0660  177.5320  137.7120 N   0  0  0  0  0  0  0  0  0  0  0  0
  182.5110  176.0840  136.5960 O   0  0  0  0  0  1  0  0  0  0  0  0
  182.2480  176.6940  137.8240 C   0  0  0  0  0  2  0  0  0  0  0  0
  181.5370  178.9080  137.6720 C   0  0  0  0  0  2  0  0  0  0  0  0
  180.6730  181.0540  136.5110 C   0  0  2  0  0  3  0  0  0  0  0  0
  181.0040  179.6110  136.4340 C   0  0  2  0  0  0  0  0  0  0  0  0
  179.6790  180.0490  136.5830 O   0  0  0  0  0  0  0  0  0  0  0  0
  181.2230  179.0330  135.1800 O   0  0  0  0  0  1  0  0  0  0  0  0
  180.6100  181.7220  135.1440 C   0  0  0  0  0  2  0  0  0  0  0  0
  180.4120  183.2210  135.2870 C   0  0  0  0  0  2  0  0  0  0  0  0
  181.4310  185.1050  136.3550 O   0  0  0  0  0  1  0  0  0  0  0  0
  181.1170  183.7550  136.5240 C   0  0  0  0  0  2  0  0  0  0  0  0
  187.3420  178.4960  145.2230 C   0  0  0  0  0  2  0  0  0  0  0  0
  190.9000  177.3930  145.8950 C   0  0  0  0  0  2  0  0  0  0  0  0
  190.8020  177.2490  147.4080 C   0  0  1  0  0  3  0  0  0  0  0  0
  188.3170  177.1800  147.2160 C   0  0  0  0  0  2  0  0  0  0  0  0
  189.6950  177.9820  145.3440 N   0  0  0  0  0  0  0  0  0  0  0  0
  188.5230  177.8500  145.8760 C   0  0  0  0  0  0  0  0  0  0  0  0
  189.5560  176.4350  147.7080 C   0  0  0  0  0  2  0  0  0  0  0  0
  191.9270  176.5810  147.8900 O   0  0  0  0  0  0  0  0  0  0  0  0
  192.3210  175.4480  146.6610 S   0  0  0  0  0  1  0  0  0  0  0  0
  189.1220  178.7390  139.2430 C   0  0  0  0  0  2  0  0  0  0  0  0
  188.9070  178.3560  137.7840 C   0  0  2  0  0  3  0  0  0  0  0  0
  188.6940  179.5030  137.0200 O   0  0  0  0  0  1  0  0  0  0  0  0
  187.7470  177.3790  137.6070 C   0  0  0  0  0  2  0  0  0  0  0  0
  186.5460  178.0320  136.9380 C   0  0  0  0  0  1  0  0  0  0  0  0
  1  8  1  0  0  0  0
  2 11  1  6  0  0  0
  2  9  1  0  0  0  0
  3 39  1  6  0  0  0
  3  4  1  0  0  0  0
  3 10  1  0  0  0  0
  4  6  1  0  0  0  0
  5  2  1  0  0  0  0
  6  5  1  0  0  0  0
  6  1  2  0  0  0  0
  7  1  1  0  0  0  0
  8  9  1  0  0  0  0
  8 30  1  1  0  0  0
 10  7  2  0  0  0  0
 11 12  1  1  0  0  0
 13 11  1  0  0  0  0
 14 13  1  0  0  0  0
 15 14  1  0  0  0  0
 16 15  1  0  0  0  0
 17 16  1  0  0  0  0
 18 20  1  0  0  0  0
 18 17  1  0  0  0  0
 19 20  1  0  0  0  0
 21 18  1  0  0  0  0
 22 26  1  6  0  0  0
 22 24  1  0  0  0  0
 23 25  1  6  0  0  0
 23 22  1  0  0  0  0
 23 24  1  0  0  0  0
 23 21  1  0  0  0  0
 26 27  1  0  0  0  0
 27 29  1  0  0  0  0
 28 29  1  0  0  0  0
 30 35  1  0  0  0  0
 31 32  1  0  0  0  0
 32 36  1  0  0  0  0
 32 37  1  6  0  0  0
 33 36  1  0  0  0  0
 34 35  2  0  0  0  0
 34 31  1  0  0  0  0
 35 33  1  0  0  0  0
 38 37  1  0  0  0  0
 40 41  1  6  0  0  0
 40 39  1  0  0  0  0
 42 40  1  0  0  0  0
 43 42  1  0  0  0  0
M  END
>  <MODEL>
4

>  <REMARK>
 VINA RESULT:      -6.3      3.542      9.933
  Name = 
  19 active torsions:
  status: ('A' for Active; 'I' for Inactive)
    1  A    between atoms: C_1  and  C_34
    2  A    between atoms: C_1  and  C_35
    3  A    between atoms: C_2  and  C_6
    4  A    between atoms: C_2  and  C_13
    5  A    between atoms: C_3  and  C_12
    6  A    between atoms: C_3  and  C_15
    7  A    between atoms: N_4  and  C_15
    8  A    between atoms: N_4  and  C_22
    9  A    between atoms: N_4  and  C_42
   10  A    between atoms: C_5  and  C_18
   11  A    between atoms: C_5  and  C_23
   12  A    between atoms: C_6  and  C_17
   13  A    between atoms: C_11  and  C_36
   14  A    between atoms: C_12  and  C_17
   15  A    between atoms: C_14  and  C_22
   16  A    between atoms: C_16  and  C_23
   17  A    between atoms: C_19  and  O_25
   18  A    between atoms: C_29  and  C_31
   19  A    between atoms: C_29  and  C_36
                            x       y       z     vdW  Elec       q    Type
                         _______ _______ _______ _____ _____    ______ ____

>  <TORSDO>
F 19

$$$$
=
 OpenBabel11052416263D

 43 46  0  0  1  0  0  0  0  0999 V2000
  190.8200  175.7280  137.5480 C   0  0  0  0  0  0  0  0  0  0  0  0
  188.9780  177.5260  136.3020 C   0  0  2  0  0  3  0  0  0  0  0  0
  192.7270  174.3160  135.9990 C   0  0  2  0  0  3  0  0  0  0  0  0
  191.9620  175.4150  135.4980 O   0  0  0  0  0  0  0  0  0  0  0  0
  189.9780  176.8000  135.5850 O   0  0  0  0  0  0  0  0  0  0  0  0
  190.9150  175.9840  136.2320 C   0  0  0  0  0  0  0  0  0  0  0  0
  191.8240  174.9230  138.1820 N   0  0  0  0  0  0  0  0  0  0  0  0
  189.7330  176.3580  138.3850 C   0  0  2  0  0  3  0  0  0  0  0  0
  188.5210  176.7350  137.5280 C   0  0  0  0  0  2  0  0  0  0  0  0
  192.7350  174.2930  137.5020 C   0  0  0  0  0  3  0  0  0  0  0  0
  187.7940  177.8400  135.4000 C   0  0  2  0  0  3  0  0  0  0  0  0
  186.7560  178.3860  136.1400 F   0  0  0  0  0  0  0  0  0  0  0  0
  187.3300  176.5780  134.6940 C   0  0  0  0  0  2  0  0  0  0  0  0
  185.8930  176.2700  135.0620 C   0  0  0  0  0  2  0  0  0  0  0  0
  185.8360  174.9620  135.8270 C   0  0  0  0  0  2  0  0  0  0  0  0
  184.9070  175.0950  137.0220 C   0  0  0  0  0  2  0  0  0  0  0  0
  184.1960  176.4440  137.0140 C   0  0  0  0  0  2  0  0  0  0  0  0
  183.7960  176.8220  138.3640 N   0  0  0  0  0  0  0  0  0  0  0  0
  181.6300  177.6570  138.5720 O   0  0  0  0  0  1  0  0  0  0  0  0
  182.3880  176.4870  138.5000 C   0  0  0  0  0  2  0  0  0  0  0  0
  183.8860  178.2720  138.4470 C   0  0  0  0  0  2  0  0  0  0  0  0
  184.4030  178.8070  140.9260 C   0  0  2  0  0  3  0  0  0  0  0  0
  184.8760  178.6760  139.5270 C   0  0  2  0  0  0  0  0  0  0  0  0
  184.5920  179.9310  140.0870 O   0  0  0  0  0  0  0  0  0  0  0  0
  186.2440  178.5120  139.2880 O   0  0  0  0  0  1  0  0  0  0  0  0
  185.5360  178.7480  141.9420 C   0  0  0  0  0  2  0  0  0  0  0  0
  185.0000  178.4140  143.3240 C   0  0  0  0  0  2  0  0  0  0  0  0
  183.7560  179.2590  145.1870 O   0  0  0  0  0  1  0  0  0  0  0  0
  184.2850  179.6060  143.9420 C   0  0  0  0  0  2  0  0  0  0  0  0
  190.2470  177.5910  139.1280 C   0  0  0  0  0  2  0  0  0  0  0  0
  191.3800  177.2370  142.7220 C   0  0  0  0  0  2  0  0  0  0  0  0
  190.1120  177.7370  143.4010 C   0  0  1  0  0  3  0  0  0  0  0  0
  188.8530  177.3460  141.2850 C   0  0  0  0  0  2  0  0  0  0  0  0
  191.3110  177.4140  141.2850 N   0  0  0  0  0  0  0  0  0  0  0  0
  190.2060  177.4030  140.6110 C   0  0  0  0  0  0  0  0  0  0  0  0
  188.9390  177.0060  142.7710 C   0  0  0  0  0  2  0  0  0  0  0  0
  190.1650  177.4510  144.7650 O   0  0  0  0  0  0  0  0  0  0  0  0
  188.5230  177.2790  145.2380 S   0  0  0  0  0  1  0  0  0  0  0  0
  194.1520  174.3700  135.4730 C   0  0  0  0  0  2  0  0  0  0  0  0
  195.0670  175.1210  136.4320 C   0  0  2  0  0  3  0  0  0  0  0  0
  195.3140  176.4040  135.9430 O   0  0  0  0  0  1  0  0  0  0  0  0
  196.3820  174.3850  136.6740 C   0  0  0  0  0  2  0  0  0  0  0  0
  196.4980  173.8720  138.1030 C   0  0  0  0  0  1  0  0  0  0  0  0
  1  7  1  0  0  0  0
  1  8  1  0  0  0  0
  2 11  1  6  0  0  0
  2  9  1  0  0  0  0
  3 39  1  1  0  0  0
  3 10  1  0  0  0  0
  4  3  1  0  0  0  0
  4  6  1  0  0  0  0
  5  6  1  0  0  0  0
  5  2  1  0  0  0  0
  6  1  2  0  0  0  0
  8 30  1  6  0  0  0
  9  8  1  0  0  0  0
 10  7  2  0  0  0  0
 11 12  1  1  0  0  0
 13 14  1  0  0  0  0
 13 11  1  0  0  0  0
 14 15  1  0  0  0  0
 15 16  1  0  0  0  0
 17 16  1  0  0  0  0
 17 18  1  0  0  0  0
 18 21  1  0  0  0  0
 18 20  1  0  0  0  0
 20 19  1  0  0  0  0
 21 23  1  0  0  0  0
 22 26  1  1  0  0  0
 23 25  1  6  0  0  0
 23 24  1  0  0  0  0
 23 22  1  0  0  0  0
 24 22  1  0  0  0  0
 26 27  1  0  0  0  0
 27 29  1  0  0  0  0
 29 28  1  0  0  0  0
 30 35  1  0  0  0  0
 31 32  1  0  0  0  0
 32 37  1  1  0  0  0
 33 36  1  0  0  0  0
 34 31  1  0  0  0  0
 35 33  1  0  0  0  0
 35 34  2  0  0  0  0
 36 32  1  0  0  0  0
 37 38  1  0  0  0  0
 39 40  1  0  0  0  0
 40 41  1  6  0  0  0
 40 42  1  0  0  0  0
 42 43  1  0  0  0  0
M  END
>  <MODEL>
5

>  <REMARK>
 VINA RESULT:      -6.3      3.885      9.417
  Name = 
  19 active torsions:
  status: ('A' for Active; 'I' for Inactive)
    1  A    between atoms: C_1  and  C_34
    2  A    between atoms: C_1  and  C_35
    3  A    between atoms: C_2  and  C_6
    4  A    between atoms: C_2  and  C_13
    5  A    between atoms: C_3  and  C_12
    6  A    between atoms: C_3  and  C_15
    7  A    between atoms: N_4  and  C_15
    8  A    between atoms: N_4  and  C_22
    9  A    between atoms: N_4  and  C_42
   10  A    between atoms: C_5  and  C_18
   11  A    between atoms: C_5  and  C_23
   12  A    between atoms: C_6  and  C_17
   13  A    between atoms: C_11  and  C_36
   14  A    between atoms: C_12  and  C_17
   15  A    between atoms: C_14  and  C_22
   16  A    between atoms: C_16  and  C_23
   17  A    between atoms: C_19  and  O_25
   18  A    between atoms: C_29  and  C_31
   19  A    between atoms: C_29  and  C_36
                            x       y       z     vdW  Elec       q    Type
                         _______ _______ _______ _____ _____    ______ ____

>  <TORSDO>
F 19

$$$$
=
 OpenBabel11052416263D

 43 46  0  0  1  0  0  0  0  0999 V2000
  187.6390  177.6630  142.4720 C   0  0  0  0  0  0  0  0  0  0  0  0
  185.4210  179.0350  143.6460 C   0  0  2  0  0  3  0  0  0  0  0  0
  188.2040  177.9360  139.7090 C   0  0  2  0  0  3  0  0  0  0  0  0
  187.2940  178.7830  140.4150 O   0  0  0  0  0  0  0  0  0  0  0  0
  185.7760  179.1460  142.2660 O   0  0  0  0  0  0  0  0  0  0  0  0
  186.9120  178.5210  141.7350 C   0  0  0  0  0  0  0  0  0  0  0  0
  188.8200  177.0770  141.9070 N   0  0  0  0  0  0  0  0  0  0  0  0
  187.2880  177.3880  143.9150 C   0  0  2  0  0  3  0  0  0  0  0  0
  185.8060  177.6590  144.1870 C   0  0  0  0  0  2  0  0  0  0  0  0
  189.1270  177.2160  140.6520 C   0  0  0  0  0  3  0  0  0  0  0  0
  183.9330  179.2870  143.8380 C   0  0  2  0  0  3  0  0  0  0  0  0
  183.5170  178.7940  145.0650 F   0  0  0  0  0  0  0  0  0  0  0  0
  183.1470  178.6340  142.7140 C   0  0  0  0  0  2  0  0  0  0  0  0
  181.6690  178.9250  142.8710 C   0  0  0  0  0  2  0  0  0  0  0  0
  180.9670  178.7080  141.5450 C   0  0  0  0  0  2  0  0  0  0  0  0
  180.1650  179.9430  141.1690 C   0  0  0  0  0  2  0  0  0  0  0  0
  180.0600  180.0840  139.6540 C   0  0  0  0  0  2  0  0  0  0  0  0
  181.3360  179.7780  139.0200 N   0  0  0  0  0  0  0  0  0  0  0  0
  180.8170  181.8550  138.0990 O   0  0  0  0  0  1  0  0  0  0  0  0
  181.8670  181.0290  138.5060 C   0  0  0  0  0  2  0  0  0  0  0  0
  181.0500  178.9430  137.8620 C   0  0  0  0  0  2  0  0  0  0  0  0
  181.7400  176.5870  137.0430 C   0  0  2  0  0  3  0  0  0  0  0  0
  182.0990  177.8520  137.7290 C   0  0  2  0  0  0  0  0  0  0  0  0
  181.7780  176.6940  138.4530 O   0  0  0  0  0  0  0  0  0  0  0  0
  183.4490  178.1900  137.8610 O   0  0  0  0  0  1  0  0  0  0  0  0
  182.9570  175.8040  136.5690 C   0  0  0  0  0  2  0  0  0  0  0  0
  183.1550  174.5560  137.4130 C   0  0  0  0  0  2  0  0  0  0  0  0
  184.7920  172.8890  137.9310 O   0  0  0  0  0  1  0  0  0  0  0  0
  184.6310  174.2320  137.5810 C   0  0  0  0  0  2  0  0  0  0  0  0
  188.1500  178.2190  144.8650 C   0  0  0  0  0  2  0  0  0  0  0  0
  191.4630  176.3970  145.0600 C   0  0  0  0  0  2  0  0  0  0  0  0
  191.7190  176.5690  146.5510 C   0  0  1  0  0  3  0  0  0  0  0  0
  189.3050  177.0960  146.8810 C   0  0  0  0  0  2  0  0  0  0  0  0
  190.3030  177.1570  144.6350 N   0  0  0  0  0  0  0  0  0  0  0  0
  189.3000  177.4290  145.4050 C   0  0  0  0  0  0  0  0  0  0  0  0
  190.4490  176.1670  147.2800 C   0  0  0  0  0  2  0  0  0  0  0  0
  192.7680  175.7400  146.9460 O   0  0  0  0  0  0  0  0  0  0  0  0
  192.8200  175.8870  148.6570 S   0  0  0  0  0  1  0  0  0  0  0  0
  189.0130  178.7390  138.7030 C   0  0  0  0  0  2  0  0  0  0  0  0
  188.4840  178.5440  137.2880 C   0  0  2  0  0  3  0  0  0  0  0  0
  187.1090  178.7750  137.2610 O   0  0  0  0  0  1  0  0  0  0  0  0
  188.7980  177.1550  136.7380 C   0  0  0  0  0  2  0  0  0  0  0  0
  190.2410  176.7480  137.0010 C   0  0  0  0  0  1  0  0  0  0  0  0
  1  8  1  0  0  0  0
  2 11  1  6  0  0  0
  2  9  1  0  0  0  0
  3 39  1  6  0  0  0
  3  4  1  0  0  0  0
  3 10  1  0  0  0  0
  4  6  1  0  0  0  0
  5  2  1  0  0  0  0
  6  5  1  0  0  0  0
  6  1  2  0  0  0  0
  7  1  1  0  0  0  0
  8  9  1  0  0  0  0
  8 30  1  1  0  0  0
 10  7  2  0  0  0  0
 11 12  1  1  0  0  0
 13 14  1  0  0  0  0
 13 11  1  0  0  0  0
 15 14  1  0  0  0  0
 16 15  1  0  0  0  0
 17 16  1  0  0  0  0
 18 17  1  0  0  0  0
 19 20  1  0  0  0  0
 20 18  1  0  0  0  0
 21 18  1  0  0  0  0
 22 26  1  6  0  0  0
 22 23  1  0  0  0  0
 22 24  1  0  0  0  0
 23 25  1  6  0  0  0
 23 21  1  0  0  0  0
 23 24  1  0  0  0  0
 26 27  1  0  0  0  0
 27 29  1  0  0  0  0
 29 28  1  0  0  0  0
 30 35  1  0  0  0  0
 31 32  1  0  0  0  0
 32 37  1  1  0  0  0
 32 36  1  0  0  0  0
 33 36  1  0  0  0  0
 34 31  1  0  0  0  0
 34 35  2  0  0  0  0
 35 33  1  0  0  0  0
 37 38  1  0  0  0  0
 40 41  1  1  0  0  0
 40 39  1  0  0  0  0
 42 43  1  0  0  0  0
 42 40  1  0  0  0  0
M  END
>  <MODEL>
6

>  <REMARK>
 VINA RESULT:      -6.3      3.562      9.247
  Name = 
  19 active torsions:
  status: ('A' for Active; 'I' for Inactive)
    1  A    between atoms: C_1  and  C_34
    2  A    between atoms: C_1  and  C_35
    3  A    between atoms: C_2  and  C_6
    4  A    between atoms: C_2  and  C_13
    5  A    between atoms: C_3  and  C_12
    6  A    between atoms: C_3  and  C_15
    7  A    between atoms: N_4  and  C_15
    8  A    between atoms: N_4  and  C_22
    9  A    between atoms: N_4  and  C_42
   10  A    between atoms: C_5  and  C_18
   11  A    between atoms: C_5  and  C_23
   12  A    between atoms: C_6  and  C_17
   13  A    between atoms: C_11  and  C_36
   14  A    between atoms: C_12  and  C_17
   15  A    between atoms: C_14  and  C_22
   16  A    between atoms: C_16  and  C_23
   17  A    between atoms: C_19  and  O_25
   18  A    between atoms: C_29  and  C_31
   19  A    between atoms: C_29  and  C_36
                            x       y       z     vdW  Elec       q    Type
                         _______ _______ _______ _____ _____    ______ ____

>  <TORSDO>
F 19

$$$$
=
 OpenBabel11052416263D

 43 46  0  0  1  0  0  0  0  0999 V2000
  189.2860  176.2690  137.8900 C   0  0  0  0  0  0  0  0  0  0  0  0
  189.9890  177.5520  140.3470 C   0  0  2  0  0  3  0  0  0  0  0  0
  186.6830  176.5570  136.8070 C   0  0  2  0  0  3  0  0  0  0  0  0
  187.1880  177.3680  137.8710 O   0  0  0  0  0  0  0  0  0  0  0  0
  188.7040  177.6730  139.7340 O   0  0  0  0  0  0  0  0  0  0  0  0
  188.4120  177.0940  138.4920 C   0  0  0  0  0  0  0  0  0  0  0  0
  188.9690  175.7310  136.5990 N   0  0  0  0  0  0  0  0  0  0  0  0
  190.6350  175.9840  138.5050 C   0  0  2  0  0  3  0  0  0  0  0  0
  190.6100  176.1940  140.0210 C   0  0  0  0  0  2  0  0  0  0  0  0
  187.7960  175.8780  136.0580 C   0  0  0  0  0  3  0  0  0  0  0  0
  189.8840  177.7430  141.8530 C   0  0  2  0  0  3  0  0  0  0  0  0
  189.2260  178.9280  142.1430 F   0  0  0  0  0  0  0  0  0  0  0  0
  191.2700  177.7450  142.4730 C   0  0  0  0  0  2  0  0  0  0  0  0
  191.2990  176.8520  143.6960 C   0  0  0  0  0  2  0  0  0  0  0  0
  191.2920  177.7060  144.9470 C   0  0  0  0  0  2  0  0  0  0  0  0
  190.2490  177.1930  145.9270 C   0  0  0  0  0  2  0  0  0  0  0  0
  188.8460  177.3050  145.3380 C   0  0  0  0  0  2  0  0  0  0  0  0
  187.9250  177.8760  146.3120 N   0  0  0  0  0  0  0  0  0  0  0  0
  188.1990  178.5680  148.5210 O   0  0  0  0  0  1  0  0  0  0  0  0
  188.4240  177.5170  147.6300 C   0  0  0  0  0  2  0  0  0  0  0  0
  186.6520  177.1900  146.1510 C   0  0  0  0  0  2  0  0  0  0  0  0
  185.1990  178.7130  144.6450 C   0  0  2  0  0  3  0  0  0  0  0  0
  185.5270  178.1990  145.9970 C   0  0  2  0  0  0  0  0  0  0  0  0
  185.9760  179.4570  145.5650 O   0  0  0  0  0  0  0  0  0  0  0  0
  184.5720  178.3100  147.0120 O   0  0  0  0  0  1  0  0  0  0  0  0
  183.8050  179.3210  144.5640 C   0  0  0  0  0  2  0  0  0  0  0  0
  183.1510  178.9870  143.2340 C   0  0  0  0  0  2  0  0  0  0  0  0
  183.6090  178.2540  141.0020 O   0  0  0  0  0  1  0  0  0  0  0  0
  184.1270  178.2910  142.2980 C   0  0  0  0  0  2  0  0  0  0  0  0
  191.7260  176.8530  137.8790 C   0  0  0  0  0  2  0  0  0  0  0  0
  194.9720  175.9060  136.1760 C   0  0  0  0  0  2  0  0  0  0  0  0
  195.2130  174.5810  136.8880 C   0  0  1  0  0  3  0  0  0  0  0  0
  192.8140  174.5340  137.5640 C   0  0  0  0  0  2  0  0  0  0  0  0
  193.8440  176.6130  136.7520 N   0  0  0  0  0  0  0  0  0  0  0  0
  192.8410  176.0270  137.3190 C   0  0  0  0  0  0  0  0  0  0  0  0
  193.9200  173.7870  136.8230 C   0  0  0  0  0  2  0  0  0  0  0  0
  196.2280  173.8780  136.2410 O   0  0  0  0  0  0  0  0  0  0  0  0
  197.4260  173.6330  137.4470 S   0  0  0  0  0  1  0  0  0  0  0  0
  185.8460  177.3890  135.8500 C   0  0  0  0  0  2  0  0  0  0  0  0
  184.6120  176.6240  135.3860 C   0  0  2  0  0  3  0  0  0  0  0  0
  183.6590  177.5160  134.8960 O   0  0  0  0  0  1  0  0  0  0  0  0
  184.0120  175.7650  136.4960 C   0  0  0  0  0  2  0  0  0  0  0  0
  182.6050  176.2100  136.8670 C   0  0  0  0  0  1  0  0  0  0  0  0
  1  6  2  0  0  0  0
  1  8  1  0  0  0  0
  2 11  1  1  0  0  0
  3 39  1  6  0  0  0
  3  4  1  0  0  0  0
  4  6  1  0  0  0  0
  5  2  1  0  0  0  0
  6  5  1  0  0  0  0
  7  1  1  0  0  0  0
  8 30  1  6  0  0  0
  8  9  1  0  0  0  0
  9  2  1  0  0  0  0
 10  7  2  0  0  0  0
 10  3  1  0  0  0  0
 11 12  1  6  0  0  0
 11 13  1  0  0  0  0
 13 14  1  0  0  0  0
 14 15  1  0  0  0  0
 15 16  1  0  0  0  0
 17 16  1  0  0  0  0
 17 18  1  0  0  0  0
 18 20  1  0  0  0  0
 20 19  1  0  0  0  0
 21 18  1  0  0  0  0
 22 26  1  1  0  0  0
 22 24  1  0  0  0  0
 22 23  1  0  0  0  0
 23 21  1  0  0  0  0
 23 25  1  1  0  0  0
 24 23  1  0  0  0  0
 27 26  1  0  0  0  0
 28 29  1  0  0  0  0
 29 27  1  0  0  0  0
 31 34  1  0  0  0  0
 31 32  1  0  0  0  0
 32 37  1  6  0  0  0
 34 35  2  0  0  0  0
 35 33  1  0  0  0  0
 35 30  1  0  0  0  0
 36 32  1  0  0  0  0
 36 33  1  0  0  0  0
 37 38  1  0  0  0  0
 40 41  1  1  0  0  0
 40 39  1  0  0  0  0
 40 42  1  0  0  0  0
 42 43  1  0  0  0  0
M  END
>  <MODEL>
7

>  <REMARK>
 VINA RESULT:      -6.2      4.332      8.448
  Name = 
  19 active torsions:
  status: ('A' for Active; 'I' for Inactive)
    1  A    between atoms: C_1  and  C_34
    2  A    between atoms: C_1  and  C_35
    3  A    between atoms: C_2  and  C_6
    4  A    between atoms: C_2  and  C_13
    5  A    between atoms: C_3  and  C_12
    6  A    between atoms: C_3  and  C_15
    7  A    between atoms: N_4  and  C_15
    8  A    between atoms: N_4  and  C_22
    9  A    between atoms: N_4  and  C_42
   10  A    between atoms: C_5  and  C_18
   11  A    between atoms: C_5  and  C_23
   12  A    between atoms: C_6  and  C_17
   13  A    between atoms: C_11  and  C_36
   14  A    between atoms: C_12  and  C_17
   15  A    between atoms: C_14  and  C_22
   16  A    between atoms: C_16  and  C_23
   17  A    between atoms: C_19  and  O_25
   18  A    between atoms: C_29  and  C_31
   19  A    between atoms: C_29  and  C_36
                            x       y       z     vdW  Elec       q    Type
                         _______ _______ _______ _____ _____    ______ ____

>  <TORSDO>
F 19

$$$$
=
 OpenBabel11052416263D

 43 46  0  0  1  0  0  0  0  0999 V2000
  182.9900  179.1100  143.4420 C   0  0  0  0  0  0  0  0  0  0  0  0
  185.6530  178.4440  142.6400 C   0  0  2  0  0  3  0  0  0  0  0  0
  180.8320  178.8610  141.6220 C   0  0  2  0  0  3  0  0  0  0  0  0
  182.1280  178.3050  141.3880 O   0  0  0  0  0  0  0  0  0  0  0  0
  184.5170  178.3210  141.7820 O   0  0  0  0  0  0  0  0  0  0  0  0
  183.2140  178.5830  142.2250 C   0  0  0  0  0  0  0  0  0  0  0  0
  181.6390  179.3230  143.8760 N   0  0  0  0  0  0  0  0  0  0  0  0
  184.1300  179.3830  144.3920 C   0  0  2  0  0  3  0  0  0  0  0  0
  185.4460  179.5840  143.6380 C   0  0  0  0  0  2  0  0  0  0  0  0
  180.6250  179.1810  143.0760 C   0  0  0  0  0  3  0  0  0  0  0  0
  186.9180  178.6700  141.8260 C   0  0  2  0  0  3  0  0  0  0  0  0
  186.6390  178.5820  140.4700 F   0  0  0  0  0  0  0  0  0  0  0  0
  187.9740  177.6500  142.2140 C   0  0  0  0  0  2  0  0  0  0  0  0
  189.3540  178.2700  142.1380 C   0  0  0  0  0  2  0  0  0  0  0  0
  190.3820  177.1860  141.8850 C   0  0  0  0  0  2  0  0  0  0  0  0
  190.9360  177.3080  140.4750 C   0  0  0  0  0  2  0  0  0  0  0  0
  189.8480  177.0530  139.4370 C   0  0  0  0  0  2  0  0  0  0  0  0
  190.3440  177.3300  138.0950 N   0  0  0  0  0  0  0  0  0  0  0  0
  188.7830  179.0210  138.4650 O   0  0  0  0  0  1  0  0  0  0  0  0
  189.4060  178.2540  137.4790 C   0  0  0  0  0  2  0  0  0  0  0  0
  190.2580  176.0890  137.3410 C   0  0  0  0  0  2  0  0  0  0  0  0
  192.5760  174.9500  137.5170 C   0  0  2  0  0  3  0  0  0  0  0  0
  191.6070  175.7510  136.7290 C   0  0  2  0  0  0  0  0  0  0  0  0
  192.6800  176.3570  137.4020 O   0  0  0  0  0  0  0  0  0  0  0  0
  191.7590  175.8220  135.3410 O   0  0  0  0  0  1  0  0  0  0  0  0
  193.6470  174.2990  136.6530 C   0  0  0  0  0  2  0  0  0  0  0  0
  194.5600  173.4260  137.4970 C   0  0  0  0  0  2  0  0  0  0  0  0
  196.1860  175.1830  137.4680 O   0  0  0  0  0  1  0  0  0  0  0  0
  195.5400  174.2670  138.3010 C   0  0  0  0  0  2  0  0  0  0  0  0
  184.2840  178.2560  145.4140 C   0  0  0  0  0  2  0  0  0  0  0  0
  187.0930  179.1070  147.8040 C   0  0  0  0  0  2  0  0  0  0  0  0
  187.8900  177.8150  147.6730 C   0  0  1  0  0  3  0  0  0  0  0  0
  186.6820  177.3130  145.5510 C   0  0  0  0  0  2  0  0  0  0  0  0
  185.8260  179.0150  147.1050 N   0  0  0  0  0  0  0  0  0  0  0  0
  185.6320  178.2740  146.0620 C   0  0  0  0  0  0  0  0  0  0  0  0
  188.0520  177.5280  146.1910 C   0  0  0  0  0  2  0  0  0  0  0  0
  189.1450  177.9760  148.2600 O   0  0  0  0  0  0  0  0  0  0  0  0
  190.2120  177.0760  147.2590 S   0  0  0  0  0  1  0  0  0  0  0  0
  179.7470  177.9130  141.1390 C   0  0  0  0  0  2  0  0  0  0  0  0
  179.5290  178.0410  139.6360 C   0  0  2  0  0  3  0  0  0  0  0  0
  180.2760  177.0730  138.9660 O   0  0  0  0  0  1  0  0  0  0  0  0
  179.8800  179.4340  139.1170 C   0  0  0  0  0  2  0  0  0  0  0  0
  180.8480  179.3800  137.9430 C   0  0  0  0  0  1  0  0  0  0  0  0
  1  7  1  0  0  0  0
  1  8  1  0  0  0  0
  2 11  1  6  0  0  0
  2  9  1  0  0  0  0
  3 39  1  1  0  0  0
  3 10  1  0  0  0  0
  4  3  1  0  0  0  0
  4  6  1  0  0  0  0
  5  6  1  0  0  0  0
  5  2  1  0  0  0  0
  6  1  2  0  0  0  0
  8 30  1  1  0  0  0
  9  8  1  0  0  0  0
 10  7  2  0  0  0  0
 11 12  1  6  0  0  0
 11 13  1  0  0  0  0
 14 13  1  0  0  0  0
 15 14  1  0  0  0  0
 16 15  1  0  0  0  0
 17 16  1  0  0  0  0
 18 17  1  0  0  0  0
 20 18  1  0  0  0  0
 20 19  1  0  0  0  0
 21 18  1  0  0  0  0
 22 26  1  6  0  0  0
 23 25  1  6  0  0  0
 23 21  1  0  0  0  0
 23 24  1  0  0  0  0
 23 22  1  0  0  0  0
 24 22  1  0  0  0  0
 26 27  1  0  0  0  0
 27 29  1  0  0  0  0
 28 29  1  0  0  0  0
 30 35  1  0  0  0  0
 32 31  1  0  0  0  0
 32 37  1  6  0  0  0
 33 35  1  0  0  0  0
 33 36  1  0  0  0  0
 34 31  1  0  0  0  0
 35 34  2  0  0  0  0
 36 32  1  0  0  0  0
 38 37  1  0  0  0  0
 40 41  1  6  0  0  0
 40 39  1  0  0  0  0
 42 40  1  0  0  0  0
 43 42  1  0  0  0  0
M  END
>  <MODEL>
8

>  <REMARK>
 VINA RESULT:      -6.1      3.552      7.815
  Name = 
  19 active torsions:
  status: ('A' for Active; 'I' for Inactive)
    1  A    between atoms: C_1  and  C_34
    2  A    between atoms: C_1  and  C_35
    3  A    between atoms: C_2  and  C_6
    4  A    between atoms: C_2  and  C_13
    5  A    between atoms: C_3  and  C_12
    6  A    between atoms: C_3  and  C_15
    7  A    between atoms: N_4  and  C_15
    8  A    between atoms: N_4  and  C_22
    9  A    between atoms: N_4  and  C_42
   10  A    between atoms: C_5  and  C_18
   11  A    between atoms: C_5  and  C_23
   12  A    between atoms: C_6  and  C_17
   13  A    between atoms: C_11  and  C_36
   14  A    between atoms: C_12  and  C_17
   15  A    between atoms: C_14  and  C_22
   16  A    between atoms: C_16  and  C_23
   17  A    between atoms: C_19  and  O_25
   18  A    between atoms: C_29  and  C_31
   19  A    between atoms: C_29  and  C_36
                            x       y       z     vdW  Elec       q    Type
                         _______ _______ _______ _____ _____    ______ ____

>  <TORSDO>
F 19

$$$$
=
 OpenBabel11052416263D

 43 46  0  0  1  0  0  0  0  0999 V2000
  190.1730  177.3180  139.9150 C   0  0  0  0  0  0  0  0  0  0  0  0
  188.0330  177.4200  138.0210 C   0  0  2  0  0  3  0  0  0  0  0  0
  189.6620  177.6140  142.6860 C   0  0  2  0  0  3  0  0  0  0  0  0
  188.6370  177.3890  141.7150 O   0  0  0  0  0  0  0  0  0  0  0  0
  187.8430  177.5400  139.4330 O   0  0  0  0  0  0  0  0  0  0  0  0
  188.9020  177.4110  140.3410 C   0  0  0  0  0  0  0  0  0  0  0  0
  191.2250  177.1430  140.8740 N   0  0  0  0  0  0  0  0  0  0  0  0
  190.4980  177.2920  138.4410 C   0  0  2  0  0  3  0  0  0  0  0  0
  189.4000  177.9710  137.6180 C   0  0  0  0  0  2  0  0  0  0  0  0
  191.0150  177.2360  142.1540 C   0  0  0  0  0  3  0  0  0  0  0  0
  186.9240  178.1410  137.2690 C   0  0  2  0  0  3  0  0  0  0  0  0
  185.9880  178.6450  138.1590 F   0  0  0  0  0  0  0  0  0  0  0  0
  186.2600  177.1910  136.2880 C   0  0  0  0  0  2  0  0  0  0  0  0
  184.9550  176.6770  136.8580 C   0  0  0  0  0  2  0  0  0  0  0  0
  184.3300  175.6950  135.8870 C   0  0  0  0  0  2  0  0  0  0  0  0
  183.3660  174.7760  136.6180 C   0  0  0  0  0  2  0  0  0  0  0  0
  181.9540  175.3550  136.6200 C   0  0  0  0  0  2  0  0  0  0  0  0
  181.4830  175.5560  137.9840 N   0  0  0  0  0  0  0  0  0  0  0  0
  179.9930  174.1080  139.0390 O   0  0  0  0  0  1  0  0  0  0  0  0
  180.1140  175.0720  138.0360 C   0  0  0  0  0  2  0  0  0  0  0  0
  181.4220  176.9920  138.2100 C   0  0  0  0  0  2  0  0  0  0  0  0
  183.0840  177.7980  140.0240 C   0  0  2  0  0  3  0  0  0  0  0  0
  181.7300  177.3100  139.6640 C   0  0  2  0  0  0  0  0  0  0  0  0
  182.6930  176.4520  140.2180 O   0  0  0  0  0  0  0  0  0  0  0  0
  180.6710  177.5400  140.5460 O   0  0  0  0  0  1  0  0  0  0  0  0
  183.1180  178.5070  141.3710 C   0  0  0  0  0  2  0  0  0  0  0  0
  184.3680  178.1260  142.1460 C   0  0  0  0  0  2  0  0  0  0  0  0
  185.6770  179.7520  140.9750 O   0  0  0  0  0  1  0  0  0  0  0  0
  185.3320  179.2980  142.2490 C   0  0  0  0  0  2  0  0  0  0  0  0
  190.7100  175.8620  137.9430 C   0  0  0  0  0  2  0  0  0  0  0  0
  193.0400  175.9120  134.9610 C   0  0  0  0  0  2  0  0  0  0  0  0
  194.3420  176.1800  135.7050 C   0  0  1  0  0  3  0  0  0  0  0  0
  193.2530  175.4440  137.8240 C   0  0  0  0  0  2  0  0  0  0  0  0
  191.8990  176.0030  135.8500 N   0  0  0  0  0  0  0  0  0  0  0  0
  191.9500  175.7400  137.1150 C   0  0  0  0  0  0  0  0  0  0  0  0
  194.4140  175.1990  136.8630 C   0  0  0  0  0  2  0  0  0  0  0  0
  195.4230  175.9750  134.8500 O   0  0  0  0  0  0  0  0  0  0  0  0
  196.6440  175.2910  135.8450 S   0  0  0  0  0  1  0  0  0  0  0  0
  189.3710  176.8420  143.9620 C   0  0  0  0  0  2  0  0  0  0  0  0
  188.6310  177.7070  144.9750 C   0  0  2  0  0  3  0  0  0  0  0  0
  189.1030  177.4400  146.2590 O   0  0  0  0  0  1  0  0  0  0  0  0
  187.1190  177.5030  144.9150 C   0  0  0  0  0  2  0  0  0  0  0  0
  186.4440  177.8260  146.2410 C   0  0  0  0  0  1  0  0  0  0  0  0
  1  6  2  0  0  0  0
  1  7  1  0  0  0  0
  2 11  1  6  0  0  0
  2  5  1  0  0  0  0
  3 39  1  1  0  0  0
  4  3  1  0  0  0  0
  5  6  1  0  0  0  0
  6  4  1  0  0  0  0
  7 10  2  0  0  0  0
  8 30  1  6  0  0  0
  8  1  1  0  0  0  0
  9  2  1  0  0  0  0
  9  8  1  0  0  0  0
 10  3  1  0  0  0  0
 11 12  1  1  0  0  0
 13 14  1  0  0  0  0
 13 11  1  0  0  0  0
 15 16  1  0  0  0  0
 15 14  1  0  0  0  0
 16 17  1  0  0  0  0
 17 18  1  0  0  0  0
 18 20  1  0  0  0  0
 18 21  1  0  0  0  0
 20 19  1  0  0  0  0
 21 23  1  0  0  0  0
 22 24  1  0  0  0  0
 22 26  1  1  0  0  0
 23 22  1  0  0  0  0
 23 24  1  0  0  0  0
 23 25  1  1  0  0  0
 26 27  1  0  0  0  0
 27 29  1  0  0  0  0
 28 29  1  0  0  0  0
 31 32  1  0  0  0  0
 31 34  1  0  0  0  0
 32 37  1  6  0  0  0
 32 36  1  0  0  0  0
 34 35  2  0  0  0  0
 35 33  1  0  0  0  0
 35 30  1  0  0  0  0
 36 33  1  0  0  0  0
 37 38  1  0  0  0  0
 39 40  1  0  0  0  0
 40 41  1  1  0  0  0
 42 40  1  0  0  0  0
 42 43  1  0  0  0  0
M  END
>  <MODEL>
9

>  <REMARK>
 VINA RESULT:      -6.0      4.219     10.314
  Name = 
  19 active torsions:
  status: ('A' for Active; 'I' for Inactive)
    1  A    between atoms: C_1  and  C_34
    2  A    between atoms: C_1  and  C_35
    3  A    between atoms: C_2  and  C_6
    4  A    between atoms: C_2  and  C_13
    5  A    between atoms: C_3  and  C_12
    6  A    between atoms: C_3  and  C_15
    7  A    between atoms: N_4  and  C_15
    8  A    between atoms: N_4  and  C_22
    9  A    between atoms: N_4  and  C_42
   10  A    between atoms: C_5  and  C_18
   11  A    between atoms: C_5  and  C_23
   12  A    between atoms: C_6  and  C_17
   13  A    between atoms: C_11  and  C_36
   14  A    between atoms: C_12  and  C_17
   15  A    between atoms: C_14  and  C_22
   16  A    between atoms: C_16  and  C_23
   17  A    between atoms: C_19  and  O_25
   18  A    between atoms: C_29  and  C_31
   19  A    between atoms: C_29  and  C_36
                            x       y       z     vdW  Elec       q    Type
                         _______ _______ _______ _____ _____    ______ ____

>  <TORSDO>
F 19

$$$$
