=
 OpenBabel11052414413D

 32 37  0  0  1  0  0  0  0  0999 V2000
  185.3170  178.1080  144.7110 C   0  0  2  0  0  3  0  0  0  0  0  0
  187.4650  177.0890  143.6500 C   0  0  2  0  0  3  0  0  0  0  0  0
  185.3530  179.5250  145.2940 C   0  0  0  0  0  2  0  0  0  0  0  0
  186.6650  177.3580  144.8950 C   0  0  1  0  0  3  0  0  0  0  0  0
  188.7850  176.3760  143.8820 C   0  0  1  0  0  3  0  0  0  0  0  0
  189.0380  178.9740  139.4310 C   0  0  0  0  0  2  0  0  0  0  0  0
  187.1030  177.5850  142.4530 C   0  0  0  0  0  0  0  0  0  0  0  0
  190.3750  177.0800  140.4270 C   0  0  0  0  0  2  0  0  0  0  0  0
  189.4780  177.3190  141.6480 C   0  0  2  0  0  3  0  0  0  0  0  0
  187.6050  178.0820  145.8750 C   0  0  2  0  0  3  0  0  0  0  0  0
  189.6180  176.1560  142.6130 C   0  0  0  0  0  2  0  0  0  0  0  0
  188.7440  177.2320  146.2070 N   0  0  0  0  0  2  0  0  0  0  0  0
  186.8500  178.5090  147.1250 C   0  0  0  0  0  2  0  0  0  0  0  0
  185.7810  178.0980  142.2760 N   0  0  0  0  0  0  0  0  0  0  0  0
  184.8450  178.1260  143.3220 N   0  0  0  0  0  0  0  0  0  0  0  0
  188.0040  177.4710  141.2480 C   0  0  2  0  0  3  0  0  0  0  0  0
  189.5740  177.0790  145.0050 C   0  0  1  0  0  3  0  0  0  0  0  0
  185.7160  179.4920  146.7850 C   0  0  0  0  0  2  0  0  0  0  0  0
  189.8330  177.7080  139.1360 C   0  0  0  0  0  2  0  0  0  0  0  0
  187.8110  178.6690  140.2990 C   0  0  0  0  0  2  0  0  0  0  0  0
  182.0280  179.0220  141.0770 C   0  0  0  0  0  0  0  0  0  0  0  0
  179.1290  179.4370  142.9590 O   0  0  0  0  0  1  0  0  0  0  0  0
  181.6570  178.9060  139.7410 O   0  0  0  0  0  1  0  0  0  0  0  0
  181.1050  178.6200  143.9310 C   0  0  0  0  0  3  0  0  0  0  0  0
  183.4440  178.2990  143.0100 C   0  0  0  0  0  0  0  0  0  0  0  0
  181.3080  180.0220  141.9160 C   0  0  0  0  0  2  0  0  0  0  0  0
  182.5600  178.3950  144.0260 C   0  0  0  0  0  3  0  0  0  0  0  0
  183.0050  178.2470  141.5800 C   0  0  0  0  0  0  0  0  0  0  0  0
  183.6690  177.2570  140.6760 C   0  0  0  0  0  1  0  0  0  0  0  0
  180.5120  179.3240  142.9680 C   0  0  0  0  0  0  0  0  0  0  0  0
  190.8590  176.3320  145.3590 C   0  0  0  0  0  2  0  0  0  0  0  0
  191.6810  177.1160  146.2670 N   0  0  0  0  0  1  0  0  0  0  0  0
  1  4  1  0  0  0  0
  1  3  1  6  0  0  0
  2  7  1  1  0  0  0
  2  5  1  0  0  0  0
  2  4  1  0  0  0  0
  3 18  1  0  0  0  0
  4 10  1  0  0  0  0
  5 17  1  0  0  0  0
  6 20  1  0  0  0  0
  8  9  1  0  0  0  0
  9 11  1  0  0  0  0
 10 12  1  0  0  0  0
 10 13  1  0  0  0  0
 11  5  1  0  0  0  0
 14  7  2  0  0  0  0
 14 15  1  0  0  0  0
 15  1  1  0  0  0  0
 16  9  1  0  0  0  0
 16  7  1  0  0  0  0
 17 31  1  0  0  0  0
 17 12  1  0  0  0  0
 18 13  1  0  0  0  0
 19  6  1  0  0  0  0
 19  8  1  0  0  0  0
 20 16  1  0  0  0  0
 21 28  2  0  0  0  0
 21 26  1  0  0  0  0
 22 30  1  0  0  0  0
 23 21  1  0  0  0  0
 24 27  1  0  0  0  0
 25 15  1  0  0  0  0
 25 27  2  0  0  0  0
 26 30  1  0  0  0  0
 28 25  1  0  0  0  0
 29 28  1  0  0  0  0
 30 24  2  0  0  0  0
 31 32  1  0  0  0  0
M  END
>  <MODEL>
1

>  <REMARK>
 VINA RESULT:      -8.5      0.000      0.000
  Name = 
  2 active torsions:
  status: ('A' for Active; 'I' for Inactive)
    1  A    between atoms: C_13  and  C_29
    2  A    between atoms: C_16  and  N_27
                            x       y       z     vdW  Elec       q    Type
                         _______ _______ _______ _____ _____    ______ ____

>  <TORSDO>
F 2

$$$$
=
 OpenBabel11052414413D

 32 37  0  0  1  0  0  0  0  0999 V2000
  184.9470  178.2550  138.1560 C   0  0  2  0  0  3  0  0  0  0  0  0
  187.2010  178.2690  139.4580 C   0  0  2  0  0  3  0  0  0  0  0  0
  184.2380  176.9260  137.8720 C   0  0  0  0  0  2  0  0  0  0  0  0
  186.4940  178.1160  138.1390 C   0  0  1  0  0  3  0  0  0  0  0  0
  188.7080  178.1020  139.3970 C   0  0  1  0  0  3  0  0  0  0  0  0
  187.1010  177.1090  144.1980 C   0  0  0  0  0  2  0  0  0  0  0  0
  186.5250  178.3890  140.6150 C   0  0  0  0  0  0  0  0  0  0  0  0
  189.3430  177.6760  143.1880 C   0  0  0  0  0  2  0  0  0  0  0  0
  188.5700  177.6040  141.8650 C   0  0  2  0  0  3  0  0  0  0  0  0
  186.9510  176.7720  137.5480 C   0  0  2  0  0  3  0  0  0  0  0  0
  189.4130  178.2050  140.7550 C   0  0  0  0  0  2  0  0  0  0  0  0
  188.3940  176.7810  137.3240 N   0  0  0  0  0  2  0  0  0  0  0  0
  186.1940  176.4660  136.2640 C   0  0  0  0  0  2  0  0  0  0  0  0
  185.1320  178.7040  140.5860 N   0  0  0  0  0  0  0  0  0  0  0  0
  184.4290  178.8720  139.3830 N   0  0  0  0  0  0  0  0  0  0  0  0
  187.2330  178.3530  141.9480 C   0  0  2  0  0  3  0  0  0  0  0  0
  189.0640  176.8120  138.6310 C   0  0  1  0  0  3  0  0  0  0  0  0
  184.6810  176.3490  136.5200 C   0  0  0  0  0  2  0  0  0  0  0  0
  188.4380  177.8080  144.4200 C   0  0  0  0  0  2  0  0  0  0  0  0
  186.3280  177.7470  143.0370 C   0  0  0  0  0  2  0  0  0  0  0  0
  180.7740  179.0310  140.0060 C   0  0  0  0  0  0  0  0  0  0  0  0
  179.4450  181.8280  138.4160 O   0  0  0  0  0  1  0  0  0  0  0  0
  179.8320  178.5740  140.9230 O   0  0  0  0  0  1  0  0  0  0  0  0
  181.7640  181.4640  138.5020 C   0  0  0  0  0  3  0  0  0  0  0  0
  183.1480  179.5410  139.4010 C   0  0  0  0  0  0  0  0  0  0  0  0
  180.2840  179.5040  138.6800 C   0  0  0  0  0  2  0  0  0  0  0  0
  182.9900  180.6600  138.6620 C   0  0  0  0  0  3  0  0  0  0  0  0
  182.0800  179.0440  140.3240 C   0  0  0  0  0  0  0  0  0  0  0  0
  182.4900  178.5670  141.6820 C   0  0  0  0  0  1  0  0  0  0  0  0
  180.5280  180.9690  138.5390 C   0  0  0  0  0  0  0  0  0  0  0  0
  190.5720  176.6560  138.4380 C   0  0  0  0  0  2  0  0  0  0  0  0
  190.9340  175.2550  138.2900 N   0  0  0  0  0  1  0  0  0  0  0  0
  1  3  1  1  0  0  0
  1 15  1  0  0  0  0
  2  7  1  1  0  0  0
  4  1  1  0  0  0  0
  4  2  1  0  0  0  0
  5  2  1  0  0  0  0
  5 11  1  0  0  0  0
  6 19  1  0  0  0  0
  7 16  1  0  0  0  0
  8 19  1  0  0  0  0
  9 16  1  0  0  0  0
  9  8  1  0  0  0  0
 10  4  1  0  0  0  0
 11  9  1  0  0  0  0
 12 10  1  0  0  0  0
 12 17  1  0  0  0  0
 13 18  1  0  0  0  0
 13 10  1  0  0  0  0
 14  7  2  0  0  0  0
 15 25  1  0  0  0  0
 15 14  1  0  0  0  0
 16 20  1  0  0  0  0
 17  5  1  0  0  0  0
 18  3  1  0  0  0  0
 20  6  1  0  0  0  0
 21 28  2  0  0  0  0
 21 23  1  0  0  0  0
 22 30  1  0  0  0  0
 24 30  2  0  0  0  0
 24 27  1  0  0  0  0
 25 28  1  0  0  0  0
 26 21  1  0  0  0  0
 27 25  2  0  0  0  0
 28 29  1  0  0  0  0
 30 26  1  0  0  0  0
 31 17  1  0  0  0  0
 32 31  1  0  0  0  0
M  END
>  <MODEL>
2

>  <REMARK>
 VINA RESULT:      -8.4      2.874      5.638
  Name = 
  2 active torsions:
  status: ('A' for Active; 'I' for Inactive)
    1  A    between atoms: C_13  and  C_29
    2  A    between atoms: C_16  and  N_27
                            x       y       z     vdW  Elec       q    Type
                         _______ _______ _______ _____ _____    ______ ____

>  <TORSDO>
F 2

$$$$
=
 OpenBabel11052414413D

 32 37  0  0  1  0  0  0  0  0999 V2000
  189.1500  177.0000  138.2720 C   0  0  2  0  0  3  0  0  0  0  0  0
  188.4740  177.1960  140.7780 C   0  0  2  0  0  3  0  0  0  0  0  0
  189.4680  178.2650  137.4660 C   0  0  0  0  0  2  0  0  0  0  0  0
  188.0450  177.2390  139.3380 C   0  0  1  0  0  3  0  0  0  0  0  0
  187.3660  177.4590  141.7820 C   0  0  1  0  0  3  0  0  0  0  0  0
  191.9070  178.5730  143.9630 C   0  0  0  0  0  2  0  0  0  0  0  0
  189.7680  177.0880  141.1300 C   0  0  0  0  0  0  0  0  0  0  0  0
  189.6000  178.1070  144.8720 C   0  0  0  0  0  2  0  0  0  0  0  0
  189.2130  178.0640  143.3880 C   0  0  2  0  0  3  0  0  0  0  0  0
  187.3200  178.5810  139.1330 C   0  0  2  0  0  3  0  0  0  0  0  0
  187.8250  177.4670  143.2460 C   0  0  0  0  0  2  0  0  0  0  0  0
  186.1420  178.6550  139.9910 N   0  0  0  0  0  2  0  0  0  0  0  0
  186.9530  178.7740  137.6690 C   0  0  0  0  0  2  0  0  0  0  0  0
  190.7300  176.6810  140.1550 N   0  0  0  0  0  0  0  0  0  0  0  0
  190.3750  176.4100  138.8240 N   0  0  0  0  0  0  0  0  0  0  0  0
  190.2090  177.2340  142.5660 C   0  0  2  0  0  3  0  0  0  0  0  0
  186.5890  178.7310  141.3880 C   0  0  1  0  0  3  0  0  0  0  0  0
  188.2060  178.8030  136.7770 C   0  0  0  0  0  2  0  0  0  0  0  0
  191.1090  177.9750  145.1160 C   0  0  0  0  0  2  0  0  0  0  0  0
  191.6260  177.8310  142.6510 C   0  0  0  0  0  2  0  0  0  0  0  0
  193.3230  176.0710  136.5950 C   0  0  0  0  0  0  0  0  0  0  0  0
  193.1740  173.0190  134.9280 O   0  0  0  0  0  1  0  0  0  0  0  0
  194.6170  176.5670  136.4620 O   0  0  0  0  0  1  0  0  0  0  0  0
  191.6460  173.5510  136.6300 C   0  0  0  0  0  3  0  0  0  0  0  0
  191.2870  175.6590  137.9890 C   0  0  0  0  0  0  0  0  0  0  0  0
  192.7050  175.4110  135.4100 C   0  0  0  0  0  2  0  0  0  0  0  0
  190.8970  174.4530  137.5270 C   0  0  0  0  0  3  0  0  0  0  0  0
  192.6680  176.1870  137.7640 C   0  0  0  0  0  0  0  0  0  0  0  0
  193.3640  176.8490  138.9110 C   0  0  0  0  0  1  0  0  0  0  0  0
  192.4940  173.9600  135.6870 C   0  0  0  0  0  0  0  0  0  0  0  0
  185.3880  178.9760  142.2990 C   0  0  0  0  0  2  0  0  0  0  0  0
  184.2220  178.2440  141.8290 N   0  0  0  0  0  1  0  0  0  0  0  0
  1  3  1  1  0  0  0
  1 15  1  0  0  0  0
  1  4  1  0  0  0  0
  2  7  1  6  0  0  0
  2  5  1  0  0  0  0
  4  2  1  0  0  0  0
  5 11  1  0  0  0  0
  6 19  1  0  0  0  0
  7 16  1  0  0  0  0
  8 19  1  0  0  0  0
  9  8  1  0  0  0  0
 10  4  1  0  0  0  0
 10 12  1  0  0  0  0
 11  9  1  0  0  0  0
 12 17  1  0  0  0  0
 13 10  1  0  0  0  0
 14  7  2  0  0  0  0
 15 14  1  0  0  0  0
 16 20  1  0  0  0  0
 16  9  1  0  0  0  0
 17  5  1  0  0  0  0
 17 31  1  0  0  0  0
 18  3  1  0  0  0  0
 18 13  1  0  0  0  0
 20  6  1  0  0  0  0
 21 28  2  0  0  0  0
 22 30  1  0  0  0  0
 23 21  1  0  0  0  0
 24 27  1  0  0  0  0
 25 15  1  0  0  0  0
 26 30  1  0  0  0  0
 26 21  1  0  0  0  0
 27 25  2  0  0  0  0
 28 25  1  0  0  0  0
 28 29  1  0  0  0  0
 30 24  2  0  0  0  0
 32 31  1  0  0  0  0
M  END
>  <MODEL>
3

>  <REMARK>
 VINA RESULT:      -8.3      4.814      8.883
  Name = 
  2 active torsions:
  status: ('A' for Active; 'I' for Inactive)
    1  A    between atoms: C_13  and  C_29
    2  A    between atoms: C_16  and  N_27
                            x       y       z     vdW  Elec       q    Type
                         _______ _______ _______ _____ _____    ______ ____

>  <TORSDO>
F 2

$$$$
=
 OpenBabel11052414413D

 32 37  0  0  1  0  0  0  0  0999 V2000
  189.4260  177.7570  142.8100 C   0  0  2  0  0  3  0  0  0  0  0  0
  189.7830  176.9360  140.3650 C   0  0  2  0  0  3  0  0  0  0  0  0
  189.8970  179.1570  143.2210 C   0  0  0  0  0  2  0  0  0  0  0  0
  190.3540  177.1090  141.7460 C   0  0  1  0  0  3  0  0  0  0  0  0
  190.7330  176.3210  139.3540 C   0  0  1  0  0  3  0  0  0  0  0  0
  187.1460  179.0510  136.8440 C   0  0  0  0  0  2  0  0  0  0  0  0
  188.5800  177.4350  140.0280 C   0  0  0  0  0  0  0  0  0  0  0  0
  188.7620  177.2400  136.1560 C   0  0  0  0  0  2  0  0  0  0  0  0
  189.2600  177.3760  137.6000 C   0  0  2  0  0  3  0  0  0  0  0  0
  191.6770  177.8770  141.5820 C   0  0  2  0  0  3  0  0  0  0  0  0
  190.1600  176.2010  137.9370 C   0  0  0  0  0  2  0  0  0  0  0  0
  192.6120  177.1080  140.7660 N   0  0  0  0  0  2  0  0  0  0  0  0
  192.2750  178.2110  142.9420 C   0  0  0  0  0  2  0  0  0  0  0  0
  187.6770  177.8490  141.0560 N   0  0  0  0  0  0  0  0  0  0  0  0
  188.0120  177.7760  142.4170 N   0  0  0  0  0  0  0  0  0  0  0  0
  188.0950  177.4240  138.5990 C   0  0  2  0  0  3  0  0  0  0  0  0
  192.0900  177.0530  139.3940 C   0  0  1  0  0  3  0  0  0  0  0  0
  191.3340  179.1110  143.7610 C   0  0  0  0  0  2  0  0  0  0  0  0
  187.3770  177.8580  135.9240 C   0  0  0  0  0  2  0  0  0  0  0  0
  187.1770  178.6280  138.3180 C   0  0  0  0  0  2  0  0  0  0  0  0
  184.8050  179.0670  143.7680 C   0  0  0  0  0  0  0  0  0  0  0  0
  184.5550  178.2530  147.1440 O   0  0  0  0  0  1  0  0  0  0  0  0
  183.5410  179.4430  143.3250 O   0  0  0  0  0  1  0  0  0  0  0  0
  186.3050  177.4190  145.8170 C   0  0  0  0  0  3  0  0  0  0  0  0
  186.9610  177.8480  143.4070 C   0  0  0  0  0  0  0  0  0  0  0  0
  185.2350  179.5250  145.1200 C   0  0  0  0  0  2  0  0  0  0  0  0
  187.2130  177.3960  144.6540 C   0  0  0  0  0  3  0  0  0  0  0  0
  185.6000  178.3100  142.9910 C   0  0  0  0  0  0  0  0  0  0  0  0
  185.0900  177.8780  141.6530 C   0  0  0  0  0  1  0  0  0  0  0  0
  185.3810  178.3540  146.0330 C   0  0  0  0  0  0  0  0  0  0  0  0
  193.1230  176.3980  138.4780 C   0  0  0  0  0  2  0  0  0  0  0  0
  194.3050  176.0050  139.2280 N   0  0  0  0  0  1  0  0  0  0  0  0
  1  3  1  6  0  0  0
  2  7  1  6  0  0  0
  2  4  1  0  0  0  0
  3 18  1  0  0  0  0
  4  1  1  0  0  0  0
  5 17  1  0  0  0  0
  5  2  1  0  0  0  0
  6 20  1  0  0  0  0
  7 14  2  0  0  0  0
  8  9  1  0  0  0  0
  9 11  1  0  0  0  0
  9 16  1  0  0  0  0
 10  4  1  0  0  0  0
 10 13  1  0  0  0  0
 11  5  1  0  0  0  0
 12 10  1  0  0  0  0
 13 18  1  0  0  0  0
 14 15  1  0  0  0  0
 15  1  1  0  0  0  0
 15 25  1  0  0  0  0
 16  7  1  0  0  0  0
 17 12  1  0  0  0  0
 19  8  1  0  0  0  0
 19  6  1  0  0  0  0
 20 16  1  0  0  0  0
 21 26  1  0  0  0  0
 23 21  1  0  0  0  0
 24 30  2  0  0  0  0
 25 27  2  0  0  0  0
 26 30  1  0  0  0  0
 27 24  1  0  0  0  0
 28 25  1  0  0  0  0
 28 21  2  0  0  0  0
 29 28  1  0  0  0  0
 30 22  1  0  0  0  0
 31 32  1  0  0  0  0
 31 17  1  0  0  0  0
M  END
>  <MODEL>
4

>  <REMARK>
 VINA RESULT:      -7.9      2.952      4.895
  Name = 
  2 active torsions:
  status: ('A' for Active; 'I' for Inactive)
    1  A    between atoms: C_13  and  C_29
    2  A    between atoms: C_16  and  N_27
                            x       y       z     vdW  Elec       q    Type
                         _______ _______ _______ _____ _____    ______ ____

>  <TORSDO>
F 2

$$$$
=
 OpenBabel11052414413D

 32 37  0  0  1  0  0  0  0  0999 V2000
  188.8010  177.6150  141.4840 C   0  0  2  0  0  3  0  0  0  0  0  0
  186.4300  178.6210  141.1040 C   0  0  2  0  0  3  0  0  0  0  0  0
  188.9470  176.2070  142.0730 C   0  0  0  0  0  2  0  0  0  0  0  0
  187.5690  178.3700  142.0540 C   0  0  1  0  0  3  0  0  0  0  0  0
  185.2390  179.3400  141.7120 C   0  0  1  0  0  3  0  0  0  0  0  0
  183.6650  176.6700  137.5860 C   0  0  0  0  0  2  0  0  0  0  0  0
  186.4170  178.1040  139.8620 C   0  0  0  0  0  0  0  0  0  0  0  0
  182.6840  178.5820  138.9090 C   0  0  0  0  0  2  0  0  0  0  0  0
  183.9080  178.3610  139.8060 C   0  0  2  0  0  3  0  0  0  0  0  0
  186.9710  177.6640  143.2830 C   0  0  2  0  0  3  0  0  0  0  0  0
  184.0620  179.5410  140.7490 C   0  0  0  0  0  2  0  0  0  0  0  0
  185.9820  178.5210  143.9290 N   0  0  0  0  0  2  0  0  0  0  0  0
  188.0690  177.2550  144.2540 C   0  0  0  0  0  2  0  0  0  0  0  0
  187.6250  177.5860  139.3030 N   0  0  0  0  0  0  0  0  0  0  0  0
  188.8330  177.5730  140.0180 N   0  0  0  0  0  0  0  0  0  0  0  0
  185.1930  178.2010  138.9820 C   0  0  2  0  0  3  0  0  0  0  0  0
  184.8280  178.6560  143.0310 C   0  0  1  0  0  3  0  0  0  0  0  0
  189.0510  176.2650  143.6040 C   0  0  0  0  0  2  0  0  0  0  0  0
  182.8140  177.9330  137.5240 C   0  0  0  0  0  2  0  0  0  0  0  0
  185.0950  176.9880  138.0390 C   0  0  0  0  0  2  0  0  0  0  0  0
  190.8480  176.5950  137.0580 C   0  0  0  0  0  0  0  0  0  0  0  0
  194.1880  176.2700  137.9830 O   0  0  0  0  0  1  0  0  0  0  0  0
  190.7930  176.6580  135.6690 O   0  0  0  0  0  1  0  0  0  0  0  0
  192.5880  177.1190  139.4780 C   0  0  0  0  0  3  0  0  0  0  0  0
  190.0760  177.3930  139.3010 C   0  0  0  0  0  0  0  0  0  0  0  0
  191.8050  175.6340  137.6760 C   0  0  0  0  0  2  0  0  0  0  0  0
  191.2270  177.3420  140.0030 C   0  0  0  0  0  3  0  0  0  0  0  0
  190.0580  177.3870  137.8050 C   0  0  0  0  0  0  0  0  0  0  0  0
  189.1340  178.3360  137.1080 C   0  0  0  0  0  1  0  0  0  0  0  0
  192.8720  176.3780  138.4080 C   0  0  0  0  0  0  0  0  0  0  0  0
  183.7080  179.4110  143.7450 C   0  0  0  0  0  2  0  0  0  0  0  0
  183.7240  179.1360  145.1730 N   0  0  0  0  0  1  0  0  0  0  0  0
  1  4  1  0  0  0  0
  1  3  1  1  0  0  0
  2  7  1  1  0  0  0
  2  5  1  0  0  0  0
  2  4  1  0  0  0  0
  3 18  1  0  0  0  0
  4 10  1  0  0  0  0
  5 17  1  0  0  0  0
  6 20  1  0  0  0  0
  8  9  1  0  0  0  0
  9 11  1  0  0  0  0
 10 12  1  0  0  0  0
 10 13  1  0  0  0  0
 11  5  1  0  0  0  0
 14  7  2  0  0  0  0
 14 15  1  0  0  0  0
 15  1  1  0  0  0  0
 16  9  1  0  0  0  0
 16  7  1  0  0  0  0
 17 31  1  0  0  0  0
 17 12  1  0  0  0  0
 18 13  1  0  0  0  0
 19  6  1  0  0  0  0
 19  8  1  0  0  0  0
 20 16  1  0  0  0  0
 21 26  1  0  0  0  0
 21 28  2  0  0  0  0
 22 30  1  0  0  0  0
 23 21  1  0  0  0  0
 24 27  1  0  0  0  0
 25 27  2  0  0  0  0
 25 15  1  0  0  0  0
 26 30  1  0  0  0  0
 28 25  1  0  0  0  0
 29 28  1  0  0  0  0
 30 24  2  0  0  0  0
 31 32  1  0  0  0  0
M  END
>  <MODEL>
5

>  <REMARK>
 VINA RESULT:      -7.6      3.799      7.600
  Name = 
  2 active torsions:
  status: ('A' for Active; 'I' for Inactive)
    1  A    between atoms: C_13  and  C_29
    2  A    between atoms: C_16  and  N_27
                            x       y       z     vdW  Elec       q    Type
                         _______ _______ _______ _____ _____    ______ ____

>  <TORSDO>
F 2

$$$$
=
 OpenBabel11052414413D

 32 37  0  0  1  0  0  0  0  0999 V2000
  191.0870  176.7770  143.5640 C   0  0  2  0  0  3  0  0  0  0  0  0
  189.1480  177.9020  144.8880 C   0  0  2  0  0  3  0  0  0  0  0  0
  191.1850  175.2480  143.5070 C   0  0  0  0  0  2  0  0  0  0  0  0
  190.5190  177.2830  144.9190 C   0  0  1  0  0  3  0  0  0  0  0  0
  188.6250  178.3600  146.2370 C   0  0  1  0  0  3  0  0  0  0  0  0
  184.6290  177.5040  143.0870 C   0  0  0  0  0  2  0  0  0  0  0  0
  188.3950  177.9000  143.7730 C   0  0  0  0  0  0  0  0  0  0  0  0
  184.9120  178.7860  145.2410 C   0  0  0  0  0  2  0  0  0  0  0  0
  186.3340  178.2130  145.1930 C   0  0  2  0  0  3  0  0  0  0  0  0
  190.4780  176.1740  145.9840 C   0  0  2  0  0  3  0  0  0  0  0  0
  187.2050  178.9390  146.2020 C   0  0  0  0  0  2  0  0  0  0  0  0
  190.1740  176.7410  147.2940 N   0  0  0  0  0  2  0  0  0  0  0  0
  191.7890  175.4020  146.0050 C   0  0  0  0  0  2  0  0  0  0  0  0
  189.0020  177.6090  142.5140 N   0  0  0  0  0  0  0  0  0  0  0  0
  190.3670  177.2980  142.3970 N   0  0  0  0  0  0  0  0  0  0  0  0
  186.9540  178.3510  143.7960 C   0  0  2  0  0  3  0  0  0  0  0  0
  188.7900  177.2330  147.2760 C   0  0  1  0  0  3  0  0  0  0  0  0
  192.0550  174.7140  144.6550 C   0  0  0  0  0  2  0  0  0  0  0  0
  184.1760  178.7120  143.8970 C   0  0  0  0  0  2  0  0  0  0  0  0
  186.1210  177.5930  142.7460 C   0  0  0  0  0  2  0  0  0  0  0  0
  190.4460  176.8950  138.7080 C   0  0  0  0  0  0  0  0  0  0  0  0
  193.7400  177.0450  137.5940 O   0  0  0  0  0  1  0  0  0  0  0  0
  189.6140  177.0570  137.6040 O   0  0  0  0  0  1  0  0  0  0  0  0
  193.1900  177.5030  139.8310 C   0  0  0  0  0  3  0  0  0  0  0  0
  191.0010  177.3780  141.1000 C   0  0  0  0  0  0  0  0  0  0  0  0
  191.6670  176.0570  138.5440 C   0  0  0  0  0  2  0  0  0  0  0  0
  192.3470  177.4600  141.0410 C   0  0  0  0  0  3  0  0  0  0  0  0
  190.1450  177.4870  139.8780 C   0  0  0  0  0  0  0  0  0  0  0  0
  188.9080  178.3260  139.9570 C   0  0  0  0  0  1  0  0  0  0  0  0
  192.8880  176.9040  138.6800 C   0  0  0  0  0  0  0  0  0  0  0  0
  188.3870  177.6820  148.6800 C   0  0  0  0  0  2  0  0  0  0  0  0
  189.3520  178.6280  149.2190 N   0  0  0  0  0  1  0  0  0  0  0  0
  1  3  1  1  0  0  0
  1  4  1  0  0  0  0
  2  7  1  1  0  0  0
  2  4  1  0  0  0  0
  2  5  1  0  0  0  0
  3 18  1  0  0  0  0
  4 10  1  0  0  0  0
  5 17  1  0  0  0  0
  6 19  1  0  0  0  0
  7 16  1  0  0  0  0
  9  8  1  0  0  0  0
  9 11  1  0  0  0  0
 10 13  1  0  0  0  0
 10 12  1  0  0  0  0
 11  5  1  0  0  0  0
 14  7  2  0  0  0  0
 15 14  1  0  0  0  0
 15  1  1  0  0  0  0
 16  9  1  0  0  0  0
 17 12  1  0  0  0  0
 17 31  1  0  0  0  0
 18 13  1  0  0  0  0
 19  8  1  0  0  0  0
 20  6  1  0  0  0  0
 20 16  1  0  0  0  0
 21 28  2  0  0  0  0
 22 30  1  0  0  0  0
 23 21  1  0  0  0  0
 24 27  1  0  0  0  0
 25 15  1  0  0  0  0
 26 30  1  0  0  0  0
 26 21  1  0  0  0  0
 27 25  2  0  0  0  0
 28 29  1  0  0  0  0
 28 25  1  0  0  0  0
 30 24  2  0  0  0  0
 31 32  1  0  0  0  0
M  END
>  <MODEL>
6

>  <REMARK>
 VINA RESULT:      -7.5      3.285      7.221
  Name = 
  2 active torsions:
  status: ('A' for Active; 'I' for Inactive)
    1  A    between atoms: C_13  and  C_29
    2  A    between atoms: C_16  and  N_27
                            x       y       z     vdW  Elec       q    Type
                         _______ _______ _______ _____ _____    ______ ____

>  <TORSDO>
F 2

$$$$
=
 OpenBabel11052414413D

 32 37  0  0  1  0  0  0  0  0999 V2000
  182.3550  178.9230  138.9960 C   0  0  2  0  0  3  0  0  0  0  0  0
  181.9980  178.6080  141.5550 C   0  0  2  0  0  3  0  0  0  0  0  0
  182.5550  180.3300  138.4210 C   0  0  0  0  0  2  0  0  0  0  0  0
  181.3910  178.9130  140.2140 C   0  0  1  0  0  3  0  0  0  0  0  0
  181.0230  178.6330  142.7180 C   0  0  1  0  0  3  0  0  0  0  0  0
  185.7900  179.4650  144.5070 C   0  0  0  0  0  2  0  0  0  0  0  0
  183.3280  178.4800  141.7190 C   0  0  0  0  0  0  0  0  0  0  0  0
  183.6210  178.7510  145.5810 C   0  0  0  0  0  2  0  0  0  0  0  0
  183.0510  178.9820  144.1750 C   0  0  2  0  0  3  0  0  0  0  0  0
  180.6310  180.2420  140.3660 C   0  0  2  0  0  3  0  0  0  0  0  0
  181.6620  178.3750  144.0880 C   0  0  0  0  0  2  0  0  0  0  0  0
  179.5690  180.1080  141.3580 N   0  0  0  0  0  2  0  0  0  0  0  0
  180.0800  180.7020  139.0240 C   0  0  0  0  0  2  0  0  0  0  0  0
  184.1630  178.3040  140.5740 N   0  0  0  0  0  0  0  0  0  0  0  0
  183.6460  178.2820  139.2690 N   0  0  0  0  0  0  0  0  0  0  0  0
  183.9440  178.3620  143.0920 C   0  0  2  0  0  3  0  0  0  0  0  0
  180.1880  179.9290  142.6780 C   0  0  1  0  0  3  0  0  0  0  0  0
  181.2110  180.9470  138.0090 C   0  0  0  0  0  2  0  0  0  0  0  0
  185.1500  178.6290  145.6090 C   0  0  0  0  0  2  0  0  0  0  0  0
  185.3540  178.9810  143.1190 C   0  0  0  0  0  2  0  0  0  0  0  0
  184.5720  175.6630  136.8070 C   0  0  0  0  0  0  0  0  0  0  0  0
  187.7680  176.2980  135.5820 O   0  0  0  0  0  1  0  0  0  0  0  0
  183.9660  174.7400  135.9600 O   0  0  0  0  0  1  0  0  0  0  0  0
  186.6720  177.8360  136.9780 C   0  0  0  0  0  3  0  0  0  0  0  0
  184.4540  177.7390  138.1990 C   0  0  0  0  0  0  0  0  0  0  0  0
  186.0140  175.4680  137.1340 C   0  0  0  0  0  2  0  0  0  0  0  0
  185.6760  178.2680  137.9780 C   0  0  0  0  0  3  0  0  0  0  0  0
  183.8670  176.6950  137.3020 C   0  0  0  0  0  0  0  0  0  0  0  0
  182.4280  176.8290  136.9140 C   0  0  0  0  0  1  0  0  0  0  0  0
  186.8220  176.5810  136.5570 C   0  0  0  0  0  0  0  0  0  0  0  0
  179.1090  179.9510  143.7590 C   0  0  0  0  0  2  0  0  0  0  0  0
  178.9310  178.6300  144.3400 N   0  0  0  0  0  1  0  0  0  0  0  0
  1  3  1  1  0  0  0
  1 15  1  0  0  0  0
  1  4  1  0  0  0  0
  2  7  1  1  0  0  0
  2  5  1  0  0  0  0
  4 10  1  0  0  0  0
  4  2  1  0  0  0  0
  5 11  1  0  0  0  0
  6 19  1  0  0  0  0
  7 16  1  0  0  0  0
  8 19  1  0  0  0  0
  9  8  1  0  0  0  0
 10 12  1  0  0  0  0
 11  9  1  0  0  0  0
 12 17  1  0  0  0  0
 13 10  1  0  0  0  0
 14  7  2  0  0  0  0
 15 14  1  0  0  0  0
 16 20  1  0  0  0  0
 16  9  1  0  0  0  0
 17  5  1  0  0  0  0
 17 31  1  0  0  0  0
 18  3  1  0  0  0  0
 18 13  1  0  0  0  0
 20  6  1  0  0  0  0
 21 26  1  0  0  0  0
 21 28  2  0  0  0  0
 22 30  1  0  0  0  0
 23 21  1  0  0  0  0
 24 27  1  0  0  0  0
 25 15  1  0  0  0  0
 27 25  2  0  0  0  0
 28 25  1  0  0  0  0
 29 28  1  0  0  0  0
 30 24  2  0  0  0  0
 30 26  1  0  0  0  0
 31 32  1  0  0  0  0
M  END
>  <MODEL>
7

>  <REMARK>
 VINA RESULT:      -7.4      4.073      7.940
  Name = 
  2 active torsions:
  status: ('A' for Active; 'I' for Inactive)
    1  A    between atoms: C_13  and  C_29
    2  A    between atoms: C_16  and  N_27
                            x       y       z     vdW  Elec       q    Type
                         _______ _______ _______ _____ _____    ______ ____

>  <TORSDO>
F 2

$$$$
=
 OpenBabel11052414413D

 32 37  0  0  1  0  0  0  0  0999 V2000
  189.4260  177.5070  139.1580 C   0  0  2  0  0  3  0  0  0  0  0  0
  187.0440  177.5180  138.1070 C   0  0  2  0  0  3  0  0  0  0  0  0
  189.6560  176.8370  140.5180 C   0  0  0  0  0  2  0  0  0  0  0  0
  188.0210  178.1620  139.0520 C   0  0  1  0  0  3  0  0  0  0  0  0
  185.6780  178.1770  138.0540 C   0  0  1  0  0  3  0  0  0  0  0  0
  185.2360  173.2710  136.5180 C   0  0  0  0  0  2  0  0  0  0  0  0
  187.3210  176.3580  137.4830 C   0  0  0  0  0  0  0  0  0  0  0  0
  183.7850  175.3200  136.2620 C   0  0  0  0  0  2  0  0  0  0  0  0
  184.8500  175.9720  137.1520 C   0  0  2  0  0  3  0  0  0  0  0  0
  187.3170  178.2550  140.4170 C   0  0  2  0  0  3  0  0  0  0  0  0
  184.6730  177.4800  137.1290 C   0  0  0  0  0  2  0  0  0  0  0  0
  186.1220  179.0870  140.3160 N   0  0  0  0  0  2  0  0  0  0  0  0
  188.2720  178.7830  141.4780 C   0  0  0  0  0  2  0  0  0  0  0  0
  188.6680  175.8840  137.4450 N   0  0  0  0  0  0  0  0  0  0  0  0
  189.7210  176.5780  138.0620 N   0  0  0  0  0  0  0  0  0  0  0  0
  186.2700  175.6220  136.6860 C   0  0  2  0  0  3  0  0  0  0  0  0
  185.1370  178.3840  139.4840 C   0  0  1  0  0  3  0  0  0  0  0  0
  189.4790  177.8470  141.6600 C   0  0  0  0  0  2  0  0  0  0  0  0
  184.2450  174.0030  135.6210 C   0  0  0  0  0  2  0  0  0  0  0  0
  186.5070  174.1020  136.7330 C   0  0  0  0  0  2  0  0  0  0  0  0
  192.2960  174.8320  136.0380 C   0  0  0  0  0  0  0  0  0  0  0  0
  195.3920  175.1110  137.6050 O   0  0  0  0  0  1  0  0  0  0  0  0
  192.5170  174.4190  134.7270 O   0  0  0  0  0  1  0  0  0  0  0  0
  193.5150  176.2790  138.4000 C   0  0  0  0  0  3  0  0  0  0  0  0
  191.0840  176.2700  137.6880 C   0  0  0  0  0  0  0  0  0  0  0  0
  193.1260  174.2160  137.1120 C   0  0  0  0  0  2  0  0  0  0  0  0
  192.0740  176.5520  138.5600 C   0  0  0  0  0  3  0  0  0  0  0  0
  191.3630  175.7610  136.3090 C   0  0  0  0  0  0  0  0  0  0  0  0
  190.5810  176.3420  135.1730 C   0  0  0  0  0  1  0  0  0  0  0  0
  194.0160  175.2460  137.7220 C   0  0  0  0  0  0  0  0  0  0  0  0
  183.8160  179.1510  139.4930 C   0  0  0  0  0  2  0  0  0  0  0  0
  183.9990  180.5030  138.9890 N   0  0  0  0  0  1  0  0  0  0  0  0
  1  3  1  1  0  0  0
  2  7  1  1  0  0  0
  2  4  1  0  0  0  0
  3 18  1  0  0  0  0
  4  1  1  0  0  0  0
  4 10  1  0  0  0  0
  5  2  1  0  0  0  0
  5 17  1  0  0  0  0
  6 20  1  0  0  0  0
  8  9  1  0  0  0  0
 10 13  1  0  0  0  0
 11  9  1  0  0  0  0
 11  5  1  0  0  0  0
 12 10  1  0  0  0  0
 13 18  1  0  0  0  0
 14  7  2  0  0  0  0
 14 15  1  0  0  0  0
 15  1  1  0  0  0  0
 16 20  1  0  0  0  0
 16  9  1  0  0  0  0
 16  7  1  0  0  0  0
 17 31  1  0  0  0  0
 17 12  1  0  0  0  0
 19  8  1  0  0  0  0
 19  6  1  0  0  0  0
 21 28  2  0  0  0  0
 21 26  1  0  0  0  0
 22 30  1  0  0  0  0
 23 21  1  0  0  0  0
 24 27  1  0  0  0  0
 25 15  1  0  0  0  0
 25 27  2  0  0  0  0
 26 30  1  0  0  0  0
 28 25  1  0  0  0  0
 29 28  1  0  0  0  0
 30 24  2  0  0  0  0
 32 31  1  0  0  0  0
M  END
>  <MODEL>
8

>  <REMARK>
 VINA RESULT:      -7.4      5.273      9.219
  Name = 
  2 active torsions:
  status: ('A' for Active; 'I' for Inactive)
    1  A    between atoms: C_13  and  C_29
    2  A    between atoms: C_16  and  N_27
                            x       y       z     vdW  Elec       q    Type
                         _______ _______ _______ _____ _____    ______ ____

>  <TORSDO>
F 2

$$$$
=
 OpenBabel11052414413D

 32 37  0  0  1  0  0  0  0  0999 V2000
  184.5470  178.2320  142.9250 C   0  0  2  0  0  3  0  0  0  0  0  0
  186.9680  177.2780  142.8560 C   0  0  2  0  0  3  0  0  0  0  0  0
  184.3210  179.7180  143.2260 C   0  0  0  0  0  2  0  0  0  0  0  0
  185.7720  177.6530  143.6860 C   0  0  1  0  0  3  0  0  0  0  0  0
  188.1490  176.7400  143.6450 C   0  0  1  0  0  3  0  0  0  0  0  0
  189.8520  178.6470  139.1630 C   0  0  0  0  0  2  0  0  0  0  0  0
  187.0320  177.5500  141.5400 C   0  0  0  0  0  0  0  0  0  0  0  0
  190.8250  177.0650  140.8710 C   0  0  0  0  0  2  0  0  0  0  0  0
  189.5470  177.3980  141.6520 C   0  0  2  0  0  3  0  0  0  0  0  0
  186.2770  178.6060  144.7830 C   0  0  2  0  0  3  0  0  0  0  0  0
  189.3830  176.4130  142.7950 C   0  0  0  0  0  2  0  0  0  0  0  0
  187.2580  177.9300  145.6270 N   0  0  0  0  0  2  0  0  0  0  0  0
  185.1150  179.1420  145.6060 C   0  0  0  0  0  2  0  0  0  0  0  0
  185.8390  177.8990  140.8350 N   0  0  0  0  0  0  0  0  0  0  0  0
  184.5940  177.9930  141.4780 N   0  0  0  0  0  0  0  0  0  0  0  0
  188.3040  177.3430  140.7530 C   0  0  2  0  0  3  0  0  0  0  0  0
  188.4640  177.6790  144.8270 C   0  0  1  0  0  3  0  0  0  0  0  0
  184.1360  179.9460  144.7330 C   0  0  0  0  0  2  0  0  0  0  0  0
  190.7480  177.4340  139.3840 C   0  0  0  0  0  2  0  0  0  0  0  0
  188.4110  178.3580  139.6000 C   0  0  0  0  0  2  0  0  0  0  0  0
  181.8000  179.6180  139.6520 C   0  0  0  0  0  0  0  0  0  0  0  0
  179.3050  177.2740  139.0210 O   0  0  0  0  0  1  0  0  0  0  0  0
  181.5620  180.7230  138.8400 O   0  0  0  0  0  1  0  0  0  0  0  0
  181.3730  176.6350  139.9330 C   0  0  0  0  0  3  0  0  0  0  0  0
  183.3870  177.9790  140.6820 C   0  0  0  0  0  0  0  0  0  0  0  0
  180.6260  178.9550  140.2880 C   0  0  0  0  0  2  0  0  0  0  0  0
  182.6520  176.8480  140.6390 C   0  0  0  0  0  3  0  0  0  0  0  0
  183.0550  179.1720  139.8420 C   0  0  0  0  0  0  0  0  0  0  0  0
  184.1780  179.8850  139.1560 C   0  0  0  0  0  1  0  0  0  0  0  0
  180.4560  177.5800  139.7340 C   0  0  0  0  0  0  0  0  0  0  0  0
  189.5690  177.1230  145.7230 C   0  0  0  0  0  2  0  0  0  0  0  0
  189.1580  177.1310  147.1180 N   0  0  0  0  0  1  0  0  0  0  0  0
  1  3  1  6  0  0  0
  1  4  1  0  0  0  0
  2  7  1  1  0  0  0
  2  5  1  0  0  0  0
  2  4  1  0  0  0  0
  3 18  1  0  0  0  0
  4 10  1  0  0  0  0
  5 17  1  0  0  0  0
  6 19  1  0  0  0  0
  6 20  1  0  0  0  0
  8  9  1  0  0  0  0
  9 11  1  0  0  0  0
 10 13  1  0  0  0  0
 10 12  1  0  0  0  0
 11  5  1  0  0  0  0
 14 15  1  0  0  0  0
 14  7  2  0  0  0  0
 15  1  1  0  0  0  0
 16  7  1  0  0  0  0
 16  9  1  0  0  0  0
 17 12  1  0  0  0  0
 17 31  1  0  0  0  0
 18 13  1  0  0  0  0
 19  8  1  0  0  0  0
 20 16  1  0  0  0  0
 21 28  2  0  0  0  0
 21 26  1  0  0  0  0
 22 30  1  0  0  0  0
 23 21  1  0  0  0  0
 24 27  1  0  0  0  0
 25 15  1  0  0  0  0
 27 25  2  0  0  0  0
 28 25  1  0  0  0  0
 29 28  1  0  0  0  0
 30 24  2  0  0  0  0
 30 26  1  0  0  0  0
 31 32  1  0  0  0  0
M  END
>  <MODEL>
9

>  <REMARK>
 VINA RESULT:      -6.8      1.699      2.168
  Name = 
  2 active torsions:
  status: ('A' for Active; 'I' for Inactive)
    1  A    between atoms: C_13  and  C_29
    2  A    between atoms: C_16  and  N_27
                            x       y       z     vdW  Elec       q    Type
                         _______ _______ _______ _____ _____    ______ ____

>  <TORSDO>
F 2

$$$$
