=
 OpenBabel11052412213D

 30 32  0  0  1  0  0  0  0  0999 V2000
  183.2790  179.0760  139.9310 C   0  0  1  0  0  3  0  0  0  0  0  0
  181.0450  177.9310  140.3510 C   0  0  2  0  0  3  0  0  0  0  0  0
  182.9390  180.2730  139.1720 N   0  0  0  0  0  2  0  0  0  0  0  0
  179.2610  181.0270  139.4870 C   0  0  0  0  0  3  0  0  0  0  0  0
  180.4930  180.4040  139.7180 C   0  0  0  0  0  0  0  0  0  0  0  0
  181.5200  181.9330  138.1340 C   0  0  0  0  0  3  0  0  0  0  0  0
  181.6430  180.8650  139.0300 C   0  0  0  0  0  0  0  0  0  0  0  0
  180.5140  179.3170  140.7520 C   0  0  2  0  0  3  0  0  0  0  0  0
  179.1530  182.0880  138.5870 C   0  0  0  0  0  3  0  0  0  0  0  0
  180.2850  182.5420  137.9110 C   0  0  0  0  0  3  0  0  0  0  0  0
  182.3580  177.9040  139.5550 C   0  0  2  0  0  3  0  0  0  0  0  0
  185.6550  178.7980  140.8620 C   0  0  0  0  0  0  0  0  0  0  0  0
  187.0080  178.5210  140.6380 C   0  0  0  0  0  3  0  0  0  0  0  0
  185.1550  179.1740  142.5060 Cl  0  0  0  0  0  0  0  0  0  0  0  0
  185.2160  178.4750  138.4960 C   0  0  0  0  0  3  0  0  0  0  0  0
  187.0100  177.9090  137.0350 F   0  0  0  0  0  0  0  0  0  0  0  0
  184.7460  178.7750  139.7800 C   0  0  0  0  0  0  0  0  0  0  0  0
  187.4640  178.2220  139.3510 C   0  0  0  0  0  3  0  0  0  0  0  0
  186.5680  178.1990  138.2820 C   0  0  0  0  0  0  0  0  0  0  0  0
  181.5830  178.8590  143.0350 C   0  0  0  0  0  1  0  0  0  0  0  0
  180.7210  179.7860  142.1980 C   0  0  2  0  0  3  0  0  0  0  0  0
  179.4040  180.1110  142.8980 C   0  0  0  0  0  2  0  0  0  0  0  0
  179.1880  179.2580  143.9830 O   0  0  0  0  0  1  0  0  0  0  0  0
  183.0010  176.6590  139.7910 O   0  0  0  0  0  0  0  0  0  0  0  0
  183.0650  174.8570  137.9560 C   0  0  0  0  0  3  0  0  0  0  0  0
  183.0360  175.7020  138.8150 C   0  0  0  0  0  0  0  0  0  0  0  0
  179.9500  177.1770  139.6080 C   0  0  0  0  0  2  0  0  0  0  0  0
  179.0100  176.1030  141.4860 O   0  0  0  0  0  0  0  0  0  0  0  0
  179.4970  175.9770  140.3740 C   0  0  0  0  0  0  0  0  0  0  0  0
  179.6020  174.6230  139.7610 C   0  0  0  0  0  1  0  0  0  0  0  0
  1 17  1  6  0  0  0
  2 27  1  6  0  0  0
  2  8  1  0  0  0  0
  3  1  1  0  0  0  0
  4  5  1  0  0  0  0
  5  8  1  0  0  0  0
  6  7  1  0  0  0  0
  7  3  1  0  0  0  0
  7  5  2  0  0  0  0
  8 21  1  1  0  0  0
  9  4  2  0  0  0  0
 10  6  2  0  0  0  0
 10  9  1  0  0  0  0
 11 24  1  1  0  0  0
 11  1  1  0  0  0  0
 11  2  1  0  0  0  0
 12 14  1  0  0  0  0
 13 12  1  0  0  0  0
 15 17  1  0  0  0  0
 16 19  1  0  0  0  0
 17 12  2  0  0  0  0
 18 13  2  0  0  0  0
 19 15  2  0  0  0  0
 19 18  1  0  0  0  0
 21 22  1  0  0  0  0
 21 20  1  1  0  0  0
 22 23  1  0  0  0  0
 25 26  3  0  0  0  0
 26 24  1  0  0  0  0
 27 29  1  0  0  0  0
 29 28  2  0  0  0  0
 30 29  1  0  0  0  0
M  END
>  <MODEL>
1

>  <REMARK>
 VINA RESULT:      -5.4      0.000      0.000
  Name = 
  7 active torsions:
  status: ('A' for Active; 'I' for Inactive)
    1  A    between atoms: C_1  and  C_22
    2  A    between atoms: C_4  and  C_25
    3  A    between atoms: C_7  and  C_30
    4  A    between atoms: O_10  and  C_23
    5  A    between atoms: O_10  and  C_26
    6  A    between atoms: C_11  and  C_25
    7  A    between atoms: C_13  and  C_30
                            x       y       z     vdW  Elec       q    Type
                         _______ _______ _______ _____ _____    ______ ____

>  <TORSDO>
F 7

$$$$
=
 OpenBabel11052412213D

 30 32  0  0  1  0  0  0  0  0999 V2000
  182.2860  176.6050  138.1040 C   0  0  1  0  0  3  0  0  0  0  0  0
  181.5560  177.9160  140.1600 C   0  0  2  0  0  3  0  0  0  0  0  0
  181.9020  177.4470  136.9780 N   0  0  0  0  0  2  0  0  0  0  0  0
  181.2410  180.9710  138.1380 C   0  0  0  0  0  3  0  0  0  0  0  0
  181.6380  179.6290  138.1890 C   0  0  0  0  0  0  0  0  0  0  0  0
  181.0740  179.4120  135.8360 C   0  0  0  0  0  3  0  0  0  0  0  0
  181.5530  178.8360  137.0180 C   0  0  0  0  0  0  0  0  0  0  0  0
  182.1990  179.1430  139.4930 C   0  0  2  0  0  3  0  0  0  0  0  0
  180.7610  181.5300  136.9530 C   0  0  0  0  0  3  0  0  0  0  0  0
  180.6790  180.7490  135.8000 C   0  0  0  0  0  3  0  0  0  0  0  0
  181.2670  176.7140  139.2480 C   0  0  2  0  0  3  0  0  0  0  0  0
  181.5490  174.4300  136.9570 C   0  0  0  0  0  0  0  0  0  0  0  0
  181.8450  173.1220  136.5610 C   0  0  0  0  0  3  0  0  0  0  0  0
  179.9460  175.0560  136.5940 Cl  0  0  0  0  0  0  0  0  0  0  0  0
  183.7800  174.6320  137.8920 C   0  0  0  0  0  3  0  0  0  0  0  0
  185.2850  172.7900  137.7520 F   0  0  0  0  0  0  0  0  0  0  0  0
  182.5270  175.1970  137.6300 C   0  0  0  0  0  0  0  0  0  0  0  0
  183.1010  172.5700  136.8280 C   0  0  0  0  0  3  0  0  0  0  0  0
  184.0670  173.3250  137.4930 C   0  0  0  0  0  0  0  0  0  0  0  0
  184.5600  178.9300  138.5190 C   0  0  0  0  0  1  0  0  0  0  0  0
  183.7030  179.3740  139.6910 C   0  0  2  0  0  3  0  0  0  0  0  0
  184.2130  178.7960  141.0080 C   0  0  0  0  0  2  0  0  0  0  0  0
  185.2990  179.5290  141.4910 O   0  0  0  0  0  1  0  0  0  0  0  0
  181.2700  175.5360  140.0440 O   0  0  0  0  0  0  0  0  0  0  0  0
  179.0850  174.2460  140.4680 C   0  0  0  0  0  3  0  0  0  0  0  0
  180.1090  174.8510  140.2710 C   0  0  0  0  0  0  0  0  0  0  0  0
  180.2930  178.3540  140.8890 C   0  0  0  0  0  2  0  0  0  0  0  0
  180.2030  180.5140  141.8320 O   0  0  0  0  0  0  0  0  0  0  0  0
  180.5950  179.3650  141.9470 C   0  0  0  0  0  0  0  0  0  0  0  0
  181.3460  178.9580  143.1680 C   0  0  0  0  0  1  0  0  0  0  0  0
  1 17  1  6  0  0  0
  1 11  1  0  0  0  0
  2 27  1  6  0  0  0
  3  7  1  0  0  0  0
  3  1  1  0  0  0  0
  4  5  1  0  0  0  0
  5  8  1  0  0  0  0
  6  7  1  0  0  0  0
  7  5  2  0  0  0  0
  8 21  1  6  0  0  0
  8  2  1  0  0  0  0
  9  4  2  0  0  0  0
 10  6  2  0  0  0  0
 10  9  1  0  0  0  0
 11 24  1  1  0  0  0
 11  2  1  0  0  0  0
 12 17  1  0  0  0  0
 13 18  1  0  0  0  0
 13 12  2  0  0  0  0
 14 12  1  0  0  0  0
 17 15  2  0  0  0  0
 18 19  2  0  0  0  0
 19 16  1  0  0  0  0
 19 15  1  0  0  0  0
 21 20  1  6  0  0  0
 21 22  1  0  0  0  0
 22 23  1  0  0  0  0
 24 26  1  0  0  0  0
 26 25  3  0  0  0  0
 27 29  1  0  0  0  0
 28 29  2  0  0  0  0
 29 30  1  0  0  0  0
M  END
>  <MODEL>
2

>  <REMARK>
 VINA RESULT:      -5.0      2.680      4.700
  Name = 
  7 active torsions:
  status: ('A' for Active; 'I' for Inactive)
    1  A    between atoms: C_1  and  C_22
    2  A    between atoms: C_4  and  C_25
    3  A    between atoms: C_7  and  C_30
    4  A    between atoms: O_10  and  C_23
    5  A    between atoms: O_10  and  C_26
    6  A    between atoms: C_11  and  C_25
    7  A    between atoms: C_13  and  C_30
                            x       y       z     vdW  Elec       q    Type
                         _______ _______ _______ _____ _____    ______ ____

>  <TORSDO>
F 7

$$$$
=
 OpenBabel11052412213D

 30 32  0  0  1  0  0  0  0  0999 V2000
  182.4390  178.9970  140.2060 C   0  0  1  0  0  3  0  0  0  0  0  0
  180.4600  177.6930  139.2760 C   0  0  2  0  0  3  0  0  0  0  0  0
  182.4170  180.2610  139.4820 N   0  0  0  0  0  2  0  0  0  0  0  0
  179.0630  180.7770  137.8440 C   0  0  0  0  0  3  0  0  0  0  0  0
  180.0510  180.1950  138.6470 C   0  0  0  0  0  0  0  0  0  0  0  0
  181.5780  181.9640  137.9830 C   0  0  0  0  0  3  0  0  0  0  0  0
  181.3310  180.7980  138.7170 C   0  0  0  0  0  0  0  0  0  0  0  0
  179.6480  178.9880  139.4410 C   0  0  2  0  0  3  0  0  0  0  0  0
  179.3260  181.9370  137.1140 C   0  0  0  0  0  3  0  0  0  0  0  0
  180.5850  182.5320  137.1850 C   0  0  0  0  0  3  0  0  0  0  0  0
  181.9890  177.8360  139.3050 C   0  0  2  0  0  3  0  0  0  0  0  0
  183.9780  178.6570  142.2330 C   0  0  0  0  0  0  0  0  0  0  0  0
  185.2690  178.4860  142.7450 C   0  0  0  0  0  3  0  0  0  0  0  0
  182.6400  178.7000  143.3730 Cl  0  0  0  0  0  0  0  0  0  0  0  0
  184.9020  178.7570  139.9890 C   0  0  0  0  0  3  0  0  0  0  0  0
  187.2550  178.5500  139.6770 F   0  0  0  0  0  0  0  0  0  0  0  0
  183.7900  178.7940  140.8380 C   0  0  0  0  0  0  0  0  0  0  0  0
  186.3700  178.4500  141.8860 C   0  0  0  0  0  3  0  0  0  0  0  0
  186.1870  178.5850  140.5100 C   0  0  0  0  0  0  0  0  0  0  0  0
  179.3320  180.6550  141.3610 C   0  0  0  0  0  1  0  0  0  0  0  0
  179.0110  179.2790  140.8070 C   0  0  2  0  0  3  0  0  0  0  0  0
  179.2970  178.1820  141.8280 C   0  0  0  0  0  2  0  0  0  0  0  0
  178.9310  178.5850  143.1140 O   0  0  0  0  0  1  0  0  0  0  0  0
  182.5470  176.6060  139.7470 O   0  0  0  0  0  0  0  0  0  0  0  0
  183.4460  174.8990  138.0450 C   0  0  0  0  0  3  0  0  0  0  0  0
  183.0260  175.6980  138.8430 C   0  0  0  0  0  0  0  0  0  0  0  0
  180.0100  176.9840  138.0060 C   0  0  0  0  0  2  0  0  0  0  0  0
  179.1710  174.8660  137.3950 O   0  0  0  0  0  0  0  0  0  0  0  0
  179.4580  175.6280  138.3040 C   0  0  0  0  0  0  0  0  0  0  0  0
  179.2970  175.1870  139.7180 C   0  0  0  0  0  1  0  0  0  0  0  0
  1 17  1  6  0  0  0
  2 27  1  6  0  0  0
  2 11  1  0  0  0  0
  2  8  1  0  0  0  0
  3  1  1  0  0  0  0
  4  5  1  0  0  0  0
  5  7  2  0  0  0  0
  5  8  1  0  0  0  0
  6  7  1  0  0  0  0
  7  3  1  0  0  0  0
  8 21  1  1  0  0  0
  9 10  1  0  0  0  0
  9  4  2  0  0  0  0
 10  6  2  0  0  0  0
 11 24  1  1  0  0  0
 11  1  1  0  0  0  0
 12 13  1  0  0  0  0
 12 14  1  0  0  0  0
 15 19  2  0  0  0  0
 15 17  1  0  0  0  0
 16 19  1  0  0  0  0
 17 12  2  0  0  0  0
 18 13  2  0  0  0  0
 19 18  1  0  0  0  0
 21 20  1  1  0  0  0
 21 22  1  0  0  0  0
 22 23  1  0  0  0  0
 25 26  3  0  0  0  0
 26 24  1  0  0  0  0
 27 29  1  0  0  0  0
 28 29  2  0  0  0  0
 29 30  1  0  0  0  0
M  END
>  <MODEL>
3

>  <REMARK>
 VINA RESULT:      -5.0      1.555      1.875
  Name = 
  7 active torsions:
  status: ('A' for Active; 'I' for Inactive)
    1  A    between atoms: C_1  and  C_22
    2  A    between atoms: C_4  and  C_25
    3  A    between atoms: C_7  and  C_30
    4  A    between atoms: O_10  and  C_23
    5  A    between atoms: O_10  and  C_26
    6  A    between atoms: C_11  and  C_25
    7  A    between atoms: C_13  and  C_30
                            x       y       z     vdW  Elec       q    Type
                         _______ _______ _______ _____ _____    ______ ____

>  <TORSDO>
F 7

$$$$
=
 OpenBabel11052412213D

 30 32  0  0  1  0  0  0  0  0999 V2000
  183.5120  177.8550  139.0120 C   0  0  1  0  0  3  0  0  0  0  0  0
  181.3290  179.1400  139.2580 C   0  0  2  0  0  3  0  0  0  0  0  0
  184.1220  177.9140  140.3340 N   0  0  0  0  0  2  0  0  0  0  0  0
  181.5610  178.8950  142.9190 C   0  0  0  0  0  3  0  0  0  0  0  0
  182.0910  178.5200  141.6780 C   0  0  0  0  0  0  0  0  0  0  0  0
  184.2930  178.4020  142.6970 C   0  0  0  0  0  3  0  0  0  0  0  0
  183.4810  178.2690  141.5650 C   0  0  0  0  0  0  0  0  0  0  0  0
  181.1130  178.3430  140.5540 C   0  0  2  0  0  3  0  0  0  0  0  0
  182.3850  179.0280  144.0370 C   0  0  0  0  0  3  0  0  0  0  0  0
  183.7520  178.7790  143.9260 C   0  0  0  0  0  3  0  0  0  0  0  0
  182.7570  179.1540  138.6930 C   0  0  2  0  0  3  0  0  0  0  0  0
  184.4090  176.3830  137.1090 C   0  0  0  0  0  0  0  0  0  0  0  0
  185.4260  176.0920  136.1940 C   0  0  0  0  0  3  0  0  0  0  0  0
  182.9910  175.3420  137.1210 Cl  0  0  0  0  0  0  0  0  0  0  0  0
  185.7090  178.2630  137.9270 C   0  0  0  0  0  3  0  0  0  0  0  0
  187.8360  178.7300  136.9600 F   0  0  0  0  0  0  0  0  0  0  0  0
  184.5500  177.4820  137.9870 C   0  0  0  0  0  0  0  0  0  0  0  0
  186.5780  176.8810  136.1430 C   0  0  0  0  0  3  0  0  0  0  0  0
  186.7190  177.9660  137.0090 C   0  0  0  0  0  0  0  0  0  0  0  0
  180.1490  176.5140  139.0390 C   0  0  0  0  0  1  0  0  0  0  0  0
  180.4640  176.9560  140.4570 C   0  0  2  0  0  3  0  0  0  0  0  0
  179.2490  176.8170  141.3710 C   0  0  0  0  0  2  0  0  0  0  0  0
  179.0120  175.4780  141.6910 O   0  0  0  0  0  1  0  0  0  0  0  0
  182.6840  179.3670  137.2900 O   0  0  0  0  0  0  0  0  0  0  0  0
  180.9370  178.1200  135.8730 C   0  0  0  0  0  3  0  0  0  0  0  0
  181.7560  178.7030  136.5360 C   0  0  0  0  0  0  0  0  0  0  0  0
  180.8140  180.5590  139.4570 C   0  0  0  0  0  2  0  0  0  0  0  0
  178.9310  180.3690  138.0490 O   0  0  0  0  0  0  0  0  0  0  0  0
  179.9460  180.9900  138.3190 C   0  0  0  0  0  0  0  0  0  0  0  0
  180.2990  182.2070  137.5360 C   0  0  0  0  0  1  0  0  0  0  0  0
  1 17  1  6  0  0  0
  1  3  1  0  0  0  0
  2 27  1  1  0  0  0
  2  8  1  0  0  0  0
  3  7  1  0  0  0  0
  4  9  1  0  0  0  0
  5  4  2  0  0  0  0
  6 10  1  0  0  0  0
  7  5  1  0  0  0  0
  7  6  2  0  0  0  0
  8 21  1  6  0  0  0
  8  5  1  0  0  0  0
 10  9  2  0  0  0  0
 11 24  1  6  0  0  0
 11  1  1  0  0  0  0
 11  2  1  0  0  0  0
 12 14  1  0  0  0  0
 12 17  1  0  0  0  0
 13 12  2  0  0  0  0
 15 17  2  0  0  0  0
 16 19  1  0  0  0  0
 18 13  1  0  0  0  0
 18 19  2  0  0  0  0
 19 15  1  0  0  0  0
 21 20  1  6  0  0  0
 21 22  1  0  0  0  0
 22 23  1  0  0  0  0
 25 26  3  0  0  0  0
 26 24  1  0  0  0  0
 28 29  2  0  0  0  0
 29 27  1  0  0  0  0
 30 29  1  0  0  0  0
M  END
>  <MODEL>
4

>  <REMARK>
 VINA RESULT:      -4.9      2.472      4.430
  Name = 
  7 active torsions:
  status: ('A' for Active; 'I' for Inactive)
    1  A    between atoms: C_1  and  C_22
    2  A    between atoms: C_4  and  C_25
    3  A    between atoms: C_7  and  C_30
    4  A    between atoms: O_10  and  C_23
    5  A    between atoms: O_10  and  C_26
    6  A    between atoms: C_11  and  C_25
    7  A    between atoms: C_13  and  C_30
                            x       y       z     vdW  Elec       q    Type
                         _______ _______ _______ _____ _____    ______ ____

>  <TORSDO>
F 7

$$$$
=
 OpenBabel11052412213D

 30 32  0  0  1  0  0  0  0  0999 V2000
  182.7770  177.6060  139.7070 C   0  0  1  0  0  3  0  0  0  0  0  0
  181.8570  178.1170  137.3890 C   0  0  2  0  0  3  0  0  0  0  0  0
  181.8990  176.5680  140.2280 N   0  0  0  0  0  2  0  0  0  0  0  0
  179.9280  174.9880  137.4320 C   0  0  0  0  0  3  0  0  0  0  0  0
  180.8800  175.7920  138.0700 C   0  0  0  0  0  0  0  0  0  0  0  0
  180.1280  174.9200  140.2090 C   0  0  0  0  0  3  0  0  0  0  0  0
  180.9820  175.7580  139.4830 C   0  0  0  0  0  0  0  0  0  0  0  0
  181.7850  176.5960  137.1830 C   0  0  2  0  0  3  0  0  0  0  0  0
  179.0810  174.1600  138.1700 C   0  0  0  0  0  3  0  0  0  0  0  0
  179.1820  174.1260  139.5610 C   0  0  0  0  0  3  0  0  0  0  0  0
  181.9970  178.6060  138.8390 C   0  0  2  0  0  3  0  0  0  0  0  0
  184.8840  178.6730  140.7150 C   0  0  0  0  0  0  0  0  0  0  0  0
  185.5320  179.2420  141.8160 C   0  0  0  0  0  3  0  0  0  0  0  0
  185.7930  178.5160  139.2170 Cl  0  0  0  0  0  0  0  0  0  0  0  0
  182.8830  178.3920  142.0610 C   0  0  0  0  0  3  0  0  0  0  0  0
  182.8880  179.1020  144.3350 F   0  0  0  0  0  0  0  0  0  0  0  0
  183.5430  178.2430  140.8360 C   0  0  0  0  0  0  0  0  0  0  0  0
  184.8610  179.3870  143.0330 C   0  0  0  0  0  3  0  0  0  0  0  0
  183.5380  178.9620  143.1550 C   0  0  0  0  0  0  0  0  0  0  0  0
  183.4980  174.7340  137.5920 C   0  0  0  0  0  1  0  0  0  0  0  0
  183.0430  175.8680  136.6910 C   0  0  2  0  0  3  0  0  0  0  0  0
  184.1860  176.8280  136.3770 C   0  0  0  0  0  2  0  0  0  0  0  0
  185.1910  176.1920  135.6450 O   0  0  0  0  0  1  0  0  0  0  0  0
  182.6380  179.8740  138.8260 O   0  0  0  0  0  0  0  0  0  0  0  0
  181.2850  182.0160  138.3820 C   0  0  0  0  0  3  0  0  0  0  0  0
  181.9180  181.0120  138.5910 C   0  0  0  0  0  0  0  0  0  0  0  0
  180.6540  178.7660  136.7180 C   0  0  0  0  0  2  0  0  0  0  0  0
  181.6810  178.6980  134.5960 O   0  0  0  0  0  0  0  0  0  0  0  0
  181.0170  179.3440  135.3890 C   0  0  0  0  0  0  0  0  0  0  0  0
  180.5300  180.7020  135.0130 C   0  0  0  0  0  1  0  0  0  0  0  0
  1  3  1  0  0  0  0
  1 17  1  1  0  0  0
  2 27  1  1  0  0  0
  2 11  1  0  0  0  0
  4  5  2  0  0  0  0
  4  9  1  0  0  0  0
  5  7  1  0  0  0  0
  7  6  2  0  0  0  0
  7  3  1  0  0  0  0
  8 21  1  1  0  0  0
  8  2  1  0  0  0  0
  8  5  1  0  0  0  0
  9 10  2  0  0  0  0
 10  6  1  0  0  0  0
 11 24  1  6  0  0  0
 11  1  1  0  0  0  0
 12 17  2  0  0  0  0
 12 13  1  0  0  0  0
 13 18  2  0  0  0  0
 14 12  1  0  0  0  0
 15 19  2  0  0  0  0
 17 15  1  0  0  0  0
 18 19  1  0  0  0  0
 19 16  1  0  0  0  0
 21 20  1  1  0  0  0
 22 21  1  0  0  0  0
 23 22  1  0  0  0  0
 25 26  3  0  0  0  0
 26 24  1  0  0  0  0
 28 29  2  0  0  0  0
 29 27  1  0  0  0  0
 30 29  1  0  0  0  0
M  END
>  <MODEL>
5

>  <REMARK>
 VINA RESULT:      -4.7      3.022      5.944
  Name = 
  7 active torsions:
  status: ('A' for Active; 'I' for Inactive)
    1  A    between atoms: C_1  and  C_22
    2  A    between atoms: C_4  and  C_25
    3  A    between atoms: C_7  and  C_30
    4  A    between atoms: O_10  and  C_23
    5  A    between atoms: O_10  and  C_26
    6  A    between atoms: C_11  and  C_25
    7  A    between atoms: C_13  and  C_30
                            x       y       z     vdW  Elec       q    Type
                         _______ _______ _______ _____ _____    ______ ____

>  <TORSDO>
F 7

$$$$
=
 OpenBabel11052412213D

 30 32  0  0  1  0  0  0  0  0999 V2000
  184.0310  178.2710  142.3030 C   0  0  1  0  0  3  0  0  0  0  0  0
  183.2570  178.8730  139.9540 C   0  0  2  0  0  3  0  0  0  0  0  0
  182.9230  178.6630  143.1640 N   0  0  0  0  0  2  0  0  0  0  0  0
  179.7850  179.1390  141.1330 C   0  0  0  0  0  3  0  0  0  0  0  0
  181.1080  178.7940  141.4360 C   0  0  0  0  0  0  0  0  0  0  0  0
  180.7110  179.4530  143.7410 C   0  0  0  0  0  3  0  0  0  0  0  0
  181.5790  178.9540  142.7630 C   0  0  0  0  0  0  0  0  0  0  0  0
  181.9220  178.2050  140.3220 C   0  0  2  0  0  3  0  0  0  0  0  0
  178.9330  179.6390  142.1180 C   0  0  0  0  0  3  0  0  0  0  0  0
  179.3960  179.7950  143.4240 C   0  0  0  0  0  3  0  0  0  0  0  0
  184.1830  179.2430  141.1230 C   0  0  2  0  0  3  0  0  0  0  0  0
  185.3460  178.4060  144.5040 C   0  0  0  0  0  0  0  0  0  0  0  0
  186.5510  178.2380  145.1940 C   0  0  0  0  0  3  0  0  0  0  0  0
  183.9580  178.9980  145.4060 Cl  0  0  0  0  0  0  0  0  0  0  0  0
  186.4290  177.6440  142.4680 C   0  0  0  0  0  3  0  0  0  0  0  0
  188.7310  177.0320  142.5200 F   0  0  0  0  0  0  0  0  0  0  0  0
  185.2820  178.1050  143.1240 C   0  0  0  0  0  0  0  0  0  0  0  0
  187.6890  177.7760  144.5280 C   0  0  0  0  0  3  0  0  0  0  0  0
  187.6270  177.4790  143.1660 C   0  0  0  0  0  0  0  0  0  0  0  0
  182.9330  176.0540  139.3660 C   0  0  0  0  0  1  0  0  0  0  0  0
  181.7930  176.6870  140.1420 C   0  0  2  0  0  3  0  0  0  0  0  0
  180.4350  176.2820  139.5750 C   0  0  0  0  0  2  0  0  0  0  0  0
  179.6450  175.6700  140.5510 O   0  0  0  0  0  1  0  0  0  0  0  0
  185.5220  179.2580  140.6480 O   0  0  0  0  0  0  0  0  0  0  0  0
  186.1350  178.0850  138.4420 C   0  0  0  0  0  3  0  0  0  0  0  0
  185.8490  178.6340  139.4760 C   0  0  0  0  0  0  0  0  0  0  0  0
  182.9790  180.0900  139.0820 C   0  0  0  0  0  2  0  0  0  0  0  0
  182.2880  178.8170  137.2200 O   0  0  0  0  0  0  0  0  0  0  0  0
  182.0490  179.7570  137.9610 C   0  0  0  0  0  0  0  0  0  0  0  0
  180.8020  180.5500  137.7710 C   0  0  0  0  0  1  0  0  0  0  0  0
  1 17  1  1  0  0  0
  1  3  1  0  0  0  0
  2 27  1  1  0  0  0
  2  8  1  0  0  0  0
  2 11  1  0  0  0  0
  4  5  2  0  0  0  0
  4  9  1  0  0  0  0
  5  7  1  0  0  0  0
  7  3  1  0  0  0  0
  7  6  2  0  0  0  0
  8 21  1  1  0  0  0
  8  5  1  0  0  0  0
  9 10  2  0  0  0  0
 10  6  1  0  0  0  0
 11 24  1  6  0  0  0
 11  1  1  0  0  0  0
 12 13  1  0  0  0  0
 12 14  1  0  0  0  0
 15 17  1  0  0  0  0
 15 19  2  0  0  0  0
 16 19  1  0  0  0  0
 17 12  2  0  0  0  0
 18 13  2  0  0  0  0
 19 18  1  0  0  0  0
 21 20  1  6  0  0  0
 22 21  1  0  0  0  0
 22 23  1  0  0  0  0
 25 26  3  0  0  0  0
 26 24  1  0  0  0  0
 28 29  2  0  0  0  0
 29 27  1  0  0  0  0
 30 29  1  0  0  0  0
M  END
>  <MODEL>
6

>  <REMARK>
 VINA RESULT:      -4.7      2.463      4.437
  Name = 
  7 active torsions:
  status: ('A' for Active; 'I' for Inactive)
    1  A    between atoms: C_1  and  C_22
    2  A    between atoms: C_4  and  C_25
    3  A    between atoms: C_7  and  C_30
    4  A    between atoms: O_10  and  C_23
    5  A    between atoms: O_10  and  C_26
    6  A    between atoms: C_11  and  C_25
    7  A    between atoms: C_13  and  C_30
                            x       y       z     vdW  Elec       q    Type
                         _______ _______ _______ _____ _____    ______ ____

>  <TORSDO>
F 7

$$$$
=
 OpenBabel11052412213D

 30 32  0  0  1  0  0  0  0  0999 V2000
  182.3780  178.9430  140.1960 C   0  0  1  0  0  3  0  0  0  0  0  0
  180.4710  177.5830  139.2000 C   0  0  2  0  0  3  0  0  0  0  0  0
  182.3200  180.2210  139.4970 N   0  0  0  0  0  2  0  0  0  0  0  0
  178.9810  180.6400  137.8020 C   0  0  0  0  0  3  0  0  0  0  0  0
  179.9750  180.0800  138.6130 C   0  0  0  0  0  0  0  0  0  0  0  0
  181.4440  181.9210  138.0160 C   0  0  0  0  0  3  0  0  0  0  0  0
  181.2290  180.7310  138.7220 C   0  0  0  0  0  0  0  0  0  0  0  0
  179.6050  178.8410  139.3740 C   0  0  2  0  0  3  0  0  0  0  0  0
  179.2120  181.8240  137.1010 C   0  0  0  0  0  3  0  0  0  0  0  0
  180.4450  182.4660  137.2100 C   0  0  0  0  0  3  0  0  0  0  0  0
  181.9920  177.7850  139.2620 C   0  0  2  0  0  3  0  0  0  0  0  0
  184.9400  178.7870  140.1300 C   0  0  0  0  0  0  0  0  0  0  0  0
  186.1500  178.6140  140.8100 C   0  0  0  0  0  3  0  0  0  0  0  0
  185.0010  179.0000  138.3860 Cl  0  0  0  0  0  0  0  0  0  0  0  0
  183.7490  178.5980  142.2380 C   0  0  0  0  0  3  0  0  0  0  0  0
  184.9740  178.2520  144.2520 F   0  0  0  0  0  0  0  0  0  0  0  0
  183.7230  178.7800  140.8510 C   0  0  0  0  0  0  0  0  0  0  0  0
  186.1620  178.4350  142.1960 C   0  0  0  0  0  3  0  0  0  0  0  0
  184.9620  178.4270  142.9090 C   0  0  0  0  0  0  0  0  0  0  0  0
  179.2070  180.4450  141.3320 C   0  0  0  0  0  1  0  0  0  0  0  0
  178.9310  179.0790  140.7320 C   0  0  2  0  0  3  0  0  0  0  0  0
  179.2190  177.9600  141.7280 C   0  0  0  0  0  2  0  0  0  0  0  0
  179.7950  178.4630  142.8970 O   0  0  0  0  0  1  0  0  0  0  0  0
  182.5900  176.5690  139.6900 O   0  0  0  0  0  0  0  0  0  0  0  0
  183.4810  174.8800  137.9670 C   0  0  0  0  0  3  0  0  0  0  0  0
  183.0650  175.6710  138.7750 C   0  0  0  0  0  0  0  0  0  0  0  0
  180.0740  176.8840  137.9060 C   0  0  0  0  0  2  0  0  0  0  0  0
  179.2340  174.7830  137.2400 O   0  0  0  0  0  0  0  0  0  0  0  0
  179.5320  175.5170  138.1690 C   0  0  0  0  0  0  0  0  0  0  0  0
  179.3930  175.0310  139.5700 C   0  0  0  0  0  1  0  0  0  0  0  0
  1 17  1  6  0  0  0
  2 27  1  6  0  0  0
  2 11  1  0  0  0  0
  2  8  1  0  0  0  0
  3  1  1  0  0  0  0
  4  5  1  0  0  0  0
  5  7  2  0  0  0  0
  5  8  1  0  0  0  0
  6  7  1  0  0  0  0
  7  3  1  0  0  0  0
  8 21  1  1  0  0  0
  9 10  1  0  0  0  0
  9  4  2  0  0  0  0
 10  6  2  0  0  0  0
 11 24  1  1  0  0  0
 11  1  1  0  0  0  0
 12 13  2  0  0  0  0
 12 17  1  0  0  0  0
 13 18  1  0  0  0  0
 14 12  1  0  0  0  0
 15 19  1  0  0  0  0
 17 15  2  0  0  0  0
 18 19  2  0  0  0  0
 19 16  1  0  0  0  0
 21 20  1  1  0  0  0
 21 22  1  0  0  0  0
 22 23  1  0  0  0  0
 25 26  3  0  0  0  0
 26 24  1  0  0  0  0
 27 29  1  0  0  0  0
 28 29  2  0  0  0  0
 29 30  1  0  0  0  0
M  END
>  <MODEL>
7

>  <REMARK>
 VINA RESULT:      -4.7      2.149      2.551
  Name = 
  7 active torsions:
  status: ('A' for Active; 'I' for Inactive)
    1  A    between atoms: C_1  and  C_22
    2  A    between atoms: C_4  and  C_25
    3  A    between atoms: C_7  and  C_30
    4  A    between atoms: O_10  and  C_23
    5  A    between atoms: O_10  and  C_26
    6  A    between atoms: C_11  and  C_25
    7  A    between atoms: C_13  and  C_30
                            x       y       z     vdW  Elec       q    Type
                         _______ _______ _______ _____ _____    ______ ____

>  <TORSDO>
F 7

$$$$
=
 OpenBabel11052412213D

 30 32  0  0  1  0  0  0  0  0999 V2000
  191.1840  175.1260  136.8770 C   0  0  1  0  0  3  0  0  0  0  0  0
  189.4290  176.6910  137.8520 C   0  0  2  0  0  3  0  0  0  0  0  0
  190.5020  173.8450  136.7520 N   0  0  0  0  0  2  0  0  0  0  0  0
  186.7690  174.3180  136.9510 C   0  0  0  0  0  3  0  0  0  0  0  0
  188.1280  174.6480  136.8740 C   0  0  0  0  0  0  0  0  0  0  0  0
  188.6600  172.2790  136.8040 C   0  0  0  0  0  3  0  0  0  0  0  0
  189.0900  173.6100  136.8000 C   0  0  0  0  0  0  0  0  0  0  0  0
  188.4630  176.1090  136.8070 C   0  0  2  0  0  3  0  0  0  0  0  0
  186.3560  172.9850  136.9590 C   0  0  0  0  0  3  0  0  0  0  0  0
  187.3030  171.9640  136.8840 C   0  0  0  0  0  3  0  0  0  0  0  0
  190.7080  175.8860  138.1250 C   0  0  2  0  0  3  0  0  0  0  0  0
  193.4990  175.5280  135.8410 C   0  0  0  0  0  0  0  0  0  0  0  0
  194.8750  175.2740  135.8430 C   0  0  0  0  0  3  0  0  0  0  0  0
  192.8610  176.6000  134.6020 Cl  0  0  0  0  0  0  0  0  0  0  0  0
  193.2490  174.0720  137.7690 C   0  0  0  0  0  3  0  0  0  0  0  0
  195.1680  173.0030  138.6910 F   0  0  0  0  0  0  0  0  0  0  0  0
  192.6740  174.9210  136.8160 C   0  0  0  0  0  0  0  0  0  0  0  0
  195.4360  174.4260  136.8000 C   0  0  0  0  0  3  0  0  0  0  0  0
  194.6230  173.8260  137.7630 C   0  0  0  0  0  0  0  0  0  0  0  0
  189.5630  177.7290  135.1550 C   0  0  0  0  0  1  0  0  0  0  0  0
  188.4530  176.7240  135.4010 C   0  0  2  0  0  3  0  0  0  0  0  0
  187.0870  177.2930  135.0260 C   0  0  0  0  0  2  0  0  0  0  0  0
  186.5200  177.9870  136.0970 O   0  0  0  0  0  1  0  0  0  0  0  0
  191.7120  176.7800  138.5880 O   0  0  0  0  0  0  0  0  0  0  0  0
  191.8640  177.3940  141.0810 C   0  0  0  0  0  3  0  0  0  0  0  0
  191.7920  177.1050  139.9130 C   0  0  0  0  0  0  0  0  0  0  0  0
  188.6660  176.9450  139.1450 C   0  0  0  0  0  2  0  0  0  0  0  0
  188.9070  179.2400  138.6560 O   0  0  0  0  0  0  0  0  0  0  0  0
  188.6660  178.3950  139.5040 C   0  0  0  0  0  0  0  0  0  0  0  0
  188.3310  178.8160  140.8930 C   0  0  0  0  0  1  0  0  0  0  0  0
  1 17  1  1  0  0  0
  1 11  1  0  0  0  0
  2 11  1  0  0  0  0
  2 27  1  1  0  0  0
  3  7  1  0  0  0  0
  3  1  1  0  0  0  0
  4  9  1  0  0  0  0
  5  4  2  0  0  0  0
  6 10  1  0  0  0  0
  7  6  2  0  0  0  0
  7  5  1  0  0  0  0
  8 21  1  6  0  0  0
  8  5  1  0  0  0  0
  8  2  1  0  0  0  0
 10  9  2  0  0  0  0
 11 24  1  6  0  0  0
 12 13  2  0  0  0  0
 12 17  1  0  0  0  0
 13 18  1  0  0  0  0
 14 12  1  0  0  0  0
 17 15  2  0  0  0  0
 18 19  2  0  0  0  0
 19 15  1  0  0  0  0
 19 16  1  0  0  0  0
 21 20  1  1  0  0  0
 22 21  1  0  0  0  0
 22 23  1  0  0  0  0
 24 26  1  0  0  0  0
 26 25  3  0  0  0  0
 27 29  1  0  0  0  0
 28 29  2  0  0  0  0
 29 30  1  0  0  0  0
M  END
>  <MODEL>
8

>  <REMARK>
 VINA RESULT:      -4.6      7.416     10.120
  Name = 
  7 active torsions:
  status: ('A' for Active; 'I' for Inactive)
    1  A    between atoms: C_1  and  C_22
    2  A    between atoms: C_4  and  C_25
    3  A    between atoms: C_7  and  C_30
    4  A    between atoms: O_10  and  C_23
    5  A    between atoms: O_10  and  C_26
    6  A    between atoms: C_11  and  C_25
    7  A    between atoms: C_13  and  C_30
                            x       y       z     vdW  Elec       q    Type
                         _______ _______ _______ _____ _____    ______ ____

>  <TORSDO>
F 7

$$$$
=
 OpenBabel11052412213D

 30 32  0  0  1  0  0  0  0  0999 V2000
  182.4140  179.3760  139.3330 C   0  0  1  0  0  3  0  0  0  0  0  0
  181.5030  178.3600  137.1850 C   0  0  2  0  0  3  0  0  0  0  0  0
  182.3610  180.8150  139.1080 N   0  0  0  0  0  2  0  0  0  0  0  0
  180.0820  181.6090  136.2140 C   0  0  0  0  0  3  0  0  0  0  0  0
  180.7320  180.8560  137.1990 C   0  0  0  0  0  0  0  0  0  0  0  0
  181.8330  182.8810  137.9670 C   0  0  0  0  0  3  0  0  0  0  0  0
  181.6230  181.5030  138.0910 C   0  0  0  0  0  0  0  0  0  0  0  0
  180.3750  179.4010  137.2790 C   0  0  2  0  0  3  0  0  0  0  0  0
  180.3040  182.9820  136.1000 C   0  0  0  0  0  3  0  0  0  0  0  0
  181.1800  183.6190  136.9790 C   0  0  0  0  0  3  0  0  0  0  0  0
  182.7530  178.6260  138.0360 C   0  0  2  0  0  3  0  0  0  0  0  0
  182.8880  178.7330  141.7730 C   0  0  0  0  0  0  0  0  0  0  0  0
  183.8160  178.4790  142.7890 C   0  0  0  0  0  3  0  0  0  0  0  0
  181.1790  178.6220  142.1730 Cl  0  0  0  0  0  0  0  0  0  0  0  0
  184.7180  179.1500  140.2330 C   0  0  0  0  0  3  0  0  0  0  0  0
  186.9660  178.9700  141.0020 F   0  0  0  0  0  0  0  0  0  0  0  0
  183.3430  179.0720  140.4780 C   0  0  0  0  0  0  0  0  0  0  0  0
  185.1860  178.5580  142.5300 C   0  0  0  0  0  3  0  0  0  0  0  0
  185.6370  178.8930  141.2530 C   0  0  0  0  0  0  0  0  0  0  0  0
  178.9400  180.0060  139.3130 C   0  0  0  0  0  1  0  0  0  0  0  0
  179.1480  179.0690  138.1380 C   0  0  2  0  0  3  0  0  0  0  0  0
  179.1210  177.6070  138.5750 C   0  0  0  0  0  2  0  0  0  0  0  0
  178.9890  177.4990  139.9610 O   0  0  0  0  0  1  0  0  0  0  0  0
  183.3780  177.3810  138.3190 O   0  0  0  0  0  0  0  0  0  0  0  0
  182.0570  175.4910  139.4570 C   0  0  0  0  0  3  0  0  0  0  0  0
  182.6770  176.3760  138.9250 C   0  0  0  0  0  0  0  0  0  0  0  0
  181.8790  178.1680  135.7220 C   0  0  0  0  0  2  0  0  0  0  0  0
  182.7890  176.2360  134.7220 O   0  0  0  0  0  0  0  0  0  0  0  0
  181.8560  176.7250  135.3370 C   0  0  0  0  0  0  0  0  0  0  0  0
  180.7060  175.8680  135.7410 C   0  0  0  0  0  1  0  0  0  0  0  0
  1 17  1  1  0  0  0
  2 27  1  6  0  0  0
  2  8  1  0  0  0  0
  2 11  1  0  0  0  0
  3  1  1  0  0  0  0
  4  5  1  0  0  0  0
  5  8  1  0  0  0  0
  5  7  2  0  0  0  0
  6  7  1  0  0  0  0
  7  3  1  0  0  0  0
  8 21  1  1  0  0  0
  9  4  2  0  0  0  0
  9 10  1  0  0  0  0
 10  6  2  0  0  0  0
 11 24  1  1  0  0  0
 11  1  1  0  0  0  0
 12 14  1  0  0  0  0
 12 13  1  0  0  0  0
 15 17  1  0  0  0  0
 15 19  2  0  0  0  0
 16 19  1  0  0  0  0
 17 12  2  0  0  0  0
 18 13  2  0  0  0  0
 19 18  1  0  0  0  0
 21 22  1  0  0  0  0
 21 20  1  1  0  0  0
 22 23  1  0  0  0  0
 24 26  1  0  0  0  0
 26 25  3  0  0  0  0
 28 29  2  0  0  0  0
 29 27  1  0  0  0  0
 29 30  1  0  0  0  0
M  END
>  <MODEL>
9

>  <REMARK>
 VINA RESULT:      -4.6      2.307      3.515
  Name = 
  7 active torsions:
  status: ('A' for Active; 'I' for Inactive)
    1  A    between atoms: C_1  and  C_22
    2  A    between atoms: C_4  and  C_25
    3  A    between atoms: C_7  and  C_30
    4  A    between atoms: O_10  and  C_23
    5  A    between atoms: O_10  and  C_26
    6  A    between atoms: C_11  and  C_25
    7  A    between atoms: C_13  and  C_30
                            x       y       z     vdW  Elec       q    Type
                         _______ _______ _______ _____ _____    ______ ____

>  <TORSDO>
F 7

$$$$
