=
 OpenBabel11052416053D

 43 48  0  0  1  0  0  0  0  0999 V2000
  190.3920  176.8940  145.1160 C   0  0  0  0  0  0  0  0  0  0  0  0
  185.6370  178.4040  144.4260 C   0  0  0  0  0  0  0  0  0  0  0  0
  185.3510  179.2840  141.8130 C   0  0  2  0  0  3  0  0  0  0  0  0
  188.0500  177.4040  145.4220 C   0  0  0  0  0  0  0  0  0  0  0  0
  190.3110  177.3010  143.7850 C   0  0  0  0  0  3  0  0  0  0  0  0
  191.6890  176.4290  145.6720 C   0  0  0  0  0  1  0  0  0  0  0  0
  187.9550  177.7890  144.0590 C   0  0  0  0  0  0  0  0  0  0  0  0
  189.2640  176.9500  145.9380 C   0  0  0  0  0  3  0  0  0  0  0  0
  189.0950  177.7510  143.2600 C   0  0  0  0  0  3  0  0  0  0  0  0
  186.5700  178.6440  142.2140 O   0  0  0  0  0  0  0  0  0  0  0  0
  186.7380  178.2720  143.5620 C   0  0  0  0  0  0  0  0  0  0  0  0
  185.7430  178.0430  145.7770 C   0  0  0  0  0  3  0  0  0  0  0  0
  184.4460  179.1210  143.8400 C   0  0  1  0  0  3  0  0  0  0  0  0
  184.2530  178.7290  142.4980 O   0  0  0  0  0  0  0  0  0  0  0  0
  186.9430  177.5200  146.2640 C   0  0  0  0  0  3  0  0  0  0  0  0
  185.1360  179.2140  140.3430 C   0  0  0  0  0  0  0  0  0  0  0  0
  186.6740  177.5530  137.3140 N   0  0  0  0  0  2  0  0  0  0  0  0
  186.0740  178.5470  139.4970 N   0  0  0  0  0  2  0  0  0  0  0  0
  184.0700  179.6860  139.8600 O   0  0  0  0  0  0  0  0  0  0  0  0
  185.6920  177.8950  138.2830 C   0  0  0  0  0  0  0  0  0  0  0  0
  184.4810  177.5940  138.0780 O   0  0  0  0  0  0  0  0  0  0  0  0
  187.8450  177.3370  136.4880 C   0  0  2  0  0  3  0  0  0  0  0  0
  189.2810  175.5610  136.7390 O   0  0  0  0  0  0  0  0  0  0  0  0
  189.5030  177.3100  138.4660 C   0  0  0  0  0  0  0  0  0  0  0  0
  187.5840  176.2580  135.4760 C   0  0  0  0  0  3  0  0  0  0  0  0
  188.9120  176.7580  137.2890 N   0  0  0  0  0  0  0  0  0  0  0  0
  189.0970  178.4150  138.9240 O   0  0  0  0  0  0  0  0  0  0  0  0
  188.4620  175.2680  135.6620 C   0  0  0  0  0  3  0  0  0  0  0  0
  190.5750  176.5460  139.1820 C   0  0  2  0  0  3  0  0  0  0  0  0
  193.9080  176.2710  138.1740 O   0  0  0  0  0  0  0  0  0  0  0  0
  192.7480  177.4030  139.9610 C   0  0  0  0  0  3  0  0  0  0  0  0
  192.8310  176.5620  138.7530 C   0  0  0  0  0  0  0  0  0  0  0  0
  191.2480  177.4090  140.2620 C   0  0  0  0  0  3  0  0  0  0  0  0
  191.6020  176.1560  138.2870 O   0  0  0  0  0  0  0  0  0  0  0  0
  183.1480  179.1240  144.6730 C   0  0  0  0  0  2  0  0  0  0  0  0
  182.1690  178.2270  144.1850 O   0  0  0  0  0  0  0  0  0  0  0  0
  181.0710  178.7740  142.2600 O   0  0  0  0  0  0  0  0  0  0  0  0
  179.7110  178.9180  141.9750 C   0  0  2  0  0  3  0  0  0  0  0  0
  179.7980  178.5730  144.1710 C   0  0  0  0  0  2  0  0  0  0  0  0
  181.1280  178.9920  143.6320 C   0  0  1  0  0  3  0  0  0  0  0  0
  178.9310  178.5170  143.0780 O   0  0  0  0  0  0  0  0  0  0  0  0
  179.2290  176.7430  141.1100 O   0  0  0  0  0  1  0  0  0  0  0  0
  179.3510  178.0890  140.7560 C   0  0  0  0  0  2  0  0  0  0  0  0
  1  6  1  0  0  0  0
  1  8  1  0  0  0  0
  2 12  1  0  0  0  0
  3 16  1  6  0  0  0
  3 10  1  0  0  0  0
  3 14  1  0  0  0  0
  4  8  2  0  0  0  0
  4 15  1  0  0  0  0
  5  1  2  0  0  0  0
  7  4  1  0  0  0  0
  9  5  1  0  0  0  0
  9  7  2  0  0  0  0
 10 11  1  0  0  0  0
 11  7  1  0  0  0  0
 11  2  2  0  0  0  0
 12 15  2  0  0  0  0
 13  2  1  0  0  0  0
 13 35  1  1  0  0  0
 14 13  1  0  0  0  0
 17 20  1  0  0  0  0
 18 16  1  0  0  0  0
 19 16  2  0  0  0  0
 20 18  1  0  0  0  0
 21 20  2  0  0  0  0
 22 26  1  0  0  0  0
 22 17  1  1  0  0  0
 23 26  1  0  0  0  0
 24 27  2  0  0  0  0
 25 28  2  0  0  0  0
 25 22  1  0  0  0  0
 26 24  1  0  0  0  0
 28 23  1  0  0  0  0
 29 24  1  6  0  0  0
 29 33  1  0  0  0  0
 30 32  2  0  0  0  0
 31 33  2  0  0  0  0
 32 31  1  0  0  0  0
 34 32  1  0  0  0  0
 34 29  1  0  0  0  0
 36 35  1  0  0  0  0
 37 40  1  0  0  0  0
 38 43  1  6  0  0  0
 38 37  1  0  0  0  0
 38 41  1  0  0  0  0
 40 39  1  0  0  0  0
 40 36  1  1  0  0  0
 41 39  1  0  0  0  0
 43 42  1  0  0  0  0
M  END
>  <MODEL>
1

>  <REMARK>
 VINA RESULT:     -10.9      0.000      0.000
  Name = 
  7 active torsions:
  status: ('A' for Active; 'I' for Inactive)
    1  A    between atoms: C_1  and  O_32
    2  A    between atoms: C_1  and  C_34
    3  A    between atoms: C_2  and  C_13
    4  A    between atoms: N_3  and  C_4
    5  A    between atoms: C_11  and  C_14
    6  A    between atoms: C_19  and  C_37
    7  A    between atoms: O_32  and  C_35
                            x       y       z     vdW  Elec       q    Type
                         _______ _______ _______ _____ _____    ______ ____

>  <TORSDO>
F 7

$$$$
=
 OpenBabel11052416053D

 43 48  0  0  1  0  0  0  0  0999 V2000
  185.4290  178.4850  145.6080 C   0  0  0  0  0  0  0  0  0  0  0  0
  182.4580  178.8520  141.5580 C   0  0  0  0  0  0  0  0  0  0  0  0
  184.0310  178.7110  139.2810 C   0  0  2  0  0  3  0  0  0  0  0  0
  183.5210  178.6740  144.1370 C   0  0  0  0  0  0  0  0  0  0  0  0
  186.2760  178.3850  144.5050 C   0  0  0  0  0  3  0  0  0  0  0  0
  185.9950  178.4630  146.9820 C   0  0  0  0  0  1  0  0  0  0  0  0
  184.3750  178.5410  143.0110 C   0  0  0  0  0  0  0  0  0  0  0  0
  184.0530  178.6350  145.4270 C   0  0  0  0  0  3  0  0  0  0  0  0
  185.7490  178.4170  143.2090 C   0  0  0  0  0  3  0  0  0  0  0  0
  184.6200  178.4610  140.5650 O   0  0  0  0  0  0  0  0  0  0  0  0
  183.8320  178.6130  141.7220 C   0  0  0  0  0  0  0  0  0  0  0  0
  181.6220  179.0050  142.6750 C   0  0  0  0  0  3  0  0  0  0  0  0
  182.0180  179.1140  140.1390 C   0  0  1  0  0  3  0  0  0  0  0  0
  182.7000  178.2540  139.2520 O   0  0  0  0  0  0  0  0  0  0  0  0
  182.1530  178.8900  143.9610 C   0  0  0  0  0  3  0  0  0  0  0  0
  184.8150  178.1010  138.1740 C   0  0  0  0  0  0  0  0  0  0  0  0
  188.2610  176.6620  137.5790 N   0  0  0  0  0  2  0  0  0  0  0  0
  186.2030  177.8010  138.3380 N   0  0  0  0  0  2  0  0  0  0  0  0
  184.2180  177.7780  137.1100 O   0  0  0  0  0  0  0  0  0  0  0  0
  186.8430  176.7160  137.6630 C   0  0  0  0  0  0  0  0  0  0  0  0
  186.1520  175.7830  137.1600 O   0  0  0  0  0  0  0  0  0  0  0  0
  189.6970  176.8500  137.6090 C   0  0  2  0  0  3  0  0  0  0  0  0
  191.1330  175.5620  138.8590 O   0  0  0  0  0  0  0  0  0  0  0  0
  189.8180  177.1920  140.1640 C   0  0  0  0  0  0  0  0  0  0  0  0
  190.3830  175.8050  136.7760 C   0  0  0  0  0  3  0  0  0  0  0  0
  190.2030  176.5630  138.9420 N   0  0  0  0  0  0  0  0  0  0  0  0
  188.9380  178.1000  140.1630 O   0  0  0  0  0  0  0  0  0  0  0  0
  191.2160  175.1070  137.5540 C   0  0  0  0  0  3  0  0  0  0  0  0
  190.4270  176.7350  141.4540 C   0  0  2  0  0  3  0  0  0  0  0  0
  191.7490  178.8070  143.9360 O   0  0  0  0  0  0  0  0  0  0  0  0
  189.7840  177.4210  143.7300 C   0  0  0  0  0  3  0  0  0  0  0  0
  191.0390  178.0290  143.2500 C   0  0  0  0  0  0  0  0  0  0  0  0
  189.3560  176.5560  142.5440 C   0  0  0  0  0  3  0  0  0  0  0  0
  191.3420  177.6960  141.9500 O   0  0  0  0  0  0  0  0  0  0  0  0
  180.5000  179.1910  139.8770 C   0  0  0  0  0  2  0  0  0  0  0  0
  180.1740  179.8710  138.6790 O   0  0  0  0  0  0  0  0  0  0  0  0
  181.2050  181.5960  137.5990 O   0  0  0  0  0  0  0  0  0  0  0  0
  180.9350  182.9660  137.5680 C   0  0  2  0  0  3  0  0  0  0  0  0
  179.5100  182.1400  139.0620 C   0  0  0  0  0  2  0  0  0  0  0  0
  180.6350  181.1920  138.8010 C   0  0  1  0  0  3  0  0  0  0  0  0
  179.7290  183.2470  138.2400 O   0  0  0  0  0  0  0  0  0  0  0  0
  181.1770  184.7980  136.0520 O   0  0  0  0  0  1  0  0  0  0  0  0
  180.8510  183.4410  136.1290 C   0  0  0  0  0  2  0  0  0  0  0  0
  1  6  1  0  0  0  0
  2 11  2  0  0  0  0
  2 12  1  0  0  0  0
  3 16  1  6  0  0  0
  3 10  1  0  0  0  0
  4  8  2  0  0  0  0
  5  1  2  0  0  0  0
  7  9  2  0  0  0  0
  7  4  1  0  0  0  0
  8  1  1  0  0  0  0
  9  5  1  0  0  0  0
 10 11  1  0  0  0  0
 11  7  1  0  0  0  0
 12 15  2  0  0  0  0
 13 35  1  1  0  0  0
 13  2  1  0  0  0  0
 14  3  1  0  0  0  0
 14 13  1  0  0  0  0
 15  4  1  0  0  0  0
 16 18  1  0  0  0  0
 17 20  1  0  0  0  0
 19 16  2  0  0  0  0
 20 18  1  0  0  0  0
 21 20  2  0  0  0  0
 22 17  1  1  0  0  0
 22 26  1  0  0  0  0
 23 26  1  0  0  0  0
 25 28  2  0  0  0  0
 25 22  1  0  0  0  0
 26 24  1  0  0  0  0
 27 24  2  0  0  0  0
 28 23  1  0  0  0  0
 29 24  1  6  0  0  0
 29 34  1  0  0  0  0
 29 33  1  0  0  0  0
 32 31  1  0  0  0  0
 32 30  2  0  0  0  0
 33 31  2  0  0  0  0
 34 32  1  0  0  0  0
 36 35  1  0  0  0  0
 37 40  1  0  0  0  0
 38 43  1  6  0  0  0
 38 37  1  0  0  0  0
 38 41  1  0  0  0  0
 40 36  1  6  0  0  0
 40 39  1  0  0  0  0
 41 39  1  0  0  0  0
 42 43  1  0  0  0  0
M  END
>  <MODEL>
2

>  <REMARK>
 VINA RESULT:     -10.8      2.898      4.557
  Name = 
  7 active torsions:
  status: ('A' for Active; 'I' for Inactive)
    1  A    between atoms: C_1  and  O_32
    2  A    between atoms: C_1  and  C_34
    3  A    between atoms: C_2  and  C_13
    4  A    between atoms: N_3  and  C_4
    5  A    between atoms: C_11  and  C_14
    6  A    between atoms: C_19  and  C_37
    7  A    between atoms: O_32  and  C_35
                            x       y       z     vdW  Elec       q    Type
                         _______ _______ _______ _____ _____    ______ ____

>  <TORSDO>
F 7

$$$$
=
 OpenBabel11052416053D

 43 48  0  0  1  0  0  0  0  0999 V2000
  191.1410  176.5630  146.6820 C   0  0  0  0  0  0  0  0  0  0  0  0
  189.1010  177.7560  142.2350 C   0  0  0  0  0  0  0  0  0  0  0  0
  186.3860  178.1900  142.5860 C   0  0  2  0  0  3  0  0  0  0  0  0
  190.8050  177.0880  144.3470 C   0  0  0  0  0  0  0  0  0  0  0  0
  189.7870  176.7870  146.9320 C   0  0  0  0  0  3  0  0  0  0  0  0
  192.0380  176.1370  147.7870 C   0  0  0  0  0  1  0  0  0  0  0  0
  189.4330  177.3500  144.6030 C   0  0  0  0  0  0  0  0  0  0  0  0
  191.6500  176.7070  145.3900 C   0  0  0  0  0  3  0  0  0  0  0  0
  188.9360  177.1770  145.8930 C   0  0  0  0  0  3  0  0  0  0  0  0
  187.2260  178.0010  143.7320 O   0  0  0  0  0  0  0  0  0  0  0  0
  188.5890  177.7020  143.5420 C   0  0  0  0  0  0  0  0  0  0  0  0
  190.4530  177.4750  141.9850 C   0  0  0  0  0  3  0  0  0  0  0  0
  188.0690  177.9430  141.1500 C   0  0  1  0  0  3  0  0  0  0  0  0
  187.0860  178.8660  141.5680 O   0  0  0  0  0  0  0  0  0  0  0  0
  191.3050  177.1670  143.0470 C   0  0  0  0  0  3  0  0  0  0  0  0
  185.1300  178.9130  142.9210 C   0  0  0  0  0  0  0  0  0  0  0  0
  181.4480  178.7710  142.0720 N   0  0  0  0  0  2  0  0  0  0  0  0
  183.9090  178.6130  142.2430 N   0  0  0  0  0  2  0  0  0  0  0  0
  185.1400  179.7440  143.8710 O   0  0  0  0  0  0  0  0  0  0  0  0
  182.6280  178.7430  142.8640 C   0  0  0  0  0  0  0  0  0  0  0  0
  182.5360  178.8060  144.1240 O   0  0  0  0  0  0  0  0  0  0  0  0
  180.4150  178.8000  141.0570 C   0  0  2  0  0  3  0  0  0  0  0  0
  179.9240  177.0300  139.6760 O   0  0  0  0  0  0  0  0  0  0  0  0
  182.0090  178.2240  139.1100 C   0  0  0  0  0  0  0  0  0  0  0  0
  179.2000  178.0480  141.5190 C   0  0  0  0  0  3  0  0  0  0  0  0
  180.8380  178.0230  139.9030 N   0  0  0  0  0  0  0  0  0  0  0  0
  182.8160  179.1550  139.3920 O   0  0  0  0  0  0  0  0  0  0  0  0
  178.9570  177.0490  140.6660 C   0  0  0  0  0  3  0  0  0  0  0  0
  182.3000  177.2930  137.9720 C   0  0  2  0  0  3  0  0  0  0  0  0
  185.1640  177.3420  135.9740 O   0  0  0  0  0  0  0  0  0  0  0  0
  184.2910  175.8750  137.6800 C   0  0  0  0  0  3  0  0  0  0  0  0
  184.2700  177.0690  136.8150 C   0  0  0  0  0  0  0  0  0  0  0  0
  182.9850  176.0080  138.4650 C   0  0  0  0  0  3  0  0  0  0  0  0
  183.1900  177.8900  137.0460 O   0  0  0  0  0  0  0  0  0  0  0  0
  188.5890  178.2020  139.7220 C   0  0  0  0  0  2  0  0  0  0  0  0
  187.7440  177.6770  138.7150 O   0  0  0  0  0  0  0  0  0  0  0  0
  189.8690  177.4860  137.9040 O   0  0  0  0  0  0  0  0  0  0  0  0
  190.4290  176.6190  136.9630 C   0  0  2  0  0  3  0  0  0  0  0  0
  188.2520  176.1670  136.9260 C   0  0  0  0  0  2  0  0  0  0  0  0
  188.5220  177.4940  137.5600 C   0  0  1  0  0  3  0  0  0  0  0  0
  189.4960  175.6350  136.5810 O   0  0  0  0  0  0  0  0  0  0  0  0
  191.3160  174.8010  138.2350 O   0  0  0  0  0  1  0  0  0  0  0  0
  191.6690  175.9620  137.5420 C   0  0  0  0  0  2  0  0  0  0  0  0
  1  5  1  0  0  0  0
  1  6  1  0  0  0  0
  2 11  1  0  0  0  0
  3 16  1  1  0  0  0
  3 10  1  0  0  0  0
  4  7  1  0  0  0  0
  4  8  1  0  0  0  0
  7  9  1  0  0  0  0
  8  1  2  0  0  0  0
  9  5  2  0  0  0  0
 11 10  1  0  0  0  0
 11  7  2  0  0  0  0
 12  2  2  0  0  0  0
 12 15  1  0  0  0  0
 13 35  1  6  0  0  0
 13 14  1  0  0  0  0
 13  2  1  0  0  0  0
 14  3  1  0  0  0  0
 15  4  2  0  0  0  0
 16 19  2  0  0  0  0
 17 20  1  0  0  0  0
 18 20  1  0  0  0  0
 18 16  1  0  0  0  0
 20 21  2  0  0  0  0
 22 25  1  0  0  0  0
 22 17  1  1  0  0  0
 23 26  1  0  0  0  0
 23 28  1  0  0  0  0
 24 27  2  0  0  0  0
 24 26  1  0  0  0  0
 26 22  1  0  0  0  0
 28 25  2  0  0  0  0
 29 33  1  0  0  0  0
 29 24  1  1  0  0  0
 30 32  2  0  0  0  0
 31 33  2  0  0  0  0
 32 34  1  0  0  0  0
 32 31  1  0  0  0  0
 34 29  1  0  0  0  0
 36 35  1  0  0  0  0
 38 43  1  1  0  0  0
 38 37  1  0  0  0  0
 39 40  1  0  0  0  0
 40 37  1  0  0  0  0
 40 36  1  1  0  0  0
 41 39  1  0  0  0  0
 41 38  1  0  0  0  0
 43 42  1  0  0  0  0
M  END
>  <MODEL>
3

>  <REMARK>
 VINA RESULT:     -10.1      2.282      7.521
  Name = 
  7 active torsions:
  status: ('A' for Active; 'I' for Inactive)
    1  A    between atoms: C_1  and  O_32
    2  A    between atoms: C_1  and  C_34
    3  A    between atoms: C_2  and  C_13
    4  A    between atoms: N_3  and  C_4
    5  A    between atoms: C_11  and  C_14
    6  A    between atoms: C_19  and  C_37
    7  A    between atoms: O_32  and  C_35
                            x       y       z     vdW  Elec       q    Type
                         _______ _______ _______ _____ _____    ______ ____

>  <TORSDO>
F 7

$$$$
=
 OpenBabel11052416053D

 43 48  0  0  1  0  0  0  0  0999 V2000
  190.3100  176.9040  144.4280 C   0  0  0  0  0  0  0  0  0  0  0  0
  185.5410  178.4270  143.8770 C   0  0  0  0  0  0  0  0  0  0  0  0
  185.1660  179.2560  141.2590 C   0  0  2  0  0  3  0  0  0  0  0  0
  187.9820  177.4330  144.8070 C   0  0  0  0  0  0  0  0  0  0  0  0
  190.1840  177.2850  143.0920 C   0  0  0  0  0  3  0  0  0  0  0  0
  191.6230  176.4430  144.9470 C   0  0  0  0  0  1  0  0  0  0  0  0
  187.8410  177.7920  143.4400 C   0  0  0  0  0  0  0  0  0  0  0  0
  189.2120  176.9830  145.2880 C   0  0  0  0  0  3  0  0  0  0  0  0
  188.9520  177.7310  142.6020 C   0  0  0  0  0  3  0  0  0  0  0  0
  186.3950  178.6170  141.6290 O   0  0  0  0  0  0  0  0  0  0  0  0
  186.6090  178.2710  142.9780 C   0  0  0  0  0  0  0  0  0  0  0  0
  185.6930  178.0920  145.2310 C   0  0  0  0  0  3  0  0  0  0  0  0
  184.3330  179.1390  143.3200 C   0  0  1  0  0  3  0  0  0  0  0  0
  184.0910  178.7210  141.9940 O   0  0  0  0  0  0  0  0  0  0  0  0
  186.9070  177.5720  145.6850 C   0  0  0  0  0  3  0  0  0  0  0  0
  184.8980  179.1580  139.7990 C   0  0  0  0  0  0  0  0  0  0  0  0
  184.9470  176.5490  137.0630 N   0  0  0  0  0  2  0  0  0  0  0  0
  185.1820  177.9550  139.0820 N   0  0  0  0  0  2  0  0  0  0  0  0
  184.3410  180.1280  139.2150 O   0  0  0  0  0  0  0  0  0  0  0  0
  184.4300  177.5420  137.9380 C   0  0  0  0  0  0  0  0  0  0  0  0
  183.2890  178.0400  137.7150 O   0  0  0  0  0  0  0  0  0  0  0  0
  185.6940  175.5530  136.3220 C   0  0  2  0  0  3  0  0  0  0  0  0
  187.0130  173.9480  137.3050 O   0  0  0  0  0  0  0  0  0  0  0  0
  187.9820  176.2170  137.3140 C   0  0  0  0  0  0  0  0  0  0  0  0
  185.0030  174.2200  136.3860 C   0  0  0  0  0  3  0  0  0  0  0  0
  186.9530  175.2800  136.9980 N   0  0  0  0  0  0  0  0  0  0  0  0
  187.8470  177.4370  137.0120 O   0  0  0  0  0  0  0  0  0  0  0  0
  185.8280  173.3310  136.9460 C   0  0  0  0  0  3  0  0  0  0  0  0
  189.2020  175.7550  138.0510 C   0  0  2  0  0  3  0  0  0  0  0  0
  192.5100  176.3770  137.1180 O   0  0  0  0  0  0  0  0  0  0  0  0
  191.0560  177.1450  138.8840 C   0  0  0  0  0  3  0  0  0  0  0  0
  191.3830  176.3690  137.6740 C   0  0  0  0  0  0  0  0  0  0  0  0
  189.6010  176.7530  139.1510 C   0  0  0  0  0  3  0  0  0  0  0  0
  190.3140  175.6590  137.1780 O   0  0  0  0  0  0  0  0  0  0  0  0
  183.0660  179.1660  144.1980 C   0  0  0  0  0  2  0  0  0  0  0  0
  182.0330  178.3260  143.7160 O   0  0  0  0  0  0  0  0  0  0  0  0
  180.9350  180.1260  142.8440 O   0  0  0  0  0  0  0  0  0  0  0  0
  179.6190  180.2870  142.4040 C   0  0  2  0  0  3  0  0  0  0  0  0
  179.6810  178.2420  143.2750 C   0  0  0  0  0  2  0  0  0  0  0  0
  180.8390  179.0650  143.7370 C   0  0  1  0  0  3  0  0  0  0  0  0
  178.9420  179.0520  142.4100 O   0  0  0  0  0  0  0  0  0  0  0  0
  179.4910  179.8580  140.0570 O   0  0  0  0  0  1  0  0  0  0  0  0
  179.6130  180.8770  141.0050 C   0  0  0  0  0  2  0  0  0  0  0  0
  1  6  1  0  0  0  0
  1  8  1  0  0  0  0
  2 12  1  0  0  0  0
  3 16  1  6  0  0  0
  3 10  1  0  0  0  0
  3 14  1  0  0  0  0
  4  8  2  0  0  0  0
  4 15  1  0  0  0  0
  5  1  2  0  0  0  0
  7  4  1  0  0  0  0
  9  5  1  0  0  0  0
  9  7  2  0  0  0  0
 10 11  1  0  0  0  0
 11  7  1  0  0  0  0
 11  2  2  0  0  0  0
 12 15  2  0  0  0  0
 13  2  1  0  0  0  0
 13 35  1  1  0  0  0
 14 13  1  0  0  0  0
 17 20  1  0  0  0  0
 18 16  1  0  0  0  0
 19 16  2  0  0  0  0
 20 18  1  0  0  0  0
 21 20  2  0  0  0  0
 22 25  1  0  0  0  0
 22 26  1  0  0  0  0
 22 17  1  1  0  0  0
 25 28  2  0  0  0  0
 26 23  1  0  0  0  0
 26 24  1  0  0  0  0
 27 24  2  0  0  0  0
 28 23  1  0  0  0  0
 29 24  1  6  0  0  0
 29 33  1  0  0  0  0
 30 32  2  0  0  0  0
 31 33  2  0  0  0  0
 32 31  1  0  0  0  0
 34 32  1  0  0  0  0
 34 29  1  0  0  0  0
 36 35  1  0  0  0  0
 37 40  1  0  0  0  0
 38 43  1  6  0  0  0
 38 41  1  0  0  0  0
 38 37  1  0  0  0  0
 39 40  1  0  0  0  0
 40 36  1  6  0  0  0
 41 39  1  0  0  0  0
 42 43  1  0  0  0  0
M  END
>  <MODEL>
4

>  <REMARK>
 VINA RESULT:     -10.1      1.494      1.669
  Name = 
  7 active torsions:
  status: ('A' for Active; 'I' for Inactive)
    1  A    between atoms: C_1  and  O_32
    2  A    between atoms: C_1  and  C_34
    3  A    between atoms: C_2  and  C_13
    4  A    between atoms: N_3  and  C_4
    5  A    between atoms: C_11  and  C_14
    6  A    between atoms: C_19  and  C_37
    7  A    between atoms: O_32  and  C_35
                            x       y       z     vdW  Elec       q    Type
                         _______ _______ _______ _____ _____    ______ ____

>  <TORSDO>
F 7

$$$$
=
 OpenBabel11052416053D

 43 48  0  0  1  0  0  0  0  0999 V2000
  181.9930  178.8720  141.3570 C   0  0  0  0  0  0  0  0  0  0  0  0
  185.6590  178.3090  144.7640 C   0  0  0  0  0  0  0  0  0  0  0  0
  187.7030  176.8160  143.6360 C   0  0  2  0  0  3  0  0  0  0  0  0
  183.3420  178.9950  143.3580 C   0  0  0  0  0  0  0  0  0  0  0  0
  182.9920  178.1360  140.7220 C   0  0  0  0  0  3  0  0  0  0  0  0
  180.7280  179.1790  140.6400 C   0  0  0  0  0  1  0  0  0  0  0  0
  184.3760  178.2730  142.7060 C   0  0  0  0  0  0  0  0  0  0  0  0
  182.1630  179.2980  142.6760 C   0  0  0  0  0  3  0  0  0  0  0  0
  184.1800  177.8350  141.3980 C   0  0  0  0  0  3  0  0  0  0  0  0
  186.6150  177.2600  142.8140 O   0  0  0  0  0  0  0  0  0  0  0  0
  185.5420  177.9490  143.4110 C   0  0  0  0  0  0  0  0  0  0  0  0
  184.6240  179.0030  145.4100 C   0  0  0  0  0  3  0  0  0  0  0  0
  186.8580  177.7360  145.4780 C   0  0  1  0  0  3  0  0  0  0  0  0
  187.9880  177.7680  144.6330 O   0  0  0  0  0  0  0  0  0  0  0  0
  183.4800  179.3660  144.6960 C   0  0  0  0  0  3  0  0  0  0  0  0
  188.9230  176.5160  142.8400 C   0  0  0  0  0  0  0  0  0  0  0  0
  190.4510  177.4430  139.5070 N   0  0  0  0  0  2  0  0  0  0  0  0
  189.0580  176.9910  141.4990 N   0  0  0  0  0  2  0  0  0  0  0  0
  189.8760  175.9000  143.3930 O   0  0  0  0  0  0  0  0  0  0  0  0
  190.3240  177.3110  140.9170 C   0  0  0  0  0  0  0  0  0  0  0  0
  191.3320  177.5070  141.6560 O   0  0  0  0  0  0  0  0  0  0  0  0
  190.3240  177.4940  138.0650 C   0  0  2  0  0  3  0  0  0  0  0  0
  190.4690  175.6520  136.6980 O   0  0  0  0  0  0  0  0  0  0  0  0
  192.6290  176.4260  137.6070 C   0  0  0  0  0  0  0  0  0  0  0  0
  188.9700  177.0060  137.6370 C   0  0  0  0  0  3  0  0  0  0  0  0
  191.2120  176.5150  137.4580 N   0  0  0  0  0  0  0  0  0  0  0  0
  193.2450  177.2510  138.3400 O   0  0  0  0  0  0  0  0  0  0  0  0
  189.1240  175.9510  136.8310 C   0  0  0  0  0  3  0  0  0  0  0  0
  193.3750  175.3190  136.9280 C   0  0  2  0  0  3  0  0  0  0  0  0
  196.8200  174.7680  137.1060 O   0  0  0  0  0  0  0  0  0  0  0  0
  194.8610  173.6600  137.9790 C   0  0  0  0  0  3  0  0  0  0  0  0
  195.5710  174.7160  137.2330 C   0  0  0  0  0  0  0  0  0  0  0  0
  193.3930  174.0470  137.7920 C   0  0  0  0  0  3  0  0  0  0  0  0
  194.7300  175.6760  136.7180 O   0  0  0  0  0  0  0  0  0  0  0  0
  187.1390  178.2510  146.9040 C   0  0  0  0  0  2  0  0  0  0  0  0
  187.1050  177.2310  147.8840 O   0  0  0  0  0  0  0  0  0  0  0  0
  189.1870  176.3670  147.5270 O   0  0  0  0  0  0  0  0  0  0  0  0
  190.4610  176.9060  147.7170 C   0  0  2  0  0  3  0  0  0  0  0  0
  189.0690  178.4300  148.5460 C   0  0  0  0  0  2  0  0  0  0  0  0
  188.4010  177.1010  148.4090 C   0  0  1  0  0  3  0  0  0  0  0  0
  190.3730  178.2670  148.0730 O   0  0  0  0  0  0  0  0  0  0  0  0
  192.4260  175.9980  146.7060 O   0  0  0  0  0  1  0  0  0  0  0  0
  191.2790  176.7530  146.4480 C   0  0  0  0  0  2  0  0  0  0  0  0
  1  8  1  0  0  0  0
  2 12  1  0  0  0  0
  2 13  1  0  0  0  0
  3 16  1  6  0  0  0
  3 14  1  0  0  0  0
  4 15  1  0  0  0  0
  5  1  2  0  0  0  0
  5  9  1  0  0  0  0
  6  1  1  0  0  0  0
  7  4  1  0  0  0  0
  7 11  1  0  0  0  0
  8  4  2  0  0  0  0
  9  7  2  0  0  0  0
 10 11  1  0  0  0  0
 10  3  1  0  0  0  0
 11  2  2  0  0  0  0
 13 35  1  1  0  0  0
 14 13  1  0  0  0  0
 15 12  2  0  0  0  0
 16 19  2  0  0  0  0
 17 20  1  0  0  0  0
 18 16  1  0  0  0  0
 20 18  1  0  0  0  0
 20 21  2  0  0  0  0
 22 17  1  1  0  0  0
 23 28  1  0  0  0  0
 23 26  1  0  0  0  0
 24 27  2  0  0  0  0
 25 22  1  0  0  0  0
 26 24  1  0  0  0  0
 26 22  1  0  0  0  0
 28 25  2  0  0  0  0
 29 24  1  1  0  0  0
 29 33  1  0  0  0  0
 30 32  2  0  0  0  0
 32 31  1  0  0  0  0
 33 31  2  0  0  0  0
 34 29  1  0  0  0  0
 34 32  1  0  0  0  0
 35 36  1  0  0  0  0
 37 38  1  0  0  0  0
 37 40  1  0  0  0  0
 38 43  1  6  0  0  0
 38 41  1  0  0  0  0
 40 36  1  6  0  0  0
 40 39  1  0  0  0  0
 41 39  1  0  0  0  0
 43 42  1  0  0  0  0
M  END
>  <MODEL>
5

>  <REMARK>
 VINA RESULT:     -10.0      2.952      6.666
  Name = 
  7 active torsions:
  status: ('A' for Active; 'I' for Inactive)
    1  A    between atoms: C_1  and  O_32
    2  A    between atoms: C_1  and  C_34
    3  A    between atoms: C_2  and  C_13
    4  A    between atoms: N_3  and  C_4
    5  A    between atoms: C_11  and  C_14
    6  A    between atoms: C_19  and  C_37
    7  A    between atoms: O_32  and  C_35
                            x       y       z     vdW  Elec       q    Type
                         _______ _______ _______ _____ _____    ______ ____

>  <TORSDO>
F 7

$$$$
=
 OpenBabel11052416053D

 43 48  0  0  1  0  0  0  0  0999 V2000
  185.8050  178.3660  145.7720 C   0  0  0  0  0  0  0  0  0  0  0  0
  182.6570  178.8290  141.8670 C   0  0  0  0  0  0  0  0  0  0  0  0
  184.1290  178.7460  139.5200 C   0  0  2  0  0  3  0  0  0  0  0  0
  183.8340  178.5890  144.3910 C   0  0  0  0  0  0  0  0  0  0  0  0
  186.6020  178.2960  144.6300 C   0  0  0  0  0  3  0  0  0  0  0  0
  186.4310  178.3120  147.1180 C   0  0  0  0  0  1  0  0  0  0  0  0
  184.6370  178.4850  143.2260 C   0  0  0  0  0  0  0  0  0  0  0  0
  184.4210  178.5180  145.6550 C   0  0  0  0  0  3  0  0  0  0  0  0
  186.0180  178.3580  143.3600 C   0  0  0  0  0  3  0  0  0  0  0  0
  184.7740  178.4660  140.7700 O   0  0  0  0  0  0  0  0  0  0  0  0
  184.0380  178.5880  141.9640 C   0  0  0  0  0  0  0  0  0  0  0  0
  181.8720  178.9530  143.0230 C   0  0  0  0  0  3  0  0  0  0  0  0
  182.1550  179.1240  140.4760 C   0  0  1  0  0  3  0  0  0  0  0  0
  182.7980  178.2880  139.5380 O   0  0  0  0  0  0  0  0  0  0  0  0
  182.4590  178.8060  144.2810 C   0  0  0  0  0  3  0  0  0  0  0  0
  184.8630  178.1650  138.3650 C   0  0  0  0  0  0  0  0  0  0  0  0
  188.2710  176.7200  137.5900 N   0  0  0  0  0  2  0  0  0  0  0  0
  186.2540  177.8510  138.4640 N   0  0  0  0  0  2  0  0  0  0  0  0
  184.2220  177.8790  137.3160 O   0  0  0  0  0  0  0  0  0  0  0  0
  186.8580  176.7820  137.7310 C   0  0  0  0  0  0  0  0  0  0  0  0
  186.1390  175.8700  137.2280 O   0  0  0  0  0  0  0  0  0  0  0  0
  189.7090  176.8960  137.5690 C   0  0  2  0  0  3  0  0  0  0  0  0
  191.1810  175.5700  138.7330 O   0  0  0  0  0  0  0  0  0  0  0  0
  189.9300  177.1790  140.1250 C   0  0  0  0  0  0  0  0  0  0  0  0
  190.3540  175.8660  136.6860 C   0  0  0  0  0  3  0  0  0  0  0  0
  190.2630  176.5750  138.8740 N   0  0  0  0  0  0  0  0  0  0  0  0
  189.0580  178.0930  140.1780 O   0  0  0  0  0  0  0  0  0  0  0  0
  191.2090  175.1440  137.4160 C   0  0  0  0  0  3  0  0  0  0  0  0
  190.5840  176.6870  141.3800 C   0  0  2  0  0  3  0  0  0  0  0  0
  191.8710  178.6940  143.9330 O   0  0  0  0  0  0  0  0  0  0  0  0
  189.9610  177.2380  143.6980 C   0  0  0  0  0  3  0  0  0  0  0  0
  191.1800  177.9200  143.2240 C   0  0  0  0  0  0  0  0  0  0  0  0
  189.5440  176.4120  142.4790 C   0  0  0  0  0  3  0  0  0  0  0  0
  191.4690  177.6620  141.9040 O   0  0  0  0  0  0  0  0  0  0  0  0
  180.6270  179.2050  140.2830 C   0  0  0  0  0  2  0  0  0  0  0  0
  179.9810  177.9520  140.4030 O   0  0  0  0  0  0  0  0  0  0  0  0
  179.4800  178.7790  138.3360 O   0  0  0  0  0  0  0  0  0  0  0  0
  179.5070  178.1910  137.0690 C   0  0  2  0  0  3  0  0  0  0  0  0
  179.9590  176.5290  138.4760 C   0  0  0  0  0  2  0  0  0  0  0  0
  179.3340  177.6880  139.1840 C   0  0  1  0  0  3  0  0  0  0  0  0
  180.0710  176.9020  137.1340 O   0  0  0  0  0  0  0  0  0  0  0  0
  181.3550  179.6820  136.7990 O   0  0  0  0  0  1  0  0  0  0  0  0
  180.3070  179.0610  136.1160 C   0  0  0  0  0  2  0  0  0  0  0  0
  1  6  1  0  0  0  0
  2 11  2  0  0  0  0
  2 12  1  0  0  0  0
  3 16  1  6  0  0  0
  3 14  1  0  0  0  0
  3 10  1  0  0  0  0
  4  8  2  0  0  0  0
  5  1  2  0  0  0  0
  7  9  2  0  0  0  0
  7  4  1  0  0  0  0
  8  1  1  0  0  0  0
  9  5  1  0  0  0  0
 10 11  1  0  0  0  0
 11  7  1  0  0  0  0
 12 15  2  0  0  0  0
 13 35  1  1  0  0  0
 13  2  1  0  0  0  0
 14 13  1  0  0  0  0
 15  4  1  0  0  0  0
 16 18  1  0  0  0  0
 17 20  1  0  0  0  0
 19 16  2  0  0  0  0
 20 18  1  0  0  0  0
 21 20  2  0  0  0  0
 22 17  1  1  0  0  0
 22 26  1  0  0  0  0
 23 26  1  0  0  0  0
 24 27  2  0  0  0  0
 25 28  2  0  0  0  0
 25 22  1  0  0  0  0
 26 24  1  0  0  0  0
 28 23  1  0  0  0  0
 29 24  1  6  0  0  0
 29 34  1  0  0  0  0
 29 33  1  0  0  0  0
 32 31  1  0  0  0  0
 32 30  2  0  0  0  0
 33 31  2  0  0  0  0
 34 32  1  0  0  0  0
 35 36  1  0  0  0  0
 37 40  1  0  0  0  0
 38 43  1  6  0  0  0
 38 41  1  0  0  0  0
 38 37  1  0  0  0  0
 39 40  1  0  0  0  0
 40 36  1  1  0  0  0
 41 39  1  0  0  0  0
 43 42  1  0  0  0  0
M  END
>  <MODEL>
6

>  <REMARK>
 VINA RESULT:     -10.0      2.240      3.998
  Name = 
  7 active torsions:
  status: ('A' for Active; 'I' for Inactive)
    1  A    between atoms: C_1  and  O_32
    2  A    between atoms: C_1  and  C_34
    3  A    between atoms: C_2  and  C_13
    4  A    between atoms: N_3  and  C_4
    5  A    between atoms: C_11  and  C_14
    6  A    between atoms: C_19  and  C_37
    7  A    between atoms: O_32  and  C_35
                            x       y       z     vdW  Elec       q    Type
                         _______ _______ _______ _____ _____    ______ ____

>  <TORSDO>
F 7

$$$$
=
 OpenBabel11052416053D

 43 48  0  0  1  0  0  0  0  0999 V2000
  190.9330  176.7390  146.4980 C   0  0  0  0  0  0  0  0  0  0  0  0
  189.5120  177.7860  141.7810 C   0  0  0  0  0  0  0  0  0  0  0  0
  186.7780  178.2370  141.7520 C   0  0  2  0  0  3  0  0  0  0  0  0
  190.9150  177.1860  144.1230 C   0  0  0  0  0  0  0  0  0  0  0  0
  189.5600  176.9750  146.5580 C   0  0  0  0  0  3  0  0  0  0  0  0
  191.6720  176.3490  147.7270 C   0  0  0  0  0  1  0  0  0  0  0  0
  189.5230  177.4580  144.1850 C   0  0  0  0  0  0  0  0  0  0  0  0
  191.6110  176.8380  145.2810 C   0  0  0  0  0  3  0  0  0  0  0  0
  188.8570  177.3310  145.4020 C   0  0  0  0  0  3  0  0  0  0  0  0
  187.4560  178.0850  143.0060 O   0  0  0  0  0  0  0  0  0  0  0  0
  188.8310  177.7770  143.0100 C   0  0  0  0  0  0  0  0  0  0  0  0
  190.8830  177.4930  141.7240 C   0  0  0  0  0  3  0  0  0  0  0  0
  188.6350  177.9380  140.5630 C   0  0  1  0  0  3  0  0  0  0  0  0
  187.6110  178.8760  140.8150 O   0  0  0  0  0  0  0  0  0  0  0  0
  191.5850  177.2200  142.8990 C   0  0  0  0  0  3  0  0  0  0  0  0
  185.4930  178.9740  141.8930 C   0  0  0  0  0  0  0  0  0  0  0  0
  181.7840  178.3220  141.5520 N   0  0  0  0  0  2  0  0  0  0  0  0
  184.2560  178.3640  141.5210 N   0  0  0  0  0  2  0  0  0  0  0  0
  185.5020  180.1200  142.4210 O   0  0  0  0  0  0  0  0  0  0  0  0
  183.0170  178.6770  142.1640 C   0  0  0  0  0  0  0  0  0  0  0  0
  183.0130  179.2460  143.2930 O   0  0  0  0  0  0  0  0  0  0  0  0
  180.6810  177.8840  140.7210 C   0  0  2  0  0  3  0  0  0  0  0  0
  180.6730  178.0110  138.4270 O   0  0  0  0  0  0  0  0  0  0  0  0
  180.3500  180.1720  139.5740 C   0  0  0  0  0  0  0  0  0  0  0  0
  180.9930  176.5590  140.0850 C   0  0  0  0  0  3  0  0  0  0  0  0
  180.5560  178.7590  139.5670 N   0  0  0  0  0  0  0  0  0  0  0  0
  180.2680  180.7980  140.6700 O   0  0  0  0  0  0  0  0  0  0  0  0
  180.9520  176.6960  138.7570 C   0  0  0  0  0  3  0  0  0  0  0  0
  180.2820  180.9160  138.2760 C   0  0  2  0  0  3  0  0  0  0  0  0
  178.9340  184.1060  137.8170 O   0  0  0  0  0  0  0  0  0  0  0  0
  181.1580  183.1680  137.8010 C   0  0  0  0  0  3  0  0  0  0  0  0
  179.6910  183.1110  137.9480 C   0  0  0  0  0  0  0  0  0  0  0  0
  181.5730  181.7120  138.0210 C   0  0  0  0  0  3  0  0  0  0  0  0
  179.2270  181.8620  138.2890 O   0  0  0  0  0  0  0  0  0  0  0  0
  189.3430  178.1470  139.2090 C   0  0  0  0  0  2  0  0  0  0  0  0
  188.5970  178.9410  138.3050 O   0  0  0  0  0  0  0  0  0  0  0  0
  189.6800  177.5660  136.8410 O   0  0  0  0  0  0  0  0  0  0  0  0
  189.2650  176.4140  136.1680 C   0  0  2  0  0  3  0  0  0  0  0  0
  187.4400  177.1600  137.1980 C   0  0  0  0  0  2  0  0  0  0  0  0
  188.4850  178.2250  137.1020 C   0  0  1  0  0  3  0  0  0  0  0  0
  187.9880  176.0170  136.6100 O   0  0  0  0  0  0  0  0  0  0  0  0
  190.1830  174.8420  137.7150 O   0  0  0  0  0  1  0  0  0  0  0  0
  190.2660  175.2960  136.3960 C   0  0  0  0  0  2  0  0  0  0  0  0
  1  5  1  0  0  0  0
  1  6  1  0  0  0  0
  2 11  1  0  0  0  0
  3 16  1  1  0  0  0
  3 10  1  0  0  0  0
  4  7  1  0  0  0  0
  4  8  1  0  0  0  0
  7  9  1  0  0  0  0
  8  1  2  0  0  0  0
  9  5  2  0  0  0  0
 10 11  1  0  0  0  0
 11  7  2  0  0  0  0
 12  2  2  0  0  0  0
 12 15  1  0  0  0  0
 13 35  1  6  0  0  0
 13 14  1  0  0  0  0
 13  2  1  0  0  0  0
 14  3  1  0  0  0  0
 15  4  2  0  0  0  0
 16 19  2  0  0  0  0
 17 20  1  0  0  0  0
 18 16  1  0  0  0  0
 18 20  1  0  0  0  0
 20 21  2  0  0  0  0
 22 17  1  1  0  0  0
 23 28  1  0  0  0  0
 23 26  1  0  0  0  0
 24 27  2  0  0  0  0
 25 22  1  0  0  0  0
 26 24  1  0  0  0  0
 26 22  1  0  0  0  0
 28 25  2  0  0  0  0
 29 34  1  0  0  0  0
 29 24  1  1  0  0  0
 30 32  2  0  0  0  0
 31 32  1  0  0  0  0
 31 33  2  0  0  0  0
 32 34  1  0  0  0  0
 33 29  1  0  0  0  0
 36 35  1  0  0  0  0
 37 40  1  0  0  0  0
 38 43  1  1  0  0  0
 38 41  1  0  0  0  0
 38 37  1  0  0  0  0
 40 39  1  0  0  0  0
 40 36  1  1  0  0  0
 41 39  1  0  0  0  0
 43 42  1  0  0  0  0
M  END
>  <MODEL>
7

>  <REMARK>
 VINA RESULT:      -9.9      2.849      8.287
  Name = 
  7 active torsions:
  status: ('A' for Active; 'I' for Inactive)
    1  A    between atoms: C_1  and  O_32
    2  A    between atoms: C_1  and  C_34
    3  A    between atoms: C_2  and  C_13
    4  A    between atoms: N_3  and  C_4
    5  A    between atoms: C_11  and  C_14
    6  A    between atoms: C_19  and  C_37
    7  A    between atoms: O_32  and  C_35
                            x       y       z     vdW  Elec       q    Type
                         _______ _______ _______ _____ _____    ______ ____

>  <TORSDO>
F 7

$$$$
=
 OpenBabel11052416053D

 43 48  0  0  1  0  0  0  0  0999 V2000
  190.2210  176.9450  146.7110 C   0  0  0  0  0  0  0  0  0  0  0  0
  185.6960  178.3440  144.9970 C   0  0  0  0  0  0  0  0  0  0  0  0
  185.8840  178.8270  142.2750 C   0  0  2  0  0  3  0  0  0  0  0  0
  187.8760  177.4990  146.5300 C   0  0  0  0  0  0  0  0  0  0  0  0
  190.3800  177.1510  145.3410 C   0  0  0  0  0  3  0  0  0  0  0  0
  191.3910  176.5660  147.5450 C   0  0  0  0  0  1  0  0  0  0  0  0
  188.0250  177.6780  145.1300 C   0  0  0  0  0  0  0  0  0  0  0  0
  188.9710  177.1240  147.3090 C   0  0  0  0  0  3  0  0  0  0  0  0
  189.2840  177.5200  144.5540 C   0  0  0  0  0  3  0  0  0  0  0  0
  186.9990  178.2520  142.9690 O   0  0  0  0  0  0  0  0  0  0  0  0
  186.9240  178.0830  144.3660 C   0  0  0  0  0  0  0  0  0  0  0  0
  185.5610  178.1870  146.3850 C   0  0  0  0  0  3  0  0  0  0  0  0
  184.6420  178.9680  144.1170 C   0  0  1  0  0  3  0  0  0  0  0  0
  184.6710  178.3810  142.8330 O   0  0  0  0  0  0  0  0  0  0  0  0
  186.6440  177.7400  147.1420 C   0  0  0  0  0  3  0  0  0  0  0  0
  185.9210  178.5410  140.8160 C   0  0  0  0  0  0  0  0  0  0  0  0
  183.5060  177.9720  137.9620 N   0  0  0  0  0  2  0  0  0  0  0  0
  184.7220  178.2450  140.0970 N   0  0  0  0  0  2  0  0  0  0  0  0
  187.0200  178.6390  140.2020 O   0  0  0  0  0  0  0  0  0  0  0  0
  184.5470  178.5770  138.7170 C   0  0  0  0  0  0  0  0  0  0  0  0
  185.3010  179.4330  138.1690 O   0  0  0  0  0  0  0  0  0  0  0  0
  182.4040  177.2080  137.4140 C   0  0  2  0  0  3  0  0  0  0  0  0
  182.0010  175.0010  137.9090 O   0  0  0  0  0  0  0  0  0  0  0  0
  183.9010  175.3780  136.3800 C   0  0  0  0  0  0  0  0  0  0  0  0
  181.3110  177.0530  138.4330 C   0  0  0  0  0  3  0  0  0  0  0  0
  182.8200  175.8330  137.1940 N   0  0  0  0  0  0  0  0  0  0  0  0
  184.6240  176.2090  135.7600 O   0  0  0  0  0  0  0  0  0  0  0  0
  181.1130  175.7510  138.6600 C   0  0  0  0  0  3  0  0  0  0  0  0
  184.2030  173.9120  136.3030 C   0  0  2  0  0  3  0  0  0  0  0  0
  187.0990  172.4910  134.9660 O   0  0  0  0  0  0  0  0  0  0  0  0
  186.1880  172.7520  137.1850 C   0  0  0  0  0  3  0  0  0  0  0  0
  186.1900  172.9200  135.7200 C   0  0  0  0  0  0  0  0  0  0  0  0
  184.8700  173.4130  137.5950 C   0  0  0  0  0  3  0  0  0  0  0  0
  185.1130  173.6380  135.2530 O   0  0  0  0  0  0  0  0  0  0  0  0
  183.2220  179.0960  144.7030 C   0  0  0  0  0  2  0  0  0  0  0  0
  182.2630  178.3090  144.0220 O   0  0  0  0  0  0  0  0  0  0  0  0
  180.9410  179.9750  143.1950 O   0  0  0  0  0  0  0  0  0  0  0  0
  179.5780  180.0150  142.8900 C   0  0  2  0  0  3  0  0  0  0  0  0
  179.8920  178.0270  143.8360 C   0  0  0  0  0  2  0  0  0  0  0  0
  181.0220  178.9570  144.1370 C   0  0  1  0  0  3  0  0  0  0  0  0
  179.0060  178.7340  143.0200 O   0  0  0  0  0  0  0  0  0  0  0  0
  180.4150  180.0730  140.6520 O   0  0  0  0  0  1  0  0  0  0  0  0
  179.3830  180.5300  141.4760 C   0  0  0  0  0  2  0  0  0  0  0  0
  1  8  1  0  0  0  0
  1  6  1  0  0  0  0
  2 12  1  0  0  0  0
  3 16  1  6  0  0  0
  3 14  1  0  0  0  0
  3 10  1  0  0  0  0
  4 15  1  0  0  0  0
  4  8  2  0  0  0  0
  5  1  2  0  0  0  0
  7  4  1  0  0  0  0
  9  7  2  0  0  0  0
  9  5  1  0  0  0  0
 10 11  1  0  0  0  0
 11  2  2  0  0  0  0
 11  7  1  0  0  0  0
 12 15  2  0  0  0  0
 13 35  1  1  0  0  0
 13  2  1  0  0  0  0
 14 13  1  0  0  0  0
 17 20  1  0  0  0  0
 18 16  1  0  0  0  0
 19 16  2  0  0  0  0
 20 18  1  0  0  0  0
 21 20  2  0  0  0  0
 22 17  1  1  0  0  0
 22 25  1  0  0  0  0
 23 28  1  0  0  0  0
 24 26  1  0  0  0  0
 25 28  2  0  0  0  0
 26 22  1  0  0  0  0
 26 23  1  0  0  0  0
 27 24  2  0  0  0  0
 29 24  1  1  0  0  0
 29 33  1  0  0  0  0
 30 32  2  0  0  0  0
 31 33  2  0  0  0  0
 32 31  1  0  0  0  0
 34 32  1  0  0  0  0
 34 29  1  0  0  0  0
 36 35  1  0  0  0  0
 37 40  1  0  0  0  0
 38 43  1  6  0  0  0
 38 41  1  0  0  0  0
 38 37  1  0  0  0  0
 39 40  1  0  0  0  0
 40 36  1  6  0  0  0
 41 39  1  0  0  0  0
 42 43  1  0  0  0  0
M  END
>  <MODEL>
8

>  <REMARK>
 VINA RESULT:      -9.9      3.005      4.233
  Name = 
  7 active torsions:
  status: ('A' for Active; 'I' for Inactive)
    1  A    between atoms: C_1  and  O_32
    2  A    between atoms: C_1  and  C_34
    3  A    between atoms: C_2  and  C_13
    4  A    between atoms: N_3  and  C_4
    5  A    between atoms: C_11  and  C_14
    6  A    between atoms: C_19  and  C_37
    7  A    between atoms: O_32  and  C_35
                            x       y       z     vdW  Elec       q    Type
                         _______ _______ _______ _____ _____    ______ ____

>  <TORSDO>
F 7

$$$$
=
 OpenBabel11052416053D

 43 48  0  0  1  0  0  0  0  0999 V2000
  181.3600  178.9930  143.1810 C   0  0  0  0  0  0  0  0  0  0  0  0
  186.3140  178.2880  143.7480 C   0  0  0  0  0  0  0  0  0  0  0  0
  187.4480  177.8790  141.2520 C   0  0  2  0  0  3  0  0  0  0  0  0
  183.5840  178.7730  144.1000 C   0  0  0  0  0  0  0  0  0  0  0  0
  181.8690  178.8160  141.8950 C   0  0  0  0  0  3  0  0  0  0  0  0
  179.8990  179.1800  143.3820 C   0  0  0  0  0  1  0  0  0  0  0  0
  184.1110  178.6240  142.7900 C   0  0  0  0  0  0  0  0  0  0  0  0
  182.2140  178.9670  144.2850 C   0  0  0  0  0  3  0  0  0  0  0  0
  183.2410  178.6280  141.7020 C   0  0  0  0  0  3  0  0  0  0  0  0
  186.0730  178.2710  141.3480 O   0  0  0  0  0  0  0  0  0  0  0  0
  185.4830  178.4000  142.6210 C   0  0  0  0  0  0  0  0  0  0  0  0
  185.7840  178.4140  145.0410 C   0  0  0  0  0  3  0  0  0  0  0  0
  187.7280  177.8450  143.4600 C   0  0  1  0  0  3  0  0  0  0  0  0
  188.2030  178.4670  142.2850 O   0  0  0  0  0  0  0  0  0  0  0  0
  184.4250  178.6810  145.2100 C   0  0  0  0  0  3  0  0  0  0  0  0
  188.0370  178.2080  139.9260 C   0  0  0  0  0  0  0  0  0  0  0  0
  187.9020  176.9580  136.3600 N   0  0  0  0  0  2  0  0  0  0  0  0
  187.8210  177.3580  138.7980 N   0  0  0  0  0  2  0  0  0  0  0  0
  188.6670  179.2930  139.7910 O   0  0  0  0  0  0  0  0  0  0  0  0
  187.7720  177.8520  137.4570 C   0  0  0  0  0  0  0  0  0  0  0  0
  187.5850  179.0850  137.2400 O   0  0  0  0  0  0  0  0  0  0  0  0
  188.0820  175.8620  135.4300 C   0  0  2  0  0  3  0  0  0  0  0  0
  189.0750  173.8640  135.9810 O   0  0  0  0  0  0  0  0  0  0  0  0
  190.6450  175.7510  135.7210 C   0  0  0  0  0  0  0  0  0  0  0  0
  187.0680  174.7830  135.6840 C   0  0  0  0  0  3  0  0  0  0  0  0
  189.3360  175.1800  135.7110 N   0  0  0  0  0  0  0  0  0  0  0  0
  190.8040  176.9810  135.4770 O   0  0  0  0  0  0  0  0  0  0  0  0
  187.7080  173.6470  135.9770 C   0  0  0  0  0  3  0  0  0  0  0  0
  191.8220  174.8930  136.0700 C   0  0  2  0  0  3  0  0  0  0  0  0
  195.1100  176.0030  136.4700 O   0  0  0  0  0  0  0  0  0  0  0  0
  193.3820  175.2000  137.9510 C   0  0  0  0  0  3  0  0  0  0  0  0
  193.9380  175.5830  136.6400 C   0  0  0  0  0  0  0  0  0  0  0  0
  191.9670  174.7400  137.5940 C   0  0  0  0  0  3  0  0  0  0  0  0
  193.0280  175.4790  135.6120 O   0  0  0  0  0  0  0  0  0  0  0  0
  188.7310  177.8920  144.6300 C   0  0  0  0  0  2  0  0  0  0  0  0
  189.3580  176.6480  144.8790 O   0  0  0  0  0  0  0  0  0  0  0  0
  190.6660  176.3580  143.0320 O   0  0  0  0  0  0  0  0  0  0  0  0
  191.7010  177.1280  142.4960 C   0  0  2  0  0  3  0  0  0  0  0  0
  191.1890  178.1220  144.4190 C   0  0  0  0  0  2  0  0  0  0  0  0
  190.6660  176.7220  144.3730 C   0  0  1  0  0  3  0  0  0  0  0  0
  191.8220  178.3460  143.1940 O   0  0  0  0  0  0  0  0  0  0  0  0
  190.6380  176.3800  140.4900 O   0  0  0  0  0  1  0  0  0  0  0  0
  191.4340  177.3970  141.0260 C   0  0  0  0  0  2  0  0  0  0  0  0
  1  6  1  0  0  0  0
  1  8  1  0  0  0  0
  2 12  1  0  0  0  0
  3 16  1  6  0  0  0
  3 10  1  0  0  0  0
  3 14  1  0  0  0  0
  4  8  2  0  0  0  0
  4 15  1  0  0  0  0
  5  1  2  0  0  0  0
  7  4  1  0  0  0  0
  9  5  1  0  0  0  0
  9  7  2  0  0  0  0
 10 11  1  0  0  0  0
 11  7  1  0  0  0  0
 11  2  2  0  0  0  0
 12 15  2  0  0  0  0
 13  2  1  0  0  0  0
 13 35  1  1  0  0  0
 14 13  1  0  0  0  0
 17 20  1  0  0  0  0
 18 16  1  0  0  0  0
 19 16  2  0  0  0  0
 20 18  1  0  0  0  0
 21 20  2  0  0  0  0
 22 25  1  0  0  0  0
 22 26  1  0  0  0  0
 22 17  1  1  0  0  0
 25 28  2  0  0  0  0
 26 24  1  0  0  0  0
 26 23  1  0  0  0  0
 27 24  2  0  0  0  0
 28 23  1  0  0  0  0
 29 24  1  1  0  0  0
 29 33  1  0  0  0  0
 30 32  2  0  0  0  0
 32 31  1  0  0  0  0
 33 31  2  0  0  0  0
 34 29  1  0  0  0  0
 34 32  1  0  0  0  0
 35 36  1  0  0  0  0
 37 40  1  0  0  0  0
 38 43  1  6  0  0  0
 38 37  1  0  0  0  0
 38 41  1  0  0  0  0
 40 39  1  0  0  0  0
 40 36  1  6  0  0  0
 41 39  1  0  0  0  0
 42 43  1  0  0  0  0
M  END
>  <MODEL>
9

>  <REMARK>
 VINA RESULT:      -9.8      2.474      6.225
  Name = 
  7 active torsions:
  status: ('A' for Active; 'I' for Inactive)
    1  A    between atoms: C_1  and  O_32
    2  A    between atoms: C_1  and  C_34
    3  A    between atoms: C_2  and  C_13
    4  A    between atoms: N_3  and  C_4
    5  A    between atoms: C_11  and  C_14
    6  A    between atoms: C_19  and  C_37
    7  A    between atoms: O_32  and  C_35
                            x       y       z     vdW  Elec       q    Type
                         _______ _______ _______ _____ _____    ______ ____

>  <TORSDO>
F 7

$$$$
