=
 OpenBabel11052416383D

 43 48  0  0  1  0  0  0  0  0999 V2000
  186.4550  178.5070  137.8520 N   0  0  0  0  0  0  0  0  0  0  0  0
  183.7650  179.0430  144.7130 C   0  0  0  0  0  0  0  0  0  0  0  0
  187.9500  178.5690  137.8660 C   0  0  2  0  0  3  0  0  0  0  0  0
  187.3290  178.3870  136.6470 C   0  0  0  0  0  2  0  0  0  0  0  0
  182.7470  178.4090  139.8180 C   0  0  0  0  0  0  0  0  0  0  0  0
  185.1940  178.5010  138.5080 C   0  0  0  0  0  0  0  0  0  0  0  0
  182.6580  178.7010  142.5890 C   0  0  0  0  0  0  0  0  0  0  0  0
  184.9970  179.1190  144.0650 C   0  0  0  0  0  3  0  0  0  0  0  0
  183.7090  179.1570  146.0520 F   0  0  0  0  0  0  0  0  0  0  0  0
  183.9050  178.7670  141.9280 C   0  0  0  0  0  0  0  0  0  0  0  0
  182.5960  178.8380  143.9760 C   0  0  0  0  0  3  0  0  0  0  0  0
  185.0680  178.9830  142.6790 C   0  0  0  0  0  3  0  0  0  0  0  0
  185.1300  178.6530  139.8590 N   0  0  0  0  0  0  0  0  0  0  0  0
  183.9480  178.6140  140.5320 C   0  0  0  0  0  0  0  0  0  0  0  0
  181.5380  178.3590  140.5210 C   0  0  0  0  0  3  0  0  0  0  0  0
  182.7940  178.2640  138.4200 C   0  0  0  0  0  0  0  0  0  0  0  0
  184.0280  178.3050  137.7670 C   0  0  0  0  0  3  0  0  0  0  0  0
  181.5180  178.5020  141.8730 N   0  0  0  0  0  0  0  0  0  0  0  0
  181.5550  178.0390  137.6100 C   0  0  0  0  0  2  0  0  0  0  0  0
  180.7890  180.4560  134.7960 C   0  0  0  0  0  3  0  0  0  0  0  0
  180.4140  181.6010  135.5080 C   0  0  0  0  0  0  0  0  0  0  0  0
  180.7760  180.4180  137.5890 C   0  0  0  0  0  3  0  0  0  0  0  0
  181.1660  179.2980  135.4820 C   0  0  0  0  0  3  0  0  0  0  0  0
  181.1640  179.2790  136.8800 C   0  0  0  0  0  0  0  0  0  0  0  0
  180.4030  181.5780  136.9040 C   0  0  0  0  0  3  0  0  0  0  0  0
  180.8420  184.0060  135.2490 C   0  0  0  0  0  1  0  0  0  0  0  0
  180.0090  182.8350  134.7850 C   0  0  0  0  0  2  0  0  0  0  0  0
  188.5920  176.9890  138.4800 S   0  0  0  0  0  0  0  0  0  0  0  0
  188.7440  177.6150  140.1870 C   0  0  0  0  0  2  0  0  0  0  0  0
  189.0550  176.4470  142.4400 C   0  0  0  0  0  2  0  0  0  0  0  0
  191.6370  177.6050  142.5260 C   0  0  0  0  0  2  0  0  0  0  0  0
  189.6670  176.7560  141.0620 C   0  0  2  0  0  3  0  0  0  0  0  0
  191.0610  177.3270  141.1700 C   0  0  0  0  0  0  0  0  0  0  0  0
  189.4310  177.4820  143.4640 C   0  0  0  0  0  0  0  0  0  0  0  0
  190.6010  178.0190  143.4520 N   0  0  0  0  0  0  0  0  0  0  0  0
  191.8210  177.3540  140.1400 N   0  0  0  0  0  2  0  0  0  0  0  0
  188.4160  177.9220  144.4670 C   0  0  0  0  0  2  0  0  0  0  0  0
  188.4380  177.0570  145.7070 C   0  0  0  0  0  2  0  0  0  0  0  0
  189.2140  177.6850  146.7640 N   0  0  0  0  0  2  0  0  0  0  0  0
  191.9440  177.1810  146.1130 N   0  0  0  0  0  2  0  0  0  0  0  0
  192.1520  175.4390  147.7450 C   0  0  0  0  0  1  0  0  0  0  0  0
  191.3770  176.4910  147.0470 C   0  0  0  0  0  0  0  0  0  0  0  0
  189.9800  176.6720  147.3590 N   0  0  0  0  0  2  0  0  0  0  0  0
  1  3  1  0  0  0  0
  1  6  1  0  0  0  0
  2  9  1  0  0  0  0
  3 28  1  1  0  0  0
  4  1  1  0  0  0  0
  4  3  1  0  0  0  0
  5 15  1  0  0  0  0
  5 14  1  0  0  0  0
  6 13  1  0  0  0  0
  7 11  1  0  0  0  0
  8  2  1  0  0  0  0
 10  7  2  0  0  0  0
 10 12  1  0  0  0  0
 11  2  2  0  0  0  0
 12  8  2  0  0  0  0
 13 14  2  0  0  0  0
 14 10  1  0  0  0  0
 15 18  2  0  0  0  0
 16  5  2  0  0  0  0
 17 16  1  0  0  0  0
 17  6  2  0  0  0  0
 18  7  1  0  0  0  0
 19 16  1  0  0  0  0
 20 23  2  0  0  0  0
 20 21  1  0  0  0  0
 21 25  2  0  0  0  0
 23 24  1  0  0  0  0
 24 22  2  0  0  0  0
 24 19  1  0  0  0  0
 25 22  1  0  0  0  0
 27 26  1  0  0  0  0
 27 21  1  0  0  0  0
 28 29  1  0  0  0  0
 30 34  1  0  0  0  0
 31 35  1  0  0  0  0
 32 29  1  1  0  0  0
 32 33  1  0  0  0  0
 32 30  1  0  0  0  0
 33 31  1  0  0  0  0
 34 37  1  0  0  0  0
 35 34  2  0  0  0  0
 36 33  2  0  0  0  0
 37 38  1  0  0  0  0
 38 39  1  0  0  0  0
 39 43  1  0  0  0  0
 40 42  2  0  0  0  0
 42 43  1  0  0  0  0
 42 41  1  0  0  0  0
M  END
>  <MODEL>
1

>  <REMARK>
 VINA RESULT:      -9.4      0.000      0.000
  Name = 
  10 active torsions:
  status: ('A' for Active; 'I' for Inactive)
    1  A    between atoms: C_1  and  C_34
    2  A    between atoms: C_1  and  C_35
    3  A    between atoms: C_3  and  C_12
    4  A    between atoms: C_3  and  S_17
    5  A    between atoms: C_6  and  S_17
    6  A    between atoms: C_11  and  C_14
    7  A    between atoms: C_11  and  N_36
    8  A    between atoms: C_14  and  C_22
    9  A    between atoms: C_19  and  C_37
   10  A    between atoms: N_36  and  N_40
                            x       y       z     vdW  Elec       q    Type
                         _______ _______ _______ _____ _____    ______ ____

>  <TORSDO>
F 10

$$$$
=
 OpenBabel11052416383D

 43 48  0  0  1  0  0  0  0  0999 V2000
  188.4750  177.2970  141.4620 N   0  0  0  0  0  0  0  0  0  0  0  0
  181.2890  178.9830  141.8120 C   0  0  0  0  0  0  0  0  0  0  0  0
  188.8910  177.0580  140.0440 C   0  0  2  0  0  3  0  0  0  0  0  0
  189.8640  176.9770  141.0190 C   0  0  0  0  0  2  0  0  0  0  0  0
  185.6110  178.3830  144.3330 C   0  0  0  0  0  0  0  0  0  0  0  0
  187.5040  177.6370  142.4430 C   0  0  0  0  0  0  0  0  0  0  0  0
  182.9860  178.8690  143.5340 C   0  0  0  0  0  0  0  0  0  0  0  0
  182.2230  178.5830  140.8580 C   0  0  0  0  0  3  0  0  0  0  0  0
  180.0240  179.2450  141.4380 F   0  0  0  0  0  0  0  0  0  0  0  0
  183.9380  178.4720  142.5680 C   0  0  0  0  0  0  0  0  0  0  0  0
  181.6680  179.1230  143.1500 C   0  0  0  0  0  3  0  0  0  0  0  0
  183.5410  178.3270  141.2320 C   0  0  0  0  0  3  0  0  0  0  0  0
  186.2150  177.8670  142.0730 N   0  0  0  0  0  0  0  0  0  0  0  0
  185.2620  178.2330  142.9730 C   0  0  0  0  0  0  0  0  0  0  0  0
  184.6270  178.7710  145.2500 C   0  0  0  0  0  3  0  0  0  0  0  0
  186.9360  178.1350  144.7350 C   0  0  0  0  0  0  0  0  0  0  0  0
  187.8850  177.7670  143.7790 C   0  0  0  0  0  3  0  0  0  0  0  0
  183.3530  179.0050  144.8370 N   0  0  0  0  0  0  0  0  0  0  0  0
  187.3670  178.2830  146.1620 C   0  0  0  0  0  2  0  0  0  0  0  0
  190.0810  176.1040  147.6560 C   0  0  0  0  0  3  0  0  0  0  0  0
  191.1580  176.3810  146.8060 C   0  0  0  0  0  0  0  0  0  0  0  0
  189.7590  177.8920  145.5340 C   0  0  0  0  0  3  0  0  0  0  0  0
  188.8480  176.7280  147.4480 C   0  0  0  0  0  3  0  0  0  0  0  0
  188.6870  177.6270  146.3890 C   0  0  0  0  0  0  0  0  0  0  0  0
  190.9930  177.2700  145.7430 C   0  0  0  0  0  3  0  0  0  0  0  0
  192.8610  175.7940  148.4770 C   0  0  0  0  0  1  0  0  0  0  0  0
  192.4720  175.7180  147.0200 C   0  0  0  0  0  2  0  0  0  0  0  0
  188.9960  178.6530  139.1910 S   0  0  0  0  0  0  0  0  0  0  0  0
  189.5260  177.8780  137.6260 C   0  0  0  0  0  2  0  0  0  0  0  0
  187.2350  178.6640  136.8080 C   0  0  0  0  0  2  0  0  0  0  0  0
  187.4820  176.7630  134.7250 C   0  0  0  0  0  2  0  0  0  0  0  0
  188.6840  178.3190  136.4210 C   0  0  2  0  0  3  0  0  0  0  0  0
  188.7530  177.3380  135.2750 C   0  0  0  0  0  0  0  0  0  0  0  0
  186.3300  177.4670  136.7090 C   0  0  0  0  0  0  0  0  0  0  0  0
  186.4930  176.5990  135.7720 N   0  0  0  0  0  0  0  0  0  0  0  0
  189.8500  177.1790  134.6350 N   0  0  0  0  0  2  0  0  0  0  0  0
  185.2680  177.2650  137.7400 C   0  0  0  0  0  2  0  0  0  0  0  0
  183.8830  177.4490  137.1650 C   0  0  0  0  0  2  0  0  0  0  0  0
  183.1410  176.1990  137.1880 N   0  0  0  0  0  2  0  0  0  0  0  0
  183.2960  173.5070  136.2610 N   0  0  0  0  0  2  0  0  0  0  0  0
  185.0430  172.9350  137.7970 C   0  0  0  0  0  1  0  0  0  0  0  0
  184.0870  173.8990  137.2040 C   0  0  0  0  0  0  0  0  0  0  0  0
  183.9930  175.2340  137.7440 N   0  0  0  0  0  2  0  0  0  0  0  0
  1  6  1  0  0  0  0
  2 11  1  0  0  0  0
  3 28  1  6  0  0  0
  3  4  1  0  0  0  0
  3  1  1  0  0  0  0
  4  1  1  0  0  0  0
  5 16  1  0  0  0  0
  5 15  1  0  0  0  0
  6 17  1  0  0  0  0
  7 18  1  0  0  0  0
  8 12  1  0  0  0  0
  8  2  2  0  0  0  0
  9  2  1  0  0  0  0
 10 14  1  0  0  0  0
 10  7  1  0  0  0  0
 11  7  2  0  0  0  0
 12 10  2  0  0  0  0
 13  6  2  0  0  0  0
 13 14  1  0  0  0  0
 14  5  2  0  0  0  0
 16 19  1  0  0  0  0
 17 16  2  0  0  0  0
 18 15  2  0  0  0  0
 19 24  1  0  0  0  0
 21 27  1  0  0  0  0
 21 20  2  0  0  0  0
 22 25  2  0  0  0  0
 22 24  1  0  0  0  0
 23 20  1  0  0  0  0
 24 23  2  0  0  0  0
 25 21  1  0  0  0  0
 27 26  1  0  0  0  0
 29 28  1  0  0  0  0
 31 33  1  0  0  0  0
 31 35  1  0  0  0  0
 32 30  1  0  0  0  0
 32 29  1  1  0  0  0
 33 32  1  0  0  0  0
 34 30  1  0  0  0  0
 34 37  1  0  0  0  0
 35 34  2  0  0  0  0
 36 33  2  0  0  0  0
 38 39  1  0  0  0  0
 38 37  1  0  0  0  0
 39 43  1  0  0  0  0
 40 42  2  0  0  0  0
 42 43  1  0  0  0  0
 42 41  1  0  0  0  0
M  END
>  <MODEL>
2

>  <REMARK>
 VINA RESULT:      -9.0      3.254      9.308
  Name = 
  10 active torsions:
  status: ('A' for Active; 'I' for Inactive)
    1  A    between atoms: C_1  and  C_34
    2  A    between atoms: C_1  and  C_35
    3  A    between atoms: C_3  and  C_12
    4  A    between atoms: C_3  and  S_17
    5  A    between atoms: C_6  and  S_17
    6  A    between atoms: C_11  and  C_14
    7  A    between atoms: C_11  and  N_36
    8  A    between atoms: C_14  and  C_22
    9  A    between atoms: C_19  and  C_37
   10  A    between atoms: N_36  and  N_40
                            x       y       z     vdW  Elec       q    Type
                         _______ _______ _______ _____ _____    ______ ____

>  <TORSDO>
F 10

$$$$
=
 OpenBabel11052416383D

 43 48  0  0  1  0  0  0  0  0999 V2000
  188.1730  177.3760  141.9530 N   0  0  0  0  0  0  0  0  0  0  0  0
  181.0300  179.0810  141.1250 C   0  0  0  0  0  0  0  0  0  0  0  0
  188.8160  177.1460  140.6220 C   0  0  2  0  0  3  0  0  0  0  0  0
  189.6160  177.0550  141.7440 C   0  0  0  0  0  2  0  0  0  0  0  0
  184.8760  178.4480  144.3210 C   0  0  0  0  0  0  0  0  0  0  0  0
  187.0540  177.7110  142.7630 C   0  0  0  0  0  0  0  0  0  0  0  0
  182.4190  178.9480  143.1020 C   0  0  0  0  0  0  0  0  0  0  0  0
  182.1080  178.6840  140.3350 C   0  0  0  0  0  3  0  0  0  0  0  0
  179.8460  179.3490  140.5490 F   0  0  0  0  0  0  0  0  0  0  0  0
  183.5180  178.5560  142.3050 C   0  0  0  0  0  0  0  0  0  0  0  0
  181.1840  179.2090  142.5080 C   0  0  0  0  0  3  0  0  0  0  0  0
  183.3460  178.4220  140.9200 C   0  0  0  0  0  3  0  0  0  0  0  0
  185.8440  177.9470  142.1870 N   0  0  0  0  0  0  0  0  0  0  0  0
  184.7560  178.3100  142.9200 C   0  0  0  0  0  0  0  0  0  0  0  0
  183.7540  178.8320  145.0650 C   0  0  0  0  0  3  0  0  0  0  0  0
  186.1160  178.1930  144.9330 C   0  0  0  0  0  0  0  0  0  0  0  0
  187.2090  177.8300  144.1450 C   0  0  0  0  0  3  0  0  0  0  0  0
  182.5660  179.0730  144.4490 N   0  0  0  0  0  0  0  0  0  0  0  0
  186.3050  178.3290  146.4140 C   0  0  0  0  0  2  0  0  0  0  0  0
  189.5060  177.9970  148.4110 C   0  0  0  0  0  3  0  0  0  0  0  0
  190.2780  177.1930  147.5650 C   0  0  0  0  0  0  0  0  0  0  0  0
  188.4550  177.1250  145.9740 C   0  0  0  0  0  3  0  0  0  0  0  0
  188.2130  178.3710  148.0320 C   0  0  0  0  0  3  0  0  0  0  0  0
  187.6880  177.9390  146.8100 C   0  0  0  0  0  0  0  0  0  0  0  0
  189.7490  176.7530  146.3500 C   0  0  0  0  0  3  0  0  0  0  0  0
  192.1810  175.7400  147.0130 C   0  0  0  0  0  1  0  0  0  0  0  0
  191.6530  176.7890  147.9630 C   0  0  0  0  0  2  0  0  0  0  0  0
  189.0640  178.7470  139.8100 S   0  0  0  0  0  0  0  0  0  0  0  0
  188.8060  178.0420  138.1470 C   0  0  0  0  0  2  0  0  0  0  0  0
  187.8350  175.8520  137.2530 C   0  0  0  0  0  2  0  0  0  0  0  0
  185.6000  177.3590  136.3890 C   0  0  0  0  0  2  0  0  0  0  0  0
  187.5720  177.1340  138.0640 C   0  0  2  0  0  3  0  0  0  0  0  0
  186.3420  177.8700  137.5880 C   0  0  0  0  0  0  0  0  0  0  0  0
  187.5120  176.0350  135.7960 C   0  0  0  0  0  0  0  0  0  0  0  0
  186.5110  176.7600  135.4340 N   0  0  0  0  0  0  0  0  0  0  0  0
  185.8110  178.7700  138.3270 N   0  0  0  0  0  2  0  0  0  0  0  0
  188.3950  175.4110  134.7670 C   0  0  0  0  0  2  0  0  0  0  0  0
  189.7010  176.1560  134.6190 C   0  0  0  0  0  2  0  0  0  0  0  0
  190.8010  175.3960  135.1900 N   0  0  0  0  0  2  0  0  0  0  0  0
  191.1310  174.4750  137.8690 N   0  0  0  0  0  2  0  0  0  0  0  0
  192.1740  176.5090  138.5840 C   0  0  0  0  0  1  0  0  0  0  0  0
  191.5500  175.6540  137.5480 C   0  0  0  0  0  0  0  0  0  0  0  0
  191.3410  176.1800  136.2200 N   0  0  0  0  0  2  0  0  0  0  0  0
  1  6  1  0  0  0  0
  2 11  1  0  0  0  0
  3 28  1  6  0  0  0
  3  4  1  0  0  0  0
  3  1  1  0  0  0  0
  4  1  1  0  0  0  0
  5 16  1  0  0  0  0
  5 15  1  0  0  0  0
  6 17  1  0  0  0  0
  7 18  1  0  0  0  0
  8 12  1  0  0  0  0
  8  2  2  0  0  0  0
  9  2  1  0  0  0  0
 10 14  1  0  0  0  0
 10  7  1  0  0  0  0
 11  7  2  0  0  0  0
 12 10  2  0  0  0  0
 13  6  2  0  0  0  0
 13 14  1  0  0  0  0
 14  5  2  0  0  0  0
 16 19  1  0  0  0  0
 17 16  2  0  0  0  0
 18 15  2  0  0  0  0
 19 24  1  0  0  0  0
 21 27  1  0  0  0  0
 21 20  2  0  0  0  0
 22 25  2  0  0  0  0
 22 24  1  0  0  0  0
 23 20  1  0  0  0  0
 24 23  2  0  0  0  0
 25 21  1  0  0  0  0
 26 27  1  0  0  0  0
 29 28  1  0  0  0  0
 30 32  1  0  0  0  0
 31 33  1  0  0  0  0
 32 29  1  6  0  0  0
 33 32  1  0  0  0  0
 33 36  2  0  0  0  0
 34 30  1  0  0  0  0
 35 34  2  0  0  0  0
 35 31  1  0  0  0  0
 37 34  1  0  0  0  0
 38 37  1  0  0  0  0
 38 39  1  0  0  0  0
 39 43  1  0  0  0  0
 42 40  2  0  0  0  0
 42 41  1  0  0  0  0
 43 42  1  0  0  0  0
M  END
>  <MODEL>
3

>  <REMARK>
 VINA RESULT:      -9.0      3.301      8.969
  Name = 
  10 active torsions:
  status: ('A' for Active; 'I' for Inactive)
    1  A    between atoms: C_1  and  C_34
    2  A    between atoms: C_1  and  C_35
    3  A    between atoms: C_3  and  C_12
    4  A    between atoms: C_3  and  S_17
    5  A    between atoms: C_6  and  S_17
    6  A    between atoms: C_11  and  C_14
    7  A    between atoms: C_11  and  N_36
    8  A    between atoms: C_14  and  C_22
    9  A    between atoms: C_19  and  C_37
   10  A    between atoms: N_36  and  N_40
                            x       y       z     vdW  Elec       q    Type
                         _______ _______ _______ _____ _____    ______ ____

>  <TORSDO>
F 10

$$$$
=
 OpenBabel11052416383D

 43 48  0  0  1  0  0  0  0  0999 V2000
  186.2710  178.5560  137.8870 N   0  0  0  0  0  0  0  0  0  0  0  0
  184.4920  178.7500  145.0570 C   0  0  0  0  0  0  0  0  0  0  0  0
  187.7530  178.4410  137.7160 C   0  0  2  0  0  3  0  0  0  0  0  0
  186.9760  178.4490  136.5750 C   0  0  0  0  0  2  0  0  0  0  0  0
  182.8370  178.7070  140.2970 C   0  0  0  0  0  0  0  0  0  0  0  0
  185.1060  178.6360  138.6960 C   0  0  0  0  0  0  0  0  0  0  0  0
  183.1100  178.7430  143.0700 C   0  0  0  0  0  0  0  0  0  0  0  0
  185.6400  178.7430  144.2640 C   0  0  0  0  0  3  0  0  0  0  0  0
  184.6080  178.7430  146.3960 F   0  0  0  0  0  0  0  0  0  0  0  0
  184.2700  178.7250  142.2630 C   0  0  0  0  0  0  0  0  0  0  0  0
  183.2290  178.7540  144.4610 C   0  0  0  0  0  3  0  0  0  0  0  0
  185.5310  178.7320  142.8740 C   0  0  0  0  0  3  0  0  0  0  0  0
  185.2200  178.6660  140.0520 N   0  0  0  0  0  0  0  0  0  0  0  0
  184.1290  178.7020  140.8660 C   0  0  0  0  0  0  0  0  0  0  0  0
  181.7220  178.7330  141.1420 C   0  0  0  0  0  3  0  0  0  0  0  0
  182.7020  178.6910  138.8970 C   0  0  0  0  0  0  0  0  0  0  0  0
  183.8460  178.6490  138.0970 C   0  0  0  0  0  3  0  0  0  0  0  0
  181.8790  178.7480  142.4920 N   0  0  0  0  0  0  0  0  0  0  0  0
  181.3570  178.6900  138.2360 C   0  0  0  0  0  2  0  0  0  0  0  0
  180.9740  182.3900  137.5210 C   0  0  0  0  0  3  0  0  0  0  0  0
  180.6960  182.3800  136.1500 C   0  0  0  0  0  0  0  0  0  0  0  0
  180.8570  179.9650  136.1400 C   0  0  0  0  0  3  0  0  0  0  0  0
  181.1840  181.1870  138.2010 C   0  0  0  0  0  3  0  0  0  0  0  0
  181.1210  179.9720  137.5110 C   0  0  0  0  0  0  0  0  0  0  0  0
  180.6440  181.1670  135.4600 C   0  0  0  0  0  3  0  0  0  0  0  0
  181.0530  184.8100  136.2050 C   0  0  0  0  0  1  0  0  0  0  0  0
  180.4750  183.6570  135.4200 C   0  0  0  0  0  2  0  0  0  0  0  0
  188.2560  176.7460  138.1140 S   0  0  0  0  0  0  0  0  0  0  0  0
  189.6040  176.7640  136.8840 C   0  0  0  0  0  2  0  0  0  0  0  0
  191.1900  175.7230  138.5970 C   0  0  0  0  0  2  0  0  0  0  0  0
  193.2080  175.8830  136.6180 C   0  0  0  0  0  2  0  0  0  0  0  0
  190.6720  175.6950  137.1480 C   0  0  2  0  0  3  0  0  0  0  0  0
  191.7950  175.7360  136.1380 C   0  0  0  0  0  0  0  0  0  0  0  0
  192.3850  176.6230  138.7480 C   0  0  0  0  0  0  0  0  0  0  0  0
  193.2650  176.7040  137.8120 N   0  0  0  0  0  0  0  0  0  0  0  0
  191.5690  175.4180  134.9190 N   0  0  0  0  0  2  0  0  0  0  0  0
  192.5160  177.4660  139.9730 C   0  0  0  0  0  2  0  0  0  0  0  0
  191.2800  177.3940  140.8400 C   0  0  0  0  0  2  0  0  0  0  0  0
  191.6370  177.2230  142.2390 N   0  0  0  0  0  2  0  0  0  0  0  0
  191.4720  177.5160  145.0710 N   0  0  0  0  0  2  0  0  0  0  0  0
  189.0820  177.3530  145.0850 C   0  0  0  0  0  1  0  0  0  0  0  0
  190.3870  177.3780  144.3840 C   0  0  0  0  0  0  0  0  0  0  0  0
  190.4340  177.1610  142.9580 N   0  0  0  0  0  2  0  0  0  0  0  0
  1  6  1  0  0  0  0
  2  9  1  0  0  0  0
  3  1  1  0  0  0  0
  3 28  1  1  0  0  0
  4  3  1  0  0  0  0
  4  1  1  0  0  0  0
  5 14  1  0  0  0  0
  5 15  1  0  0  0  0
  6 13  1  0  0  0  0
  7 11  2  0  0  0  0
  8  2  2  0  0  0  0
 10 12  2  0  0  0  0
 10  7  1  0  0  0  0
 11  2  1  0  0  0  0
 12  8  1  0  0  0  0
 13 14  2  0  0  0  0
 14 10  1  0  0  0  0
 15 18  2  0  0  0  0
 16  5  2  0  0  0  0
 17  6  2  0  0  0  0
 17 16  1  0  0  0  0
 18  7  1  0  0  0  0
 19 16  1  0  0  0  0
 20 23  1  0  0  0  0
 21 20  2  0  0  0  0
 22 24  1  0  0  0  0
 24 23  2  0  0  0  0
 24 19  1  0  0  0  0
 25 22  2  0  0  0  0
 25 21  1  0  0  0  0
 27 21  1  0  0  0  0
 27 26  1  0  0  0  0
 29 28  1  0  0  0  0
 30 34  1  0  0  0  0
 31 35  1  0  0  0  0
 32 29  1  6  0  0  0
 32 30  1  0  0  0  0
 33 31  1  0  0  0  0
 33 32  1  0  0  0  0
 34 37  1  0  0  0  0
 35 34  2  0  0  0  0
 36 33  2  0  0  0  0
 37 38  1  0  0  0  0
 38 39  1  0  0  0  0
 39 43  1  0  0  0  0
 42 40  2  0  0  0  0
 42 41  1  0  0  0  0
 43 42  1  0  0  0  0
M  END
>  <MODEL>
4

>  <REMARK>
 VINA RESULT:      -8.9      1.925      3.078
  Name = 
  10 active torsions:
  status: ('A' for Active; 'I' for Inactive)
    1  A    between atoms: C_1  and  C_34
    2  A    between atoms: C_1  and  C_35
    3  A    between atoms: C_3  and  C_12
    4  A    between atoms: C_3  and  S_17
    5  A    between atoms: C_6  and  S_17
    6  A    between atoms: C_11  and  C_14
    7  A    between atoms: C_11  and  N_36
    8  A    between atoms: C_14  and  C_22
    9  A    between atoms: C_19  and  C_37
   10  A    between atoms: N_36  and  N_40
                            x       y       z     vdW  Elec       q    Type
                         _______ _______ _______ _____ _____    ______ ____

>  <TORSDO>
F 10

$$$$
=
 OpenBabel11052416383D

 43 48  0  0  1  0  0  0  0  0999 V2000
  188.3310  177.3000  141.5600 N   0  0  0  0  0  0  0  0  0  0  0  0
  181.1640  179.0050  142.1300 C   0  0  0  0  0  0  0  0  0  0  0  0
  188.7000  177.0480  140.1320 C   0  0  2  0  0  3  0  0  0  0  0  0
  189.7050  176.9730  141.0750 C   0  0  0  0  0  2  0  0  0  0  0  0
  185.5650  178.4170  144.5140 C   0  0  0  0  0  0  0  0  0  0  0  0
  187.3940  177.6500  142.5700 C   0  0  0  0  0  0  0  0  0  0  0  0
  182.9160  178.9010  143.7960 C   0  0  0  0  0  0  0  0  0  0  0  0
  182.0650  178.5940  141.1490 C   0  0  0  0  0  3  0  0  0  0  0  0
  179.8880  179.2660  141.7950 F   0  0  0  0  0  0  0  0  0  0  0  0
  183.8360  178.4940  142.8040 C   0  0  0  0  0  0  0  0  0  0  0  0
  181.5870  179.1550  143.4530 C   0  0  0  0  0  3  0  0  0  0  0  0
  183.3950  178.3380  141.4830 C   0  0  0  0  0  3  0  0  0  0  0  0
  186.0940  177.8800  142.2400 N   0  0  0  0  0  0  0  0  0  0  0  0
  185.1710  178.2560  143.1670 C   0  0  0  0  0  0  0  0  0  0  0  0
  184.6120  178.8140  145.4590 C   0  0  0  0  0  3  0  0  0  0  0  0
  186.9020  178.1690  144.8740 C   0  0  0  0  0  0  0  0  0  0  0  0
  187.8190  177.7910  143.8910 C   0  0  0  0  0  3  0  0  0  0  0  0
  183.3260  179.0470  145.0860 N   0  0  0  0  0  0  0  0  0  0  0  0
  187.3790  178.3280  146.2850 C   0  0  0  0  0  2  0  0  0  0  0  0
  190.0630  176.0720  147.7180 C   0  0  0  0  0  3  0  0  0  0  0  0
  191.1310  176.3260  146.8510 C   0  0  0  0  0  0  0  0  0  0  0  0
  189.7480  177.8790  145.6120 C   0  0  0  0  0  3  0  0  0  0  0  0
  188.8420  176.7290  147.5370 C   0  0  0  0  0  3  0  0  0  0  0  0
  188.6860  177.6370  146.4850 C   0  0  0  0  0  0  0  0  0  0  0  0
  190.9700  177.2250  145.7950 C   0  0  0  0  0  3  0  0  0  0  0  0
  192.8800  175.7420  148.4750 C   0  0  0  0  0  1  0  0  0  0  0  0
  192.4310  175.6280  147.0370 C   0  0  0  0  0  2  0  0  0  0  0  0
  188.7810  178.6350  139.2620 S   0  0  0  0  0  0  0  0  0  0  0  0
  189.9410  177.9890  138.0100 C   0  0  0  0  0  2  0  0  0  0  0  0
  190.5560  175.5830  137.4020 C   0  0  0  0  0  2  0  0  0  0  0  0
  189.4590  176.0990  134.8430 C   0  0  0  0  0  2  0  0  0  0  0  0
  189.4700  176.6740  137.3760 C   0  0  2  0  0  3  0  0  0  0  0  0
  188.8900  176.8710  135.9950 C   0  0  0  0  0  0  0  0  0  0  0  0
  191.4050  175.6090  136.1610 C   0  0  0  0  0  0  0  0  0  0  0  0
  190.8830  175.8860  135.0160 N   0  0  0  0  0  0  0  0  0  0  0  0
  187.7870  177.5050  135.8510 N   0  0  0  0  0  2  0  0  0  0  0  0
  192.8730  175.3610  136.2730 C   0  0  0  0  0  2  0  0  0  0  0  0
  193.5360  176.3330  137.2210 C   0  0  0  0  0  2  0  0  0  0  0  0
  194.3040  175.6280  138.2340 N   0  0  0  0  0  2  0  0  0  0  0  0
  195.4300  173.0750  138.8230 N   0  0  0  0  0  2  0  0  0  0  0  0
  197.1160  173.2780  137.1340 C   0  0  0  0  0  1  0  0  0  0  0  0
  195.9420  173.7910  137.8770 C   0  0  0  0  0  0  0  0  0  0  0  0
  195.4410  175.1150  137.5950 N   0  0  0  0  0  2  0  0  0  0  0  0
  1  6  1  0  0  0  0
  2 11  1  0  0  0  0
  3 28  1  6  0  0  0
  3  4  1  0  0  0  0
  3  1  1  0  0  0  0
  4  1  1  0  0  0  0
  5 16  1  0  0  0  0
  5 15  1  0  0  0  0
  6 17  1  0  0  0  0
  7 18  1  0  0  0  0
  8 12  1  0  0  0  0
  8  2  2  0  0  0  0
  9  2  1  0  0  0  0
 10 14  1  0  0  0  0
 10  7  1  0  0  0  0
 11  7  2  0  0  0  0
 12 10  2  0  0  0  0
 13  6  2  0  0  0  0
 13 14  1  0  0  0  0
 14  5  2  0  0  0  0
 16 19  1  0  0  0  0
 17 16  2  0  0  0  0
 18 15  2  0  0  0  0
 19 24  1  0  0  0  0
 21 27  1  0  0  0  0
 21 20  2  0  0  0  0
 22 25  2  0  0  0  0
 22 24  1  0  0  0  0
 23 20  1  0  0  0  0
 24 23  2  0  0  0  0
 25 21  1  0  0  0  0
 27 26  1  0  0  0  0
 29 28  1  0  0  0  0
 31 35  1  0  0  0  0
 31 33  1  0  0  0  0
 32 30  1  0  0  0  0
 32 29  1  6  0  0  0
 33 32  1  0  0  0  0
 34 37  1  0  0  0  0
 34 30  1  0  0  0  0
 35 34  2  0  0  0  0
 36 33  2  0  0  0  0
 37 38  1  0  0  0  0
 38 39  1  0  0  0  0
 41 42  1  0  0  0  0
 42 40  2  0  0  0  0
 43 42  1  0  0  0  0
 43 39  1  0  0  0  0
M  END
>  <MODEL>
5

>  <REMARK>
 VINA RESULT:      -8.9      3.689      9.089
  Name = 
  10 active torsions:
  status: ('A' for Active; 'I' for Inactive)
    1  A    between atoms: C_1  and  C_34
    2  A    between atoms: C_1  and  C_35
    3  A    between atoms: C_3  and  C_12
    4  A    between atoms: C_3  and  S_17
    5  A    between atoms: C_6  and  S_17
    6  A    between atoms: C_11  and  C_14
    7  A    between atoms: C_11  and  N_36
    8  A    between atoms: C_14  and  C_22
    9  A    between atoms: C_19  and  C_37
   10  A    between atoms: N_36  and  N_40
                            x       y       z     vdW  Elec       q    Type
                         _______ _______ _______ _____ _____    ______ ____

>  <TORSDO>
F 10

$$$$
=
 OpenBabel11052416383D

 43 48  0  0  1  0  0  0  0  0999 V2000
  186.4200  178.2770  137.7480 N   0  0  0  0  0  0  0  0  0  0  0  0
  183.6280  179.1290  144.5360 C   0  0  0  0  0  0  0  0  0  0  0  0
  187.9120  178.3870  137.7750 C   0  0  2  0  0  3  0  0  0  0  0  0
  187.3130  178.1140  136.5620 C   0  0  0  0  0  2  0  0  0  0  0  0
  182.6920  178.1770  139.6770 C   0  0  0  0  0  0  0  0  0  0  0  0
  185.1520  178.2700  138.3890 C   0  0  0  0  0  0  0  0  0  0  0  0
  182.5590  178.6280  142.4240 C   0  0  0  0  0  0  0  0  0  0  0  0
  184.8650  179.2060  143.8980 C   0  0  0  0  0  3  0  0  0  0  0  0
  183.5520  179.3200  145.8650 F   0  0  0  0  0  0  0  0  0  0  0  0
  183.8120  178.6950  141.7740 C   0  0  0  0  0  0  0  0  0  0  0  0
  182.4750  178.8440  143.8000 C   0  0  0  0  0  3  0  0  0  0  0  0
  184.9590  178.9920  142.5240 C   0  0  0  0  0  3  0  0  0  0  0  0
  185.0660  178.4990  139.7280 N   0  0  0  0  0  0  0  0  0  0  0  0
  183.8770  178.4620  140.3910 C   0  0  0  0  0  0  0  0  0  0  0  0
  181.4760  178.1300  140.3680 C   0  0  0  0  0  3  0  0  0  0  0  0
  182.7620  177.9530  138.2900 C   0  0  0  0  0  0  0  0  0  0  0  0
  184.0020  177.9940  137.6490 C   0  0  0  0  0  3  0  0  0  0  0  0
  181.4360  178.3520  141.7090 N   0  0  0  0  0  0  0  0  0  0  0  0
  181.5400  177.6410  137.4810 C   0  0  0  0  0  2  0  0  0  0  0  0
  180.0380  174.1880  137.8860 C   0  0  0  0  0  3  0  0  0  0  0  0
  180.9410  173.4060  137.1580 C   0  0  0  0  0  0  0  0  0  0  0  0
  182.2290  175.3880  136.6350 C   0  0  0  0  0  3  0  0  0  0  0  0
  180.2370  175.5670  137.9950 C   0  0  0  0  0  3  0  0  0  0  0  0
  181.3360  176.1680  137.3730 C   0  0  0  0  0  0  0  0  0  0  0  0
  182.0320  174.0080  136.5280 C   0  0  0  0  0  3  0  0  0  0  0  0
  181.9170  171.3020  136.3450 C   0  0  0  0  0  1  0  0  0  0  0  0
  180.7330  171.9380  137.0350 C   0  0  0  0  0  2  0  0  0  0  0  0
  188.5950  176.8680  138.4870 S   0  0  0  0  0  0  0  0  0  0  0  0
  188.8570  177.6460  140.1170 C   0  0  0  0  0  2  0  0  0  0  0  0
  189.1130  176.4970  142.3870 C   0  0  0  0  0  2  0  0  0  0  0  0
  191.6430  177.7530  142.5800 C   0  0  0  0  0  2  0  0  0  0  0  0
  189.7730  176.8260  141.0350 C   0  0  2  0  0  3  0  0  0  0  0  0
  191.1380  177.4500  141.2010 C   0  0  0  0  0  0  0  0  0  0  0  0
  189.4040  177.5480  143.4220 C   0  0  0  0  0  0  0  0  0  0  0  0
  190.5530  178.1300  143.4580 N   0  0  0  0  0  0  0  0  0  0  0  0
  191.9410  177.5030  140.2050 N   0  0  0  0  0  2  0  0  0  0  0  0
  188.3310  177.9520  144.3770 C   0  0  0  0  0  2  0  0  0  0  0  0
  188.3840  177.1480  145.6560 C   0  0  0  0  0  2  0  0  0  0  0  0
  189.2770  177.7670  146.6220 N   0  0  0  0  0  2  0  0  0  0  0  0
  192.0010  177.1230  146.0770 N   0  0  0  0  0  2  0  0  0  0  0  0
  192.0650  175.3950  147.7350 C   0  0  0  0  0  1  0  0  0  0  0  0
  191.3680  176.4740  146.9970 C   0  0  0  0  0  0  0  0  0  0  0  0
  189.9710  176.7260  147.2560 N   0  0  0  0  0  2  0  0  0  0  0  0
  1  3  1  0  0  0  0
  1  6  1  0  0  0  0
  2  9  1  0  0  0  0
  3 28  1  1  0  0  0
  4  1  1  0  0  0  0
  4  3  1  0  0  0  0
  5 15  1  0  0  0  0
  5 14  1  0  0  0  0
  6 13  1  0  0  0  0
  7 11  1  0  0  0  0
  8  2  1  0  0  0  0
 10  7  2  0  0  0  0
 10 12  1  0  0  0  0
 11  2  2  0  0  0  0
 12  8  2  0  0  0  0
 13 14  2  0  0  0  0
 14 10  1  0  0  0  0
 15 18  2  0  0  0  0
 16  5  2  0  0  0  0
 17 16  1  0  0  0  0
 17  6  2  0  0  0  0
 18  7  1  0  0  0  0
 19 16  1  0  0  0  0
 20 23  1  0  0  0  0
 21 20  2  0  0  0  0
 22 24  1  0  0  0  0
 24 19  1  0  0  0  0
 24 23  2  0  0  0  0
 25 22  2  0  0  0  0
 25 21  1  0  0  0  0
 26 27  1  0  0  0  0
 27 21  1  0  0  0  0
 28 29  1  0  0  0  0
 30 34  1  0  0  0  0
 31 35  1  0  0  0  0
 32 29  1  1  0  0  0
 32 33  1  0  0  0  0
 32 30  1  0  0  0  0
 33 31  1  0  0  0  0
 34 35  2  0  0  0  0
 34 37  1  0  0  0  0
 36 33  2  0  0  0  0
 37 38  1  0  0  0  0
 38 39  1  0  0  0  0
 39 43  1  0  0  0  0
 40 42  2  0  0  0  0
 42 43  1  0  0  0  0
 42 41  1  0  0  0  0
M  END
>  <MODEL>
6

>  <REMARK>
 VINA RESULT:      -8.5      1.952      3.507
  Name = 
  10 active torsions:
  status: ('A' for Active; 'I' for Inactive)
    1  A    between atoms: C_1  and  C_34
    2  A    between atoms: C_1  and  C_35
    3  A    between atoms: C_3  and  C_12
    4  A    between atoms: C_3  and  S_17
    5  A    between atoms: C_6  and  S_17
    6  A    between atoms: C_11  and  C_14
    7  A    between atoms: C_11  and  N_36
    8  A    between atoms: C_14  and  C_22
    9  A    between atoms: C_19  and  C_37
   10  A    between atoms: N_36  and  N_40
                            x       y       z     vdW  Elec       q    Type
                         _______ _______ _______ _____ _____    ______ ____

>  <TORSDO>
F 10

$$$$
=
 OpenBabel11052416383D

 43 48  0  0  1  0  0  0  0  0999 V2000
  190.4820  177.6640  141.4400 N   0  0  0  0  0  0  0  0  0  0  0  0
  183.4860  179.0850  139.5300 C   0  0  0  0  0  0  0  0  0  0  0  0
  190.7060  177.9740  142.8870 C   0  0  2  0  0  3  0  0  0  0  0  0
  191.7660  177.4560  142.1720 C   0  0  0  0  0  2  0  0  0  0  0  0
  187.9860  177.3410  138.0790 C   0  0  0  0  0  0  0  0  0  0  0  0
  189.6500  177.5780  140.2910 C   0  0  0  0  0  0  0  0  0  0  0  0
  185.3260  178.1520  138.2650 C   0  0  0  0  0  0  0  0  0  0  0  0
  184.3180  179.2350  140.6390 C   0  0  0  0  0  3  0  0  0  0  0  0
  182.1940  179.4490  139.6130 F   0  0  0  0  0  0  0  0  0  0  0  0
  186.1710  178.2940  139.3900 C   0  0  0  0  0  0  0  0  0  0  0  0
  183.9900  178.5470  138.3430 C   0  0  0  0  0  3  0  0  0  0  0  0
  185.6540  178.8430  140.5710 C   0  0  0  0  0  3  0  0  0  0  0  0
  188.3520  177.9800  140.3600 N   0  0  0  0  0  0  0  0  0  0  0  0
  187.5090  177.8790  139.2950 C   0  0  0  0  0  0  0  0  0  0  0  0
  187.1090  177.2300  136.9940 C   0  0  0  0  0  3  0  0  0  0  0  0
  189.3300  176.9340  137.9880 C   0  0  0  0  0  0  0  0  0  0  0  0
  190.1600  177.0490  139.1050 C   0  0  0  0  0  3  0  0  0  0  0  0
  185.8150  177.6300  137.1080 N   0  0  0  0  0  0  0  0  0  0  0  0
  189.8910  176.3510  136.7270 C   0  0  0  0  0  2  0  0  0  0  0  0
  192.5760  173.7320  137.2480 C   0  0  0  0  0  3  0  0  0  0  0  0
  193.7100  174.5300  137.4320 C   0  0  0  0  0  0  0  0  0  0  0  0
  192.3530  176.5150  137.1480 C   0  0  0  0  0  3  0  0  0  0  0  0
  191.3310  174.3260  137.0240 C   0  0  0  0  0  3  0  0  0  0  0  0
  191.2180  175.7190  136.9780 C   0  0  0  0  0  0  0  0  0  0  0  0
  193.5980  175.9210  137.3760 C   0  0  0  0  0  3  0  0  0  0  0  0
  195.4780  174.1410  139.0940 C   0  0  0  0  0  1  0  0  0  0  0  0
  195.0380  173.9040  137.6680 C   0  0  0  0  0  2  0  0  0  0  0  0
  189.9350  176.6760  143.8880 S   0  0  0  0  0  0  0  0  0  0  0  0
  189.2270  177.8800  145.0620 C   0  0  0  0  0  2  0  0  0  0  0  0
  186.7900  177.1280  145.2310 C   0  0  0  0  0  2  0  0  0  0  0  0
  186.6640  178.5550  147.6720 C   0  0  0  0  0  2  0  0  0  0  0  0
  188.1380  177.2760  145.9580 C   0  0  2  0  0  3  0  0  0  0  0  0
  188.0010  178.0040  147.2750 C   0  0  0  0  0  0  0  0  0  0  0  0
  185.9260  178.3470  145.3970 C   0  0  0  0  0  0  0  0  0  0  0  0
  185.9210  178.9990  146.5080 N   0  0  0  0  0  0  0  0  0  0  0  0
  188.9450  177.9480  148.1370 N   0  0  0  0  0  2  0  0  0  0  0  0
  185.1110  178.8300  144.2440 C   0  0  0  0  0  2  0  0  0  0  0  0
  183.8010  179.4350  144.6940 C   0  0  0  0  0  2  0  0  0  0  0  0
  182.6840  178.5740  144.3440 N   0  0  0  0  0  2  0  0  0  0  0  0
  179.8700  178.3080  143.9620 N   0  0  0  0  0  2  0  0  0  0  0  0
  179.8320  179.8730  142.1480 C   0  0  0  0  0  1  0  0  0  0  0  0
  180.5390  179.1170  143.2080 C   0  0  0  0  0  0  0  0  0  0  0  0
  181.9730  179.2280  143.3280 N   0  0  0  0  0  2  0  0  0  0  0  0
  1  4  1  0  0  0  0
  1  3  1  0  0  0  0
  2  9  1  0  0  0  0
  2  8  1  0  0  0  0
  3 28  1  1  0  0  0
  4  3  1  0  0  0  0
  5 14  1  0  0  0  0
  6 13  1  0  0  0  0
  6  1  1  0  0  0  0
  7 11  1  0  0  0  0
  7 10  2  0  0  0  0
 10 12  1  0  0  0  0
 11  2  2  0  0  0  0
 12  8  2  0  0  0  0
 14 10  1  0  0  0  0
 14 13  2  0  0  0  0
 15 18  2  0  0  0  0
 15  5  1  0  0  0  0
 16  5  2  0  0  0  0
 16 17  1  0  0  0  0
 17  6  2  0  0  0  0
 18  7  1  0  0  0  0
 19 24  1  0  0  0  0
 19 16  1  0  0  0  0
 20 21  1  0  0  0  0
 21 27  1  0  0  0  0
 22 25  1  0  0  0  0
 23 20  2  0  0  0  0
 24 23  1  0  0  0  0
 24 22  2  0  0  0  0
 25 21  2  0  0  0  0
 27 26  1  0  0  0  0
 28 29  1  0  0  0  0
 30 34  1  0  0  0  0
 30 32  1  0  0  0  0
 32 29  1  6  0  0  0
 32 33  1  0  0  0  0
 33 31  1  0  0  0  0
 33 36  2  0  0  0  0
 34 35  2  0  0  0  0
 35 31  1  0  0  0  0
 37 38  1  0  0  0  0
 37 34  1  0  0  0  0
 39 38  1  0  0  0  0
 41 42  1  0  0  0  0
 42 43  1  0  0  0  0
 42 40  2  0  0  0  0
 43 39  1  0  0  0  0
M  END
>  <MODEL>
7

>  <REMARK>
 VINA RESULT:      -8.5      3.078      8.689
  Name = 
  10 active torsions:
  status: ('A' for Active; 'I' for Inactive)
    1  A    between atoms: C_1  and  C_34
    2  A    between atoms: C_1  and  C_35
    3  A    between atoms: C_3  and  C_12
    4  A    between atoms: C_3  and  S_17
    5  A    between atoms: C_6  and  S_17
    6  A    between atoms: C_11  and  C_14
    7  A    between atoms: C_11  and  N_36
    8  A    between atoms: C_14  and  C_22
    9  A    between atoms: C_19  and  C_37
   10  A    between atoms: N_36  and  N_40
                            x       y       z     vdW  Elec       q    Type
                         _______ _______ _______ _____ _____    ______ ____

>  <TORSDO>
F 10

$$$$
=
 OpenBabel11052416383D

 43 48  0  0  1  0  0  0  0  0999 V2000
  188.0320  178.3170  140.6340 N   0  0  0  0  0  0  0  0  0  0  0  0
  191.3420  176.5300  146.9940 C   0  0  0  0  0  0  0  0  0  0  0  0
  188.9900  178.1980  139.4900 C   0  0  2  0  0  3  0  0  0  0  0  0
  187.6900  178.5610  139.2010 C   0  0  0  0  0  2  0  0  0  0  0  0
  187.0710  177.9080  144.7000 C   0  0  0  0  0  0  0  0  0  0  0  0
  187.7060  178.2080  142.0130 C   0  0  0  0  0  0  0  0  0  0  0  0
  189.0530  177.1420  146.5050 C   0  0  0  0  0  0  0  0  0  0  0  0
  191.6810  176.7040  145.6520 C   0  0  0  0  0  3  0  0  0  0  0  0
  192.2810  176.1370  147.8720 F   0  0  0  0  0  0  0  0  0  0  0  0
  189.3880  177.3100  145.1420 C   0  0  0  0  0  0  0  0  0  0  0  0
  190.0310  176.7520  147.4210 C   0  0  0  0  0  3  0  0  0  0  0  0
  190.7100  177.0930  144.7300 C   0  0  0  0  0  3  0  0  0  0  0  0
  188.6630  177.8460  142.9100 N   0  0  0  0  0  0  0  0  0  0  0  0
  188.3870  177.6910  144.2340 C   0  0  0  0  0  0  0  0  0  0  0  0
  186.7950  177.7340  146.0610 C   0  0  0  0  0  3  0  0  0  0  0  0
  186.0740  178.2960  143.7880 C   0  0  0  0  0  0  0  0  0  0  0  0
  186.3970  178.4390  142.4370 C   0  0  0  0  0  3  0  0  0  0  0  0
  187.7760  177.3590  146.9230 N   0  0  0  0  0  0  0  0  0  0  0  0
  184.6600  178.5360  144.2220 C   0  0  0  0  0  2  0  0  0  0  0  0
  183.2780  177.8770  140.7570 C   0  0  0  0  0  3  0  0  0  0  0  0
  181.9870  178.4040  140.8690 C   0  0  0  0  0  0  0  0  0  0  0  0
  182.4390  179.0090  143.1700 C   0  0  0  0  0  3  0  0  0  0  0  0
  184.1510  177.9260  141.8490 C   0  0  0  0  0  3  0  0  0  0  0  0
  183.7330  178.4960  143.0550 C   0  0  0  0  0  0  0  0  0  0  0  0
  181.5670  178.9640  142.0770 C   0  0  0  0  0  3  0  0  0  0  0  0
  181.0340  179.6850  139.0020 C   0  0  0  0  0  1  0  0  0  0  0  0
  181.0530  178.3530  139.7130 C   0  0  0  0  0  2  0  0  0  0  0  0
  189.2430  176.4420  139.1220 S   0  0  0  0  0  0  0  0  0  0  0  0
  191.0510  176.6440  138.9770 C   0  0  0  0  0  2  0  0  0  0  0  0
  190.5100  175.7170  136.6570 C   0  0  0  0  0  2  0  0  0  0  0  0
  192.9360  174.2680  136.8230 C   0  0  0  0  0  2  0  0  0  0  0  0
  191.5770  176.3530  137.5660 C   0  0  2  0  0  3  0  0  0  0  0  0
  192.8630  175.5620  137.5780 C   0  0  0  0  0  0  0  0  0  0  0  0
  190.5380  174.2160  136.7260 C   0  0  0  0  0  0  0  0  0  0  0  0
  191.6560  173.5870  136.8410 N   0  0  0  0  0  0  0  0  0  0  0  0
  193.9370  176.0960  138.0260 N   0  0  0  0  0  2  0  0  0  0  0  0
  189.2520  173.4570  136.7120 C   0  0  0  0  0  2  0  0  0  0  0  0
  188.1440  174.2420  136.0480 C   0  0  0  0  0  2  0  0  0  0  0  0
  186.9370  174.2230  136.8580 N   0  0  0  0  0  2  0  0  0  0  0  0
  184.2220  174.8570  137.4600 N   0  0  0  0  0  2  0  0  0  0  0  0
  184.5830  177.2150  137.2410 C   0  0  0  0  0  1  0  0  0  0  0  0
  185.0580  175.8120  137.2190 C   0  0  0  0  0  0  0  0  0  0  0  0
  186.4230  175.5280  136.8460 N   0  0  0  0  0  2  0  0  0  0  0  0
  1  6  1  0  0  0  0
  2 11  1  0  0  0  0
  2  9  1  0  0  0  0
  3 28  1  6  0  0  0
  3  1  1  0  0  0  0
  4  3  1  0  0  0  0
  4  1  1  0  0  0  0
  5 15  1  0  0  0  0
  6 17  2  0  0  0  0
  6 13  1  0  0  0  0
  7 18  1  0  0  0  0
  7 11  2  0  0  0  0
  8  2  2  0  0  0  0
 10  7  1  0  0  0  0
 12 10  2  0  0  0  0
 12  8  1  0  0  0  0
 13 14  2  0  0  0  0
 14  5  1  0  0  0  0
 14 10  1  0  0  0  0
 15 18  2  0  0  0  0
 16 19  1  0  0  0  0
 16  5  2  0  0  0  0
 17 16  1  0  0  0  0
 20 21  2  0  0  0  0
 20 23  1  0  0  0  0
 21 25  1  0  0  0  0
 23 24  2  0  0  0  0
 24 22  1  0  0  0  0
 24 19  1  0  0  0  0
 25 22  2  0  0  0  0
 26 27  1  0  0  0  0
 27 21  1  0  0  0  0
 29 28  1  0  0  0  0
 30 34  1  0  0  0  0
 30 32  1  0  0  0  0
 31 35  1  0  0  0  0
 31 33  1  0  0  0  0
 32 33  1  0  0  0  0
 32 29  1  1  0  0  0
 33 36  2  0  0  0  0
 34 35  2  0  0  0  0
 37 34  1  0  0  0  0
 38 37  1  0  0  0  0
 38 39  1  0  0  0  0
 42 41  1  0  0  0  0
 42 40  2  0  0  0  0
 43 39  1  0  0  0  0
 43 42  1  0  0  0  0
M  END
>  <MODEL>
8

>  <REMARK>
 VINA RESULT:      -8.5      3.013      7.262
  Name = 
  10 active torsions:
  status: ('A' for Active; 'I' for Inactive)
    1  A    between atoms: C_1  and  C_34
    2  A    between atoms: C_1  and  C_35
    3  A    between atoms: C_3  and  C_12
    4  A    between atoms: C_3  and  S_17
    5  A    between atoms: C_6  and  S_17
    6  A    between atoms: C_11  and  C_14
    7  A    between atoms: C_11  and  N_36
    8  A    between atoms: C_14  and  C_22
    9  A    between atoms: C_19  and  C_37
   10  A    between atoms: N_36  and  N_40
                            x       y       z     vdW  Elec       q    Type
                         _______ _______ _______ _____ _____    ______ ____

>  <TORSDO>
F 10

$$$$
=
 OpenBabel11052416383D

 43 48  0  0  1  0  0  0  0  0999 V2000
  189.0830  177.0630  141.1090 N   0  0  0  0  0  0  0  0  0  0  0  0
  194.2170  175.1140  136.1640 C   0  0  0  0  0  0  0  0  0  0  0  0
  189.6080  176.9070  142.5020 C   0  0  2  0  0  3  0  0  0  0  0  0
  188.3300  177.4060  142.3520 C   0  0  0  0  0  2  0  0  0  0  0  0
  189.5810  176.9310  136.9430 C   0  0  0  0  0  0  0  0  0  0  0  0
  189.2350  176.9940  139.6980 C   0  0  0  0  0  0  0  0  0  0  0  0
  191.9870  176.0090  135.8790 C   0  0  0  0  0  0  0  0  0  0  0  0
  194.0460  175.1140  137.5480 C   0  0  0  0  0  3  0  0  0  0  0  0
  195.3810  174.6950  135.6380 F   0  0  0  0  0  0  0  0  0  0  0  0
  191.8130  176.0210  137.2820 C   0  0  0  0  0  0  0  0  0  0  0  0
  193.1880  175.5580  135.3300 C   0  0  0  0  0  3  0  0  0  0  0  0
  192.8500  175.5640  138.1060 C   0  0  0  0  0  3  0  0  0  0  0  0
  190.3980  176.5360  139.1610 N   0  0  0  0  0  0  0  0  0  0  0  0
  190.6010  176.4910  137.8150 C   0  0  0  0  0  0  0  0  0  0  0  0
  189.8040  176.8920  135.5610 C   0  0  0  0  0  3  0  0  0  0  0  0
  188.3670  177.3940  137.4820 C   0  0  0  0  0  0  0  0  0  0  0  0
  188.2010  177.4300  138.8680 C   0  0  0  0  0  3  0  0  0  0  0  0
  190.9860  176.4400  135.0650 N   0  0  0  0  0  0  0  0  0  0  0  0
  187.2520  177.8780  136.6070 C   0  0  0  0  0  2  0  0  0  0  0  0
  183.8140  177.4380  138.1340 C   0  0  0  0  0  3  0  0  0  0  0  0
  183.5110  176.1240  137.7600 C   0  0  0  0  0  0  0  0  0  0  0  0
  185.6450  175.9590  136.6290 C   0  0  0  0  0  3  0  0  0  0  0  0
  185.0350  178.0070  137.7620 C   0  0  0  0  0  3  0  0  0  0  0  0
  185.9550  177.2660  137.0130 C   0  0  0  0  0  0  0  0  0  0  0  0
  184.4240  175.3890  137.0030 C   0  0  0  0  0  3  0  0  0  0  0  0
  181.7650  176.0540  139.4870 C   0  0  0  0  0  1  0  0  0  0  0  0
  182.2120  175.5150  138.1500 C   0  0  0  0  0  2  0  0  0  0  0  0
  190.7670  178.2570  142.8430 S   0  0  0  0  0  0  0  0  0  0  0  0
  190.0820  178.5400  144.5100 C   0  0  0  0  0  2  0  0  0  0  0  0
  188.3900  177.1940  145.8740 C   0  0  0  0  0  2  0  0  0  0  0  0
  190.4720  176.7260  147.7340 C   0  0  0  0  0  2  0  0  0  0  0  0
  189.8080  177.2400  145.2770 C   0  0  2  0  0  3  0  0  0  0  0  0
  190.8720  176.9370  146.3050 C   0  0  0  0  0  0  0  0  0  0  0  0
  188.3520  177.7510  147.2700 C   0  0  0  0  0  0  0  0  0  0  0  0
  189.3340  177.5550  148.0800 N   0  0  0  0  0  0  0  0  0  0  0  0
  192.0580  176.6360  145.9260 N   0  0  0  0  0  2  0  0  0  0  0  0
  187.1870  178.5830  147.6940 C   0  0  0  0  0  2  0  0  0  0  0  0
  185.9300  178.2180  146.9390 C   0  0  0  0  0  2  0  0  0  0  0  0
  185.3220  179.3950  146.3420 N   0  0  0  0  0  2  0  0  0  0  0  0
  184.5320  179.7230  143.6210 N   0  0  0  0  0  2  0  0  0  0  0  0
  182.4260  178.6350  143.9600 C   0  0  0  0  0  1  0  0  0  0  0  0
  183.7380  179.1220  144.4440 C   0  0  0  0  0  0  0  0  0  0  0  0
  184.0750  178.9960  145.8420 N   0  0  0  0  0  2  0  0  0  0  0  0
  1  4  1  0  0  0  0
  1  3  1  0  0  0  0
  2  8  1  0  0  0  0
  3 28  1  6  0  0  0
  4  3  1  0  0  0  0
  5 16  2  0  0  0  0
  5 14  1  0  0  0  0
  6  1  1  0  0  0  0
  7 10  2  0  0  0  0
  8 12  2  0  0  0  0
  9  2  1  0  0  0  0
 10 14  1  0  0  0  0
 10 12  1  0  0  0  0
 11  7  1  0  0  0  0
 11  2  2  0  0  0  0
 13  6  1  0  0  0  0
 14 13  2  0  0  0  0
 15  5  1  0  0  0  0
 16 17  1  0  0  0  0
 17  6  2  0  0  0  0
 18 15  2  0  0  0  0
 18  7  1  0  0  0  0
 19 24  1  0  0  0  0
 19 16  1  0  0  0  0
 21 20  2  0  0  0  0
 21 27  1  0  0  0  0
 22 25  2  0  0  0  0
 22 24  1  0  0  0  0
 23 20  1  0  0  0  0
 24 23  2  0  0  0  0
 25 21  1  0  0  0  0
 27 26  1  0  0  0  0
 28 29  1  0  0  0  0
 30 34  1  0  0  0  0
 31 35  1  0  0  0  0
 32 29  1  1  0  0  0
 32 30  1  0  0  0  0
 32 33  1  0  0  0  0
 33 31  1  0  0  0  0
 34 37  1  0  0  0  0
 34 35  2  0  0  0  0
 36 33  2  0  0  0  0
 38 37  1  0  0  0  0
 39 38  1  0  0  0  0
 40 42  2  0  0  0  0
 41 42  1  0  0  0  0
 42 43  1  0  0  0  0
 43 39  1  0  0  0  0
M  END
>  <MODEL>
9

>  <REMARK>
 VINA RESULT:      -8.4      3.975      7.797
  Name = 
  10 active torsions:
  status: ('A' for Active; 'I' for Inactive)
    1  A    between atoms: C_1  and  C_34
    2  A    between atoms: C_1  and  C_35
    3  A    between atoms: C_3  and  C_12
    4  A    between atoms: C_3  and  S_17
    5  A    between atoms: C_6  and  S_17
    6  A    between atoms: C_11  and  C_14
    7  A    between atoms: C_11  and  N_36
    8  A    between atoms: C_14  and  C_22
    9  A    between atoms: C_19  and  C_37
   10  A    between atoms: N_36  and  N_40
                            x       y       z     vdW  Elec       q    Type
                         _______ _______ _______ _____ _____    ______ ____

>  <TORSDO>
F 10

$$$$
