=
 OpenBabel11052415303D

 37 41  0  0  1  0  0  0  0  0999 V2000
  183.9780  178.0780  138.6930 C   0  0  1  0  0  3  0  0  0  0  0  0
  184.0330  175.0120  134.9760 C   0  0  0  0  0  1  0  0  0  0  0  0
  181.0400  178.8470  135.9100 C   0  0  0  0  0  1  0  0  0  0  0  0
  182.6660  176.0380  139.3980 C   0  0  0  0  0  1  0  0  0  0  0  0
  182.1770  177.9580  136.3650 C   0  0  1  0  0  3  0  0  0  0  0  0
  183.0750  176.9060  138.2150 C   0  0  1  0  0  0  0  0  0  0  0  0
  183.0800  175.6210  135.9820 C   0  0  0  0  0  0  0  0  0  0  0  0
  181.8830  177.4110  137.6280 O   0  0  0  0  0  0  0  0  0  0  0  0
  182.0260  174.5860  136.3280 C   0  0  0  0  0  1  0  0  0  0  0  0
  182.4060  176.8420  135.3480 C   0  0  0  0  0  2  0  0  0  0  0  0
  183.8690  176.0020  137.2400 C   0  0  0  0  0  2  0  0  0  0  0  0
  182.2000  179.4830  139.6920 C   0  0  0  0  0  3  0  0  0  0  0  0
  183.4230  178.7590  139.8630 N   0  0  0  0  0  0  0  0  0  0  0  0
  184.2670  179.0140  141.0300 C   0  0  0  0  0  2  0  0  0  0  0  0
  181.2660  178.7320  141.8920 C   0  0  0  0  0  2  0  0  0  0  0  0
  181.2400  179.5190  140.6180 C   0  0  0  0  0  3  0  0  0  0  0  0
  183.6990  178.3440  142.2720 C   0  0  2  0  0  3  0  0  0  0  0  0
  182.4610  179.0780  142.7660 C   0  0  0  0  0  2  0  0  0  0  0  0
  186.0090  177.7760  143.0240 C   0  0  0  0  0  3  0  0  0  0  0  0
  184.7390  178.2670  143.3450 C   0  0  0  0  0  0  0  0  0  0  0  0
  184.4730  178.6990  144.6550 C   0  0  0  0  0  3  0  0  0  0  0  0
  185.2040  179.0550  146.9260 O   0  0  0  0  0  1  0  0  0  0  0  0
  186.7350  178.1300  145.3070 C   0  0  0  0  0  3  0  0  0  0  0  0
  185.4690  178.6270  145.6340 C   0  0  0  0  0  0  0  0  0  0  0  0
  187.0050  177.7060  144.0020 C   0  0  0  0  0  3  0  0  0  0  0  0
  186.3540  177.9580  138.0140 C   0  0  0  0  0  3  0  0  0  0  0  0
  185.4180  177.7170  138.9240 C   0  0  0  0  0  3  0  0  0  0  0  0
  187.7880  177.6330  138.1760 C   0  0  0  0  0  0  0  0  0  0  0  0
  188.4580  176.6970  137.4870 C   0  0  0  0  0  3  0  0  0  0  0  0
  187.9970  174.3950  136.8570 C   0  0  2  0  0  3  0  0  0  0  0  0
  187.8720  175.8080  136.4410 C   0  0  2  0  0  3  0  0  0  0  0  0
  188.8760  174.9730  135.9220 O   0  0  0  0  0  0  0  0  0  0  0  0
  186.2510  172.8670  137.1850 C   0  0  0  0  0  2  0  0  0  0  0  0
  187.3180  172.1860  136.4650 C   0  0  0  0  0  2  0  0  0  0  0  0
  187.0120  173.5900  136.1560 N   0  0  0  0  0  0  0  0  0  0  0  0
  190.1040  177.4290  139.3710 C   0  0  0  0  0  1  0  0  0  0  0  0
  188.7120  178.5960  139.3680 S   0  0  0  0  0  0  0  0  0  0  0  0
  1 27  1  1  0  0  0
  1 13  1  0  0  0  0
  2  7  1  0  0  0  0
  5  3  1  6  0  0  0
  5  8  1  0  0  0  0
  6  1  1  0  0  0  0
  6  4  1  1  0  0  0
  7  9  1  0  0  0  0
  7 11  1  0  0  0  0
  8  6  1  0  0  0  0
 10  7  1  0  0  0  0
 10  5  1  0  0  0  0
 11  6  1  0  0  0  0
 12 13  1  0  0  0  0
 12 16  2  0  0  0  0
 13 14  1  0  0  0  0
 14 17  1  0  0  0  0
 15 18  1  0  0  0  0
 16 15  1  0  0  0  0
 17 18  1  0  0  0  0
 17 20  1  1  0  0  0
 19 20  2  0  0  0  0
 19 25  1  0  0  0  0
 20 21  1  0  0  0  0
 21 24  2  0  0  0  0
 23 24  1  0  0  0  0
 24 22  1  0  0  0  0
 25 23  2  0  0  0  0
 26 28  1  0  0  0  0
 26 27  2  0  0  0  0
 28 37  1  0  0  0  0
 29 28  2  0  0  0  0
 30 35  1  6  0  0  0
 31 30  1  0  0  0  0
 31 29  1  1  0  0  0
 32 31  1  0  0  0  0
 32 30  1  0  0  0  0
 34 33  1  0  0  0  0
 35 34  1  0  0  0  0
 35 33  1  0  0  0  0
 37 36  1  0  0  0  0
M  END
>  <MODEL>
1

>  <REMARK>
 VINA RESULT:      -6.8      0.000      0.000
  Name = 
  8 active torsions:
  status: ('A' for Active; 'I' for Inactive)
    1  A    between atoms: C_1  and  C_5
    2  A    between atoms: C_5  and  S_23
    3  A    between atoms: C_6  and  C_31
    4  A    between atoms: N_10  and  C_29
    5  A    between atoms: C_11  and  N_33
    6  A    between atoms: C_17  and  C_26
    7  A    between atoms: C_20  and  C_29
    8  A    between atoms: C_29  and  C_36
                            x       y       z     vdW  Elec       q    Type
                         _______ _______ _______ _____ _____    ______ ____

>  <TORSDO>
F 8

$$$$
=
 OpenBabel11052415303D

 37 41  0  0  1  0  0  0  0  0999 V2000
  184.1620  178.0850  138.3200 C   0  0  1  0  0  3  0  0  0  0  0  0
  183.9410  175.0370  134.5950 C   0  0  0  0  0  1  0  0  0  0  0  0
  181.0400  178.8810  135.7530 C   0  0  0  0  0  1  0  0  0  0  0  0
  182.8920  176.0470  139.1060 C   0  0  0  0  0  1  0  0  0  0  0  0
  182.2020  177.9850  136.1240 C   0  0  1  0  0  3  0  0  0  0  0  0
  183.2220  176.9190  137.9020 C   0  0  1  0  0  0  0  0  0  0  0  0
  183.0640  175.6450  135.6680 C   0  0  0  0  0  0  0  0  0  0  0  0
  181.9940  177.4330  137.4020 O   0  0  0  0  0  0  0  0  0  0  0  0
  182.0310  174.6130  136.0820 C   0  0  0  0  0  1  0  0  0  0  0  0
  182.3530  176.8720  135.0880 C   0  0  0  0  0  2  0  0  0  0  0  0
  183.9410  176.0160  136.8700 C   0  0  0  0  0  2  0  0  0  0  0  0
  182.5020  179.4660  139.5320 C   0  0  0  0  0  3  0  0  0  0  0  0
  183.7260  178.7250  139.5620 N   0  0  0  0  0  0  0  0  0  0  0  0
  184.6770  178.9270  140.6540 C   0  0  0  0  0  2  0  0  0  0  0  0
  181.7650  178.6400  141.7790 C   0  0  0  0  0  2  0  0  0  0  0  0
  181.6310  179.4760  140.5430 C   0  0  0  0  0  3  0  0  0  0  0  0
  184.2180  178.2150  141.9170 C   0  0  2  0  0  3  0  0  0  0  0  0
  183.0400  178.9410  142.5510 C   0  0  0  0  0  2  0  0  0  0  0  0
  185.1040  178.2950  144.2480 C   0  0  0  0  0  3  0  0  0  0  0  0
  185.3500  178.0870  142.8860 C   0  0  0  0  0  0  0  0  0  0  0  0
  186.6430  177.7430  142.4600 C   0  0  0  0  0  3  0  0  0  0  0  0
  188.9550  177.2760  142.9680 O   0  0  0  0  0  1  0  0  0  0  0  0
  187.4270  177.8330  144.7500 C   0  0  0  0  0  3  0  0  0  0  0  0
  187.6800  177.6190  143.3910 C   0  0  0  0  0  0  0  0  0  0  0  0
  186.1390  178.1690  145.1780 C   0  0  0  0  0  3  0  0  0  0  0  0
  186.4770  178.1030  137.4480 C   0  0  0  0  0  3  0  0  0  0  0  0
  185.6200  177.7300  138.3910 C   0  0  0  0  0  3  0  0  0  0  0  0
  187.9240  177.7930  137.4560 C   0  0  0  0  0  0  0  0  0  0  0  0
  188.5020  176.7560  136.8310 C   0  0  0  0  0  3  0  0  0  0  0  0
  187.7260  174.4530  136.7790 C   0  0  2  0  0  3  0  0  0  0  0  0
  187.7870  175.7240  136.0250 C   0  0  2  0  0  3  0  0  0  0  0  0
  188.6610  174.6600  135.7470 O   0  0  0  0  0  0  0  0  0  0  0  0
  186.0170  172.9970  137.4500 C   0  0  0  0  0  2  0  0  0  0  0  0
  186.9520  172.2470  136.6230 C   0  0  0  0  0  2  0  0  0  0  0  0
  186.6310  173.6400  136.2790 N   0  0  0  0  0  0  0  0  0  0  0  0
  189.5400  177.6300  139.5040 C   0  0  0  0  0  1  0  0  0  0  0  0
  188.9930  178.9180  138.3460 S   0  0  0  0  0  0  0  0  0  0  0  0
  1 27  1  1  0  0  0
  1 13  1  0  0  0  0
  2  7  1  0  0  0  0
  5  3  1  6  0  0  0
  5  8  1  0  0  0  0
  6  1  1  0  0  0  0
  6  4  1  1  0  0  0
  7  9  1  0  0  0  0
  7 11  1  0  0  0  0
  8  6  1  0  0  0  0
 10  7  1  0  0  0  0
 10  5  1  0  0  0  0
 11  6  1  0  0  0  0
 12 13  1  0  0  0  0
 12 16  2  0  0  0  0
 13 14  1  0  0  0  0
 14 17  1  0  0  0  0
 15 18  1  0  0  0  0
 16 15  1  0  0  0  0
 17 18  1  0  0  0  0
 17 20  1  1  0  0  0
 19 25  1  0  0  0  0
 20 19  2  0  0  0  0
 21 20  1  0  0  0  0
 21 24  2  0  0  0  0
 22 24  1  0  0  0  0
 23 25  2  0  0  0  0
 24 23  1  0  0  0  0
 26 28  1  0  0  0  0
 26 27  2  0  0  0  0
 28 37  1  0  0  0  0
 29 28  2  0  0  0  0
 30 35  1  6  0  0  0
 31 30  1  0  0  0  0
 31 29  1  1  0  0  0
 32 31  1  0  0  0  0
 32 30  1  0  0  0  0
 34 33  1  0  0  0  0
 35 34  1  0  0  0  0
 35 33  1  0  0  0  0
 37 36  1  0  0  0  0
M  END
>  <MODEL>
2

>  <REMARK>
 VINA RESULT:      -6.8      1.091      1.354
  Name = 
  8 active torsions:
  status: ('A' for Active; 'I' for Inactive)
    1  A    between atoms: C_1  and  C_5
    2  A    between atoms: C_5  and  S_23
    3  A    between atoms: C_6  and  C_31
    4  A    between atoms: N_10  and  C_29
    5  A    between atoms: C_11  and  N_33
    6  A    between atoms: C_17  and  C_26
    7  A    between atoms: C_20  and  C_29
    8  A    between atoms: C_29  and  C_36
                            x       y       z     vdW  Elec       q    Type
                         _______ _______ _______ _____ _____    ______ ____

>  <TORSDO>
F 8

$$$$
=
 OpenBabel11052415303D

 37 41  0  0  1  0  0  0  0  0999 V2000
  183.9810  177.8070  140.0720 C   0  0  1  0  0  3  0  0  0  0  0  0
  187.0710  176.8880  136.4900 C   0  0  0  0  0  1  0  0  0  0  0  0
  187.9160  178.4200  141.1250 C   0  0  0  0  0  1  0  0  0  0  0  0
  184.1170  179.8960  138.6580 C   0  0  0  0  0  1  0  0  0  0  0  0
  186.9150  178.0630  140.0470 C   0  0  1  0  0  3  0  0  0  0  0  0
  184.8790  178.6690  139.1400 C   0  0  1  0  0  0  0  0  0  0  0  0
  186.7500  177.9490  137.5200 C   0  0  0  0  0  0  0  0  0  0  0  0
  186.0210  179.1320  139.8490 O   0  0  0  0  0  0  0  0  0  0  0  0
  187.0410  179.3090  136.9120 C   0  0  0  0  0  1  0  0  0  0  0  0
  187.6450  177.7370  138.7450 C   0  0  0  0  0  2  0  0  0  0  0  0
  185.2630  177.8490  137.8840 C   0  0  0  0  0  2  0  0  0  0  0  0
  182.2910  179.2730  141.1310 C   0  0  0  0  0  3  0  0  0  0  0  0
  183.5240  178.5550  141.2430 N   0  0  0  0  0  0  0  0  0  0  0  0
  184.4590  178.8720  142.3210 C   0  0  0  0  0  2  0  0  0  0  0  0
  181.5380  178.6520  143.4380 C   0  0  0  0  0  2  0  0  0  0  0  0
  181.4080  179.3660  142.1280 C   0  0  0  0  0  3  0  0  0  0  0  0
  183.9940  178.2760  143.6410 C   0  0  2  0  0  3  0  0  0  0  0  0
  182.8000  179.0430  144.1910 C   0  0  0  0  0  2  0  0  0  0  0  0
  184.9130  178.8110  145.8980 C   0  0  0  0  0  3  0  0  0  0  0  0
  185.1170  178.2560  144.6290 C   0  0  0  0  0  0  0  0  0  0  0  0
  186.3570  177.6740  144.3180 C   0  0  0  0  0  3  0  0  0  0  0  0
  188.6060  177.0820  144.9580 O   0  0  0  0  0  1  0  0  0  0  0  0
  187.1740  178.2200  146.5310 C   0  0  0  0  0  3  0  0  0  0  0  0
  187.3830  177.6600  145.2670 C   0  0  0  0  0  0  0  0  0  0  0  0
  185.9390  178.7940  146.8470 C   0  0  0  0  0  3  0  0  0  0  0  0
  182.6440  175.8170  139.4590 C   0  0  0  0  0  3  0  0  0  0  0  0
  182.8250  177.1310  139.3910 C   0  0  0  0  0  3  0  0  0  0  0  0
  181.5280  175.0870  138.8180 C   0  0  0  0  0  0  0  0  0  0  0  0
  181.6010  174.4110  137.6610 C   0  0  0  0  0  3  0  0  0  0  0  0
  183.0630  172.8620  136.4910 C   0  0  2  0  0  3  0  0  0  0  0  0
  182.8190  174.2860  136.8080 C   0  0  2  0  0  3  0  0  0  0  0  0
  183.7920  173.5350  137.4910 O   0  0  0  0  0  0  0  0  0  0  0  0
  183.4520  171.5360  134.5990 C   0  0  0  0  0  2  0  0  0  0  0  0
  184.6570  171.5220  135.4160 C   0  0  0  0  0  2  0  0  0  0  0  0
  183.8760  172.7610  135.2920 N   0  0  0  0  0  0  0  0  0  0  0  0
  179.3520  173.6410  138.7490 C   0  0  0  0  0  1  0  0  0  0  0  0
  179.9610  175.0770  139.6800 S   0  0  0  0  0  0  0  0  0  0  0  0
  1 27  1  6  0  0  0
  1 13  1  0  0  0  0
  2  7  1  0  0  0  0
  5  3  1  1  0  0  0
  6  4  1  6  0  0  0
  6  8  1  0  0  0  0
  6  1  1  0  0  0  0
  7 11  1  0  0  0  0
  7 10  1  0  0  0  0
  8  5  1  0  0  0  0
  9  7  1  0  0  0  0
 10  5  1  0  0  0  0
 11  6  1  0  0  0  0
 12 13  1  0  0  0  0
 12 16  2  0  0  0  0
 13 14  1  0  0  0  0
 14 17  1  0  0  0  0
 15 18  1  0  0  0  0
 16 15  1  0  0  0  0
 17 18  1  0  0  0  0
 17 20  1  1  0  0  0
 19 25  1  0  0  0  0
 20 19  2  0  0  0  0
 21 20  1  0  0  0  0
 21 24  2  0  0  0  0
 22 24  1  0  0  0  0
 23 25  2  0  0  0  0
 24 23  1  0  0  0  0
 27 26  2  0  0  0  0
 28 26  1  0  0  0  0
 28 37  1  0  0  0  0
 29 28  2  0  0  0  0
 30 35  1  6  0  0  0
 30 31  1  0  0  0  0
 30 32  1  0  0  0  0
 31 32  1  0  0  0  0
 31 29  1  1  0  0  0
 33 35  1  0  0  0  0
 33 34  1  0  0  0  0
 35 34  1  0  0  0  0
 36 37  1  0  0  0  0
M  END
>  <MODEL>
3

>  <REMARK>
 VINA RESULT:      -6.5      2.717      4.727
  Name = 
  8 active torsions:
  status: ('A' for Active; 'I' for Inactive)
    1  A    between atoms: C_1  and  C_5
    2  A    between atoms: C_5  and  S_23
    3  A    between atoms: C_6  and  C_31
    4  A    between atoms: N_10  and  C_29
    5  A    between atoms: C_11  and  N_33
    6  A    between atoms: C_17  and  C_26
    7  A    between atoms: C_20  and  C_29
    8  A    between atoms: C_29  and  C_36
                            x       y       z     vdW  Elec       q    Type
                         _______ _______ _______ _____ _____    ______ ____

>  <TORSDO>
F 8

$$$$
=
 OpenBabel11052415303D

 37 41  0  0  1  0  0  0  0  0999 V2000
  186.4530  178.1250  138.6110 C   0  0  1  0  0  3  0  0  0  0  0  0
  188.4780  174.4000  136.3220 C   0  0  0  0  0  1  0  0  0  0  0  0
  187.0430  178.8160  134.5940 C   0  0  0  0  0  1  0  0  0  0  0  0
  184.5880  176.5400  137.9840 C   0  0  0  0  0  1  0  0  0  0  0  0
  187.1270  177.8510  135.7570 C   0  0  1  0  0  3  0  0  0  0  0  0
  185.9640  177.0600  137.5900 C   0  0  1  0  0  0  0  0  0  0  0  0
  187.3160  175.3630  136.2000 C   0  0  0  0  0  0  0  0  0  0  0  0
  185.8440  177.6370  136.2970 O   0  0  0  0  0  0  0  0  0  0  0  0
  186.1500  174.6250  135.5680 C   0  0  0  0  0  1  0  0  0  0  0  0
  187.7320  176.5270  135.2950 C   0  0  0  0  0  2  0  0  0  0  0  0
  186.9290  175.8480  137.6020 C   0  0  0  0  0  2  0  0  0  0  0  0
  184.2330  179.2180  138.7050 C   0  0  0  0  0  3  0  0  0  0  0  0
  185.3530  178.6700  139.4080 N   0  0  0  0  0  0  0  0  0  0  0  0
  185.5590  178.9930  140.8190 C   0  0  0  0  0  2  0  0  0  0  0  0
  182.5590  178.2490  140.2970 C   0  0  0  0  0  2  0  0  0  0  0  0
  182.9720  179.0770  139.1200 C   0  0  0  0  0  3  0  0  0  0  0  0
  184.6150  178.1970  141.7070 C   0  0  2  0  0  3  0  0  0  0  0  0
  183.1930  178.7250  141.5950 C   0  0  0  0  0  2  0  0  0  0  0  0
  184.2190  178.6980  144.1180 C   0  0  0  0  0  3  0  0  0  0  0  0
  185.0860  178.2250  143.1260 C   0  0  0  0  0  0  0  0  0  0  0  0
  186.3640  177.7660  143.4830 C   0  0  0  0  0  3  0  0  0  0  0  0
  188.0340  177.3380  145.1710 O   0  0  0  0  0  1  0  0  0  0  0  0
  185.9020  178.2710  145.8060 C   0  0  0  0  0  3  0  0  0  0  0  0
  186.7720  177.7930  144.8210 C   0  0  0  0  0  0  0  0  0  0  0  0
  184.6260  178.7220  145.4550 C   0  0  0  0  0  3  0  0  0  0  0  0
  188.8490  177.7850  139.1240 C   0  0  0  0  0  3  0  0  0  0  0  0
  187.5800  177.6830  139.5000 C   0  0  0  0  0  3  0  0  0  0  0  0
  190.0070  177.3730  139.9470 C   0  0  0  0  0  0  0  0  0  0  0  0
  191.1760  176.9130  139.4750 C   0  0  0  0  0  3  0  0  0  0  0  0
  192.3010  175.4860  137.8610 C   0  0  2  0  0  3  0  0  0  0  0  0
  191.5120  176.7250  138.0330 C   0  0  2  0  0  3  0  0  0  0  0  0
  192.9080  176.7570  137.8710 O   0  0  0  0  0  0  0  0  0  0  0  0
  192.2240  173.5520  136.5410 C   0  0  0  0  0  2  0  0  0  0  0  0
  193.4270  174.2930  136.1880 C   0  0  0  0  0  2  0  0  0  0  0  0
  192.1860  175.0210  136.4900 N   0  0  0  0  0  0  0  0  0  0  0  0
  191.6050  177.2000  142.0090 C   0  0  0  0  0  1  0  0  0  0  0  0
  189.8440  177.5370  141.7210 S   0  0  0  0  0  0  0  0  0  0  0  0
  1 13  1  0  0  0  0
  1 27  1  1  0  0  0
  5  3  1  6  0  0  0
  5  8  1  0  0  0  0
  6 11  1  0  0  0  0
  6  4  1  1  0  0  0
  6  1  1  0  0  0  0
  7  2  1  0  0  0  0
  7 11  1  0  0  0  0
  8  6  1  0  0  0  0
  9  7  1  0  0  0  0
 10  5  1  0  0  0  0
 10  7  1  0  0  0  0
 12 16  2  0  0  0  0
 12 13  1  0  0  0  0
 13 14  1  0  0  0  0
 14 17  1  0  0  0  0
 15 18  1  0  0  0  0
 16 15  1  0  0  0  0
 17 20  1  1  0  0  0
 18 17  1  0  0  0  0
 19 25  1  0  0  0  0
 20 21  1  0  0  0  0
 20 19  2  0  0  0  0
 21 24  2  0  0  0  0
 24 22  1  0  0  0  0
 24 23  1  0  0  0  0
 25 23  2  0  0  0  0
 26 27  2  0  0  0  0
 26 28  1  0  0  0  0
 28 37  1  0  0  0  0
 29 28  2  0  0  0  0
 30 35  1  6  0  0  0
 30 32  1  0  0  0  0
 30 31  1  0  0  0  0
 31 29  1  1  0  0  0
 32 31  1  0  0  0  0
 34 35  1  0  0  0  0
 34 33  1  0  0  0  0
 35 33  1  0  0  0  0
 37 36  1  0  0  0  0
M  END
>  <MODEL>
4

>  <REMARK>
 VINA RESULT:      -6.4      2.408      3.586
  Name = 
  8 active torsions:
  status: ('A' for Active; 'I' for Inactive)
    1  A    between atoms: C_1  and  C_5
    2  A    between atoms: C_5  and  S_23
    3  A    between atoms: C_6  and  C_31
    4  A    between atoms: N_10  and  C_29
    5  A    between atoms: C_11  and  N_33
    6  A    between atoms: C_17  and  C_26
    7  A    between atoms: C_20  and  C_29
    8  A    between atoms: C_29  and  C_36
                            x       y       z     vdW  Elec       q    Type
                         _______ _______ _______ _____ _____    ______ ____

>  <TORSDO>
F 8

$$$$
=
 OpenBabel11052415303D

 37 41  0  0  1  0  0  0  0  0999 V2000
  182.1530  177.8060  139.4170 C   0  0  1  0  0  3  0  0  0  0  0  0
  184.7980  174.2710  137.4880 C   0  0  0  0  0  1  0  0  0  0  0  0
  182.0620  177.7730  135.2990 C   0  0  0  0  0  1  0  0  0  0  0  0
  180.7090  175.7340  139.3870 C   0  0  0  0  0  1  0  0  0  0  0  0
  182.5330  177.1160  136.5790 C   0  0  1  0  0  3  0  0  0  0  0  0
  181.8430  176.4690  138.6870 C   0  0  1  0  0  0  0  0  0  0  0  0
  183.4190  174.8880  137.3990 C   0  0  0  0  0  0  0  0  0  0  0  0
  181.4240  176.7230  137.3530 O   0  0  0  0  0  0  0  0  0  0  0  0
  182.4200  173.7830  137.1050 C   0  0  0  0  0  1  0  0  0  0  0  0
  183.4050  175.9040  136.2540 C   0  0  0  0  0  2  0  0  0  0  0  0
  183.0860  175.5460  138.7440 C   0  0  0  0  0  2  0  0  0  0  0  0
  180.0070  178.4530  140.4690 C   0  0  0  0  0  3  0  0  0  0  0  0
  180.9910  178.6940  139.4570 N   0  0  0  0  0  0  0  0  0  0  0  0
  180.6590  179.5200  138.2970 C   0  0  0  0  0  2  0  0  0  0  0  0
  179.6630  180.8910  140.9350 C   0  0  0  0  0  2  0  0  0  0  0  0
  179.3660  179.4330  141.1090 C   0  0  0  0  0  3  0  0  0  0  0  0
  180.6710  180.9980  138.6570 C   0  0  2  0  0  3  0  0  0  0  0  0
  179.4590  181.3590  139.5030 C   0  0  0  0  0  2  0  0  0  0  0  0
  180.6040  181.2120  136.1720 C   0  0  0  0  0  3  0  0  0  0  0  0
  180.7280  181.8360  137.4190 C   0  0  0  0  0  0  0  0  0  0  0  0
  180.8790  183.2300  137.4840 C   0  0  0  0  0  3  0  0  0  0  0  0
  181.0630  185.3660  136.3770 O   0  0  0  0  0  1  0  0  0  0  0  0
  180.7960  183.3580  135.0670 C   0  0  0  0  0  3  0  0  0  0  0  0
  180.9160  183.9890  136.3100 C   0  0  0  0  0  0  0  0  0  0  0  0
  180.6390  181.9700  134.9990 C   0  0  0  0  0  3  0  0  0  0  0  0
  183.4410  178.6380  141.3590 C   0  0  0  0  0  3  0  0  0  0  0  0
  182.7520  177.6580  140.7870 C   0  0  0  0  0  3  0  0  0  0  0  0
  184.0550  178.5630  142.7030 C   0  0  0  0  0  0  0  0  0  0  0  0
  185.3360  178.2580  142.9600 C   0  0  0  0  0  3  0  0  0  0  0  0
  187.7040  177.8810  142.5670 C   0  0  2  0  0  3  0  0  0  0  0  0
  186.3690  177.9300  141.9340 C   0  0  2  0  0  3  0  0  0  0  0  0
  187.2750  178.9980  141.8250 O   0  0  0  0  0  0  0  0  0  0  0  0
  189.4740  176.3500  142.6820 C   0  0  0  0  0  2  0  0  0  0  0  0
  189.9630  177.5580  142.0340 C   0  0  0  0  0  2  0  0  0  0  0  0
  188.6020  177.0810  141.7510 N   0  0  0  0  0  0  0  0  0  0  0  0
  184.3920  178.9150  145.2710 C   0  0  0  0  0  1  0  0  0  0  0  0
  183.0040  178.9450  144.1000 S   0  0  0  0  0  0  0  0  0  0  0  0
  1 13  1  0  0  0  0
  1 27  1  1  0  0  0
  5  3  1  6  0  0  0
  5  8  1  0  0  0  0
  6 11  1  0  0  0  0
  6  4  1  1  0  0  0
  6  1  1  0  0  0  0
  7  2  1  0  0  0  0
  7 11  1  0  0  0  0
  8  6  1  0  0  0  0
  9  7  1  0  0  0  0
 10  5  1  0  0  0  0
 10  7  1  0  0  0  0
 12 16  2  0  0  0  0
 13 12  1  0  0  0  0
 14 17  1  0  0  0  0
 14 13  1  0  0  0  0
 15 16  1  0  0  0  0
 17 20  1  6  0  0  0
 17 18  1  0  0  0  0
 18 15  1  0  0  0  0
 19 20  1  0  0  0  0
 20 21  2  0  0  0  0
 23 24  2  0  0  0  0
 24 22  1  0  0  0  0
 24 21  1  0  0  0  0
 25 23  1  0  0  0  0
 25 19  2  0  0  0  0
 26 28  1  0  0  0  0
 27 26  2  0  0  0  0
 28 29  2  0  0  0  0
 28 37  1  0  0  0  0
 30 35  1  6  0  0  0
 31 30  1  0  0  0  0
 31 29  1  1  0  0  0
 32 31  1  0  0  0  0
 32 30  1  0  0  0  0
 34 33  1  0  0  0  0
 35 34  1  0  0  0  0
 35 33  1  0  0  0  0
 37 36  1  0  0  0  0
M  END
>  <MODEL>
5

>  <REMARK>
 VINA RESULT:      -6.3      3.121      6.395
  Name = 
  8 active torsions:
  status: ('A' for Active; 'I' for Inactive)
    1  A    between atoms: C_1  and  C_5
    2  A    between atoms: C_5  and  S_23
    3  A    between atoms: C_6  and  C_31
    4  A    between atoms: N_10  and  C_29
    5  A    between atoms: C_11  and  N_33
    6  A    between atoms: C_17  and  C_26
    7  A    between atoms: C_20  and  C_29
    8  A    between atoms: C_29  and  C_36
                            x       y       z     vdW  Elec       q    Type
                         _______ _______ _______ _____ _____    ______ ____

>  <TORSDO>
F 8

$$$$
=
 OpenBabel11052415303D

 37 41  0  0  1  0  0  0  0  0999 V2000
  188.4520  177.0990  141.2290 C   0  0  1  0  0  3  0  0  0  0  0  0
  191.2490  179.6390  144.2190 C   0  0  0  0  0  1  0  0  0  0  0  0
  192.4490  176.9270  140.2510 C   0  0  0  0  0  1  0  0  0  0  0  0
  188.9540  175.6150  143.2110 C   0  0  0  0  0  1  0  0  0  0  0  0
  191.3800  177.4100  141.2080 C   0  0  1  0  0  3  0  0  0  0  0  0
  189.4790  176.7500  142.3430 C   0  0  1  0  0  0  0  0  0  0  0  0
  191.1520  178.2700  143.5810 C   0  0  0  0  0  0  0  0  0  0  0  0
  190.7010  176.3100  141.7640 O   0  0  0  0  0  0  0  0  0  0  0  0
  191.6830  177.2450  144.5660 C   0  0  0  0  0  1  0  0  0  0  0  0
  192.0120  178.2530  142.3150 C   0  0  0  0  0  2  0  0  0  0  0  0
  189.6790  177.9760  143.2680 C   0  0  0  0  0  2  0  0  0  0  0  0
  186.5680  178.6280  140.7370 C   0  0  0  0  0  3  0  0  0  0  0  0
  187.3960  177.9880  141.7140 N   0  0  0  0  0  0  0  0  0  0  0  0
  187.4380  178.4990  143.0830 C   0  0  0  0  0  2  0  0  0  0  0  0
  184.4750  178.3160  142.0780 C   0  0  0  0  0  2  0  0  0  0  0  0
  185.2590  178.8260  140.9080 C   0  0  0  0  0  3  0  0  0  0  0  0
  186.2010  178.0800  143.8620 C   0  0  2  0  0  3  0  0  0  0  0  0
  184.9810  178.8660  143.4020 C   0  0  0  0  0  2  0  0  0  0  0  0
  185.5050  179.0030  146.0720 C   0  0  0  0  0  3  0  0  0  0  0  0
  186.4250  178.2530  145.3300 C   0  0  0  0  0  0  0  0  0  0  0  0
  187.5210  177.6610  145.9790 C   0  0  0  0  0  3  0  0  0  0  0  0
  188.7800  177.2430  147.9940 O   0  0  0  0  0  1  0  0  0  0  0  0
  186.7770  178.5840  148.0900 C   0  0  0  0  0  3  0  0  0  0  0  0
  187.6970  177.8300  147.3560 C   0  0  0  0  0  0  0  0  0  0  0  0
  185.6800  179.1690  147.4490 C   0  0  0  0  0  3  0  0  0  0  0  0
  188.9710  176.9620  138.8140 C   0  0  0  0  0  3  0  0  0  0  0  0
  189.0500  177.6320  139.9580 C   0  0  0  0  0  3  0  0  0  0  0  0
  189.5330  177.4270  137.5260 C   0  0  0  0  0  0  0  0  0  0  0  0
  190.4130  176.7540  136.7710 C   0  0  0  0  0  3  0  0  0  0  0  0
  192.4450  175.4200  136.8200 C   0  0  2  0  0  3  0  0  0  0  0  0
  190.9930  175.4190  137.1010 C   0  0  2  0  0  3  0  0  0  0  0  0
  191.5180  174.8360  135.9350 O   0  0  0  0  0  0  0  0  0  0  0  0
  194.4660  174.8330  137.8510 C   0  0  0  0  0  2  0  0  0  0  0  0
  194.2120  173.8820  136.7780 C   0  0  0  0  0  2  0  0  0  0  0  0
  193.0930  174.3750  137.5930 N   0  0  0  0  0  0  0  0  0  0  0  0
  187.2340  178.4450  136.8110 C   0  0  0  0  0  1  0  0  0  0  0  0
  188.9590  179.0060  136.9110 S   0  0  0  0  0  0  0  0  0  0  0  0
  1 27  1  6  0  0  0
  1 13  1  0  0  0  0
  1  6  1  0  0  0  0
  5  3  1  6  0  0  0
  5  8  1  0  0  0  0
  5 10  1  0  0  0  0
  6  4  1  1  0  0  0
  6 11  1  0  0  0  0
  7  2  1  0  0  0  0
  7  9  1  0  0  0  0
  8  6  1  0  0  0  0
 10  7  1  0  0  0  0
 11  7  1  0  0  0  0
 12 16  2  0  0  0  0
 12 13  1  0  0  0  0
 13 14  1  0  0  0  0
 14 17  1  0  0  0  0
 15 18  1  0  0  0  0
 16 15  1  0  0  0  0
 17 20  1  1  0  0  0
 18 17  1  0  0  0  0
 19 25  1  0  0  0  0
 20 21  1  0  0  0  0
 20 19  2  0  0  0  0
 21 24  2  0  0  0  0
 24 22  1  0  0  0  0
 24 23  1  0  0  0  0
 25 23  2  0  0  0  0
 26 27  2  0  0  0  0
 28 26  1  0  0  0  0
 29 28  2  0  0  0  0
 30 31  1  0  0  0  0
 30 35  1  1  0  0  0
 31 29  1  6  0  0  0
 32 30  1  0  0  0  0
 32 31  1  0  0  0  0
 34 35  1  0  0  0  0
 34 33  1  0  0  0  0
 35 33  1  0  0  0  0
 36 37  1  0  0  0  0
 37 28  1  0  0  0  0
M  END
>  <MODEL>
6

>  <REMARK>
 VINA RESULT:      -6.2      3.879      6.578
  Name = 
  8 active torsions:
  status: ('A' for Active; 'I' for Inactive)
    1  A    between atoms: C_1  and  C_5
    2  A    between atoms: C_5  and  S_23
    3  A    between atoms: C_6  and  C_31
    4  A    between atoms: N_10  and  C_29
    5  A    between atoms: C_11  and  N_33
    6  A    between atoms: C_17  and  C_26
    7  A    between atoms: C_20  and  C_29
    8  A    between atoms: C_29  and  C_36
                            x       y       z     vdW  Elec       q    Type
                         _______ _______ _______ _____ _____    ______ ____

>  <TORSDO>
F 8

$$$$
=
 OpenBabel11052415303D

 37 41  0  0  1  0  0  0  0  0999 V2000
  184.7080  178.8480  140.2070 C   0  0  1  0  0  3  0  0  0  0  0  0
  182.6820  176.9620  136.2630 C   0  0  0  0  0  1  0  0  0  0  0  0
  181.5620  181.0850  138.7700 C   0  0  0  0  0  1  0  0  0  0  0  0
  183.0280  177.1310  140.9880 C   0  0  0  0  0  1  0  0  0  0  0  0
  182.4060  179.8330  138.6570 C   0  0  1  0  0  3  0  0  0  0  0  0
  183.3650  178.1320  139.8910 C   0  0  1  0  0  0  0  0  0  0  0  0
  182.3120  177.5230  137.6190 C   0  0  0  0  0  0  0  0  0  0  0  0
  182.3040  179.0770  139.8400 O   0  0  0  0  0  0  0  0  0  0  0  0
  181.1070  176.7600  138.1390 C   0  0  0  0  0  1  0  0  0  0  0  0
  181.9480  179.0020  137.4600 C   0  0  0  0  0  2  0  0  0  0  0  0
  183.4990  177.3320  138.5710 C   0  0  0  0  0  2  0  0  0  0  0  0
  183.8740  179.7590  142.3520 C   0  0  0  0  0  3  0  0  0  0  0  0
  184.8980  179.0540  141.6430 N   0  0  0  0  0  0  0  0  0  0  0  0
  186.2260  178.9020  142.2360 C   0  0  0  0  0  2  0  0  0  0  0  0
  184.0030  178.2530  144.3500 C   0  0  0  0  0  2  0  0  0  0  0  0
  183.4940  179.4400  143.5910 C   0  0  0  0  0  3  0  0  0  0  0  0
  186.2260  177.8200  143.3060 C   0  0  2  0  0  3  0  0  0  0  0  0
  185.5090  178.2990  144.5600 C   0  0  0  0  0  2  0  0  0  0  0  0
  188.4240  176.8820  142.5910 C   0  0  0  0  0  3  0  0  0  0  0  0
  187.6250  177.3960  143.6190 C   0  0  0  0  0  0  0  0  0  0  0  0
  188.1570  177.5240  144.9120 C   0  0  0  0  0  3  0  0  0  0  0  0
  189.9980  177.2600  146.4500 O   0  0  0  0  0  1  0  0  0  0  0  0
  190.2650  176.6140  144.1410 C   0  0  0  0  0  3  0  0  0  0  0  0
  189.4740  177.1300  145.1720 C   0  0  0  0  0  0  0  0  0  0  0  0
  189.7400  176.4910  142.8510 C   0  0  0  0  0  3  0  0  0  0  0  0
  186.2890  178.4500  138.3450 C   0  0  0  0  0  3  0  0  0  0  0  0
  185.9260  178.2100  139.5990 C   0  0  0  0  0  3  0  0  0  0  0  0
  187.4740  177.8610  137.6850 C   0  0  0  0  0  0  0  0  0  0  0  0
  187.4590  176.8190  136.8390 C   0  0  0  0  0  3  0  0  0  0  0  0
  186.3630  174.6500  136.8460 C   0  0  2  0  0  3  0  0  0  0  0  0
  186.2430  176.0610  136.4230 C   0  0  2  0  0  3  0  0  0  0  0  0
  186.6090  175.0500  135.5190 O   0  0  0  0  0  0  0  0  0  0  0  0
  185.1230  172.9950  137.9490 C   0  0  0  0  0  2  0  0  0  0  0  0
  185.1950  172.6410  136.5380 C   0  0  0  0  0  2  0  0  0  0  0  0
  185.0420  174.0500  136.9290 N   0  0  0  0  0  0  0  0  0  0  0  0
  189.6480  177.2060  138.9810 C   0  0  0  0  0  1  0  0  0  0  0  0
  189.0560  178.6270  138.0170 S   0  0  0  0  0  0  0  0  0  0  0  0
  1 27  1  1  0  0  0
  1 13  1  0  0  0  0
  2  7  1  0  0  0  0
  5  3  1  1  0  0  0
  5  8  1  0  0  0  0
  6  1  1  0  0  0  0
  6  4  1  1  0  0  0
  7  9  1  0  0  0  0
  7 11  1  0  0  0  0
  8  6  1  0  0  0  0
 10  7  1  0  0  0  0
 10  5  1  0  0  0  0
 11  6  1  0  0  0  0
 12 16  2  0  0  0  0
 13 14  1  0  0  0  0
 13 12  1  0  0  0  0
 14 17  1  0  0  0  0
 15 18  1  0  0  0  0
 16 15  1  0  0  0  0
 17 20  1  1  0  0  0
 17 18  1  0  0  0  0
 19 25  2  0  0  0  0
 19 20  1  0  0  0  0
 20 21  2  0  0  0  0
 21 24  1  0  0  0  0
 23 24  2  0  0  0  0
 24 22  1  0  0  0  0
 25 23  1  0  0  0  0
 26 27  2  0  0  0  0
 28 37  1  0  0  0  0
 28 26  1  0  0  0  0
 29 28  2  0  0  0  0
 30 35  1  6  0  0  0
 31 29  1  1  0  0  0
 31 30  1  0  0  0  0
 32 31  1  0  0  0  0
 32 30  1  0  0  0  0
 34 35  1  0  0  0  0
 34 33  1  0  0  0  0
 35 33  1  0  0  0  0
 37 36  1  0  0  0  0
M  END
>  <MODEL>
7

>  <REMARK>
 VINA RESULT:      -6.2      1.871      2.736
  Name = 
  8 active torsions:
  status: ('A' for Active; 'I' for Inactive)
    1  A    between atoms: C_1  and  C_5
    2  A    between atoms: C_5  and  S_23
    3  A    between atoms: C_6  and  C_31
    4  A    between atoms: N_10  and  C_29
    5  A    between atoms: C_11  and  N_33
    6  A    between atoms: C_17  and  C_26
    7  A    between atoms: C_20  and  C_29
    8  A    between atoms: C_29  and  C_36
                            x       y       z     vdW  Elec       q    Type
                         _______ _______ _______ _____ _____    ______ ____

>  <TORSDO>
F 8

$$$$
=
 OpenBabel11052415303D

 37 41  0  0  1  0  0  0  0  0999 V2000
  182.4850  178.4940  140.0720 C   0  0  1  0  0  3  0  0  0  0  0  0
  178.9310  181.7330  139.7690 C   0  0  0  0  0  1  0  0  0  0  0  0
  179.8490  177.7280  137.0020 C   0  0  0  0  0  1  0  0  0  0  0  0
  183.3700  180.4380  138.7230 C   0  0  0  0  0  1  0  0  0  0  0  0
  180.2790  178.6440  138.1270 C   0  0  1  0  0  3  0  0  0  0  0  0
  182.1230  179.6460  139.0930 C   0  0  1  0  0  0  0  0  0  0  0  0
  179.9600  181.0350  138.9060 C   0  0  0  0  0  0  0  0  0  0  0  0
  181.5840  179.1170  137.8890 O   0  0  0  0  0  0  0  0  0  0  0  0
  180.4210  182.0040  137.8330 C   0  0  0  0  0  1  0  0  0  0  0  0
  179.3070  179.8170  138.2460 C   0  0  0  0  0  2  0  0  0  0  0  0
  181.1490  180.6300  139.7870 C   0  0  0  0  0  2  0  0  0  0  0  0
  182.3050  176.1180  139.3990 C   0  0  0  0  0  3  0  0  0  0  0  0
  183.0530  177.3380  139.3770 N   0  0  0  0  0  0  0  0  0  0  0  0
  184.4720  177.3200  139.0230 C   0  0  0  0  0  2  0  0  0  0  0  0
  182.8210  175.5760  137.0080 C   0  0  0  0  0  2  0  0  0  0  0  0
  182.2310  175.2900  138.3550 C   0  0  0  0  0  3  0  0  0  0  0  0
  184.6590  177.1810  137.5200 C   0  0  2  0  0  3  0  0  0  0  0  0
  184.3280  175.7680  137.0620 C   0  0  0  0  0  2  0  0  0  0  0  0
  186.4950  177.2700  135.8340 C   0  0  0  0  0  3  0  0  0  0  0  0
  186.0530  177.5570  137.1310 C   0  0  0  0  0  0  0  0  0  0  0  0
  186.9150  178.2080  138.0290 C   0  0  0  0  0  3  0  0  0  0  0  0
  189.0570  179.2040  138.5200 O   0  0  0  0  0  1  0  0  0  0  0  0
  188.6450  178.2650  136.3360 C   0  0  0  0  0  3  0  0  0  0  0  0
  188.2090  178.5580  137.6320 C   0  0  0  0  0  0  0  0  0  0  0  0
  187.7880  177.6230  135.4370 C   0  0  0  0  0  3  0  0  0  0  0  0
  183.7780  178.0110  142.1260 C   0  0  0  0  0  3  0  0  0  0  0  0
  183.3560  178.8950  141.2300 C   0  0  0  0  0  3  0  0  0  0  0  0
  184.6380  178.3340  143.2860 C   0  0  0  0  0  0  0  0  0  0  0  0
  185.9680  178.1650  143.3420 C   0  0  0  0  0  3  0  0  0  0  0  0
  188.2440  177.7160  142.6170 C   0  0  2  0  0  3  0  0  0  0  0  0
  186.8160  177.6100  142.2470 C   0  0  2  0  0  3  0  0  0  0  0  0
  187.6380  178.6270  141.7320 O   0  0  0  0  0  0  0  0  0  0  0  0
  190.2880  176.5710  142.5750 C   0  0  0  0  0  2  0  0  0  0  0  0
  190.2350  177.4450  141.4120 C   0  0  0  0  0  2  0  0  0  0  0  0
  189.0180  176.7510  141.8560 N   0  0  0  0  0  0  0  0  0  0  0  0
  185.2150  178.6070  145.8210 C   0  0  0  0  0  1  0  0  0  0  0  0
  183.8370  179.0420  144.7200 S   0  0  0  0  0  0  0  0  0  0  0  0
  1 27  1  1  0  0  0
  5  3  1  6  0  0  0
  5 10  1  0  0  0  0
  6  4  1  6  0  0  0
  6 11  1  0  0  0  0
  6  1  1  0  0  0  0
  7  2  1  0  0  0  0
  7 11  1  0  0  0  0
  8  5  1  0  0  0  0
  8  6  1  0  0  0  0
  9  7  1  0  0  0  0
 10  7  1  0  0  0  0
 13 12  1  0  0  0  0
 13  1  1  0  0  0  0
 14 13  1  0  0  0  0
 15 18  1  0  0  0  0
 15 16  1  0  0  0  0
 16 12  2  0  0  0  0
 17 20  1  1  0  0  0
 17 14  1  0  0  0  0
 18 17  1  0  0  0  0
 19 20  1  0  0  0  0
 20 21  2  0  0  0  0
 23 24  2  0  0  0  0
 24 21  1  0  0  0  0
 24 22  1  0  0  0  0
 25 19  2  0  0  0  0
 25 23  1  0  0  0  0
 26 28  1  0  0  0  0
 27 26  2  0  0  0  0
 28 29  2  0  0  0  0
 28 37  1  0  0  0  0
 30 35  1  6  0  0  0
 31 30  1  0  0  0  0
 31 29  1  1  0  0  0
 32 31  1  0  0  0  0
 32 30  1  0  0  0  0
 34 35  1  0  0  0  0
 34 33  1  0  0  0  0
 35 33  1  0  0  0  0
 37 36  1  0  0  0  0
M  END
>  <MODEL>
8

>  <REMARK>
 VINA RESULT:      -6.0      2.656      6.267
  Name = 
  8 active torsions:
  status: ('A' for Active; 'I' for Inactive)
    1  A    between atoms: C_1  and  C_5
    2  A    between atoms: C_5  and  S_23
    3  A    between atoms: C_6  and  C_31
    4  A    between atoms: N_10  and  C_29
    5  A    between atoms: C_11  and  N_33
    6  A    between atoms: C_17  and  C_26
    7  A    between atoms: C_20  and  C_29
    8  A    between atoms: C_29  and  C_36
                            x       y       z     vdW  Elec       q    Type
                         _______ _______ _______ _____ _____    ______ ____

>  <TORSDO>
F 8

$$$$
=
 OpenBabel11052415303D

 37 41  0  0  1  0  0  0  0  0999 V2000
  190.0590  174.9290  137.1990 C   0  0  1  0  0  3  0  0  0  0  0  0
  193.1590  171.4320  136.0230 C   0  0  0  0  0  1  0  0  0  0  0  0
  193.9460  175.7810  138.2600 C   0  0  0  0  0  1  0  0  0  0  0  0
  190.7170  175.3040  134.7890 C   0  0  0  0  0  1  0  0  0  0  0  0
  192.9770  174.8370  137.5810 C   0  0  1  0  0  3  0  0  0  0  0  0
  191.1790  174.7590  136.1340 C   0  0  1  0  0  0  0  0  0  0  0  0
  192.9810  172.9310  135.9100 C   0  0  0  0  0  0  0  0  0  0  0  0
  192.3340  175.4940  136.5150 O   0  0  0  0  0  0  0  0  0  0  0  0
  193.5850  173.3860  134.5940 C   0  0  0  0  0  1  0  0  0  0  0  0
  193.7220  173.6050  137.0690 C   0  0  0  0  0  2  0  0  0  0  0  0
  191.4820  173.2530  135.9340 C   0  0  0  0  0  2  0  0  0  0  0  0
  190.0330  177.3730  136.8050 C   0  0  0  0  0  3  0  0  0  0  0  0
  190.0130  176.2880  137.7380 N   0  0  0  0  0  0  0  0  0  0  0  0
  190.3270  176.5290  139.1460 C   0  0  0  0  0  2  0  0  0  0  0  0
  188.3410  178.7090  138.0810 C   0  0  0  0  0  2  0  0  0  0  0  0
  189.3220  178.4900  136.9700 C   0  0  0  0  0  3  0  0  0  0  0  0
  189.1500  177.1680  139.8670 C   0  0  2  0  0  3  0  0  0  0  0  0
  188.9880  178.6240  139.4540 C   0  0  0  0  0  2  0  0  0  0  0  0
  188.3170  177.5530  142.1860 C   0  0  0  0  0  3  0  0  0  0  0  0
  189.3180  177.0480  141.3480 C   0  0  0  0  0  0  0  0  0  0  0  0
  190.4420  176.4220  141.9100 C   0  0  0  0  0  3  0  0  0  0  0  0
  191.6760  175.6930  143.8510 O   0  0  0  0  0  1  0  0  0  0  0  0
  189.5640  176.8250  144.1310 C   0  0  0  0  0  3  0  0  0  0  0  0
  190.5650  176.3140  143.2990 C   0  0  0  0  0  0  0  0  0  0  0  0
  188.4400  177.4420  143.5740 C   0  0  0  0  0  3  0  0  0  0  0  0
  187.5880  175.0570  137.2290 C   0  0  0  0  0  3  0  0  0  0  0  0
  188.6910  174.4880  136.7580 C   0  0  0  0  0  3  0  0  0  0  0  0
  186.2120  174.6770  136.8380 C   0  0  0  0  0  0  0  0  0  0  0  0
  185.1930  175.5280  136.6460 C   0  0  0  0  0  3  0  0  0  0  0  0
  184.4560  177.4270  137.9710 C   0  0  2  0  0  3  0  0  0  0  0  0
  185.2620  177.0100  136.8040 C   0  0  2  0  0  3  0  0  0  0  0  0
  183.9760  177.5560  136.6530 O   0  0  0  0  0  0  0  0  0  0  0  0
  185.1010  178.5970  139.8960 C   0  0  0  0  0  2  0  0  0  0  0  0
  183.8900  179.2150  139.3760 C   0  0  0  0  0  2  0  0  0  0  0  0
  184.9140  178.7220  138.4430 N   0  0  0  0  0  0  0  0  0  0  0  0
  185.9290  173.1200  134.7580 C   0  0  0  0  0  1  0  0  0  0  0  0
  185.8950  172.9380  136.5640 S   0  0  0  0  0  0  0  0  0  0  0  0
  1 27  1  6  0  0  0
  1 13  1  0  0  0  0
  5  3  1  6  0  0  0
  6  4  1  6  0  0  0
  6  8  1  0  0  0  0
  6  1  1  0  0  0  0
  7 11  1  0  0  0  0
  7  2  1  0  0  0  0
  7 10  1  0  0  0  0
  8  5  1  0  0  0  0
  9  7  1  0  0  0  0
 10  5  1  0  0  0  0
 11  6  1  0  0  0  0
 12 16  2  0  0  0  0
 12 13  1  0  0  0  0
 13 14  1  0  0  0  0
 14 17  1  0  0  0  0
 15 18  1  0  0  0  0
 16 15  1  0  0  0  0
 17 20  1  1  0  0  0
 18 17  1  0  0  0  0
 19 25  1  0  0  0  0
 20 21  1  0  0  0  0
 20 19  2  0  0  0  0
 21 24  2  0  0  0  0
 24 22  1  0  0  0  0
 24 23  1  0  0  0  0
 25 23  2  0  0  0  0
 27 26  2  0  0  0  0
 28 26  1  0  0  0  0
 29 28  2  0  0  0  0
 30 35  1  6  0  0  0
 31 29  1  1  0  0  0
 31 30  1  0  0  0  0
 32 31  1  0  0  0  0
 32 30  1  0  0  0  0
 34 33  1  0  0  0  0
 35 34  1  0  0  0  0
 35 33  1  0  0  0  0
 36 37  1  0  0  0  0
 37 28  1  0  0  0  0
M  END
>  <MODEL>
9

>  <REMARK>
 VINA RESULT:      -5.9      3.443      7.646
  Name = 
  8 active torsions:
  status: ('A' for Active; 'I' for Inactive)
    1  A    between atoms: C_1  and  C_5
    2  A    between atoms: C_5  and  S_23
    3  A    between atoms: C_6  and  C_31
    4  A    between atoms: N_10  and  C_29
    5  A    between atoms: C_11  and  N_33
    6  A    between atoms: C_17  and  C_26
    7  A    between atoms: C_20  and  C_29
    8  A    between atoms: C_29  and  C_36
                            x       y       z     vdW  Elec       q    Type
                         _______ _______ _______ _____ _____    ______ ____

>  <TORSDO>
F 8

$$$$
