=
 OpenBabel11052415163D

 37 45  0  0  1  0  0  0  0  0999 V2000
  188.9680  177.1460  136.8330 C   0  0  1  0  0  3  0  0  0  0  0  0
  182.3970  175.7800  135.1830 C   0  0  0  0  0  2  0  0  0  0  0  0
  187.5000  177.2740  142.7600 C   0  0  0  0  0  2  0  0  0  0  0  0
  185.1510  178.3230  139.1700 C   0  0  1  0  0  3  0  0  0  0  0  0
  189.0200  177.5310  135.3720 C   0  0  0  0  0  2  0  0  0  0  0  0
  183.3490  175.3840  136.3360 C   0  0  2  0  0  0  0  0  0  0  0  0
  184.6420  174.7180  135.9300 C   0  0  0  0  0  2  0  0  0  0  0  0
  182.8190  175.2180  137.7610 C   0  0  2  0  0  3  0  0  0  0  0  0
  185.5970  179.3190  141.3200 C   0  0  0  0  0  2  0  0  0  0  0  0
  185.9290  177.5930  138.0700 C   0  0  2  0  0  3  0  0  0  0  0  0
  190.2540  177.2400  138.7590 O   0  0  0  0  0  1  0  0  0  0  0  0
  186.1380  179.0210  139.9820 N   0  0  1  0  0  0  0  0  0  0  0  0
  185.2360  176.2740  137.6460 C   0  0  2  0  0  3  0  0  0  0  0  0
  180.9390  175.9050  139.0140 O   0  0  0  0  0  0  0  0  0  0  0  0
  185.2210  178.0830  142.1320 C   0  0  0  0  0  2  0  0  0  0  0  0
  187.8980  176.8280  134.5950 C   0  0  0  0  0  2  0  0  0  0  0  0
  180.4470  175.5640  136.7410 C   0  0  0  0  0  2  0  0  0  0  0  0
  181.3710  175.6000  137.9140 C   0  0  0  0  0  0  0  0  0  0  0  0
  187.2340  178.0600  140.0380 C   0  0  2  0  0  3  0  0  0  0  0  0
  189.4060  177.5880  141.3160 C   0  0  0  0  0  2  0  0  0  0  0  0
  182.9100  178.4020  138.1720 C   0  0  0  0  0  2  0  0  0  0  0  0
  189.8080  178.0260  137.7040 C   0  0  2  0  0  3  0  0  0  0  0  0
  183.6750  180.2180  139.4710 O   0  0  0  0  0  1  0  0  0  0  0  0
  188.4760  178.6370  140.7320 C   0  0  2  0  0  3  0  0  0  0  0  0
  187.7060  175.3220  134.9040 C   0  0  2  0  0  3  0  0  0  0  0  0
  185.7020  175.7270  136.3050 C   0  0  1  0  0  3  0  0  0  0  0  0
  184.1020  179.2540  138.5570 C   0  0  1  0  0  3  0  0  0  0  0  0
  187.3580  177.4360  138.6320 C   0  0  2  0  0  3  0  0  0  0  0  0
  186.2120  177.8970  143.2680 C   0  0  0  0  0  2  0  0  0  0  0  0
  183.7160  176.4200  137.4120 C   0  0  1  0  0  0  0  0  0  0  0  0
  188.4830  178.3280  142.2460 C   0  0  1  0  0  3  0  0  0  0  0  0
  187.0710  175.0820  136.2780 C   0  0  0  0  0  2  0  0  0  0  0  0
  181.0610  176.3790  135.6200 C   0  0  0  0  0  2  0  0  0  0  0  0
  188.2750  178.2070  137.6640 C   0  0  2  0  0  3  0  0  0  0  0  0
  183.2020  177.6730  137.0160 O   0  0  0  0  0  0  0  0  0  0  0  0
  188.9920  174.5210  134.7580 C   0  0  0  0  0  2  0  0  0  0  0  0
  189.1350  173.5340  135.9020 C   0  0  0  0  0  1  0  0  0  0  0  0
  1  5  1  6  0  0  0
  1 34  1  0  0  0  0
  1 22  1  0  0  0  0
  2 33  1  0  0  0  0
  2  6  1  0  0  0  0
  3 29  1  0  0  0  0
  4 12  1  0  0  0  0
  6 30  1  0  0  0  0
  6  8  1  0  0  0  0
  7 26  1  0  0  0  0
  7  6  1  0  0  0  0
  8 18  1  0  0  0  0
  9 15  1  0  0  0  0
 10 28  1  0  0  0  0
 10  4  1  0  0  0  0
 12 19  1  0  0  0  0
 12  9  1  0  0  0  0
 13 10  1  0  0  0  0
 15 29  1  0  0  0  0
 16 25  1  0  0  0  0
 16  5  1  0  0  0  0
 17 18  1  0  0  0  0
 18 14  2  0  0  0  0
 19 24  1  0  0  0  0
 20 31  1  0  0  0  0
 21 27  1  0  0  0  0
 22 11  1  0  0  0  0
 24 20  1  0  0  0  0
 24 31  1  0  0  0  0
 25 32  1  0  0  0  0
 26 13  1  0  0  0  0
 27  4  1  0  0  0  0
 27 23  1  0  0  0  0
 28 19  1  0  0  0  0
 30 13  1  0  0  0  0
 30  8  1  0  0  0  0
 31  3  1  0  0  0  0
 32 26  1  0  0  0  0
 33 17  1  0  0  0  0
 34 22  1  0  0  0  0
 34 28  1  0  0  0  0
 35 30  1  0  0  0  0
 35 21  1  0  0  0  0
 36 25  1  0  0  0  0
 36 37  1  0  0  0  0
M  END
>  <MODEL>
1

>  <REMARK>
 VINA RESULT:      -7.1      0.000      0.000
  Name = 
  1 active torsions:
  status: ('A' for Active; 'I' for Inactive)
    1  A    between atoms: C_11  and  C_26
                            x       y       z     vdW  Elec       q    Type
                         _______ _______ _______ _____ _____    ______ ____

>  <TORSDO>
F 1

$$$$
=
 OpenBabel11052415163D

 37 45  0  0  1  0  0  0  0  0999 V2000
  192.5830  175.5320  136.8450 C   0  0  1  0  0  3  0  0  0  0  0  0
  186.3770  173.4830  134.5940 C   0  0  0  0  0  2  0  0  0  0  0  0
  190.2270  176.7740  142.3410 C   0  0  0  0  0  2  0  0  0  0  0  0
  188.4250  176.9370  138.3130 C   0  0  1  0  0  3  0  0  0  0  0  0
  192.8460  175.6140  135.3590 C   0  0  0  0  0  2  0  0  0  0  0  0
  187.1540  173.3850  135.9280 C   0  0  2  0  0  0  0  0  0  0  0  0
  188.5100  172.7260  135.8600 C   0  0  0  0  0  2  0  0  0  0  0  0
  186.4170  173.4810  137.2650 C   0  0  2  0  0  3  0  0  0  0  0  0
  188.5120  178.3710  140.2480 C   0  0  0  0  0  2  0  0  0  0  0  0
  189.3800  176.0440  137.5130 C   0  0  2  0  0  3  0  0  0  0  0  0
  193.5580  176.0880  138.8720 O   0  0  0  0  0  1  0  0  0  0  0  0
  189.2580  177.8400  139.0940 N   0  0  1  0  0  0  0  0  0  0  0  0
  188.7950  174.6300  137.2790 C   0  0  2  0  0  3  0  0  0  0  0  0
  184.3520  174.2990  138.0650 O   0  0  0  0  0  0  0  0  0  0  0  0
  188.0490  177.3060  141.2390 C   0  0  0  0  0  2  0  0  0  0  0  0
  191.8740  174.7050  134.5940 C   0  0  0  0  0  2  0  0  0  0  0  0
  184.2200  173.4760  135.8660 C   0  0  0  0  0  2  0  0  0  0  0  0
  184.9530  173.8020  137.1260 C   0  0  0  0  0  0  0  0  0  0  0  0
  190.3570  176.9750  139.5060 C   0  0  2  0  0  3  0  0  0  0  0  0
  192.3220  176.8980  141.1520 C   0  0  0  0  0  2  0  0  0  0  0  0
  186.3600  176.6820  137.0100 C   0  0  0  0  0  2  0  0  0  0  0  0
  193.2560  176.6160  137.6240 C   0  0  2  0  0  3  0  0  0  0  0  0
  186.8700  178.7640  137.9970 O   0  0  0  0  0  1  0  0  0  0  0  0
  191.4640  177.7510  140.2340 C   0  0  2  0  0  3  0  0  0  0  0  0
  191.6770  173.2850  135.1800 C   0  0  2  0  0  3  0  0  0  0  0  0
  189.4730  173.8500  136.1630 C   0  0  1  0  0  3  0  0  0  0  0  0
  187.4570  177.6610  137.3750 C   0  0  1  0  0  3  0  0  0  0  0  0
  190.7100  176.0870  138.2940 C   0  0  2  0  0  3  0  0  0  0  0  0
  188.8610  177.4120  142.5190 C   0  0  0  0  0  2  0  0  0  0  0  0
  187.3250  174.6370  136.8040 C   0  0  1  0  0  0  0  0  0  0  0  0
  191.2480  177.7570  141.7640 C   0  0  1  0  0  3  0  0  0  0  0  0
  190.8470  173.2920  136.4680 C   0  0  0  0  0  2  0  0  0  0  0  0
  184.9750  174.0810  134.6990 C   0  0  0  0  0  2  0  0  0  0  0  0
  191.7430  176.6970  137.3270 C   0  0  2  0  0  3  0  0  0  0  0  0
  186.8440  175.7520  136.0860 O   0  0  0  0  0  0  0  0  0  0  0  0
  192.9920  172.5460  135.3900 C   0  0  0  0  0  2  0  0  0  0  0  0
  192.8190  171.0660  135.1020 C   0  0  0  0  0  1  0  0  0  0  0  0
  1  5  1  6  0  0  0
  1 34  1  0  0  0  0
  1 22  1  0  0  0  0
  2 33  1  0  0  0  0
  2  6  1  0  0  0  0
  3 29  1  0  0  0  0
  4 12  1  0  0  0  0
  6 30  1  0  0  0  0
  6  8  1  0  0  0  0
  7  6  1  0  0  0  0
  7 26  1  0  0  0  0
  9 15  1  0  0  0  0
 10 28  1  0  0  0  0
 10  4  1  0  0  0  0
 12 19  1  0  0  0  0
 12  9  1  0  0  0  0
 13 10  1  0  0  0  0
 15 29  1  0  0  0  0
 16 25  1  0  0  0  0
 16  5  1  0  0  0  0
 17 18  1  0  0  0  0
 18  8  1  0  0  0  0
 18 14  2  0  0  0  0
 19 24  1  0  0  0  0
 20 31  1  0  0  0  0
 21 27  1  0  0  0  0
 22 11  1  0  0  0  0
 24 20  1  0  0  0  0
 24 31  1  0  0  0  0
 25 36  1  0  0  0  0
 25 32  1  0  0  0  0
 26 32  1  0  0  0  0
 26 13  1  0  0  0  0
 27 23  1  0  0  0  0
 27  4  1  0  0  0  0
 28 19  1  0  0  0  0
 30  8  1  0  0  0  0
 30 13  1  0  0  0  0
 31  3  1  0  0  0  0
 33 17  1  0  0  0  0
 34 22  1  0  0  0  0
 34 28  1  0  0  0  0
 35 30  1  0  0  0  0
 35 21  1  0  0  0  0
 37 36  1  0  0  0  0
M  END
>  <MODEL>
2

>  <REMARK>
 VINA RESULT:      -6.7      2.656      3.895
  Name = 
  1 active torsions:
  status: ('A' for Active; 'I' for Inactive)
    1  A    between atoms: C_11  and  C_26
                            x       y       z     vdW  Elec       q    Type
                         _______ _______ _______ _____ _____    ______ ____

>  <TORSDO>
F 1

$$$$
=
 OpenBabel11052415163D

 37 45  0  0  1  0  0  0  0  0999 V2000
  187.0250  176.7290  136.8860 C   0  0  1  0  0  3  0  0  0  0  0  0
  183.0920  171.3970  134.9170 C   0  0  0  0  0  2  0  0  0  0  0  0
  182.9060  178.2580  141.1280 C   0  0  0  0  0  2  0  0  0  0  0  0
  182.4240  176.3340  137.1820 C   0  0  1  0  0  3  0  0  0  0  0  0
  187.6460  176.4820  135.5300 C   0  0  0  0  0  2  0  0  0  0  0  0
  183.4250  172.0830  136.2630 C   0  0  2  0  0  0  0  0  0  0  0  0
  184.8900  172.1680  136.6200 C   0  0  0  0  0  2  0  0  0  0  0  0
  182.3640  172.2070  137.3570 C   0  0  2  0  0  3  0  0  0  0  0  0
  181.3700  178.1350  138.3900 C   0  0  0  0  0  2  0  0  0  0  0  0
  183.8420  175.8170  136.9170 C   0  0  2  0  0  3  0  0  0  0  0  0
  187.0710  178.2560  138.6280 O   0  0  0  0  0  1  0  0  0  0  0  0
  182.5630  177.7110  137.6340 N   0  0  1  0  0  0  0  0  0  0  0  0
  183.9680  174.2980  137.1950 C   0  0  2  0  0  3  0  0  0  0  0  0
  180.0100  172.1300  137.5210 O   0  0  0  0  0  0  0  0  0  0  0  0
  181.1130  177.3270  139.6590 C   0  0  0  0  0  2  0  0  0  0  0  0
  187.3840  175.0390  135.0780 C   0  0  0  0  0  2  0  0  0  0  0  0
  180.8540  170.7360  135.8270 C   0  0  0  0  0  2  0  0  0  0  0  0
  181.0010  171.7300  136.9330 C   0  0  0  0  0  0  0  0  0  0  0  0
  183.7490  177.6450  138.4800 C   0  0  2  0  0  3  0  0  0  0  0  0
  185.0190  179.0100  140.2410 C   0  0  0  0  0  2  0  0  0  0  0  0
  181.1020  174.7490  135.8540 C   0  0  0  0  0  2  0  0  0  0  0  0
  186.9530  178.1780  137.2470 C   0  0  2  0  0  3  0  0  0  0  0  0
  180.4270  177.0060  135.9910 O   0  0  0  0  0  1  0  0  0  0  0  0
  184.1920  179.0320  138.9670 C   0  0  2  0  0  3  0  0  0  0  0  0
  187.6160  173.9450  136.1500 C   0  0  2  0  0  3  0  0  0  0  0  0
  185.1900  173.6480  136.5650 C   0  0  1  0  0  3  0  0  0  0  0  0
  181.5590  176.1910  135.9280 C   0  0  1  0  0  3  0  0  0  0  0  0
  184.7590  176.7210  137.7680 C   0  0  2  0  0  3  0  0  0  0  0  0
  181.4100  178.1830  140.8780 C   0  0  0  0  0  2  0  0  0  0  0  0
  182.8220  173.4600  136.5870 C   0  0  1  0  0  0  0  0  0  0  0  0
  183.5650  179.3870  140.3340 C   0  0  1  0  0  3  0  0  0  0  0  0
  186.5220  173.9350  137.2240 C   0  0  0  0  0  2  0  0  0  0  0  0
  181.6020  171.2510  134.6130 C   0  0  0  0  0  2  0  0  0  0  0  0
  185.6890  177.4330  136.7670 C   0  0  2  0  0  3  0  0  0  0  0  0
  182.1610  173.9380  135.4360 O   0  0  0  0  0  0  0  0  0  0  0  0
  188.9960  174.0260  136.7870 C   0  0  0  0  0  2  0  0  0  0  0  0
  190.0720  173.7200  135.7610 C   0  0  0  0  0  1  0  0  0  0  0  0
  1  5  1  6  0  0  0
  1 22  1  0  0  0  0
  2  6  1  0  0  0  0
  4 12  1  0  0  0  0
  6 30  1  0  0  0  0
  6  7  1  0  0  0  0
  6  8  1  0  0  0  0
  9 15  1  0  0  0  0
 10  4  1  0  0  0  0
 10 13  1  0  0  0  0
 10 28  1  0  0  0  0
 12  9  1  0  0  0  0
 12 19  1  0  0  0  0
 15 29  1  0  0  0  0
 16  5  1  0  0  0  0
 16 25  1  0  0  0  0
 17 18  1  0  0  0  0
 18  8  1  0  0  0  0
 18 14  2  0  0  0  0
 19 24  1  0  0  0  0
 20 31  1  0  0  0  0
 21 27  1  0  0  0  0
 22 11  1  0  0  0  0
 24 20  1  0  0  0  0
 24 31  1  0  0  0  0
 25 36  1  0  0  0  0
 25 32  1  0  0  0  0
 26  7  1  0  0  0  0
 26 13  1  0  0  0  0
 26 32  1  0  0  0  0
 27 23  1  0  0  0  0
 27  4  1  0  0  0  0
 28 19  1  0  0  0  0
 29  3  1  0  0  0  0
 30 13  1  0  0  0  0
 30  8  1  0  0  0  0
 31  3  1  0  0  0  0
 33  2  1  0  0  0  0
 33 17  1  0  0  0  0
 34  1  1  0  0  0  0
 34 22  1  0  0  0  0
 34 28  1  0  0  0  0
 35 21  1  0  0  0  0
 35 30  1  0  0  0  0
 37 36  1  0  0  0  0
M  END
>  <MODEL>
3

>  <REMARK>
 VINA RESULT:      -6.3      2.516      3.830
  Name = 
  1 active torsions:
  status: ('A' for Active; 'I' for Inactive)
    1  A    between atoms: C_11  and  C_26
                            x       y       z     vdW  Elec       q    Type
                         _______ _______ _______ _____ _____    ______ ____

>  <TORSDO>
F 1

$$$$
=
 OpenBabel11052415163D

 37 45  0  0  1  0  0  0  0  0999 V2000
  186.9670  176.8670  137.1030 C   0  0  1  0  0  3  0  0  0  0  0  0
  181.3430  173.4810  134.9400 C   0  0  0  0  0  2  0  0  0  0  0  0
  184.1680  178.2530  142.3510 C   0  0  0  0  0  2  0  0  0  0  0  0
  182.5590  177.6380  138.2840 C   0  0  1  0  0  3  0  0  0  0  0  0
  187.2810  176.8330  135.6250 C   0  0  0  0  0  2  0  0  0  0  0  0
  182.0590  173.6740  136.2970 C   0  0  2  0  0  0  0  0  0  0  0  0
  183.5130  173.2720  136.3430 C   0  0  0  0  0  2  0  0  0  0  0  0
  181.2550  173.7800  137.5930 C   0  0  2  0  0  3  0  0  0  0  0  0
  182.2960  179.2690  140.0410 C   0  0  0  0  0  2  0  0  0  0  0  0
  183.6950  176.8540  137.6200 C   0  0  2  0  0  3  0  0  0  0  0  0
  187.7290  177.8120  139.0770 O   0  0  0  0  0  1  0  0  0  0  0  0
  183.1790  178.7600  138.9770 N   0  0  1  0  0  0  0  0  0  0  0  0
  183.3850  175.3390  137.5370 C   0  0  2  0  0  3  0  0  0  0  0  0
  179.0410  174.2880  138.2360 O   0  0  0  0  0  0  0  0  0  0  0  0
  181.9850  178.2520  141.1360 C   0  0  0  0  0  2  0  0  0  0  0  0
  186.5250  175.6830  134.9450 C   0  0  0  0  0  2  0  0  0  0  0  0
  179.1630  173.2190  136.1460 C   0  0  0  0  0  2  0  0  0  0  0  0
  179.7660  173.8100  137.3790 C   0  0  0  0  0  0  0  0  0  0  0  0
  184.3950  178.1620  139.5160 C   0  0  2  0  0  3  0  0  0  0  0  0
  186.2610  178.6270  141.2130 C   0  0  0  0  0  2  0  0  0  0  0  0
  180.6380  176.8680  136.9650 C   0  0  0  0  0  2  0  0  0  0  0  0
  187.3970  178.1360  137.7680 C   0  0  2  0  0  3  0  0  0  0  0  0
  180.7190  179.1040  137.7160 O   0  0  0  0  0  1  0  0  0  0  0  0
  185.3080  179.2030  140.1790 C   0  0  2  0  0  3  0  0  0  0  0  0
  186.5580  174.3240  135.6870 C   0  0  2  0  0  3  0  0  0  0  0  0
  184.2450  174.5790  136.5390 C   0  0  1  0  0  3  0  0  0  0  0  0
  181.5230  178.0660  137.2430 C   0  0  1  0  0  3  0  0  0  0  0  0
  184.9580  177.2260  138.4260 C   0  0  2  0  0  3  0  0  0  0  0  0
  182.7020  178.6440  142.4160 C   0  0  0  0  0  2  0  0  0  0  0  0
  181.9620  175.0250  137.0260 C   0  0  1  0  0  0  0  0  0  0  0  0
  185.0230  179.3360  141.6910 C   0  0  1  0  0  3  0  0  0  0  0  0
  185.6800  174.3200  136.9430 C   0  0  0  0  0  2  0  0  0  0  0  0
  179.8530  173.8200  134.9370 C   0  0  0  0  0  2  0  0  0  0  0  0
  185.9100  177.9050  137.4230 C   0  0  2  0  0  3  0  0  0  0  0  0
  181.3240  175.9470  136.1690 O   0  0  0  0  0  0  0  0  0  0  0  0
  187.9730  173.8660  136.0170 C   0  0  0  0  0  2  0  0  0  0  0  0
  187.9380  172.6010  136.8560 C   0  0  0  0  0  1  0  0  0  0  0  0
  1  5  1  6  0  0  0
  1 34  1  0  0  0  0
  1 22  1  0  0  0  0
  2  6  1  0  0  0  0
  3 29  1  0  0  0  0
  4 12  1  0  0  0  0
  6  7  1  0  0  0  0
  6 30  1  0  0  0  0
  6  8  1  0  0  0  0
  7 26  1  0  0  0  0
  9 15  1  0  0  0  0
 10  4  1  0  0  0  0
 10 28  1  0  0  0  0
 12 19  1  0  0  0  0
 12  9  1  0  0  0  0
 13 10  1  0  0  0  0
 15 29  1  0  0  0  0
 16  5  1  0  0  0  0
 16 25  1  0  0  0  0
 17 18  1  0  0  0  0
 18  8  1  0  0  0  0
 18 14  2  0  0  0  0
 19 24  1  0  0  0  0
 20 31  1  0  0  0  0
 21 27  1  0  0  0  0
 22 11  1  0  0  0  0
 24 20  1  0  0  0  0
 24 31  1  0  0  0  0
 25 36  1  0  0  0  0
 25 32  1  0  0  0  0
 26 32  1  0  0  0  0
 26 13  1  0  0  0  0
 27 23  1  0  0  0  0
 27  4  1  0  0  0  0
 28 19  1  0  0  0  0
 30 13  1  0  0  0  0
 30  8  1  0  0  0  0
 31  3  1  0  0  0  0
 33  2  1  0  0  0  0
 33 17  1  0  0  0  0
 34 22  1  0  0  0  0
 34 28  1  0  0  0  0
 35 21  1  0  0  0  0
 35 30  1  0  0  0  0
 36 37  1  0  0  0  0
M  END
>  <MODEL>
4

>  <REMARK>
 VINA RESULT:      -6.0      1.841      2.672
  Name = 
  1 active torsions:
  status: ('A' for Active; 'I' for Inactive)
    1  A    between atoms: C_11  and  C_26
                            x       y       z     vdW  Elec       q    Type
                         _______ _______ _______ _____ _____    ______ ____

>  <TORSDO>
F 1

$$$$
=
 OpenBabel11052415163D

 37 45  0  0  1  0  0  0  0  0999 V2000
  182.4410  173.1680  136.3770 C   0  0  1  0  0  3  0  0  0  0  0  0
  188.4940  176.3670  137.3240 C   0  0  0  0  0  2  0  0  0  0  0  0
  179.8290  178.4700  134.8380 C   0  0  0  0  0  2  0  0  0  0  0  0
  183.1630  177.5750  137.5930 C   0  0  1  0  0  3  0  0  0  0  0  0
  183.1250  172.1090  137.2110 C   0  0  0  0  0  2  0  0  0  0  0  0
  187.3120  176.5140  136.3360 C   0  0  2  0  0  0  0  0  0  0  0  0
  186.9460  175.2780  135.5510 C   0  0  0  0  0  2  0  0  0  0  0  0
  186.8870  177.8940  135.8320 C   0  0  2  0  0  3  0  0  0  0  0  0
  181.1550  178.9070  137.6540 C   0  0  0  0  0  2  0  0  0  0  0  0
  183.5930  176.1850  137.1130 C   0  0  2  0  0  3  0  0  0  0  0  0
  180.3640  173.6860  135.4890 O   0  0  0  0  0  1  0  0  0  0  0  0
  181.7120  177.5440  137.7050 N   0  0  1  0  0  0  0  0  0  0  0  0
  184.8660  176.2420  136.2320 C   0  0  2  0  0  3  0  0  0  0  0  0
  187.1370  180.1470  136.4930 O   0  0  0  0  0  0  0  0  0  0  0  0
  181.4340  179.6480  136.3480 C   0  0  0  0  0  2  0  0  0  0  0  0
  184.6500  172.2580  137.1150 C   0  0  0  0  0  2  0  0  0  0  0  0
  188.9810  178.8120  137.0790 C   0  0  0  0  0  2  0  0  0  0  0  0
  187.6280  179.0300  136.4840 C   0  0  0  0  0  0  0  0  0  0  0  0
  181.3240  176.7520  136.5440 C   0  0  2  0  0  3  0  0  0  0  0  0
  179.2630  176.1460  135.1430 C   0  0  0  0  0  2  0  0  0  0  0  0
  185.2650  178.3970  138.5580 C   0  0  0  0  0  2  0  0  0  0  0  0
  180.9800  173.2960  136.6710 C   0  0  2  0  0  3  0  0  0  0  0  0
  183.2120  178.9650  139.5730 O   0  0  0  0  0  1  0  0  0  0  0  0
  179.8190  176.4500  136.5240 C   0  0  2  0  0  3  0  0  0  0  0  0
  185.2160  172.4860  135.6910 C   0  0  2  0  0  3  0  0  0  0  0  0
  185.5790  174.9070  136.0770 C   0  0  1  0  0  3  0  0  0  0  0  0
  183.8660  177.9290  138.9050 C   0  0  1  0  0  3  0  0  0  0  0  0
  182.3420  175.5970  136.4260 C   0  0  2  0  0  3  0  0  0  0  0  0
  180.1490  179.7740  135.5480 C   0  0  0  0  0  2  0  0  0  0  0  0
  185.9870  177.1270  136.8200 C   0  0  1  0  0  0  0  0  0  0  0  0
  179.0310  177.5140  135.7260 C   0  0  1  0  0  3  0  0  0  0  0  0
  184.9240  173.8940  135.1620 C   0  0  0  0  0  2  0  0  0  0  0  0
  188.8990  177.6500  138.0490 C   0  0  0  0  0  2  0  0  0  0  0  0
  181.9780  174.3340  137.2280 C   0  0  2  0  0  3  0  0  0  0  0  0
  186.0610  177.3000  138.2180 O   0  0  0  0  0  0  0  0  0  0  0  0
  184.7540  171.4300  134.6960 C   0  0  0  0  0  2  0  0  0  0  0  0
  185.4570  170.1110  134.9590 C   0  0  0  0  0  1  0  0  0  0  0  0
  1 22  1  0  0  0  0
  1  5  1  1  0  0  0
  1 34  1  0  0  0  0
  2 33  1  0  0  0  0
  3 29  1  0  0  0  0
  3 31  1  0  0  0  0
  4 12  1  0  0  0  0
  4 27  1  0  0  0  0
  6 30  1  0  0  0  0
  6  2  1  0  0  0  0
  7 26  1  0  0  0  0
  7  6  1  0  0  0  0
  8  6  1  0  0  0  0
  8 18  1  0  0  0  0
  8 30  1  0  0  0  0
  9 12  1  0  0  0  0
 10  4  1  0  0  0  0
 11 22  1  0  0  0  0
 13 30  1  0  0  0  0
 13 10  1  0  0  0  0
 15  9  1  0  0  0  0
 16  5  1  0  0  0  0
 17 33  1  0  0  0  0
 18 14  2  0  0  0  0
 18 17  1  0  0  0  0
 19 12  1  0  0  0  0
 20 31  1  0  0  0  0
 20 24  1  0  0  0  0
 21 27  1  0  0  0  0
 22 34  1  0  0  0  0
 24 19  1  0  0  0  0
 25 16  1  0  0  0  0
 26 13  1  0  0  0  0
 27 23  1  0  0  0  0
 28 19  1  0  0  0  0
 28 10  1  0  0  0  0
 28 34  1  0  0  0  0
 29 15  1  0  0  0  0
 30 35  1  0  0  0  0
 31 24  1  0  0  0  0
 32 25  1  0  0  0  0
 32 26  1  0  0  0  0
 35 21  1  0  0  0  0
 36 37  1  0  0  0  0
 36 25  1  0  0  0  0
M  END
>  <MODEL>
5

>  <REMARK>
 VINA RESULT:      -5.4      2.482      6.797
  Name = 
  1 active torsions:
  status: ('A' for Active; 'I' for Inactive)
    1  A    between atoms: C_11  and  C_26
                            x       y       z     vdW  Elec       q    Type
                         _______ _______ _______ _____ _____    ______ ____

>  <TORSDO>
F 1

$$$$
=
 OpenBabel11052415163D

 37 45  0  0  1  0  0  0  0  0999 V2000
  185.7880  178.3870  139.8950 C   0  0  1  0  0  3  0  0  0  0  0  0
  189.8970  177.7920  145.4210 C   0  0  0  0  0  2  0  0  0  0  0  0
  188.9740  174.0510  137.0050 C   0  0  0  0  0  2  0  0  0  0  0  0
  190.2150  177.0410  140.0100 C   0  0  1  0  0  3  0  0  0  0  0  0
  185.4580  179.7020  140.5620 C   0  0  0  0  0  2  0  0  0  0  0  0
  189.3090  176.8160  144.3740 C   0  0  2  0  0  0  0  0  0  0  0  0
  187.8060  176.8130  144.2400 C   0  0  0  0  0  2  0  0  0  0  0  0
  190.1230  175.6170  143.8870 C   0  0  2  0  0  3  0  0  0  0  0  0
  191.0430  176.2450  137.8900 C   0  0  0  0  0  2  0  0  0  0  0  0
  188.8700  177.4240  140.6360 C   0  0  2  0  0  3  0  0  0  0  0  0
  185.4230  177.2380  137.9160 O   0  0  0  0  0  1  0  0  0  0  0  0
  190.0230  177.0650  138.5670 N   0  0  1  0  0  0  0  0  0  0  0  0
  188.6460  176.7320  142.0030 C   0  0  2  0  0  3  0  0  0  0  0  0
  192.3880  174.9540  143.8220 O   0  0  0  0  0  0  0  0  0  0  0  0
  191.0080  174.7660  138.2680 C   0  0  0  0  0  2  0  0  0  0  0  0
  185.7680  179.6320  142.0640 C   0  0  0  0  0  2  0  0  0  0  0  0
  191.8770  176.2820  145.6930 C   0  0  0  0  0  2  0  0  0  0  0  0
  191.5300  175.5850  144.4190 C   0  0  0  0  0  0  0  0  0  0  0  0
  188.6850  176.5040  138.4190 C   0  0  2  0  0  3  0  0  0  0  0  0
  187.1140  175.5410  136.6350 C   0  0  0  0  0  2  0  0  0  0  0  0
  191.7400  177.5230  141.8710 C   0  0  0  0  0  2  0  0  0  0  0  0
  185.8240  178.4750  138.4030 C   0  0  2  0  0  3  0  0  0  0  0  0
  192.4330  177.9400  139.6540 O   0  0  0  0  0  1  0  0  0  0  0  0
  188.1890  176.5620  136.9670 C   0  0  2  0  0  3  0  0  0  0  0  0
  185.2880  178.3520  142.7910 C   0  0  2  0  0  3  0  0  0  0  0  0
  187.5640  177.3740  142.8590 C   0  0  1  0  0  3  0  0  0  0  0  0
  191.3180  177.9850  140.4920 C   0  0  1  0  0  3  0  0  0  0  0  0
  187.8200  177.0960  139.5520 C   0  0  2  0  0  3  0  0  0  0  0  0
  190.4870  173.9520  137.0960 C   0  0  0  0  0  2  0  0  0  0  0  0
  189.8700  176.8070  142.9420 C   0  0  1  0  0  0  0  0  0  0  0  0
  188.5270  175.2680  136.1930 C   0  0  1  0  0  3  0  0  0  0  0  0
  186.1330  177.1230  142.4360 C   0  0  0  0  0  2  0  0  0  0  0  0
  191.4130  177.7220  145.5970 C   0  0  0  0  0  2  0  0  0  0  0  0
  187.1390  178.4340  139.2100 C   0  0  2  0  0  3  0  0  0  0  0  0
  190.7700  177.8860  142.8100 O   0  0  0  0  0  0  0  0  0  0  0  0
  183.8080  178.0690  142.5740 C   0  0  0  0  0  2  0  0  0  0  0  0
  182.9620  178.9450  143.4800 C   0  0  0  0  0  1  0  0  0  0  0  0
  1  5  1  1  0  0  0
  2 33  1  0  0  0  0
  3 29  1  0  0  0  0
  4 27  1  0  0  0  0
  4 10  1  0  0  0  0
  5 16  1  0  0  0  0
  6  2  1  0  0  0  0
  7  6  1  0  0  0  0
  8  6  1  0  0  0  0
  8 18  1  0  0  0  0
  9 15  1  0  0  0  0
  9 12  1  0  0  0  0
 10 13  1  0  0  0  0
 11 22  1  0  0  0  0
 12  4  1  0  0  0  0
 13 26  1  0  0  0  0
 13 30  1  0  0  0  0
 14 18  2  0  0  0  0
 16 25  1  0  0  0  0
 18 17  1  0  0  0  0
 19 12  1  0  0  0  0
 19 28  1  0  0  0  0
 20 24  1  0  0  0  0
 21 35  1  0  0  0  0
 22 34  1  0  0  0  0
 22  1  1  0  0  0  0
 23 27  1  0  0  0  0
 24 19  1  0  0  0  0
 26  7  1  0  0  0  0
 27 21  1  0  0  0  0
 28 10  1  0  0  0  0
 29 15  1  0  0  0  0
 30  8  1  0  0  0  0
 30  6  1  0  0  0  0
 31 20  1  0  0  0  0
 31 24  1  0  0  0  0
 31  3  1  0  0  0  0
 32 25  1  0  0  0  0
 32 26  1  0  0  0  0
 33 17  1  0  0  0  0
 34 28  1  0  0  0  0
 34  1  1  0  0  0  0
 35 30  1  0  0  0  0
 36 25  1  0  0  0  0
 36 37  1  0  0  0  0
M  END
>  <MODEL>
6

>  <REMARK>
 VINA RESULT:      -4.8      2.867      8.307
  Name = 
  1 active torsions:
  status: ('A' for Active; 'I' for Inactive)
    1  A    between atoms: C_11  and  C_26
                            x       y       z     vdW  Elec       q    Type
                         _______ _______ _______ _____ _____    ______ ____

>  <TORSDO>
F 1

$$$$
=
 OpenBabel11052415163D

 37 45  0  0  1  0  0  0  0  0999 V2000
  188.6690  177.5850  136.1750 C   0  0  1  0  0  3  0  0  0  0  0  0
  189.2990  178.4630  143.0020 C   0  0  0  0  0  2  0  0  0  0  0  0
  192.6350  172.9450  136.3610 C   0  0  0  0  0  2  0  0  0  0  0  0
  192.3170  176.5860  138.8410 C   0  0  1  0  0  3  0  0  0  0  0  0
  188.1160  178.9890  136.2720 C   0  0  0  0  0  2  0  0  0  0  0  0
  189.2810  177.2480  142.0430 C   0  0  2  0  0  0  0  0  0  0  0  0
  188.0650  177.1190  141.1600 C   0  0  0  0  0  2  0  0  0  0  0  0
  190.1590  176.0270  142.3190 C   0  0  2  0  0  3  0  0  0  0  0  0
  194.0730  175.4070  137.6820 C   0  0  0  0  0  2  0  0  0  0  0  0
  190.8660  177.0060  138.5840 C   0  0  2  0  0  3  0  0  0  0  0  0
  189.3110  176.0150  134.5960 O   0  0  0  0  0  1  0  0  0  0  0  0
  192.8980  176.2860  137.5390 N   0  0  1  0  0  0  0  0  0  0  0  0
  189.9320  176.6120  139.7540 C   0  0  2  0  0  3  0  0  0  0  0  0
  192.0920  175.5150  143.5750 O   0  0  0  0  0  0  0  0  0  0  0  0
  193.7640  174.0450  138.2990 C   0  0  0  0  0  2  0  0  0  0  0  0
  187.6040  179.2640  137.6920 C   0  0  0  0  0  2  0  0  0  0  0  0
  190.7660  177.1790  144.5750 C   0  0  0  0  0  2  0  0  0  0  0  0
  191.0870  176.2030  143.4910 C   0  0  0  0  0  0  0  0  0  0  0  0
  191.7990  175.6200  136.8510 C   0  0  2  0  0  3  0  0  0  0  0  0
  191.3210  174.1960  134.7730 C   0  0  0  0  0  2  0  0  0  0  0  0
  192.6890  177.5560  141.0640 C   0  0  0  0  0  2  0  0  0  0  0  0
  189.4730  177.3520  134.9360 C   0  0  2  0  0  3  0  0  0  0  0  0
  194.4490  177.5290  139.4910 O   0  0  0  0  0  1  0  0  0  0  0  0
  192.1260  175.3320  135.3790 C   0  0  2  0  0  3  0  0  0  0  0  0
  186.7460  178.1410  138.3270 C   0  0  2  0  0  3  0  0  0  0  0  0
  188.6020  177.3510  139.7670 C   0  0  1  0  0  3  0  0  0  0  0  0
  193.0660  177.6820  139.6020 C   0  0  1  0  0  3  0  0  0  0  0  0
  190.5090  176.3850  137.2170 C   0  0  2  0  0  3  0  0  0  0  0  0
  193.8760  172.9660  137.2360 C   0  0  0  0  0  2  0  0  0  0  0  0
  190.4980  176.9670  141.1470 C   0  0  1  0  0  0  0  0  0  0  0  0
  192.7400  173.9260  135.1920 C   0  0  1  0  0  3  0  0  0  0  0  0
  187.5820  176.9230  138.7340 C   0  0  0  0  0  2  0  0  0  0  0  0
  190.5010  178.5310  143.9420 C   0  0  0  0  0  2  0  0  0  0  0  0
  190.1790  177.5710  136.2910 C   0  0  2  0  0  3  0  0  0  0  0  0
  191.3970  178.0480  141.2640 O   0  0  0  0  0  0  0  0  0  0  0  0
  185.5760  177.7230  137.4470 C   0  0  0  0  0  2  0  0  0  0  0  0
  185.5910  176.2210  137.2250 C   0  0  0  0  0  1  0  0  0  0  0  0
  1  5  1  6  0  0  0
  1 34  1  0  0  0  0
  2 33  1  0  0  0  0
  3 29  1  0  0  0  0
  4 27  1  0  0  0  0
  5 16  1  0  0  0  0
  6  8  1  0  0  0  0
  6  2  1  0  0  0  0
  7  6  1  0  0  0  0
  8 18  1  0  0  0  0
  9 15  1  0  0  0  0
 10  4  1  0  0  0  0
 10 13  1  0  0  0  0
 11 22  1  0  0  0  0
 12  9  1  0  0  0  0
 12  4  1  0  0  0  0
 13 26  1  0  0  0  0
 13 30  1  0  0  0  0
 16 25  1  0  0  0  0
 18 14  2  0  0  0  0
 18 17  1  0  0  0  0
 19 28  1  0  0  0  0
 19 12  1  0  0  0  0
 20 31  1  0  0  0  0
 20 24  1  0  0  0  0
 21 35  1  0  0  0  0
 22  1  1  0  0  0  0
 22 34  1  0  0  0  0
 23 27  1  0  0  0  0
 24 19  1  0  0  0  0
 25 32  1  0  0  0  0
 26  7  1  0  0  0  0
 27 21  1  0  0  0  0
 28 10  1  0  0  0  0
 29 15  1  0  0  0  0
 30 35  1  0  0  0  0
 30  6  1  0  0  0  0
 30  8  1  0  0  0  0
 31 24  1  0  0  0  0
 31  3  1  0  0  0  0
 32 26  1  0  0  0  0
 33 17  1  0  0  0  0
 34 28  1  0  0  0  0
 36 25  1  0  0  0  0
 37 36  1  0  0  0  0
M  END
>  <MODEL>
7

>  <REMARK>
 VINA RESULT:      -4.7      3.557      7.971
  Name = 
  1 active torsions:
  status: ('A' for Active; 'I' for Inactive)
    1  A    between atoms: C_11  and  C_26
                            x       y       z     vdW  Elec       q    Type
                         _______ _______ _______ _____ _____    ______ ____

>  <TORSDO>
F 1

$$$$
=
 OpenBabel11052415163D

 37 45  0  0  1  0  0  0  0  0999 V2000
  186.1310  172.1830  135.5060 C   0  0  1  0  0  3  0  0  0  0  0  0
  181.8290  177.2590  137.3760 C   0  0  0  0  0  2  0  0  0  0  0  0
  190.8430  175.2270  137.9220 C   0  0  0  0  0  2  0  0  0  0  0  0
  187.1080  176.6730  136.0600 C   0  0  1  0  0  3  0  0  0  0  0  0
  184.9750  171.8430  134.5940 C   0  0  0  0  0  2  0  0  0  0  0  0
  183.0850  176.5970  137.9900 C   0  0  2  0  0  0  0  0  0  0  0  0
  183.0170  175.1030  138.1900 C   0  0  0  0  0  2  0  0  0  0  0  0
  184.0950  177.4290  138.7820 C   0  0  2  0  0  3  0  0  0  0  0  0
  189.4590  177.1830  135.8890 C   0  0  0  0  0  2  0  0  0  0  0  0
  186.2170  175.4300  136.1540 C   0  0  2  0  0  3  0  0  0  0  0  0
  188.3350  171.5880  135.9060 O   0  0  0  0  0  1  0  0  0  0  0  0
  188.3950  176.2220  135.5470 N   0  0  1  0  0  0  0  0  0  0  0  0
  185.2020  175.5300  137.3190 C   0  0  2  0  0  3  0  0  0  0  0  0
  184.6970  179.7020  138.9960 O   0  0  0  0  0  0  0  0  0  0  0  0
  189.6750  177.3700  137.3890 C   0  0  0  0  0  2  0  0  0  0  0  0
  183.6680  172.4250  135.1500 C   0  0  0  0  0  2  0  0  0  0  0  0
  182.4120  179.4020  138.5360 C   0  0  0  0  0  2  0  0  0  0  0  0
  183.8010  178.9050  138.7720 C   0  0  0  0  0  0  0  0  0  0  0  0
  188.5740  174.9450  136.2280 C   0  0  2  0  0  3  0  0  0  0  0  0
  190.3730  173.1870  136.7250 C   0  0  0  0  0  2  0  0  0  0  0  0
  185.4160  178.4500  136.0390 C   0  0  0  0  0  2  0  0  0  0  0  0
  187.4680  171.9390  134.8810 C   0  0  2  0  0  3  0  0  0  0  0  0
  187.3740  178.6860  134.7420 O   0  0  0  0  0  1  0  0  0  0  0  0
  189.8160  174.1920  135.7310 C   0  0  2  0  0  3  0  0  0  0  0  0
  183.4310  172.2190  136.6670 C   0  0  2  0  0  3  0  0  0  0  0  0
  184.0360  174.5590  137.2170 C   0  0  1  0  0  3  0  0  0  0  0  0
  186.4470  177.7410  135.1860 C   0  0  1  0  0  3  0  0  0  0  0  0
  187.2000  174.2420  136.2360 C   0  0  2  0  0  3  0  0  0  0  0  0
  190.9920  176.7330  137.7980 C   0  0  0  0  0  2  0  0  0  0  0  0
  184.4710  176.8890  137.3900 C   0  0  1  0  0  0  0  0  0  0  0  0
  191.0630  174.5170  136.5850 C   0  0  1  0  0  3  0  0  0  0  0  0
  184.3350  173.1080  137.5280 C   0  0  0  0  0  2  0  0  0  0  0  0
  181.8900  178.7810  137.2550 C   0  0  0  0  0  2  0  0  0  0  0  0
  186.9130  173.3760  134.9950 C   0  0  2  0  0  3  0  0  0  0  0  0
  184.2940  177.6330  136.2040 O   0  0  0  0  0  0  0  0  0  0  0  0
  183.5490  170.7610  137.0900 C   0  0  0  0  0  2  0  0  0  0  0  0
  182.8270  169.8630  136.1030 C   0  0  0  0  0  1  0  0  0  0  0  0
  1  5  1  6  0  0  0
  2  6  1  0  0  0  0
  4 10  1  0  0  0  0
  5 16  1  0  0  0  0
  6  7  1  0  0  0  0
  6  8  1  0  0  0  0
  9 15  1  0  0  0  0
 10 28  1  0  0  0  0
 10 13  1  0  0  0  0
 12  9  1  0  0  0  0
 12  4  1  0  0  0  0
 12 19  1  0  0  0  0
 13 30  1  0  0  0  0
 15 29  1  0  0  0  0
 16 25  1  0  0  0  0
 17 18  1  0  0  0  0
 18  8  1  0  0  0  0
 18 14  2  0  0  0  0
 19 28  1  0  0  0  0
 21 35  1  0  0  0  0
 22 34  1  0  0  0  0
 22  1  1  0  0  0  0
 22 11  1  0  0  0  0
 23 27  1  0  0  0  0
 24 19  1  0  0  0  0
 24 31  1  0  0  0  0
 24 20  1  0  0  0  0
 25 36  1  0  0  0  0
 25 32  1  0  0  0  0
 26 13  1  0  0  0  0
 26 32  1  0  0  0  0
 26  7  1  0  0  0  0
 27 21  1  0  0  0  0
 27  4  1  0  0  0  0
 29  3  1  0  0  0  0
 30  6  1  0  0  0  0
 30  8  1  0  0  0  0
 31 20  1  0  0  0  0
 31  3  1  0  0  0  0
 33  2  1  0  0  0  0
 33 17  1  0  0  0  0
 34  1  1  0  0  0  0
 34 28  1  0  0  0  0
 35 30  1  0  0  0  0
 37 36  1  0  0  0  0
M  END
>  <MODEL>
8

>  <REMARK>
 VINA RESULT:      -4.5      2.753      5.199
  Name = 
  1 active torsions:
  status: ('A' for Active; 'I' for Inactive)
    1  A    between atoms: C_11  and  C_26
                            x       y       z     vdW  Elec       q    Type
                         _______ _______ _______ _____ _____    ______ ____

>  <TORSDO>
F 1

$$$$
=
 OpenBabel11052415163D

 37 45  0  0  1  0  0  0  0  0999 V2000
  187.9910  174.6640  136.2340 C   0  0  1  0  0  3  0  0  0  0  0  0
  181.3630  172.7560  135.7740 C   0  0  0  0  0  2  0  0  0  0  0  0
  186.6910  178.1710  141.0620 C   0  0  0  0  0  2  0  0  0  0  0  0
  184.2520  177.0490  137.5550 C   0  0  1  0  0  3  0  0  0  0  0  0
  188.0050  174.1480  134.8130 C   0  0  0  0  0  2  0  0  0  0  0  0
  182.3440  173.0630  136.9300 C   0  0  2  0  0  0  0  0  0  0  0  0
  183.6190  172.2550  136.9510 C   0  0  0  0  0  2  0  0  0  0  0  0
  181.8530  173.7490  138.2050 C   0  0  2  0  0  3  0  0  0  0  0  0
  184.7670  179.0790  138.7490 C   0  0  0  0  0  2  0  0  0  0  0  0
  184.9910  175.8050  137.0520 C   0  0  2  0  0  3  0  0  0  0  0  0
  189.3310  175.8050  137.7410 O   0  0  0  0  0  1  0  0  0  0  0  0
  185.2670  178.0610  137.8080 N   0  0  1  0  0  0  0  0  0  0  0  0
  184.2750  174.4960  137.4660 C   0  0  2  0  0  3  0  0  0  0  0  0
  180.0160  175.0700  138.8790 O   0  0  0  0  0  0  0  0  0  0  0  0
  184.4020  178.5330  140.1270 C   0  0  0  0  0  2  0  0  0  0  0  0
  186.8550  173.1550  134.5940 C   0  0  0  0  0  2  0  0  0  0  0  0
  179.4570  173.5090  137.2130 C   0  0  0  0  0  2  0  0  0  0  0  0
  180.4140  174.1840  138.1410 C   0  0  0  0  0  0  0  0  0  0  0  0
  186.3560  177.2770  138.3810 C   0  0  2  0  0  3  0  0  0  0  0  0
  188.5590  177.5650  139.6610 C   0  0  0  0  0  2  0  0  0  0  0  0
  181.9840  176.5990  136.7310 C   0  0  0  0  0  2  0  0  0  0  0  0
  188.8620  175.8620  136.4350 C   0  0  2  0  0  3  0  0  0  0  0  0
  182.8020  178.8130  136.7530 O   0  0  0  0  0  1  0  0  0  0  0  0
  187.6220  178.1170  138.6010 C   0  0  2  0  0  3  0  0  0  0  0  0
  186.6580  172.0970  135.7080 C   0  0  2  0  0  3  0  0  0  0  0  0
  184.6980  173.2730  136.6660 C   0  0  1  0  0  3  0  0  0  0  0  0
  183.1940  177.4900  136.5410 C   0  0  1  0  0  3  0  0  0  0  0  0
  186.4340  175.9620  137.5780 C   0  0  2  0  0  3  0  0  0  0  0  0
  185.4240  179.0030  141.1490 C   0  0  0  0  0  2  0  0  0  0  0  0
  182.7510  174.5180  137.2180 C   0  0  1  0  0  0  0  0  0  0  0  0
  187.6690  178.7230  140.0220 C   0  0  1  0  0  3  0  0  0  0  0  0
  186.0600  172.6950  136.9860 C   0  0  0  0  0  2  0  0  0  0  0  0
  180.0460  173.5280  135.8160 C   0  0  0  0  0  2  0  0  0  0  0  0
  187.3310  176.0240  136.3260 C   0  0  2  0  0  3  0  0  0  0  0  0
  182.2370  175.3350  136.1900 O   0  0  0  0  0  0  0  0  0  0  0  0
  187.9330  171.3240  136.0200 C   0  0  0  0  0  2  0  0  0  0  0  0
  188.1010  170.1670  135.0530 C   0  0  0  0  0  1  0  0  0  0  0  0
  1  5  1  6  0  0  0
  1 34  1  0  0  0  0
  1 22  1  0  0  0  0
  2 33  1  0  0  0  0
  2  6  1  0  0  0  0
  3 29  1  0  0  0  0
  4 12  1  0  0  0  0
  6  7  1  0  0  0  0
  6 30  1  0  0  0  0
  6  8  1  0  0  0  0
  9 15  1  0  0  0  0
 10 13  1  0  0  0  0
 10  4  1  0  0  0  0
 10 28  1  0  0  0  0
 12 19  1  0  0  0  0
 12  9  1  0  0  0  0
 15 29  1  0  0  0  0
 16  5  1  0  0  0  0
 16 25  1  0  0  0  0
 17 18  1  0  0  0  0
 18  8  1  0  0  0  0
 18 14  2  0  0  0  0
 19 24  1  0  0  0  0
 20 31  1  0  0  0  0
 22 11  1  0  0  0  0
 24 20  1  0  0  0  0
 24 31  1  0  0  0  0
 25 36  1  0  0  0  0
 25 32  1  0  0  0  0
 26  7  1  0  0  0  0
 26 32  1  0  0  0  0
 26 13  1  0  0  0  0
 27 21  1  0  0  0  0
 27 23  1  0  0  0  0
 27  4  1  0  0  0  0
 28 19  1  0  0  0  0
 30 13  1  0  0  0  0
 30  8  1  0  0  0  0
 31  3  1  0  0  0  0
 33 17  1  0  0  0  0
 34 22  1  0  0  0  0
 34 28  1  0  0  0  0
 35 21  1  0  0  0  0
 35 30  1  0  0  0  0
 37 36  1  0  0  0  0
M  END
>  <MODEL>
9

>  <REMARK>
 VINA RESULT:      -4.3      1.849      2.633
  Name = 
  1 active torsions:
  status: ('A' for Active; 'I' for Inactive)
    1  A    between atoms: C_11  and  C_26
                            x       y       z     vdW  Elec       q    Type
                         _______ _______ _______ _____ _____    ______ ____

>  <TORSDO>
F 1

$$$$
