=
 OpenBabel11052412533D

 25 28  0  0  1  0  0  0  0  0999 V2000
  186.9950  177.7190  143.2660 C   0  0  0  0  0  0  0  0  0  0  0  0
  188.1810  177.3390  142.6280 C   0  0  0  0  0  0  0  0  0  0  0  0
  186.1830  178.8580  141.3020 C   0  0  0  0  0  3  0  0  0  0  0  0
  186.4790  177.3850  144.6210 C   0  0  2  0  0  3  0  0  0  0  0  0
  190.4690  177.1870  143.6500 C   0  0  2  0  0  3  0  0  0  0  0  0
  185.2760  178.6220  146.9290 C   0  0  0  0  0  3  0  0  0  0  0  0
  187.3730  178.5200  140.6430 C   0  0  0  0  0  3  0  0  0  0  0  0
  185.1730  178.1330  144.5830 C   0  0  0  0  0  0  0  0  0  0  0  0
  184.5110  178.5120  145.8340 C   0  0  0  0  0  3  0  0  0  0  0  0
  189.6080  177.4780  140.5500 N   0  0  0  0  0  0  0  0  0  0  0  0
  189.7260  177.8440  139.1460 C   0  0  0  0  0  1  0  0  0  0  0  0
  189.1500  176.4650  143.3650 C   0  0  0  0  0  2  0  0  0  0  0  0
  186.7450  178.4120  146.8570 C   0  0  0  0  0  3  0  0  0  0  0  0
  186.0190  178.4300  142.6130 C   0  0  0  0  0  0  0  0  0  0  0  0
  184.9120  178.7120  143.4530 N   0  0  0  0  0  0  0  0  0  0  0  0
  190.7950  176.8810  141.1520 C   0  0  0  0  0  2  0  0  0  0  0  0
  187.3230  177.8920  145.7620 C   0  0  0  0  0  3  0  0  0  0  0  0
  191.2120  177.6610  142.3940 C   0  0  0  0  0  2  0  0  0  0  0  0
  188.3880  177.7640  141.2800 C   0  0  0  0  0  0  0  0  0  0  0  0
  191.3730  176.3510  144.5590 C   0  0  0  0  0  2  0  0  0  0  0  0
  190.4250  177.5920  146.3620 O   0  0  0  0  0  0  0  0  0  0  0  0
  191.2670  176.7260  146.0070 C   0  0  0  0  0  0  0  0  0  0  0  0
  192.1230  176.0830  147.0130 C   0  0  0  0  0  0  0  0  0  0  0  0
  192.3790  176.7220  148.2210 O   0  0  0  0  0  1  0  0  0  0  0  0
  192.6190  174.9470  146.7950 O   0  0  0  0  0  0  0  0  0  0  0  0
  1  4  1  0  0  0  0
  2  1  1  0  0  0  0
  2 12  1  0  0  0  0
  3 14  1  0  0  0  0
  4 17  1  1  0  0  0
  5 20  1  6  0  0  0
  7 19  1  0  0  0  0
  7  3  2  0  0  0  0
  8  4  1  0  0  0  0
  8  9  1  0  0  0  0
  9  6  2  0  0  0  0
 10 16  1  0  0  0  0
 10 19  1  0  0  0  0
 11 10  1  0  0  0  0
 12  5  1  0  0  0  0
 13  6  1  0  0  0  0
 14  1  2  0  0  0  0
 14 15  1  0  0  0  0
 15  8  2  0  0  0  0
 16 18  1  0  0  0  0
 17 13  2  0  0  0  0
 18  5  1  0  0  0  0
 19  2  2  0  0  0  0
 20 22  1  0  0  0  0
 22 21  2  0  0  0  0
 22 23  1  0  0  0  0
 23 24  1  0  0  0  0
 25 23  2  0  0  0  0
M  END
>  <MODEL>
1

>  <REMARK>
 VINA RESULT:     -10.0      0.000      0.000
  Name = 
  3 active torsions:
  status: ('A' for Active; 'I' for Inactive)
    1  A    between atoms: C_2  and  C_25
    2  A    between atoms: C_6  and  C_15
    3  A    between atoms: C_15  and  C_25
                            x       y       z     vdW  Elec       q    Type
                         _______ _______ _______ _____ _____    ______ ____

>  <TORSDO>
F 3

$$$$
=
 OpenBabel11052412533D

 25 28  0  0  1  0  0  0  0  0999 V2000
  186.6970  177.9750  144.8090 C   0  0  0  0  0  0  0  0  0  0  0  0
  186.7470  177.8740  143.4150 C   0  0  0  0  0  0  0  0  0  0  0  0
  184.7570  179.4050  144.7380 C   0  0  0  0  0  3  0  0  0  0  0  0
  187.5160  177.3040  145.8550 C   0  0  2  0  0  3  0  0  0  0  0  0
  188.8040  177.7670  141.9780 C   0  0  2  0  0  3  0  0  0  0  0  0
  188.9580  177.8800  148.2820 C   0  0  0  0  0  3  0  0  0  0  0  0
  184.7980  179.3510  143.3380 C   0  0  0  0  0  3  0  0  0  0  0  0
  186.8790  177.8920  147.0870 C   0  0  0  0  0  0  0  0  0  0  0  0
  187.6200  177.9200  148.3500 C   0  0  0  0  0  3  0  0  0  0  0  0
  185.7850  178.6110  141.2000 N   0  0  0  0  0  0  0  0  0  0  0  0
  184.7160  179.2770  140.4700 C   0  0  0  0  0  1  0  0  0  0  0  0
  187.7750  176.9780  142.7920 C   0  0  0  0  0  2  0  0  0  0  0  0
  189.6550  177.8560  146.9700 C   0  0  0  0  0  3  0  0  0  0  0  0
  185.7150  178.6930  145.4460 C   0  0  0  0  0  0  0  0  0  0  0  0
  185.8640  178.6640  146.8560 N   0  0  0  0  0  0  0  0  0  0  0  0
  186.8490  178.0370  140.3840 C   0  0  0  0  0  2  0  0  0  0  0  0
  188.9830  177.6490  145.8270 C   0  0  0  0  0  3  0  0  0  0  0  0
  188.2060  178.5770  140.8210 C   0  0  0  0  0  2  0  0  0  0  0  0
  185.7810  178.5960  142.6500 C   0  0  0  0  0  0  0  0  0  0  0  0
  189.9460  176.8650  141.5040 C   0  0  0  0  0  2  0  0  0  0  0  0
  192.1540  177.6410  141.0430 O   0  0  0  0  0  0  0  0  0  0  0  0
  191.3010  177.3540  141.9230 C   0  0  0  0  0  0  0  0  0  0  0  0
  191.6330  177.5150  143.3450 C   0  0  0  0  0  0  0  0  0  0  0  0
  191.7550  178.7880  143.8910 O   0  0  0  0  0  0  0  0  0  0  0  0
  191.7990  176.5060  144.0790 O   0  0  0  0  0  1  0  0  0  0  0  0
  1 14  1  0  0  0  0
  1  4  1  0  0  0  0
  2  1  2  0  0  0  0
  3 14  2  0  0  0  0
  4 17  1  6  0  0  0
  4  8  1  0  0  0  0
  5 20  1  6  0  0  0
  5 12  1  0  0  0  0
  6  9  2  0  0  0  0
  7  3  1  0  0  0  0
  8  9  1  0  0  0  0
 10 19  1  0  0  0  0
 11 10  1  0  0  0  0
 12  2  1  0  0  0  0
 13  6  1  0  0  0  0
 14 15  1  0  0  0  0
 15  8  2  0  0  0  0
 16 18  1  0  0  0  0
 16 10  1  0  0  0  0
 17 13  2  0  0  0  0
 18  5  1  0  0  0  0
 19  7  2  0  0  0  0
 19  2  1  0  0  0  0
 20 22  1  0  0  0  0
 21 22  2  0  0  0  0
 22 23  1  0  0  0  0
 23 24  2  0  0  0  0
 23 25  1  0  0  0  0
M  END
>  <MODEL>
2

>  <REMARK>
 VINA RESULT:      -9.9      2.003      3.539
  Name = 
  3 active torsions:
  status: ('A' for Active; 'I' for Inactive)
    1  A    between atoms: C_2  and  C_25
    2  A    between atoms: C_6  and  C_15
    3  A    between atoms: C_15  and  C_25
                            x       y       z     vdW  Elec       q    Type
                         _______ _______ _______ _____ _____    ______ ____

>  <TORSDO>
F 3

$$$$
=
 OpenBabel11052412533D

 25 28  0  0  1  0  0  0  0  0999 V2000
  188.9320  177.0490  143.9620 C   0  0  0  0  0  0  0  0  0  0  0  0
  187.9520  177.2850  144.9330 C   0  0  0  0  0  0  0  0  0  0  0  0
  190.7130  177.1740  145.5820 C   0  0  0  0  0  3  0  0  0  0  0  0
  188.7990  176.7310  142.5140 C   0  0  2  0  0  3  0  0  0  0  0  0
  185.8390  178.6140  144.6590 C   0  0  2  0  0  3  0  0  0  0  0  0
  189.8760  177.4780  139.9480 C   0  0  0  0  0  3  0  0  0  0  0  0
  189.7590  177.4430  146.5740 C   0  0  0  0  0  3  0  0  0  0  0  0
  190.2550  176.6070  142.1500 C   0  0  0  0  0  0  0  0  0  0  0  0
  190.6760  176.7700  140.7570 C   0  0  0  0  0  3  0  0  0  0  0  0
  187.4460  177.8220  147.3480 N   0  0  0  0  0  0  0  0  0  0  0  0
  187.9180  177.9350  148.7200 C   0  0  0  0  0  1  0  0  0  0  0  0
  186.5100  177.2440  144.5280 C   0  0  0  0  0  2  0  0  0  0  0  0
  188.6350  178.1110  140.4660 C   0  0  0  0  0  3  0  0  0  0  0  0
  190.2640  176.9680  144.2850 C   0  0  0  0  0  0  0  0  0  0  0  0
  191.0750  176.7310  143.1460 N   0  0  0  0  0  0  0  0  0  0  0  0
  186.0300  178.1030  147.1370 C   0  0  0  0  0  2  0  0  0  0  0  0
  188.1580  177.8150  141.6850 C   0  0  0  0  0  3  0  0  0  0  0  0
  185.8530  179.1890  146.0820 C   0  0  0  0  0  2  0  0  0  0  0  0
  188.3750  177.5060  146.2780 C   0  0  0  0  0  0  0  0  0  0  0  0
  184.4260  178.5980  144.0710 C   0  0  0  0  0  2  0  0  0  0  0  0
  185.3110  179.6500  142.1200 O   0  0  0  0  0  0  0  0  0  0  0  0
  184.3870  178.9510  142.6130 C   0  0  0  0  0  0  0  0  0  0  0  0
  183.2940  178.4750  141.7560 C   0  0  0  0  0  0  0  0  0  0  0  0
  181.9840  178.8600  142.0190 O   0  0  0  0  0  1  0  0  0  0  0  0
  183.5340  177.7270  140.7710 O   0  0  0  0  0  0  0  0  0  0  0  0
  1 14  2  0  0  0  0
  1  2  1  0  0  0  0
  2 19  2  0  0  0  0
  3  7  2  0  0  0  0
  4 17  1  6  0  0  0
  4  1  1  0  0  0  0
  5 20  1  1  0  0  0
  5 18  1  0  0  0  0
  6 13  1  0  0  0  0
  6  9  2  0  0  0  0
  8  4  1  0  0  0  0
  8 15  2  0  0  0  0
  9  8  1  0  0  0  0
 10 11  1  0  0  0  0
 12  5  1  0  0  0  0
 12  2  1  0  0  0  0
 13 17  2  0  0  0  0
 14  3  1  0  0  0  0
 15 14  1  0  0  0  0
 16 10  1  0  0  0  0
 18 16  1  0  0  0  0
 19  7  1  0  0  0  0
 19 10  1  0  0  0  0
 21 22  2  0  0  0  0
 22 20  1  0  0  0  0
 23 24  1  0  0  0  0
 23 22  1  0  0  0  0
 25 23  2  0  0  0  0
M  END
>  <MODEL>
3

>  <REMARK>
 VINA RESULT:      -9.9      3.487      7.118
  Name = 
  3 active torsions:
  status: ('A' for Active; 'I' for Inactive)
    1  A    between atoms: C_2  and  C_25
    2  A    between atoms: C_6  and  C_15
    3  A    between atoms: C_15  and  C_25
                            x       y       z     vdW  Elec       q    Type
                         _______ _______ _______ _____ _____    ______ ____

>  <TORSDO>
F 3

$$$$
=
 OpenBabel11052412533D

 25 28  0  0  1  0  0  0  0  0999 V2000
  187.3300  177.7090  143.1590 C   0  0  0  0  0  0  0  0  0  0  0  0
  188.6540  177.2620  143.0720 C   0  0  0  0  0  0  0  0  0  0  0  0
  187.4200  178.7210  140.9730 C   0  0  0  0  0  3  0  0  0  0  0  0
  186.3020  177.4810  144.2110 C   0  0  2  0  0  3  0  0  0  0  0  0
  190.3360  177.1400  144.9320 C   0  0  2  0  0  3  0  0  0  0  0  0
  184.3380  178.9010  145.7690 C   0  0  0  0  0  3  0  0  0  0  0  0
  188.7580  178.3150  140.8660 C   0  0  0  0  0  3  0  0  0  0  0  0
  185.1550  178.2490  143.6100 C   0  0  0  0  0  0  0  0  0  0  0  0
  184.0680  178.7280  144.4680 C   0  0  0  0  0  3  0  0  0  0  0  0
  190.7960  177.2280  141.7360 N   0  0  0  0  0  0  0  0  0  0  0  0
  191.4790  177.4910  140.4780 C   0  0  0  0  0  1  0  0  0  0  0  0
  189.2080  176.4240  144.1840 C   0  0  0  0  0  2  0  0  0  0  0  0
  185.7030  178.6580  146.3030 C   0  0  0  0  0  3  0  0  0  0  0  0
  186.7290  178.3900  142.1300 C   0  0  0  0  0  0  0  0  0  0  0  0
  185.3930  178.7510  142.4390 N   0  0  0  0  0  0  0  0  0  0  0  0
  191.6160  176.6520  142.7960 C   0  0  0  0  0  2  0  0  0  0  0  0
  186.6440  178.0510  145.5630 C   0  0  0  0  0  3  0  0  0  0  0  0
  191.5390  177.5090  144.0540 C   0  0  0  0  0  2  0  0  0  0  0  0
  189.4000  177.5870  141.8990 C   0  0  0  0  0  0  0  0  0  0  0  0
  190.7640  176.3530  146.1730 C   0  0  0  0  0  2  0  0  0  0  0  0
  191.6550  177.5100  148.0610 O   0  0  0  0  0  0  0  0  0  0  0  0
  190.6220  177.1330  147.4470 C   0  0  0  0  0  0  0  0  0  0  0  0
  189.2930  177.4730  147.9740 C   0  0  0  0  0  0  0  0  0  0  0  0
  188.2900  176.5110  148.0060 O   0  0  0  0  0  0  0  0  0  0  0  0
  189.0580  178.6300  148.4100 O   0  0  0  0  0  1  0  0  0  0  0  0
  1  4  1  0  0  0  0
  2  1  1  0  0  0  0
  2 12  1  0  0  0  0
  3 14  1  0  0  0  0
  4 17  1  1  0  0  0
  5 20  1  1  0  0  0
  6 13  1  0  0  0  0
  7  3  2  0  0  0  0
  7 19  1  0  0  0  0
  8  4  1  0  0  0  0
  8  9  1  0  0  0  0
  9  6  2  0  0  0  0
 10 19  1  0  0  0  0
 10 16  1  0  0  0  0
 11 10  1  0  0  0  0
 12  5  1  0  0  0  0
 14 15  1  0  0  0  0
 14  1  2  0  0  0  0
 15  8  2  0  0  0  0
 16 18  1  0  0  0  0
 17 13  2  0  0  0  0
 18  5  1  0  0  0  0
 19  2  2  0  0  0  0
 20 22  1  0  0  0  0
 22 23  1  0  0  0  0
 22 21  2  0  0  0  0
 23 24  2  0  0  0  0
 23 25  1  0  0  0  0
M  END
>  <MODEL>
4

>  <REMARK>
 VINA RESULT:      -9.7      1.359      1.983
  Name = 
  3 active torsions:
  status: ('A' for Active; 'I' for Inactive)
    1  A    between atoms: C_2  and  C_25
    2  A    between atoms: C_6  and  C_15
    3  A    between atoms: C_15  and  C_25
                            x       y       z     vdW  Elec       q    Type
                         _______ _______ _______ _____ _____    ______ ____

>  <TORSDO>
F 3

$$$$
=
 OpenBabel11052412533D

 25 28  0  0  1  0  0  0  0  0999 V2000
  187.6380  177.4960  145.5820 C   0  0  0  0  0  0  0  0  0  0  0  0
  186.6910  177.7120  144.5750 C   0  0  0  0  0  0  0  0  0  0  0  0
  186.2680  178.5780  147.2450 C   0  0  0  0  0  3  0  0  0  0  0  0
  188.9270  176.7530  145.5500 C   0  0  2  0  0  3  0  0  0  0  0  0
  187.1390  178.2520  142.1640 C   0  0  2  0  0  3  0  0  0  0  0  0
  191.6800  177.0090  146.3610 C   0  0  0  0  0  3  0  0  0  0  0  0
  185.3130  178.8380  146.2530 C   0  0  0  0  0  3  0  0  0  0  0  0
  189.3640  176.9480  146.9780 C   0  0  0  0  0  0  0  0  0  0  0  0
  190.7790  176.8180  147.3330 C   0  0  0  0  0  3  0  0  0  0  0  0
  184.4810  178.7510  143.9310 N   0  0  0  0  0  0  0  0  0  0  0  0
  183.2360  179.3800  144.3470 C   0  0  0  0  0  1  0  0  0  0  0  0
  186.9470  177.1500  143.2090 C   0  0  0  0  0  2  0  0  0  0  0  0
  191.2530  177.3840  144.9880 C   0  0  0  0  0  3  0  0  0  0  0  0
  187.4180  177.8910  146.8780 C   0  0  0  0  0  0  0  0  0  0  0  0
  188.5120  177.5790  147.7240 N   0  0  0  0  0  0  0  0  0  0  0  0
  184.6410  178.5470  142.4950 C   0  0  0  0  0  2  0  0  0  0  0  0
  189.9640  177.3270  144.6180 C   0  0  0  0  0  3  0  0  0  0  0  0
  185.9340  179.1890  142.0070 C   0  0  0  0  0  2  0  0  0  0  0  0
  185.4970  178.4190  144.9120 C   0  0  0  0  0  0  0  0  0  0  0  0
  187.5810  177.6690  140.8190 C   0  0  0  0  0  2  0  0  0  0  0  0
  189.8740  177.9200  141.4280 O   0  0  0  0  0  0  0  0  0  0  0  0
  189.0220  177.9380  140.5010 C   0  0  0  0  0  0  0  0  0  0  0  0
  189.4480  178.2060  139.1210 C   0  0  0  0  0  0  0  0  0  0  0  0
  189.0550  179.3780  138.4860 O   0  0  0  0  0  0  0  0  0  0  0  0
  190.1800  177.3830  138.5100 O   0  0  0  0  0  1  0  0  0  0  0  0
  1 14  1  0  0  0  0
  2 19  1  0  0  0  0
  2  1  2  0  0  0  0
  4 17  1  6  0  0  0
  4  1  1  0  0  0  0
  4  8  1  0  0  0  0
  5 20  1  6  0  0  0
  5 12  1  0  0  0  0
  6  9  2  0  0  0  0
  7  3  1  0  0  0  0
  8  9  1  0  0  0  0
  8 15  2  0  0  0  0
 10 11  1  0  0  0  0
 10 19  1  0  0  0  0
 12  2  1  0  0  0  0
 13  6  1  0  0  0  0
 14  3  2  0  0  0  0
 14 15  1  0  0  0  0
 16 10  1  0  0  0  0
 17 13  2  0  0  0  0
 18  5  1  0  0  0  0
 18 16  1  0  0  0  0
 19  7  2  0  0  0  0
 22 20  1  0  0  0  0
 22 21  2  0  0  0  0
 23 22  1  0  0  0  0
 24 23  2  0  0  0  0
 25 23  1  0  0  0  0
M  END
>  <MODEL>
5

>  <REMARK>
 VINA RESULT:      -9.6      2.921      5.914
  Name = 
  3 active torsions:
  status: ('A' for Active; 'I' for Inactive)
    1  A    between atoms: C_2  and  C_25
    2  A    between atoms: C_6  and  C_15
    3  A    between atoms: C_15  and  C_25
                            x       y       z     vdW  Elec       q    Type
                         _______ _______ _______ _____ _____    ______ ____

>  <TORSDO>
F 3

$$$$
=
 OpenBabel11052412533D

 25 28  0  0  1  0  0  0  0  0999 V2000
  187.4680  178.1520  145.6300 C   0  0  0  0  0  0  0  0  0  0  0  0
  188.8110  177.8450  145.3840 C   0  0  0  0  0  0  0  0  0  0  0  0
  187.5600  177.2270  147.8550 C   0  0  0  0  0  3  0  0  0  0  0  0
  186.4790  178.8880  144.7980 C   0  0  2  0  0  3  0  0  0  0  0  0
  189.8170  177.0870  143.2120 C   0  0  2  0  0  3  0  0  0  0  0  0
  183.7570  178.7050  143.8690 C   0  0  0  0  0  3  0  0  0  0  0  0
  188.8980  176.8780  147.6290 C   0  0  0  0  0  3  0  0  0  0  0  0
  185.2850  178.8240  145.7140 C   0  0  0  0  0  0  0  0  0  0  0  0
  183.9350  178.9850  145.1670 C   0  0  0  0  0  3  0  0  0  0  0  0
  190.9260  176.7530  146.2270 N   0  0  0  0  0  0  0  0  0  0  0  0
  191.6630  176.1650  147.3360 C   0  0  0  0  0  1  0  0  0  0  0  0
  189.4250  178.2800  144.0870 C   0  0  0  0  0  2  0  0  0  0  0  0
  184.8810  178.2060  143.0350 C   0  0  0  0  0  3  0  0  0  0  0  0
  186.8750  177.8770  146.8370 C   0  0  0  0  0  0  0  0  0  0  0  0
  185.5110  178.2640  146.8610 N   0  0  0  0  0  0  0  0  0  0  0  0
  191.6400  176.8250  144.9570 C   0  0  0  0  0  2  0  0  0  0  0  0
  186.1460  178.2310  143.4830 C   0  0  0  0  0  3  0  0  0  0  0  0
  190.8380  176.1400  143.8560 C   0  0  0  0  0  2  0  0  0  0  0  0
  189.5490  177.1730  146.4050 C   0  0  0  0  0  0  0  0  0  0  0  0
  190.2690  177.5440  141.8230 C   0  0  0  0  0  2  0  0  0  0  0  0
  188.0760  178.0230  141.0130 O   0  0  0  0  0  0  0  0  0  0  0  0
  189.1830  177.4660  140.7900 C   0  0  0  0  0  0  0  0  0  0  0  0
  189.4050  176.7620  139.5200 C   0  0  0  0  0  0  0  0  0  0  0  0
  190.5560  176.0030  139.3370 O   0  0  0  0  0  1  0  0  0  0  0  0
  188.5530  176.8300  138.5960 O   0  0  0  0  0  0  0  0  0  0  0  0
  1 14  1  0  0  0  0
  2  1  2  0  0  0  0
  2 19  1  0  0  0  0
  4 17  1  6  0  0  0
  4  1  1  0  0  0  0
  4  8  1  0  0  0  0
  5 20  1  6  0  0  0
  5 18  1  0  0  0  0
  5 12  1  0  0  0  0
  6  9  2  0  0  0  0
  7  3  1  0  0  0  0
  8 15  2  0  0  0  0
  9  8  1  0  0  0  0
 10 19  1  0  0  0  0
 10 11  1  0  0  0  0
 12  2  1  0  0  0  0
 13 17  2  0  0  0  0
 13  6  1  0  0  0  0
 14 15  1  0  0  0  0
 14  3  2  0  0  0  0
 16 10  1  0  0  0  0
 18 16  1  0  0  0  0
 19  7  2  0  0  0  0
 22 21  2  0  0  0  0
 22 20  1  0  0  0  0
 23 22  1  0  0  0  0
 24 23  1  0  0  0  0
 25 23  2  0  0  0  0
M  END
>  <MODEL>
6

>  <REMARK>
 VINA RESULT:      -9.6      3.120      5.135
  Name = 
  3 active torsions:
  status: ('A' for Active; 'I' for Inactive)
    1  A    between atoms: C_2  and  C_25
    2  A    between atoms: C_6  and  C_15
    3  A    between atoms: C_15  and  C_25
                            x       y       z     vdW  Elec       q    Type
                         _______ _______ _______ _____ _____    ______ ____

>  <TORSDO>
F 3

$$$$
=
 OpenBabel11052412533D

 25 28  0  0  1  0  0  0  0  0999 V2000
  186.7220  177.9790  144.9290 C   0  0  0  0  0  0  0  0  0  0  0  0
  186.8070  177.8530  143.5370 C   0  0  0  0  0  0  0  0  0  0  0  0
  184.8300  179.4660  144.7800 C   0  0  0  0  0  3  0  0  0  0  0  0
  187.4910  177.3020  146.0070 C   0  0  2  0  0  3  0  0  0  0  0  0
  188.8980  177.6590  142.1610 C   0  0  2  0  0  3  0  0  0  0  0  0
  188.8840  177.8760  148.4640 C   0  0  0  0  0  3  0  0  0  0  0  0
  184.9080  179.3860  143.3830 C   0  0  0  0  0  3  0  0  0  0  0  0
  186.8400  177.9300  147.2110 C   0  0  0  0  0  0  0  0  0  0  0  0
  187.5470  177.9570  148.4930 C   0  0  0  0  0  3  0  0  0  0  0  0
  185.9280  178.5800  141.2850 N   0  0  0  0  0  0  0  0  0  0  0  0
  184.9000  179.2650  140.5150 C   0  0  0  0  0  1  0  0  0  0  0  0
  187.8240  176.9150  142.9580 C   0  0  0  0  0  2  0  0  0  0  0  0
  189.6160  177.8090  147.1720 C   0  0  0  0  0  3  0  0  0  0  0  0
  185.7460  178.7370  145.5260 C   0  0  0  0  0  0  0  0  0  0  0  0
  185.8550  178.7280  146.9400 N   0  0  0  0  0  0  0  0  0  0  0  0
  186.9960  177.9590  140.5080 C   0  0  0  0  0  2  0  0  0  0  0  0
  188.9680  177.6020  146.0140 C   0  0  0  0  0  3  0  0  0  0  0  0
  188.3570  178.4660  140.9740 C   0  0  0  0  0  2  0  0  0  0  0  0
  185.8850  178.5900  142.7350 C   0  0  0  0  0  0  0  0  0  0  0  0
  190.0240  176.7140  141.7330 C   0  0  0  0  0  2  0  0  0  0  0  0
  191.9120  177.9300  142.5380 O   0  0  0  0  0  0  0  0  0  0  0  0
  191.3410  177.4080  141.5460 C   0  0  0  0  0  0  0  0  0  0  0  0
  191.9740  177.4680  140.2220 C   0  0  0  0  0  0  0  0  0  0  0  0
  193.3600  177.5040  140.1140 O   0  0  0  0  0  1  0  0  0  0  0  0
  191.2700  177.4770  139.1780 O   0  0  0  0  0  0  0  0  0  0  0  0
  1 14  1  0  0  0  0
  1  4  1  0  0  0  0
  2  1  2  0  0  0  0
  3 14  2  0  0  0  0
  4 17  1  6  0  0  0
  4  8  1  0  0  0  0
  5 20  1  6  0  0  0
  5 12  1  0  0  0  0
  6  9  2  0  0  0  0
  7  3  1  0  0  0  0
  8  9  1  0  0  0  0
 10 19  1  0  0  0  0
 11 10  1  0  0  0  0
 12  2  1  0  0  0  0
 13  6  1  0  0  0  0
 14 15  1  0  0  0  0
 15  8  2  0  0  0  0
 16 18  1  0  0  0  0
 16 10  1  0  0  0  0
 17 13  2  0  0  0  0
 18  5  1  0  0  0  0
 19  7  2  0  0  0  0
 19  2  1  0  0  0  0
 22 20  1  0  0  0  0
 22 21  2  0  0  0  0
 23 22  1  0  0  0  0
 24 23  1  0  0  0  0
 25 23  2  0  0  0  0
M  END
>  <MODEL>
7

>  <REMARK>
 VINA RESULT:      -9.2      2.620      4.134
  Name = 
  3 active torsions:
  status: ('A' for Active; 'I' for Inactive)
    1  A    between atoms: C_2  and  C_25
    2  A    between atoms: C_6  and  C_15
    3  A    between atoms: C_15  and  C_25
                            x       y       z     vdW  Elec       q    Type
                         _______ _______ _______ _____ _____    ______ ____

>  <TORSDO>
F 3

$$$$
=
 OpenBabel11052412533D

 25 28  0  0  1  0  0  0  0  0999 V2000
  189.6150  177.0010  142.8890 C   0  0  0  0  0  0  0  0  0  0  0  0
  189.3690  176.8400  144.2570 C   0  0  0  0  0  0  0  0  0  0  0  0
  191.9950  177.1720  143.2330 C   0  0  0  0  0  3  0  0  0  0  0  0
  188.6840  176.9480  141.7290 C   0  0  2  0  0  3  0  0  0  0  0  0
  187.4190  177.7370  145.5610 C   0  0  2  0  0  3  0  0  0  0  0  0
  188.0290  178.3800  139.3160 C   0  0  0  0  0  3  0  0  0  0  0  0
  191.7810  177.0450  144.6120 C   0  0  0  0  0  3  0  0  0  0  0  0
  189.6630  177.1960  140.6120 C   0  0  0  0  0  0  0  0  0  0  0  0
  189.1870  177.7070  139.3240 C   0  0  0  0  0  3  0  0  0  0  0  0
  190.3290  176.7870  146.5920 N   0  0  0  0  0  0  0  0  0  0  0  0
  191.5030  176.7270  147.4510 C   0  0  0  0  0  1  0  0  0  0  0  0
  187.9640  176.5850  144.7140 C   0  0  0  0  0  2  0  0  0  0  0  0
  187.2850  178.6330  140.5780 C   0  0  0  0  0  3  0  0  0  0  0  0
  190.8890  177.1320  142.3950 C   0  0  0  0  0  0  0  0  0  0  0  0
  190.9000  177.2910  140.9860 N   0  0  0  0  0  0  0  0  0  0  0  0
  189.0410  176.8080  147.2760 C   0  0  0  0  0  2  0  0  0  0  0  0
  187.6220  178.0170  141.7220 C   0  0  0  0  0  3  0  0  0  0  0  0
  188.2240  178.0180  146.8370 C   0  0  0  0  0  2  0  0  0  0  0  0
  190.4810  176.8790  145.1520 C   0  0  0  0  0  0  0  0  0  0  0  0
  185.9310  177.5480  145.8630 C   0  0  0  0  0  2  0  0  0  0  0  0
  185.3120  179.6100  146.8900 O   0  0  0  0  0  0  0  0  0  0  0  0
  185.1660  178.8380  145.9070 C   0  0  0  0  0  0  0  0  0  0  0  0
  184.2640  179.2130  144.8100 C   0  0  0  0  0  0  0  0  0  0  0  0
  184.7740  179.8080  143.6620 O   0  0  0  0  0  0  0  0  0  0  0  0
  183.0280  178.9880  144.8960 O   0  0  0  0  0  1  0  0  0  0  0  0
  1  2  1  0  0  0  0
  2 12  1  0  0  0  0
  2 19  2  0  0  0  0
  3  7  2  0  0  0  0
  4 17  1  1  0  0  0
  4  1  1  0  0  0  0
  5 20  1  1  0  0  0
  5 18  1  0  0  0  0
  6  9  2  0  0  0  0
  6 13  1  0  0  0  0
  7 19  1  0  0  0  0
  8 15  2  0  0  0  0
  8  4  1  0  0  0  0
  9  8  1  0  0  0  0
 10 16  1  0  0  0  0
 10 11  1  0  0  0  0
 12  5  1  0  0  0  0
 13 17  2  0  0  0  0
 14  1  2  0  0  0  0
 14  3  1  0  0  0  0
 15 14  1  0  0  0  0
 18 16  1  0  0  0  0
 19 10  1  0  0  0  0
 20 22  1  0  0  0  0
 22 21  2  0  0  0  0
 23 25  1  0  0  0  0
 23 22  1  0  0  0  0
 24 23  2  0  0  0  0
M  END
>  <MODEL>
8

>  <REMARK>
 VINA RESULT:      -8.8      3.073      6.306
  Name = 
  3 active torsions:
  status: ('A' for Active; 'I' for Inactive)
    1  A    between atoms: C_2  and  C_25
    2  A    between atoms: C_6  and  C_15
    3  A    between atoms: C_15  and  C_25
                            x       y       z     vdW  Elec       q    Type
                         _______ _______ _______ _____ _____    ______ ____

>  <TORSDO>
F 3

$$$$
=
 OpenBabel11052412533D

 25 28  0  0  1  0  0  0  0  0999 V2000
  186.7440  178.3400  143.4030 C   0  0  0  0  0  0  0  0  0  0  0  0
  188.0550  178.1570  142.9500 C   0  0  0  0  0  0  0  0  0  0  0  0
  187.2390  177.3600  145.5490 C   0  0  0  0  0  3  0  0  0  0  0  0
  185.5850  179.0140  142.7560 C   0  0  2  0  0  3  0  0  0  0  0  0
  188.7830  177.5520  140.6240 C   0  0  2  0  0  3  0  0  0  0  0  0
  182.7790  178.6290  142.2280 C   0  0  0  0  0  3  0  0  0  0  0  0
  188.5530  177.1330  145.1150 C   0  0  0  0  0  3  0  0  0  0  0  0
  184.5510  178.8210  143.8330 C   0  0  0  0  0  0  0  0  0  0  0  0
  183.1260  178.8830  143.4970 C   0  0  0  0  0  3  0  0  0  0  0  0
  190.3520  177.2240  143.4280 N   0  0  0  0  0  0  0  0  0  0  0  0
  191.2910  176.6680  144.3920 C   0  0  0  0  0  1  0  0  0  0  0  0
  188.4320  178.6810  141.5970 C   0  0  0  0  0  2  0  0  0  0  0  0
  183.8020  178.2520  141.2180 C   0  0  0  0  0  3  0  0  0  0  0  0
  186.3610  177.9790  144.6710 C   0  0  0  0  0  0  0  0  0  0  0  0
  184.9890  178.2490  144.9100 N   0  0  0  0  0  0  0  0  0  0  0  0
  190.8600  177.3940  142.0710 C   0  0  0  0  0  2  0  0  0  0  0  0
  185.1140  178.3710  141.4770 C   0  0  0  0  0  3  0  0  0  0  0  0
  189.9610  176.6770  141.0710 C   0  0  0  0  0  2  0  0  0  0  0  0
  188.9880  177.5190  143.8230 C   0  0  0  0  0  0  0  0  0  0  0  0
  188.9850  178.0880  139.2040 C   0  0  0  0  0  2  0  0  0  0  0  0
  188.2130  176.2090  137.9520 O   0  0  0  0  0  0  0  0  0  0  0  0
  188.0870  177.4390  138.1930 C   0  0  0  0  0  0  0  0  0  0  0  0
  187.0560  178.2180  137.4950 C   0  0  0  0  0  0  0  0  0  0  0  0
  187.1910  178.4970  136.1400 O   0  0  0  0  0  0  0  0  0  0  0  0
  186.0390  178.6280  138.1140 O   0  0  0  0  0  1  0  0  0  0  0  0
  1 14  1  0  0  0  0
  2  1  2  0  0  0  0
  2 19  1  0  0  0  0
  4 17  1  6  0  0  0
  4  1  1  0  0  0  0
  4  8  1  0  0  0  0
  5 20  1  6  0  0  0
  5 18  1  0  0  0  0
  5 12  1  0  0  0  0
  6  9  2  0  0  0  0
  7  3  1  0  0  0  0
  8 15  2  0  0  0  0
  9  8  1  0  0  0  0
 10 19  1  0  0  0  0
 10 11  1  0  0  0  0
 12  2  1  0  0  0  0
 13 17  2  0  0  0  0
 13  6  1  0  0  0  0
 14 15  1  0  0  0  0
 14  3  2  0  0  0  0
 16 10  1  0  0  0  0
 18 16  1  0  0  0  0
 19  7  2  0  0  0  0
 21 22  2  0  0  0  0
 22 20  1  0  0  0  0
 23 25  1  0  0  0  0
 23 22  1  0  0  0  0
 24 23  2  0  0  0  0
M  END
>  <MODEL>
9

>  <REMARK>
 VINA RESULT:      -8.3      3.731      5.831
  Name = 
  3 active torsions:
  status: ('A' for Active; 'I' for Inactive)
    1  A    between atoms: C_2  and  C_25
    2  A    between atoms: C_6  and  C_15
    3  A    between atoms: C_15  and  C_25
                            x       y       z     vdW  Elec       q    Type
                         _______ _______ _______ _____ _____    ______ ____

>  <TORSDO>
F 3

$$$$
