=
 OpenBabel11052414393D

 32 36  0  0  1  0  0  0  0  0999 V2000
  189.1100  177.1330  142.3400 C   0  0  2  0  0  3  0  0  0  0  0  0
  186.5440  178.2130  142.8540 C   0  0  0  0  0  0  0  0  0  0  0  0
  190.2290  176.4420  142.0830 C   0  0  0  0  0  3  0  0  0  0  0  0
  188.6320  177.2550  143.7390 C   0  0  0  0  0  0  0  0  0  0  0  0
  186.9210  177.8500  145.2820 O   0  0  0  0  0  0  0  0  0  0  0  0
  182.8480  178.7260  142.5400 C   0  0  0  0  0  3  0  0  0  0  0  0
  187.4070  177.7560  143.9720 C   0  0  0  0  0  0  0  0  0  0  0  0
  183.3590  178.9080  144.9310 C   0  0  0  0  0  3  0  0  0  0  0  0
  184.7670  178.6350  144.6070 C   0  0  0  0  0  0  0  0  0  0  0  0
  189.5340  176.8530  144.8830 C   0  0  0  0  0  0  0  0  0  0  0  0
  185.5990  178.2160  145.5630 C   0  0  0  0  0  3  0  0  0  0  0  0
  190.6810  175.9810  144.4450 C   0  0  0  0  0  3  0  0  0  0  0  0
  187.0010  178.2020  141.5950 C   0  0  0  0  0  3  0  0  0  0  0  0
  188.3010  177.6790  141.2780 N   0  0  0  0  0  0  0  0  0  0  0  0
  185.2380  178.8830  143.1880 C   0  0  2  0  0  3  0  0  0  0  0  0
  191.0100  175.8170  143.1610 C   0  0  0  0  0  3  0  0  0  0  0  0
  182.4560  178.9670  143.9460 C   0  0  0  0  0  3  0  0  0  0  0  0
  184.1350  178.6340  142.1870 C   0  0  0  0  0  3  0  0  0  0  0  0
  188.3300  178.1900  137.5580 C   0  0  0  0  0  0  0  0  0  0  0  0
  187.5040  178.6640  136.5460 O   0  0  0  0  0  1  0  0  0  0  0  0
  188.7320  177.7030  139.9060 C   0  0  0  0  0  0  0  0  0  0  0  0
  189.6070  177.7190  137.2430 C   0  0  0  0  0  3  0  0  0  0  0  0
  190.0050  177.2210  139.5750 C   0  0  0  0  0  3  0  0  0  0  0  0
  187.8840  178.1760  138.8870 C   0  0  0  0  0  0  0  0  0  0  0  0
  186.5980  178.6130  139.1850 O   0  0  0  0  0  1  0  0  0  0  0  0
  190.4500  177.2270  138.2500 C   0  0  0  0  0  0  0  0  0  0  0  0
  192.7840  176.7480  138.9150 C   0  0  0  0  0  1  0  0  0  0  0  0
  191.7290  176.7430  137.9630 O   0  0  0  0  0  0  0  0  0  0  0  0
  190.0610  178.0450  145.5300 N   0  0  0  0  0  2  0  0  0  0  0  0
  190.4950  177.6680  146.7570 O   0  0  0  0  0  0  0  0  0  0  0  0
  189.3510  177.2060  147.4060 C   0  0  0  0  0  2  0  0  0  0  0  0
  188.8920  178.2390  148.4140 C   0  0  0  0  0  1  0  0  0  0  0  0
  1  3  1  6  0  0  0
  1  4  1  0  0  0  0
  2 15  1  0  0  0  0
  2  7  1  0  0  0  0
  3 16  2  0  0  0  0
  4  7  2  0  0  0  0
  4 10  1  0  0  0  0
  5 11  1  0  0  0  0
  6 17  1  0  0  0  0
  7  5  1  0  0  0  0
  9  8  1  0  0  0  0
  9 11  2  0  0  0  0
 10 29  1  0  0  0  0
 12 10  2  0  0  0  0
 13  2  2  0  0  0  0
 14 13  1  0  0  0  0
 14  1  1  0  0  0  0
 15 18  1  6  0  0  0
 15  9  1  0  0  0  0
 16 12  1  0  0  0  0
 17  8  2  0  0  0  0
 18  6  2  0  0  0  0
 19 24  1  0  0  0  0
 20 19  1  0  0  0  0
 21 14  1  0  0  0  0
 22 19  2  0  0  0  0
 22 26  1  0  0  0  0
 23 21  1  0  0  0  0
 24 25  1  0  0  0  0
 24 21  2  0  0  0  0
 26 23  2  0  0  0  0
 28 26  1  0  0  0  0
 28 27  1  0  0  0  0
 29 30  1  0  0  0  0
 30 31  1  0  0  0  0
 31 32  1  0  0  0  0
M  END
>  <MODEL>
1

>  <REMARK>
 VINA RESULT:      -9.9      0.000      0.000
  Name = 
  5 active torsions:
  status: ('A' for Active; 'I' for Inactive)
    1  A    between atoms: C_13  and  O_18
    2  A    between atoms: C_14  and  N_29
    3  A    between atoms: O_15  and  C_26
    4  A    between atoms: C_16  and  N_27
    5  A    between atoms: O_18  and  N_29
                            x       y       z     vdW  Elec       q    Type
                         _______ _______ _______ _____ _____    ______ ____

>  <TORSDO>
F 5

$$$$
=
 OpenBabel11052414393D

 32 36  0  0  1  0  0  0  0  0999 V2000
  189.6570  177.0870  137.7060 C   0  0  2  0  0  3  0  0  0  0  0  0
  189.9420  177.0390  140.5230 C   0  0  0  0  0  0  0  0  0  0  0  0
  189.6250  177.2850  136.3820 C   0  0  0  0  0  3  0  0  0  0  0  0
  188.6010  177.6810  138.5610 C   0  0  0  0  0  0  0  0  0  0  0  0
  187.7820  178.2500  140.7210 O   0  0  0  0  0  0  0  0  0  0  0  0
  191.5650  177.4480  143.8730 C   0  0  0  0  0  3  0  0  0  0  0  0
  188.7520  177.6650  139.8960 C   0  0  0  0  0  0  0  0  0  0  0  0
  189.2280  178.1330  144.1600 C   0  0  0  0  0  3  0  0  0  0  0  0
  189.0170  177.8630  142.7300 C   0  0  0  0  0  0  0  0  0  0  0  0
  187.3550  178.2600  137.9290 C   0  0  0  0  0  0  0  0  0  0  0  0
  187.9690  178.3980  142.1010 C   0  0  0  0  0  3  0  0  0  0  0  0
  187.5210  178.5360  136.4580 C   0  0  0  0  0  3  0  0  0  0  0  0
  190.8550  176.4110  139.7690 C   0  0  0  0  0  3  0  0  0  0  0  0
  190.7530  176.3910  138.3370 N   0  0  0  0  0  0  0  0  0  0  0  0
  189.9890  176.9400  142.0250 C   0  0  2  0  0  3  0  0  0  0  0  0
  188.5490  178.0640  135.7490 C   0  0  0  0  0  3  0  0  0  0  0  0
  190.4320  177.9190  144.7010 C   0  0  0  0  0  3  0  0  0  0  0  0
  191.3770  177.0410  142.6120 C   0  0  0  0  0  3  0  0  0  0  0  0
  192.5750  173.7000  136.4560 C   0  0  0  0  0  0  0  0  0  0  0  0
  192.3940  172.3860  136.0440 O   0  0  0  0  0  1  0  0  0  0  0  0
  191.7640  175.6920  137.5890 C   0  0  0  0  0  0  0  0  0  0  0  0
  193.7660  174.3630  136.1470 C   0  0  0  0  0  3  0  0  0  0  0  0
  192.9680  176.3410  137.2850 C   0  0  0  0  0  3  0  0  0  0  0  0
  191.5750  174.3580  137.1850 C   0  0  0  0  0  0  0  0  0  0  0  0
  190.4090  173.6770  137.5190 O   0  0  0  0  0  1  0  0  0  0  0  0
  193.9710  175.6860  136.5630 C   0  0  0  0  0  0  0  0  0  0  0  0
  196.1220  175.8790  135.3570 C   0  0  0  0  0  1  0  0  0  0  0  0
  195.1540  176.3710  136.2750 O   0  0  0  0  0  0  0  0  0  0  0  0
  186.2410  177.3440  138.1210 N   0  0  0  0  0  2  0  0  0  0  0  0
  185.1070  178.0600  137.9330 O   0  0  0  0  0  0  0  0  0  0  0  0
  184.7910  178.5540  139.1980 C   0  0  0  0  0  2  0  0  0  0  0  0
  183.7530  179.6500  139.0660 C   0  0  0  0  0  1  0  0  0  0  0  0
  1  3  1  1  0  0  0
  1 14  1  0  0  0  0
  1  4  1  0  0  0  0
  2 15  1  0  0  0  0
  4  7  2  0  0  0  0
  5 11  1  0  0  0  0
  6 17  1  0  0  0  0
  7  2  1  0  0  0  0
  7  5  1  0  0  0  0
  8 17  2  0  0  0  0
  9  8  1  0  0  0  0
 10 29  1  0  0  0  0
 10  4  1  0  0  0  0
 11  9  2  0  0  0  0
 12 10  2  0  0  0  0
 13  2  2  0  0  0  0
 14 13  1  0  0  0  0
 15 18  1  1  0  0  0
 15  9  1  0  0  0  0
 16  3  2  0  0  0  0
 16 12  1  0  0  0  0
 18  6  2  0  0  0  0
 19 24  1  0  0  0  0
 20 19  1  0  0  0  0
 21 14  1  0  0  0  0
 22 19  2  0  0  0  0
 22 26  1  0  0  0  0
 23 21  1  0  0  0  0
 24 25  1  0  0  0  0
 24 21  2  0  0  0  0
 26 23  2  0  0  0  0
 27 28  1  0  0  0  0
 28 26  1  0  0  0  0
 30 29  1  0  0  0  0
 30 31  1  0  0  0  0
 32 31  1  0  0  0  0
M  END
>  <MODEL>
2

>  <REMARK>
 VINA RESULT:      -9.3      3.197      6.523
  Name = 
  5 active torsions:
  status: ('A' for Active; 'I' for Inactive)
    1  A    between atoms: C_13  and  O_18
    2  A    between atoms: C_14  and  N_29
    3  A    between atoms: O_15  and  C_26
    4  A    between atoms: C_16  and  N_27
    5  A    between atoms: O_18  and  N_29
                            x       y       z     vdW  Elec       q    Type
                         _______ _______ _______ _____ _____    ______ ____

>  <TORSDO>
F 5

$$$$
=
 OpenBabel11052414393D

 32 36  0  0  1  0  0  0  0  0999 V2000
  185.9300  178.3980  144.6290 C   0  0  2  0  0  3  0  0  0  0  0  0
  187.7590  177.7090  142.5800 C   0  0  0  0  0  0  0  0  0  0  0  0
  185.1230  178.9170  145.5630 C   0  0  0  0  0  3  0  0  0  0  0  0
  187.3300  178.0580  144.9790 C   0  0  0  0  0  0  0  0  0  0  0  0
  189.5300  177.4530  144.3030 O   0  0  0  0  0  0  0  0  0  0  0  0
  189.6210  177.9480  139.3400 C   0  0  0  0  0  3  0  0  0  0  0  0
  188.1940  177.7460  143.9980 C   0  0  0  0  0  0  0  0  0  0  0  0
  191.2420  177.1540  141.0000 C   0  0  0  0  0  2  0  0  0  0  0  0
  190.1800  177.2360  142.0140 C   0  0  0  0  0  0  0  0  0  0  0  0
  187.7610  178.0290  146.4280 C   0  0  0  0  0  0  0  0  0  0  0  0
  190.5000  177.2770  143.3080 C   0  0  0  0  0  3  0  0  0  0  0  0
  186.8050  178.7570  147.3360 C   0  0  0  0  0  3  0  0  0  0  0  0
  186.4750  177.9160  142.2590 C   0  0  0  0  0  3  0  0  0  0  0  0
  185.5010  178.2550  143.2580 N   0  0  0  0  0  0  0  0  0  0  0  0
  188.7390  177.2260  141.5440 C   0  0  0  0  0  0  0  0  0  0  0  0
  185.5870  179.1380  146.9420 C   0  0  0  0  0  3  0  0  0  0  0  0
  190.9680  177.4770  139.7310 C   0  0  0  0  0  3  0  0  0  0  0  0
  188.5920  177.8840  140.1930 C   0  0  0  0  0  3  0  0  0  0  0  0
  182.4720  178.8090  141.1100 C   0  0  0  0  0  0  0  0  0  0  0  0
  182.1340  178.9550  139.7710 O   0  0  0  0  0  1  0  0  0  0  0  0
  184.1380  178.4570  142.8450 C   0  0  0  0  0  0  0  0  0  0  0  0
  181.4710  178.8650  142.0840 C   0  0  0  0  0  3  0  0  0  0  0  0
  183.1280  178.5280  143.8130 C   0  0  0  0  0  3  0  0  0  0  0  0
  183.8070  178.6150  141.4860 C   0  0  0  0  0  0  0  0  0  0  0  0
  184.8000  178.5970  140.5120 O   0  0  0  0  0  1  0  0  0  0  0  0
  181.7950  178.7290  143.4420 C   0  0  0  0  0  0  0  0  0  0  0  0
  179.4330  178.9400  144.1480 C   0  0  0  0  0  1  0  0  0  0  0  0
  180.8160  178.7870  144.4380 O   0  0  0  0  0  0  0  0  0  0  0  0
  187.8840  176.6490  146.8720 N   0  0  0  0  0  2  0  0  0  0  0  0
  188.6130  176.6670  148.0130 O   0  0  0  0  0  0  0  0  0  0  0  0
  189.7950  177.3200  147.6640 C   0  0  0  0  0  2  0  0  0  0  0  0
  190.8660  176.2930  147.3610 C   0  0  0  0  0  1  0  0  0  0  0  0
  1  4  1  0  0  0  0
  1  3  1  6  0  0  0
  2  7  1  0  0  0  0
  3 16  2  0  0  0  0
  4 10  1  0  0  0  0
  6 17  2  0  0  0  0
  6 18  1  0  0  0  0
  7  5  1  0  0  0  0
  7  4  2  0  0  0  0
  8  9  1  0  0  0  0
  9 11  2  0  0  0  0
 10 29  1  0  0  0  0
 10 12  2  0  0  0  0
 11  5  1  0  0  0  0
 13  2  2  0  0  0  0
 13 14  1  0  0  0  0
 14  1  1  0  0  0  0
 15  9  1  0  0  0  0
 15  2  1  0  0  0  0
 16 12  1  0  0  0  0
 17  8  1  0  0  0  0
 18 15  2  0  0  0  0
 19 24  2  0  0  0  0
 19 22  1  0  0  0  0
 20 19  1  0  0  0  0
 21 14  1  0  0  0  0
 21 23  2  0  0  0  0
 22 26  2  0  0  0  0
 24 21  1  0  0  0  0
 25 24  1  0  0  0  0
 26 23  1  0  0  0  0
 26 28  1  0  0  0  0
 27 28  1  0  0  0  0
 29 30  1  0  0  0  0
 31 30  1  0  0  0  0
 32 31  1  0  0  0  0
M  END
>  <MODEL>
3

>  <REMARK>
 VINA RESULT:      -9.1      2.167      6.442
  Name = 
  5 active torsions:
  status: ('A' for Active; 'I' for Inactive)
    1  A    between atoms: C_13  and  O_18
    2  A    between atoms: C_14  and  N_29
    3  A    between atoms: O_15  and  C_26
    4  A    between atoms: C_16  and  N_27
    5  A    between atoms: O_18  and  N_29
                            x       y       z     vdW  Elec       q    Type
                         _______ _______ _______ _____ _____    ______ ____

>  <TORSDO>
F 5

$$$$
=
 OpenBabel11052414393D

 32 36  0  0  1  0  0  0  0  0999 V2000
  189.8330  176.9570  137.7420 C   0  0  2  0  0  3  0  0  0  0  0  0
  190.0050  176.9560  140.5680 C   0  0  0  0  0  0  0  0  0  0  0  0
  189.8640  177.1280  136.4140 C   0  0  0  0  0  3  0  0  0  0  0  0
  188.7800  177.6280  138.5420 C   0  0  0  0  0  0  0  0  0  0  0  0
  187.9120  178.2910  140.6560 O   0  0  0  0  0  0  0  0  0  0  0  0
  191.5170  177.3460  143.9720 C   0  0  0  0  0  3  0  0  0  0  0  0
  188.8780  177.6340  139.8820 C   0  0  0  0  0  0  0  0  0  0  0  0
  189.2140  178.1680  144.1520 C   0  0  0  0  0  3  0  0  0  0  0  0
  189.0440  177.8790  142.7200 C   0  0  0  0  0  0  0  0  0  0  0  0
  187.5950  178.2630  137.8490 C   0  0  0  0  0  0  0  0  0  0  0  0
  188.0540  178.4590  142.0390 C   0  0  0  0  0  3  0  0  0  0  0  0
  187.8330  178.4960  136.3810 C   0  0  0  0  0  3  0  0  0  0  0  0
  190.9090  176.2600  139.8640 C   0  0  0  0  0  3  0  0  0  0  0  0
  190.8620  176.2140  138.4300 N   0  0  0  0  0  0  0  0  0  0  0  0
  189.9880  176.8870  142.0720 C   0  0  2  0  0  3  0  0  0  0  0  0
  188.8600  177.9520  135.7230 C   0  0  0  0  0  3  0  0  0  0  0  0
  190.3820  177.8980  144.7440 C   0  0  0  0  0  3  0  0  0  0  0  0
  191.3560  176.9220  142.7130 C   0  0  0  0  0  3  0  0  0  0  0  0
  194.1370  175.1310  136.9470 C   0  0  0  0  0  0  0  0  0  0  0  0
  195.4510  175.5710  136.8420 O   0  0  0  0  0  1  0  0  0  0  0  0
  191.8590  175.4430  137.7370 C   0  0  0  0  0  0  0  0  0  0  0  0
  193.7680  173.9170  136.3640 C   0  0  0  0  0  3  0  0  0  0  0  0
  191.4980  174.2300  137.1360 C   0  0  0  0  0  3  0  0  0  0  0  0
  193.1850  175.9030  137.6270 C   0  0  0  0  0  0  0  0  0  0  0  0
  193.5550  177.1280  138.1720 O   0  0  0  0  0  1  0  0  0  0  0  0
  192.4440  173.4610  136.4520 C   0  0  0  0  0  0  0  0  0  0  0  0
  192.9460  171.3940  135.1890 C   0  0  0  0  0  1  0  0  0  0  0  0
  192.0450  172.2540  135.8720 O   0  0  0  0  0  0  0  0  0  0  0  0
  186.4240  177.4160  138.0150 N   0  0  0  0  0  2  0  0  0  0  0  0
  185.3750  178.2390  138.2570 O   0  0  0  0  0  0  0  0  0  0  0  0
  184.2520  177.4820  137.9270 C   0  0  0  0  0  2  0  0  0  0  0  0
  184.3090  177.1100  136.4600 C   0  0  0  0  0  1  0  0  0  0  0  0
  1  3  1  1  0  0  0
  1 14  1  0  0  0  0
  1  4  1  0  0  0  0
  2 15  1  0  0  0  0
  4  7  2  0  0  0  0
  5 11  1  0  0  0  0
  6 17  1  0  0  0  0
  7  2  1  0  0  0  0
  7  5  1  0  0  0  0
  8 17  2  0  0  0  0
  9  8  1  0  0  0  0
 10 29  1  0  0  0  0
 10  4  1  0  0  0  0
 11  9  2  0  0  0  0
 12 10  2  0  0  0  0
 13  2  2  0  0  0  0
 14 13  1  0  0  0  0
 15 18  1  1  0  0  0
 15  9  1  0  0  0  0
 16 12  1  0  0  0  0
 16  3  2  0  0  0  0
 18  6  2  0  0  0  0
 19 24  1  0  0  0  0
 20 19  1  0  0  0  0
 21 14  1  0  0  0  0
 22 26  1  0  0  0  0
 22 19  2  0  0  0  0
 23 21  1  0  0  0  0
 24 21  2  0  0  0  0
 24 25  1  0  0  0  0
 26 23  2  0  0  0  0
 27 28  1  0  0  0  0
 28 26  1  0  0  0  0
 29 30  1  0  0  0  0
 31 30  1  0  0  0  0
 32 31  1  0  0  0  0
M  END
>  <MODEL>
4

>  <REMARK>
 VINA RESULT:      -8.8      3.283      6.832
  Name = 
  5 active torsions:
  status: ('A' for Active; 'I' for Inactive)
    1  A    between atoms: C_13  and  O_18
    2  A    between atoms: C_14  and  N_29
    3  A    between atoms: O_15  and  C_26
    4  A    between atoms: C_16  and  N_27
    5  A    between atoms: O_18  and  N_29
                            x       y       z     vdW  Elec       q    Type
                         _______ _______ _______ _____ _____    ______ ____

>  <TORSDO>
F 5

$$$$
=
 OpenBabel11052414393D

 32 36  0  0  1  0  0  0  0  0999 V2000
  190.0640  176.6940  143.4540 C   0  0  2  0  0  3  0  0  0  0  0  0
  187.4880  177.8270  143.1430 C   0  0  0  0  0  0  0  0  0  0  0  0
  191.1880  175.9770  143.5850 C   0  0  0  0  0  3  0  0  0  0  0  0
  189.2440  176.9930  144.6530 C   0  0  0  0  0  0  0  0  0  0  0  0
  187.2120  177.7770  145.6100 O   0  0  0  0  0  0  0  0  0  0  0  0
  184.0180  178.2920  141.8130 C   0  0  0  0  0  3  0  0  0  0  0  0
  188.0170  177.5180  144.4940 C   0  0  0  0  0  0  0  0  0  0  0  0
  183.8980  178.7780  144.2130 C   0  0  0  0  0  3  0  0  0  0  0  0
  185.3330  178.4670  144.3050 C   0  0  0  0  0  0  0  0  0  0  0  0
  189.8050  176.7410  146.0340 C   0  0  0  0  0  0  0  0  0  0  0  0
  185.8740  178.1750  145.4890 C   0  0  0  0  0  3  0  0  0  0  0  0
  190.9970  175.8210  146.0210 C   0  0  0  0  0  3  0  0  0  0  0  0
  188.2560  177.6560  142.0580 C   0  0  0  0  0  3  0  0  0  0  0  0
  189.5760  177.0990  142.1580 N   0  0  0  0  0  0  0  0  0  0  0  0
  186.1620  178.5330  143.0390 C   0  0  2  0  0  3  0  0  0  0  0  0
  191.6430  175.4960  144.8980 C   0  0  0  0  0  3  0  0  0  0  0  0
  183.2840  178.7090  143.0280 C   0  0  0  0  0  3  0  0  0  0  0  0
  185.3500  178.1570  141.8220 C   0  0  0  0  0  3  0  0  0  0  0  0
  192.4000  177.2700  139.6900 C   0  0  0  0  0  0  0  0  0  0  0  0
  193.7070  177.7330  139.6050 O   0  0  0  0  0  1  0  0  0  0  0  0
  190.3480  176.9490  140.9540 C   0  0  0  0  0  0  0  0  0  0  0  0
  191.8140  176.6500  138.5830 C   0  0  0  0  0  3  0  0  0  0  0  0
  189.7670  176.3410  139.8330 C   0  0  0  0  0  3  0  0  0  0  0  0
  191.6680  177.4300  140.8740 C   0  0  0  0  0  0  0  0  0  0  0  0
  192.2490  178.0820  141.9580 O   0  0  0  0  0  1  0  0  0  0  0  0
  190.4920  176.1860  138.6480 C   0  0  0  0  0  0  0  0  0  0  0  0
  190.3100  174.3170  137.0370 C   0  0  0  0  0  1  0  0  0  0  0  0
  189.8780  175.5680  137.5550 O   0  0  0  0  0  0  0  0  0  0  0  0
  190.1840  178.0060  146.6430 N   0  0  0  0  0  2  0  0  0  0  0  0
  190.1360  177.8270  147.9850 O   0  0  0  0  0  0  0  0  0  0  0  0
  189.0270  178.5640  148.3980 C   0  0  0  0  0  2  0  0  0  0  0  0
  187.9440  177.6200  148.8770 C   0  0  0  0  0  1  0  0  0  0  0  0
  1  3  1  6  0  0  0
  1  4  1  0  0  0  0
  2  7  1  0  0  0  0
  3 16  2  0  0  0  0
  4 10  1  0  0  0  0
  6 18  2  0  0  0  0
  6 17  1  0  0  0  0
  7  4  2  0  0  0  0
  7  5  1  0  0  0  0
  8  9  1  0  0  0  0
  9 11  2  0  0  0  0
 10 29  1  0  0  0  0
 11  5  1  0  0  0  0
 12 10  2  0  0  0  0
 13 14  1  0  0  0  0
 13  2  2  0  0  0  0
 14  1  1  0  0  0  0
 15 18  1  6  0  0  0
 15  2  1  0  0  0  0
 15  9  1  0  0  0  0
 16 12  1  0  0  0  0
 17  8  2  0  0  0  0
 19 24  1  0  0  0  0
 20 19  1  0  0  0  0
 21 14  1  0  0  0  0
 22 26  1  0  0  0  0
 22 19  2  0  0  0  0
 23 21  1  0  0  0  0
 24 21  2  0  0  0  0
 24 25  1  0  0  0  0
 26 23  2  0  0  0  0
 27 28  1  0  0  0  0
 28 26  1  0  0  0  0
 29 30  1  0  0  0  0
 30 31  1  0  0  0  0
 31 32  1  0  0  0  0
M  END
>  <MODEL>
5

>  <REMARK>
 VINA RESULT:      -8.8      1.712      2.505
  Name = 
  5 active torsions:
  status: ('A' for Active; 'I' for Inactive)
    1  A    between atoms: C_13  and  O_18
    2  A    between atoms: C_14  and  N_29
    3  A    between atoms: O_15  and  C_26
    4  A    between atoms: C_16  and  N_27
    5  A    between atoms: O_18  and  N_29
                            x       y       z     vdW  Elec       q    Type
                         _______ _______ _______ _____ _____    ______ ____

>  <TORSDO>
F 5

$$$$
=
 OpenBabel11052414393D

 32 36  0  0  1  0  0  0  0  0999 V2000
  183.9840  178.6200  142.1080 C   0  0  2  0  0  3  0  0  0  0  0  0
  185.8910  178.2980  140.0410 C   0  0  0  0  0  0  0  0  0  0  0  0
  183.1000  178.9720  143.0510 C   0  0  0  0  0  3  0  0  0  0  0  0
  185.4270  178.5620  142.4440 C   0  0  0  0  0  0  0  0  0  0  0  0
  187.6960  178.4000  141.7450 O   0  0  0  0  0  0  0  0  0  0  0  0
  187.6370  178.8910  136.7810 C   0  0  0  0  0  3  0  0  0  0  0  0
  186.3260  178.4230  141.4540 C   0  0  0  0  0  0  0  0  0  0  0  0
  189.3990  178.4350  138.4230 C   0  0  0  0  0  2  0  0  0  0  0  0
  188.3530  178.3090  139.4490 C   0  0  0  0  0  0  0  0  0  0  0  0
  185.8700  178.6220  143.8880 C   0  0  0  0  0  0  0  0  0  0  0  0
  188.6710  178.4150  140.7400 C   0  0  0  0  0  3  0  0  0  0  0  0
  184.7990  179.1500  144.8060 C   0  0  0  0  0  3  0  0  0  0  0  0
  184.5880  178.2480  139.7330 C   0  0  0  0  0  3  0  0  0  0  0  0
  183.5770  178.3910  140.7430 N   0  0  0  0  0  0  0  0  0  0  0  0
  186.9370  178.0150  138.9950 C   0  0  0  0  0  0  0  0  0  0  0  0
  183.5260  179.2830  144.4250 C   0  0  0  0  0  3  0  0  0  0  0  0
  189.0540  178.6950  137.1580 C   0  0  0  0  0  3  0  0  0  0  0  0
  186.6490  178.6280  137.6440 C   0  0  0  0  0  3  0  0  0  0  0  0
  180.2800  177.0660  139.5310 C   0  0  0  0  0  0  0  0  0  0  0  0
  179.7050  175.8720  139.1140 O   0  0  0  0  0  1  0  0  0  0  0  0
  182.1970  178.3200  140.3440 C   0  0  0  0  0  0  0  0  0  0  0  0
  179.5070  178.2300  139.5600 C   0  0  0  0  0  3  0  0  0  0  0  0
  181.4160  179.4840  140.3560 C   0  0  0  0  0  3  0  0  0  0  0  0
  181.6270  177.1080  139.9130 C   0  0  0  0  0  0  0  0  0  0  0  0
  182.3970  175.9510  139.8460 O   0  0  0  0  0  1  0  0  0  0  0  0
  180.0730  179.4470  139.9690 C   0  0  0  0  0  0  0  0  0  0  0  0
  178.9310  181.2540  141.2130 C   0  0  0  0  0  1  0  0  0  0  0  0
  179.3270  180.6270  140.0010 O   0  0  0  0  0  0  0  0  0  0  0  0
  186.2660  177.2940  144.3310 N   0  0  0  0  0  2  0  0  0  0  0  0
  186.8750  177.4460  145.5320 O   0  0  0  0  0  0  0  0  0  0  0  0
  188.2210  177.6350  145.2210 C   0  0  0  0  0  2  0  0  0  0  0  0
  189.0560  177.4600  146.4730 C   0  0  0  0  0  1  0  0  0  0  0  0
  1  4  1  0  0  0  0
  1  3  1  6  0  0  0
  2  7  1  0  0  0  0
  3 16  2  0  0  0  0
  4 10  1  0  0  0  0
  6 17  2  0  0  0  0
  6 18  1  0  0  0  0
  7  5  1  0  0  0  0
  7  4  2  0  0  0  0
  8  9  1  0  0  0  0
  9 11  2  0  0  0  0
 10 29  1  0  0  0  0
 10 12  2  0  0  0  0
 11  5  1  0  0  0  0
 13  2  2  0  0  0  0
 13 14  1  0  0  0  0
 14  1  1  0  0  0  0
 15  9  1  0  0  0  0
 15  2  1  0  0  0  0
 16 12  1  0  0  0  0
 17  8  1  0  0  0  0
 18 15  2  0  0  0  0
 19 22  2  0  0  0  0
 19 24  1  0  0  0  0
 20 19  1  0  0  0  0
 21 23  1  0  0  0  0
 21 14  1  0  0  0  0
 22 26  1  0  0  0  0
 24 21  2  0  0  0  0
 25 24  1  0  0  0  0
 26 28  1  0  0  0  0
 26 23  2  0  0  0  0
 28 27  1  0  0  0  0
 29 30  1  0  0  0  0
 31 30  1  0  0  0  0
 31 32  1  0  0  0  0
M  END
>  <MODEL>
6

>  <REMARK>
 VINA RESULT:      -8.7      3.113      7.136
  Name = 
  5 active torsions:
  status: ('A' for Active; 'I' for Inactive)
    1  A    between atoms: C_13  and  O_18
    2  A    between atoms: C_14  and  N_29
    3  A    between atoms: O_15  and  C_26
    4  A    between atoms: C_16  and  N_27
    5  A    between atoms: O_18  and  N_29
                            x       y       z     vdW  Elec       q    Type
                         _______ _______ _______ _____ _____    ______ ____

>  <TORSDO>
F 5

$$$$
=
 OpenBabel11052414393D

 32 36  0  0  1  0  0  0  0  0999 V2000
  187.9800  177.8370  141.0240 C   0  0  2  0  0  3  0  0  0  0  0  0
  189.1210  177.1070  143.5100 C   0  0  0  0  0  0  0  0  0  0  0  0
  187.5330  178.3630  139.8760 C   0  0  0  0  0  3  0  0  0  0  0  0
  187.2150  178.0560  142.2760 C   0  0  0  0  0  0  0  0  0  0  0  0
  187.0800  177.9470  144.6480 O   0  0  0  0  0  0  0  0  0  0  0  0
  191.6800  176.8450  146.2320 C   0  0  0  0  0  3  0  0  0  0  0  0
  187.7710  177.7190  143.4520 C   0  0  0  0  0  0  0  0  0  0  0  0
  189.5200  177.1360  147.3540 C   0  0  0  0  0  3  0  0  0  0  0  0
  188.8890  177.2170  146.0280 C   0  0  0  0  0  0  0  0  0  0  0  0
  185.8130  178.6180  142.2150 C   0  0  0  0  0  0  0  0  0  0  0  0
  187.6770  177.7600  145.9020 C   0  0  0  0  0  3  0  0  0  0  0  0
  185.5050  179.2790  140.8970 C   0  0  0  0  0  3  0  0  0  0  0  0
  189.7820  176.8110  142.3830 C   0  0  0  0  0  3  0  0  0  0  0  0
  189.2450  177.1460  141.0940 N   0  0  0  0  0  0  0  0  0  0  0  0
  189.6340  176.6340  144.8450 C   0  0  2  0  0  3  0  0  0  0  0  0
  186.2830  179.1370  139.8210 C   0  0  0  0  0  3  0  0  0  0  0  0
  190.8390  176.9430  147.4460 C   0  0  0  0  0  3  0  0  0  0  0  0
  191.1300  176.7530  145.0160 C   0  0  0  0  0  3  0  0  0  0  0  0
  192.1000  176.7050  138.6950 C   0  0  0  0  0  0  0  0  0  0  0  0
  193.4650  176.9530  138.6140 O   0  0  0  0  0  1  0  0  0  0  0  0
  190.0040  176.7940  139.9240 C   0  0  0  0  0  0  0  0  0  0  0  0
  191.4420  176.1050  137.6180 C   0  0  0  0  0  3  0  0  0  0  0  0
  189.3530  176.2050  138.8320 C   0  0  0  0  0  3  0  0  0  0  0  0
  191.3840  177.0590  139.8460 C   0  0  0  0  0  0  0  0  0  0  0  0
  192.0420  177.6880  140.8990 O   0  0  0  0  0  1  0  0  0  0  0  0
  190.0630  175.8560  137.6790 C   0  0  0  0  0  0  0  0  0  0  0  0
  188.1500  175.7750  136.1130 C   0  0  0  0  0  1  0  0  0  0  0  0
  189.3780  175.2650  136.6140 O   0  0  0  0  0  0  0  0  0  0  0  0
  184.8510  177.5520  142.4500 N   0  0  0  0  0  2  0  0  0  0  0  0
  183.6230  178.1230  142.4500 O   0  0  0  0  0  0  0  0  0  0  0  0
  183.4690  178.6260  143.7410 C   0  0  0  0  0  2  0  0  0  0  0  0
  182.0190  178.9980  143.9670 C   0  0  0  0  0  1  0  0  0  0  0  0
  1  3  1  1  0  0  0
  1 14  1  0  0  0  0
  1  4  1  0  0  0  0
  2 15  1  0  0  0  0
  4  7  2  0  0  0  0
  5 11  1  0  0  0  0
  6 17  1  0  0  0  0
  7  2  1  0  0  0  0
  7  5  1  0  0  0  0
  8 17  2  0  0  0  0
  9  8  1  0  0  0  0
 10  4  1  0  0  0  0
 10 29  1  0  0  0  0
 11  9  2  0  0  0  0
 12 10  2  0  0  0  0
 13  2  2  0  0  0  0
 14 13  1  0  0  0  0
 15 18  1  1  0  0  0
 15  9  1  0  0  0  0
 16  3  2  0  0  0  0
 16 12  1  0  0  0  0
 18  6  2  0  0  0  0
 19 24  1  0  0  0  0
 20 19  1  0  0  0  0
 21 14  1  0  0  0  0
 22 26  1  0  0  0  0
 22 19  2  0  0  0  0
 23 21  1  0  0  0  0
 24 21  2  0  0  0  0
 24 25  1  0  0  0  0
 26 23  2  0  0  0  0
 27 28  1  0  0  0  0
 28 26  1  0  0  0  0
 29 30  1  0  0  0  0
 30 31  1  0  0  0  0
 31 32  1  0  0  0  0
M  END
>  <MODEL>
7

>  <REMARK>
 VINA RESULT:      -8.7      1.922      5.265
  Name = 
  5 active torsions:
  status: ('A' for Active; 'I' for Inactive)
    1  A    between atoms: C_13  and  O_18
    2  A    between atoms: C_14  and  N_29
    3  A    between atoms: O_15  and  C_26
    4  A    between atoms: C_16  and  N_27
    5  A    between atoms: O_18  and  N_29
                            x       y       z     vdW  Elec       q    Type
                         _______ _______ _______ _____ _____    ______ ____

>  <TORSDO>
F 5

$$$$
=
 OpenBabel11052414393D

 32 36  0  0  1  0  0  0  0  0999 V2000
  186.7950  178.0340  142.4360 C   0  0  0  0  0  0  0  0  0  0  0  0
  188.7340  177.7490  140.3930 C   0  0  0  0  0  0  0  0  0  0  0  0
  185.8490  177.9680  143.3820 C   0  0  0  0  0  3  0  0  0  0  0  0
  186.4010  178.2210  141.0190 C   0  0  0  0  0  0  0  0  0  0  0  0
  186.9690  178.2090  138.7080 O   0  0  0  0  0  0  0  0  0  0  0  0
  191.5380  176.2260  138.4310 C   0  0  0  0  0  3  0  0  0  0  0  0
  187.3260  178.0700  140.0550 C   0  0  0  0  0  0  0  0  0  0  0  0
  190.0030  177.1970  136.7840 C   0  0  0  0  0  2  0  0  0  0  0  0
  189.1350  177.6090  137.8980 C   0  0  0  0  0  0  0  0  0  0  0  0
  184.9820  178.6130  140.6750 C   0  0  1  0  0  3  0  0  0  0  0  0
  187.8560  177.9080  137.6670 C   0  0  0  0  0  3  0  0  0  0  0  0
  184.0180  178.3690  141.8050 C   0  0  0  0  0  3  0  0  0  0  0  0
  189.1260  177.6760  141.6720 C   0  0  0  0  0  3  0  0  0  0  0  0
  188.1890  177.8270  142.7500 N   0  0  0  0  0  0  0  0  0  0  0  0
  189.7480  177.7210  139.2790 C   0  0  0  0  0  0  0  0  0  0  0  0
  184.4220  178.0990  143.0500 C   0  0  0  0  0  3  0  0  0  0  0  0
  191.1480  176.5570  137.0430 C   0  0  0  0  0  3  0  0  0  0  0  0
  190.8620  176.7200  139.4760 C   0  0  0  0  0  3  0  0  0  0  0  0
  190.4770  177.3670  145.6900 C   0  0  0  0  0  0  0  0  0  0  0  0
  191.8090  177.0780  145.9630 O   0  0  0  0  0  1  0  0  0  0  0  0
  188.6780  177.7440  144.0990 C   0  0  0  0  0  0  0  0  0  0  0  0
  189.5870  177.5770  146.7460 C   0  0  0  0  0  3  0  0  0  0  0  0
  187.7910  177.9400  145.1670 C   0  0  0  0  0  3  0  0  0  0  0  0
  190.0260  177.4400  144.3660 C   0  0  0  0  0  0  0  0  0  0  0  0
  190.9130  177.1940  143.3230 O   0  0  0  0  0  1  0  0  0  0  0  0
  188.2370  177.8610  146.4900 C   0  0  0  0  0  0  0  0  0  0  0  0
  186.0170  178.5850  147.3060 C   0  0  0  0  0  1  0  0  0  0  0  0
  187.3230  178.0680  147.5260 O   0  0  0  0  0  0  0  0  0  0  0  0
  184.9420  180.0210  140.3090 N   0  0  0  0  0  2  0  0  0  0  0  0
  184.6130  180.0760  138.9960 O   0  0  0  0  0  0  0  0  0  0  0  0
  183.3740  179.4410  138.9180 C   0  0  0  0  0  2  0  0  0  0  0  0
  182.3010  180.4670  138.6130 C   0  0  0  0  0  1  0  0  0  0  0  0
  1 14  1  0  0  0  0
  1  3  2  0  0  0  0
  2 13  2  0  0  0  0
  4  1  1  0  0  0  0
  5  7  1  0  0  0  0
  6 18  1  0  0  0  0
  7  2  1  0  0  0  0
  7  4  2  0  0  0  0
  8 17  1  0  0  0  0
  8  9  1  0  0  0  0
  9 15  1  0  0  0  0
 10 29  1  1  0  0  0
 10  4  1  0  0  0  0
 10 12  1  0  0  0  0
 11  9  2  0  0  0  0
 11  5  1  0  0  0  0
 12 16  2  0  0  0  0
 13 14  1  0  0  0  0
 14 21  1  0  0  0  0
 15 18  2  0  0  0  0
 15  2  1  0  0  0  0
 16  3  1  0  0  0  0
 17  6  2  0  0  0  0
 19 20  1  0  0  0  0
 19 22  1  0  0  0  0
 21 24  1  0  0  0  0
 21 23  2  0  0  0  0
 23 26  1  0  0  0  0
 24 19  2  0  0  0  0
 25 24  1  0  0  0  0
 26 22  2  0  0  0  0
 26 28  1  0  0  0  0
 27 28  1  0  0  0  0
 30 29  1  0  0  0  0
 31 30  1  0  0  0  0
 32 31  1  0  0  0  0
M  END
>  <MODEL>
8

>  <REMARK>
 VINA RESULT:      -8.7      1.809      7.812
  Name = 
  5 active torsions:
  status: ('A' for Active; 'I' for Inactive)
    1  A    between atoms: C_13  and  O_18
    2  A    between atoms: C_14  and  N_29
    3  A    between atoms: O_15  and  C_26
    4  A    between atoms: C_16  and  N_27
    5  A    between atoms: O_18  and  N_29
                            x       y       z     vdW  Elec       q    Type
                         _______ _______ _______ _____ _____    ______ ____

>  <TORSDO>
F 5

$$$$
=
 OpenBabel11052414393D

 32 36  0  0  1  0  0  0  0  0999 V2000
  185.0390  178.6050  139.1150 C   0  0  2  0  0  3  0  0  0  0  0  0
  185.0310  178.9050  141.9310 C   0  0  0  0  0  0  0  0  0  0  0  0
  184.9690  178.2770  137.8190 C   0  0  0  0  0  3  0  0  0  0  0  0
  186.2500  178.2530  139.8950 C   0  0  0  0  0  0  0  0  0  0  0  0
  187.3530  178.0270  141.9910 O   0  0  0  0  0  0  0  0  0  0  0  0
  183.8250  178.6280  145.4660 C   0  0  0  0  0  3  0  0  0  0  0  0
  186.2320  178.3850  141.2320 C   0  0  0  0  0  0  0  0  0  0  0  0
  186.2530  178.3020  145.5470 C   0  0  0  0  0  3  0  0  0  0  0  0
  186.2800  178.4480  144.0850 C   0  0  0  0  0  0  0  0  0  0  0  0
  187.4990  177.7860  139.1810 C   0  0  0  0  0  0  0  0  0  0  0  0
  187.3280  177.9980  143.3910 C   0  0  0  0  0  3  0  0  0  0  0  0
  187.2310  177.3400  137.7680 C   0  0  0  0  0  3  0  0  0  0  0  0
  183.9660  179.3210  141.2320 C   0  0  0  0  0  3  0  0  0  0  0  0
  183.9210  179.2070  139.8020 N   0  0  0  0  0  0  0  0  0  0  0  0
  185.1180  179.1520  143.4140 C   0  0  2  0  0  3  0  0  0  0  0  0
  186.0790  177.5910  137.1400 C   0  0  0  0  0  3  0  0  0  0  0  0
  185.0900  178.4040  146.1990 C   0  0  0  0  0  3  0  0  0  0  0  0
  183.8250  178.9240  144.1610 C   0  0  0  0  0  3  0  0  0  0  0  0
  180.5580  179.2950  138.1340 C   0  0  0  0  0  0  0  0  0  0  0  0
  179.5000  178.4460  137.8330 O   0  0  0  0  0  1  0  0  0  0  0  0
  182.7500  179.6790  139.1140 C   0  0  0  0  0  0  0  0  0  0  0  0
  180.4920  180.6390  137.7570 C   0  0  0  0  0  3  0  0  0  0  0  0
  182.6780  181.0220  138.7180 C   0  0  0  0  0  3  0  0  0  0  0  0
  181.6880  178.8090  138.8040 C   0  0  0  0  0  0  0  0  0  0  0  0
  181.7590  177.4610  139.1430 O   0  0  0  0  0  1  0  0  0  0  0  0
  181.5540  181.5090  138.0440 C   0  0  0  0  0  0  0  0  0  0  0  0
  180.8060  183.3210  136.5340 C   0  0  0  0  0  1  0  0  0  0  0  0
  181.5190  182.8560  137.6720 O   0  0  0  0  0  0  0  0  0  0  0  0
  188.4800  178.8610  139.1640 N   0  0  0  0  0  2  0  0  0  0  0  0
  189.6180  178.3450  138.6400 O   0  0  0  0  0  0  0  0  0  0  0  0
  190.1720  177.5930  139.6750 C   0  0  0  0  0  2  0  0  0  0  0  0
  190.9180  176.4100  139.0940 C   0  0  0  0  0  1  0  0  0  0  0  0
  1  3  1  1  0  0  0
  1 14  1  0  0  0  0
  1  4  1  0  0  0  0
  2 15  1  0  0  0  0
  4  7  2  0  0  0  0
  5 11  1  0  0  0  0
  6 17  1  0  0  0  0
  7  2  1  0  0  0  0
  7  5  1  0  0  0  0
  8 17  2  0  0  0  0
  9  8  1  0  0  0  0
 10  4  1  0  0  0  0
 11  9  2  0  0  0  0
 12 10  2  0  0  0  0
 13  2  2  0  0  0  0
 14 13  1  0  0  0  0
 15  9  1  0  0  0  0
 15 18  1  1  0  0  0
 16 12  1  0  0  0  0
 16  3  2  0  0  0  0
 18  6  2  0  0  0  0
 19 24  1  0  0  0  0
 20 19  1  0  0  0  0
 21 14  1  0  0  0  0
 22 26  1  0  0  0  0
 22 19  2  0  0  0  0
 23 21  1  0  0  0  0
 24 21  2  0  0  0  0
 24 25  1  0  0  0  0
 26 23  2  0  0  0  0
 27 28  1  0  0  0  0
 28 26  1  0  0  0  0
 29 10  1  0  0  0  0
 30 29  1  0  0  0  0
 30 31  1  0  0  0  0
 32 31  1  0  0  0  0
M  END
>  <MODEL>
9

>  <REMARK>
 VINA RESULT:      -8.7      3.551      6.738
  Name = 
  5 active torsions:
  status: ('A' for Active; 'I' for Inactive)
    1  A    between atoms: C_13  and  O_18
    2  A    between atoms: C_14  and  N_29
    3  A    between atoms: O_15  and  C_26
    4  A    between atoms: C_16  and  N_27
    5  A    between atoms: O_18  and  N_29
                            x       y       z     vdW  Elec       q    Type
                         _______ _______ _______ _____ _____    ______ ____

>  <TORSDO>
F 5

$$$$
