=
 OpenBabel11052413483D

 27 30  0  0  1  0  0  0  0  0999 V2000
  187.5490  176.3570  143.4550 C   0  0  0  0  0  2  0  0  0  0  0  0
  188.4480  177.5940  143.2050 C   0  0  2  0  0  3  0  0  0  0  0  0
  187.3300  177.6360  144.2820 C   0  0  2  0  0  0  0  0  0  0  0  0
  189.9690  177.3730  147.2060 C   0  0  0  0  0  2  0  0  0  0  0  0
  189.2450  178.0930  148.3150 C   0  0  0  0  0  2  0  0  0  0  0  0
  188.0430  177.6770  145.6770 C   0  0  1  0  0  3  0  0  0  0  0  0
  190.3520  177.0780  144.9540 O   0  0  0  0  0  1  0  0  0  0  0  0
  187.7150  178.2020  148.1450 C   0  0  0  0  0  2  0  0  0  0  0  0
  187.2330  177.3600  146.9770 C   0  0  0  0  0  2  0  0  0  0  0  0
  189.5680  177.8120  145.7920 C   0  0  2  0  0  3  0  0  0  0  0  0
  183.3770  178.9580  144.2410 C   0  0  0  0  0  3  0  0  0  0  0  0
  186.0110  178.1870  144.1080 C   0  0  0  0  0  0  0  0  0  0  0  0
  185.4720  178.6670  145.3140 C   0  0  0  0  0  3  0  0  0  0  0  0
  184.1300  179.0310  145.3750 C   0  0  0  0  0  3  0  0  0  0  0  0
  183.9180  178.4720  143.0410 C   0  0  0  0  0  3  0  0  0  0  0  0
  185.2420  177.9980  142.9690 C   0  0  0  0  0  3  0  0  0  0  0  0
  188.0820  178.4560  141.9530 C   0  0  0  0  0  2  0  0  0  0  0  0
  191.1970  176.9940  140.4690 C   0  0  0  0  0  3  0  0  0  0  0  0
  192.0550  176.4810  138.3910 O   0  0  0  0  0  1  0  0  0  0  0  0
  189.8350  177.5720  138.5600 C   0  0  0  0  0  0  0  0  0  0  0  0
  189.7160  177.5270  137.2000 O   0  0  0  0  0  1  0  0  0  0  0  0
  188.8240  178.1200  139.4460 C   0  0  0  0  0  0  0  0  0  0  0  0
  191.0320  177.0280  139.1530 C   0  0  0  0  0  0  0  0  0  0  0  0
  189.0260  177.9650  140.8260 C   0  0  0  0  0  0  0  0  0  0  0  0
  190.1730  177.4260  141.3020 C   0  0  0  0  0  3  0  0  0  0  0  0
  186.6990  177.9110  138.3450 O   0  0  0  0  0  1  0  0  0  0  0  0
  187.6630  178.7060  138.9650 O   0  0  0  0  0  0  0  0  0  0  0  0
  1  3  1  0  0  0  0
  2 17  1  6  0  0  0
  2  1  1  0  0  0  0
  2  3  1  0  0  0  0
  3 12  1  6  0  0  0
  3  6  1  0  0  0  0
  4  5  1  0  0  0  0
  6 10  1  0  0  0  0
  6  9  1  6  0  0  0
  8  5  1  0  0  0  0
  9  8  1  0  0  0  0
 10  7  1  6  0  0  0
 10  4  1  0  0  0  0
 11 14  1  0  0  0  0
 12 13  1  0  0  0  0
 13 14  2  0  0  0  0
 15 11  2  0  0  0  0
 16 15  1  0  0  0  0
 16 12  2  0  0  0  0
 18 25  1  0  0  0  0
 19 23  1  0  0  0  0
 20 23  1  0  0  0  0
 20 22  2  0  0  0  0
 21 20  1  0  0  0  0
 22 24  1  0  0  0  0
 23 18  2  0  0  0  0
 24 25  2  0  0  0  0
 24 17  1  0  0  0  0
 26 27  1  0  0  0  0
 27 22  1  0  0  0  0
M  END
>  <MODEL>
1

>  <REMARK>
 VINA RESULT:     -10.1      0.000      0.000
  Name = 
  5 active torsions:
  status: ('A' for Active; 'I' for Inactive)
    1  A    between atoms: C_2  and  C_6
    2  A    between atoms: C_6  and  C_17
    3  A    between atoms: C_9  and  C_15
    4  A    between atoms: C_14  and  O_19
    5  A    between atoms: C_15  and  C_18
                            x       y       z     vdW  Elec       q    Type
                         _______ _______ _______ _____ _____    ______ ____

>  <TORSDO>
F 5

$$$$
=
 OpenBabel11052413483D

 27 30  0  0  1  0  0  0  0  0999 V2000
  186.8550  176.4010  144.1150 C   0  0  0  0  0  2  0  0  0  0  0  0
  186.8150  177.8040  143.4590 C   0  0  2  0  0  3  0  0  0  0  0  0
  187.9990  177.3960  144.3770 C   0  0  2  0  0  0  0  0  0  0  0  0
  190.5660  177.6390  141.3880 C   0  0  0  0  0  2  0  0  0  0  0  0
  191.8070  177.0660  142.0240 C   0  0  0  0  0  2  0  0  0  0  0  0
  189.2580  177.2470  143.4560 C   0  0  1  0  0  3  0  0  0  0  0  0
  188.5690  178.7660  141.6020 O   0  0  0  0  0  1  0  0  0  0  0  0
  191.5660  176.1920  143.2740 C   0  0  0  0  0  2  0  0  0  0  0  0
  190.0860  175.9200  143.4740 C   0  0  0  0  0  2  0  0  0  0  0  0
  189.5850  178.2860  142.3730 C   0  0  2  0  0  3  0  0  0  0  0  0
  188.7870  177.9490  148.4320 C   0  0  0  0  0  3  0  0  0  0  0  0
  188.1380  177.7240  145.7720 C   0  0  0  0  0  0  0  0  0  0  0  0
  189.4830  177.7970  146.1710 C   0  0  0  0  0  3  0  0  0  0  0  0
  189.8000  177.8850  147.5230 C   0  0  0  0  0  3  0  0  0  0  0  0
  187.4450  177.8690  148.0300 C   0  0  0  0  0  3  0  0  0  0  0  0
  187.0910  177.6740  146.6820 C   0  0  0  0  0  3  0  0  0  0  0  0
  185.8770  178.8480  144.1490 C   0  0  0  0  0  2  0  0  0  0  0  0
  183.6170  178.3860  141.1960 C   0  0  0  0  0  3  0  0  0  0  0  0
  181.3610  178.3790  140.7210 O   0  0  0  0  0  1  0  0  0  0  0  0
  182.1220  178.8770  143.0280 C   0  0  0  0  0  0  0  0  0  0  0  0
  180.8200  178.9910  143.4250 O   0  0  0  0  0  1  0  0  0  0  0  0
  183.2590  179.0430  143.9140 C   0  0  0  0  0  0  0  0  0  0  0  0
  182.3810  178.5580  141.6450 C   0  0  0  0  0  0  0  0  0  0  0  0
  184.5280  178.7540  143.3910 C   0  0  0  0  0  0  0  0  0  0  0  0
  184.6850  178.4440  142.0820 C   0  0  0  0  0  3  0  0  0  0  0  0
  183.8250  178.7060  146.2240 O   0  0  0  0  0  1  0  0  0  0  0  0
  183.1080  179.3950  145.2460 O   0  0  0  0  0  0  0  0  0  0  0  0
  1  3  1  0  0  0  0
  2  1  1  0  0  0  0
  2 17  1  1  0  0  0
  2  3  1  0  0  0  0
  3 12  1  1  0  0  0
  4  5  1  0  0  0  0
  4 10  1  0  0  0  0
  5  8  1  0  0  0  0
  6  9  1  6  0  0  0
  6  3  1  0  0  0  0
  8  9  1  0  0  0  0
 10  7  1  6  0  0  0
 10  6  1  0  0  0  0
 12 13  2  0  0  0  0
 12 16  1  0  0  0  0
 13 14  1  0  0  0  0
 14 11  2  0  0  0  0
 15 11  1  0  0  0  0
 16 15  2  0  0  0  0
 18 23  2  0  0  0  0
 18 25  1  0  0  0  0
 19 23  1  0  0  0  0
 20 21  1  0  0  0  0
 20 22  2  0  0  0  0
 22 27  1  0  0  0  0
 23 20  1  0  0  0  0
 24 22  1  0  0  0  0
 24 17  1  0  0  0  0
 25 24  2  0  0  0  0
 27 26  1  0  0  0  0
M  END
>  <MODEL>
2

>  <REMARK>
 VINA RESULT:      -9.7      3.009      6.304
  Name = 
  5 active torsions:
  status: ('A' for Active; 'I' for Inactive)
    1  A    between atoms: C_2  and  C_6
    2  A    between atoms: C_6  and  C_17
    3  A    between atoms: C_9  and  C_15
    4  A    between atoms: C_14  and  O_19
    5  A    between atoms: C_15  and  C_18
                            x       y       z     vdW  Elec       q    Type
                         _______ _______ _______ _____ _____    ______ ____

>  <TORSDO>
F 5

$$$$
=
 OpenBabel11052413483D

 27 30  0  0  1  0  0  0  0  0999 V2000
  190.6500  178.9860  144.2980 C   0  0  0  0  0  2  0  0  0  0  0  0
  190.2230  178.4080  142.9260 C   0  0  2  0  0  3  0  0  0  0  0  0
  189.9170  177.6340  144.2370 C   0  0  2  0  0  0  0  0  0  0  0  0
  186.3000  177.7180  145.8140 C   0  0  0  0  0  2  0  0  0  0  0  0
  185.4660  178.0750  144.6090 C   0  0  0  0  0  2  0  0  0  0  0  0
  188.3650  177.6890  144.4460 C   0  0  1  0  0  3  0  0  0  0  0  0
  188.3090  177.8220  146.9350 O   0  0  0  0  0  1  0  0  0  0  0  0
  186.1250  177.7920  143.2430 C   0  0  0  0  0  2  0  0  0  0  0  0
  187.4140  177.0070  143.4080 C   0  0  0  0  0  2  0  0  0  0  0  0
  187.7510  178.2090  145.7530 C   0  0  2  0  0  3  0  0  0  0  0  0
  192.5210  174.9070  146.0140 C   0  0  0  0  0  3  0  0  0  0  0  0
  190.7000  176.5560  144.7830 C   0  0  0  0  0  0  0  0  0  0  0  0
  191.1150  176.8140  146.1010 C   0  0  0  0  0  3  0  0  0  0  0  0
  192.0560  175.9860  146.7040 C   0  0  0  0  0  3  0  0  0  0  0  0
  192.1080  174.6570  144.6960 C   0  0  0  0  0  3  0  0  0  0  0  0
  191.2380  175.5310  144.0180 C   0  0  0  0  0  3  0  0  0  0  0  0
  191.3580  177.7220  142.0970 C   0  0  0  0  0  2  0  0  0  0  0  0
  188.6690  177.5270  139.4940 C   0  0  0  0  0  3  0  0  0  0  0  0
  188.4590  177.0540  137.2480 O   0  0  0  0  0  1  0  0  0  0  0  0
  190.6820  176.8730  138.3310 C   0  0  0  0  0  0  0  0  0  0  0  0
  191.2320  176.5300  137.1290 O   0  0  0  0  0  1  0  0  0  0  0  0
  191.4370  176.9960  139.5650 C   0  0  0  0  0  0  0  0  0  0  0  0
  189.2660  177.1430  138.3730 C   0  0  0  0  0  0  0  0  0  0  0  0
  190.7580  177.4950  140.6860 C   0  0  0  0  0  0  0  0  0  0  0  0
  189.4270  177.7410  140.6380 C   0  0  0  0  0  3  0  0  0  0  0  0
  193.7180  177.6920  139.2770 O   0  0  0  0  0  1  0  0  0  0  0  0
  192.7920  176.7100  139.6290 O   0  0  0  0  0  0  0  0  0  0  0  0
  2 17  1  6  0  0  0
  2  3  1  0  0  0  0
  2  1  1  0  0  0  0
  3  1  1  0  0  0  0
  3  6  1  0  0  0  0
  3 12  1  1  0  0  0
  5  4  1  0  0  0  0
  6  9  1  1  0  0  0
  6 10  1  0  0  0  0
  8  9  1  0  0  0  0
  8  5  1  0  0  0  0
 10  4  1  0  0  0  0
 10  7  1  1  0  0  0
 11 14  1  0  0  0  0
 12 13  1  0  0  0  0
 13 14  2  0  0  0  0
 15 11  2  0  0  0  0
 16 15  1  0  0  0  0
 16 12  2  0  0  0  0
 18 25  1  0  0  0  0
 19 23  1  0  0  0  0
 20 23  1  0  0  0  0
 20 22  2  0  0  0  0
 21 20  1  0  0  0  0
 22 27  1  0  0  0  0
 22 24  1  0  0  0  0
 23 18  2  0  0  0  0
 24 17  1  0  0  0  0
 25 24  2  0  0  0  0
 26 27  1  0  0  0  0
M  END
>  <MODEL>
3

>  <REMARK>
 VINA RESULT:      -9.7      1.895      4.813
  Name = 
  5 active torsions:
  status: ('A' for Active; 'I' for Inactive)
    1  A    between atoms: C_2  and  C_6
    2  A    between atoms: C_6  and  C_17
    3  A    between atoms: C_9  and  C_15
    4  A    between atoms: C_14  and  O_19
    5  A    between atoms: C_15  and  C_18
                            x       y       z     vdW  Elec       q    Type
                         _______ _______ _______ _____ _____    ______ ____

>  <TORSDO>
F 5

$$$$
=
 OpenBabel11052413483D

 27 30  0  0  1  0  0  0  0  0999 V2000
  186.3970  176.5580  144.0400 C   0  0  0  0  0  2  0  0  0  0  0  0
  186.3880  177.9400  143.3420 C   0  0  2  0  0  3  0  0  0  0  0  0
  187.5910  177.5090  144.2240 C   0  0  2  0  0  0  0  0  0  0  0  0
  190.0880  177.6290  141.1690 C   0  0  0  0  0  2  0  0  0  0  0  0
  191.2820  176.9090  141.7420 C   0  0  0  0  0  2  0  0  0  0  0  0
  188.8030  177.2780  143.2580 C   0  0  1  0  0  3  0  0  0  0  0  0
  188.2200  178.9370  141.4920 O   0  0  0  0  0  1  0  0  0  0  0  0
  190.9890  176.0090  142.9610 C   0  0  0  0  0  2  0  0  0  0  0  0
  189.4950  175.8760  143.1960 C   0  0  0  0  0  2  0  0  0  0  0  0
  189.2040  178.3260  142.2100 C   0  0  2  0  0  3  0  0  0  0  0  0
  188.5380  178.1270  148.2360 C   0  0  0  0  0  3  0  0  0  0  0  0
  187.8010  177.8740  145.6010 C   0  0  0  0  0  0  0  0  0  0  0  0
  189.1560  177.8050  145.9700 C   0  0  0  0  0  3  0  0  0  0  0  0
  189.5140  177.9090  147.3100 C   0  0  0  0  0  3  0  0  0  0  0  0
  187.1860  178.1890  147.8640 C   0  0  0  0  0  3  0  0  0  0  0  0
  186.7780  177.9840  146.5330 C   0  0  0  0  0  3  0  0  0  0  0  0
  185.5250  179.0440  144.0340 C   0  0  0  0  0  2  0  0  0  0  0  0
  181.7870  178.7880  143.9700 C   0  0  0  0  0  3  0  0  0  0  0  0
  180.0850  178.6140  142.4250 O   0  0  0  0  0  1  0  0  0  0  0  0
  182.4400  178.6460  141.6490 C   0  0  0  0  0  0  0  0  0  0  0  0
  182.0080  178.5740  140.3560 O   0  0  0  0  0  1  0  0  0  0  0  0
  183.8370  178.7120  142.0370 C   0  0  0  0  0  0  0  0  0  0  0  0
  181.4460  178.6720  142.6940 C   0  0  0  0  0  0  0  0  0  0  0  0
  184.1180  178.9270  143.3950 C   0  0  0  0  0  0  0  0  0  0  0  0
  183.1230  178.9570  144.3130 C   0  0  0  0  0  3  0  0  0  0  0  0
  185.0400  179.6960  140.2050 O   0  0  0  0  0  1  0  0  0  0  0  0
  184.8630  178.6470  141.1070 O   0  0  0  0  0  0  0  0  0  0  0  0
  1  3  1  0  0  0  0
  2 17  1  1  0  0  0
  2  1  1  0  0  0  0
  2  3  1  0  0  0  0
  3 12  1  1  0  0  0
  4  5  1  0  0  0  0
  4 10  1  0  0  0  0
  5  8  1  0  0  0  0
  6  9  1  6  0  0  0
  6  3  1  0  0  0  0
  8  9  1  0  0  0  0
 10  7  1  6  0  0  0
 10  6  1  0  0  0  0
 12 13  2  0  0  0  0
 12 16  1  0  0  0  0
 13 14  1  0  0  0  0
 14 11  2  0  0  0  0
 15 11  1  0  0  0  0
 16 15  2  0  0  0  0
 18 25  1  0  0  0  0
 19 23  1  0  0  0  0
 20 22  2  0  0  0  0
 20 23  1  0  0  0  0
 21 20  1  0  0  0  0
 22 24  1  0  0  0  0
 23 18  2  0  0  0  0
 24 17  1  0  0  0  0
 24 25  2  0  0  0  0
 26 27  1  0  0  0  0
 27 22  1  0  0  0  0
M  END
>  <MODEL>
4

>  <REMARK>
 VINA RESULT:      -9.7      2.344      6.118
  Name = 
  5 active torsions:
  status: ('A' for Active; 'I' for Inactive)
    1  A    between atoms: C_2  and  C_6
    2  A    between atoms: C_6  and  C_17
    3  A    between atoms: C_9  and  C_15
    4  A    between atoms: C_14  and  O_19
    5  A    between atoms: C_15  and  C_18
                            x       y       z     vdW  Elec       q    Type
                         _______ _______ _______ _____ _____    ______ ____

>  <TORSDO>
F 5

$$$$
=
 OpenBabel11052413483D

 27 30  0  0  1  0  0  0  0  0999 V2000
  187.8080  176.5030  143.1270 C   0  0  0  0  0  2  0  0  0  0  0  0
  188.6880  177.7740  143.0460 C   0  0  2  0  0  3  0  0  0  0  0  0
  187.4960  177.7020  144.0380 C   0  0  2  0  0  0  0  0  0  0  0  0
  189.8980  177.1620  147.1240 C   0  0  0  0  0  2  0  0  0  0  0  0
  189.1350  177.8740  148.2130 C   0  0  0  0  0  2  0  0  0  0  0  0
  188.1070  177.6420  145.4800 C   0  0  1  0  0  3  0  0  0  0  0  0
  190.4280  176.9450  144.8930 O   0  0  0  0  0  1  0  0  0  0  0  0
  187.6290  178.0760  147.9410 C   0  0  0  0  0  2  0  0  0  0  0  0
  187.1890  177.3150  146.7040 C   0  0  0  0  0  2  0  0  0  0  0  0
  189.6250  177.6860  145.7080 C   0  0  2  0  0  3  0  0  0  0  0  0
  183.5440  179.0180  143.8730 C   0  0  0  0  0  3  0  0  0  0  0  0
  186.1780  178.2380  143.8150 C   0  0  0  0  0  0  0  0  0  0  0  0
  185.6340  178.8140  144.9750 C   0  0  0  0  0  3  0  0  0  0  0  0
  184.2920  179.1820  145.0010 C   0  0  0  0  0  3  0  0  0  0  0  0
  184.0900  178.4360  142.7190 C   0  0  0  0  0  3  0  0  0  0  0  0
  185.4140  177.9570  142.6910 C   0  0  0  0  0  3  0  0  0  0  0  0
  188.3890  178.7300  141.8450 C   0  0  0  0  0  2  0  0  0  0  0  0
  187.9570  177.3310  138.3960 C   0  0  0  0  0  3  0  0  0  0  0  0
  189.1140  176.0130  136.9000 O   0  0  0  0  0  1  0  0  0  0  0  0
  190.0750  176.4440  139.1450 C   0  0  0  0  0  0  0  0  0  0  0  0
  191.1760  175.7100  138.8070 O   0  0  0  0  0  1  0  0  0  0  0  0
  189.8940  177.0930  140.4300 C   0  0  0  0  0  0  0  0  0  0  0  0
  189.0340  176.5940  138.1570 C   0  0  0  0  0  0  0  0  0  0  0  0
  188.7770  177.9290  140.5760 C   0  0  0  0  0  0  0  0  0  0  0  0
  187.8520  178.0300  139.5920 C   0  0  0  0  0  3  0  0  0  0  0  0
  192.0370  177.6380  141.3680 O   0  0  0  0  0  1  0  0  0  0  0  0
  190.8180  176.9650  141.4550 O   0  0  0  0  0  0  0  0  0  0  0  0
  1  3  1  0  0  0  0
  2 17  1  6  0  0  0
  2  1  1  0  0  0  0
  2  3  1  0  0  0  0
  3 12  1  6  0  0  0
  3  6  1  0  0  0  0
  4  5  1  0  0  0  0
  6 10  1  0  0  0  0
  6  9  1  6  0  0  0
  8  5  1  0  0  0  0
  9  8  1  0  0  0  0
 10  7  1  6  0  0  0
 10  4  1  0  0  0  0
 11 14  1  0  0  0  0
 12 13  1  0  0  0  0
 13 14  2  0  0  0  0
 15 11  2  0  0  0  0
 16 15  1  0  0  0  0
 16 12  2  0  0  0  0
 18 25  1  0  0  0  0
 19 23  1  0  0  0  0
 20 22  2  0  0  0  0
 21 20  1  0  0  0  0
 22 24  1  0  0  0  0
 22 27  1  0  0  0  0
 23 18  2  0  0  0  0
 23 20  1  0  0  0  0
 24 17  1  0  0  0  0
 25 24  2  0  0  0  0
 26 27  1  0  0  0  0
M  END
>  <MODEL>
5

>  <REMARK>
 VINA RESULT:      -9.6      1.185      2.033
  Name = 
  5 active torsions:
  status: ('A' for Active; 'I' for Inactive)
    1  A    between atoms: C_2  and  C_6
    2  A    between atoms: C_6  and  C_17
    3  A    between atoms: C_9  and  C_15
    4  A    between atoms: C_14  and  O_19
    5  A    between atoms: C_15  and  C_18
                            x       y       z     vdW  Elec       q    Type
                         _______ _______ _______ _____ _____    ______ ____

>  <TORSDO>
F 5

$$$$
=
 OpenBabel11052413483D

 27 30  0  0  1  0  0  0  0  0999 V2000
  187.9240  176.0090  143.3170 C   0  0  0  0  0  2  0  0  0  0  0  0
  188.7600  177.2310  142.8630 C   0  0  2  0  0  3  0  0  0  0  0  0
  187.9870  177.2600  144.2090 C   0  0  2  0  0  0  0  0  0  0  0  0
  189.8000  177.2470  147.7160 C   0  0  0  0  0  2  0  0  0  0  0  0
  191.2090  176.8900  147.3130 C   0  0  0  0  0  2  0  0  0  0  0  0
  189.0600  177.2310  145.3510 C   0  0  1  0  0  3  0  0  0  0  0  0
  187.5340  177.1240  147.3200 O   0  0  0  0  0  1  0  0  0  0  0  0
  191.5580  177.1480  145.8310 C   0  0  0  0  0  2  0  0  0  0  0  0
  190.4500  177.9170  145.1340 C   0  0  0  0  0  2  0  0  0  0  0  0
  188.7150  176.7330  146.7620 C   0  0  2  0  0  3  0  0  0  0  0  0
  184.2620  179.1280  144.3090 C   0  0  0  0  0  3  0  0  0  0  0  0
  186.6910  177.8500  144.4270 C   0  0  0  0  0  0  0  0  0  0  0  0
  185.8040  177.5920  143.3680 C   0  0  0  0  0  3  0  0  0  0  0  0
  184.5880  178.2640  143.3060 C   0  0  0  0  0  3  0  0  0  0  0  0
  185.1540  179.3870  145.3610 C   0  0  0  0  0  3  0  0  0  0  0  0
  186.4350  178.8040  145.4010 C   0  0  0  0  0  3  0  0  0  0  0  0
  188.0910  178.1480  141.7880 C   0  0  0  0  0  2  0  0  0  0  0  0
  190.9030  177.0060  139.5910 C   0  0  0  0  0  3  0  0  0  0  0  0
  191.3490  176.7270  137.3460 O   0  0  0  0  0  1  0  0  0  0  0  0
  189.1650  177.6670  138.0500 C   0  0  0  0  0  0  0  0  0  0  0  0
  188.7800  177.7340  136.7410 O   0  0  0  0  0  1  0  0  0  0  0  0
  188.3300  178.0760  139.1650 C   0  0  0  0  0  0  0  0  0  0  0  0
  190.4770  177.1440  138.3420 C   0  0  0  0  0  0  0  0  0  0  0  0
  188.8100  177.8130  140.4570 C   0  0  0  0  0  0  0  0  0  0  0  0
  190.0490  177.3030  140.6460 C   0  0  0  0  0  3  0  0  0  0  0  0
  186.0910  177.9010  138.3110 O   0  0  0  0  0  1  0  0  0  0  0  0
  187.0740  178.6320  138.9770 O   0  0  0  0  0  0  0  0  0  0  0  0
  1  3  1  0  0  0  0
  2 17  1  6  0  0  0
  2  1  1  0  0  0  0
  2  3  1  0  0  0  0
  3 12  1  1  0  0  0
  3  6  1  0  0  0  0
  5  4  1  0  0  0  0
  6  9  1  1  0  0  0
  6 10  1  0  0  0  0
  8  5  1  0  0  0  0
  9  8  1  0  0  0  0
 10  7  1  1  0  0  0
 10  4  1  0  0  0  0
 11 15  1  0  0  0  0
 12 16  1  0  0  0  0
 13 12  2  0  0  0  0
 14 13  1  0  0  0  0
 14 11  2  0  0  0  0
 15 16  2  0  0  0  0
 18 25  1  0  0  0  0
 19 23  1  0  0  0  0
 20 23  1  0  0  0  0
 20 22  2  0  0  0  0
 21 20  1  0  0  0  0
 22 24  1  0  0  0  0
 23 18  2  0  0  0  0
 24 25  2  0  0  0  0
 24 17  1  0  0  0  0
 26 27  1  0  0  0  0
 27 22  1  0  0  0  0
M  END
>  <MODEL>
6

>  <REMARK>
 VINA RESULT:      -9.4      1.170      1.879
  Name = 
  5 active torsions:
  status: ('A' for Active; 'I' for Inactive)
    1  A    between atoms: C_2  and  C_6
    2  A    between atoms: C_6  and  C_17
    3  A    between atoms: C_9  and  C_15
    4  A    between atoms: C_14  and  O_19
    5  A    between atoms: C_15  and  C_18
                            x       y       z     vdW  Elec       q    Type
                         _______ _______ _______ _____ _____    ______ ____

>  <TORSDO>
F 5

$$$$
=
 OpenBabel11052413483D

 27 30  0  0  1  0  0  0  0  0999 V2000
  188.8760  175.6570  142.8430 C   0  0  0  0  0  2  0  0  0  0  0  0
  187.8030  176.7740  142.8440 C   0  0  2  0  0  3  0  0  0  0  0  0
  189.2510  177.0700  142.3680 C   0  0  2  0  0  0  0  0  0  0  0  0
  190.1480  177.4990  138.5470 C   0  0  0  0  0  2  0  0  0  0  0  0
  188.7740  177.5230  137.9280 C   0  0  0  0  0  2  0  0  0  0  0  0
  189.1800  177.3120  140.8210 C   0  0  1  0  0  3  0  0  0  0  0  0
  191.5480  176.7960  140.2360 O   0  0  0  0  0  1  0  0  0  0  0  0
  187.6210  177.8760  138.8910 C   0  0  0  0  0  2  0  0  0  0  0  0
  188.1520  178.3360  140.2360 C   0  0  0  0  0  2  0  0  0  0  0  0
  190.2370  176.7290  139.8710 C   0  0  2  0  0  3  0  0  0  0  0  0
  192.0330  178.5420  145.1000 C   0  0  0  0  0  3  0  0  0  0  0  0
  190.2970  177.6620  143.1620 C   0  0  0  0  0  0  0  0  0  0  0  0
  190.8210  176.7630  144.1060 C   0  0  0  0  0  3  0  0  0  0  0  0
  191.6800  177.2250  145.0980 C   0  0  0  0  0  3  0  0  0  0  0  0
  191.5020  179.4370  144.1590 C   0  0  0  0  0  3  0  0  0  0  0  0
  190.5510  179.0250  143.2060 C   0  0  0  0  0  3  0  0  0  0  0  0
  187.5030  177.4250  144.2340 C   0  0  0  0  0  2  0  0  0  0  0  0
  184.3700  178.5920  142.5440 C   0  0  0  0  0  3  0  0  0  0  0  0
  182.2560  179.3160  143.1140 O   0  0  0  0  0  1  0  0  0  0  0  0
  183.8870  178.7790  144.9030 C   0  0  0  0  0  0  0  0  0  0  0  0
  182.9400  179.0700  145.8430 O   0  0  0  0  0  1  0  0  0  0  0  0
  185.2340  178.3380  145.2150 C   0  0  0  0  0  0  0  0  0  0  0  0
  183.5190  178.9030  143.5140 C   0  0  0  0  0  0  0  0  0  0  0  0
  186.0440  177.9390  144.1410 C   0  0  0  0  0  0  0  0  0  0  0  0
  185.6170  178.0720  142.8630 C   0  0  0  0  0  3  0  0  0  0  0  0
  185.7620  179.3780  147.3150 O   0  0  0  0  0  1  0  0  0  0  0  0
  185.6900  178.2340  146.5200 O   0  0  0  0  0  0  0  0  0  0  0  0
  1  2  1  0  0  0  0
  2 17  1  1  0  0  0
  3  1  1  0  0  0  0
  3  2  1  0  0  0  0
  3 12  1  1  0  0  0
  4 10  1  0  0  0  0
  5  4  1  0  0  0  0
  5  8  1  0  0  0  0
  6  9  1  1  0  0  0
  6  3  1  0  0  0  0
  8  9  1  0  0  0  0
 10  7  1  1  0  0  0
 10  6  1  0  0  0  0
 12 16  2  0  0  0  0
 12 13  1  0  0  0  0
 13 14  2  0  0  0  0
 14 11  1  0  0  0  0
 15 11  2  0  0  0  0
 16 15  1  0  0  0  0
 18 25  2  0  0  0  0
 18 23  1  0  0  0  0
 19 23  1  0  0  0  0
 20 22  1  0  0  0  0
 20 21  1  0  0  0  0
 22 27  1  0  0  0  0
 23 20  2  0  0  0  0
 24 17  1  0  0  0  0
 24 22  2  0  0  0  0
 25 24  1  0  0  0  0
 27 26  1  0  0  0  0
M  END
>  <MODEL>
7

>  <REMARK>
 VINA RESULT:      -9.4      2.822      7.179
  Name = 
  5 active torsions:
  status: ('A' for Active; 'I' for Inactive)
    1  A    between atoms: C_2  and  C_6
    2  A    between atoms: C_6  and  C_17
    3  A    between atoms: C_9  and  C_15
    4  A    between atoms: C_14  and  O_19
    5  A    between atoms: C_15  and  C_18
                            x       y       z     vdW  Elec       q    Type
                         _______ _______ _______ _____ _____    ______ ____

>  <TORSDO>
F 5

$$$$
=
 OpenBabel11052413483D

 27 30  0  0  1  0  0  0  0  0999 V2000
  188.9320  178.9070  141.0730 C   0  0  0  0  0  2  0  0  0  0  0  0
  188.9500  177.3770  141.3130 C   0  0  2  0  0  3  0  0  0  0  0  0
  188.0950  177.9860  140.1690 C   0  0  2  0  0  0  0  0  0  0  0  0
  189.5820  177.9460  136.5120 C   0  0  0  0  0  2  0  0  0  0  0  0
  190.2950  176.6170  136.5030 C   0  0  0  0  0  2  0  0  0  0  0  0
  188.7680  177.5570  138.8200 C   0  0  1  0  0  3  0  0  0  0  0  0
  188.8140  179.7750  137.6820 O   0  0  0  0  0  1  0  0  0  0  0  0
  189.8230  175.6070  137.5710 C   0  0  0  0  0  2  0  0  0  0  0  0
  188.5740  176.1020  138.2790 C   0  0  0  0  0  2  0  0  0  0  0  0
  189.4420  178.5850  137.8990 C   0  0  2  0  0  3  0  0  0  0  0  0
  184.1010  179.1490  139.8990 C   0  0  0  0  0  3  0  0  0  0  0  0
  186.6870  178.2810  140.2320 C   0  0  0  0  0  0  0  0  0  0  0  0
  186.0720  178.2130  138.9700 C   0  0  0  0  0  3  0  0  0  0  0  0
  184.7710  178.6800  138.8090 C   0  0  0  0  0  3  0  0  0  0  0  0
  184.7220  179.2210  141.1560 C   0  0  0  0  0  3  0  0  0  0  0  0
  186.0700  178.8560  141.3340 C   0  0  0  0  0  3  0  0  0  0  0  0
  188.0610  176.8670  142.4940 C   0  0  0  0  0  2  0  0  0  0  0  0
  191.2530  176.6710  144.4460 C   0  0  0  0  0  3  0  0  0  0  0  0
  191.9770  176.9250  146.6200 O   0  0  0  0  0  1  0  0  0  0  0  0
  189.5610  177.1380  146.1050 C   0  0  0  0  0  0  0  0  0  0  0  0
  189.3120  177.4130  147.4190 O   0  0  0  0  0  1  0  0  0  0  0  0
  188.5380  177.0870  145.0770 C   0  0  0  0  0  0  0  0  0  0  0  0
  190.9280  176.8980  145.7120 C   0  0  0  0  0  0  0  0  0  0  0  0
  188.9670  176.9350  143.7500 C   0  0  0  0  0  0  0  0  0  0  0  0
  190.2740  176.7310  143.4630 C   0  0  0  0  0  3  0  0  0  0  0  0
  186.7140  178.5330  145.6710 O   0  0  0  0  0  1  0  0  0  0  0  0
  187.1930  177.2590  145.3680 O   0  0  0  0  0  0  0  0  0  0  0  0
  1  2  1  0  0  0  0
  2 17  1  1  0  0  0
  3 12  1  1  0  0  0
  3  1  1  0  0  0  0
  3  2  1  0  0  0  0
  4 10  1  0  0  0  0
  5  4  1  0  0  0  0
  5  8  1  0  0  0  0
  6  9  1  6  0  0  0
  6  3  1  0  0  0  0
  8  9  1  0  0  0  0
 10  7  1  6  0  0  0
 10  6  1  0  0  0  0
 11 15  1  0  0  0  0
 12 16  1  0  0  0  0
 13 12  2  0  0  0  0
 14 13  1  0  0  0  0
 14 11  2  0  0  0  0
 15 16  2  0  0  0  0
 17 24  1  0  0  0  0
 18 23  1  0  0  0  0
 20 21  1  0  0  0  0
 22 27  1  0  0  0  0
 22 20  1  0  0  0  0
 23 20  2  0  0  0  0
 23 19  1  0  0  0  0
 24 22  2  0  0  0  0
 25 24  1  0  0  0  0
 25 18  2  0  0  0  0
 27 26  1  0  0  0  0
M  END
>  <MODEL>
8

>  <REMARK>
 VINA RESULT:      -8.9      2.352      6.758
  Name = 
  5 active torsions:
  status: ('A' for Active; 'I' for Inactive)
    1  A    between atoms: C_2  and  C_6
    2  A    between atoms: C_6  and  C_17
    3  A    between atoms: C_9  and  C_15
    4  A    between atoms: C_14  and  O_19
    5  A    between atoms: C_15  and  C_18
                            x       y       z     vdW  Elec       q    Type
                         _______ _______ _______ _____ _____    ______ ____

>  <TORSDO>
F 5

$$$$
=
 OpenBabel11052413483D

 27 30  0  0  1  0  0  0  0  0999 V2000
  187.8900  176.1660  143.0850 C   0  0  0  0  0  2  0  0  0  0  0  0
  187.1740  177.4950  142.7400 C   0  0  2  0  0  3  0  0  0  0  0  0
  188.7190  177.3790  142.6290 C   0  0  2  0  0  0  0  0  0  0  0  0
  190.6070  177.2960  139.1640 C   0  0  0  0  0  2  0  0  0  0  0  0
  189.4470  177.3010  138.2010 C   0  0  0  0  0  2  0  0  0  0  0  0
  189.0710  177.4300  141.1030 C   0  0  1  0  0  3  0  0  0  0  0  0
  191.4650  176.7480  141.2300 O   0  0  0  0  0  1  0  0  0  0  0  0
  188.1120  177.8180  138.7780 C   0  0  0  0  0  2  0  0  0  0  0  0
  188.3070  178.4170  140.1590 C   0  0  0  0  0  2  0  0  0  0  0  0
  190.2930  176.6920  140.5380 C   0  0  2  0  0  3  0  0  0  0  0  0
  191.8110  178.7220  145.0810 C   0  0  0  0  0  3  0  0  0  0  0  0
  189.6710  177.8030  143.6230 C   0  0  0  0  0  0  0  0  0  0  0  0
  190.3010  179.0100  143.2750 C   0  0  0  0  0  3  0  0  0  0  0  0
  191.3990  179.4520  144.0060 C   0  0  0  0  0  3  0  0  0  0  0  0
  191.1820  177.5140  145.4200 C   0  0  0  0  0  3  0  0  0  0  0  0
  190.1360  176.9840  144.6420 C   0  0  0  0  0  3  0  0  0  0  0  0
  186.7430  178.3700  143.9620 C   0  0  0  0  0  2  0  0  0  0  0  0
  183.1850  178.6990  145.0910 C   0  0  0  0  0  3  0  0  0  0  0  0
  181.0960  179.0250  144.1730 O   0  0  0  0  0  1  0  0  0  0  0  0
  183.0660  178.8170  142.6820 C   0  0  0  0  0  0  0  0  0  0  0  0
  182.2580  179.0110  141.5980 O   0  0  0  0  0  1  0  0  0  0  0  0
  184.5000  178.6090  142.5990 C   0  0  0  0  0  0  0  0  0  0  0  0
  182.4580  178.8340  143.9890 C   0  0  0  0  0  0  0  0  0  0  0  0
  185.2140  178.5680  143.8060 C   0  0  0  0  0  0  0  0  0  0  0  0
  184.5680  178.6070  144.9950 C   0  0  0  0  0  3  0  0  0  0  0  0
  185.2570  179.6670  140.5790 O   0  0  0  0  0  1  0  0  0  0  0  0
  185.1630  178.5310  141.3840 O   0  0  0  0  0  0  0  0  0  0  0  0
  2  1  1  0  0  0  0
  2 17  1  1  0  0  0
  3  2  1  0  0  0  0
  3  1  1  0  0  0  0
  3 12  1  1  0  0  0
  4 10  1  0  0  0  0
  5  8  1  0  0  0  0
  5  4  1  0  0  0  0
  6  9  1  1  0  0  0
  6  3  1  0  0  0  0
  8  9  1  0  0  0  0
 10  6  1  0  0  0  0
 10  7  1  1  0  0  0
 11 15  1  0  0  0  0
 12 16  1  0  0  0  0
 13 12  2  0  0  0  0
 13 14  1  0  0  0  0
 14 11  2  0  0  0  0
 16 15  2  0  0  0  0
 20 23  1  0  0  0  0
 21 20  1  0  0  0  0
 22 20  2  0  0  0  0
 22 24  1  0  0  0  0
 23 19  1  0  0  0  0
 23 18  2  0  0  0  0
 24 17  1  0  0  0  0
 24 25  2  0  0  0  0
 25 18  1  0  0  0  0
 26 27  1  0  0  0  0
 27 22  1  0  0  0  0
M  END
>  <MODEL>
9

>  <REMARK>
 VINA RESULT:      -8.7      2.490      6.807
  Name = 
  5 active torsions:
  status: ('A' for Active; 'I' for Inactive)
    1  A    between atoms: C_2  and  C_6
    2  A    between atoms: C_6  and  C_17
    3  A    between atoms: C_9  and  C_15
    4  A    between atoms: C_14  and  O_19
    5  A    between atoms: C_15  and  C_18
                            x       y       z     vdW  Elec       q    Type
                         _______ _______ _______ _____ _____    ______ ____

>  <TORSDO>
F 5

$$$$
