=
 OpenBabel11052416023D

 34 39  0  0  1  0  0  0  0  0999 V2000
  184.3160  178.9510  141.4500 N   0  0  0  0  0  0  0  0  0  0  0  0
  184.5320  178.5930  143.9310 C   0  0  0  0  0  0  0  0  0  0  0  0
  182.2840  179.6680  143.3140 C   0  0  0  0  0  2  0  0  0  0  0  0
  184.9420  179.5140  140.3870 O   0  0  0  0  0  1  0  0  0  0  0  0
  182.6950  177.5490  140.2000 C   0  0  0  0  0  0  0  0  0  0  0  0
  180.3890  177.4220  140.9430 C   0  0  0  0  0  3  0  0  0  0  0  0
  181.3960  177.0550  140.0470 C   0  0  0  0  0  3  0  0  0  0  0  0
  181.9760  178.7770  142.1680 C   0  0  0  0  0  0  0  0  0  0  0  0
  182.9910  178.4270  141.2670 C   0  0  0  0  0  0  0  0  0  0  0  0
  180.6810  178.2780  142.0050 C   0  0  0  0  0  3  0  0  0  0  0  0
  185.3350  178.1940  145.0050 C   0  0  0  0  0  3  0  0  0  0  0  0
  186.6760  177.8610  144.8120 C   0  0  0  0  0  0  0  0  0  0  0  0
  187.2340  177.9320  143.5380 C   0  0  0  0  0  3  0  0  0  0  0  0
  183.1860  178.9890  144.2320 N   0  0  0  0  0  2  0  0  0  0  0  0
  186.4440  178.3150  142.4530 C   0  0  0  0  0  3  0  0  0  0  0  0
  185.0890  178.6350  142.6230 C   0  0  0  0  0  0  0  0  0  0  0  0
  187.4960  177.4500  145.9460 C   0  0  0  0  0  0  0  0  0  0  0  0
  187.6040  177.1350  147.2630 O   0  0  0  0  0  0  0  0  0  0  0  0
  188.6830  177.1090  146.4450 N   0  0  0  0  0  0  0  0  0  0  0  0
  183.7510  177.0610  139.2540 C   0  0  0  0  0  2  0  0  0  0  0  0
  183.5110  177.5630  137.8320 C   0  0  0  0  0  2  0  0  0  0  0  0
  184.7600  177.4800  135.8910 N   0  0  0  0  0  0  0  0  0  0  0  0
  185.1300  175.8840  137.5450 C   0  0  0  0  0  2  0  0  0  0  0  0
  188.3850  177.7290  136.9590 C   0  0  2  0  0  3  0  0  0  0  0  0
  188.1770  176.6410  137.9210 N   0  0  0  0  0  0  0  0  0  0  0  0
  187.0390  178.2370  136.4520 C   0  0  1  0  0  3  0  0  0  0  0  0
  189.3920  176.2770  138.3960 O   0  0  0  0  0  1  0  0  0  0  0  0
  186.1750  177.1030  135.8500 C   0  0  1  0  0  3  0  0  0  0  0  0
  189.1930  177.3230  135.8890 O   0  0  0  0  0  1  0  0  0  0  0  0
  187.6180  175.4760  137.2400 C   0  0  0  0  0  2  0  0  0  0  0  0
  186.2680  175.7850  136.5880 C   0  0  1  0  0  3  0  0  0  0  0  0
  186.3760  178.8910  137.4930 O   0  0  0  0  0  1  0  0  0  0  0  0
  184.1100  176.6680  136.8510 N   0  0  0  0  0  0  0  0  0  0  0  0
  184.1880  177.1500  134.5940 C   0  0  0  0  0  1  0  0  0  0  0  0
  1 16  1  0  0  0  0
  2 14  1  0  0  0  0
  2 11  1  0  0  0  0
  3 14  1  0  0  0  0
  4  1  1  0  0  0  0
  5  9  1  0  0  0  0
  6 10  2  0  0  0  0
  7  5  2  0  0  0  0
  7  6  1  0  0  0  0
  8  3  1  0  0  0  0
  9  1  1  0  0  0  0
  9  8  2  0  0  0  0
 10  8  1  0  0  0  0
 12 11  2  0  0  0  0
 12 17  1  0  0  0  0
 13 12  1  0  0  0  0
 15 16  1  0  0  0  0
 15 13  2  0  0  0  0
 16  2  2  0  0  0  0
 17 19  2  0  0  0  0
 17 18  1  0  0  0  0
 19 18  1  0  0  0  0
 20  5  1  0  0  0  0
 21 20  1  0  0  0  0
 22 33  1  0  0  0  0
 24 29  1  6  0  0  0
 24 25  1  0  0  0  0
 25 27  1  0  0  0  0
 26 24  1  0  0  0  0
 26 32  1  1  0  0  0
 28 22  1  1  0  0  0
 28 26  1  0  0  0  0
 28 31  1  0  0  0  0
 30 25  1  0  0  0  0
 31 30  1  1  0  0  0
 31 23  1  0  0  0  0
 33 23  1  0  0  0  0
 33 21  1  0  0  0  0
 34 22  1  0  0  0  0
M  END
>  <MODEL>
1

>  <REMARK>
 VINA RESULT:      -7.9      0.000      0.000
  Name = 
  4 active torsions:
  status: ('A' for Active; 'I' for Inactive)
    1  A    between atoms: C_3  and  C_25
    2  A    between atoms: C_8  and  C_10
    3  A    between atoms: C_8  and  C_18
    4  A    between atoms: C_18  and  N_30
                            x       y       z     vdW  Elec       q    Type
                         _______ _______ _______ _____ _____    ______ ____

>  <TORSDO>
F 4

$$$$
=
 OpenBabel11052416023D

 34 39  0  0  1  0  0  0  0  0999 V2000
  184.1260  179.2060  140.2110 N   0  0  0  0  0  0  0  0  0  0  0  0
  184.5530  178.3590  142.5410 C   0  0  0  0  0  0  0  0  0  0  0  0
  182.0990  179.0360  142.2070 C   0  0  0  0  0  2  0  0  0  0  0  0
  184.5600  180.1120  139.3010 O   0  0  0  0  0  1  0  0  0  0  0  0
  182.7620  177.8030  138.6860 C   0  0  0  0  0  0  0  0  0  0  0  0
  180.5780  177.0220  139.3980 C   0  0  0  0  0  3  0  0  0  0  0  0
  181.5860  177.0890  138.4340 C   0  0  0  0  0  3  0  0  0  0  0  0
  181.9170  178.3780  140.8890 C   0  0  0  0  0  0  0  0  0  0  0  0
  182.9300  178.4640  139.9240 C   0  0  0  0  0  0  0  0  0  0  0  0
  180.7460  177.6620  140.6260 C   0  0  0  0  0  3  0  0  0  0  0  0
  185.4820  177.9130  143.4880 C   0  0  0  0  0  3  0  0  0  0  0  0
  186.8490  177.9270  143.2130 C   0  0  0  0  0  0  0  0  0  0  0  0
  187.3060  178.3980  141.9840 C   0  0  0  0  0  3  0  0  0  0  0  0
  183.1730  178.3800  142.9360 N   0  0  0  0  0  2  0  0  0  0  0  0
  186.3930  178.8340  141.0230 C   0  0  0  0  0  3  0  0  0  0  0  0
  185.0130  178.8100  141.2740 C   0  0  0  0  0  0  0  0  0  0  0  0
  187.8000  177.4590  144.2140 C   0  0  0  0  0  0  0  0  0  0  0  0
  188.8740  176.6960  144.5470 O   0  0  0  0  0  0  0  0  0  0  0  0
  188.2490  177.4670  145.4680 N   0  0  0  0  0  0  0  0  0  0  0  0
  183.8390  177.7770  137.6440 C   0  0  0  0  0  2  0  0  0  0  0  0
  184.8440  176.6550  137.8990 C   0  0  0  0  0  2  0  0  0  0  0  0
  186.1480  177.1860  136.0680 N   0  0  0  0  0  0  0  0  0  0  0  0
  186.2980  175.0510  136.9840 C   0  0  0  0  0  2  0  0  0  0  0  0
  189.7390  176.6280  137.1350 C   0  0  2  0  0  3  0  0  0  0  0  0
  189.3900  175.2840  137.6080 N   0  0  0  0  0  0  0  0  0  0  0  0
  188.4690  177.4280  136.8660 C   0  0  1  0  0  3  0  0  0  0  0  0
  190.5450  174.6410  137.9030 O   0  0  0  0  0  1  0  0  0  0  0  0
  187.5190  176.7070  135.8800 C   0  0  1  0  0  3  0  0  0  0  0  0
  190.5410  176.5770  135.9870 O   0  0  0  0  0  1  0  0  0  0  0  0
  188.7440  174.5310  136.5360 C   0  0  0  0  0  2  0  0  0  0  0  0
  187.4550  175.2050  136.0570 C   0  0  1  0  0  3  0  0  0  0  0  0
  187.8360  177.7030  138.0810 O   0  0  0  0  0  1  0  0  0  0  0  0
  185.3860  176.1430  136.6470 N   0  0  0  0  0  0  0  0  0  0  0  0
  185.5930  177.4370  134.7460 C   0  0  0  0  0  1  0  0  0  0  0  0
  1 16  1  0  0  0  0
  2 14  1  0  0  0  0
  2 11  1  0  0  0  0
  3 14  1  0  0  0  0
  4  1  1  0  0  0  0
  5  9  1  0  0  0  0
  6 10  2  0  0  0  0
  7  5  2  0  0  0  0
  7  6  1  0  0  0  0
  8  3  1  0  0  0  0
  9  1  1  0  0  0  0
  9  8  2  0  0  0  0
 10  8  1  0  0  0  0
 12 11  2  0  0  0  0
 12 17  1  0  0  0  0
 13 12  1  0  0  0  0
 15 16  1  0  0  0  0
 15 13  2  0  0  0  0
 16  2  2  0  0  0  0
 17 18  1  0  0  0  0
 17 19  2  0  0  0  0
 18 19  1  0  0  0  0
 20 21  1  0  0  0  0
 20  5  1  0  0  0  0
 22 33  1  0  0  0  0
 24 29  1  6  0  0  0
 24 25  1  0  0  0  0
 25 27  1  0  0  0  0
 26 24  1  0  0  0  0
 26 32  1  1  0  0  0
 28 31  1  0  0  0  0
 28 22  1  1  0  0  0
 28 26  1  0  0  0  0
 30 25  1  0  0  0  0
 31 30  1  1  0  0  0
 31 23  1  0  0  0  0
 33 23  1  0  0  0  0
 33 21  1  0  0  0  0
 34 22  1  0  0  0  0
M  END
>  <MODEL>
2

>  <REMARK>
 VINA RESULT:      -7.7      1.367      1.614
  Name = 
  4 active torsions:
  status: ('A' for Active; 'I' for Inactive)
    1  A    between atoms: C_3  and  C_25
    2  A    between atoms: C_8  and  C_10
    3  A    between atoms: C_8  and  C_18
    4  A    between atoms: C_18  and  N_30
                            x       y       z     vdW  Elec       q    Type
                         _______ _______ _______ _____ _____    ______ ____

>  <TORSDO>
F 4

$$$$
=
 OpenBabel11052416023D

 34 39  0  0  1  0  0  0  0  0999 V2000
  182.6810  178.5100  140.7700 N   0  0  0  0  0  0  0  0  0  0  0  0
  182.5780  178.9440  143.2460 C   0  0  0  0  0  0  0  0  0  0  0  0
  180.3810  179.5720  142.0750 C   0  0  0  0  0  2  0  0  0  0  0  0
  183.4150  178.7780  139.6620 O   0  0  0  0  0  1  0  0  0  0  0  0
  181.3180  176.6530  139.8480 C   0  0  0  0  0  0  0  0  0  0  0  0
  178.9420  176.5500  140.3290 C   0  0  0  0  0  3  0  0  0  0  0  0
  180.0780  176.0210  139.7120 C   0  0  0  0  0  3  0  0  0  0  0  0
  180.2770  178.3510  141.2390 C   0  0  0  0  0  0  0  0  0  0  0  0
  181.4210  177.8380  140.6130 C   0  0  0  0  0  0  0  0  0  0  0  0
  179.0430  177.7110  141.0950 C   0  0  0  0  0  3  0  0  0  0  0  0
  183.2490  178.9650  144.4740 C   0  0  0  0  0  3  0  0  0  0  0  0
  184.6190  178.7130  144.5470 C   0  0  0  0  0  0  0  0  0  0  0  0
  185.3390  178.4440  143.3860 C   0  0  0  0  0  3  0  0  0  0  0  0
  181.1850  179.2900  143.2550 N   0  0  0  0  0  2  0  0  0  0  0  0
  184.6840  178.4050  142.1540 C   0  0  0  0  0  3  0  0  0  0  0  0
  183.3040  178.6370  142.0620 C   0  0  0  0  0  0  0  0  0  0  0  0
  185.2980  178.7420  145.8370 C   0  0  0  0  0  0  0  0  0  0  0  0
  185.6240  179.4050  146.9770 O   0  0  0  0  0  0  0  0  0  0  0  0
  186.0500  178.1390  146.7550 N   0  0  0  0  0  0  0  0  0  0  0  0
  182.5150  175.9990  139.2280 C   0  0  0  0  0  2  0  0  0  0  0  0
  182.4360  176.0070  137.7020 C   0  0  0  0  0  2  0  0  0  0  0  0
  183.2010  174.9760  135.7820 N   0  0  0  0  0  0  0  0  0  0  0  0
  184.1460  174.4000  137.8310 C   0  0  0  0  0  2  0  0  0  0  0  0
  186.9120  175.7100  135.5990 C   0  0  2  0  0  3  0  0  0  0  0  0
  187.0740  175.2370  136.9780 N   0  0  0  0  0  0  0  0  0  0  0  0
  185.4320  175.9050  135.2900 C   0  0  1  0  0  3  0  0  0  0  0  0
  188.4020  175.1510  137.2280 O   0  0  0  0  0  1  0  0  0  0  0  0
  184.6040  174.6240  135.5520 C   0  0  1  0  0  3  0  0  0  0  0  0
  187.4950  174.8280  134.6810 O   0  0  0  0  0  1  0  0  0  0  0  0
  186.5270  173.8890  137.1090 C   0  0  0  0  0  2  0  0  0  0  0  0
  185.0340  173.8390  136.7730 C   0  0  1  0  0  3  0  0  0  0  0  0
  184.9490  176.9890  136.0280 O   0  0  0  0  0  1  0  0  0  0  0  0
  182.9010  174.7430  137.1460 N   0  0  0  0  0  0  0  0  0  0  0  0
  182.3910  174.0510  135.0030 C   0  0  0  0  0  1  0  0  0  0  0  0
  1 16  1  0  0  0  0
  2 14  1  0  0  0  0
  2 11  1  0  0  0  0
  3 14  1  0  0  0  0
  4  1  1  0  0  0  0
  5  9  1  0  0  0  0
  6 10  2  0  0  0  0
  7  5  2  0  0  0  0
  7  6  1  0  0  0  0
  8  3  1  0  0  0  0
  9  1  1  0  0  0  0
  9  8  2  0  0  0  0
 10  8  1  0  0  0  0
 11 12  2  0  0  0  0
 12 17  1  0  0  0  0
 13 12  1  0  0  0  0
 15 13  2  0  0  0  0
 16 15  1  0  0  0  0
 16  2  2  0  0  0  0
 17 19  2  0  0  0  0
 17 18  1  0  0  0  0
 19 18  1  0  0  0  0
 20  5  1  0  0  0  0
 21 20  1  0  0  0  0
 22 33  1  0  0  0  0
 24 29  1  6  0  0  0
 24 25  1  0  0  0  0
 25 30  1  0  0  0  0
 25 27  1  0  0  0  0
 26 28  1  0  0  0  0
 26 24  1  0  0  0  0
 26 32  1  1  0  0  0
 28 22  1  1  0  0  0
 28 31  1  0  0  0  0
 31 30  1  1  0  0  0
 31 23  1  0  0  0  0
 33 21  1  0  0  0  0
 33 23  1  0  0  0  0
 34 22  1  0  0  0  0
M  END
>  <MODEL>
3

>  <REMARK>
 VINA RESULT:      -7.6      1.919      2.324
  Name = 
  4 active torsions:
  status: ('A' for Active; 'I' for Inactive)
    1  A    between atoms: C_3  and  C_25
    2  A    between atoms: C_8  and  C_10
    3  A    between atoms: C_8  and  C_18
    4  A    between atoms: C_18  and  N_30
                            x       y       z     vdW  Elec       q    Type
                         _______ _______ _______ _____ _____    ______ ____

>  <TORSDO>
F 4

$$$$
=
 OpenBabel11052416023D

 34 39  0  0  1  0  0  0  0  0999 V2000
  187.6210  178.4910  139.1920 N   0  0  0  0  0  0  0  0  0  0  0  0
  186.6040  178.3370  141.4880 C   0  0  0  0  0  0  0  0  0  0  0  0
  184.9320  179.2420  139.7640 C   0  0  0  0  0  2  0  0  0  0  0  0
  188.6810  179.0030  138.5180 O   0  0  0  0  0  1  0  0  0  0  0  0
  186.8260  176.9150  137.4500 C   0  0  0  0  0  0  0  0  0  0  0  0
  184.4510  176.7250  136.9910 C   0  0  0  0  0  3  0  0  0  0  0  0
  185.7690  176.3430  136.7330 C   0  0  0  0  0  3  0  0  0  0  0  0
  185.2290  178.2510  138.7000 C   0  0  0  0  0  0  0  0  0  0  0  0
  186.5570  177.8870  138.4400 C   0  0  0  0  0  0  0  0  0  0  0  0
  184.1810  177.6750  137.9770 C   0  0  0  0  0  3  0  0  0  0  0  0
  186.7870  178.0640  142.8490 C   0  0  0  0  0  3  0  0  0  0  0  0
  188.0540  177.7880  143.3610 C   0  0  0  0  0  0  0  0  0  0  0  0
  189.1620  177.7900  142.5160 C   0  0  0  0  0  3  0  0  0  0  0  0
  185.2790  178.6840  141.0620 N   0  0  0  0  0  2  0  0  0  0  0  0
  188.9960  178.0470  141.1540 C   0  0  0  0  0  3  0  0  0  0  0  0
  187.7270  178.3070  140.6160 C   0  0  0  0  0  0  0  0  0  0  0  0
  188.2220  177.5080  144.7820 C   0  0  0  0  0  0  0  0  0  0  0  0
  188.9940  177.0600  145.8070 O   0  0  0  0  0  0  0  0  0  0  0  0
  187.7320  177.5050  146.0200 N   0  0  0  0  0  0  0  0  0  0  0  0
  188.2120  176.4120  137.1830 C   0  0  0  0  0  2  0  0  0  0  0  0
  188.2250  175.3420  136.0930 C   0  0  0  0  0  2  0  0  0  0  0  0
  189.8860  173.9590  135.2780 N   0  0  0  0  0  0  0  0  0  0  0  0
  190.0450  174.7560  137.4600 C   0  0  0  0  0  2  0  0  0  0  0  0
  193.1190  175.9100  135.5730 C   0  0  2  0  0  3  0  0  0  0  0  0
  192.8210  176.1930  136.9810 N   0  0  0  0  0  0  0  0  0  0  0  0
  191.8770  175.3600  134.8810 C   0  0  1  0  0  3  0  0  0  0  0  0
  193.9270  176.7470  137.5310 O   0  0  0  0  0  1  0  0  0  0  0  0
  191.3060  174.1160  135.6030 C   0  0  1  0  0  3  0  0  0  0  0  0
  194.1910  175.0160  135.4450 O   0  0  0  0  0  1  0  0  0  0  0  0
  192.5670  174.9450  137.6970 C   0  0  0  0  0  2  0  0  0  0  0  0
  191.3760  174.1810  137.1130 C   0  0  1  0  0  3  0  0  0  0  0  0
  190.9240  176.3760  134.7770 O   0  0  0  0  0  1  0  0  0  0  0  0
  189.1290  174.2530  136.4380 N   0  0  0  0  0  0  0  0  0  0  0  0
  189.6670  172.5550  134.9680 C   0  0  0  0  0  1  0  0  0  0  0  0
  1 16  1  0  0  0  0
  2 11  1  0  0  0  0
  3 14  1  0  0  0  0
  4  1  1  0  0  0  0
  5  9  1  0  0  0  0
  6 10  2  0  0  0  0
  7  6  1  0  0  0  0
  7  5  2  0  0  0  0
  8  3  1  0  0  0  0
  9  8  2  0  0  0  0
  9  1  1  0  0  0  0
 10  8  1  0  0  0  0
 11 12  2  0  0  0  0
 12 17  1  0  0  0  0
 13 12  1  0  0  0  0
 14  2  1  0  0  0  0
 15 13  2  0  0  0  0
 16 15  1  0  0  0  0
 16  2  2  0  0  0  0
 17 18  1  0  0  0  0
 17 19  2  0  0  0  0
 18 19  1  0  0  0  0
 20  5  1  0  0  0  0
 21 33  1  0  0  0  0
 21 20  1  0  0  0  0
 22 33  1  0  0  0  0
 24 29  1  1  0  0  0
 24 25  1  0  0  0  0
 25 27  1  0  0  0  0
 25 30  1  0  0  0  0
 26 32  1  1  0  0  0
 26 24  1  0  0  0  0
 26 28  1  0  0  0  0
 28 22  1  1  0  0  0
 28 31  1  0  0  0  0
 31 23  1  6  0  0  0
 31 30  1  0  0  0  0
 33 23  1  0  0  0  0
 34 22  1  0  0  0  0
M  END
>  <MODEL>
4

>  <REMARK>
 VINA RESULT:      -7.5      2.977      4.677
  Name = 
  4 active torsions:
  status: ('A' for Active; 'I' for Inactive)
    1  A    between atoms: C_3  and  C_25
    2  A    between atoms: C_8  and  C_10
    3  A    between atoms: C_8  and  C_18
    4  A    between atoms: C_18  and  N_30
                            x       y       z     vdW  Elec       q    Type
                         _______ _______ _______ _____ _____    ______ ____

>  <TORSDO>
F 4

$$$$
=
 OpenBabel11052416023D

 34 39  0  0  1  0  0  0  0  0999 V2000
  188.0200  177.7210  137.4850 N   0  0  0  0  0  0  0  0  0  0  0  0
  187.4670  175.4810  136.4830 C   0  0  0  0  0  0  0  0  0  0  0  0
  189.8620  176.2120  135.9190 C   0  0  0  0  0  2  0  0  0  0  0  0
  187.5850  179.0030  137.5580 O   0  0  0  0  0  1  0  0  0  0  0  0
  189.6500  177.7980  139.3540 C   0  0  0  0  0  0  0  0  0  0  0  0
  191.8250  176.7530  139.0990 C   0  0  0  0  0  3  0  0  0  0  0  0
  190.9090  177.4720  139.8700 C   0  0  0  0  0  3  0  0  0  0  0  0
  190.2280  176.6680  137.2830 C   0  0  0  0  0  0  0  0  0  0  0  0
  189.3050  177.4000  138.0420 C   0  0  0  0  0  0  0  0  0  0  0  0
  191.4830  176.3480  137.8090 C   0  0  0  0  0  3  0  0  0  0  0  0
  186.5030  174.4940  136.2480 C   0  0  0  0  0  3  0  0  0  0  0  0
  185.1720  174.6890  136.6160 C   0  0  0  0  0  0  0  0  0  0  0  0
  184.7850  175.8830  137.2190 C   0  0  0  0  0  3  0  0  0  0  0  0
  188.7950  175.2270  136.0030 N   0  0  0  0  0  2  0  0  0  0  0  0
  185.7350  176.8730  137.4730 C   0  0  0  0  0  3  0  0  0  0  0  0
  187.0820  176.6880  137.1280 C   0  0  0  0  0  0  0  0  0  0  0  0
  184.1840  173.6470  136.3610 C   0  0  0  0  0  0  0  0  0  0  0  0
  183.4850  172.5620  136.7870 O   0  0  0  0  0  0  0  0  0  0  0  0
  183.3090  173.0670  135.5420 N   0  0  0  0  0  0  0  0  0  0  0  0
  188.6810  178.5030  140.2540 C   0  0  0  0  0  2  0  0  0  0  0  0
  189.1130  178.4330  141.7170 C   0  0  0  0  0  2  0  0  0  0  0  0
  189.7150  176.8030  143.2390 N   0  0  0  0  0  0  0  0  0  0  0  0
  187.4830  177.4470  143.0920 C   0  0  0  0  0  2  0  0  0  0  0  0
  188.6490  178.0910  146.6370 C   0  0  2  0  0  3  0  0  0  0  0  0
  187.3040  178.3560  146.1160 N   0  0  0  0  0  0  0  0  0  0  0  0
  189.6080  177.8210  145.4840 C   0  0  1  0  0  3  0  0  0  0  0  0
  186.5100  178.6630  147.1690 O   0  0  0  0  0  1  0  0  0  0  0  0
  189.1160  176.6720  144.5690 C   0  0  1  0  0  3  0  0  0  0  0  0
  188.6490  177.0190  147.5390 O   0  0  0  0  0  1  0  0  0  0  0  0
  186.7590  177.1450  145.5080 C   0  0  0  0  0  2  0  0  0  0  0  0
  187.6200  176.6490  144.3440 C   0  0  1  0  0  3  0  0  0  0  0  0
  189.8030  179.0030  144.7640 O   0  0  0  0  0  1  0  0  0  0  0  0
  188.6980  177.1770  142.3270 N   0  0  0  0  0  0  0  0  0  0  0  0
  190.1800  175.4820  142.8430 C   0  0  0  0  0  1  0  0  0  0  0  0
  1  4  1  0  0  0  0
  1  9  1  0  0  0  0
  2 16  1  0  0  0  0
  3 14  1  0  0  0  0
  3  8  1  0  0  0  0
  5  7  1  0  0  0  0
  5 20  1  0  0  0  0
  6  7  2  0  0  0  0
  8 10  2  0  0  0  0
  8  9  1  0  0  0  0
  9  5  2  0  0  0  0
 10  6  1  0  0  0  0
 11  2  2  0  0  0  0
 11 12  1  0  0  0  0
 12 13  2  0  0  0  0
 13 15  1  0  0  0  0
 14  2  1  0  0  0  0
 16 15  2  0  0  0  0
 16  1  1  0  0  0  0
 17 12  1  0  0  0  0
 17 18  1  0  0  0  0
 19 17  2  0  0  0  0
 19 18  1  0  0  0  0
 20 21  1  0  0  0  0
 21 33  1  0  0  0  0
 24 29  1  1  0  0  0
 25 24  1  0  0  0  0
 25 27  1  0  0  0  0
 26 32  1  6  0  0  0
 26 24  1  0  0  0  0
 28 22  1  6  0  0  0
 28 26  1  0  0  0  0
 30 25  1  0  0  0  0
 31 23  1  6  0  0  0
 31 28  1  0  0  0  0
 31 30  1  0  0  0  0
 33 23  1  0  0  0  0
 33 22  1  0  0  0  0
 34 22  1  0  0  0  0
M  END
>  <MODEL>
5

>  <REMARK>
 VINA RESULT:      -7.4      3.328      8.990
  Name = 
  4 active torsions:
  status: ('A' for Active; 'I' for Inactive)
    1  A    between atoms: C_3  and  C_25
    2  A    between atoms: C_8  and  C_10
    3  A    between atoms: C_8  and  C_18
    4  A    between atoms: C_18  and  N_30
                            x       y       z     vdW  Elec       q    Type
                         _______ _______ _______ _____ _____    ______ ____

>  <TORSDO>
F 4

$$$$
=
 OpenBabel11052416023D

 34 39  0  0  1  0  0  0  0  0999 V2000
  182.7350  178.4710  140.5800 N   0  0  0  0  0  0  0  0  0  0  0  0
  180.8070  180.0820  140.4630 C   0  0  0  0  0  0  0  0  0  0  0  0
  180.7210  178.6460  142.5890 C   0  0  0  0  0  2  0  0  0  0  0  0
  183.3650  177.4970  139.8790 O   0  0  0  0  0  1  0  0  0  0  0  0
  184.4920  178.8670  142.2860 C   0  0  0  0  0  0  0  0  0  0  0  0
  183.8680  179.1530  144.6130 C   0  0  0  0  0  3  0  0  0  0  0  0
  184.8480  179.0900  143.6200 C   0  0  0  0  0  3  0  0  0  0  0  0
  182.1560  178.7800  142.9450 C   0  0  0  0  0  0  0  0  0  0  0  0
  183.1310  178.7020  141.9410 C   0  0  0  0  0  0  0  0  0  0  0  0
  182.5230  179.0030  144.2740 C   0  0  0  0  0  3  0  0  0  0  0  0
  180.1160  181.0520  139.7270 C   0  0  0  0  0  3  0  0  0  0  0  0
  180.4850  181.3550  138.4160 C   0  0  0  0  0  0  0  0  0  0  0  0
  181.5500  180.6830  137.8210 C   0  0  0  0  0  3  0  0  0  0  0  0
  180.3120  179.7810  141.7760 N   0  0  0  0  0  2  0  0  0  0  0  0
  182.2590  179.7240  138.5450 C   0  0  0  0  0  3  0  0  0  0  0  0
  181.9150  179.4180  139.8700 C   0  0  0  0  0  0  0  0  0  0  0  0
  179.7500  182.3670  137.6670 C   0  0  0  0  0  0  0  0  0  0  0  0
  178.9310  182.6990  136.6340 O   0  0  0  0  0  0  0  0  0  0  0  0
  179.3930  183.6380  137.4940 N   0  0  0  0  0  0  0  0  0  0  0  0
  185.5780  178.8850  141.2540 C   0  0  0  0  0  2  0  0  0  0  0  0
  186.9650  178.9250  141.8930 C   0  0  0  0  0  2  0  0  0  0  0  0
  188.9620  177.8690  141.4120 N   0  0  0  0  0  0  0  0  0  0  0  0
  187.6380  177.0530  143.1440 C   0  0  0  0  0  2  0  0  0  0  0  0
  191.0090  177.9860  144.5960 C   0  0  2  0  0  3  0  0  0  0  0  0
  189.8760  177.4300  145.3450 N   0  0  0  0  0  0  0  0  0  0  0  0
  190.5450  178.4370  143.2160 C   0  0  1  0  0  3  0  0  0  0  0  0
  190.3210  177.1150  146.5850 O   0  0  0  0  0  1  0  0  0  0  0  0
  189.8470  177.3000  142.4310 C   0  0  1  0  0  3  0  0  0  0  0  0
  192.0560  177.0610  144.4860 O   0  0  0  0  0  1  0  0  0  0  0  0
  189.4300  176.1870  144.7230 C   0  0  0  0  0  2  0  0  0  0  0  0
  188.9720  176.4010  143.2770 C   0  0  1  0  0  3  0  0  0  0  0  0
  189.7140  179.5520  143.3550 O   0  0  0  0  0  1  0  0  0  0  0  0
  187.6220  177.6280  141.8010 N   0  0  0  0  0  0  0  0  0  0  0  0
  189.1900  177.1280  140.1810 C   0  0  0  0  0  1  0  0  0  0  0  0
  1  9  1  0  0  0  0
  2 14  1  0  0  0  0
  3  8  1  0  0  0  0
  4  1  1  0  0  0  0
  5  7  1  0  0  0  0
  7  6  2  0  0  0  0
  8 10  2  0  0  0  0
  9  5  2  0  0  0  0
  9  8  1  0  0  0  0
 10  6  1  0  0  0  0
 11  2  2  0  0  0  0
 12 11  1  0  0  0  0
 13 12  2  0  0  0  0
 13 15  1  0  0  0  0
 14  3  1  0  0  0  0
 15 16  2  0  0  0  0
 16  2  1  0  0  0  0
 16  1  1  0  0  0  0
 17 12  1  0  0  0  0
 18 19  1  0  0  0  0
 18 17  1  0  0  0  0
 19 17  2  0  0  0  0
 20 21  1  0  0  0  0
 20  5  1  0  0  0  0
 22 33  1  0  0  0  0
 24 29  1  6  0  0  0
 24 25  1  0  0  0  0
 25 27  1  0  0  0  0
 26 32  1  1  0  0  0
 26 24  1  0  0  0  0
 28 22  1  6  0  0  0
 28 26  1  0  0  0  0
 28 31  1  0  0  0  0
 30 25  1  0  0  0  0
 31 23  1  1  0  0  0
 31 30  1  0  0  0  0
 33 21  1  0  0  0  0
 33 23  1  0  0  0  0
 34 22  1  0  0  0  0
M  END
>  <MODEL>
6

>  <REMARK>
 VINA RESULT:      -7.2      3.457      7.206
  Name = 
  4 active torsions:
  status: ('A' for Active; 'I' for Inactive)
    1  A    between atoms: C_3  and  C_25
    2  A    between atoms: C_8  and  C_10
    3  A    between atoms: C_8  and  C_18
    4  A    between atoms: C_18  and  N_30
                            x       y       z     vdW  Elec       q    Type
                         _______ _______ _______ _____ _____    ______ ____

>  <TORSDO>
F 4

$$$$
=
 OpenBabel11052416023D

 34 39  0  0  1  0  0  0  0  0999 V2000
  183.9670  179.0390  140.9490 N   0  0  0  0  0  0  0  0  0  0  0  0
  184.4410  178.5070  143.3620 C   0  0  0  0  0  0  0  0  0  0  0  0
  182.0580  179.4020  143.0320 C   0  0  0  0  0  2  0  0  0  0  0  0
  184.4400  179.7430  139.8910 O   0  0  0  0  0  1  0  0  0  0  0  0
  182.3730  177.5890  139.7210 C   0  0  0  0  0  0  0  0  0  0  0  0
  180.1650  177.1780  140.6400 C   0  0  0  0  0  3  0  0  0  0  0  0
  181.1140  176.9840  139.6340 C   0  0  0  0  0  3  0  0  0  0  0  0
  181.7280  178.5800  141.8420 C   0  0  0  0  0  0  0  0  0  0  0  0
  182.6840  178.4040  140.8330 C   0  0  0  0  0  0  0  0  0  0  0  0
  180.4740  177.9710  141.7450 C   0  0  0  0  0  3  0  0  0  0  0  0
  185.3730  178.1050  144.3260 C   0  0  0  0  0  3  0  0  0  0  0  0
  186.7150  177.9210  143.9930 C   0  0  0  0  0  0  0  0  0  0  0  0
  187.1450  178.1480  142.6870 C   0  0  0  0  0  3  0  0  0  0  0  0
  183.0980  178.7450  143.8080 N   0  0  0  0  0  2  0  0  0  0  0  0
  186.2270  178.5360  141.7110 C   0  0  0  0  0  3  0  0  0  0  0  0
  184.8700  178.7070  142.0210 C   0  0  0  0  0  0  0  0  0  0  0  0
  187.6690  177.5030  145.0130 C   0  0  0  0  0  0  0  0  0  0  0  0
  187.9490  177.2200  146.3120 O   0  0  0  0  0  0  0  0  0  0  0  0
  188.8980  177.1210  145.3520 N   0  0  0  0  0  0  0  0  0  0  0  0
  183.3770  177.2840  138.6510 C   0  0  0  0  0  2  0  0  0  0  0  0
  183.4370  175.7890  138.3420 C   0  0  0  0  0  2  0  0  0  0  0  0
  184.2570  175.3730  136.2230 N   0  0  0  0  0  0  0  0  0  0  0  0
  182.3540  174.2420  136.9430 C   0  0  0  0  0  2  0  0  0  0  0  0
  184.9870  171.6590  136.0860 C   0  0  2  0  0  3  0  0  0  0  0  0
  183.6360  171.3750  136.5800 N   0  0  0  0  0  0  0  0  0  0  0  0
  185.3040  173.1400  136.2660 C   0  0  1  0  0  3  0  0  0  0  0  0
  183.4320  170.0410  136.4680 O   0  0  0  0  0  1  0  0  0  0  0  0
  184.2490  174.0510  135.5930 C   0  0  1  0  0  3  0  0  0  0  0  0
  185.1350  171.2840  134.7440 O   0  0  0  0  0  1  0  0  0  0  0  0
  182.6470  172.0310  135.7280 C   0  0  0  0  0  2  0  0  0  0  0  0
  182.8240  173.5510  135.7090 C   0  0  1  0  0  3  0  0  0  0  0  0
  185.4270  173.4190  137.6300 O   0  0  0  0  0  1  0  0  0  0  0  0
  183.0580  175.5230  136.9610 N   0  0  0  0  0  0  0  0  0  0  0  0
  184.2270  176.3600  135.1540 C   0  0  0  0  0  1  0  0  0  0  0  0
  1 16  1  0  0  0  0
  2 14  1  0  0  0  0
  2 11  1  0  0  0  0
  3 14  1  0  0  0  0
  4  1  1  0  0  0  0
  5  9  1  0  0  0  0
  6 10  2  0  0  0  0
  7  5  2  0  0  0  0
  7  6  1  0  0  0  0
  8  3  1  0  0  0  0
  9  1  1  0  0  0  0
  9  8  2  0  0  0  0
 10  8  1  0  0  0  0
 12 11  2  0  0  0  0
 12 17  1  0  0  0  0
 13 12  1  0  0  0  0
 15 16  1  0  0  0  0
 15 13  2  0  0  0  0
 16  2  2  0  0  0  0
 17 19  2  0  0  0  0
 17 18  1  0  0  0  0
 19 18  1  0  0  0  0
 20  5  1  0  0  0  0
 21 20  1  0  0  0  0
 22 33  1  0  0  0  0
 23 33  1  0  0  0  0
 24 29  1  6  0  0  0
 24 26  1  0  0  0  0
 24 25  1  0  0  0  0
 26 32  1  1  0  0  0
 27 25  1  0  0  0  0
 28 31  1  0  0  0  0
 28 22  1  1  0  0  0
 28 26  1  0  0  0  0
 30 25  1  0  0  0  0
 31 30  1  1  0  0  0
 31 23  1  0  0  0  0
 33 21  1  0  0  0  0
 34 22  1  0  0  0  0
M  END
>  <MODEL>
7

>  <REMARK>
 VINA RESULT:      -7.1      2.904      3.402
  Name = 
  4 active torsions:
  status: ('A' for Active; 'I' for Inactive)
    1  A    between atoms: C_3  and  C_25
    2  A    between atoms: C_8  and  C_10
    3  A    between atoms: C_8  and  C_18
    4  A    between atoms: C_18  and  N_30
                            x       y       z     vdW  Elec       q    Type
                         _______ _______ _______ _____ _____    ______ ____

>  <TORSDO>
F 4

$$$$
=
 OpenBabel11052416023D

 34 39  0  0  1  0  0  0  0  0999 V2000
  184.3210  179.0070  141.7960 N   0  0  0  0  0  0  0  0  0  0  0  0
  184.6360  178.7180  144.2750 C   0  0  0  0  0  0  0  0  0  0  0  0
  182.4280  179.9070  143.7270 C   0  0  0  0  0  2  0  0  0  0  0  0
  184.9260  179.4960  140.6860 O   0  0  0  0  0  1  0  0  0  0  0  0
  182.5610  177.6660  140.6740 C   0  0  0  0  0  0  0  0  0  0  0  0
  180.2900  177.7050  141.5280 C   0  0  0  0  0  3  0  0  0  0  0  0
  181.2280  177.2480  140.6000 C   0  0  0  0  0  3  0  0  0  0  0  0
  182.0120  179.0000  142.6290 C   0  0  0  0  0  0  0  0  0  0  0  0
  182.9600  178.5600  141.6950 C   0  0  0  0  0  0  0  0  0  0  0  0
  180.6840  178.5760  142.5440 C   0  0  0  0  0  3  0  0  0  0  0  0
  185.4660  178.3060  145.3240 C   0  0  0  0  0  3  0  0  0  0  0  0
  186.7740  177.8860  145.0810 C   0  0  0  0  0  0  0  0  0  0  0  0
  187.2720  177.8810  143.7800 C   0  0  0  0  0  3  0  0  0  0  0  0
  183.3320  179.2050  144.6250 N   0  0  0  0  0  2  0  0  0  0  0  0
  186.4540  178.2760  142.7210 C   0  0  0  0  0  3  0  0  0  0  0  0
  185.1300  178.6830  142.9420 C   0  0  0  0  0  0  0  0  0  0  0  0
  187.6220  177.4620  146.1880 C   0  0  0  0  0  0  0  0  0  0  0  0
  187.8400  177.3530  147.5250 O   0  0  0  0  0  0  0  0  0  0  0  0
  188.7470  176.9010  146.6270 N   0  0  0  0  0  0  0  0  0  0  0  0
  183.5380  177.0850  139.6980 C   0  0  0  0  0  2  0  0  0  0  0  0
  183.1760  177.4390  138.2570 C   0  0  0  0  0  2  0  0  0  0  0  0
  183.1600  176.3470  136.2210 N   0  0  0  0  0  0  0  0  0  0  0  0
  183.2300  175.0910  138.1810 C   0  0  0  0  0  2  0  0  0  0  0  0
  186.3010  174.2310  136.1380 C   0  0  2  0  0  3  0  0  0  0  0  0
  185.9540  173.6640  137.4450 N   0  0  0  0  0  0  0  0  0  0  0  0
  185.4280  175.4490  135.8540 C   0  0  1  0  0  3  0  0  0  0  0  0
  186.8030  172.6360  137.6830 O   0  0  0  0  0  1  0  0  0  0  0  0
  183.9180  175.1240  135.9500 C   0  0  1  0  0  3  0  0  0  0  0  0
  186.1710  173.2840  135.1140 O   0  0  0  0  0  1  0  0  0  0  0  0
  184.6060  173.1030  137.4020 C   0  0  0  0  0  2  0  0  0  0  0  0
  183.5540  174.1620  137.0610 C   0  0  1  0  0  3  0  0  0  0  0  0
  185.7870  176.4820  136.7240 O   0  0  0  0  0  1  0  0  0  0  0  0
  182.6610  176.2780  137.5450 N   0  0  0  0  0  0  0  0  0  0  0  0
  182.0110  176.3500  135.3300 C   0  0  0  0  0  1  0  0  0  0  0  0
  1 16  1  0  0  0  0
  2 14  1  0  0  0  0
  2 11  1  0  0  0  0
  3 14  1  0  0  0  0
  4  1  1  0  0  0  0
  5  9  1  0  0  0  0
  6 10  2  0  0  0  0
  7  5  2  0  0  0  0
  7  6  1  0  0  0  0
  8  3  1  0  0  0  0
  9  1  1  0  0  0  0
  9  8  2  0  0  0  0
 10  8  1  0  0  0  0
 12 11  2  0  0  0  0
 12 17  1  0  0  0  0
 13 12  1  0  0  0  0
 15 16  1  0  0  0  0
 15 13  2  0  0  0  0
 16  2  2  0  0  0  0
 17 19  2  0  0  0  0
 17 18  1  0  0  0  0
 19 18  1  0  0  0  0
 20  5  1  0  0  0  0
 21 20  1  0  0  0  0
 22 33  1  0  0  0  0
 24 29  1  6  0  0  0
 24 25  1  0  0  0  0
 25 27  1  0  0  0  0
 26 28  1  0  0  0  0
 26 24  1  0  0  0  0
 26 32  1  1  0  0  0
 28 22  1  1  0  0  0
 28 31  1  0  0  0  0
 30 25  1  0  0  0  0
 31 30  1  1  0  0  0
 31 23  1  0  0  0  0
 33 23  1  0  0  0  0
 33 21  1  0  0  0  0
 34 22  1  0  0  0  0
M  END
>  <MODEL>
8

>  <REMARK>
 VINA RESULT:      -7.1      1.775      2.104
  Name = 
  4 active torsions:
  status: ('A' for Active; 'I' for Inactive)
    1  A    between atoms: C_3  and  C_25
    2  A    between atoms: C_8  and  C_10
    3  A    between atoms: C_8  and  C_18
    4  A    between atoms: C_18  and  N_30
                            x       y       z     vdW  Elec       q    Type
                         _______ _______ _______ _____ _____    ______ ____

>  <TORSDO>
F 4

$$$$
=
 OpenBabel11052416023D

 34 39  0  0  1  0  0  0  0  0999 V2000
  185.6530  179.0800  142.0480 N   0  0  0  0  0  0  0  0  0  0  0  0
  187.1340  178.0160  143.7800 C   0  0  0  0  0  0  0  0  0  0  0  0
  185.4440  179.6350  144.8350 C   0  0  0  0  0  2  0  0  0  0  0  0
  185.6890  179.7830  140.8880 O   0  0  0  0  0  1  0  0  0  0  0  0
  183.2630  178.4210  141.9840 C   0  0  0  0  0  0  0  0  0  0  0  0
  181.9260  178.5440  144.0050 C   0  0  0  0  0  3  0  0  0  0  0  0
  182.0410  178.2510  142.6450 C   0  0  0  0  0  3  0  0  0  0  0  0
  184.2610  179.1730  144.0660 C   0  0  0  0  0  0  0  0  0  0  0  0
  184.3860  178.8960  142.6990 C   0  0  0  0  0  0  0  0  0  0  0  0
  183.0360  179.0000  144.7160 C   0  0  0  0  0  3  0  0  0  0  0  0
  188.2280  177.1880  144.0570 C   0  0  0  0  0  3  0  0  0  0  0  0
  189.0120  176.6670  143.0270 C   0  0  0  0  0  0  0  0  0  0  0  0
  188.7150  176.9780  141.7020 C   0  0  0  0  0  3  0  0  0  0  0  0
  186.4300  178.5670  144.9030 N   0  0  0  0  0  2  0  0  0  0  0  0
  187.6200  177.7910  141.4070 C   0  0  0  0  0  3  0  0  0  0  0  0
  186.8080  178.3090  142.4280 C   0  0  0  0  0  0  0  0  0  0  0  0
  190.1480  175.8070  143.3380 C   0  0  0  0  0  0  0  0  0  0  0  0
  190.7820  174.6120  143.2180 O   0  0  0  0  0  0  0  0  0  0  0  0
  191.3180  175.6210  143.9450 N   0  0  0  0  0  0  0  0  0  0  0  0
  183.3470  178.0190  140.5430 C   0  0  0  0  0  2  0  0  0  0  0  0
  182.5740  178.9790  139.6420 C   0  0  0  0  0  2  0  0  0  0  0  0
  182.2440  178.5190  137.4020 N   0  0  0  0  0  0  0  0  0  0  0  0
  181.9130  176.8270  138.9670 C   0  0  0  0  0  2  0  0  0  0  0  0
  184.5940  175.6730  136.5550 C   0  0  2  0  0  3  0  0  0  0  0  0
  184.0810  174.9080  137.6970 N   0  0  0  0  0  0  0  0  0  0  0  0
  184.1350  177.1230  136.6540 C   0  0  1  0  0  3  0  0  0  0  0  0
  184.5760  173.6510  137.6030 O   0  0  0  0  0  1  0  0  0  0  0  0
  182.5970  177.2440  136.7740 C   0  0  1  0  0  3  0  0  0  0  0  0
  184.1910  175.1110  135.3370 O   0  0  0  0  0  1  0  0  0  0  0  0
  182.6270  174.8020  137.6110 C   0  0  0  0  0  2  0  0  0  0  0  0
  181.9490  176.1750  137.6270 C   0  0  1  0  0  3  0  0  0  0  0  0
  184.7840  177.7360  137.7300 O   0  0  0  0  0  1  0  0  0  0  0  0
  181.7360  178.2530  138.6970 N   0  0  0  0  0  0  0  0  0  0  0  0
  181.1570  179.0970  136.6270 C   0  0  0  0  0  1  0  0  0  0  0  0
  1 16  1  0  0  0  0
  1  9  1  0  0  0  0
  2 11  1  0  0  0  0
  2 14  1  0  0  0  0
  3 14  1  0  0  0  0
  4  1  1  0  0  0  0
  5  7  2  0  0  0  0
  5  9  1  0  0  0  0
  6 10  2  0  0  0  0
  7  6  1  0  0  0  0
  8 10  1  0  0  0  0
  8  3  1  0  0  0  0
  9  8  2  0  0  0  0
 12 17  1  0  0  0  0
 12 11  2  0  0  0  0
 13 12  1  0  0  0  0
 15 13  2  0  0  0  0
 15 16  1  0  0  0  0
 16  2  2  0  0  0  0
 17 19  2  0  0  0  0
 18 17  1  0  0  0  0
 18 19  1  0  0  0  0
 20  5  1  0  0  0  0
 21 20  1  0  0  0  0
 22 33  1  0  0  0  0
 24 29  1  6  0  0  0
 24 26  1  0  0  0  0
 24 25  1  0  0  0  0
 26 28  1  0  0  0  0
 26 32  1  1  0  0  0
 27 25  1  0  0  0  0
 28 22  1  1  0  0  0
 28 31  1  0  0  0  0
 30 25  1  0  0  0  0
 31 30  1  1  0  0  0
 31 23  1  0  0  0  0
 33 23  1  0  0  0  0
 33 21  1  0  0  0  0
 34 22  1  0  0  0  0
M  END
>  <MODEL>
9

>  <REMARK>
 VINA RESULT:      -7.1      2.536      3.499
  Name = 
  4 active torsions:
  status: ('A' for Active; 'I' for Inactive)
    1  A    between atoms: C_3  and  C_25
    2  A    between atoms: C_8  and  C_10
    3  A    between atoms: C_8  and  C_18
    4  A    between atoms: C_18  and  N_30
                            x       y       z     vdW  Elec       q    Type
                         _______ _______ _______ _____ _____    ______ ____

>  <TORSDO>
F 4

$$$$
