=
 OpenBabel11052413383D

 28 29  0  0  1  0  0  0  0  0999 V2000
  189.3600  176.5730  146.4580 C   0  0  0  0  0  3  0  0  0  0  0  0
  191.0780  175.5370  144.3750 O   0  0  0  0  0  1  0  0  0  0  0  0
  191.7160  176.7650  144.5760 C   0  0  1  0  0  3  0  0  0  0  0  0
  186.0160  178.2460  146.5420 O   0  0  0  0  0  1  0  0  0  0  0  0
  192.2280  176.2650  146.8800 O   0  0  0  0  0  1  0  0  0  0  0  0
  190.6780  177.2700  142.2520 C   0  0  0  0  0  2  0  0  0  0  0  0
  189.1500  177.3650  142.2230 C   0  0  2  0  0  3  0  0  0  0  0  0
  191.3200  177.8350  143.5310 C   0  0  1  0  0  3  0  0  0  0  0  0
  187.6260  178.2890  144.7660 C   0  0  0  0  0  2  0  0  0  0  0  0
  188.5120  176.3550  143.1830 C   0  0  0  0  0  2  0  0  0  0  0  0
  187.8990  176.9530  148.2790 O   0  0  0  0  0  1  0  0  0  0  0  0
  186.8940  176.9270  143.8020 S   0  0  0  0  0  0  0  0  0  0  0  0
  187.3820  178.1500  146.2700 C   0  0  2  0  0  3  0  0  0  0  0  0
  187.9540  176.8680  146.8880 C   0  0  1  0  0  3  0  0  0  0  0  0
  190.2740  177.4780  146.4780 N   0  0  0  0  0  0  0  0  0  0  0  0
  191.6310  177.2140  146.0460 C   0  0  2  0  0  3  0  0  0  0  0  0
  187.6840  178.6640  139.1620 O   0  0  0  0  0  0  0  0  0  0  0  0
  189.7180  177.5910  139.7700 C   0  0  1  0  0  3  0  0  0  0  0  0
  189.0770  178.7690  139.0330 C   0  0  1  0  0  3  0  0  0  0  0  0
  188.6610  177.2240  140.7750 C   0  0  2  0  0  3  0  0  0  0  0  0
  187.4830  178.1280  140.4440 C   0  0  0  0  0  2  0  0  0  0  0  0
  190.0880  176.3540  138.9310 C   0  0  0  0  0  3  0  0  0  0  0  0
  191.4330  176.5280  138.2520 C   0  0  0  0  0  1  0  0  0  0  0  0
  189.0230  175.9500  137.9210 C   0  0  0  0  0  1  0  0  0  0  0  0
  188.2470  179.0900  136.8690 C   0  0  0  0  0  1  0  0  0  0  0  0
  189.4600  178.8530  137.6310 N   0  0  0  0  0  2  0  0  0  0  0  0
  191.4600  179.9810  144.0700 C   0  0  0  0  0  1  0  0  0  0  0  0
  190.5810  178.8980  144.0670 O   0  0  0  0  0  0  0  0  0  0  0  0
  1 15  2  0  0  0  0
  1 14  1  0  0  0  0
  3  2  1  1  0  0  0
  3 16  1  0  0  0  0
  6  8  1  0  0  0  0
  7  6  1  6  0  0  0
  7 10  1  0  0  0  0
  8 28  1  1  0  0  0
  8  3  1  0  0  0  0
  9 13  1  0  0  0  0
 10 12  1  0  0  0  0
 12  9  1  0  0  0  0
 13  4  1  6  0  0  0
 13 14  1  0  0  0  0
 14 11  1  1  0  0  0
 16 15  1  0  0  0  0
 16  5  1  1  0  0  0
 17 21  1  0  0  0  0
 18 22  1  6  0  0  0
 18 20  1  0  0  0  0
 19 26  1  6  0  0  0
 19 17  1  0  0  0  0
 19 18  1  0  0  0  0
 20 21  1  1  0  0  0
 20  7  1  0  0  0  0
 23 22  1  0  0  0  0
 24 22  1  0  0  0  0
 25 26  1  0  0  0  0
 28 27  1  0  0  0  0
M  END
>  <MODEL>
1

>  <REMARK>
 VINA RESULT:      -6.5      0.000      0.000
  Name = 
  4 active torsions:
  status: ('A' for Active; 'I' for Inactive)
    1  A    between atoms: C_9  and  C_14
    2  A    between atoms: C_10  and  C_13
    3  A    between atoms: C_11  and  O_22
    4  A    between atoms: C_12  and  N_23
                            x       y       z     vdW  Elec       q    Type
                         _______ _______ _______ _____ _____    ______ ____

>  <TORSDO>
F 4

$$$$
=
 OpenBabel11052413383D

 28 29  0  0  1  0  0  0  0  0999 V2000
  192.4630  173.4700  136.1200 C   0  0  0  0  0  3  0  0  0  0  0  0
  189.8820  173.4710  137.4250 O   0  0  0  0  0  1  0  0  0  0  0  0
  189.4830  173.9680  136.1800 C   0  0  1  0  0  3  0  0  0  0  0  0
  195.4320  175.7430  136.1260 O   0  0  0  0  0  1  0  0  0  0  0  0
  190.2110  171.9850  135.0140 O   0  0  0  0  0  1  0  0  0  0  0  0
  189.1960  176.1510  137.5530 C   0  0  0  0  0  2  0  0  0  0  0  0
  190.4940  176.7700  138.0790 C   0  0  2  0  0  3  0  0  0  0  0  0
  189.3250  175.5060  136.1620 C   0  0  1  0  0  3  0  0  0  0  0  0
  193.1410  176.3330  136.5150 C   0  0  0  0  0  2  0  0  0  0  0  0
  191.4980  175.6890  138.4930 C   0  0  0  0  0  2  0  0  0  0  0  0
  194.6650  173.0910  135.3430 O   0  0  0  0  0  1  0  0  0  0  0  0
  193.2230  176.2590  138.3330 S   0  0  0  0  0  0  0  0  0  0  0  0
  194.1190  175.3710  135.8370 C   0  0  2  0  0  3  0  0  0  0  0  0
  193.9000  173.8940  136.1900 C   0  0  1  0  0  3  0  0  0  0  0  0
  191.7230  173.7620  135.1090 N   0  0  0  0  0  0  0  0  0  0  0  0
  190.3280  173.3770  135.0360 C   0  0  2  0  0  3  0  0  0  0  0  0
  188.2940  179.0950  139.8010 O   0  0  0  0  0  0  0  0  0  0  0  0
  189.4700  177.1050  140.3650 C   0  0  1  0  0  3  0  0  0  0  0  0
  188.1270  177.8390  140.4040 C   0  0  1  0  0  3  0  0  0  0  0  0
  190.1640  177.7610  139.2030 C   0  0  2  0  0  3  0  0  0  0  0  0
  189.2220  178.8750  138.7710 C   0  0  0  0  0  2  0  0  0  0  0  0
  190.3570  177.1970  141.6190 C   0  0  0  0  0  3  0  0  0  0  0  0
  191.7790  177.5890  141.2640 C   0  0  0  0  0  1  0  0  0  0  0  0
  190.3450  175.9410  142.4800 C   0  0  0  0  0  1  0  0  0  0  0  0
  186.4050  178.8240  141.6450 C   0  0  0  0  0  1  0  0  0  0  0  0
  187.5830  177.9800  141.7470 N   0  0  0  0  0  2  0  0  0  0  0  0
  189.5340  177.0610  134.5940 C   0  0  0  0  0  1  0  0  0  0  0  0
  190.2720  176.1600  135.3630 O   0  0  0  0  0  0  0  0  0  0  0  0
  1 14  1  0  0  0  0
  3  2  1  1  0  0  0
  7  6  1  1  0  0  0
  7 10  1  0  0  0  0
  7 20  1  0  0  0  0
  8 28  1  1  0  0  0
  8  3  1  0  0  0  0
  8  6  1  0  0  0  0
  9 12  1  0  0  0  0
 12 10  1  0  0  0  0
 13  4  1  1  0  0  0
 13 14  1  0  0  0  0
 13  9  1  0  0  0  0
 14 11  1  6  0  0  0
 15  1  2  0  0  0  0
 16  5  1  1  0  0  0
 16 15  1  0  0  0  0
 16  3  1  0  0  0  0
 17 19  1  0  0  0  0
 18 19  1  0  0  0  0
 18 22  1  1  0  0  0
 19 26  1  1  0  0  0
 20 21  1  6  0  0  0
 20 18  1  0  0  0  0
 21 17  1  0  0  0  0
 22 24  1  0  0  0  0
 23 22  1  0  0  0  0
 25 26  1  0  0  0  0
 27 28  1  0  0  0  0
M  END
>  <MODEL>
2

>  <REMARK>
 VINA RESULT:      -6.4      4.371      8.587
  Name = 
  4 active torsions:
  status: ('A' for Active; 'I' for Inactive)
    1  A    between atoms: C_9  and  C_14
    2  A    between atoms: C_10  and  C_13
    3  A    between atoms: C_11  and  O_22
    4  A    between atoms: C_12  and  N_23
                            x       y       z     vdW  Elec       q    Type
                         _______ _______ _______ _____ _____    ______ ____

>  <TORSDO>
F 4

$$$$
=
 OpenBabel11052413383D

 28 29  0  0  1  0  0  0  0  0999 V2000
  187.6970  177.1600  143.6710 C   0  0  0  0  0  3  0  0  0  0  0  0
  190.1140  175.6060  143.3440 O   0  0  0  0  0  1  0  0  0  0  0  0
  190.6670  176.7100  144.0000 C   0  0  1  0  0  3  0  0  0  0  0  0
  185.6860  179.4200  141.4710 O   0  0  0  0  0  1  0  0  0  0  0  0
  189.3120  176.3780  145.9680 O   0  0  0  0  0  1  0  0  0  0  0  0
  191.6760  177.1410  141.6480 C   0  0  0  0  0  2  0  0  0  0  0  0
  190.6650  177.5120  140.5590 C   0  0  2  0  0  3  0  0  0  0  0  0
  191.3430  177.7140  143.0370 C   0  0  1  0  0  3  0  0  0  0  0  0
  188.0380  178.9720  141.3430 C   0  0  0  0  0  2  0  0  0  0  0  0
  189.3490  176.7480  140.7390 C   0  0  0  0  0  2  0  0  0  0  0  0
  185.5040  177.9990  143.9570 O   0  0  0  0  0  1  0  0  0  0  0  0
  187.9240  177.6720  140.0720 S   0  0  0  0  0  0  0  0  0  0  0  0
  186.7940  179.0440  142.2310 C   0  0  2  0  0  3  0  0  0  0  0  0
  186.4920  177.7540  143.0030 C   0  0  1  0  0  3  0  0  0  0  0  0
  188.4990  177.8790  144.3750 N   0  0  0  0  0  0  0  0  0  0  0  0
  189.6780  177.3240  145.0080 C   0  0  2  0  0  3  0  0  0  0  0  0
  193.2150  176.1700  138.3450 O   0  0  0  0  0  0  0  0  0  0  0  0
  190.8460  176.0420  138.5110 C   0  0  1  0  0  3  0  0  0  0  0  0
  192.1500  175.2570  138.3550 C   0  0  1  0  0  3  0  0  0  0  0  0
  191.3070  177.3070  139.1810 C   0  0  2  0  0  3  0  0  0  0  0  0
  192.8230  177.1860  139.2320 C   0  0  0  0  0  2  0  0  0  0  0  0
  190.0750  176.3880  137.2240 C   0  0  0  0  0  3  0  0  0  0  0  0
  189.8060  177.8770  137.1220 C   0  0  0  0  0  1  0  0  0  0  0  0
  188.7880  175.5950  137.0410 C   0  0  0  0  0  1  0  0  0  0  0  0
  193.5520  173.9690  136.9950 C   0  0  0  0  0  1  0  0  0  0  0  0
  192.1820  174.4160  137.1670 N   0  0  0  0  0  2  0  0  0  0  0  0
  191.3040  179.7520  143.9100 C   0  0  0  0  0  1  0  0  0  0  0  0
  190.6820  178.9470  142.9550 O   0  0  0  0  0  0  0  0  0  0  0  0
  1 15  2  0  0  0  0
  3  2  1  6  0  0  0
  3 16  1  0  0  0  0
  6  8  1  0  0  0  0
  7 10  1  6  0  0  0
  7  6  1  0  0  0  0
  8 28  1  6  0  0  0
  8  3  1  0  0  0  0
  9 13  1  0  0  0  0
 12 10  1  0  0  0  0
 12  9  1  0  0  0  0
 13  4  1  6  0  0  0
 13 14  1  0  0  0  0
 14  1  1  0  0  0  0
 14 11  1  1  0  0  0
 15 16  1  0  0  0  0
 16  5  1  1  0  0  0
 17 19  1  0  0  0  0
 17 21  1  0  0  0  0
 18 22  1  6  0  0  0
 18 20  1  0  0  0  0
 19 26  1  6  0  0  0
 19 18  1  0  0  0  0
 20 21  1  1  0  0  0
 20  7  1  0  0  0  0
 23 22  1  0  0  0  0
 24 22  1  0  0  0  0
 25 26  1  0  0  0  0
 28 27  1  0  0  0  0
M  END
>  <MODEL>
3

>  <REMARK>
 VINA RESULT:      -6.0      2.407      3.605
  Name = 
  4 active torsions:
  status: ('A' for Active; 'I' for Inactive)
    1  A    between atoms: C_9  and  C_14
    2  A    between atoms: C_10  and  C_13
    3  A    between atoms: C_11  and  O_22
    4  A    between atoms: C_12  and  N_23
                            x       y       z     vdW  Elec       q    Type
                         _______ _______ _______ _____ _____    ______ ____

>  <TORSDO>
F 4

$$$$
=
 OpenBabel11052413383D

 28 29  0  0  1  0  0  0  0  0999 V2000
  190.8440  175.2750  137.4530 C   0  0  0  0  0  3  0  0  0  0  0  0
  188.0380  175.4250  138.1350 O   0  0  0  0  0  1  0  0  0  0  0  0
  188.0810  176.4740  137.2110 C   0  0  1  0  0  3  0  0  0  0  0  0
  194.0170  176.4740  139.0270 O   0  0  0  0  0  1  0  0  0  0  0  0
  188.7780  175.0270  135.4110 O   0  0  0  0  0  1  0  0  0  0  0  0
  187.7750  177.8950  139.3600 C   0  0  0  0  0  2  0  0  0  0  0  0
  188.9600  177.8780  140.3310 C   0  0  2  0  0  3  0  0  0  0  0  0
  188.1790  177.8670  137.8760 C   0  0  1  0  0  3  0  0  0  0  0  0
  191.8310  177.4350  139.2350 C   0  0  0  0  0  2  0  0  0  0  0  0
  189.6260  176.4990  140.3700 C   0  0  0  0  0  2  0  0  0  0  0  0
  193.0860  174.6800  136.9900 O   0  0  0  0  0  1  0  0  0  0  0  0
  191.3960  176.6060  140.7970 S   0  0  0  0  0  0  0  0  0  0  0  0
  192.7930  176.6140  138.3740 C   0  0  2  0  0  3  0  0  0  0  0  0
  192.2540  175.2380  137.9620 C   0  0  1  0  0  3  0  0  0  0  0  0
  190.4670  176.1400  136.5780 N   0  0  0  0  0  0  0  0  0  0  0  0
  189.1030  176.2020  136.0930 C   0  0  2  0  0  3  0  0  0  0  0  0
  186.4680  178.3010  142.9430 O   0  0  0  0  0  0  0  0  0  0  0  0
  188.6280  177.3180  142.7740 C   0  0  1  0  0  3  0  0  0  0  0  0
  187.1800  177.1280  143.2330 C   0  0  1  0  0  3  0  0  0  0  0  0
  188.4930  178.3700  141.7080 C   0  0  2  0  0  3  0  0  0  0  0  0
  187.0250  178.7690  141.7420 C   0  0  0  0  0  2  0  0  0  0  0  0
  189.6460  177.7790  143.8320 C   0  0  0  0  0  3  0  0  0  0  0  0
  190.4100  179.0050  143.3690 C   0  0  0  0  0  1  0  0  0  0  0  0
  190.6060  176.6870  144.2840 C   0  0  0  0  0  1  0  0  0  0  0  0
  186.3110  177.8570  145.2800 C   0  0  0  0  0  1  0  0  0  0  0  0
  187.0600  176.7880  144.6440 N   0  0  0  0  0  2  0  0  0  0  0  0
  189.0530  179.7960  137.2180 C   0  0  0  0  0  1  0  0  0  0  0  0
  189.4000  178.5140  137.6480 O   0  0  0  0  0  0  0  0  0  0  0  0
  1 14  1  0  0  0  0
  3  8  1  0  0  0  0
  3  2  1  1  0  0  0
  7  6  1  6  0  0  0
  7 10  1  0  0  0  0
  7 20  1  0  0  0  0
  8 28  1  1  0  0  0
  8  6  1  0  0  0  0
  9 12  1  0  0  0  0
 10 12  1  0  0  0  0
 13  4  1  1  0  0  0
 13  9  1  0  0  0  0
 14 11  1  6  0  0  0
 14 13  1  0  0  0  0
 15  1  2  0  0  0  0
 16  5  1  1  0  0  0
 16 15  1  0  0  0  0
 16  3  1  0  0  0  0
 17 19  1  0  0  0  0
 18 19  1  0  0  0  0
 18 22  1  1  0  0  0
 19 26  1  1  0  0  0
 20 21  1  6  0  0  0
 20 18  1  0  0  0  0
 21 17  1  0  0  0  0
 22 24  1  0  0  0  0
 23 22  1  0  0  0  0
 26 25  1  0  0  0  0
 27 28  1  0  0  0  0
M  END
>  <MODEL>
4

>  <REMARK>
 VINA RESULT:      -5.9      2.998      7.486
  Name = 
  4 active torsions:
  status: ('A' for Active; 'I' for Inactive)
    1  A    between atoms: C_9  and  C_14
    2  A    between atoms: C_10  and  C_13
    3  A    between atoms: C_11  and  O_22
    4  A    between atoms: C_12  and  N_23
                            x       y       z     vdW  Elec       q    Type
                         _______ _______ _______ _____ _____    ______ ____

>  <TORSDO>
F 4

$$$$
=
 OpenBabel11052413383D

 28 29  0  0  1  0  0  0  0  0999 V2000
  189.4300  177.7110  137.1990 C   0  0  0  0  0  3  0  0  0  0  0  0
  190.3390  176.8270  134.6000 O   0  0  0  0  0  1  0  0  0  0  0  0
  189.4400  175.7900  134.8670 C   0  0  1  0  0  3  0  0  0  0  0  0
  190.7720  177.5030  140.6840 O   0  0  0  0  0  1  0  0  0  0  0  0
  187.5560  177.2900  135.0060 O   0  0  0  0  0  1  0  0  0  0  0  0
  191.6400  174.4380  135.1210 C   0  0  0  0  0  2  0  0  0  0  0  0
  192.5120  174.8240  136.3200 C   0  0  2  0  0  3  0  0  0  0  0  0
  190.1280  174.5090  135.3940 C   0  0  1  0  0  3  0  0  0  0  0  0
  191.1780  175.9880  138.8710 C   0  0  0  0  0  2  0  0  0  0  0  0
  192.4640  176.3330  136.5780 C   0  0  0  0  0  2  0  0  0  0  0  0
  188.7750  178.8780  139.1500 O   0  0  0  0  0  1  0  0  0  0  0  0
  192.7500  176.7360  138.3350 S   0  0  0  0  0  0  0  0  0  0  0  0
  190.2230  177.0030  139.5030 C   0  0  2  0  0  3  0  0  0  0  0  0
  189.8230  178.1580  138.5760 C   0  0  1  0  0  3  0  0  0  0  0  0
  188.6090  176.7380  137.0160 N   0  0  0  0  0  0  0  0  0  0  0  0
  188.2370  176.2810  135.6920 C   0  0  2  0  0  3  0  0  0  0  0  0
  195.7890  174.8710  134.7500 O   0  0  0  0  0  0  0  0  0  0  0  0
  194.9490  174.9760  136.9730 C   0  0  1  0  0  3  0  0  0  0  0  0
  195.8880  175.6060  135.9410 C   0  0  1  0  0  3  0  0  0  0  0  0
  193.9330  174.2850  136.1070 C   0  0  2  0  0  3  0  0  0  0  0  0
  194.4450  174.4730  134.6860 C   0  0  0  0  0  2  0  0  0  0  0  0
  195.5640  173.9670  137.9580 C   0  0  0  0  0  3  0  0  0  0  0  0
  194.7940  172.6590  137.9650 C   0  0  0  0  0  1  0  0  0  0  0  0
  195.7250  174.5030  139.3740 C   0  0  0  0  0  1  0  0  0  0  0  0
  198.0950  175.1380  135.3220 C   0  0  0  0  0  1  0  0  0  0  0  0
  197.2720  175.6820  136.3870 N   0  0  0  0  0  2  0  0  0  0  0  0
  189.1200  173.0050  136.6760 C   0  0  0  0  0  1  0  0  0  0  0  0
  189.8180  174.2130  136.7280 O   0  0  0  0  0  0  0  0  0  0  0  0
  1 14  1  0  0  0  0
  3  2  1  1  0  0  0
  3  8  1  0  0  0  0
  3 16  1  0  0  0  0
  6  8  1  0  0  0  0
  7  6  1  6  0  0  0
  7 10  1  0  0  0  0
  8 28  1  1  0  0  0
  9 13  1  0  0  0  0
 10 12  1  0  0  0  0
 12  9  1  0  0  0  0
 13  4  1  1  0  0  0
 14 11  1  1  0  0  0
 14 13  1  0  0  0  0
 15  1  2  0  0  0  0
 16  5  1  6  0  0  0
 16 15  1  0  0  0  0
 17 19  1  0  0  0  0
 18 22  1  1  0  0  0
 19 26  1  1  0  0  0
 19 18  1  0  0  0  0
 20 21  1  6  0  0  0
 20  7  1  0  0  0  0
 20 18  1  0  0  0  0
 21 17  1  0  0  0  0
 22 23  1  0  0  0  0
 22 24  1  0  0  0  0
 25 26  1  0  0  0  0
 27 28  1  0  0  0  0
M  END
>  <MODEL>
5

>  <REMARK>
 VINA RESULT:      -5.7      5.142      8.761
  Name = 
  4 active torsions:
  status: ('A' for Active; 'I' for Inactive)
    1  A    between atoms: C_9  and  C_14
    2  A    between atoms: C_10  and  C_13
    3  A    between atoms: C_11  and  O_22
    4  A    between atoms: C_12  and  N_23
                            x       y       z     vdW  Elec       q    Type
                         _______ _______ _______ _____ _____    ______ ____

>  <TORSDO>
F 4

$$$$
=
 OpenBabel11052413383D

 28 29  0  0  1  0  0  0  0  0999 V2000
  188.3640  174.8720  135.0120 C   0  0  0  0  0  3  0  0  0  0  0  0
  187.8830  177.7170  134.8180 O   0  0  0  0  0  1  0  0  0  0  0  0
  188.7760  177.7330  135.8940 C   0  0  1  0  0  3  0  0  0  0  0  0
  186.5360  171.9760  136.5140 O   0  0  0  0  0  1  0  0  0  0  0  0
  190.5550  176.7490  134.5940 O   0  0  0  0  0  1  0  0  0  0  0  0
  186.6210  178.3490  137.2010 C   0  0  0  0  0  2  0  0  0  0  0  0
  185.5680  177.2400  137.2880 C   0  0  2  0  0  3  0  0  0  0  0  0
  188.0730  177.8430  137.2670 C   0  0  1  0  0  3  0  0  0  0  0  0
  186.4640  174.2680  137.2120 C   0  0  0  0  0  2  0  0  0  0  0  0
  185.5140  176.4220  135.9940 C   0  0  0  0  0  2  0  0  0  0  0  0
  188.6770  172.5490  134.6920 O   0  0  0  0  0  1  0  0  0  0  0  0
  184.9570  174.7100  136.2890 S   0  0  0  0  0  0  0  0  0  0  0  0
  187.2730  173.1600  136.5340 C   0  0  2  0  0  3  0  0  0  0  0  0
  187.7550  173.5060  135.1190 C   0  0  1  0  0  3  0  0  0  0  0  0
  189.2430  175.2860  135.8550 N   0  0  0  0  0  0  0  0  0  0  0  0
  189.8240  176.6110  135.7770 C   0  0  2  0  0  3  0  0  0  0  0  0
  181.9510  177.1510  137.6360 O   0  0  0  0  0  0  0  0  0  0  0  0
  183.8070  177.5020  139.0830 C   0  0  1  0  0  3  0  0  0  0  0  0
  182.4970  176.7410  138.8610 C   0  0  1  0  0  3  0  0  0  0  0  0
  184.2170  177.8550  137.6800 C   0  0  2  0  0  3  0  0  0  0  0  0
  183.0620  177.3810  136.8100 C   0  0  0  0  0  2  0  0  0  0  0  0
  183.7410  178.7780  139.9410 C   0  0  0  0  0  3  0  0  0  0  0  0
  183.4570  180.0030  139.0920 C   0  0  0  0  0  1  0  0  0  0  0  0
  184.9690  179.0010  140.8130 C   0  0  0  0  0  1  0  0  0  0  0  0
  180.3080  177.4110  139.3410 C   0  0  0  0  0  1  0  0  0  0  0  0
  181.5350  176.9180  139.9400 N   0  0  0  0  0  2  0  0  0  0  0  0
  188.7890  177.1310  139.2410 C   0  0  0  0  0  1  0  0  0  0  0  0
  188.1960  176.6930  138.0560 O   0  0  0  0  0  0  0  0  0  0  0  0
  1 14  1  0  0  0  0
  1 15  2  0  0  0  0
  3  2  1  6  0  0  0
  3  8  1  0  0  0  0
  6  8  1  0  0  0  0
  6  7  1  0  0  0  0
  7 10  1  6  0  0  0
  7 20  1  0  0  0  0
  8 28  1  6  0  0  0
 10 12  1  0  0  0  0
 12  9  1  0  0  0  0
 13  4  1  6  0  0  0
 13  9  1  0  0  0  0
 14 11  1  1  0  0  0
 14 13  1  0  0  0  0
 16  5  1  6  0  0  0
 16 15  1  0  0  0  0
 16  3  1  0  0  0  0
 17 19  1  0  0  0  0
 18 22  1  1  0  0  0
 19 18  1  0  0  0  0
 19 26  1  1  0  0  0
 20 21  1  6  0  0  0
 20 18  1  0  0  0  0
 21 17  1  0  0  0  0
 22 24  1  0  0  0  0
 23 22  1  0  0  0  0
 25 26  1  0  0  0  0
 28 27  1  0  0  0  0
M  END
>  <MODEL>
6

>  <REMARK>
 VINA RESULT:      -5.4      5.861      8.910
  Name = 
  4 active torsions:
  status: ('A' for Active; 'I' for Inactive)
    1  A    between atoms: C_9  and  C_14
    2  A    between atoms: C_10  and  C_13
    3  A    between atoms: C_11  and  O_22
    4  A    between atoms: C_12  and  N_23
                            x       y       z     vdW  Elec       q    Type
                         _______ _______ _______ _____ _____    ______ ____

>  <TORSDO>
F 4

$$$$
=
 OpenBabel11052413383D

 28 29  0  0  1  0  0  0  0  0999 V2000
  180.7550  175.1850  137.0450 C   0  0  0  0  0  3  0  0  0  0  0  0
  182.5970  175.2970  134.8200 O   0  0  0  0  0  1  0  0  0  0  0  0
  182.9990  174.0700  135.3580 C   0  0  1  0  0  3  0  0  0  0  0  0
  180.6400  176.6980  140.4640 O   0  0  0  0  0  1  0  0  0  0  0  0
  180.8260  173.0740  135.0370 O   0  0  0  0  0  1  0  0  0  0  0  0
  185.0890  175.4590  136.0180 C   0  0  0  0  0  2  0  0  0  0  0  0
  184.8480  176.5460  137.0700 C   0  0  2  0  0  3  0  0  0  0  0  0
  184.2660  174.1780  136.2380 C   0  0  1  0  0  3  0  0  0  0  0  0
  182.5850  176.1750  139.1640 C   0  0  0  0  0  2  0  0  0  0  0  0
  183.4750  177.2020  136.8870 C   0  0  0  0  0  2  0  0  0  0  0  0
  178.9560  175.3480  138.5730 O   0  0  0  0  0  1  0  0  0  0  0  0
  182.8070  177.8400  138.4600 S   0  0  0  0  0  0  0  0  0  0  0  0
  181.1210  175.8490  139.4670 C   0  0  2  0  0  3  0  0  0  0  0  0
  180.1970  175.8940  138.2440 C   0  0  1  0  0  3  0  0  0  0  0  0
  181.2540  174.0030  137.1350 N   0  0  0  0  0  0  0  0  0  0  0  0
  181.8170  173.3140  135.9910 C   0  0  2  0  0  3  0  0  0  0  0  0
  187.5460  178.4190  138.6260 O   0  0  0  0  0  0  0  0  0  0  0  0
  187.3410  176.8800  136.8240 C   0  0  1  0  0  3  0  0  0  0  0  0
  188.1040  177.2450  138.1000 C   0  0  1  0  0  3  0  0  0  0  0  0
  186.0110  177.5470  137.0400 C   0  0  2  0  0  3  0  0  0  0  0  0
  186.1760  178.3230  138.3390 C   0  0  0  0  0  2  0  0  0  0  0  0
  187.9440  177.3460  135.4870 C   0  0  0  0  0  3  0  0  0  0  0  0
  186.9890  178.2520  134.7330 C   0  0  0  0  0  1  0  0  0  0  0  0
  188.4250  176.2100  134.5940 C   0  0  0  0  0  1  0  0  0  0  0  0
  190.2060  176.6070  138.9060 C   0  0  0  0  0  1  0  0  0  0  0  0
  189.5370  177.4030  137.8930 N   0  0  0  0  0  2  0  0  0  0  0  0
  185.0060  173.0030  137.9670 C   0  0  0  0  0  1  0  0  0  0  0  0
  184.0300  173.9290  137.5970 O   0  0  0  0  0  0  0  0  0  0  0  0
  1 15  2  0  0  0  0
  1 14  1  0  0  0  0
  3  2  1  1  0  0  0
  3 16  1  0  0  0  0
  3  8  1  0  0  0  0
  6  8  1  0  0  0  0
  7  6  1  6  0  0  0
  8 28  1  1  0  0  0
  9 13  1  0  0  0  0
 10  7  1  0  0  0  0
 10 12  1  0  0  0  0
 12  9  1  0  0  0  0
 13  4  1  1  0  0  0
 14 11  1  1  0  0  0
 14 13  1  0  0  0  0
 16  5  1  6  0  0  0
 16 15  1  0  0  0  0
 18 22  1  6  0  0  0
 18 20  1  0  0  0  0
 18 19  1  0  0  0  0
 19 26  1  6  0  0  0
 19 17  1  0  0  0  0
 20  7  1  0  0  0  0
 20 21  1  1  0  0  0
 21 17  1  0  0  0  0
 23 22  1  0  0  0  0
 24 22  1  0  0  0  0
 26 25  1  0  0  0  0
 28 27  1  0  0  0  0
M  END
>  <MODEL>
7

>  <REMARK>
 VINA RESULT:      -5.3      5.816      9.285
  Name = 
  4 active torsions:
  status: ('A' for Active; 'I' for Inactive)
    1  A    between atoms: C_9  and  C_14
    2  A    between atoms: C_10  and  C_13
    3  A    between atoms: C_11  and  O_22
    4  A    between atoms: C_12  and  N_23
                            x       y       z     vdW  Elec       q    Type
                         _______ _______ _______ _____ _____    ______ ____

>  <TORSDO>
F 4

$$$$
=
 OpenBabel11052413383D

 28 29  0  0  1  0  0  0  0  0999 V2000
  180.7280  175.5170  139.5200 C   0  0  0  0  0  3  0  0  0  0  0  0
  183.0570  177.0190  140.3450 O   0  0  0  0  0  1  0  0  0  0  0  0
  182.3220  178.0700  139.7880 C   0  0  1  0  0  3  0  0  0  0  0  0
  179.8880  173.3260  136.6070 O   0  0  0  0  0  1  0  0  0  0  0  0
  180.4970  177.7830  141.3400 O   0  0  0  0  0  1  0  0  0  0  0  0
  184.1610  177.9080  137.9660 C   0  0  0  0  0  2  0  0  0  0  0  0
  184.1420  176.6260  137.1270 C   0  0  2  0  0  3  0  0  0  0  0  0
  182.7660  178.4290  138.3510 C   0  0  1  0  0  3  0  0  0  0  0  0
  181.4540  175.1410  136.6650 C   0  0  0  0  0  2  0  0  0  0  0  0
  183.7430  175.4130  137.9750 C   0  0  0  0  0  2  0  0  0  0  0  0
  178.9310  174.0080  139.2250 O   0  0  0  0  0  1  0  0  0  0  0  0
  182.9300  174.1200  136.9780 S   0  0  0  0  0  0  0  0  0  0  0  0
  180.1770  174.5320  137.2480 C   0  0  2  0  0  3  0  0  0  0  0  0
  180.2090  174.3280  138.7670 C   0  0  1  0  0  3  0  0  0  0  0  0
  180.3010  176.7060  139.2770 N   0  0  0  0  0  0  0  0  0  0  0  0
  180.8080  177.8670  139.9800 C   0  0  2  0  0  3  0  0  0  0  0  0
  187.5820  177.5910  136.4610 O   0  0  0  0  0  0  0  0  0  0  0  0
  186.4640  175.6330  137.2190 C   0  0  1  0  0  3  0  0  0  0  0  0
  187.6110  176.6150  137.4690 C   0  0  1  0  0  3  0  0  0  0  0  0
  185.4950  176.4610  136.4220 C   0  0  2  0  0  3  0  0  0  0  0  0
  186.2190  177.7790  136.1860 C   0  0  0  0  0  2  0  0  0  0  0  0
  186.7990  174.3430  136.4490 C   0  0  0  0  0  3  0  0  0  0  0  0
  186.1280  174.3190  135.0890 C   0  0  0  0  0  1  0  0  0  0  0  0
  186.4960  173.0650  137.2200 C   0  0  0  0  0  1  0  0  0  0  0  0
  189.8320  176.7940  136.7530 C   0  0  0  0  0  1  0  0  0  0  0  0
  188.9180  175.9760  137.5300 N   0  0  0  0  0  2  0  0  0  0  0  0
  181.4740  179.3690  136.8140 C   0  0  0  0  0  1  0  0  0  0  0  0
  181.8050  178.1350  137.3750 O   0  0  0  0  0  0  0  0  0  0  0  0
  3 16  1  0  0  0  0
  3  2  1  6  0  0  0
  6  8  1  0  0  0  0
  7  6  1  1  0  0  0
  7 10  1  0  0  0  0
  8 28  1  6  0  0  0
  8  3  1  0  0  0  0
  9 12  1  0  0  0  0
  9 13  1  0  0  0  0
 12 10  1  0  0  0  0
 13  4  1  6  0  0  0
 13 14  1  0  0  0  0
 14 11  1  1  0  0  0
 14  1  1  0  0  0  0
 15  1  2  0  0  0  0
 15 16  1  0  0  0  0
 16  5  1  1  0  0  0
 17 19  1  0  0  0  0
 18 22  1  6  0  0  0
 18 19  1  0  0  0  0
 19 26  1  6  0  0  0
 20 21  1  1  0  0  0
 20  7  1  0  0  0  0
 20 18  1  0  0  0  0
 21 17  1  0  0  0  0
 22 24  1  0  0  0  0
 23 22  1  0  0  0  0
 25 26  1  0  0  0  0
 27 28  1  0  0  0  0
M  END
>  <MODEL>
8

>  <REMARK>
 VINA RESULT:      -5.2      6.791      9.089
  Name = 
  4 active torsions:
  status: ('A' for Active; 'I' for Inactive)
    1  A    between atoms: C_9  and  C_14
    2  A    between atoms: C_10  and  C_13
    3  A    between atoms: C_11  and  O_22
    4  A    between atoms: C_12  and  N_23
                            x       y       z     vdW  Elec       q    Type
                         _______ _______ _______ _____ _____    ______ ____

>  <TORSDO>
F 4

$$$$
=
 OpenBabel11052413383D

 28 29  0  0  1  0  0  0  0  0999 V2000
  188.0850  175.5090  135.1120 C   0  0  0  0  0  3  0  0  0  0  0  0
  186.9120  178.1520  135.1290 O   0  0  0  0  0  1  0  0  0  0  0  0
  187.8770  178.3490  136.1220 C   0  0  1  0  0  3  0  0  0  0  0  0
  187.1730  172.1990  136.5930 O   0  0  0  0  0  1  0  0  0  0  0  0
  189.7030  177.8840  134.6170 O   0  0  0  0  0  1  0  0  0  0  0  0
  185.7770  178.3660  137.6470 C   0  0  0  0  0  2  0  0  0  0  0  0
  185.0380  177.0300  137.7600 C   0  0  2  0  0  3  0  0  0  0  0  0
  187.3070  178.2330  137.5550 C   0  0  1  0  0  3  0  0  0  0  0  0
  186.6160  174.3760  137.4300 C   0  0  0  0  0  2  0  0  0  0  0  0
  185.0560  176.2710  136.4280 C   0  0  0  0  0  2  0  0  0  0  0  0
  188.9200  173.3490  134.6290 O   0  0  0  0  0  1  0  0  0  0  0  0
  184.9640  174.4650  136.6690 S   0  0  0  0  0  0  0  0  0  0  0  0
  187.5980  173.5270  136.6190 C   0  0  2  0  0  3  0  0  0  0  0  0
  187.8400  174.0320  135.1910 C   0  0  1  0  0  3  0  0  0  0  0  0
  188.9170  176.0960  135.8980 N   0  0  0  0  0  0  0  0  0  0  0  0
  189.1480  177.5260  135.8480 C   0  0  2  0  0  3  0  0  0  0  0  0
  182.6600  178.6680  139.9660 O   0  0  0  0  0  0  0  0  0  0  0  0
  182.9340  178.4220  137.6160 C   0  0  1  0  0  3  0  0  0  0  0  0
  182.6890  179.3990  138.7690 C   0  0  1  0  0  3  0  0  0  0  0  0
  183.6240  177.2770  138.3030 C   0  0  2  0  0  3  0  0  0  0  0  0
  183.5990  177.6410  139.7800 C   0  0  0  0  0  2  0  0  0  0  0  0
  181.6980  177.9040  136.8590 C   0  0  0  0  0  3  0  0  0  0  0  0
  181.3570  176.4820  137.2620 C   0  0  0  0  0  1  0  0  0  0  0  0
  181.8030  178.0230  135.3450 C   0  0  0  0  0  1  0  0  0  0  0  0
  181.8750  181.5620  138.4050 C   0  0  0  0  0  1  0  0  0  0  0  0
  181.4710  180.1840  138.6150 N   0  0  0  0  0  2  0  0  0  0  0  0
  188.4470  177.6550  139.3680 C   0  0  0  0  0  1  0  0  0  0  0  0
  187.7840  177.1210  138.2620 O   0  0  0  0  0  0  0  0  0  0  0  0
  1 14  1  0  0  0  0
  1 15  2  0  0  0  0
  3  2  1  6  0  0  0
  3  8  1  0  0  0  0
  6  7  1  0  0  0  0
  7 10  1  6  0  0  0
  7 20  1  0  0  0  0
  8  6  1  0  0  0  0
  8 28  1  6  0  0  0
 10 12  1  0  0  0  0
 12  9  1  0  0  0  0
 13  4  1  6  0  0  0
 13  9  1  0  0  0  0
 14 11  1  1  0  0  0
 14 13  1  0  0  0  0
 16  5  1  6  0  0  0
 16 15  1  0  0  0  0
 16  3  1  0  0  0  0
 18 22  1  1  0  0  0
 18 20  1  0  0  0  0
 18 19  1  0  0  0  0
 19 26  1  6  0  0  0
 19 17  1  0  0  0  0
 20 21  1  1  0  0  0
 21 17  1  0  0  0  0
 22 23  1  0  0  0  0
 24 22  1  0  0  0  0
 25 26  1  0  0  0  0
 28 27  1  0  0  0  0
M  END
>  <MODEL>
9

>  <REMARK>
 VINA RESULT:      -5.1      5.821      8.946
  Name = 
  4 active torsions:
  status: ('A' for Active; 'I' for Inactive)
    1  A    between atoms: C_9  and  C_14
    2  A    between atoms: C_10  and  C_13
    3  A    between atoms: C_11  and  O_22
    4  A    between atoms: C_12  and  N_23
                            x       y       z     vdW  Elec       q    Type
                         _______ _______ _______ _____ _____    ______ ____

>  <TORSDO>
F 4

$$$$
