=
 OpenBabel11052412503D

 25 27  0  0  1  0  0  0  0  0999 V2000
  187.7070  177.9100  145.8240 N   0  0  0  0  0  0  0  0  0  0  0  0
  186.6740  177.6530  144.8140 C   0  0  0  0  0  0  0  0  0  0  0  0
  186.1190  178.7190  147.4200 C   0  0  0  0  0  3  0  0  0  0  0  0
  189.0060  177.3210  145.8500 C   0  0  0  0  0  0  0  0  0  0  0  0
  185.1300  178.7630  146.3800 N   0  0  0  0  0  0  0  0  0  0  0  0
  189.6080  177.3820  147.0420 C   0  0  0  0  0  0  0  0  0  0  0  0
  184.3710  178.5130  144.0980 C   0  0  1  0  0  3  0  0  0  0  0  0
  182.9320  178.7500  144.4050 C   0  0  0  0  0  1  0  0  0  0  0  0
  187.1160  178.0430  143.4260 C   0  0  0  0  0  3  0  0  0  0  0  0
  187.3620  178.3410  147.1310 C   0  0  0  0  0  0  0  0  0  0  0  0
  188.6670  178.2020  148.3390 S   0  0  0  0  0  0  0  0  0  0  0  0
  184.7870  178.5370  142.8270 C   0  0  0  0  0  3  0  0  0  0  0  0
  186.2200  178.3770  142.4870 C   0  0  0  0  0  0  0  0  0  0  0  0
  185.3630  178.3310  145.1720 C   0  0  0  0  0  0  0  0  0  0  0  0
  191.9310  176.3300  147.5350 N   0  0  0  0  0  0  0  0  0  0  0  0
  190.8960  176.7980  147.3140 C   0  0  0  0  0  0  0  0  0  0  0  0
  190.5410  177.5270  143.9240 C   0  0  0  0  0  1  0  0  0  0  0  0
  189.5930  176.6080  144.6690 C   0  0  0  0  0  2  0  0  0  0  0  0
  186.6860  178.6970  141.1100 C   0  0  0  0  0  2  0  0  0  0  0  0
  188.2040  178.6500  141.0460 C   0  0  0  0  0  2  0  0  0  0  0  0
  188.6620  177.6470  140.0010 C   0  0  2  0  0  3  0  0  0  0  0  0
  190.0830  177.3930  140.1600 N   0  0  0  0  0  1  0  0  0  0  0  0
  188.3880  178.1470  138.6180 C   0  0  0  0  0  0  0  0  0  0  0  0
  188.9630  179.3360  138.1930 O   0  0  0  0  0  1  0  0  0  0  0  0
  187.6480  177.4930  137.8350 O   0  0  0  0  0  0  0  0  0  0  0  0
  1  4  1  0  0  0  0
  1 10  1  0  0  0  0
  2 14  1  0  0  0  0
  2  1  1  0  0  0  0
  4  6  2  0  0  0  0
  5  3  1  0  0  0  0
  6 16  1  0  0  0  0
  6 11  1  0  0  0  0
  7  8  1  1  0  0  0
  7 14  1  0  0  0  0
  9  2  2  0  0  0  0
 10  3  2  0  0  0  0
 10 11  1  0  0  0  0
 12  7  1  0  0  0  0
 13 12  2  0  0  0  0
 13  9  1  0  0  0  0
 14  5  2  0  0  0  0
 16 15  3  0  0  0  0
 17 18  1  0  0  0  0
 18  4  1  0  0  0  0
 19 13  1  0  0  0  0
 20 19  1  0  0  0  0
 21 22  1  6  0  0  0
 21 20  1  0  0  0  0
 23 21  1  0  0  0  0
 24 23  1  0  0  0  0
 25 23  2  0  0  0  0
M  END
>  <MODEL>
1

>  <REMARK>
 VINA RESULT:      -8.5      0.000      0.000
  Name = 
  6 active torsions:
  status: ('A' for Active; 'I' for Inactive)
    1  A    between atoms: C_2  and  CA_21
    2  A    between atoms: C_5  and  C_22
    3  A    between atoms: C_6  and  C_15
    4  A    between atoms: C_6  and  C_23
    5  A    between atoms: C_10  and  C_11
    6  A    between atoms: C_15  and  CA_21
                            x       y       z     vdW  Elec       q    Type
                         _______ _______ _______ _____ _____    ______ ____

>  <TORSDO>
F 6

$$$$
=
 OpenBabel11052412503D

 25 27  0  0  1  0  0  0  0  0999 V2000
  187.7380  177.8910  145.8180 N   0  0  0  0  0  0  0  0  0  0  0  0
  186.6930  177.6400  144.8180 C   0  0  0  0  0  0  0  0  0  0  0  0
  186.1700  178.7010  147.4330 C   0  0  0  0  0  3  0  0  0  0  0  0
  189.0350  177.2980  145.8290 C   0  0  0  0  0  0  0  0  0  0  0  0
  185.1700  178.7510  146.4040 N   0  0  0  0  0  0  0  0  0  0  0  0
  189.6490  177.3530  147.0150 C   0  0  0  0  0  0  0  0  0  0  0  0
  184.3860  178.5110  144.1290 C   0  0  1  0  0  3  0  0  0  0  0  0
  182.9510  178.7520  144.4510 C   0  0  0  0  0  1  0  0  0  0  0  0
  187.1220  178.0320  143.4280 C   0  0  0  0  0  3  0  0  0  0  0  0
  187.4080  178.3200  147.1310 C   0  0  0  0  0  0  0  0  0  0  0  0
  188.7250  178.1730  148.3240 S   0  0  0  0  0  0  0  0  0  0  0  0
  184.7890  178.5360  142.8530 C   0  0  0  0  0  3  0  0  0  0  0  0
  186.2180  178.3710  142.4980 C   0  0  0  0  0  0  0  0  0  0  0  0
  185.3890  178.3220  145.1920 C   0  0  0  0  0  0  0  0  0  0  0  0
  191.9740  176.2920  147.4800 N   0  0  0  0  0  0  0  0  0  0  0  0
  190.9390  176.7640  147.2730 C   0  0  0  0  0  0  0  0  0  0  0  0
  190.6050  177.4780  143.9280 C   0  0  0  0  0  1  0  0  0  0  0  0
  189.6070  176.5860  144.6400 C   0  0  0  0  0  2  0  0  0  0  0  0
  186.6710  178.6940  141.1170 C   0  0  0  0  0  2  0  0  0  0  0  0
  188.1880  178.6690  141.0450 C   0  0  0  0  0  2  0  0  0  0  0  0
  188.6490  178.4290  139.6160 C   0  0  2  0  0  3  0  0  0  0  0  0
  187.4920  178.2930  138.7490 N   0  0  0  0  0  1  0  0  0  0  0  0
  189.4980  177.2010  139.5240 C   0  0  0  0  0  0  0  0  0  0  0  0
  189.7510  176.6350  138.2830 O   0  0  0  0  0  0  0  0  0  0  0  0
  189.9920  176.6840  140.5610 O   0  0  0  0  0  1  0  0  0  0  0  0
  1  4  1  0  0  0  0
  1 10  1  0  0  0  0
  2 14  1  0  0  0  0
  2  1  1  0  0  0  0
  4  6  2  0  0  0  0
  5  3  1  0  0  0  0
  6 16  1  0  0  0  0
  6 11  1  0  0  0  0
  7  8  1  1  0  0  0
  7 14  1  0  0  0  0
  9  2  2  0  0  0  0
 10  3  2  0  0  0  0
 10 11  1  0  0  0  0
 12  7  1  0  0  0  0
 13 12  2  0  0  0  0
 13  9  1  0  0  0  0
 14  5  2  0  0  0  0
 16 15  3  0  0  0  0
 17 18  1  0  0  0  0
 18  4  1  0  0  0  0
 19 13  1  0  0  0  0
 20 19  1  0  0  0  0
 21 22  1  6  0  0  0
 21 20  1  0  0  0  0
 23 21  1  0  0  0  0
 23 25  1  0  0  0  0
 24 23  2  0  0  0  0
M  END
>  <MODEL>
2

>  <REMARK>
 VINA RESULT:      -8.4      1.103      1.179
  Name = 
  6 active torsions:
  status: ('A' for Active; 'I' for Inactive)
    1  A    between atoms: C_2  and  CA_21
    2  A    between atoms: C_5  and  C_22
    3  A    between atoms: C_6  and  C_15
    4  A    between atoms: C_6  and  C_23
    5  A    between atoms: C_10  and  C_11
    6  A    between atoms: C_15  and  CA_21
                            x       y       z     vdW  Elec       q    Type
                         _______ _______ _______ _____ _____    ______ ____

>  <TORSDO>
F 6

$$$$
=
 OpenBabel11052412503D

 25 27  0  0  1  0  0  0  0  0999 V2000
  187.1610  177.9550  145.5990 N   0  0  0  0  0  0  0  0  0  0  0  0
  186.1080  177.7310  144.6020 C   0  0  0  0  0  0  0  0  0  0  0  0
  185.6040  178.6990  147.2560 C   0  0  0  0  0  3  0  0  0  0  0  0
  188.4620  177.3720  145.5770 C   0  0  0  0  0  0  0  0  0  0  0  0
  184.5930  178.7760  146.2390 N   0  0  0  0  0  0  0  0  0  0  0  0
  189.0880  177.3910  146.7580 C   0  0  0  0  0  0  0  0  0  0  0  0
  183.7880  178.6070  143.9650 C   0  0  1  0  0  3  0  0  0  0  0  0
  182.3550  178.8270  144.3100 C   0  0  0  0  0  1  0  0  0  0  0  0
  186.5200  178.1720  143.2210 C   0  0  0  0  0  3  0  0  0  0  0  0
  186.8420  178.3370  146.9280 C   0  0  0  0  0  0  0  0  0  0  0  0
  188.1720  178.1600  148.1030 S   0  0  0  0  0  0  0  0  0  0  0  0
  184.1780  178.6780  142.6870 C   0  0  0  0  0  3  0  0  0  0  0  0
  185.6040  178.5370  142.3130 C   0  0  0  0  0  0  0  0  0  0  0  0
  184.8030  178.3900  145.0110 C   0  0  0  0  0  0  0  0  0  0  0  0
  191.4250  176.3310  147.1610 N   0  0  0  0  0  0  0  0  0  0  0  0
  190.3840  176.8030  146.9820 C   0  0  0  0  0  0  0  0  0  0  0  0
  189.9630  177.6510  143.6320 C   0  0  0  0  0  1  0  0  0  0  0  0
  189.0270  176.7040  144.3590 C   0  0  0  0  0  2  0  0  0  0  0  0
  186.0400  178.9080  140.9390 C   0  0  0  0  0  2  0  0  0  0  0  0
  184.8350  179.0180  140.0190 C   0  0  0  0  0  2  0  0  0  0  0  0
  185.0330  178.1610  138.7790 C   0  0  2  0  0  3  0  0  0  0  0  0
  186.1370  178.6870  137.9960 N   0  0  0  0  0  1  0  0  0  0  0  0
  183.7920  178.1260  137.9450 C   0  0  0  0  0  0  0  0  0  0  0  0
  183.7440  177.3150  136.8210 O   0  0  0  0  0  0  0  0  0  0  0  0
  182.7880  178.8190  138.2620 O   0  0  0  0  0  1  0  0  0  0  0  0
  1 10  1  0  0  0  0
  2 14  1  0  0  0  0
  2  1  1  0  0  0  0
  4  1  1  0  0  0  0
  4  6  2  0  0  0  0
  5  3  1  0  0  0  0
  6 16  1  0  0  0  0
  6 11  1  0  0  0  0
  7  8  1  1  0  0  0
  7 14  1  0  0  0  0
  9  2  2  0  0  0  0
 10  3  2  0  0  0  0
 10 11  1  0  0  0  0
 12  7  1  0  0  0  0
 13 12  2  0  0  0  0
 13  9  1  0  0  0  0
 14  5  2  0  0  0  0
 16 15  3  0  0  0  0
 17 18  1  0  0  0  0
 18  4  1  0  0  0  0
 19 13  1  0  0  0  0
 20 19  1  0  0  0  0
 21 22  1  6  0  0  0
 21 20  1  0  0  0  0
 23 25  1  0  0  0  0
 23 21  1  0  0  0  0
 24 23  2  0  0  0  0
M  END
>  <MODEL>
3

>  <REMARK>
 VINA RESULT:      -7.8      2.039      2.339
  Name = 
  6 active torsions:
  status: ('A' for Active; 'I' for Inactive)
    1  A    between atoms: C_2  and  CA_21
    2  A    between atoms: C_5  and  C_22
    3  A    between atoms: C_6  and  C_15
    4  A    between atoms: C_6  and  C_23
    5  A    between atoms: C_10  and  C_11
    6  A    between atoms: C_15  and  CA_21
                            x       y       z     vdW  Elec       q    Type
                         _______ _______ _______ _____ _____    ______ ____

>  <TORSDO>
F 6

$$$$
=
 OpenBabel11052412503D

 25 27  0  0  1  0  0  0  0  0999 V2000
  187.0860  178.1620  142.4080 N   0  0  0  0  0  0  0  0  0  0  0  0
  188.3230  177.3730  142.3990 C   0  0  0  0  0  0  0  0  0  0  0  0
  187.1510  178.5210  140.0440 C   0  0  0  0  0  3  0  0  0  0  0  0
  186.0940  178.1370  143.4340 C   0  0  0  0  0  0  0  0  0  0  0  0
  188.4950  178.0180  140.0280 N   0  0  0  0  0  0  0  0  0  0  0  0
  184.9030  178.6080  143.0510 C   0  0  0  0  0  0  0  0  0  0  0  0
  190.4990  177.1500  141.0670 C   0  0  1  0  0  3  0  0  0  0  0  0
  191.2000  176.8510  139.7870 C   0  0  0  0  0  1  0  0  0  0  0  0
  189.2160  177.6890  143.5710 C   0  0  0  0  0  3  0  0  0  0  0  0
  186.4980  178.6180  141.2000 C   0  0  0  0  0  0  0  0  0  0  0  0
  184.8130  179.1830  141.3480 S   0  0  0  0  0  0  0  0  0  0  0  0
  191.1870  177.1400  142.2150 C   0  0  0  0  0  3  0  0  0  0  0  0
  190.5410  177.5010  143.4980 C   0  0  0  0  0  0  0  0  0  0  0  0
  189.0760  177.5330  141.0910 C   0  0  0  0  0  0  0  0  0  0  0  0
  182.8060  178.6280  144.5840 N   0  0  0  0  0  0  0  0  0  0  0  0
  183.7400  178.6200  143.9010 C   0  0  0  0  0  0  0  0  0  0  0  0
  186.4300  178.6330  145.8320 C   0  0  0  0  0  1  0  0  0  0  0  0
  186.3450  177.5390  144.7850 C   0  0  0  0  0  2  0  0  0  0  0  0
  191.3870  177.7640  144.6950 C   0  0  0  0  0  2  0  0  0  0  0  0
  191.5870  176.4820  145.4860 C   0  0  0  0  0  2  0  0  0  0  0  0
  191.4630  176.7530  146.9770 C   0  0  2  0  0  3  0  0  0  0  0  0
  191.9440  175.6020  147.7210 N   0  0  0  0  0  1  0  0  0  0  0  0
  190.0460  177.0450  147.3540 C   0  0  0  0  0  0  0  0  0  0  0  0
  189.7720  178.0710  148.2470 O   0  0  0  0  0  1  0  0  0  0  0  0
  189.1000  176.3730  146.8620 O   0  0  0  0  0  0  0  0  0  0  0  0
  1  4  1  0  0  0  0
  2  1  1  0  0  0  0
  2  9  2  0  0  0  0
  3 10  2  0  0  0  0
  4 18  1  0  0  0  0
  5  3  1  0  0  0  0
  5 14  2  0  0  0  0
  6  4  2  0  0  0  0
  6 16  1  0  0  0  0
  7  8  1  6  0  0  0
  7 14  1  0  0  0  0
  7 12  1  0  0  0  0
 10 11  1  0  0  0  0
 10  1  1  0  0  0  0
 11  6  1  0  0  0  0
 12 13  2  0  0  0  0
 13  9  1  0  0  0  0
 13 19  1  0  0  0  0
 14  2  1  0  0  0  0
 16 15  3  0  0  0  0
 18 17  1  0  0  0  0
 19 20  1  0  0  0  0
 20 21  1  0  0  0  0
 21 23  1  0  0  0  0
 21 22  1  1  0  0  0
 23 24  1  0  0  0  0
 25 23  2  0  0  0  0
M  END
>  <MODEL>
4

>  <REMARK>
 VINA RESULT:      -7.6      3.515      6.879
  Name = 
  6 active torsions:
  status: ('A' for Active; 'I' for Inactive)
    1  A    between atoms: C_2  and  CA_21
    2  A    between atoms: C_5  and  C_22
    3  A    between atoms: C_6  and  C_15
    4  A    between atoms: C_6  and  C_23
    5  A    between atoms: C_10  and  C_11
    6  A    between atoms: C_15  and  CA_21
                            x       y       z     vdW  Elec       q    Type
                         _______ _______ _______ _____ _____    ______ ____

>  <TORSDO>
F 6

$$$$
=
 OpenBabel11052412503D

 25 27  0  0  1  0  0  0  0  0999 V2000
  189.2880  177.5620  143.8750 N   0  0  0  0  0  0  0  0  0  0  0  0
  188.2110  177.3110  144.8410 C   0  0  2  0  0  3  0  0  0  0  0  0
  190.9890  177.4290  145.5520 C   0  0  0  0  0  3  0  0  0  0  0  0
  189.1960  177.3760  142.4640 C   0  0  0  0  0  0  0  0  0  0  0  0
  189.9680  177.4750  146.5600 N   0  0  0  0  0  0  0  0  0  0  0  0
  190.3790  177.2760  141.8500 C   0  0  0  0  0  0  0  0  0  0  0  0
  187.6800  177.6540  147.3220 C   0  0  0  0  0  0  0  0  0  0  0  0
  187.9910  177.3870  148.7550 C   0  0  0  0  0  1  0  0  0  0  0  0
  186.9990  178.1710  144.5880 C   0  0  0  0  0  3  0  0  0  0  0  0
  190.6510  177.5070  144.2670 C   0  0  0  0  0  0  0  0  0  0  0  0
  191.8180  177.4150  142.9220 S   0  0  0  0  0  0  0  0  0  0  0  0
  186.4790  178.1380  146.9860 C   0  0  0  0  0  3  0  0  0  0  0  0
  186.1570  178.4840  145.5820 C   0  0  0  0  0  0  0  0  0  0  0  0
  188.6960  177.4720  146.2700 C   0  0  0  0  0  0  0  0  0  0  0  0
  190.6440  176.8230  139.3060 N   0  0  0  0  0  0  0  0  0  0  0  0
  190.5250  177.0240  140.4390 C   0  0  0  0  0  0  0  0  0  0  0  0
  187.4740  178.5080  141.0990 C   0  0  0  0  0  1  0  0  0  0  0  0
  187.8860  177.2050  141.7560 C   0  0  0  0  0  2  0  0  0  0  0  0
  184.9370  179.2840  145.2860 C   0  0  0  0  0  2  0  0  0  0  0  0
  184.7970  179.4900  143.7870 C   0  0  0  0  0  2  0  0  0  0  0  0
  183.3430  179.3510  143.3640 C   0  0  2  0  0  3  0  0  0  0  0  0
  182.6010  178.6530  144.3990 N   0  0  0  0  0  1  0  0  0  0  0  0
  183.2280  178.6090  142.0710 C   0  0  0  0  0  0  0  0  0  0  0  0
  182.1220  178.8160  141.2590 O   0  0  0  0  0  0  0  0  0  0  0  0
  184.1300  177.8080  141.7080 O   0  0  0  0  0  1  0  0  0  0  0  0
  1 10  1  0  0  0  0
  1  2  1  0  0  0  0
  2  9  1  6  0  0  0
  2 14  1  0  0  0  0
  3  5  1  0  0  0  0
  4  1  1  0  0  0  0
  6  4  2  0  0  0  0
  6 11  1  0  0  0  0
  7  8  1  0  0  0  0
  9 13  2  0  0  0  0
 10  3  2  0  0  0  0
 11 10  1  0  0  0  0
 12  7  2  0  0  0  0
 13 12  1  0  0  0  0
 14  5  2  0  0  0  0
 14  7  1  0  0  0  0
 15 16  3  0  0  0  0
 16  6  1  0  0  0  0
 17 18  1  0  0  0  0
 18  4  1  0  0  0  0
 19 13  1  0  0  0  0
 20 19  1  0  0  0  0
 21 20  1  0  0  0  0
 21 22  1  1  0  0  0
 23 21  1  0  0  0  0
 24 23  2  0  0  0  0
 25 23  1  0  0  0  0
M  END
>  <MODEL>
5

>  <REMARK>
 VINA RESULT:      -7.5      2.602      5.303
  Name = 
  6 active torsions:
  status: ('A' for Active; 'I' for Inactive)
    1  A    between atoms: C_2  and  CA_21
    2  A    between atoms: C_5  and  C_22
    3  A    between atoms: C_6  and  C_15
    4  A    between atoms: C_6  and  C_23
    5  A    between atoms: C_10  and  C_11
    6  A    between atoms: C_15  and  CA_21
                            x       y       z     vdW  Elec       q    Type
                         _______ _______ _______ _____ _____    ______ ____

>  <TORSDO>
F 6

$$$$
=
 OpenBabel11052412503D

 25 27  0  0  1  0  0  0  0  0999 V2000
  189.2000  177.6440  140.8260 N   0  0  0  0  0  0  0  0  0  0  0  0
  188.1930  178.2860  141.6800 C   0  0  2  0  0  3  0  0  0  0  0  0
  187.8660  177.8940  138.8560 C   0  0  0  0  0  3  0  0  0  0  0  0
  190.5840  177.5030  141.1380 C   0  0  0  0  0  0  0  0  0  0  0  0
  186.7490  178.2520  139.6840 N   0  0  0  0  0  0  0  0  0  0  0  0
  191.3600  177.2640  140.0760 C   0  0  0  0  0  0  0  0  0  0  0  0
  185.6590  178.6290  141.8100 C   0  0  0  0  0  0  0  0  0  0  0  0
  184.4020  179.1730  141.2250 C   0  0  0  0  0  1  0  0  0  0  0  0
  188.0460  177.5970  143.0120 C   0  0  0  0  0  3  0  0  0  0  0  0
  189.0270  177.5700  139.4190 C   0  0  0  0  0  0  0  0  0  0  0  0
  190.4970  177.1530  138.5010 S   0  0  0  0  0  0  0  0  0  0  0  0
  185.6890  178.2790  143.1010 C   0  0  0  0  0  3  0  0  0  0  0  0
  186.8980  177.6670  143.7010 C   0  0  0  0  0  0  0  0  0  0  0  0
  186.8520  178.3920  140.9770 C   0  0  0  0  0  0  0  0  0  0  0  0
  193.9470  177.0560  140.2030 N   0  0  0  0  0  0  0  0  0  0  0  0
  192.7950  177.1490  140.1480 C   0  0  0  0  0  0  0  0  0  0  0  0
  191.2720  176.3780  143.2290 C   0  0  0  0  0  1  0  0  0  0  0  0
  191.1260  177.7110  142.5200 C   0  0  0  0  0  2  0  0  0  0  0  0
  186.8060  177.0270  145.0420 C   0  0  0  0  0  2  0  0  0  0  0  0
  187.0990  178.0470  146.1300 C   0  0  0  0  0  2  0  0  0  0  0  0
  188.0210  177.4530  147.1820 C   0  0  2  0  0  3  0  0  0  0  0  0
  187.9290  178.2320  148.4040 N   0  0  0  0  0  1  0  0  0  0  0  0
  189.4370  177.4260  146.7030 C   0  0  0  0  0  0  0  0  0  0  0  0
  190.3140  176.4760  147.2070 O   0  0  0  0  0  1  0  0  0  0  0  0
  189.8370  178.2520  145.8390 O   0  0  0  0  0  0  0  0  0  0  0  0
  1  4  1  0  0  0  0
  1  2  1  0  0  0  0
  2  9  1  1  0  0  0
  3 10  2  0  0  0  0
  3  5  1  0  0  0  0
  4 18  1  0  0  0  0
  5 14  2  0  0  0  0
  6 16  1  0  0  0  0
  6  4  2  0  0  0  0
  7 12  2  0  0  0  0
  8  7  1  0  0  0  0
  9 13  2  0  0  0  0
 10  1  1  0  0  0  0
 11 10  1  0  0  0  0
 11  6  1  0  0  0  0
 12 13  1  0  0  0  0
 13 19  1  0  0  0  0
 14  2  1  0  0  0  0
 14  7  1  0  0  0  0
 16 15  3  0  0  0  0
 18 17  1  0  0  0  0
 19 20  1  0  0  0  0
 20 21  1  0  0  0  0
 21 22  1  1  0  0  0
 23 21  1  0  0  0  0
 23 24  1  0  0  0  0
 25 23  2  0  0  0  0
M  END
>  <MODEL>
6

>  <REMARK>
 VINA RESULT:      -7.4      3.651      6.234
  Name = 
  6 active torsions:
  status: ('A' for Active; 'I' for Inactive)
    1  A    between atoms: C_2  and  CA_21
    2  A    between atoms: C_5  and  C_22
    3  A    between atoms: C_6  and  C_15
    4  A    between atoms: C_6  and  C_23
    5  A    between atoms: C_10  and  C_11
    6  A    between atoms: C_15  and  CA_21
                            x       y       z     vdW  Elec       q    Type
                         _______ _______ _______ _____ _____    ______ ____

>  <TORSDO>
F 6

$$$$
=
 OpenBabel11052412503D

 25 27  0  0  1  0  0  0  0  0999 V2000
  186.5210  178.2590  140.5430 N   0  0  0  0  0  0  0  0  0  0  0  0
  186.5510  178.6560  141.9550 C   0  0  2  0  0  3  0  0  0  0  0  0
  184.1590  178.5930  140.3710 C   0  0  0  0  0  3  0  0  0  0  0  0
  187.6410  178.2530  139.6600 C   0  0  0  0  0  0  0  0  0  0  0  0
  184.0920  178.7000  141.8010 N   0  0  0  0  0  0  0  0  0  0  0  0
  187.3140  178.2500  138.3640 C   0  0  0  0  0  0  0  0  0  0  0  0
  185.0420  178.6620  144.0250 C   0  0  0  0  0  0  0  0  0  0  0  0
  183.8010  179.1170  144.7120 C   0  0  0  0  0  1  0  0  0  0  0  0
  187.4690  177.7890  142.7780 C   0  0  0  0  0  3  0  0  0  0  0  0
  185.3260  178.3460  139.7820 C   0  0  0  0  0  0  0  0  0  0  0  0
  185.5480  178.2360  138.0160 S   0  0  0  0  0  0  0  0  0  0  0  0
  186.0490  178.1560  144.7460 C   0  0  0  0  0  3  0  0  0  0  0  0
  187.2690  177.6270  144.0930 C   0  0  0  0  0  0  0  0  0  0  0  0
  185.1560  178.6840  142.5560 C   0  0  0  0  0  0  0  0  0  0  0  0
  189.0560  178.3490  136.4400 N   0  0  0  0  0  0  0  0  0  0  0  0
  188.2810  178.3050  137.2970 C   0  0  0  0  0  0  0  0  0  0  0  0
  189.7060  176.9770  140.1290 C   0  0  0  0  0  1  0  0  0  0  0  0
  189.0560  178.3460  140.1490 C   0  0  0  0  0  2  0  0  0  0  0  0
  188.2300  176.8140  144.8870 C   0  0  0  0  0  2  0  0  0  0  0  0
  189.1820  177.7230  145.6470 C   0  0  0  0  0  2  0  0  0  0  0  0
  189.7060  177.0240  146.8910 C   0  0  2  0  0  3  0  0  0  0  0  0
  189.4450  177.8480  148.0580 N   0  0  0  0  0  1  0  0  0  0  0  0
  191.1720  176.7530  146.7800 C   0  0  0  0  0  0  0  0  0  0  0  0
  191.9760  176.8590  147.9050 O   0  0  0  0  0  1  0  0  0  0  0  0
  191.6800  176.4200  145.6750 O   0  0  0  0  0  0  0  0  0  0  0  0
  1  2  1  0  0  0  0
  2 14  1  0  0  0  0
  2  9  1  1  0  0  0
  3  5  1  0  0  0  0
  4 18  1  0  0  0  0
  4  1  1  0  0  0  0
  5 14  2  0  0  0  0
  6  4  2  0  0  0  0
  7  8  1  0  0  0  0
  7 12  2  0  0  0  0
  9 13  2  0  0  0  0
 10  3  2  0  0  0  0
 10  1  1  0  0  0  0
 11  6  1  0  0  0  0
 11 10  1  0  0  0  0
 13 12  1  0  0  0  0
 13 19  1  0  0  0  0
 14  7  1  0  0  0  0
 15 16  3  0  0  0  0
 16  6  1  0  0  0  0
 17 18  1  0  0  0  0
 19 20  1  0  0  0  0
 20 21  1  0  0  0  0
 21 22  1  1  0  0  0
 23 21  1  0  0  0  0
 23 24  1  0  0  0  0
 25 23  2  0  0  0  0
M  END
>  <MODEL>
7

>  <REMARK>
 VINA RESULT:      -7.4      3.902      6.734
  Name = 
  6 active torsions:
  status: ('A' for Active; 'I' for Inactive)
    1  A    between atoms: C_2  and  CA_21
    2  A    between atoms: C_5  and  C_22
    3  A    between atoms: C_6  and  C_15
    4  A    between atoms: C_6  and  C_23
    5  A    between atoms: C_10  and  C_11
    6  A    between atoms: C_15  and  CA_21
                            x       y       z     vdW  Elec       q    Type
                         _______ _______ _______ _____ _____    ______ ____

>  <TORSDO>
F 6

$$$$
=
 OpenBabel11052412503D

 25 27  0  0  1  0  0  0  0  0999 V2000
  186.5630  178.2890  140.5730 N   0  0  0  0  0  0  0  0  0  0  0  0
  186.5750  178.6960  141.9830 C   0  0  2  0  0  3  0  0  0  0  0  0
  184.2050  178.6340  140.3660 C   0  0  0  0  0  3  0  0  0  0  0  0
  187.6950  178.2690  139.7060 C   0  0  0  0  0  0  0  0  0  0  0  0
  184.1190  178.7530  141.7940 N   0  0  0  0  0  0  0  0  0  0  0  0
  187.3850  178.2570  138.4060 C   0  0  0  0  0  0  0  0  0  0  0  0
  185.0380  178.7270  144.0310 C   0  0  0  0  0  0  0  0  0  0  0  0
  183.7900  179.1950  144.6980 C   0  0  0  0  0  1  0  0  0  0  0  0
  187.4770  177.8310  142.8250 C   0  0  0  0  0  3  0  0  0  0  0  0
  185.3790  178.3760  139.7950 C   0  0  0  0  0  0  0  0  0  0  0  0
  185.6240  178.2510  138.0340 S   0  0  0  0  0  0  0  0  0  0  0  0
  186.0320  178.2210  144.7700 C   0  0  0  0  0  3  0  0  0  0  0  0
  187.2580  177.6810  144.1380 C   0  0  0  0  0  0  0  0  0  0  0  0
  185.1730  178.7370  142.5630 C   0  0  0  0  0  0  0  0  0  0  0  0
  189.1570  178.3320  136.5070 N   0  0  0  0  0  0  0  0  0  0  0  0
  188.3670  178.2990  137.3520 C   0  0  0  0  0  0  0  0  0  0  0  0
  189.7510  176.9880  140.1960 C   0  0  0  0  0  1  0  0  0  0  0  0
  189.1030  178.3580  140.2130 C   0  0  0  0  0  2  0  0  0  0  0  0
  188.2030  176.8680  144.9520 C   0  0  0  0  0  2  0  0  0  0  0  0
  189.3430  177.7390  145.4550 C   0  0  0  0  0  2  0  0  0  0  0  0
  190.6750  177.2240  144.9360 C   0  0  2  0  0  3  0  0  0  0  0  0
  191.6330  177.1670  146.0260 N   0  0  0  0  0  1  0  0  0  0  0  0
  191.2020  178.1000  143.8440 C   0  0  0  0  0  0  0  0  0  0  0  0
  191.9440  177.5400  142.8140 O   0  0  0  0  0  0  0  0  0  0  0  0
  190.9690  179.3380  143.8480 O   0  0  0  0  0  1  0  0  0  0  0  0
  1  2  1  0  0  0  0
  2 14  1  0  0  0  0
  2  9  1  1  0  0  0
  3  5  1  0  0  0  0
  4 18  1  0  0  0  0
  4  1  1  0  0  0  0
  5 14  2  0  0  0  0
  6  4  2  0  0  0  0
  7  8  1  0  0  0  0
  7 12  2  0  0  0  0
  9 13  2  0  0  0  0
 10  3  2  0  0  0  0
 10  1  1  0  0  0  0
 11  6  1  0  0  0  0
 11 10  1  0  0  0  0
 13 12  1  0  0  0  0
 13 19  1  0  0  0  0
 14  7  1  0  0  0  0
 15 16  3  0  0  0  0
 16  6  1  0  0  0  0
 17 18  1  0  0  0  0
 19 20  1  0  0  0  0
 21 20  1  0  0  0  0
 21 22  1  1  0  0  0
 23 25  1  0  0  0  0
 23 21  1  0  0  0  0
 24 23  2  0  0  0  0
M  END
>  <MODEL>
8

>  <REMARK>
 VINA RESULT:      -7.3      3.351      6.106
  Name = 
  6 active torsions:
  status: ('A' for Active; 'I' for Inactive)
    1  A    between atoms: C_2  and  CA_21
    2  A    between atoms: C_5  and  C_22
    3  A    between atoms: C_6  and  C_15
    4  A    between atoms: C_6  and  C_23
    5  A    between atoms: C_10  and  C_11
    6  A    between atoms: C_15  and  CA_21
                            x       y       z     vdW  Elec       q    Type
                         _______ _______ _______ _____ _____    ______ ____

>  <TORSDO>
F 6

$$$$
=
 OpenBabel11052412503D

 25 27  0  0  1  0  0  0  0  0999 V2000
  188.9890  177.8950  143.2980 N   0  0  0  0  0  0  0  0  0  0  0  0
  187.6290  177.5490  143.7280 C   0  0  2  0  0  3  0  0  0  0  0  0
  189.7690  178.1460  145.5450 C   0  0  0  0  0  3  0  0  0  0  0  0
  189.5550  177.5980  142.0230 C   0  0  0  0  0  0  0  0  0  0  0  0
  188.4080  178.1050  145.9990 N   0  0  0  0  0  0  0  0  0  0  0  0
  190.8910  177.6400  141.9980 C   0  0  0  0  0  0  0  0  0  0  0  0
  186.0150  177.9810  145.6690 C   0  0  0  0  0  0  0  0  0  0  0  0
  185.6820  177.8660  147.1170 C   0  0  0  0  0  1  0  0  0  0  0  0
  186.5720  178.1910  142.8670 C   0  0  0  0  0  3  0  0  0  0  0  0
  190.0320  178.0790  144.2420 C   0  0  0  0  0  0  0  0  0  0  0  0
  191.6780  178.0750  143.5570 S   0  0  0  0  0  0  0  0  0  0  0  0
  185.0440  178.2470  144.7880 C   0  0  0  0  0  3  0  0  0  0  0  0
  185.3470  178.4390  143.3500 C   0  0  0  0  0  0  0  0  0  0  0  0
  187.4060  177.8840  145.1920 C   0  0  0  0  0  0  0  0  0  0  0  0
  192.3080  177.0550  139.9000 N   0  0  0  0  0  0  0  0  0  0  0  0
  191.6770  177.3140  140.8350 C   0  0  0  0  0  0  0  0  0  0  0  0
  188.5600  178.3350  139.8840 C   0  0  0  0  0  1  0  0  0  0  0  0
  188.7250  177.1770  140.8480 C   0  0  0  0  0  2  0  0  0  0  0  0
  184.3070  179.0170  142.4550 C   0  0  0  0  0  2  0  0  0  0  0  0
  183.8500  177.9780  141.4450 C   0  0  0  0  0  2  0  0  0  0  0  0
  183.2000  178.6510  140.2460 C   0  0  2  0  0  3  0  0  0  0  0  0
  182.4280  177.6730  139.5000 N   0  0  0  0  0  1  0  0  0  0  0  0
  184.2280  179.2720  139.3550 C   0  0  0  0  0  0  0  0  0  0  0  0
  185.2360  178.4840  138.8180 O   0  0  0  0  0  0  0  0  0  0  0  0
  184.1810  180.5020  139.0820 O   0  0  0  0  0  1  0  0  0  0  0  0
  1  2  1  0  0  0  0
  1 10  1  0  0  0  0
  2  9  1  6  0  0  0
  2 14  1  0  0  0  0
  3  5  1  0  0  0  0
  4  1  1  0  0  0  0
  6  4  2  0  0  0  0
  6 11  1  0  0  0  0
  7  8  1  0  0  0  0
  9 13  2  0  0  0  0
 10  3  2  0  0  0  0
 11 10  1  0  0  0  0
 12  7  2  0  0  0  0
 13 12  1  0  0  0  0
 14  7  1  0  0  0  0
 14  5  2  0  0  0  0
 15 16  3  0  0  0  0
 16  6  1  0  0  0  0
 17 18  1  0  0  0  0
 18  4  1  0  0  0  0
 19 13  1  0  0  0  0
 20 19  1  0  0  0  0
 21 22  1  6  0  0  0
 21 20  1  0  0  0  0
 23 21  1  0  0  0  0
 24 23  2  0  0  0  0
 25 23  1  0  0  0  0
M  END
>  <MODEL>
9

>  <REMARK>
 VINA RESULT:      -7.1      2.680      4.346
  Name = 
  6 active torsions:
  status: ('A' for Active; 'I' for Inactive)
    1  A    between atoms: C_2  and  CA_21
    2  A    between atoms: C_5  and  C_22
    3  A    between atoms: C_6  and  C_15
    4  A    between atoms: C_6  and  C_23
    5  A    between atoms: C_10  and  C_11
    6  A    between atoms: C_15  and  CA_21
                            x       y       z     vdW  Elec       q    Type
                         _______ _______ _______ _____ _____    ______ ____

>  <TORSDO>
F 6

$$$$
