=
 OpenBabel11052414503D

 55 61  0  0  1  0  0  0  0  0999 V2000
  187.3950  178.4200  139.2950 C   0  0  1  0  0  3  0  0  0  0  0  0
  185.6500  174.6280  137.0840 C   0  0  0  0  0  2  0  0  0  0  0  0
  189.0270  173.7660  135.8980 C   0  0  0  0  0  1  0  0  0  0  0  0
  191.2300  176.0380  135.7770 C   0  0  0  0  0  3  0  0  0  0  0  0
  192.5680  175.9760  135.3770 C   0  0  0  0  0  3  0  0  0  0  0  0
  191.9260  176.4710  138.0630 C   0  0  0  0  0  0  0  0  0  0  0  0
  193.2640  176.4060  137.6560 C   0  0  0  0  0  3  0  0  0  0  0  0
  188.4330  175.9260  136.5880 C   0  0  0  0  0  2  0  0  0  0  0  0
  193.5840  176.1550  136.3190 C   0  0  0  0  0  3  0  0  0  0  0  0
  186.9220  178.5760  141.7400 N   0  0  0  0  0  2  0  0  0  0  0  0
  190.8860  176.2750  137.1250 C   0  0  0  0  0  0  0  0  0  0  0  0
  184.9200  177.8830  139.6110 C   0  0  0  0  0  0  0  0  0  0  0  0
  187.7940  176.9360  139.3150 C   0  0  0  0  0  2  0  0  0  0  0  0
  185.9580  178.6470  138.8180 C   0  0  0  0  0  2  0  0  0  0  0  0
  190.2890  176.8280  139.8250 C   0  0  0  0  0  0  0  0  0  0  0  0
  185.7230  175.9820  137.4090 O   0  0  0  0  0  0  0  0  0  0  0  0
  191.6170  176.7310  139.4030 C   0  0  0  0  0  3  0  0  0  0  0  0
  186.7870  174.3070  136.1150 C   0  0  0  0  0  2  0  0  0  0  0  0
  188.1000  174.5090  136.7300 N   0  0  0  0  0  0  0  0  0  0  0  0
  185.5900  179.1610  141.7000 C   0  0  0  0  0  2  0  0  0  0  0  0
  187.6790  179.1430  140.6240 C   0  0  0  0  0  2  0  0  0  0  0  0
  189.5390  176.3250  137.5420 C   0  0  0  0  0  0  0  0  0  0  0  0
  189.2310  176.6910  138.8920 C   0  0  0  0  0  0  0  0  0  0  0  0
  184.4110  176.4320  137.6090 C   0  0  1  0  0  3  0  0  0  0  0  0
  184.2280  176.8970  139.0350 C   0  0  0  0  0  3  0  0  0  0  0  0
  184.6140  178.1790  141.0590 C   0  0  0  0  0  2  0  0  0  0  0  0
  189.0560  176.1880  141.9000 C   0  0  0  0  0  3  0  0  0  0  0  0
  189.5090  177.2630  144.0330 C   0  0  0  0  0  0  0  0  0  0  0  0
  190.7490  177.9140  142.0380 C   0  0  0  0  0  3  0  0  0  0  0  0
  190.4820  178.0640  143.4110 C   0  0  0  0  0  3  0  0  0  0  0  0
  188.7840  176.3440  143.2650 C   0  0  0  0  0  3  0  0  0  0  0  0
  190.0230  176.9940  141.2770 C   0  0  0  0  0  0  0  0  0  0  0  0
  189.1820  177.4500  145.4590 C   0  0  0  0  0  0  0  0  0  0  0  0
  187.8710  177.1980  145.8720 O   0  0  0  0  0  0  0  0  0  0  0  0
  190.0870  177.4780  146.3350 O   0  0  0  0  0  1  0  0  0  0  0  0
  184.0550  177.5270  136.6010 C   0  0  0  0  0  2  0  0  0  0  0  0
  182.6240  177.3110  136.1100 C   0  0  0  0  0  2  0  0  0  0  0  0
  181.7950  178.5480  136.4350 C   0  0  0  0  0  2  0  0  0  0  0  0
  179.6700  178.7540  137.5400 O   0  0  0  0  0  1  0  0  0  0  0  0
  180.9980  178.3580  137.7410 C   0  0  2  0  0  3  0  0  0  0  0  0
  181.6620  179.1220  138.9030 C   0  0  1  0  0  3  0  0  0  0  0  0
  182.2360  180.4870  138.4510 C   0  0  0  0  0  1  0  0  0  0  0  0
  179.9640  180.3680  140.1480 O   0  0  0  0  0  1  0  0  0  0  0  0
  181.6940  179.5500  141.4690 C   0  0  0  0  0  2  0  0  0  0  0  0
  180.8620  179.2820  140.2410 C   0  0  2  0  0  0  0  0  0  0  0  0
  179.5990  178.2020  142.3540 C   0  0  1  0  0  3  0  0  0  0  0  0
  180.2160  178.0580  140.9510 C   0  0  2  0  0  0  0  0  0  0  0  0
  181.1080  178.3440  142.1830 C   0  0  1  0  0  3  0  0  0  0  0  0
  178.9320  179.4850  142.5450 N   0  0  0  0  0  2  0  0  0  0  0  0
  179.0170  179.8270  143.9580 C   0  0  0  0  0  1  0  0  0  0  0  0
  180.5250  176.6180  140.4310 C   0  0  0  0  0  2  0  0  0  0  0  0
  179.3580  175.5800  140.4240 C   0  0  1  0  0  3  0  0  0  0  0  0
  179.3830  174.4200  139.0000 S   0  0  0  0  0  1  0  0  0  0  0  0
  179.1880  174.8900  141.6710 O   0  0  0  0  0  0  0  0  0  0  0  0
  179.5770  173.5510  141.4940 C   0  0  0  0  0  1  0  0  0  0  0  0
  1 14  1  1  0  0  0
  1 13  1  0  0  0  0
  1 21  1  0  0  0  0
  2 16  1  0  0  0  0
  3 19  1  0  0  0  0
  4 11  1  0  0  0  0
  5  4  2  0  0  0  0
  5  9  1  0  0  0  0
  6 17  1  0  0  0  0
  7  6  1  0  0  0  0
  8 19  1  0  0  0  0
  8 22  1  0  0  0  0
  9  7  2  0  0  0  0
 11 22  1  0  0  0  0
 11  6  2  0  0  0  0
 12 26  1  0  0  0  0
 14 12  1  0  0  0  0
 15 32  1  0  0  0  0
 16 24  1  0  0  0  0
 17 15  2  0  0  0  0
 18 19  1  0  0  0  0
 18  2  1  0  0  0  0
 20 10  1  0  0  0  0
 21 10  1  0  0  0  0
 22 23  2  0  0  0  0
 23 13  1  0  0  0  0
 23 15  1  0  0  0  0
 24 36  1  6  0  0  0
 24 25  1  0  0  0  0
 25 12  2  0  0  0  0
 26 20  1  0  0  0  0
 27 31  1  0  0  0  0
 28 33  1  0  0  0  0
 29 30  2  0  0  0  0
 30 28  1  0  0  0  0
 31 28  2  0  0  0  0
 32 27  2  0  0  0  0
 32 29  1  0  0  0  0
 33 34  2  0  0  0  0
 33 35  1  0  0  0  0
 37 38  1  0  0  0  0
 37 36  1  0  0  0  0
 38 40  1  0  0  0  0
 40 39  1  6  0  0  0
 40 41  1  0  0  0  0
 41 42  1  6  0  0  0
 41 45  1  0  0  0  0
 45 43  1  6  0  0  0
 45 47  1  0  0  0  0
 45 44  1  0  0  0  0
 46 49  1  6  0  0  0
 47 51  1  6  0  0  0
 47 48  1  0  0  0  0
 47 46  1  0  0  0  0
 48 44  1  6  0  0  0
 48 46  1  0  0  0  0
 49 50  1  0  0  0  0
 52 53  1  6  0  0  0
 52 51  1  0  0  0  0
 52 54  1  0  0  0  0
 55 54  1  0  0  0  0
M  END
>  <MODEL>
1

>  <REMARK>
 VINA RESULT:      -5.9      0.000      0.000
  Name = 
  12 active torsions:
  status: ('A' for Active; 'I' for Inactive)
    1  A    between atoms: C_1  and  O_30
    2  A    between atoms: C_1  and  C_53
    3  A    between atoms: C_6  and  C_14
    4  A    between atoms: C_6  and  C_20
    5  A    between atoms: C_8  and  C_22
    6  A    between atoms: C_8  and  C_43
    7  A    between atoms: C_10  and  C_32
    8  A    between atoms: N_11  and  C_29
    9  A    between atoms: C_20  and  C_22
   10  A    between atoms: C_33  and  C_52
   11  A    between atoms: C_38  and  C_53
   12  A    between atoms: C_43  and  C_51
                            x       y       z     vdW  Elec       q    Type
                         _______ _______ _______ _____ _____    ______ ____

>  <TORSDO>
F 12

$$$$
=
 OpenBabel11052414503D

 55 61  0  0  1  0  0  0  0  0999 V2000
  187.8140  178.3870  139.0700 C   0  0  1  0  0  3  0  0  0  0  0  0
  186.1730  174.5550  136.8490 C   0  0  0  0  0  2  0  0  0  0  0  0
  189.6150  173.5980  135.9580 C   0  0  0  0  0  1  0  0  0  0  0  0
  191.8640  175.8280  135.9390 C   0  0  0  0  0  3  0  0  0  0  0  0
  193.2280  175.7310  135.6470 C   0  0  0  0  0  3  0  0  0  0  0  0
  192.3890  176.3240  138.2580 C   0  0  0  0  0  0  0  0  0  0  0  0
  193.7530  176.2240  137.9590 C   0  0  0  0  0  3  0  0  0  0  0  0
  189.0110  175.7890  136.5320 C   0  0  0  0  0  2  0  0  0  0  0  0
  194.1710  175.9240  136.6590 C   0  0  0  0  0  3  0  0  0  0  0  0
  187.1560  178.6310  141.4640 N   0  0  0  0  0  2  0  0  0  0  0  0
  191.4220  176.1150  137.2480 C   0  0  0  0  0  0  0  0  0  0  0  0
  185.3120  177.9020  139.2080 C   0  0  0  0  0  0  0  0  0  0  0  0
  188.1820  176.8980  139.1680 C   0  0  0  0  0  2  0  0  0  0  0  0
  186.4230  178.6230  138.4750 C   0  0  0  0  0  2  0  0  0  0  0  0
  190.6270  176.7660  139.8740 C   0  0  0  0  0  0  0  0  0  0  0  0
  186.2470  175.9180  137.1360 O   0  0  0  0  0  0  0  0  0  0  0  0
  191.9820  176.6320  139.5600 C   0  0  0  0  0  3  0  0  0  0  0  0
  187.3760  174.1840  135.9820 C   0  0  0  0  0  2  0  0  0  0  0  0
  188.6410  174.3840  136.6910 N   0  0  0  0  0  0  0  0  0  0  0  0
  185.8420  179.2370  141.3020 C   0  0  0  0  0  2  0  0  0  0  0  0
  188.0080  179.1480  140.3940 C   0  0  0  0  0  2  0  0  0  0  0  0
  190.0470  176.2010  137.5560 C   0  0  0  0  0  0  0  0  0  0  0  0
  189.6420  176.6160  138.8660 C   0  0  0  0  0  0  0  0  0  0  0  0
  184.9320  176.3960  137.2190 C   0  0  1  0  0  3  0  0  0  0  0  0
  184.6480  176.9100  138.6100 C   0  0  0  0  0  3  0  0  0  0  0  0
  184.9000  178.2500  140.6170 C   0  0  0  0  0  2  0  0  0  0  0  0
  189.3150  176.1320  141.9020 C   0  0  0  0  0  3  0  0  0  0  0  0
  189.5360  177.3500  143.9940 C   0  0  0  0  0  0  0  0  0  0  0  0
  190.8490  178.0000  142.0460 C   0  0  0  0  0  3  0  0  0  0  0  0
  190.4790  178.1970  143.3890 C   0  0  0  0  0  3  0  0  0  0  0  0
  188.9400  176.3340  143.2360 C   0  0  0  0  0  3  0  0  0  0  0  0
  190.2530  176.9830  141.2950 C   0  0  0  0  0  0  0  0  0  0  0  0
  189.1010  177.5820  145.3840 C   0  0  0  0  0  0  0  0  0  0  0  0
  187.7310  177.7130  145.6310 O   0  0  0  0  0  0  0  0  0  0  0  0
  189.8580  177.3170  146.3540 O   0  0  0  0  0  1  0  0  0  0  0  0
  184.6760  177.4620  136.1520 C   0  0  0  0  0  2  0  0  0  0  0  0
  183.3720  177.1430  135.4250 C   0  0  0  0  0  2  0  0  0  0  0  0
  182.2130  177.7950  136.1710 C   0  0  0  0  0  2  0  0  0  0  0  0
  180.9870  175.7280  136.1370 O   0  0  0  0  0  1  0  0  0  0  0  0
  181.4180  176.7550  136.9850 C   0  0  2  0  0  3  0  0  0  0  0  0
  180.2450  177.4230  137.7280 C   0  0  1  0  0  3  0  0  0  0  0  0
  178.9420  176.5930  137.6270 C   0  0  0  0  0  1  0  0  0  0  0  0
  181.6270  177.2890  139.7420 O   0  0  0  0  0  1  0  0  0  0  0  0
  179.3620  177.5910  140.1700 C   0  0  0  0  0  2  0  0  0  0  0  0
  180.4760  177.9020  139.2020 C   0  0  2  0  0  0  0  0  0  0  0  0
  180.4280  179.8380  141.0660 C   0  0  1  0  0  3  0  0  0  0  0  0
  180.3870  179.4050  139.5900 C   0  0  2  0  0  0  0  0  0  0  0  0
  179.2260  179.0560  140.5510 C   0  0  1  0  0  3  0  0  0  0  0  0
  181.3320  179.0180  141.8660 N   0  0  0  0  0  2  0  0  0  0  0  0
  180.8220  178.9930  143.2310 C   0  0  0  0  0  1  0  0  0  0  0  0
  179.8740  180.4400  138.5370 C   0  0  0  0  0  2  0  0  0  0  0  0
  180.9340  181.1420  137.6290 C   0  0  1  0  0  3  0  0  0  0  0  0
  180.4360  181.3020  135.8680 S   0  0  0  0  0  1  0  0  0  0  0  0
  181.4230  182.3820  138.1600 O   0  0  0  0  0  0  0  0  0  0  0  0
  181.1520  183.4010  137.2310 C   0  0  0  0  0  1  0  0  0  0  0  0
  1 14  1  1  0  0  0
  1 13  1  0  0  0  0
  1 21  1  0  0  0  0
  2 16  1  0  0  0  0
  3 19  1  0  0  0  0
  4 11  1  0  0  0  0
  5  4  2  0  0  0  0
  5  9  1  0  0  0  0
  6 17  1  0  0  0  0
  7  6  1  0  0  0  0
  8 19  1  0  0  0  0
  8 22  1  0  0  0  0
  9  7  2  0  0  0  0
 11 22  1  0  0  0  0
 11  6  2  0  0  0  0
 12 26  1  0  0  0  0
 14 12  1  0  0  0  0
 15 32  1  0  0  0  0
 16 24  1  0  0  0  0
 17 15  2  0  0  0  0
 18 19  1  0  0  0  0
 18  2  1  0  0  0  0
 20 10  1  0  0  0  0
 21 10  1  0  0  0  0
 22 23  2  0  0  0  0
 23 13  1  0  0  0  0
 23 15  1  0  0  0  0
 24 36  1  6  0  0  0
 24 25  1  0  0  0  0
 25 12  2  0  0  0  0
 26 20  1  0  0  0  0
 27 31  1  0  0  0  0
 28 33  1  0  0  0  0
 29 30  2  0  0  0  0
 30 28  1  0  0  0  0
 31 28  2  0  0  0  0
 32 27  2  0  0  0  0
 32 29  1  0  0  0  0
 33 34  2  0  0  0  0
 33 35  1  0  0  0  0
 37 36  1  0  0  0  0
 37 38  1  0  0  0  0
 38 40  1  0  0  0  0
 40 39  1  6  0  0  0
 40 41  1  0  0  0  0
 41 42  1  1  0  0  0
 41 45  1  0  0  0  0
 45 47  1  0  0  0  0
 45 43  1  1  0  0  0
 45 44  1  0  0  0  0
 46 49  1  1  0  0  0
 47 51  1  6  0  0  0
 47 48  1  0  0  0  0
 47 46  1  0  0  0  0
 48 44  1  1  0  0  0
 48 46  1  0  0  0  0
 49 50  1  0  0  0  0
 52 53  1  6  0  0  0
 52 54  1  0  0  0  0
 52 51  1  0  0  0  0
 55 54  1  0  0  0  0
M  END
>  <MODEL>
2

>  <REMARK>
 VINA RESULT:      -5.7      1.682      2.771
  Name = 
  12 active torsions:
  status: ('A' for Active; 'I' for Inactive)
    1  A    between atoms: C_1  and  O_30
    2  A    between atoms: C_1  and  C_53
    3  A    between atoms: C_6  and  C_14
    4  A    between atoms: C_6  and  C_20
    5  A    between atoms: C_8  and  C_22
    6  A    between atoms: C_8  and  C_43
    7  A    between atoms: C_10  and  C_32
    8  A    between atoms: N_11  and  C_29
    9  A    between atoms: C_20  and  C_22
   10  A    between atoms: C_33  and  C_52
   11  A    between atoms: C_38  and  C_53
   12  A    between atoms: C_43  and  C_51
                            x       y       z     vdW  Elec       q    Type
                         _______ _______ _______ _____ _____    ______ ____

>  <TORSDO>
F 12

$$$$
=
 OpenBabel11052414503D

 55 61  0  0  1  0  0  0  0  0999 V2000
  187.3550  178.4190  139.2120 C   0  0  1  0  0  3  0  0  0  0  0  0
  185.8350  174.5400  136.9840 C   0  0  0  0  0  2  0  0  0  0  0  0
  189.3050  173.6930  136.0930 C   0  0  0  0  0  1  0  0  0  0  0  0
  191.4830  175.9920  136.0780 C   0  0  0  0  0  3  0  0  0  0  0  0
  192.8490  175.9380  135.7860 C   0  0  0  0  0  3  0  0  0  0  0  0
  191.9920  176.5010  138.3970 C   0  0  0  0  0  0  0  0  0  0  0  0
  193.3580  176.4440  138.0990 C   0  0  0  0  0  3  0  0  0  0  0  0
  188.6320  175.8630  136.6700 C   0  0  0  0  0  2  0  0  0  0  0  0
  193.7860  176.1590  136.7980 C   0  0  0  0  0  3  0  0  0  0  0  0
  186.6880  178.6380  141.6060 N   0  0  0  0  0  2  0  0  0  0  0  0
  191.0310  176.2630  137.3870 C   0  0  0  0  0  0  0  0  0  0  0  0
  184.8690  177.8550  139.3480 C   0  0  0  0  0  0  0  0  0  0  0  0
  187.7690  176.9420  139.3070 C   0  0  0  0  0  2  0  0  0  0  0  0
  185.9560  178.6120  138.6170 C   0  0  0  0  0  2  0  0  0  0  0  0
  190.2160  176.8850  140.0140 C   0  0  0  0  0  0  0  0  0  0  0  0
  185.8650  175.9040  137.2740 O   0  0  0  0  0  0  0  0  0  0  0  0
  191.5750  176.7940  139.7000 C   0  0  0  0  0  3  0  0  0  0  0  0
  187.0480  174.2080  136.1170 C   0  0  0  0  0  2  0  0  0  0  0  0
  188.3060  174.4460  136.8270 N   0  0  0  0  0  0  0  0  0  0  0  0
  185.3560  179.2030  141.4450 C   0  0  0  0  0  2  0  0  0  0  0  0
  187.5240  179.1830  140.5370 C   0  0  0  0  0  2  0  0  0  0  0  0
  189.6550  176.3060  137.6950 C   0  0  0  0  0  0  0  0  0  0  0  0
  189.2370  176.7060  139.0060 C   0  0  0  0  0  0  0  0  0  0  0  0
  184.5360  176.3410  137.3570 C   0  0  1  0  0  3  0  0  0  0  0  0
  184.2360  176.8430  138.7490 C   0  0  0  0  0  3  0  0  0  0  0  0
  184.4460  178.1890  140.7580 C   0  0  0  0  0  2  0  0  0  0  0  0
  189.0720  176.1110  142.0940 C   0  0  0  0  0  3  0  0  0  0  0  0
  189.1140  177.4290  144.1360 C   0  0  0  0  0  0  0  0  0  0  0  0
  190.2580  178.2210  142.1350 C   0  0  0  0  0  3  0  0  0  0  0  0
  189.8840  178.4030  143.4790 C   0  0  0  0  0  3  0  0  0  0  0  0
  188.6910  176.2960  143.4290 C   0  0  0  0  0  3  0  0  0  0  0  0
  189.8350  177.0880  141.4350 C   0  0  0  0  0  0  0  0  0  0  0  0
  188.6690  177.6350  145.5280 C   0  0  0  0  0  0  0  0  0  0  0  0
  187.3270  177.9540  145.7490 O   0  0  0  0  0  0  0  0  0  0  0  0
  189.3450  177.1980  146.4960 O   0  0  0  0  0  1  0  0  0  0  0  0
  184.2480  177.4000  136.2920 C   0  0  0  0  0  2  0  0  0  0  0  0
  183.0820  176.9340  135.4220 C   0  0  0  0  0  2  0  0  0  0  0  0
  182.0870  176.1720  136.2900 C   0  0  0  0  0  2  0  0  0  0  0  0
  180.6300  177.6780  135.1140 O   0  0  0  0  0  1  0  0  0  0  0  0
  180.6750  176.7840  136.1900 C   0  0  2  0  0  3  0  0  0  0  0  0
  180.2760  177.4560  137.5180 C   0  0  1  0  0  3  0  0  0  0  0  0
  180.9170  176.7570  138.7420 C   0  0  0  0  0  1  0  0  0  0  0  0
  179.8180  179.6470  136.5310 O   0  0  0  0  0  1  0  0  0  0  0  0
  181.8360  179.5320  137.6810 C   0  0  0  0  0  2  0  0  0  0  0  0
  180.4220  179.0120  137.6380 C   0  0  2  0  0  0  0  0  0  0  0  0
  180.4410  181.2500  139.1250 C   0  0  1  0  0  3  0  0  0  0  0  0
  180.1130  179.7550  138.9690 C   0  0  2  0  0  0  0  0  0  0  0  0
  181.5800  180.2460  138.9970 C   0  0  1  0  0  3  0  0  0  0  0  0
  180.2160  182.0060  137.8970 N   0  0  0  0  0  2  0  0  0  0  0  0
  181.1980  183.0810  137.8480 C   0  0  0  0  0  1  0  0  0  0  0  0
  179.8360  178.9260  140.2640 C   0  0  0  0  0  2  0  0  0  0  0  0
  180.2440  179.5570  141.6340 C   0  0  1  0  0  3  0  0  0  0  0  0
  178.9360  179.4820  142.9220 S   0  0  0  0  0  1  0  0  0  0  0  0
  181.5090  179.0960  142.1300 O   0  0  0  0  0  0  0  0  0  0  0  0
  181.4310  179.0080  143.5310 C   0  0  0  0  0  1  0  0  0  0  0  0
  1 14  1  1  0  0  0
  1 13  1  0  0  0  0
  1 21  1  0  0  0  0
  2 16  1  0  0  0  0
  3 19  1  0  0  0  0
  4 11  1  0  0  0  0
  5  4  2  0  0  0  0
  5  9  1  0  0  0  0
  6 17  1  0  0  0  0
  7  6  1  0  0  0  0
  8 19  1  0  0  0  0
  8 22  1  0  0  0  0
  9  7  2  0  0  0  0
 11 22  1  0  0  0  0
 11  6  2  0  0  0  0
 12 26  1  0  0  0  0
 14 12  1  0  0  0  0
 15 32  1  0  0  0  0
 16 24  1  0  0  0  0
 17 15  2  0  0  0  0
 18 19  1  0  0  0  0
 18  2  1  0  0  0  0
 20 10  1  0  0  0  0
 21 10  1  0  0  0  0
 22 23  2  0  0  0  0
 23 13  1  0  0  0  0
 23 15  1  0  0  0  0
 24 36  1  6  0  0  0
 24 25  1  0  0  0  0
 25 12  2  0  0  0  0
 26 20  1  0  0  0  0
 27 31  1  0  0  0  0
 28 33  1  0  0  0  0
 29 30  2  0  0  0  0
 30 28  1  0  0  0  0
 31 28  2  0  0  0  0
 32 27  2  0  0  0  0
 32 29  1  0  0  0  0
 33 34  2  0  0  0  0
 33 35  1  0  0  0  0
 37 38  1  0  0  0  0
 37 36  1  0  0  0  0
 40 39  1  6  0  0  0
 40 38  1  0  0  0  0
 40 41  1  0  0  0  0
 41 45  1  0  0  0  0
 41 42  1  1  0  0  0
 45 43  1  6  0  0  0
 45 44  1  0  0  0  0
 45 47  1  0  0  0  0
 46 49  1  6  0  0  0
 47 48  1  0  0  0  0
 47 46  1  0  0  0  0
 47 51  1  1  0  0  0
 48 44  1  6  0  0  0
 48 46  1  0  0  0  0
 50 49  1  0  0  0  0
 51 52  1  0  0  0  0
 52 54  1  0  0  0  0
 52 53  1  1  0  0  0
 54 55  1  0  0  0  0
M  END
>  <MODEL>
3

>  <REMARK>
 VINA RESULT:      -5.1      1.713      2.456
  Name = 
  12 active torsions:
  status: ('A' for Active; 'I' for Inactive)
    1  A    between atoms: C_1  and  O_30
    2  A    between atoms: C_1  and  C_53
    3  A    between atoms: C_6  and  C_14
    4  A    between atoms: C_6  and  C_20
    5  A    between atoms: C_8  and  C_22
    6  A    between atoms: C_8  and  C_43
    7  A    between atoms: C_10  and  C_32
    8  A    between atoms: N_11  and  C_29
    9  A    between atoms: C_20  and  C_22
   10  A    between atoms: C_33  and  C_52
   11  A    between atoms: C_38  and  C_53
   12  A    between atoms: C_43  and  C_51
                            x       y       z     vdW  Elec       q    Type
                         _______ _______ _______ _____ _____    ______ ____

>  <TORSDO>
F 12

$$$$
=
 OpenBabel11052414503D

 55 61  0  0  1  0  0  0  0  0999 V2000
  183.8580  176.7370  138.7970 C   0  0  1  0  0  3  0  0  0  0  0  0
  187.7580  176.2200  136.1810 C   0  0  0  0  0  2  0  0  0  0  0  0
  186.4150  173.0810  134.8020 C   0  0  0  0  0  1  0  0  0  0  0  0
  184.1670  171.5420  136.4160 C   0  0  0  0  0  3  0  0  0  0  0  0
  183.4970  170.3520  136.1170 C   0  0  0  0  0  3  0  0  0  0  0  0
  182.1040  172.7880  136.1190 C   0  0  0  0  0  0  0  0  0  0  0  0
  181.4380  171.5930  135.8180 C   0  0  0  0  0  3  0  0  0  0  0  0
  185.6670  174.0070  136.8210 C   0  0  0  0  0  2  0  0  0  0  0  0
  182.1330  170.3800  135.8130 C   0  0  0  0  0  3  0  0  0  0  0  0
  182.6130  178.8780  138.4950 N   0  0  0  0  0  2  0  0  0  0  0  0
  183.4870  172.7780  136.4120 C   0  0  0  0  0  0  0  0  0  0  0  0
  185.5850  178.6160  138.8370 C   0  0  0  0  0  0  0  0  0  0  0  0
  184.0700  176.4750  137.2970 C   0  0  0  0  0  2  0  0  0  0  0  0
  185.0890  177.3390  139.4800 C   0  0  0  0  0  2  0  0  0  0  0  0
  182.0350  175.1950  136.4550 C   0  0  0  0  0  0  0  0  0  0  0  0
  187.0420  176.4240  137.3610 O   0  0  0  0  0  0  0  0  0  0  0  0
  181.3970  173.9950  136.1300 C   0  0  0  0  0  3  0  0  0  0  0  0
  187.6710  174.7380  135.8210 C   0  0  0  0  0  2  0  0  0  0  0  0
  186.2950  174.3240  135.5400 N   0  0  0  0  0  0  0  0  0  0  0  0
  183.3750  179.7390  139.3870 C   0  0  0  0  0  2  0  0  0  0  0  0
  182.5830  177.5450  139.0970 C   0  0  0  0  0  2  0  0  0  0  0  0
  184.1580  173.9870  136.6990 C   0  0  0  0  0  0  0  0  0  0  0  0
  183.4070  175.2020  136.8070 C   0  0  0  0  0  0  0  0  0  0  0  0
  187.6860  177.4500  138.0650 C   0  0  1  0  0  3  0  0  0  0  0  0
  186.7680  178.6390  138.2170 C   0  0  0  0  0  3  0  0  0  0  0  0
  184.7970  179.9030  138.8560 C   0  0  0  0  0  2  0  0  0  0  0  0
  181.6760  177.4450  135.4340 C   0  0  0  0  0  3  0  0  0  0  0  0
  179.8010  178.8520  136.0790 C   0  0  0  0  0  0  0  0  0  0  0  0
  180.1010  176.6570  137.0950 C   0  0  0  0  0  3  0  0  0  0  0  0
  179.3800  177.8600  136.9800 C   0  0  0  0  0  3  0  0  0  0  0  0
  180.9640  178.6460  135.3260 C   0  0  0  0  0  3  0  0  0  0  0  0
  181.2590  176.4570  136.3400 C   0  0  0  0  0  0  0  0  0  0  0  0
  179.0860  180.1390  135.9900 C   0  0  0  0  0  0  0  0  0  0  0  0
  178.9320  180.8880  137.1590 O   0  0  0  0  0  1  0  0  0  0  0  0
  178.9350  180.7230  134.8840 O   0  0  0  0  0  0  0  0  0  0  0  0
  188.1930  176.9430  139.4160 C   0  0  0  0  0  2  0  0  0  0  0  0
  188.9180  178.0770  140.1390 C   0  0  0  0  0  2  0  0  0  0  0  0
  190.1220  177.5050  140.8800 C   0  0  0  0  0  2  0  0  0  0  0  0
  191.4390  177.7390  142.8760 O   0  0  0  0  0  1  0  0  0  0  0  0
  190.1810  178.0220  142.3310 C   0  0  2  0  0  3  0  0  0  0  0  0
  189.0370  177.4240  143.1720 C   0  0  1  0  0  3  0  0  0  0  0  0
  188.8840  175.9000  142.9480 C   0  0  0  0  0  1  0  0  0  0  0  0
  189.8650  178.8230  145.0000 O   0  0  0  0  0  1  0  0  0  0  0  0
  189.3750  176.6390  145.6290 C   0  0  0  0  0  2  0  0  0  0  0  0
  188.9840  177.7610  144.7010 C   0  0  2  0  0  0  0  0  0  0  0  0
  187.5970  178.0480  146.9860 C   0  0  1  0  0  3  0  0  0  0  0  0
  187.6310  177.9050  145.4540 C   0  0  2  0  0  0  0  0  0  0  0  0
  188.0510  176.7300  146.3680 C   0  0  1  0  0  3  0  0  0  0  0  0
  188.7090  178.8400  147.5000 N   0  0  0  0  0  2  0  0  0  0  0  0
  188.8810  178.5070  148.9080 C   0  0  0  0  0  1  0  0  0  0  0  0
  186.3030  177.5240  144.7240 C   0  0  0  0  0  2  0  0  0  0  0  0
  185.2520  178.6550  144.4860 C   0  0  1  0  0  3  0  0  0  0  0  0
  184.9310  179.0310  142.7170 S   0  0  0  0  0  1  0  0  0  0  0  0
  184.0330  178.4790  145.2230 O   0  0  0  0  0  0  0  0  0  0  0  0
  182.9550  178.8050  144.3830 C   0  0  0  0  0  1  0  0  0  0  0  0
  1 13  1  6  0  0  0
  1 21  1  0  0  0  0
  1 14  1  0  0  0  0
  2 16  1  0  0  0  0
  3 19  1  0  0  0  0
  5  4  2  0  0  0  0
  6 17  2  0  0  0  0
  6 11  1  0  0  0  0
  7  6  1  0  0  0  0
  9  7  2  0  0  0  0
  9  5  1  0  0  0  0
 10 21  1  0  0  0  0
 10 20  1  0  0  0  0
 11  4  1  0  0  0  0
 11 22  2  0  0  0  0
 12 26  1  0  0  0  0
 12 14  1  0  0  0  0
 15 23  2  0  0  0  0
 16 24  1  0  0  0  0
 17 15  1  0  0  0  0
 18  2  1  0  0  0  0
 19 18  1  0  0  0  0
 19  8  1  0  0  0  0
 22 23  1  0  0  0  0
 22  8  1  0  0  0  0
 23 13  1  0  0  0  0
 24 25  1  0  0  0  0
 24 36  1  1  0  0  0
 25 12  2  0  0  0  0
 26 20  1  0  0  0  0
 27 32  1  0  0  0  0
 28 30  2  0  0  0  0
 30 29  1  0  0  0  0
 31 27  2  0  0  0  0
 31 28  1  0  0  0  0
 32 15  1  0  0  0  0
 32 29  2  0  0  0  0
 33 28  1  0  0  0  0
 33 34  1  0  0  0  0
 35 33  2  0  0  0  0
 36 37  1  0  0  0  0
 37 38  1  0  0  0  0
 38 40  1  0  0  0  0
 40 39  1  1  0  0  0
 40 41  1  0  0  0  0
 41 42  1  1  0  0  0
 41 45  1  0  0  0  0
 45 43  1  1  0  0  0
 45 47  1  0  0  0  0
 45 44  1  0  0  0  0
 46 49  1  6  0  0  0
 47 51  1  6  0  0  0
 47 48  1  0  0  0  0
 47 46  1  0  0  0  0
 48 44  1  6  0  0  0
 48 46  1  0  0  0  0
 49 50  1  0  0  0  0
 52 53  1  6  0  0  0
 52 51  1  0  0  0  0
 52 54  1  0  0  0  0
 55 54  1  0  0  0  0
M  END
>  <MODEL>
4

>  <REMARK>
 VINA RESULT:      -5.1      2.986      8.771
  Name = 
  12 active torsions:
  status: ('A' for Active; 'I' for Inactive)
    1  A    between atoms: C_1  and  O_30
    2  A    between atoms: C_1  and  C_53
    3  A    between atoms: C_6  and  C_14
    4  A    between atoms: C_6  and  C_20
    5  A    between atoms: C_8  and  C_22
    6  A    between atoms: C_8  and  C_43
    7  A    between atoms: C_10  and  C_32
    8  A    between atoms: N_11  and  C_29
    9  A    between atoms: C_20  and  C_22
   10  A    between atoms: C_33  and  C_52
   11  A    between atoms: C_38  and  C_53
   12  A    between atoms: C_43  and  C_51
                            x       y       z     vdW  Elec       q    Type
                         _______ _______ _______ _____ _____    ______ ____

>  <TORSDO>
F 12

$$$$
=
 OpenBabel11052414503D

 55 61  0  0  1  0  0  0  0  0999 V2000
  184.0380  176.6970  138.5280 C   0  0  1  0  0  3  0  0  0  0  0  0
  187.8030  175.9420  135.7760 C   0  0  0  0  0  2  0  0  0  0  0  0
  186.3060  172.7930  134.5940 C   0  0  0  0  0  1  0  0  0  0  0  0
  184.0840  171.3980  136.3670 C   0  0  0  0  0  3  0  0  0  0  0  0
  183.3640  170.2190  136.1480 C   0  0  0  0  0  3  0  0  0  0  0  0
  182.0490  172.6970  136.1020 C   0  0  0  0  0  0  0  0  0  0  0  0
  181.3340  171.5130  135.8820 C   0  0  0  0  0  3  0  0  0  0  0  0
  185.6750  173.8280  136.6000 C   0  0  0  0  0  2  0  0  0  0  0  0
  181.9910  170.2780  135.9010 C   0  0  0  0  0  3  0  0  0  0  0  0
  182.8480  178.8620  138.1840 N   0  0  0  0  0  2  0  0  0  0  0  0
  183.4420  172.6550  136.3370 C   0  0  0  0  0  0  0  0  0  0  0  0
  185.8220  178.5180  138.4130 C   0  0  0  0  0  0  0  0  0  0  0  0
  184.1780  176.3650  137.0340 C   0  0  0  0  0  2  0  0  0  0  0  0
  185.3160  177.2870  139.1320 C   0  0  0  0  0  2  0  0  0  0  0  0
  182.0690  175.1170  136.3350 C   0  0  0  0  0  0  0  0  0  0  0  0
  187.1460  176.2190  136.9750 O   0  0  0  0  0  0  0  0  0  0  0  0
  181.3810  173.9260  136.0890 C   0  0  0  0  0  3  0  0  0  0  0  0
  187.6560  174.4490  135.4850 C   0  0  0  0  0  2  0  0  0  0  0  0
  186.2570  174.0690  135.2810 N   0  0  0  0  0  0  0  0  0  0  0  0
  183.6740  179.7360  139.0050 C   0  0  0  0  0  2  0  0  0  0  0  0
  182.8030  177.5580  138.8450 C   0  0  0  0  0  2  0  0  0  0  0  0
  184.1620  173.8510  136.5420 C   0  0  0  0  0  0  0  0  0  0  0  0
  183.4550  175.0940  136.6280 C   0  0  0  0  0  0  0  0  0  0  0  0
  187.8510  177.2530  137.6060 C   0  0  1  0  0  3  0  0  0  0  0  0
  186.9770  178.4760  137.7430 C   0  0  0  0  0  3  0  0  0  0  0  0
  185.0760  179.8300  138.4090 C   0  0  0  0  0  2  0  0  0  0  0  0
  180.2900  176.6970  137.0930 C   0  0  0  0  0  3  0  0  0  0  0  0
  179.9180  178.8260  135.9790 C   0  0  0  0  0  0  0  0  0  0  0  0
  181.6770  177.3240  135.2090 C   0  0  0  0  0  3  0  0  0  0  0  0
  180.9620  178.5290  135.0870 C   0  0  0  0  0  3  0  0  0  0  0  0
  179.5730  177.8930  136.9650 C   0  0  0  0  0  3  0  0  0  0  0  0
  181.3280  176.3980  136.1970 C   0  0  0  0  0  0  0  0  0  0  0  0
  179.1270  180.0610  135.8260 C   0  0  0  0  0  0  0  0  0  0  0  0
  178.9370  180.8650  136.9530 O   0  0  0  0  0  1  0  0  0  0  0  0
  178.9340  180.5710  134.6910 O   0  0  0  0  0  0  0  0  0  0  0  0
  188.4000  176.7870  138.9560 C   0  0  0  0  0  2  0  0  0  0  0  0
  189.6770  177.5620  139.2740 C   0  0  0  0  0  2  0  0  0  0  0  0
  190.6690  176.6280  139.9580 C   0  0  0  0  0  2  0  0  0  0  0  0
  192.4290  177.1610  141.5070 O   0  0  0  0  0  1  0  0  0  0  0  0
  191.0360  177.1400  141.3660 C   0  0  2  0  0  3  0  0  0  0  0  0
  190.3570  176.2830  142.4530 C   0  0  1  0  0  3  0  0  0  0  0  0
  191.3580  175.8170  143.5380 C   0  0  0  0  0  1  0  0  0  0  0  0
  187.9360  176.0510  142.7150 O   0  0  0  0  0  1  0  0  0  0  0  0
  188.6860  178.2510  142.7760 C   0  0  0  0  0  2  0  0  0  0  0  0
  189.0450  176.8270  143.1160 C   0  0  2  0  0  0  0  0  0  0  0  0
  187.7560  177.8850  145.2230 C   0  0  1  0  0  3  0  0  0  0  0  0
  188.9870  177.1780  144.6300 C   0  0  2  0  0  0  0  0  0  0  0  0
  188.6490  178.6380  144.2450 C   0  0  1  0  0  3  0  0  0  0  0  0
  186.5060  177.4400  144.6160 N   0  0  0  0  0  2  0  0  0  0  0  0
  185.4300  178.2620  145.1540 C   0  0  0  0  0  1  0  0  0  0  0  0
  190.3040  177.1720  145.4700 C   0  0  0  0  0  2  0  0  0  0  0  0
  190.2080  176.7550  146.9730 C   0  0  1  0  0  3  0  0  0  0  0  0
  191.8320  176.5110  147.7960 S   0  0  0  0  0  1  0  0  0  0  0  0
  189.3360  177.5880  147.7500 O   0  0  0  0  0  0  0  0  0  0  0  0
  190.0930  178.2020  148.7620 C   0  0  0  0  0  1  0  0  0  0  0  0
  1 13  1  6  0  0  0
  1 21  1  0  0  0  0
  1 14  1  0  0  0  0
  2 16  1  0  0  0  0
  3 19  1  0  0  0  0
  5  4  2  0  0  0  0
  6 11  1  0  0  0  0
  7  9  2  0  0  0  0
  7  6  1  0  0  0  0
  9  5  1  0  0  0  0
 10 21  1  0  0  0  0
 10 20  1  0  0  0  0
 11  4  1  0  0  0  0
 11 22  2  0  0  0  0
 12 14  1  0  0  0  0
 15 23  2  0  0  0  0
 16 24  1  0  0  0  0
 17  6  2  0  0  0  0
 17 15  1  0  0  0  0
 18  2  1  0  0  0  0
 19 18  1  0  0  0  0
 19  8  1  0  0  0  0
 22  8  1  0  0  0  0
 22 23  1  0  0  0  0
 23 13  1  0  0  0  0
 24 25  1  0  0  0  0
 24 36  1  1  0  0  0
 25 12  2  0  0  0  0
 26 12  1  0  0  0  0
 26 20  1  0  0  0  0
 28 31  2  0  0  0  0
 29 32  1  0  0  0  0
 30 29  2  0  0  0  0
 30 28  1  0  0  0  0
 31 27  1  0  0  0  0
 32 15  1  0  0  0  0
 32 27  2  0  0  0  0
 33 28  1  0  0  0  0
 33 34  1  0  0  0  0
 35 33  2  0  0  0  0
 36 37  1  0  0  0  0
 37 38  1  0  0  0  0
 38 40  1  0  0  0  0
 40 39  1  1  0  0  0
 40 41  1  0  0  0  0
 41 45  1  0  0  0  0
 41 42  1  1  0  0  0
 44 45  1  0  0  0  0
 45 43  1  6  0  0  0
 45 47  1  0  0  0  0
 46 49  1  6  0  0  0
 47 46  1  0  0  0  0
 47 51  1  1  0  0  0
 48 44  1  6  0  0  0
 48 47  1  0  0  0  0
 48 46  1  0  0  0  0
 49 50  1  0  0  0  0
 51 52  1  0  0  0  0
 52 54  1  0  0  0  0
 52 53  1  1  0  0  0
 54 55  1  0  0  0  0
M  END
>  <MODEL>
5

>  <REMARK>
 VINA RESULT:      -4.1      3.518      9.261
  Name = 
  12 active torsions:
  status: ('A' for Active; 'I' for Inactive)
    1  A    between atoms: C_1  and  O_30
    2  A    between atoms: C_1  and  C_53
    3  A    between atoms: C_6  and  C_14
    4  A    between atoms: C_6  and  C_20
    5  A    between atoms: C_8  and  C_22
    6  A    between atoms: C_8  and  C_43
    7  A    between atoms: C_10  and  C_32
    8  A    between atoms: N_11  and  C_29
    9  A    between atoms: C_20  and  C_22
   10  A    between atoms: C_33  and  C_52
   11  A    between atoms: C_38  and  C_53
   12  A    between atoms: C_43  and  C_51
                            x       y       z     vdW  Elec       q    Type
                         _______ _______ _______ _____ _____    ______ ____

>  <TORSDO>
F 12

$$$$
=
 OpenBabel11052414503D

 55 61  0  0  1  0  0  0  0  0999 V2000
  184.8810  176.1510  135.4950 C   0  0  1  0  0  3  0  0  0  0  0  0
  186.0320  177.7950  139.7720 C   0  0  0  0  0  2  0  0  0  0  0  0
  182.7990  179.5450  139.9680 C   0  0  0  0  0  1  0  0  0  0  0  0
  181.2480  180.1950  137.2850 C   0  0  0  0  0  3  0  0  0  0  0  0
  180.0210  180.8340  137.0850 C   0  0  0  0  0  3  0  0  0  0  0  0
  180.2950  178.1050  136.4940 C   0  0  0  0  0  0  0  0  0  0  0  0
  179.0690  178.7510  136.2980 C   0  0  0  0  0  3  0  0  0  0  0  0
  183.7600  178.8700  137.9400 C   0  0  0  0  0  2  0  0  0  0  0  0
  178.9310  180.1100  136.5960 C   0  0  0  0  0  3  0  0  0  0  0  0
  184.9550  173.6730  135.2190 N   0  0  0  0  0  2  0  0  0  0  0  0
  181.4030  178.8200  137.0040 C   0  0  0  0  0  0  0  0  0  0  0  0
  187.0690  175.3500  136.5370 C   0  0  0  0  0  0  0  0  0  0  0  0
  184.1460  176.1280  136.8450 C   0  0  0  0  0  2  0  0  0  0  0  0
  186.3910  176.3620  135.6390 C   0  0  0  0  0  2  0  0  0  0  0  0
  181.6470  176.0890  136.3460 C   0  0  0  0  0  0  0  0  0  0  0  0
  186.2270  177.5600  138.4110 O   0  0  0  0  0  0  0  0  0  0  0  0
  180.4250  176.7460  136.1850 C   0  0  0  0  0  3  0  0  0  0  0  0
  185.0330  178.9410  139.9210 C   0  0  0  0  0  2  0  0  0  0  0  0
  183.7200  178.5940  139.3750 N   0  0  0  0  0  0  0  0  0  0  0  0
  186.3750  173.4930  134.9510 C   0  0  0  0  0  2  0  0  0  0  0  0
  184.5540  174.9380  134.6060 C   0  0  0  0  0  2  0  0  0  0  0  0
  182.6340  178.1620  137.2160 C   0  0  0  0  0  0  0  0  0  0  0  0
  182.7860  176.7990  136.8020 C   0  0  0  0  0  0  0  0  0  0  0  0
  187.5540  177.1420  138.2470 C   0  0  1  0  0  3  0  0  0  0  0  0
  187.5970  175.7340  137.7020 C   0  0  0  0  0  3  0  0  0  0  0  0
  187.1860  173.8880  136.1820 C   0  0  0  0  0  2  0  0  0  0  0  0
  181.3330  174.1150  134.8500 C   0  0  0  0  0  3  0  0  0  0  0  0
  181.7910  171.8530  135.6130 C   0  0  0  0  0  0  0  0  0  0  0  0
  182.1260  173.7490  137.1080 C   0  0  0  0  0  3  0  0  0  0  0  0
  182.1590  172.3630  136.8700 C   0  0  0  0  0  3  0  0  0  0  0  0
  181.3560  172.7340  134.6160 C   0  0  0  0  0  3  0  0  0  0  0  0
  181.6930  174.6230  136.1080 C   0  0  0  0  0  0  0  0  0  0  0  0
  181.7680  170.3980  135.3700 C   0  0  0  0  0  0  0  0  0  0  0  0
  180.5260  169.7760  135.2190 O   0  0  0  0  0  1  0  0  0  0  0  0
  182.7920  169.7930  134.9550 O   0  0  0  0  0  0  0  0  0  0  0  0
  188.3240  178.1220  137.3590 C   0  0  0  0  0  2  0  0  0  0  0  0
  189.7840  178.1650  137.8070 C   0  0  0  0  0  2  0  0  0  0  0  0
  189.8420  178.0690  139.3280 C   0  0  0  0  0  2  0  0  0  0  0  0
  190.5530  175.7820  139.1320 O   0  0  0  0  0  1  0  0  0  0  0  0
  190.8430  176.9880  139.7810 C   0  0  2  0  0  3  0  0  0  0  0  0
  190.8290  176.8380  141.3140 C   0  0  1  0  0  3  0  0  0  0  0  0
  192.0510  177.5180  141.9780 C   0  0  0  0  0  1  0  0  0  0  0  0
  188.4050  176.5590  141.4960 O   0  0  0  0  0  1  0  0  0  0  0  0
  189.1610  178.6700  142.1110 C   0  0  0  0  0  2  0  0  0  0  0  0
  189.5140  177.2040  142.0850 C   0  0  2  0  0  0  0  0  0  0  0  0
  188.2130  177.7060  144.3820 C   0  0  1  0  0  3  0  0  0  0  0  0
  189.4460  177.1650  143.6380 C   0  0  2  0  0  0  0  0  0  0  0  0
  189.1150  178.6770  143.6290 C   0  0  1  0  0  3  0  0  0  0  0  0
  186.9660  177.4340  143.6750 N   0  0  0  0  0  2  0  0  0  0  0  0
  185.8660  177.8600  144.5300 C   0  0  0  0  0  1  0  0  0  0  0  0
  190.7570  176.9420  144.4570 C   0  0  0  0  0  2  0  0  0  0  0  0
  190.6190  176.4610  145.9370 C   0  0  1  0  0  3  0  0  0  0  0  0
  192.1090  175.6190  146.6030 S   0  0  0  0  0  1  0  0  0  0  0  0
  190.1320  177.4710  146.8330 O   0  0  0  0  0  0  0  0  0  0  0  0
  189.1310  176.9050  147.6400 C   0  0  0  0  0  1  0  0  0  0  0  0
  1 21  1  1  0  0  0
  1 14  1  0  0  0  0
  1 13  1  0  0  0  0
  2 18  1  0  0  0  0
  5  4  1  0  0  0  0
  6 11  1  0  0  0  0
  7  6  2  0  0  0  0
  7  9  1  0  0  0  0
  8 19  1  0  0  0  0
  9  5  2  0  0  0  0
 11 22  1  0  0  0  0
 11  4  2  0  0  0  0
 12 25  2  0  0  0  0
 14 12  1  0  0  0  0
 15 23  1  0  0  0  0
 16  2  1  0  0  0  0
 17 15  2  0  0  0  0
 17  6  1  0  0  0  0
 19 18  1  0  0  0  0
 19  3  1  0  0  0  0
 20 10  1  0  0  0  0
 20 26  1  0  0  0  0
 21 10  1  0  0  0  0
 22  8  1  0  0  0  0
 23 13  1  0  0  0  0
 23 22  2  0  0  0  0
 24 36  1  6  0  0  0
 24 16  1  0  0  0  0
 25 24  1  0  0  0  0
 26 12  1  0  0  0  0
 27 32  1  0  0  0  0
 28 30  2  0  0  0  0
 30 29  1  0  0  0  0
 31 27  2  0  0  0  0
 31 28  1  0  0  0  0
 32 15  1  0  0  0  0
 32 29  2  0  0  0  0
 33 28  1  0  0  0  0
 34 33  1  0  0  0  0
 35 33  2  0  0  0  0
 36 37  1  0  0  0  0
 37 38  1  0  0  0  0
 38 40  1  0  0  0  0
 40 39  1  6  0  0  0
 40 41  1  0  0  0  0
 41 42  1  1  0  0  0
 41 45  1  0  0  0  0
 45 43  1  6  0  0  0
 45 44  1  0  0  0  0
 45 47  1  0  0  0  0
 46 49  1  6  0  0  0
 47 46  1  0  0  0  0
 47 51  1  1  0  0  0
 48 44  1  6  0  0  0
 48 47  1  0  0  0  0
 48 46  1  0  0  0  0
 49 50  1  0  0  0  0
 51 52  1  0  0  0  0
 52 53  1  1  0  0  0
 52 54  1  0  0  0  0
 54 55  1  0  0  0  0
M  END
>  <MODEL>
6

>  <REMARK>
 VINA RESULT:      -4.0      3.584      9.830
  Name = 
  12 active torsions:
  status: ('A' for Active; 'I' for Inactive)
    1  A    between atoms: C_1  and  O_30
    2  A    between atoms: C_1  and  C_53
    3  A    between atoms: C_6  and  C_14
    4  A    between atoms: C_6  and  C_20
    5  A    between atoms: C_8  and  C_22
    6  A    between atoms: C_8  and  C_43
    7  A    between atoms: C_10  and  C_32
    8  A    between atoms: N_11  and  C_29
    9  A    between atoms: C_20  and  C_22
   10  A    between atoms: C_33  and  C_52
   11  A    between atoms: C_38  and  C_53
   12  A    between atoms: C_43  and  C_51
                            x       y       z     vdW  Elec       q    Type
                         _______ _______ _______ _____ _____    ______ ____

>  <TORSDO>
F 12

$$$$
=
 OpenBabel11052414503D

 55 61  0  0  1  0  0  0  0  0999 V2000
  185.2890  179.0670  138.9370 C   0  0  1  0  0  3  0  0  0  0  0  0
  182.2970  177.4860  142.2340 C   0  0  0  0  0  2  0  0  0  0  0  0
  179.4750  178.0350  139.9340 C   0  0  0  0  0  1  0  0  0  0  0  0
  179.8310  180.0730  137.5370 C   0  0  0  0  0  3  0  0  0  0  0  0
  178.9330  180.4530  136.5350 C   0  0  0  0  0  3  0  0  0  0  0  0
  181.2290  178.9790  135.8790 C   0  0  0  0  0  0  0  0  0  0  0  0
  180.3250  179.3600  134.8800 C   0  0  0  0  0  3  0  0  0  0  0  0
  181.5400  179.1160  139.6950 C   0  0  0  0  0  2  0  0  0  0  0  0
  179.1780  180.0920  135.2080 C   0  0  0  0  0  3  0  0  0  0  0  0
  187.1420  177.5200  138.3080 N   0  0  0  0  0  2  0  0  0  0  0  0
  180.9860  179.3220  137.2290 C   0  0  0  0  0  0  0  0  0  0  0  0
  186.2720  178.1590  141.1100 C   0  0  0  0  0  0  0  0  0  0  0  0
  184.1850  177.9990  138.9050 C   0  0  0  0  0  2  0  0  0  0  0  0
  185.7840  179.3750  140.3540 C   0  0  0  0  0  2  0  0  0  0  0  0
  183.3060  177.8880  136.5150 C   0  0  0  0  0  0  0  0  0  0  0  0
  183.3230  178.2890  141.7350 O   0  0  0  0  0  0  0  0  0  0  0  0
  182.3770  178.2540  135.5390 C   0  0  0  0  0  3  0  0  0  0  0  0
  180.9690  178.0220  141.7020 C   0  0  0  0  0  2  0  0  0  0  0  0
  180.8880  177.9290  140.2430 N   0  0  0  0  0  0  0  0  0  0  0  0
  188.0900  177.8190  139.3710 C   0  0  0  0  0  2  0  0  0  0  0  0
  186.4520  178.7670  137.9760 C   0  0  0  0  0  2  0  0  0  0  0  0
  181.8920  178.9210  138.2350 C   0  0  0  0  0  0  0  0  0  0  0  0
  183.1130  178.2690  137.8660 C   0  0  0  0  0  0  0  0  0  0  0  0
  184.3280  178.3330  142.7100 C   0  0  1  0  0  3  0  0  0  0  0  0
  185.6010  177.7200  142.1780 C   0  0  0  0  0  3  0  0  0  0  0  0
  187.5100  177.3910  140.7160 C   0  0  0  0  0  2  0  0  0  0  0  0
  184.5740  175.7420  136.6680 C   0  0  0  0  0  3  0  0  0  0  0  0
  186.5810  175.3520  135.3520 C   0  0  0  0  0  0  0  0  0  0  0  0
  185.3710  177.4580  135.1580 C   0  0  0  0  0  3  0  0  0  0  0  0
  186.4480  176.6320  134.7900 C   0  0  0  0  0  3  0  0  0  0  0  0
  185.6520  174.9230  136.3090 C   0  0  0  0  0  3  0  0  0  0  0  0
  184.4460  177.0240  136.1120 C   0  0  0  0  0  0  0  0  0  0  0  0
  187.7370  174.4990  135.0160 C   0  0  0  0  0  0  0  0  0  0  0  0
  189.0180  175.0080  135.2450 O   0  0  0  0  0  1  0  0  0  0  0  0
  187.6060  173.2540  134.8770 O   0  0  0  0  0  0  0  0  0  0  0  0
  184.5440  179.7660  143.2000 C   0  0  0  0  0  2  0  0  0  0  0  0
  185.1620  179.7320  144.5970 C   0  0  0  0  0  2  0  0  0  0  0  0
  185.7860  178.3610  144.8320 C   0  0  0  0  0  2  0  0  0  0  0  0
  184.6300  178.4280  146.9380 O   0  0  0  0  0  1  0  0  0  0  0  0
  185.8230  178.0150  146.3340 C   0  0  2  0  0  3  0  0  0  0  0  0
  187.0610  178.6390  147.0080 C   0  0  1  0  0  3  0  0  0  0  0  0
  186.6970  179.3960  148.3080 C   0  0  0  0  0  1  0  0  0  0  0  0
  187.9380  176.4990  147.8030 O   0  0  0  0  0  1  0  0  0  0  0  0
  189.3690  178.2970  148.1600 C   0  0  0  0  0  2  0  0  0  0  0  0
  188.3190  177.7330  147.2350 C   0  0  2  0  0  0  0  0  0  0  0  0
  190.7150  176.8150  146.4340 C   0  0  1  0  0  3  0  0  0  0  0  0
  189.3980  177.5510  146.1300 C   0  0  2  0  0  0  0  0  0  0  0  0
  190.4430  178.1620  147.0940 C   0  0  1  0  0  3  0  0  0  0  0  0
  190.5330  175.6930  147.3480 N   0  0  0  0  0  2  0  0  0  0  0  0
  191.8520  175.2530  147.7830 C   0  0  0  0  0  1  0  0  0  0  0  0
  189.3300  178.4300  144.8400 C   0  0  0  0  0  2  0  0  0  0  0  0
  189.6860  177.7530  143.4770 C   0  0  1  0  0  3  0  0  0  0  0  0
  191.4580  177.8770  143.0090 S   0  0  0  0  0  1  0  0  0  0  0  0
  189.1940  176.4110  143.3510 O   0  0  0  0  0  0  0  0  0  0  0  0
  190.1890  175.6290  142.7410 C   0  0  0  0  0  1  0  0  0  0  0  0
  1 21  1  6  0  0  0
  1 14  1  0  0  0  0
  3 19  1  0  0  0  0
  5  4  2  0  0  0  0
  6 11  1  0  0  0  0
  7  9  2  0  0  0  0
  7  6  1  0  0  0  0
  8 19  1  0  0  0  0
  9  5  1  0  0  0  0
 10 20  1  0  0  0  0
 11  4  1  0  0  0  0
 11 22  2  0  0  0  0
 12 25  2  0  0  0  0
 13  1  1  0  0  0  0
 14 12  1  0  0  0  0
 15 23  2  0  0  0  0
 16  2  1  0  0  0  0
 16 24  1  0  0  0  0
 17  6  2  0  0  0  0
 17 15  1  0  0  0  0
 18  2  1  0  0  0  0
 19 18  1  0  0  0  0
 20 26  1  0  0  0  0
 21 10  1  0  0  0  0
 22  8  1  0  0  0  0
 23 22  1  0  0  0  0
 23 13  1  0  0  0  0
 24 36  1  6  0  0  0
 25 24  1  0  0  0  0
 26 12  1  0  0  0  0
 28 31  2  0  0  0  0
 29 32  1  0  0  0  0
 30 29  2  0  0  0  0
 30 28  1  0  0  0  0
 31 27  1  0  0  0  0
 32 15  1  0  0  0  0
 32 27  2  0  0  0  0
 33 34  1  0  0  0  0
 33 28  1  0  0  0  0
 35 33  2  0  0  0  0
 36 37  1  0  0  0  0
 37 38  1  0  0  0  0
 38 40  1  0  0  0  0
 40 39  1  1  0  0  0
 40 41  1  0  0  0  0
 41 45  1  0  0  0  0
 41 42  1  1  0  0  0
 45 43  1  1  0  0  0
 45 44  1  0  0  0  0
 46 48  1  0  0  0  0
 46 49  1  1  0  0  0
 47 51  1  6  0  0  0
 47 46  1  0  0  0  0
 47 48  1  0  0  0  0
 47 45  1  0  0  0  0
 48 44  1  1  0  0  0
 49 50  1  0  0  0  0
 52 53  1  1  0  0  0
 52 51  1  0  0  0  0
 54 52  1  0  0  0  0
 55 54  1  0  0  0  0
M  END
>  <MODEL>
7

>  <REMARK>
 VINA RESULT:      -3.8      3.269      9.505
  Name = 
  12 active torsions:
  status: ('A' for Active; 'I' for Inactive)
    1  A    between atoms: C_1  and  O_30
    2  A    between atoms: C_1  and  C_53
    3  A    between atoms: C_6  and  C_14
    4  A    between atoms: C_6  and  C_20
    5  A    between atoms: C_8  and  C_22
    6  A    between atoms: C_8  and  C_43
    7  A    between atoms: C_10  and  C_32
    8  A    between atoms: N_11  and  C_29
    9  A    between atoms: C_20  and  C_22
   10  A    between atoms: C_33  and  C_52
   11  A    between atoms: C_38  and  C_53
   12  A    between atoms: C_43  and  C_51
                            x       y       z     vdW  Elec       q    Type
                         _______ _______ _______ _____ _____    ______ ____

>  <TORSDO>
F 12

$$$$
=
 OpenBabel11052414503D

 55 61  0  0  1  0  0  0  0  0999 V2000
  184.7770  176.8290  135.8140 C   0  0  1  0  0  3  0  0  0  0  0  0
  186.6530  177.8510  140.0270 C   0  0  0  0  0  2  0  0  0  0  0  0
  183.4710  179.3810  141.0710 C   0  0  0  0  0  1  0  0  0  0  0  0
  181.4410  180.3570  138.8450 C   0  0  0  0  0  3  0  0  0  0  0  0
  180.1840  180.9560  138.9710 C   0  0  0  0  0  3  0  0  0  0  0  0
  180.4080  178.3680  137.9090 C   0  0  0  0  0  0  0  0  0  0  0  0
  179.1520  178.9730  138.0390 C   0  0  0  0  0  3  0  0  0  0  0  0
  184.0600  179.0780  138.8230 C   0  0  0  0  0  2  0  0  0  0  0  0
  179.0400  180.2610  138.5720 C   0  0  0  0  0  3  0  0  0  0  0  0
  184.8550  174.4300  135.1330 N   0  0  0  0  0  2  0  0  0  0  0  0
  181.5740  179.0520  138.3230 C   0  0  0  0  0  0  0  0  0  0  0  0
  187.1360  175.9910  136.3100 C   0  0  0  0  0  0  0  0  0  0  0  0
  184.3010  176.5610  137.2500 C   0  0  0  0  0  2  0  0  0  0  0  0
  186.2830  177.0930  135.7210 C   0  0  0  0  0  2  0  0  0  0  0  0
  181.7550  176.4710  137.2020 C   0  0  0  0  0  0  0  0  0  0  0  0
  186.6010  177.8400  138.6330 O   0  0  0  0  0  0  0  0  0  0  0  0
  180.5090  177.0820  137.3670 C   0  0  0  0  0  3  0  0  0  0  0  0
  185.6730  178.9080  140.5330 C   0  0  0  0  0  2  0  0  0  0  0  0
  184.2900  178.5830  140.1800 N   0  0  0  0  0  0  0  0  0  0  0  0
  186.2060  174.3670  134.5930 C   0  0  0  0  0  2  0  0  0  0  0  0
  184.3200  175.7530  134.8130 C   0  0  0  0  0  2  0  0  0  0  0  0
  182.8370  178.4330  138.2060 C   0  0  0  0  0  0  0  0  0  0  0  0
  182.9410  177.1600  137.5580 C   0  0  0  0  0  0  0  0  0  0  0  0
  187.8850  177.5200  138.1720 C   0  0  1  0  0  3  0  0  0  0  0  0
  187.8590  176.2170  137.4100 C   0  0  0  0  0  3  0  0  0  0  0  0
  187.2190  174.6090  135.7090 C   0  0  0  0  0  2  0  0  0  0  0  0
  182.3750  174.0750  137.5340 C   0  0  0  0  0  3  0  0  0  0  0  0
  181.8540  172.3830  135.8680 C   0  0  0  0  0  0  0  0  0  0  0  0
  181.2160  174.7060  135.5040 C   0  0  0  0  0  3  0  0  0  0  0  0
  181.2630  173.3710  135.0640 C   0  0  0  0  0  3  0  0  0  0  0  0
  182.4300  172.7470  137.0920 C   0  0  0  0  0  3  0  0  0  0  0  0
  181.7900  175.0640  136.7270 C   0  0  0  0  0  0  0  0  0  0  0  0
  181.9580  170.9900  135.3930 C   0  0  0  0  0  0  0  0  0  0  0  0
  183.2240  170.5020  135.0590 O   0  0  0  0  0  0  0  0  0  0  0  0
  181.0380  170.1590  135.6130 O   0  0  0  0  0  1  0  0  0  0  0  0
  188.4570  178.6640  137.3320 C   0  0  0  0  0  2  0  0  0  0  0  0
  189.5630  178.1190  136.4290 C   0  0  0  0  0  2  0  0  0  0  0  0
  190.5580  177.3350  137.2780 C   0  0  0  0  0  2  0  0  0  0  0  0
  190.6080  175.6590  135.5560 O   0  0  0  0  0  1  0  0  0  0  0  0
  191.4300  176.4110  136.4050 C   0  0  2  0  0  3  0  0  0  0  0  0
  192.3280  175.5180  137.2820 C   0  0  1  0  0  3  0  0  0  0  0  0
  191.8220  174.0560  137.3380 C   0  0  0  0  0  1  0  0  0  0  0  0
  194.5630  175.6680  138.2650 O   0  0  0  0  0  1  0  0  0  0  0  0
  194.3760  176.6910  136.1850 C   0  0  0  0  0  2  0  0  0  0  0  0
  193.8760  175.5520  137.0380 C   0  0  2  0  0  0  0  0  0  0  0  0
  196.0520  174.7040  135.7080 C   0  0  1  0  0  3  0  0  0  0  0  0
  194.5680  174.5390  136.0820 C   0  0  2  0  0  0  0  0  0  0  0  0
  195.0390  175.7300  135.2130 C   0  0  1  0  0  3  0  0  0  0  0  0
  196.8590  175.1990  136.8170 N   0  0  0  0  0  2  0  0  0  0  0  0
  198.0290  174.3390  136.9380 C   0  0  0  0  0  1  0  0  0  0  0  0
  193.6910  173.5910  135.2030 C   0  0  0  0  0  2  0  0  0  0  0  0
  194.0450  172.0690  135.1960 C   0  0  1  0  0  3  0  0  0  0  0  0
  194.8080  171.4620  136.7530 S   0  0  0  0  0  1  0  0  0  0  0  0
  192.9670  171.2260  134.7660 O   0  0  0  0  0  0  0  0  0  0  0  0
  193.3970  169.8890  134.8260 C   0  0  0  0  0  1  0  0  0  0  0  0
  1 21  1  6  0  0  0
  1 13  1  0  0  0  0
  2 18  1  0  0  0  0
  4  5  1  0  0  0  0
  6  7  2  0  0  0  0
  6 11  1  0  0  0  0
  7  9  1  0  0  0  0
  8 19  1  0  0  0  0
  9  5  2  0  0  0  0
 11  4  2  0  0  0  0
 12 25  2  0  0  0  0
 13 23  1  0  0  0  0
 14  1  1  0  0  0  0
 14 12  1  0  0  0  0
 15 17  2  0  0  0  0
 15 23  1  0  0  0  0
 16  2  1  0  0  0  0
 17  6  1  0  0  0  0
 19 18  1  0  0  0  0
 19  3  1  0  0  0  0
 20 10  1  0  0  0  0
 20 26  1  0  0  0  0
 21 10  1  0  0  0  0
 22 11  1  0  0  0  0
 22  8  1  0  0  0  0
 23 22  2  0  0  0  0
 24 36  1  6  0  0  0
 24 16  1  0  0  0  0
 25 24  1  0  0  0  0
 26 12  1  0  0  0  0
 28 31  2  0  0  0  0
 29 32  1  0  0  0  0
 30 29  2  0  0  0  0
 30 28  1  0  0  0  0
 31 27  1  0  0  0  0
 32 15  1  0  0  0  0
 32 27  2  0  0  0  0
 33 35  1  0  0  0  0
 33 28  1  0  0  0  0
 34 33  2  0  0  0  0
 37 38  1  0  0  0  0
 37 36  1  0  0  0  0
 40 39  1  1  0  0  0
 40 38  1  0  0  0  0
 40 41  1  0  0  0  0
 41 42  1  6  0  0  0
 44 45  1  0  0  0  0
 45 41  1  0  0  0  0
 45 43  1  1  0  0  0
 46 47  1  0  0  0  0
 46 49  1  1  0  0  0
 47 51  1  6  0  0  0
 47 45  1  0  0  0  0
 48 46  1  0  0  0  0
 48 47  1  0  0  0  0
 48 44  1  1  0  0  0
 49 50  1  0  0  0  0
 52 51  1  0  0  0  0
 52 53  1  1  0  0  0
 54 55  1  0  0  0  0
 54 52  1  0  0  0  0
M  END
>  <MODEL>
8

>  <REMARK>
 VINA RESULT:      -3.7      4.124     11.561
  Name = 
  12 active torsions:
  status: ('A' for Active; 'I' for Inactive)
    1  A    between atoms: C_1  and  O_30
    2  A    between atoms: C_1  and  C_53
    3  A    between atoms: C_6  and  C_14
    4  A    between atoms: C_6  and  C_20
    5  A    between atoms: C_8  and  C_22
    6  A    between atoms: C_8  and  C_43
    7  A    between atoms: C_10  and  C_32
    8  A    between atoms: N_11  and  C_29
    9  A    between atoms: C_20  and  C_22
   10  A    between atoms: C_33  and  C_52
   11  A    between atoms: C_38  and  C_53
   12  A    between atoms: C_43  and  C_51
                            x       y       z     vdW  Elec       q    Type
                         _______ _______ _______ _____ _____    ______ ____

>  <TORSDO>
F 12

$$$$
=
 OpenBabel11052414503D

 55 61  0  0  1  0  0  0  0  0999 V2000
  185.3930  177.1210  136.2890 C   0  0  1  0  0  3  0  0  0  0  0  0
  186.3170  177.9250  140.8520 C   0  0  0  0  0  2  0  0  0  0  0  0
  183.1160  179.7130  141.1840 C   0  0  0  0  0  1  0  0  0  0  0  0
  181.7450  180.8880  138.5820 C   0  0  0  0  0  3  0  0  0  0  0  0
  180.5470  181.5920  138.4340 C   0  0  0  0  0  3  0  0  0  0  0  0
  180.7980  179.0090  137.3700 C   0  0  0  0  0  0  0  0  0  0  0  0
  179.6000  179.7180  137.2270 C   0  0  0  0  0  3  0  0  0  0  0  0
  184.1840  179.3870  139.1230 C   0  0  0  0  0  2  0  0  0  0  0  0
  179.4730  181.0040  137.7600 C   0  0  0  0  0  3  0  0  0  0  0  0
  185.4320  174.7340  135.5680 N   0  0  0  0  0  2  0  0  0  0  0  0
  181.8880  179.5830  138.0630 C   0  0  0  0  0  0  0  0  0  0  0  0
  187.4960  176.0750  137.2880 C   0  0  0  0  0  0  0  0  0  0  0  0
  184.5770  176.8780  137.5680 C   0  0  0  0  0  2  0  0  0  0  0  0
  186.8960  177.2540  136.5530 C   0  0  0  0  0  2  0  0  0  0  0  0
  182.1130  177.0110  136.9320 C   0  0  0  0  0  0  0  0  0  0  0  0
  186.5890  177.9350  139.4830 O   0  0  0  0  0  0  0  0  0  0  0  0
  180.9170  177.7250  136.8250 C   0  0  0  0  0  3  0  0  0  0  0  0
  185.3360  179.0570  141.1520 C   0  0  0  0  0  2  0  0  0  0  0  0
  184.0510  178.8570  140.4790 N   0  0  0  0  0  0  0  0  0  0  0  0
  186.8610  174.5600  135.3520 C   0  0  0  0  0  2  0  0  0  0  0  0
  185.0960  176.1020  135.1760 C   0  0  0  0  0  2  0  0  0  0  0  0
  183.0890  178.8580  138.2200 C   0  0  0  0  0  0  0  0  0  0  0  0
  183.2370  177.5890  137.5730 C   0  0  0  0  0  0  0  0  0  0  0  0
  187.9150  177.5110  139.3210 C   0  0  1  0  0  3  0  0  0  0  0  0
  187.9600  176.2250  138.5310 C   0  0  0  0  0  3  0  0  0  0  0  0
  187.6040  174.6990  136.6780 C   0  0  0  0  0  2  0  0  0  0  0  0
  181.8090  175.3470  135.0940 C   0  0  0  0  0  3  0  0  0  0  0  0
  182.2100  172.9750  135.4450 C   0  0  0  0  0  0  0  0  0  0  0  0
  182.5330  174.5610  137.2670 C   0  0  0  0  0  3  0  0  0  0  0  0
  182.5500  173.2410  136.7820 C   0  0  0  0  0  3  0  0  0  0  0  0
  181.8170  174.0310  134.6140 C   0  0  0  0  0  3  0  0  0  0  0  0
  182.1430  175.6110  136.4320 C   0  0  0  0  0  0  0  0  0  0  0  0
  182.1700  171.5890  134.9410 C   0  0  0  0  0  0  0  0  0  0  0  0
  183.2580  170.7570  135.2190 O   0  0  0  0  0  1  0  0  0  0  0  0
  181.0830  171.0540  134.5990 O   0  0  0  0  0  0  0  0  0  0  0  0
  188.7580  178.6100  138.6720 C   0  0  0  0  0  2  0  0  0  0  0  0
  190.2370  178.2440  138.7880 C   0  0  0  0  0  2  0  0  0  0  0  0
  190.4160  177.2540  139.9330 C   0  0  0  0  0  2  0  0  0  0  0  0
  192.2830  177.3480  141.4430 O   0  0  0  0  0  1  0  0  0  0  0  0
  191.0430  177.9350  141.1660 C   0  0  2  0  0  3  0  0  0  0  0  0
  190.0870  177.8670  142.3730 C   0  0  1  0  0  3  0  0  0  0  0  0
  188.8560  176.9720  142.0930 C   0  0  0  0  0  1  0  0  0  0  0  0
  191.7220  178.4520  144.0960 O   0  0  0  0  0  1  0  0  0  0  0  0
  191.3060  176.1700  143.9250 C   0  0  0  0  0  2  0  0  0  0  0  0
  190.6910  177.5400  143.7820 C   0  0  2  0  0  0  0  0  0  0  0  0
  190.3820  176.7520  146.3330 C   0  0  1  0  0  3  0  0  0  0  0  0
  189.7790  177.2540  145.0090 C   0  0  2  0  0  0  0  0  0  0  0  0
  190.4100  175.8440  145.1080 C   0  0  1  0  0  3  0  0  0  0  0  0
  191.6820  177.3490  146.6200 N   0  0  0  0  0  2  0  0  0  0  0  0
  192.1250  176.8510  147.9160 C   0  0  0  0  0  1  0  0  0  0  0  0
  188.2390  177.1020  144.8010 C   0  0  0  0  0  2  0  0  0  0  0  0
  187.2920  177.9060  145.7490 C   0  0  1  0  0  3  0  0  0  0  0  0
  185.6670  178.3360  145.0100 S   0  0  0  0  0  1  0  0  0  0  0  0
  187.1480  177.3240  147.0530 O   0  0  0  0  0  0  0  0  0  0  0  0
  187.5960  178.2550  148.0060 C   0  0  0  0  0  1  0  0  0  0  0  0
  1 21  1  6  0  0  0
  1 14  1  0  0  0  0
  1 13  1  0  0  0  0
  2 18  1  0  0  0  0
  5  4  1  0  0  0  0
  6 11  1  0  0  0  0
  7  6  2  0  0  0  0
  7  9  1  0  0  0  0
  8 19  1  0  0  0  0
  9  5  2  0  0  0  0
 11 22  1  0  0  0  0
 11  4  2  0  0  0  0
 12 25  2  0  0  0  0
 13 23  1  0  0  0  0
 14 12  1  0  0  0  0
 15 23  1  0  0  0  0
 16  2  1  0  0  0  0
 17 15  2  0  0  0  0
 17  6  1  0  0  0  0
 19 18  1  0  0  0  0
 19  3  1  0  0  0  0
 20 10  1  0  0  0  0
 20 26  1  0  0  0  0
 21 10  1  0  0  0  0
 22  8  1  0  0  0  0
 23 22  2  0  0  0  0
 24 36  1  6  0  0  0
 24 16  1  0  0  0  0
 25 24  1  0  0  0  0
 26 12  1  0  0  0  0
 27 32  1  0  0  0  0
 28 30  2  0  0  0  0
 30 29  1  0  0  0  0
 31 27  2  0  0  0  0
 31 28  1  0  0  0  0
 32 15  1  0  0  0  0
 32 29  2  0  0  0  0
 33 34  1  0  0  0  0
 33 28  1  0  0  0  0
 35 33  2  0  0  0  0
 36 37  1  0  0  0  0
 37 38  1  0  0  0  0
 38 40  1  0  0  0  0
 40 39  1  1  0  0  0
 40 41  1  0  0  0  0
 41 42  1  6  0  0  0
 41 45  1  0  0  0  0
 45 44  1  0  0  0  0
 45 43  1  1  0  0  0
 45 47  1  0  0  0  0
 46 49  1  6  0  0  0
 47 51  1  6  0  0  0
 47 48  1  0  0  0  0
 47 46  1  0  0  0  0
 48 44  1  6  0  0  0
 48 46  1  0  0  0  0
 49 50  1  0  0  0  0
 51 52  1  0  0  0  0
 52 53  1  6  0  0  0
 52 54  1  0  0  0  0
 54 55  1  0  0  0  0
M  END
>  <MODEL>
9

>  <REMARK>
 VINA RESULT:      -3.6      3.280      9.851
  Name = 
  12 active torsions:
  status: ('A' for Active; 'I' for Inactive)
    1  A    between atoms: C_1  and  O_30
    2  A    between atoms: C_1  and  C_53
    3  A    between atoms: C_6  and  C_14
    4  A    between atoms: C_6  and  C_20
    5  A    between atoms: C_8  and  C_22
    6  A    between atoms: C_8  and  C_43
    7  A    between atoms: C_10  and  C_32
    8  A    between atoms: N_11  and  C_29
    9  A    between atoms: C_20  and  C_22
   10  A    between atoms: C_33  and  C_52
   11  A    between atoms: C_38  and  C_53
   12  A    between atoms: C_43  and  C_51
                            x       y       z     vdW  Elec       q    Type
                         _______ _______ _______ _____ _____    ______ ____

>  <TORSDO>
F 12

$$$$
