=
 OpenBabel11052414203D

 34 38  0  0  1  0  0  0  0  0999 V2000
  182.5420  178.7310  142.7760 C   0  0  0  0  0  0  0  0  0  0  0  0
  185.1230  178.4390  142.9170 C   0  0  1  0  0  3  0  0  0  0  0  0
  183.8890  178.8430  140.6400 C   0  0  2  0  0  3  0  0  0  0  0  0
  183.7700  178.6580  144.9780 C   0  0  0  0  0  2  0  0  0  0  0  0
  182.5300  179.1430  138.5180 C   0  0  1  0  0  3  0  0  0  0  0  0
  181.4630  179.0820  136.4100 O   0  0  0  0  0  0  0  0  0  0  0  0
  184.9550  179.2180  144.2140 C   0  0  0  0  0  2  0  0  0  0  0  0
  186.3610  178.9370  140.8120 C   0  0  0  0  0  3  0  0  0  0  0  0
  180.6850  176.1840  136.7020 O   0  0  0  0  0  0  0  0  0  0  0  0
  183.8180  178.3110  142.0830 C   0  0  2  0  0  3  0  0  0  0  0  0
  179.1780  177.5180  138.1100 O   0  0  0  0  0  0  0  0  0  0  0  0
  182.4710  178.9910  144.2540 C   0  0  0  0  0  2  0  0  0  0  0  0
  182.6020  178.4110  139.8800 C   0  0  1  0  0  0  0  0  0  0  0  0
  181.5590  178.5690  137.5140 C   0  0  0  0  0  0  0  0  0  0  0  0
  181.4380  178.9080  142.0510 C   0  0  0  0  0  3  0  0  0  0  0  0
  186.3110  178.9570  142.1490 C   0  0  0  0  0  3  0  0  0  0  0  0
  181.2540  176.3220  139.3120 C   0  0  0  0  0  2  0  0  0  0  0  0
  180.6090  177.1310  137.8640 S   0  0  0  0  0  0  0  0  0  0  0  0
  182.6230  176.8830  139.6740 C   0  0  0  0  0  2  0  0  0  0  0  0
  182.2970  180.6390  138.6940 C   0  0  0  0  0  1  0  0  0  0  0  0
  185.2180  178.4010  139.9960 C   0  0  2  0  0  3  0  0  0  0  0  0
  181.4420  178.7700  140.6550 O   0  0  0  0  0  0  0  0  0  0  0  0
  185.3310  178.8820  138.6860 O   0  0  0  0  0  0  0  0  0  0  0  0
  185.8970  177.8380  137.9480 C   0  0  2  0  0  3  0  0  0  0  0  0
  187.2440  178.2810  137.4110 C   0  0  0  0  0  1  0  0  0  0  0  0
  185.0230  177.4870  136.8400 N   0  0  0  0  0  2  0  0  0  0  0  0
  185.7030  176.4550  136.0750 C   0  0  0  0  0  2  0  0  0  0  0  0
  187.6080  174.5620  137.0790 F   0  0  0  0  0  0  0  0  0  0  0  0
  185.3240  175.1070  136.5880 C   0  0  0  0  0  0  0  0  0  0  0  0
  186.2960  174.2170  137.0750 C   0  0  0  0  0  0  0  0  0  0  0  0
  184.5640  172.5930  137.5620 C   0  0  0  0  0  3  0  0  0  0  0  0
  183.5960  173.4780  137.0790 C   0  0  0  0  0  3  0  0  0  0  0  0
  183.9750  174.7330  136.5930 C   0  0  0  0  0  3  0  0  0  0  0  0
  185.9130  172.9620  137.5580 C   0  0  0  0  0  3  0  0  0  0  0  0
  1 12  1  0  0  0  0
  2 16  1  6  0  0  0
  2  7  1  0  0  0  0
  3 10  1  0  0  0  0
  5 20  1  0  0  0  0
  5 13  1  0  0  0  0
  6 14  2  0  0  0  0
  7  4  1  0  0  0  0
  8 16  2  0  0  0  0
  9 18  2  0  0  0  0
 10  1  1  0  0  0  0
 10  2  1  0  0  0  0
 12  4  1  0  0  0  0
 13  3  1  0  0  0  0
 13 22  1  0  0  0  0
 14 18  1  0  0  0  0
 14  5  1  0  0  0  0
 15  1  2  0  0  0  0
 17 19  1  0  0  0  0
 18 11  2  0  0  0  0
 18 17  1  0  0  0  0
 19 13  1  0  0  0  0
 21  3  1  0  0  0  0
 21  8  1  0  0  0  0
 22 15  1  0  0  0  0
 23 21  1  0  0  0  0
 24 23  1  0  0  0  0
 25 24  1  0  0  0  0
 26 24  1  0  0  0  0
 27 29  1  0  0  0  0
 27 26  1  0  0  0  0
 29 33  2  0  0  0  0
 29 30  1  0  0  0  0
 30 28  1  0  0  0  0
 30 34  2  0  0  0  0
 32 31  2  0  0  0  0
 33 32  1  0  0  0  0
 34 31  1  0  0  0  0
M  END
>  <MODEL>
1

>  <REMARK>
 VINA RESULT:      -7.4      0.000      0.000
  Name = 
  5 active torsions:
  status: ('A' for Active; 'I' for Inactive)
    1  A    between atoms: C_3  and  C_13
    2  A    between atoms: C_3  and  N_17
    3  A    between atoms: O_5  and  C_18
    4  A    between atoms: O_5  and  C_31
    5  A    between atoms: N_17  and  C_18
                            x       y       z     vdW  Elec       q    Type
                         _______ _______ _______ _____ _____    ______ ____

>  <TORSDO>
F 5

$$$$
=
 OpenBabel11052414203D

 34 38  0  0  1  0  0  0  0  0999 V2000
  180.1790  178.6540  141.4800 C   0  0  0  0  0  0  0  0  0  0  0  0
  181.5780  178.7200  143.6720 C   0  0  1  0  0  3  0  0  0  0  0  0
  182.7010  178.6180  141.3060 C   0  0  2  0  0  3  0  0  0  0  0  0
  179.1280  179.0680  143.7360 C   0  0  0  0  0  2  0  0  0  0  0  0
  183.6200  178.4210  138.9490 C   0  0  1  0  0  3  0  0  0  0  0  0
  184.6840  177.9110  136.9010 O   0  0  0  0  0  0  0  0  0  0  0  0
  180.4690  179.6560  144.1340 C   0  0  0  0  0  2  0  0  0  0  0  0
  184.0270  179.0520  143.3550 C   0  0  0  0  0  3  0  0  0  0  0  0
  183.8580  175.0130  137.0040 O   0  0  0  0  0  0  0  0  0  0  0  0
  181.4720  178.3020  142.1800 C   0  0  2  0  0  3  0  0  0  0  0  0
  181.8930  176.3380  136.3570 O   0  0  0  0  0  0  0  0  0  0  0  0
  178.9590  179.1200  142.2220 C   0  0  0  0  0  2  0  0  0  0  0  0
  182.5320  177.9160  139.9280 C   0  0  1  0  0  0  0  0  0  0  0  0
  183.8270  177.5840  137.7090 C   0  0  0  0  0  0  0  0  0  0  0  0
  180.1180  178.5780  140.1520 C   0  0  0  0  0  3  0  0  0  0  0  0
  182.9220  179.2660  144.0780 C   0  0  0  0  0  3  0  0  0  0  0  0
  182.0980  175.6110  138.9280 C   0  0  0  0  0  2  0  0  0  0  0  0
  182.9190  176.1050  137.4290 S   0  0  0  0  0  0  0  0  0  0  0  0
  182.6410  176.3900  140.1190 C   0  0  0  0  0  2  0  0  0  0  0  0
  183.4080  179.8850  138.5780 C   0  0  0  0  0  1  0  0  0  0  0  0
  183.9850  178.2590  142.0800 C   0  0  2  0  0  3  0  0  0  0  0  0
  181.2390  178.2350  139.3800 O   0  0  0  0  0  0  0  0  0  0  0  0
  185.1280  178.5500  141.3250 O   0  0  0  0  0  0  0  0  0  0  0  0
  186.1800  178.6100  142.2430 C   0  0  2  0  0  3  0  0  0  0  0  0
  187.4960  178.6550  141.4900 C   0  0  0  0  0  1  0  0  0  0  0  0
  186.1520  177.4380  143.1040 N   0  0  0  0  0  2  0  0  0  0  0  0
  187.5270  177.1530  143.4780 C   0  0  0  0  0  2  0  0  0  0  0  0
  190.0170  176.7120  144.8310 F   0  0  0  0  0  0  0  0  0  0  0  0
  187.7130  177.3700  144.9410 C   0  0  0  0  0  0  0  0  0  0  0  0
  188.9550  177.1440  145.5560 C   0  0  0  0  0  0  0  0  0  0  0  0
  188.0190  177.8090  147.6910 C   0  0  0  0  0  3  0  0  0  0  0  0
  186.7820  178.0360  147.0800 C   0  0  0  0  0  3  0  0  0  0  0  0
  186.6290  177.8160  145.7080 C   0  0  0  0  0  3  0  0  0  0  0  0
  189.1030  177.3630  146.9300 C   0  0  0  0  0  3  0  0  0  0  0  0
  1 10  1  0  0  0  0
  1 12  1  0  0  0  0
  2 16  1  6  0  0  0
  2  7  1  0  0  0  0
  3 21  1  0  0  0  0
  3 10  1  0  0  0  0
  4  7  1  0  0  0  0
  5 13  1  0  0  0  0
  6 14  2  0  0  0  0
  8 16  2  0  0  0  0
  9 18  2  0  0  0  0
 10  2  1  0  0  0  0
 11 18  2  0  0  0  0
 12  4  1  0  0  0  0
 13 19  1  0  0  0  0
 13  3  1  0  0  0  0
 14  5  1  0  0  0  0
 15  1  2  0  0  0  0
 17 19  1  0  0  0  0
 18 14  1  0  0  0  0
 18 17  1  0  0  0  0
 20  5  1  0  0  0  0
 21  8  1  0  0  0  0
 22 13  1  0  0  0  0
 22 15  1  0  0  0  0
 23 21  1  0  0  0  0
 23 24  1  0  0  0  0
 24 26  1  0  0  0  0
 25 24  1  0  0  0  0
 26 27  1  0  0  0  0
 27 29  1  0  0  0  0
 28 30  1  0  0  0  0
 29 30  2  0  0  0  0
 29 33  1  0  0  0  0
 30 34  1  0  0  0  0
 32 31  1  0  0  0  0
 33 32  2  0  0  0  0
 34 31  2  0  0  0  0
M  END
>  <MODEL>
2

>  <REMARK>
 VINA RESULT:      -7.2      2.966      5.565
  Name = 
  5 active torsions:
  status: ('A' for Active; 'I' for Inactive)
    1  A    between atoms: C_3  and  C_13
    2  A    between atoms: C_3  and  N_17
    3  A    between atoms: O_5  and  C_18
    4  A    between atoms: O_5  and  C_31
    5  A    between atoms: N_17  and  C_18
                            x       y       z     vdW  Elec       q    Type
                         _______ _______ _______ _____ _____    ______ ____

>  <TORSDO>
F 5

$$$$
=
 OpenBabel11052414203D

 34 38  0  0  1  0  0  0  0  0999 V2000
  181.5870  178.0710  135.4560 C   0  0  0  0  0  0  0  0  0  0  0  0
  181.0820  179.7370  137.3890 C   0  0  1  0  0  3  0  0  0  0  0  0
  183.2780  178.3070  137.3200 C   0  0  2  0  0  3  0  0  0  0  0  0
  179.6420  179.6760  135.3770 C   0  0  0  0  0  2  0  0  0  0  0  0
  185.2980  176.7810  137.1480 C   0  0  1  0  0  3  0  0  0  0  0  0
  187.0760  175.2390  137.3700 O   0  0  0  0  0  0  0  0  0  0  0  0
  180.4840  180.5720  136.2660 C   0  0  0  0  0  2  0  0  0  0  0  0
  182.9770  180.1470  138.9550 C   0  0  0  0  0  3  0  0  0  0  0  0
  185.2490  173.0040  138.2390 O   0  0  0  0  0  0  0  0  0  0  0  0
  181.8020  178.4490  136.9040 C   0  0  2  0  0  3  0  0  0  0  0  0
  184.9920  173.2930  135.8130 O   0  0  0  0  0  0  0  0  0  0  0  0
  180.5360  178.7180  134.5990 C   0  0  0  0  0  2  0  0  0  0  0  0
  183.7620  176.8690  136.9770 C   0  0  1  0  0  0  0  0  0  0  0  0
  185.8730  175.3860  137.2160 C   0  0  0  0  0  0  0  0  0  0  0  0
  182.3750  177.1520  134.9010 C   0  0  0  0  0  3  0  0  0  0  0  0
  181.9030  180.6080  138.3050 C   0  0  0  0  0  3  0  0  0  0  0  0
  183.1490  174.4290  137.3920 C   0  0  0  0  0  2  0  0  0  0  0  0
  184.8480  173.9590  137.1520 S   0  0  0  0  0  0  0  0  0  0  0  0
  183.0550  175.8600  137.9050 C   0  0  0  0  0  2  0  0  0  0  0  0
  186.0300  177.6120  136.1000 C   0  0  0  0  0  1  0  0  0  0  0  0
  183.4360  178.7250  138.7960 C   0  0  2  0  0  3  0  0  0  0  0  0
  183.4350  176.5640  135.6080 O   0  0  0  0  0  0  0  0  0  0  0  0
  184.7700  178.6280  139.2090 O   0  0  0  0  0  0  0  0  0  0  0  0
  184.7280  178.0840  140.4960 C   0  0  2  0  0  3  0  0  0  0  0  0
  183.2870  177.7910  140.8660 C   0  0  0  0  0  1  0  0  0  0  0  0
  185.2930  179.0260  141.4490 N   0  0  0  0  0  2  0  0  0  0  0  0
  186.2330  178.2840  142.2720 C   0  0  0  0  0  2  0  0  0  0  0  0
  187.7950  177.2040  144.4200 F   0  0  0  0  0  0  0  0  0  0  0  0
  185.7950  178.3130  143.6970 C   0  0  0  0  0  0  0  0  0  0  0  0
  186.6000  177.7740  144.7140 C   0  0  0  0  0  0  0  0  0  0  0  0
  184.9390  178.4070  146.3630 C   0  0  0  0  0  3  0  0  0  0  0  0
  184.1380  178.9450  145.3520 C   0  0  0  0  0  3  0  0  0  0  0  0
  184.5640  178.8980  144.0210 C   0  0  0  0  0  3  0  0  0  0  0  0
  186.1680  177.8220  146.0440 C   0  0  0  0  0  3  0  0  0  0  0  0
  1 10  1  0  0  0  0
  2  7  1  6  0  0  0
  2 16  1  0  0  0  0
  3 21  1  0  0  0  0
  4  7  1  0  0  0  0
  5 14  1  0  0  0  0
 10  3  1  0  0  0  0
 10  2  1  0  0  0  0
 11 18  2  0  0  0  0
 12  4  1  0  0  0  0
 12  1  1  0  0  0  0
 13  5  1  0  0  0  0
 13  3  1  0  0  0  0
 13 19  1  0  0  0  0
 14  6  2  0  0  0  0
 15  1  2  0  0  0  0
 15 22  1  0  0  0  0
 16  8  2  0  0  0  0
 17 19  1  0  0  0  0
 18 14  1  0  0  0  0
 18 17  1  0  0  0  0
 18  9  2  0  0  0  0
 20  5  1  0  0  0  0
 21  8  1  0  0  0  0
 21 23  1  0  0  0  0
 22 13  1  0  0  0  0
 23 24  1  0  0  0  0
 24 25  1  0  0  0  0
 24 26  1  0  0  0  0
 26 27  1  0  0  0  0
 27 29  1  0  0  0  0
 28 30  1  0  0  0  0
 29 33  2  0  0  0  0
 29 30  1  0  0  0  0
 30 34  2  0  0  0  0
 32 31  2  0  0  0  0
 33 32  1  0  0  0  0
 34 31  1  0  0  0  0
M  END
>  <MODEL>
3

>  <REMARK>
 VINA RESULT:      -6.6      2.876      6.701
  Name = 
  5 active torsions:
  status: ('A' for Active; 'I' for Inactive)
    1  A    between atoms: C_3  and  C_13
    2  A    between atoms: C_3  and  N_17
    3  A    between atoms: O_5  and  C_18
    4  A    between atoms: O_5  and  C_31
    5  A    between atoms: N_17  and  C_18
                            x       y       z     vdW  Elec       q    Type
                         _______ _______ _______ _____ _____    ______ ____

>  <TORSDO>
F 5

$$$$
=
 OpenBabel11052414203D

 34 38  0  0  1  0  0  0  0  0999 V2000
  182.4200  178.6590  142.7380 C   0  0  0  0  0  0  0  0  0  0  0  0
  185.0180  178.5700  142.8410 C   0  0  1  0  0  3  0  0  0  0  0  0
  183.7240  178.9320  140.5900 C   0  0  2  0  0  3  0  0  0  0  0  0
  183.6800  178.6280  144.9230 C   0  0  0  0  0  2  0  0  0  0  0  0
  182.3170  179.1770  138.4930 C   0  0  1  0  0  3  0  0  0  0  0  0
  181.2290  179.0850  136.3960 O   0  0  0  0  0  0  0  0  0  0  0  0
  184.8060  179.3000  144.1600 C   0  0  0  0  0  2  0  0  0  0  0  0
  186.1830  179.2180  140.7360 C   0  0  0  0  0  3  0  0  0  0  0  0
  180.6880  176.1270  136.6200 O   0  0  0  0  0  0  0  0  0  0  0  0
  183.7160  178.3590  142.0200 C   0  0  2  0  0  3  0  0  0  0  0  0
  179.1000  177.3010  138.0810 O   0  0  0  0  0  0  0  0  0  0  0  0
  182.3490  178.8750  144.2230 C   0  0  0  0  0  2  0  0  0  0  0  0
  182.4650  178.4190  139.8340 C   0  0  1  0  0  0  0  0  0  0  0  0
  181.3800  178.5530  137.4860 C   0  0  0  0  0  0  0  0  0  0  0  0
  181.2960  178.7650  142.0310 C   0  0  0  0  0  3  0  0  0  0  0  0
  186.1500  179.2010  142.0730 C   0  0  0  0  0  3  0  0  0  0  0  0
  181.2800  176.2440  139.2270 C   0  0  0  0  0  2  0  0  0  0  0  0
  180.5520  177.0350  137.8090 S   0  0  0  0  0  0  0  0  0  0  0  0
  182.6050  176.9030  139.5880 C   0  0  0  0  0  2  0  0  0  0  0  0
  181.9690  180.6450  138.7110 C   0  0  0  0  0  1  0  0  0  0  0  0
  185.0760  178.6150  139.9190 C   0  0  2  0  0  3  0  0  0  0  0  0
  181.2920  178.6640  140.6320 O   0  0  0  0  0  0  0  0  0  0  0  0
  185.1310  179.1360  138.6210 O   0  0  0  0  0  0  0  0  0  0  0  0
  186.0400  178.3300  137.9300 C   0  0  2  0  0  3  0  0  0  0  0  0
  185.6420  176.8760  138.0940 C   0  0  0  0  0  1  0  0  0  0  0  0
  187.3800  178.5300  138.4590 N   0  0  0  0  0  2  0  0  0  0  0  0
  188.0840  177.2660  138.3220 C   0  0  0  0  0  2  0  0  0  0  0  0
  190.7960  177.0760  137.4110 F   0  0  0  0  0  0  0  0  0  0  0  0
  189.2560  177.2330  139.2440 C   0  0  0  0  0  0  0  0  0  0  0  0
  190.5660  177.1440  138.7460 C   0  0  0  0  0  0  0  0  0  0  0  0
  191.4280  177.1940  141.0110 C   0  0  0  0  0  3  0  0  0  0  0  0
  190.1240  177.2830  141.5080 C   0  0  0  0  0  3  0  0  0  0  0  0
  189.0400  177.3030  140.6250 C   0  0  0  0  0  3  0  0  0  0  0  0
  191.6480  177.1230  139.6330 C   0  0  0  0  0  3  0  0  0  0  0  0
  1 12  1  0  0  0  0
  2 16  1  6  0  0  0
  2  7  1  0  0  0  0
  3 10  1  0  0  0  0
  5 20  1  0  0  0  0
  5 13  1  0  0  0  0
  6 14  2  0  0  0  0
  7  4  1  0  0  0  0
  8 16  2  0  0  0  0
  9 18  2  0  0  0  0
 10  1  1  0  0  0  0
 10  2  1  0  0  0  0
 12  4  1  0  0  0  0
 13  3  1  0  0  0  0
 13 22  1  0  0  0  0
 14 18  1  0  0  0  0
 14  5  1  0  0  0  0
 15  1  2  0  0  0  0
 17 19  1  0  0  0  0
 18 11  2  0  0  0  0
 18 17  1  0  0  0  0
 19 13  1  0  0  0  0
 21  3  1  0  0  0  0
 21  8  1  0  0  0  0
 22 15  1  0  0  0  0
 23 21  1  0  0  0  0
 24 25  1  0  0  0  0
 24 26  1  0  0  0  0
 24 23  1  0  0  0  0
 27 26  1  0  0  0  0
 27 29  1  0  0  0  0
 28 30  1  0  0  0  0
 29 33  1  0  0  0  0
 30 29  2  0  0  0  0
 30 34  1  0  0  0  0
 31 32  1  0  0  0  0
 33 32  2  0  0  0  0
 34 31  2  0  0  0  0
M  END
>  <MODEL>
4

>  <REMARK>
 VINA RESULT:      -6.5      1.993      3.254
  Name = 
  5 active torsions:
  status: ('A' for Active; 'I' for Inactive)
    1  A    between atoms: C_3  and  C_13
    2  A    between atoms: C_3  and  N_17
    3  A    between atoms: O_5  and  C_18
    4  A    between atoms: O_5  and  C_31
    5  A    between atoms: N_17  and  C_18
                            x       y       z     vdW  Elec       q    Type
                         _______ _______ _______ _____ _____    ______ ____

>  <TORSDO>
F 5

$$$$
=
 OpenBabel11052414203D

 34 38  0  0  1  0  0  0  0  0999 V2000
  183.9450  177.0690  135.6050 C   0  0  0  0  0  0  0  0  0  0  0  0
  182.7970  177.9890  137.7510 C   0  0  1  0  0  3  0  0  0  0  0  0
  185.4030  177.9720  137.4630 C   0  0  2  0  0  3  0  0  0  0  0  0
  181.4470  177.3820  135.7670 C   0  0  0  0  0  2  0  0  0  0  0  0
  187.9020  177.7920  137.0630 C   0  0  1  0  0  3  0  0  0  0  0  0
  190.2380  177.4280  137.0540 O   0  0  0  0  0  0  0  0  0  0  0  0
  181.7580  178.4890  136.7580 C   0  0  0  0  0  2  0  0  0  0  0  0
  184.3100  179.1790  139.3340 C   0  0  0  0  0  3  0  0  0  0  0  0
  189.9470  174.4840  137.6380 O   0  0  0  0  0  0  0  0  0  0  0  0
  184.0470  177.3460  137.0880 C   0  0  2  0  0  3  0  0  0  0  0  0
  189.3780  174.8480  135.2760 O   0  0  0  0  0  0  0  0  0  0  0  0
  182.6450  177.1400  134.8560 C   0  0  0  0  0  2  0  0  0  0  0  0
  186.5440  177.0620  136.9240 C   0  0  1  0  0  0  0  0  0  0  0  0
  189.1310  176.9230  136.9360 C   0  0  0  0  0  0  0  0  0  0  0  0
  185.0520  176.7790  134.9220 C   0  0  0  0  0  3  0  0  0  0  0  0
  183.1050  179.0590  138.7650 C   0  0  0  0  0  3  0  0  0  0  0  0
  187.3500  174.6450  137.0160 C   0  0  0  0  0  2  0  0  0  0  0  0
  189.0140  175.1860  136.6930 S   0  0  0  0  0  0  0  0  0  0  0  0
  186.5560  175.7400  137.7170 C   0  0  0  0  0  2  0  0  0  0  0  0
  187.9950  178.9920  136.1270 C   0  0  0  0  0  1  0  0  0  0  0  0
  185.4370  178.2490  138.9800 C   0  0  2  0  0  3  0  0  0  0  0  0
  186.3160  176.7790  135.5310 O   0  0  0  0  0  0  0  0  0  0  0  0
  186.6490  178.8380  139.3600 O   0  0  0  0  0  0  0  0  0  0  0  0
  186.9630  178.2830  140.6040 C   0  0  2  0  0  3  0  0  0  0  0  0
  186.1550  178.9830  141.6800 C   0  0  0  0  0  1  0  0  0  0  0  0
  188.3820  178.4520  140.8740 N   0  0  0  0  0  2  0  0  0  0  0  0
  188.8580  177.2000  141.4390 C   0  0  0  0  0  2  0  0  0  0  0  0
  187.2530  176.2470  143.6160 F   0  0  0  0  0  0  0  0  0  0  0  0
  189.2240  177.3940  142.8720 C   0  0  0  0  0  0  0  0  0  0  0  0
  188.4050  176.9030  143.9020 C   0  0  0  0  0  0  0  0  0  0  0  0
  189.9610  177.7660  145.5480 C   0  0  0  0  0  3  0  0  0  0  0  0
  190.7770  178.2540  144.5240 C   0  0  0  0  0  3  0  0  0  0  0  0
  190.4090  178.0690  143.1880 C   0  0  0  0  0  3  0  0  0  0  0  0
  188.7760  177.0920  145.2370 C   0  0  0  0  0  3  0  0  0  0  0  0
  1 10  1  0  0  0  0
  2  7  1  6  0  0  0
  2 16  1  0  0  0  0
  3 21  1  0  0  0  0
  4  7  1  0  0  0  0
 10  3  1  0  0  0  0
 10  2  1  0  0  0  0
 11 18  2  0  0  0  0
 12  1  1  0  0  0  0
 12  4  1  0  0  0  0
 13  5  1  0  0  0  0
 13  3  1  0  0  0  0
 13 19  1  0  0  0  0
 14  6  2  0  0  0  0
 14  5  1  0  0  0  0
 15 22  1  0  0  0  0
 15  1  2  0  0  0  0
 16  8  2  0  0  0  0
 17 19  1  0  0  0  0
 18 14  1  0  0  0  0
 18 17  1  0  0  0  0
 18  9  2  0  0  0  0
 20  5  1  0  0  0  0
 21  8  1  0  0  0  0
 21 23  1  0  0  0  0
 22 13  1  0  0  0  0
 23 24  1  0  0  0  0
 24 26  1  0  0  0  0
 24 25  1  0  0  0  0
 26 27  1  0  0  0  0
 27 29  1  0  0  0  0
 28 30  1  0  0  0  0
 29 33  2  0  0  0  0
 29 30  1  0  0  0  0
 30 34  2  0  0  0  0
 32 31  2  0  0  0  0
 33 32  1  0  0  0  0
 34 31  1  0  0  0  0
M  END
>  <MODEL>
5

>  <REMARK>
 VINA RESULT:      -6.5      3.649      7.302
  Name = 
  5 active torsions:
  status: ('A' for Active; 'I' for Inactive)
    1  A    between atoms: C_3  and  C_13
    2  A    between atoms: C_3  and  N_17
    3  A    between atoms: O_5  and  C_18
    4  A    between atoms: O_5  and  C_31
    5  A    between atoms: N_17  and  C_18
                            x       y       z     vdW  Elec       q    Type
                         _______ _______ _______ _____ _____    ______ ____

>  <TORSDO>
F 5

$$$$
=
 OpenBabel11052414203D

 34 38  0  0  1  0  0  0  0  0999 V2000
  181.2150  179.0410  135.4150 C   0  0  0  0  0  0  0  0  0  0  0  0
  180.6410  180.3120  137.6100 C   0  0  1  0  0  3  0  0  0  0  0  0
  182.2130  178.2150  137.5860 C   0  0  2  0  0  3  0  0  0  0  0  0
  179.9680  181.2340  135.4140 C   0  0  0  0  0  2  0  0  0  0  0  0
  183.6310  176.1190  137.3970 C   0  0  1  0  0  3  0  0  0  0  0  0
  184.7010  174.0150  137.5130 O   0  0  0  0  0  0  0  0  0  0  0  0
  180.7090  181.5330  136.7040 C   0  0  0  0  0  2  0  0  0  0  0  0
  181.9690  179.6320  139.6060 C   0  0  0  0  0  3  0  0  0  0  0  0
  182.1140  172.4970  137.2050 O   0  0  0  0  0  0  0  0  0  0  0  0
  181.0590  178.9860  136.9180 C   0  0  2  0  0  3  0  0  0  0  0  0
  182.7420  173.3790  135.0000 O   0  0  0  0  0  0  0  0  0  0  0  0
  180.7350  180.2030  134.5940 C   0  0  0  0  0  2  0  0  0  0  0  0
  182.3300  176.8110  136.9240 C   0  0  1  0  0  0  0  0  0  0  0  0
  183.7120  174.6320  137.1490 C   0  0  0  0  0  0  0  0  0  0  0  0
  181.8270  178.0370  134.7890 C   0  0  0  0  0  3  0  0  0  0  0  0
  181.3470  180.5910  138.9120 C   0  0  0  0  0  3  0  0  0  0  0  0
  180.9190  174.7520  136.4040 C   0  0  0  0  0  2  0  0  0  0  0  0
  182.3840  173.7440  136.4120 S   0  0  0  0  0  0  0  0  0  0  0  0
  181.0970  175.9670  137.3060 C   0  0  0  0  0  2  0  0  0  0  0  0
  184.8710  176.8210  136.8540 C   0  0  0  0  0  1  0  0  0  0  0  0
  182.0100  178.2120  139.1140 C   0  0  2  0  0  3  0  0  0  0  0  0
  182.3810  176.9570  135.4930 O   0  0  0  0  0  0  0  0  0  0  0  0
  183.0500  177.5350  139.7620 O   0  0  0  0  0  0  0  0  0  0  0  0
  183.7570  178.5150  140.4650 C   0  0  2  0  0  3  0  0  0  0  0  0
  185.0180  178.8660  139.6980 C   0  0  0  0  0  1  0  0  0  0  0  0
  184.1130  178.0160  141.7840 N   0  0  0  0  0  2  0  0  0  0  0  0
  185.1670  178.8780  142.2930 C   0  0  0  0  0  2  0  0  0  0  0  0
  183.5410  179.7840  144.4740 F   0  0  0  0  0  0  0  0  0  0  0  0
  185.4520  178.5460  143.7180 C   0  0  0  0  0  0  0  0  0  0  0  0
  184.6210  179.0100  144.7510 C   0  0  0  0  0  0  0  0  0  0  0  0
  186.0150  177.8810  146.3810 C   0  0  0  0  0  3  0  0  0  0  0  0
  186.8420  177.4160  145.3540 C   0  0  0  0  0  3  0  0  0  0  0  0
  186.5610  177.7480  144.0250 C   0  0  0  0  0  3  0  0  0  0  0  0
  184.9060  178.6770  146.0790 C   0  0  0  0  0  3  0  0  0  0  0  0
  1 10  1  0  0  0  0
  2  7  1  6  0  0  0
  2 16  1  0  0  0  0
  3 21  1  0  0  0  0
  4  7  1  0  0  0  0
 10  3  1  0  0  0  0
 10  2  1  0  0  0  0
 11 18  2  0  0  0  0
 12  4  1  0  0  0  0
 12  1  1  0  0  0  0
 13 19  1  0  0  0  0
 13  5  1  0  0  0  0
 13  3  1  0  0  0  0
 14  5  1  0  0  0  0
 14  6  2  0  0  0  0
 15  1  2  0  0  0  0
 15 22  1  0  0  0  0
 16  8  2  0  0  0  0
 17 18  1  0  0  0  0
 17 19  1  0  0  0  0
 18 14  1  0  0  0  0
 18  9  2  0  0  0  0
 20  5  1  0  0  0  0
 21  8  1  0  0  0  0
 21 23  1  0  0  0  0
 22 13  1  0  0  0  0
 23 24  1  0  0  0  0
 24 26  1  0  0  0  0
 25 24  1  0  0  0  0
 26 27  1  0  0  0  0
 27 29  1  0  0  0  0
 28 30  1  0  0  0  0
 29 33  2  0  0  0  0
 29 30  1  0  0  0  0
 30 34  2  0  0  0  0
 32 31  2  0  0  0  0
 33 32  1  0  0  0  0
 34 31  1  0  0  0  0
M  END
>  <MODEL>
6

>  <REMARK>
 VINA RESULT:      -6.4      2.990      6.693
  Name = 
  5 active torsions:
  status: ('A' for Active; 'I' for Inactive)
    1  A    between atoms: C_3  and  C_13
    2  A    between atoms: C_3  and  N_17
    3  A    between atoms: O_5  and  C_18
    4  A    between atoms: O_5  and  C_31
    5  A    between atoms: N_17  and  C_18
                            x       y       z     vdW  Elec       q    Type
                         _______ _______ _______ _____ _____    ______ ____

>  <TORSDO>
F 5

$$$$
=
 OpenBabel11052414203D

 34 38  0  0  1  0  0  0  0  0999 V2000
  181.8300  178.0310  135.6570 C   0  0  0  0  0  0  0  0  0  0  0  0
  181.4260  179.6890  137.6210 C   0  0  1  0  0  3  0  0  0  0  0  0
  183.6240  178.2740  137.4220 C   0  0  2  0  0  3  0  0  0  0  0  0
  179.8730  179.6230  135.6950 C   0  0  0  0  0  2  0  0  0  0  0  0
  185.6410  176.7630  137.1300 C   0  0  1  0  0  3  0  0  0  0  0  0
  187.4390  175.2330  137.2450 O   0  0  0  0  0  0  0  0  0  0  0  0
  180.7580  180.5230  136.5370 C   0  0  0  0  0  2  0  0  0  0  0  0
  183.4050  180.1080  139.0770 C   0  0  0  0  0  3  0  0  0  0  0  0
  185.6800  172.9830  138.2110 O   0  0  0  0  0  0  0  0  0  0  0  0
  182.1250  178.4070  137.0920 C   0  0  2  0  0  3  0  0  0  0  0  0
  185.2820  173.2760  135.8050 O   0  0  0  0  0  0  0  0  0  0  0  0
  180.7270  178.6730  134.8640 C   0  0  0  0  0  2  0  0  0  0  0  0
  184.0970  176.8400  137.0470 C   0  0  1  0  0  0  0  0  0  0  0  0
  186.2280  175.3720  137.1600 C   0  0  0  0  0  0  0  0  0  0  0  0
  182.5910  177.1190  135.0550 C   0  0  0  0  0  3  0  0  0  0  0  0
  182.2910  180.5630  138.4910 C   0  0  0  0  0  3  0  0  0  0  0  0
  183.5250  174.3950  137.4910 C   0  0  0  0  0  2  0  0  0  0  0  0
  185.2110  173.9380  137.1510 S   0  0  0  0  0  0  0  0  0  0  0  0
  183.4510  175.8250  138.0120 C   0  0  0  0  0  2  0  0  0  0  0  0
  186.3060  177.6010  136.0430 C   0  0  0  0  0  1  0  0  0  0  0  0
  183.8640  178.6900  138.8870 C   0  0  2  0  0  3  0  0  0  0  0  0
  183.6940  176.5370  135.6990 O   0  0  0  0  0  0  0  0  0  0  0  0
  185.2200  178.6010  139.2230 O   0  0  0  0  0  0  0  0  0  0  0  0
  185.2870  178.8630  140.5940 C   0  0  2  0  0  3  0  0  0  0  0  0
  186.7050  178.6270  141.0780 C   0  0  0  0  0  1  0  0  0  0  0  0
  184.3760  177.9840  141.3100 N   0  0  0  0  0  2  0  0  0  0  0  0
  183.9950  178.6730  142.5320 C   0  0  0  0  0  2  0  0  0  0  0  0
  182.6930  178.9120  145.0760 F   0  0  0  0  0  0  0  0  0  0  0  0
  182.5140  178.6310  142.7000 C   0  0  0  0  0  0  0  0  0  0  0  0
  181.9250  178.7580  143.9690 C   0  0  0  0  0  0  0  0  0  0  0  0
  179.7260  178.5680  142.9650 C   0  0  0  0  0  3  0  0  0  0  0  0
  180.3120  178.4420  141.7020 C   0  0  0  0  0  3  0  0  0  0  0  0
  181.7030  178.4740  141.5690 C   0  0  0  0  0  3  0  0  0  0  0  0
  180.5320  178.7250  144.0960 C   0  0  0  0  0  3  0  0  0  0  0  0
  1 10  1  0  0  0  0
  2  7  1  6  0  0  0
  2 16  1  0  0  0  0
  3 21  1  0  0  0  0
  4  7  1  0  0  0  0
  5 14  1  0  0  0  0
 10  3  1  0  0  0  0
 10  2  1  0  0  0  0
 11 18  2  0  0  0  0
 12  1  1  0  0  0  0
 12  4  1  0  0  0  0
 13  5  1  0  0  0  0
 13  3  1  0  0  0  0
 13 19  1  0  0  0  0
 14  6  2  0  0  0  0
 15  1  2  0  0  0  0
 15 22  1  0  0  0  0
 16  8  2  0  0  0  0
 17 19  1  0  0  0  0
 18 14  1  0  0  0  0
 18 17  1  0  0  0  0
 18  9  2  0  0  0  0
 20  5  1  0  0  0  0
 21  8  1  0  0  0  0
 21 23  1  0  0  0  0
 22 13  1  0  0  0  0
 23 24  1  0  0  0  0
 24 25  1  0  0  0  0
 24 26  1  0  0  0  0
 26 27  1  0  0  0  0
 27 29  1  0  0  0  0
 29 30  1  0  0  0  0
 30 34  2  0  0  0  0
 30 28  1  0  0  0  0
 31 34  1  0  0  0  0
 32 31  2  0  0  0  0
 33 32  1  0  0  0  0
 33 29  2  0  0  0  0
M  END
>  <MODEL>
7

>  <REMARK>
 VINA RESULT:      -6.3      3.075      6.582
  Name = 
  5 active torsions:
  status: ('A' for Active; 'I' for Inactive)
    1  A    between atoms: C_3  and  C_13
    2  A    between atoms: C_3  and  N_17
    3  A    between atoms: O_5  and  C_18
    4  A    between atoms: O_5  and  C_31
    5  A    between atoms: N_17  and  C_18
                            x       y       z     vdW  Elec       q    Type
                         _______ _______ _______ _____ _____    ______ ____

>  <TORSDO>
F 5

$$$$
=
 OpenBabel11052414203D

 34 38  0  0  1  0  0  0  0  0999 V2000
  181.5020  173.1290  136.1750 C   0  0  0  0  0  0  0  0  0  0  0  0
  180.2180  173.7430  138.3530 C   0  0  1  0  0  3  0  0  0  0  0  0
  182.2170  175.1850  137.4600 C   0  0  2  0  0  3  0  0  0  0  0  0
  179.3890  171.9400  136.8730 C   0  0  0  0  0  2  0  0  0  0  0  0
  184.2260  176.4100  136.5110 C   0  0  1  0  0  3  0  0  0  0  0  0
  186.2590  177.5060  136.0070 O   0  0  0  0  0  0  0  0  0  0  0  0
  179.0170  173.2370  137.5680 C   0  0  0  0  0  2  0  0  0  0  0  0
  180.7720  175.9740  139.3150 C   0  0  0  0  0  3  0  0  0  0  0  0
  187.9370  175.2590  137.1140 O   0  0  0  0  0  0  0  0  0  0  0  0
  181.5320  173.8070  137.5260 C   0  0  2  0  0  3  0  0  0  0  0  0
  187.0680  174.5500  134.9290 O   0  0  0  0  0  0  0  0  0  0  0  0
  180.3890  172.2110  135.7550 C   0  0  0  0  0  2  0  0  0  0  0  0
  183.6250  175.0170  136.8200 C   0  0  1  0  0  0  0  0  0  0  0  0
  185.7120  176.4380  136.2390 C   0  0  0  0  0  0  0  0  0  0  0  0
  182.4810  173.3720  135.3050 C   0  0  0  0  0  3  0  0  0  0  0  0
  179.8690  175.0170  139.0760 C   0  0  0  0  0  3  0  0  0  0  0  0
  185.7780  173.6810  137.1100 C   0  0  0  0  0  2  0  0  0  0  0  0
  186.6950  174.9830  136.3170 S   0  0  0  0  0  0  0  0  0  0  0  0
  184.5340  174.2380  137.7920 C   0  0  0  0  0  2  0  0  0  0  0  0
  183.4640  177.1180  135.3970 C   0  0  0  0  0  1  0  0  0  0  0  0
  182.1980  175.8330  138.8590 C   0  0  2  0  0  3  0  0  0  0  0  0
  183.5090  174.2840  135.5870 O   0  0  0  0  0  0  0  0  0  0  0  0
  182.7960  177.0990  138.8390 O   0  0  0  0  0  0  0  0  0  0  0  0
  182.5210  177.6660  140.0860 C   0  0  2  0  0  3  0  0  0  0  0  0
  182.2500  179.1480  139.9120 C   0  0  0  0  0  1  0  0  0  0  0  0
  183.6580  177.4800  140.9740 N   0  0  0  0  0  2  0  0  0  0  0  0
  184.0050  178.7910  141.4980 C   0  0  0  0  0  2  0  0  0  0  0  0
  186.5850  177.8700  142.3450 F   0  0  0  0  0  0  0  0  0  0  0  0
  184.4030  178.6770  142.9300 C   0  0  0  0  0  0  0  0  0  0  0  0
  185.6820  178.2250  143.2940 C   0  0  0  0  0  0  0  0  0  0  0  0
  185.1140  178.4990  145.6340 C   0  0  0  0  0  3  0  0  0  0  0  0
  183.8410  178.9500  145.2740 C   0  0  0  0  0  3  0  0  0  0  0  0
  183.4860  179.0390  143.9250 C   0  0  0  0  0  3  0  0  0  0  0  0
  186.0330  178.1360  144.6450 C   0  0  0  0  0  3  0  0  0  0  0  0
  1 10  1  0  0  0  0
  2  7  1  6  0  0  0
  2 16  1  0  0  0  0
  3 10  1  0  0  0  0
  3 21  1  0  0  0  0
  4  7  1  0  0  0  0
  5 13  1  0  0  0  0
  6 14  2  0  0  0  0
 10  2  1  0  0  0  0
 11 18  2  0  0  0  0
 12  1  1  0  0  0  0
 12  4  1  0  0  0  0
 13  3  1  0  0  0  0
 13 19  1  0  0  0  0
 14 18  1  0  0  0  0
 14  5  1  0  0  0  0
 15 22  1  0  0  0  0
 15  1  2  0  0  0  0
 16  8  2  0  0  0  0
 17 19  1  0  0  0  0
 18 17  1  0  0  0  0
 18  9  2  0  0  0  0
 20  5  1  0  0  0  0
 21  8  1  0  0  0  0
 22 13  1  0  0  0  0
 23 21  1  0  0  0  0
 23 24  1  0  0  0  0
 24 26  1  0  0  0  0
 25 24  1  0  0  0  0
 26 27  1  0  0  0  0
 27 29  1  0  0  0  0
 28 30  1  0  0  0  0
 29 30  2  0  0  0  0
 29 33  1  0  0  0  0
 30 34  1  0  0  0  0
 32 31  1  0  0  0  0
 33 32  2  0  0  0  0
 34 31  2  0  0  0  0
M  END
>  <MODEL>
8

>  <REMARK>
 VINA RESULT:      -6.1      2.948      7.239
  Name = 
  5 active torsions:
  status: ('A' for Active; 'I' for Inactive)
    1  A    between atoms: C_3  and  C_13
    2  A    between atoms: C_3  and  N_17
    3  A    between atoms: O_5  and  C_18
    4  A    between atoms: O_5  and  C_31
    5  A    between atoms: N_17  and  C_18
                            x       y       z     vdW  Elec       q    Type
                         _______ _______ _______ _____ _____    ______ ____

>  <TORSDO>
F 5

$$$$
=
 OpenBabel11052414203D

 34 38  0  0  1  0  0  0  0  0999 V2000
  185.6000  178.2340  144.9350 C   0  0  0  0  0  0  0  0  0  0  0  0
  184.8080  179.3250  142.7100 C   0  0  1  0  0  3  0  0  0  0  0  0
  186.9690  177.8480  142.8440 C   0  0  2  0  0  3  0  0  0  0  0  0
  183.3670  179.3880  144.7220 C   0  0  0  0  0  2  0  0  0  0  0  0
  189.0790  176.4770  143.1700 C   0  0  1  0  0  3  0  0  0  0  0  0
  191.2370  175.5200  143.2970 O   0  0  0  0  0  0  0  0  0  0  0  0
  183.4250  178.9990  143.2570 C   0  0  0  0  0  2  0  0  0  0  0  0
  186.0240  178.5720  140.6690 C   0  0  0  0  0  3  0  0  0  0  0  0
  192.4290  177.9740  144.5810 O   0  0  0  0  0  0  0  0  0  0  0  0
  185.9760  178.7730  143.5730 C   0  0  2  0  0  3  0  0  0  0  0  0
  191.1320  176.7790  146.2900 O   0  0  0  0  0  0  0  0  0  0  0  0
  184.2480  178.4600  145.5490 C   0  0  0  0  0  2  0  0  0  0  0  0
  188.1940  177.5960  143.7700 C   0  0  1  0  0  0  0  0  0  0  0  0
  190.4750  176.3690  143.7360 C   0  0  0  0  0  0  0  0  0  0  0  0
  186.4860  177.5040  145.6100 C   0  0  0  0  0  3  0  0  0  0  0  0
  184.8860  178.9730  141.2480 C   0  0  0  0  0  3  0  0  0  0  0  0
  189.9620  178.8720  145.0930 C   0  0  0  0  0  2  0  0  0  0  0  0
  191.0640  177.4810  144.9640 S   0  0  0  0  0  0  0  0  0  0  0  0
  188.9980  178.9040  143.9130 C   0  0  0  0  0  2  0  0  0  0  0  0
  188.3780  175.1230  143.2110 C   0  0  0  0  0  1  0  0  0  0  0  0
  187.2960  178.4380  141.4580 C   0  0  2  0  0  3  0  0  0  0  0  0
  187.7380  177.1750  145.0690 O   0  0  0  0  0  0  0  0  0  0  0  0
  188.1830  177.6160  140.7540 O   0  0  0  0  0  0  0  0  0  0  0  0
  188.3950  178.2520  139.5270 C   0  0  2  0  0  3  0  0  0  0  0  0
  187.7170  177.4550  138.4300 C   0  0  0  0  0  1  0  0  0  0  0  0
  189.8210  178.3400  139.2560 N   0  0  0  0  0  2  0  0  0  0  0  0
  190.4430  177.1870  139.8850 C   0  0  0  0  0  2  0  0  0  0  0  0
  193.2920  177.5060  139.7970 F   0  0  0  0  0  0  0  0  0  0  0  0
  191.3160  176.4810  138.9030 C   0  0  0  0  0  0  0  0  0  0  0  0
  192.7080  176.6680  138.9040 C   0  0  0  0  0  0  0  0  0  0  0  0
  192.9180  175.1200  137.0520 C   0  0  0  0  0  3  0  0  0  0  0  0
  191.5330  174.9310  137.0490 C   0  0  0  0  0  3  0  0  0  0  0  0
  190.7330  175.6110  137.9730 C   0  0  0  0  0  3  0  0  0  0  0  0
  193.5040  175.9870  137.9780 C   0  0  0  0  0  3  0  0  0  0  0  0
  1 12  1  0  0  0  0
  1 15  2  0  0  0  0
  2 16  1  6  0  0  0
  2  7  1  0  0  0  0
  2 10  1  0  0  0  0
  3 10  1  0  0  0  0
  3 13  1  0  0  0  0
  4 12  1  0  0  0  0
  5 20  1  0  0  0  0
  5 14  1  0  0  0  0
  5 13  1  0  0  0  0
  6 14  2  0  0  0  0
  7  4  1  0  0  0  0
  8 16  2  0  0  0  0
  8 21  1  0  0  0  0
  9 18  2  0  0  0  0
 10  1  1  0  0  0  0
 13 19  1  0  0  0  0
 13 22  1  0  0  0  0
 14 18  1  0  0  0  0
 18 17  1  0  0  0  0
 18 11  2  0  0  0  0
 19 17  1  0  0  0  0
 21  3  1  0  0  0  0
 22 15  1  0  0  0  0
 23 21  1  0  0  0  0
 24 23  1  0  0  0  0
 25 24  1  0  0  0  0
 26 24  1  0  0  0  0
 26 27  1  0  0  0  0
 29 30  1  0  0  0  0
 29 27  1  0  0  0  0
 30 28  1  0  0  0  0
 31 34  1  0  0  0  0
 32 31  2  0  0  0  0
 32 33  1  0  0  0  0
 33 29  2  0  0  0  0
 34 30  2  0  0  0  0
M  END
>  <MODEL>
9

>  <REMARK>
 VINA RESULT:      -6.1      5.111      7.448
  Name = 
  5 active torsions:
  status: ('A' for Active; 'I' for Inactive)
    1  A    between atoms: C_3  and  C_13
    2  A    between atoms: C_3  and  N_17
    3  A    between atoms: O_5  and  C_18
    4  A    between atoms: O_5  and  C_31
    5  A    between atoms: N_17  and  C_18
                            x       y       z     vdW  Elec       q    Type
                         _______ _______ _______ _____ _____    ______ ____

>  <TORSDO>
F 5

$$$$
