=
 OpenBabel11052416013D

 34 39  0  0  1  0  0  0  0  0999 V2000
  188.7310  177.7590  140.8960 C   0  0  0  0  0  0  0  0  0  0  0  0
  189.8800  177.8960  143.1520 C   0  0  0  0  0  0  0  0  0  0  0  0
  191.7050  177.4620  141.5840 N   0  0  0  0  0  0  0  0  0  0  0  0
  187.8470  177.7010  138.7670 C   0  0  2  0  0  3  0  0  0  0  0  0
  187.5720  177.8920  140.1490 O   0  0  0  0  0  0  0  0  0  0  0  0
  189.3710  177.5880  138.6710 C   0  0  2  0  0  3  0  0  0  0  0  0
  191.2410  175.9260  138.4040 C   0  0  0  0  0  3  0  0  0  0  0  0
  189.7940  176.2370  138.0850 C   0  0  0  0  0  2  0  0  0  0  0  0
  191.1180  177.1350  140.4720 C   0  0  0  0  0  0  0  0  0  0  0  0
  189.7810  177.6270  140.1010 C   0  0  0  0  0  0  0  0  0  0  0  0
  191.8070  176.3180  139.5140 N   0  0  0  0  0  0  0  0  0  0  0  0
  189.8180  177.7590  144.5410 C   0  0  0  0  0  3  0  0  0  0  0  0
  188.6310  177.3680  145.1720 C   0  0  0  0  0  0  0  0  0  0  0  0
  187.4910  177.1280  144.3950 C   0  0  0  0  0  3  0  0  0  0  0  0
  191.1530  178.4020  142.5520 C   0  0  0  0  0  2  0  0  0  0  0  0
  187.5420  177.2690  143.0070 C   0  0  0  0  0  3  0  0  0  0  0  0
  188.7300  177.6520  142.3710 C   0  0  0  0  0  0  0  0  0  0  0  0
  188.5770  177.2220  146.6370 C   0  0  0  0  0  0  0  0  0  0  0  0
  187.5210  177.4970  147.2660 O   0  0  0  0  0  0  0  0  0  0  0  0
  189.7190  176.7670  147.3590 N   0  0  0  0  0  1  0  0  0  0  0  0
  187.2620  178.8060  137.8630 C   0  0  0  0  0  2  0  0  0  0  0  0
  185.7230  177.3370  136.7170 C   0  0  2  0  0  3  0  0  0  0  0  0
  184.8930  178.6950  138.4500 C   0  0  0  0  0  2  0  0  0  0  0  0
  182.8440  175.0690  137.7070 N   0  0  0  0  0  0  0  0  0  0  0  0
  182.5350  175.7620  138.9230 C   0  0  0  0  0  0  0  0  0  0  0  0
  184.0800  175.3890  137.0010 C   0  0  1  0  0  3  0  0  0  0  0  0
  181.5600  175.4120  139.6390 O   0  0  0  0  0  0  0  0  0  0  0  0
  184.2780  176.9190  136.9140 C   0  0  1  0  0  3  0  0  0  0  0  0
  181.9270  174.0950  137.1400 C   0  0  0  0  0  1  0  0  0  0  0  0
  183.4010  176.9020  139.3380 C   0  0  0  0  0  2  0  0  0  0  0  0
  183.7720  177.7340  138.1100 C   0  0  1  0  0  3  0  0  0  0  0  0
  185.1530  174.7740  137.6500 O   0  0  0  0  0  1  0  0  0  0  0  0
  185.8810  178.6280  137.3770 N   0  0  0  0  0  0  0  0  0  0  0  0
  186.0190  177.4700  135.2350 C   0  0  0  0  0  1  0  0  0  0  0  0
  1 17  1  0  0  0  0
  2 12  1  0  0  0  0
  3 15  1  0  0  0  0
  4 21  1  6  0  0  0
  4  5  1  0  0  0  0
  5  1  1  0  0  0  0
  6  8  1  1  0  0  0
  6  4  1  0  0  0  0
  6 10  1  0  0  0  0
  7 11  2  0  0  0  0
  8  7  1  0  0  0  0
  9  3  2  0  0  0  0
 10  9  1  0  0  0  0
 10  1  2  0  0  0  0
 11  9  1  0  0  0  0
 12 13  2  0  0  0  0
 13 18  1  0  0  0  0
 14 13  1  0  0  0  0
 15  2  1  0  0  0  0
 16 14  2  0  0  0  0
 17 16  1  0  0  0  0
 17  2  2  0  0  0  0
 18 19  2  0  0  0  0
 18 20  1  0  0  0  0
 22 34  1  6  0  0  0
 22 28  1  0  0  0  0
 22 33  1  0  0  0  0
 24 25  1  0  0  0  0
 25 30  1  0  0  0  0
 25 27  2  0  0  0  0
 26 32  1  1  0  0  0
 26 24  1  0  0  0  0
 28 26  1  0  0  0  0
 28 31  1  0  0  0  0
 29 24  1  0  0  0  0
 31 23  1  0  0  0  0
 31 30  1  0  0  0  0
 33 21  1  0  0  0  0
 33 23  1  0  0  0  0
M  END
>  <MODEL>
1

>  <REMARK>
 VINA RESULT:      -8.3      0.000      0.000
  Name = 
  3 active torsions:
  status: ('A' for Active; 'I' for Inactive)
    1  A    between atoms: C_3  and  C_25
    2  A    between atoms: C_8  and  C_18
    3  A    between atoms: C_18  and  N_30
                            x       y       z     vdW  Elec       q    Type
                         _______ _______ _______ _____ _____    ______ ____

>  <TORSDO>
F 3

$$$$
=
 OpenBabel11052416013D

 34 39  0  0  1  0  0  0  0  0999 V2000
  186.5670  177.9600  142.1330 C   0  0  0  0  0  0  0  0  0  0  0  0
  188.8470  176.8520  142.1640 C   0  0  0  0  0  0  0  0  0  0  0  0
  188.1330  176.8020  144.5020 N   0  0  0  0  0  0  0  0  0  0  0  0
  184.4470  178.8600  142.2530 C   0  0  2  0  0  3  0  0  0  0  0  0
  185.5260  178.5030  141.3980 O   0  0  0  0  0  0  0  0  0  0  0  0
  184.8370  178.3310  143.6360 C   0  0  2  0  0  3  0  0  0  0  0  0
  185.7350  179.0500  145.8730 C   0  0  0  0  0  3  0  0  0  0  0  0
  184.9270  179.4650  144.6610 C   0  0  0  0  0  2  0  0  0  0  0  0
  187.0970  177.5850  144.5510 C   0  0  0  0  0  0  0  0  0  0  0  0
  186.2090  177.8050  143.3980 C   0  0  0  0  0  0  0  0  0  0  0  0
  186.7390  178.2200  145.7870 N   0  0  0  0  0  0  0  0  0  0  0  0
  190.1120  176.6910  141.5930 C   0  0  0  0  0  3  0  0  0  0  0  0
  190.4750  177.4010  140.4410 C   0  0  0  0  0  0  0  0  0  0  0  0
  189.5470  178.2680  139.8530 C   0  0  0  0  0  3  0  0  0  0  0  0
  188.4940  175.9990  143.3410 C   0  0  0  0  0  2  0  0  0  0  0  0
  188.2790  178.4300  140.4130 C   0  0  0  0  0  3  0  0  0  0  0  0
  187.9140  177.7280  141.5700 C   0  0  0  0  0  0  0  0  0  0  0  0
  191.8130  177.2280  139.8490 C   0  0  0  0  0  0  0  0  0  0  0  0
  192.8430  177.5380  140.5030 O   0  0  0  0  0  0  0  0  0  0  0  0
  191.9560  176.7080  138.5290 N   0  0  0  0  0  1  0  0  0  0  0  0
  183.0770  178.3390  141.7680 C   0  0  0  0  0  2  0  0  0  0  0  0
  181.3470  178.5340  140.0920 C   0  0  2  0  0  3  0  0  0  0  0  0
  183.4070  179.6030  139.7030 C   0  0  0  0  0  2  0  0  0  0  0  0
  179.9950  181.2850  137.8540 N   0  0  0  0  0  0  0  0  0  0  0  0
  181.1920  182.0720  137.8630 C   0  0  0  0  0  0  0  0  0  0  0  0
  179.8670  180.1720  138.7880 C   0  0  1  0  0  3  0  0  0  0  0  0
  181.2810  183.1270  137.1830 O   0  0  0  0  0  0  0  0  0  0  0  0
  181.1640  179.3320  138.8150 C   0  0  1  0  0  3  0  0  0  0  0  0
  178.9310  181.5430  136.8980 C   0  0  0  0  0  1  0  0  0  0  0  0
  182.3350  181.6260  138.7100 C   0  0  0  0  0  2  0  0  0  0  0  0
  182.4740  180.1070  138.6210 C   0  0  1  0  0  3  0  0  0  0  0  0
  179.5570  180.6680  140.0560 O   0  0  0  0  0  1  0  0  0  0  0  0
  182.7840  178.4380  140.3270 N   0  0  0  0  0  0  0  0  0  0  0  0
  180.7550  177.1470  139.9180 C   0  0  0  0  0  1  0  0  0  0  0  0
  1 10  2  0  0  0  0
  2 15  1  0  0  0  0
  3  9  2  0  0  0  0
  4 21  1  6  0  0  0
  4  6  1  0  0  0  0
  5  1  1  0  0  0  0
  5  4  1  0  0  0  0
  6  8  1  1  0  0  0
  8  7  1  0  0  0  0
  9 11  1  0  0  0  0
 10  6  1  0  0  0  0
 10  9  1  0  0  0  0
 11  7  2  0  0  0  0
 12  2  1  0  0  0  0
 13 12  2  0  0  0  0
 14 16  2  0  0  0  0
 14 13  1  0  0  0  0
 15  3  1  0  0  0  0
 16 17  1  0  0  0  0
 17  1  1  0  0  0  0
 17  2  2  0  0  0  0
 18 13  1  0  0  0  0
 18 19  2  0  0  0  0
 20 18  1  0  0  0  0
 22 34  1  6  0  0  0
 22 33  1  0  0  0  0
 23 33  1  0  0  0  0
 24 25  1  0  0  0  0
 24 26  1  0  0  0  0
 25 30  1  0  0  0  0
 26 28  1  0  0  0  0
 26 32  1  1  0  0  0
 27 25  2  0  0  0  0
 28 22  1  0  0  0  0
 29 24  1  0  0  0  0
 31 30  1  0  0  0  0
 31 28  1  0  0  0  0
 31 23  1  0  0  0  0
 33 21  1  0  0  0  0
M  END
>  <MODEL>
2

>  <REMARK>
 VINA RESULT:      -8.3      3.512      6.012
  Name = 
  3 active torsions:
  status: ('A' for Active; 'I' for Inactive)
    1  A    between atoms: C_3  and  C_25
    2  A    between atoms: C_8  and  C_18
    3  A    between atoms: C_18  and  N_30
                            x       y       z     vdW  Elec       q    Type
                         _______ _______ _______ _____ _____    ______ ____

>  <TORSDO>
F 3

$$$$
=
 OpenBabel11052416013D

 34 39  0  0  1  0  0  0  0  0999 V2000
  186.4320  178.0540  138.8380 C   0  0  0  0  0  0  0  0  0  0  0  0
  184.2030  177.3330  137.8660 C   0  0  0  0  0  0  0  0  0  0  0  0
  185.8540  176.3340  136.3650 N   0  0  0  0  0  0  0  0  0  0  0  0
  188.5320  178.5480  139.6520 C   0  0  2  0  0  3  0  0  0  0  0  0
  187.1310  178.6800  139.8560 O   0  0  0  0  0  0  0  0  0  0  0  0
  188.6770  177.6070  138.4520 C   0  0  2  0  0  3  0  0  0  0  0  0
  189.1710  177.5730  135.9860 C   0  0  0  0  0  3  0  0  0  0  0  0
  189.4180  178.2880  137.2970 C   0  0  0  0  0  2  0  0  0  0  0  0
  186.9810  176.8940  136.6880 C   0  0  0  0  0  0  0  0  0  0  0  0
  187.2620  177.3980  138.0410 C   0  0  0  0  0  0  0  0  0  0  0  0
  188.0400  176.9770  135.7220 N   0  0  0  0  0  0  0  0  0  0  0  0
  182.8370  177.5670  137.6940 C   0  0  0  0  0  3  0  0  0  0  0  0
  182.2240  178.6920  138.2610 C   0  0  0  0  0  0  0  0  0  0  0  0
  182.9940  179.5790  139.0210 C   0  0  0  0  0  3  0  0  0  0  0  0
  184.7750  176.0690  137.3090 C   0  0  0  0  0  2  0  0  0  0  0  0
  184.3600  179.3490  139.2040 C   0  0  0  0  0  3  0  0  0  0  0  0
  184.9780  178.2300  138.6320 C   0  0  0  0  0  0  0  0  0  0  0  0
  180.7830  178.9320  138.0700 C   0  0  0  0  0  0  0  0  0  0  0  0
  179.9370  178.3430  138.7940 O   0  0  0  0  0  0  0  0  0  0  0  0
  180.3290  179.8330  137.0630 N   0  0  0  0  0  1  0  0  0  0  0  0
  189.2940  178.0590  140.9020 C   0  0  0  0  0  2  0  0  0  0  0  0
  189.3670  176.9310  143.0380 C   0  0  2  0  0  3  0  0  0  0  0  0
  187.3050  177.7860  142.2940 C   0  0  0  0  0  2  0  0  0  0  0  0
  187.8510  177.4700  146.4770 N   0  0  0  0  0  0  0  0  0  0  0  0
  186.7360  178.2410  146.0160 C   0  0  0  0  0  0  0  0  0  0  0  0
  188.9440  177.1800  145.5550 C   0  0  1  0  0  3  0  0  0  0  0  0
  185.8480  178.6410  146.8160 O   0  0  0  0  0  0  0  0  0  0  0  0
  188.3950  176.7240  144.1840 C   0  0  1  0  0  3  0  0  0  0  0  0
  187.8900  176.9300  147.8250 C   0  0  0  0  0  1  0  0  0  0  0  0
  186.6480  178.5800  144.5670 C   0  0  0  0  0  2  0  0  0  0  0  0
  187.0810  177.3730  143.7350 C   0  0  1  0  0  3  0  0  0  0  0  0
  189.7520  178.3110  145.4270 O   0  0  0  0  0  1  0  0  0  0  0  0
  188.5640  177.1960  141.8490 N   0  0  0  0  0  0  0  0  0  0  0  0
  190.1960  175.6760  142.8370 C   0  0  0  0  0  1  0  0  0  0  0  0
  1  5  1  0  0  0  0
  2 17  1  0  0  0  0
  3  9  2  0  0  0  0
  3 15  1  0  0  0  0
  4  5  1  0  0  0  0
  4 21  1  1  0  0  0
  6  8  1  6  0  0  0
  6  4  1  0  0  0  0
  7  8  1  0  0  0  0
  9 10  1  0  0  0  0
 10  6  1  0  0  0  0
 10  1  2  0  0  0  0
 11  7  2  0  0  0  0
 11  9  1  0  0  0  0
 12  2  2  0  0  0  0
 12 13  1  0  0  0  0
 13 14  2  0  0  0  0
 14 16  1  0  0  0  0
 15  2  1  0  0  0  0
 17  1  1  0  0  0  0
 17 16  2  0  0  0  0
 18 13  1  0  0  0  0
 18 19  2  0  0  0  0
 20 18  1  0  0  0  0
 21 33  1  0  0  0  0
 22 34  1  6  0  0  0
 22 28  1  0  0  0  0
 23 31  1  0  0  0  0
 24 29  1  0  0  0  0
 25 24  1  0  0  0  0
 25 27  2  0  0  0  0
 26 32  1  6  0  0  0
 26 24  1  0  0  0  0
 28 26  1  0  0  0  0
 30 25  1  0  0  0  0
 31 28  1  0  0  0  0
 31 30  1  0  0  0  0
 33 23  1  0  0  0  0
 33 22  1  0  0  0  0
M  END
>  <MODEL>
3

>  <REMARK>
 VINA RESULT:      -8.1      2.131      7.731
  Name = 
  3 active torsions:
  status: ('A' for Active; 'I' for Inactive)
    1  A    between atoms: C_3  and  C_25
    2  A    between atoms: C_8  and  C_18
    3  A    between atoms: C_18  and  N_30
                            x       y       z     vdW  Elec       q    Type
                         _______ _______ _______ _____ _____    ______ ____

>  <TORSDO>
F 3

$$$$
=
 OpenBabel11052416013D

 34 39  0  0  1  0  0  0  0  0999 V2000
  186.2590  178.5280  141.9010 C   0  0  0  0  0  0  0  0  0  0  0  0
  184.4500  179.0760  143.5910 C   0  0  0  0  0  0  0  0  0  0  0  0
  186.3410  178.3540  144.9620 N   0  0  0  0  0  0  0  0  0  0  0  0
  188.0320  178.0790  140.4960 C   0  0  2  0  0  3  0  0  0  0  0  0
  186.6840  178.5230  140.5830 O   0  0  0  0  0  0  0  0  0  0  0  0
  188.5060  177.9460  141.9460 C   0  0  2  0  0  3  0  0  0  0  0  0
  188.9560  176.2580  143.7560 C   0  0  0  0  0  3  0  0  0  0  0  0
  188.9310  176.5090  142.2630 C   0  0  0  0  0  2  0  0  0  0  0  0
  187.1810  177.8290  144.1210 C   0  0  0  0  0  0  0  0  0  0  0  0
  187.2670  178.2470  142.7120 C   0  0  0  0  0  0  0  0  0  0  0  0
  188.1250  176.8470  144.5730 N   0  0  0  0  0  0  0  0  0  0  0  0
  183.0930  179.1990  143.9000 C   0  0  0  0  0  3  0  0  0  0  0  0
  182.1110  178.9350  142.9370 C   0  0  0  0  0  0  0  0  0  0  0  0
  182.5030  178.5590  141.6470 C   0  0  0  0  0  3  0  0  0  0  0  0
  185.4460  179.4590  144.6390 C   0  0  0  0  0  2  0  0  0  0  0  0
  183.8570  178.4410  141.3270 C   0  0  0  0  0  3  0  0  0  0  0  0
  184.8430  178.6960  142.2890 C   0  0  0  0  0  0  0  0  0  0  0  0
  180.6830  179.0630  143.2740 C   0  0  0  0  0  0  0  0  0  0  0  0
  180.1140  180.1850  143.2210 O   0  0  0  0  0  0  0  0  0  0  0  0
  179.9280  177.9180  143.6640 N   0  0  0  0  0  1  0  0  0  0  0  0
  188.9320  179.0000  139.6450 C   0  0  0  0  0  2  0  0  0  0  0  0
  189.3290  177.2500  138.0270 C   0  0  2  0  0  3  0  0  0  0  0  0
  187.8940  179.0180  137.4340 C   0  0  0  0  0  2  0  0  0  0  0  0
  187.2400  175.2970  135.5310 N   0  0  0  0  0  0  0  0  0  0  0  0
  186.2160  176.2910  135.4000 C   0  0  0  0  0  0  0  0  0  0  0  0
  188.2280  175.4290  136.5950 C   0  0  1  0  0  3  0  0  0  0  0  0
  185.2600  176.1360  134.5960 O   0  0  0  0  0  0  0  0  0  0  0  0
  188.7550  176.8800  136.6720 C   0  0  1  0  0  3  0  0  0  0  0  0
  187.3410  174.1910  134.5940 C   0  0  0  0  0  1  0  0  0  0  0  0
  186.2930  177.5140  136.2490 C   0  0  0  0  0  2  0  0  0  0  0  0
  187.7450  177.9840  136.3360 C   0  0  1  0  0  3  0  0  0  0  0  0
  187.6580  175.0320  137.8070 O   0  0  0  0  0  1  0  0  0  0  0  0
  189.0790  178.6750  138.2150 N   0  0  0  0  0  0  0  0  0  0  0  0
  190.8220  176.9770  138.0420 C   0  0  0  0  0  1  0  0  0  0  0  0
  1 17  1  0  0  0  0
  1 10  2  0  0  0  0
  2 12  1  0  0  0  0
  2 15  1  0  0  0  0
  4 21  1  6  0  0  0
  4  5  1  0  0  0  0
  4  6  1  0  0  0  0
  5  1  1  0  0  0  0
  6  8  1  6  0  0  0
  6 10  1  0  0  0  0
  7 11  2  0  0  0  0
  8  7  1  0  0  0  0
  9 11  1  0  0  0  0
  9  3  2  0  0  0  0
 10  9  1  0  0  0  0
 13 18  1  0  0  0  0
 13 12  2  0  0  0  0
 14 13  1  0  0  0  0
 15  3  1  0  0  0  0
 16 14  2  0  0  0  0
 16 17  1  0  0  0  0
 17  2  2  0  0  0  0
 18 20  1  0  0  0  0
 19 18  2  0  0  0  0
 22 34  1  6  0  0  0
 22 33  1  0  0  0  0
 23 33  1  0  0  0  0
 24 26  1  0  0  0  0
 25 24  1  0  0  0  0
 25 30  1  0  0  0  0
 26 28  1  0  0  0  0
 26 32  1  1  0  0  0
 27 25  2  0  0  0  0
 28 22  1  0  0  0  0
 29 24  1  0  0  0  0
 30 31  1  0  0  0  0
 31 28  1  0  0  0  0
 31 23  1  0  0  0  0
 33 21  1  0  0  0  0
M  END
>  <MODEL>
4

>  <REMARK>
 VINA RESULT:      -8.1      3.109      5.371
  Name = 
  3 active torsions:
  status: ('A' for Active; 'I' for Inactive)
    1  A    between atoms: C_3  and  C_25
    2  A    between atoms: C_8  and  C_18
    3  A    between atoms: C_18  and  N_30
                            x       y       z     vdW  Elec       q    Type
                         _______ _______ _______ _____ _____    ______ ____

>  <TORSDO>
F 3

$$$$
=
 OpenBabel11052416013D

 34 39  0  0  1  0  0  0  0  0999 V2000
  186.9120  176.9140  137.9590 C   0  0  0  0  0  0  0  0  0  0  0  0
  185.4820  175.2000  136.7580 C   0  0  0  0  0  0  0  0  0  0  0  0
  187.7450  174.2840  136.6180 N   0  0  0  0  0  0  0  0  0  0  0  0
  188.3300  178.3310  139.1010 C   0  0  2  0  0  3  0  0  0  0  0  0
  186.9860  178.0740  138.7120 O   0  0  0  0  0  0  0  0  0  0  0  0
  189.1210  177.1000  138.6490 C   0  0  2  0  0  3  0  0  0  0  0  0
  190.6890  176.2740  136.8640 C   0  0  0  0  0  3  0  0  0  0  0  0
  190.2190  177.4790  137.6510 C   0  0  0  0  0  2  0  0  0  0  0  0
  188.5210  175.2560  136.9950 C   0  0  0  0  0  0  0  0  0  0  0  0
  188.0880  176.3060  137.9310 C   0  0  0  0  0  0  0  0  0  0  0  0
  189.8850  175.2940  136.5500 N   0  0  0  0  0  0  0  0  0  0  0  0
  184.3280  174.8970  136.0300 C   0  0  0  0  0  3  0  0  0  0  0  0
  183.3910  175.8920  135.7230 C   0  0  0  0  0  0  0  0  0  0  0  0
  183.6140  177.2000  136.1670 C   0  0  0  0  0  3  0  0  0  0  0  0
  186.3950  174.0750  137.1280 C   0  0  0  0  0  2  0  0  0  0  0  0
  184.7610  177.5110  136.9000 C   0  0  0  0  0  3  0  0  0  0  0  0
  185.7050  176.5210  137.2030 C   0  0  0  0  0  0  0  0  0  0  0  0
  182.1800  175.5630  134.9510 C   0  0  0  0  0  0  0  0  0  0  0  0
  181.3830  176.4720  134.6000 O   0  0  0  0  0  0  0  0  0  0  0  0
  181.8970  174.2120  134.5940 N   0  0  0  0  0  1  0  0  0  0  0  0
  188.4900  178.6370  140.6050 C   0  0  0  0  0  2  0  0  0  0  0  0
  189.9870  177.6970  142.2530 C   0  0  2  0  0  3  0  0  0  0  0  0
  187.6790  177.2960  142.4800 C   0  0  0  0  0  2  0  0  0  0  0  0
  189.9890  177.2600  146.0240 N   0  0  0  0  0  0  0  0  0  0  0  0
  188.5640  177.3020  146.1690 C   0  0  0  0  0  0  0  0  0  0  0  0
  190.5850  177.6310  144.7460 C   0  0  1  0  0  3  0  0  0  0  0  0
  188.0200  177.1370  147.2920 O   0  0  0  0  0  0  0  0  0  0  0  0
  189.8210  176.9720  143.5750 C   0  0  1  0  0  3  0  0  0  0  0  0
  190.8430  176.8060  147.1080 C   0  0  0  0  0  1  0  0  0  0  0  0
  187.7290  177.5620  144.9610 C   0  0  0  0  0  2  0  0  0  0  0  0
  188.3090  176.8040  143.7670 C   0  0  1  0  0  3  0  0  0  0  0  0
  190.5930  179.0230  144.6270 O   0  0  0  0  0  1  0  0  0  0  0  0
  188.7490  177.5000  141.5070 N   0  0  0  0  0  0  0  0  0  0  0  0
  191.1560  177.1040  141.4880 C   0  0  0  0  0  1  0  0  0  0  0  0
  1  5  1  0  0  0  0
  2 15  1  0  0  0  0
  2 17  1  0  0  0  0
  3  9  2  0  0  0  0
  3 15  1  0  0  0  0
  4 21  1  1  0  0  0
  5  4  1  0  0  0  0
  6  8  1  6  0  0  0
  6  4  1  0  0  0  0
  7  8  1  0  0  0  0
  9 10  1  0  0  0  0
 10  1  2  0  0  0  0
 10  6  1  0  0  0  0
 11  7  2  0  0  0  0
 11  9  1  0  0  0  0
 12  2  2  0  0  0  0
 13 12  1  0  0  0  0
 13 14  2  0  0  0  0
 14 16  1  0  0  0  0
 16 17  2  0  0  0  0
 17  1  1  0  0  0  0
 18 13  1  0  0  0  0
 19 18  2  0  0  0  0
 20 18  1  0  0  0  0
 21 33  1  0  0  0  0
 22 34  1  6  0  0  0
 22 28  1  0  0  0  0
 23 31  1  0  0  0  0
 24 25  1  0  0  0  0
 24 29  1  0  0  0  0
 25 27  2  0  0  0  0
 26 32  1  6  0  0  0
 26 24  1  0  0  0  0
 28 31  1  0  0  0  0
 28 26  1  0  0  0  0
 30 25  1  0  0  0  0
 31 30  1  0  0  0  0
 33 22  1  0  0  0  0
 33 23  1  0  0  0  0
M  END
>  <MODEL>
5

>  <REMARK>
 VINA RESULT:      -8.1      2.186      8.268
  Name = 
  3 active torsions:
  status: ('A' for Active; 'I' for Inactive)
    1  A    between atoms: C_3  and  C_25
    2  A    between atoms: C_8  and  C_18
    3  A    between atoms: C_18  and  N_30
                            x       y       z     vdW  Elec       q    Type
                         _______ _______ _______ _____ _____    ______ ____

>  <TORSDO>
F 3

$$$$
=
 OpenBabel11052416013D

 34 39  0  0  1  0  0  0  0  0999 V2000
  182.0310  178.4080  141.2040 C   0  0  0  0  0  0  0  0  0  0  0  0
  182.4550  178.8570  143.6640 C   0  0  0  0  0  0  0  0  0  0  0  0
  180.4300  180.1340  143.1700 N   0  0  0  0  0  0  0  0  0  0  0  0
  181.4590  178.0210  139.0040 C   0  0  2  0  0  3  0  0  0  0  0  0
  182.3730  177.7210  140.0510 O   0  0  0  0  0  0  0  0  0  0  0  0
  180.3650  178.8710  139.6560 C   0  0  2  0  0  3  0  0  0  0  0  0
  179.5500  181.2390  139.9000 C   0  0  0  0  0  3  0  0  0  0  0  0
  180.2710  180.2540  139.0040 C   0  0  0  0  0  2  0  0  0  0  0  0
  180.3390  180.1280  141.8740 C   0  0  0  0  0  0  0  0  0  0  0  0
  180.8790  179.0410  141.0410 C   0  0  0  0  0  0  0  0  0  0  0  0
  179.6270  181.1770  141.2020 N   0  0  0  0  0  0  0  0  0  0  0  0
  183.3540  178.9470  144.7300 C   0  0  0  0  0  3  0  0  0  0  0  0
  184.7200  178.7010  144.5410 C   0  0  0  0  0  0  0  0  0  0  0  0
  185.1800  178.3470  143.2670 C   0  0  0  0  0  3  0  0  0  0  0  0
  181.0010  179.0450  143.9530 C   0  0  0  0  0  2  0  0  0  0  0  0
  184.2880  178.2490  142.1970 C   0  0  0  0  0  3  0  0  0  0  0  0
  182.9230  178.5010  142.3800 C   0  0  0  0  0  0  0  0  0  0  0  0
  185.6590  178.8030  145.6710 C   0  0  0  0  0  0  0  0  0  0  0  0
  185.3130  179.3780  146.7370 O   0  0  0  0  0  0  0  0  0  0  0  0
  186.9700  178.2530  145.5710 N   0  0  0  0  0  1  0  0  0  0  0  0
  180.9090  176.7700  138.2860 C   0  0  0  0  0  2  0  0  0  0  0  0
  182.6560  177.2410  136.6840 C   0  0  2  0  0  3  0  0  0  0  0  0
  182.3710  175.0200  137.4090 C   0  0  0  0  0  2  0  0  0  0  0  0
  186.2490  176.1410  136.1410 N   0  0  0  0  0  0  0  0  0  0  0  0
  186.1200  174.8990  136.8440 C   0  0  0  0  0  0  0  0  0  0  0  0
  185.1790  177.1280  136.2400 C   0  0  1  0  0  3  0  0  0  0  0  0
  187.0810  174.0870  136.9080 O   0  0  0  0  0  0  0  0  0  0  0  0
  183.7980  176.4550  136.0680 C   0  0  1  0  0  3  0  0  0  0  0  0
  187.3970  176.4120  135.2930 C   0  0  0  0  0  1  0  0  0  0  0  0
  184.8270  174.5870  137.5170 C   0  0  0  0  0  2  0  0  0  0  0  0
  183.6680  175.0320  136.6250 C   0  0  1  0  0  3  0  0  0  0  0  0
  185.2730  177.7880  137.4670 O   0  0  0  0  0  1  0  0  0  0  0  0
  181.6640  176.2660  137.1250 N   0  0  0  0  0  0  0  0  0  0  0  0
  182.0510  178.1640  135.6420 C   0  0  0  0  0  1  0  0  0  0  0  0
  1 17  1  0  0  0  0
  2 15  1  0  0  0  0
  2 12  1  0  0  0  0
  3 15  1  0  0  0  0
  4 21  1  1  0  0  0
  4  6  1  0  0  0  0
  4  5  1  0  0  0  0
  5  1  1  0  0  0  0
  6  8  1  6  0  0  0
  6 10  1  0  0  0  0
  7 11  2  0  0  0  0
  8  7  1  0  0  0  0
  9  3  2  0  0  0  0
 10  1  2  0  0  0  0
 10  9  1  0  0  0  0
 11  9  1  0  0  0  0
 13 12  2  0  0  0  0
 13 18  1  0  0  0  0
 14 13  1  0  0  0  0
 16 17  1  0  0  0  0
 16 14  2  0  0  0  0
 17  2  2  0  0  0  0
 18 19  2  0  0  0  0
 20 18  1  0  0  0  0
 22 34  1  6  0  0  0
 22 33  1  0  0  0  0
 24 26  1  0  0  0  0
 24 25  1  0  0  0  0
 25 27  2  0  0  0  0
 25 30  1  0  0  0  0
 26 32  1  1  0  0  0
 28 26  1  0  0  0  0
 28 31  1  0  0  0  0
 28 22  1  0  0  0  0
 29 24  1  0  0  0  0
 31 23  1  0  0  0  0
 31 30  1  0  0  0  0
 33 23  1  0  0  0  0
 33 21  1  0  0  0  0
M  END
>  <MODEL>
6

>  <REMARK>
 VINA RESULT:      -8.0      3.677      6.785
  Name = 
  3 active torsions:
  status: ('A' for Active; 'I' for Inactive)
    1  A    between atoms: C_3  and  C_25
    2  A    between atoms: C_8  and  C_18
    3  A    between atoms: C_18  and  N_30
                            x       y       z     vdW  Elec       q    Type
                         _______ _______ _______ _____ _____    ______ ____

>  <TORSDO>
F 3

$$$$
=
 OpenBabel11052416013D

 34 39  0  0  1  0  0  0  0  0999 V2000
  189.1400  176.4150  138.1990 C   0  0  0  0  0  0  0  0  0  0  0  0
  187.3930  175.1440  136.8710 C   0  0  0  0  0  0  0  0  0  0  0  0
  189.4370  173.8370  136.5630 N   0  0  0  0  0  0  0  0  0  0  0  0
  190.8160  177.4030  139.4370 C   0  0  2  0  0  3  0  0  0  0  0  0
  189.4440  177.4510  139.0670 O   0  0  0  0  0  0  0  0  0  0  0  0
  191.3510  176.1020  138.8340 C   0  0  2  0  0  3  0  0  0  0  0  0
  192.7100  175.1930  136.9220 C   0  0  0  0  0  3  0  0  0  0  0  0
  192.4900  176.3720  137.8460 C   0  0  0  0  0  2  0  0  0  0  0  0
  190.3890  174.5970  137.0150 C   0  0  0  0  0  0  0  0  0  0  0  0
  190.1770  175.6020  138.0690 C   0  0  0  0  0  0  0  0  0  0  0  0
  191.7300  174.4240  136.5330 N   0  0  0  0  0  0  0  0  0  0  0  0
  186.1950  175.1470  136.1530 C   0  0  0  0  0  3  0  0  0  0  0  0
  185.4630  176.3280  135.9820 C   0  0  0  0  0  0  0  0  0  0  0  0
  185.9380  177.5150  136.5530 C   0  0  0  0  0  3  0  0  0  0  0  0
  188.0770  173.8330  137.0910 C   0  0  0  0  0  2  0  0  0  0  0  0
  187.1310  177.5200  137.2780 C   0  0  0  0  0  3  0  0  0  0  0  0
  187.8710  176.3420  137.4450 C   0  0  0  0  0  0  0  0  0  0  0  0
  184.2020  176.3210  135.2190 C   0  0  0  0  0  0  0  0  0  0  0  0
  183.8310  177.3500  134.5940 O   0  0  0  0  0  0  0  0  0  0  0  0
  183.3890  175.1510  135.1800 N   0  0  0  0  0  1  0  0  0  0  0  0
  191.0490  177.5080  140.9590 C   0  0  0  0  0  2  0  0  0  0  0  0
  190.6090  176.8120  143.2310 C   0  0  2  0  0  3  0  0  0  0  0  0
  188.7970  176.9620  141.7360 C   0  0  0  0  0  2  0  0  0  0  0  0
  187.9430  177.5030  145.8440 N   0  0  0  0  0  0  0  0  0  0  0  0
  186.9230  177.8680  144.9070 C   0  0  0  0  0  0  0  0  0  0  0  0
  189.3170  177.3590  145.3780 C   0  0  1  0  0  3  0  0  0  0  0  0
  185.7570  178.1500  145.2920 O   0  0  0  0  0  0  0  0  0  0  0  0
  189.3650  176.5530  144.0600 C   0  0  1  0  0  3  0  0  0  0  0  0
  187.6250  177.2250  147.2340 C   0  0  0  0  0  1  0  0  0  0  0  0
  187.2680  177.9250  143.4570 C   0  0  0  0  0  2  0  0  0  0  0  0
  188.1820  176.7520  143.1050 C   0  0  1  0  0  3  0  0  0  0  0  0
  189.8860  178.6240  145.2200 O   0  0  0  0  0  1  0  0  0  0  0  0
  190.2220  176.6560  141.8330 N   0  0  0  0  0  0  0  0  0  0  0  0
  191.6820  175.8020  143.5900 C   0  0  0  0  0  1  0  0  0  0  0  0
  1  5  1  0  0  0  0
  2 15  1  0  0  0  0
  2 17  1  0  0  0  0
  3  9  2  0  0  0  0
  3 15  1  0  0  0  0
  4 21  1  1  0  0  0
  5  4  1  0  0  0  0
  6  8  1  6  0  0  0
  6  4  1  0  0  0  0
  7  8  1  0  0  0  0
  9 10  1  0  0  0  0
 10  1  2  0  0  0  0
 10  6  1  0  0  0  0
 11  7  2  0  0  0  0
 11  9  1  0  0  0  0
 12  2  2  0  0  0  0
 13 12  1  0  0  0  0
 13 14  2  0  0  0  0
 14 16  1  0  0  0  0
 16 17  2  0  0  0  0
 17  1  1  0  0  0  0
 18 13  1  0  0  0  0
 19 18  2  0  0  0  0
 20 18  1  0  0  0  0
 21 33  1  0  0  0  0
 22 34  1  1  0  0  0
 22 28  1  0  0  0  0
 23 33  1  0  0  0  0
 23 31  1  0  0  0  0
 24 29  1  0  0  0  0
 25 27  2  0  0  0  0
 25 24  1  0  0  0  0
 26 32  1  6  0  0  0
 26 24  1  0  0  0  0
 28 26  1  0  0  0  0
 30 25  1  0  0  0  0
 31 30  1  0  0  0  0
 31 28  1  0  0  0  0
 33 22  1  0  0  0  0
M  END
>  <MODEL>
7

>  <REMARK>
 VINA RESULT:      -7.7      2.419      7.751
  Name = 
  3 active torsions:
  status: ('A' for Active; 'I' for Inactive)
    1  A    between atoms: C_3  and  C_25
    2  A    between atoms: C_8  and  C_18
    3  A    between atoms: C_18  and  N_30
                            x       y       z     vdW  Elec       q    Type
                         _______ _______ _______ _____ _____    ______ ____

>  <TORSDO>
F 3

$$$$
=
 OpenBabel11052416013D

 34 39  0  0  1  0  0  0  0  0999 V2000
  186.2710  177.8600  138.1560 C   0  0  0  0  0  0  0  0  0  0  0  0
  183.8340  177.5790  137.5150 C   0  0  0  0  0  0  0  0  0  0  0  0
  185.0560  176.5610  135.6580 N   0  0  0  0  0  0  0  0  0  0  0  0
  188.5240  177.9560  138.6420 C   0  0  2  0  0  3  0  0  0  0  0  0
  187.2090  178.2520  139.0970 O   0  0  0  0  0  0  0  0  0  0  0  0
  188.3330  177.1640  137.3450 C   0  0  2  0  0  3  0  0  0  0  0  0
  188.4260  177.3740  134.8400 C   0  0  0  0  0  3  0  0  0  0  0  0
  188.9820  177.8770  136.1560 C   0  0  0  0  0  2  0  0  0  0  0  0
  186.2930  176.9180  135.8370 C   0  0  0  0  0  0  0  0  0  0  0  0
  186.8560  177.2040  137.1660 C   0  0  0  0  0  0  0  0  0  0  0  0
  187.1880  176.9770  134.7170 N   0  0  0  0  0  0  0  0  0  0  0  0
  182.5110  178.0170  137.6060 C   0  0  0  0  0  3  0  0  0  0  0  0
  182.1760  179.1340  138.3820 C   0  0  0  0  0  0  0  0  0  0  0  0
  183.1840  179.8050  139.0840 C   0  0  0  0  0  3  0  0  0  0  0  0
  184.1090  176.3290  136.7420 C   0  0  0  0  0  2  0  0  0  0  0  0
  184.5080  179.3690  139.0050 C   0  0  0  0  0  3  0  0  0  0  0  0
  184.8490  178.2580  138.2230 C   0  0  0  0  0  0  0  0  0  0  0  0
  180.7780  179.5910  138.4670 C   0  0  0  0  0  0  0  0  0  0  0  0
  180.0140  179.4940  137.4700 O   0  0  0  0  0  0  0  0  0  0  0  0
  180.2740  180.1470  139.6790 N   0  0  0  0  0  1  0  0  0  0  0  0
  189.3860  177.2140  139.6850 C   0  0  0  0  0  2  0  0  0  0  0  0
  188.8270  177.8720  141.9420 C   0  0  2  0  0  3  0  0  0  0  0  0
  191.0890  177.5020  141.4130 C   0  0  0  0  0  2  0  0  0  0  0  0
  189.9390  176.8980  145.4390 N   0  0  0  0  0  0  0  0  0  0  0  0
  191.2260  176.4090  145.0430 C   0  0  0  0  0  0  0  0  0  0  0  0
  188.9460  177.1960  144.4130 C   0  0  1  0  0  3  0  0  0  0  0  0
  192.0560  175.9980  145.8960 O   0  0  0  0  0  0  0  0  0  0  0  0
  189.5830  177.9920  143.2520 C   0  0  1  0  0  3  0  0  0  0  0  0
  189.6240  177.1480  146.8350 C   0  0  0  0  0  1  0  0  0  0  0  0
  191.5670  176.3820  143.5910 C   0  0  0  0  0  2  0  0  0  0  0  0
  191.0410  177.6500  142.9200 C   0  0  1  0  0  3  0  0  0  0  0  0
  188.3780  176.0040  143.9590 O   0  0  0  0  0  1  0  0  0  0  0  0
  189.8160  177.9720  140.8750 N   0  0  0  0  0  0  0  0  0  0  0  0
  187.8210  179.0030  141.8270 C   0  0  0  0  0  1  0  0  0  0  0  0
  1 17  1  0  0  0  0
  1  5  1  0  0  0  0
  2 12  2  0  0  0  0
  2 17  1  0  0  0  0
  3  9  2  0  0  0  0
  3 15  1  0  0  0  0
  4  5  1  0  0  0  0
  4 21  1  1  0  0  0
  6  8  1  6  0  0  0
  6  4  1  0  0  0  0
  7  8  1  0  0  0  0
  9 10  1  0  0  0  0
 10  6  1  0  0  0  0
 10  1  2  0  0  0  0
 11  7  2  0  0  0  0
 11  9  1  0  0  0  0
 12 13  1  0  0  0  0
 13 18  1  0  0  0  0
 13 14  2  0  0  0  0
 15  2  1  0  0  0  0
 16 14  1  0  0  0  0
 17 16  2  0  0  0  0
 18 20  1  0  0  0  0
 19 18  2  0  0  0  0
 21 33  1  0  0  0  0
 22 34  1  6  0  0  0
 22 28  1  0  0  0  0
 23 31  1  0  0  0  0
 24 29  1  0  0  0  0
 25 24  1  0  0  0  0
 25 27  2  0  0  0  0
 26 32  1  6  0  0  0
 26 24  1  0  0  0  0
 28 26  1  0  0  0  0
 30 25  1  0  0  0  0
 31 28  1  0  0  0  0
 31 30  1  0  0  0  0
 33 23  1  0  0  0  0
 33 22  1  0  0  0  0
M  END
>  <MODEL>
8

>  <REMARK>
 VINA RESULT:      -7.6      2.361      8.091
  Name = 
  3 active torsions:
  status: ('A' for Active; 'I' for Inactive)
    1  A    between atoms: C_3  and  C_25
    2  A    between atoms: C_8  and  C_18
    3  A    between atoms: C_18  and  N_30
                            x       y       z     vdW  Elec       q    Type
                         _______ _______ _______ _____ _____    ______ ____

>  <TORSDO>
F 3

$$$$
=
 OpenBabel11052416013D

 34 39  0  0  1  0  0  0  0  0999 V2000
  186.2110  177.4410  137.8500 C   0  0  0  0  0  0  0  0  0  0  0  0
  184.1840  175.9910  137.3840 C   0  0  0  0  0  0  0  0  0  0  0  0
  185.9880  174.9040  136.1410 N   0  0  0  0  0  0  0  0  0  0  0  0
  188.1620  178.6040  138.2550 C   0  0  2  0  0  3  0  0  0  0  0  0
  186.7710  178.5060  138.5370 O   0  0  0  0  0  0  0  0  0  0  0  0
  188.4910  177.3630  137.4200 C   0  0  2  0  0  3  0  0  0  0  0  0
  188.9310  176.5960  135.0650 C   0  0  0  0  0  3  0  0  0  0  0  0
  189.0360  177.7480  136.0410 C   0  0  0  0  0  2  0  0  0  0  0  0
  186.9650  175.7600  136.1550 C   0  0  0  0  0  0  0  0  0  0  0  0
  187.1530  176.7410  137.2360 C   0  0  0  0  0  0  0  0  0  0  0  0
  187.9580  175.7270  135.1190 N   0  0  0  0  0  0  0  0  0  0  0  0
  182.7970  175.8660  137.2750 C   0  0  0  0  0  3  0  0  0  0  0  0
  181.9570  176.9650  137.5000 C   0  0  0  0  0  0  0  0  0  0  0  0
  182.5230  178.1960  137.8520 C   0  0  0  0  0  3  0  0  0  0  0  0
  185.0160  174.7590  137.2180 C   0  0  0  0  0  2  0  0  0  0  0  0
  183.9080  178.3280  137.9690 C   0  0  0  0  0  3  0  0  0  0  0  0
  184.7520  177.2340  137.7380 C   0  0  0  0  0  0  0  0  0  0  0  0
  180.4960  176.8240  137.3780 C   0  0  0  0  0  0  0  0  0  0  0  0
  179.9500  175.6990  137.5310 O   0  0  0  0  0  0  0  0  0  0  0  0
  179.6830  177.9580  137.0870 N   0  0  0  0  0  1  0  0  0  0  0  0
  189.0390  178.7360  139.5170 C   0  0  0  0  0  2  0  0  0  0  0  0
  190.5090  177.5030  140.9870 C   0  0  2  0  0  3  0  0  0  0  0  0
  188.2010  177.4950  141.4480 C   0  0  0  0  0  2  0  0  0  0  0  0
  190.8130  176.9530  144.7310 N   0  0  0  0  0  0  0  0  0  0  0  0
  189.4390  177.2330  145.0240 C   0  0  0  0  0  0  0  0  0  0  0  0
  191.3340  177.2570  143.4030 C   0  0  1  0  0  3  0  0  0  0  0  0
  188.9900  177.1280  146.1950 O   0  0  0  0  0  0  0  0  0  0  0  0
  190.3530  176.7760  142.3090 C   0  0  1  0  0  3  0  0  0  0  0  0
  191.6810  176.3260  145.7140 C   0  0  0  0  0  1  0  0  0  0  0  0
  188.5450  177.6700  143.9140 C   0  0  0  0  0  2  0  0  0  0  0  0
  188.8620  176.8620  142.6550 C   0  0  1  0  0  3  0  0  0  0  0  0
  191.5700  178.6300  143.3030 O   0  0  0  0  0  1  0  0  0  0  0  0
  189.1870  177.5440  140.3710 N   0  0  0  0  0  0  0  0  0  0  0  0
  191.4750  176.7440  140.0970 C   0  0  0  0  0  1  0  0  0  0  0  0
  1  5  1  0  0  0  0
  2 17  1  0  0  0  0
  3  9  2  0  0  0  0
  3 15  1  0  0  0  0
  4  5  1  0  0  0  0
  4 21  1  1  0  0  0
  6  8  1  6  0  0  0
  6  4  1  0  0  0  0
  7 11  2  0  0  0  0
  7  8  1  0  0  0  0
  9 10  1  0  0  0  0
 10  6  1  0  0  0  0
 10  1  2  0  0  0  0
 11  9  1  0  0  0  0
 12  2  2  0  0  0  0
 12 13  1  0  0  0  0
 13 14  2  0  0  0  0
 14 16  1  0  0  0  0
 15  2  1  0  0  0  0
 17  1  1  0  0  0  0
 17 16  2  0  0  0  0
 18 13  1  0  0  0  0
 18 19  2  0  0  0  0
 20 18  1  0  0  0  0
 21 33  1  0  0  0  0
 22 34  1  6  0  0  0
 22 28  1  0  0  0  0
 23 31  1  0  0  0  0
 24 25  1  0  0  0  0
 24 29  1  0  0  0  0
 25 27  2  0  0  0  0
 26 32  1  1  0  0  0
 26 24  1  0  0  0  0
 28 31  1  0  0  0  0
 28 26  1  0  0  0  0
 30 25  1  0  0  0  0
 31 30  1  0  0  0  0
 33 22  1  0  0  0  0
 33 23  1  0  0  0  0
M  END
>  <MODEL>
9

>  <REMARK>
 VINA RESULT:      -7.5      2.238      8.026
  Name = 
  3 active torsions:
  status: ('A' for Active; 'I' for Inactive)
    1  A    between atoms: C_3  and  C_25
    2  A    between atoms: C_8  and  C_18
    3  A    between atoms: C_18  and  N_30
                            x       y       z     vdW  Elec       q    Type
                         _______ _______ _______ _____ _____    ______ ____

>  <TORSDO>
F 3

$$$$
