=
 OpenBabel11052413583D

 34 35  0  0  1  0  0  0  0  0999 V2000
  190.6440  176.7850  146.8120 C   0  0  2  0  0  3  0  0  0  0  0  0
  189.7970  177.1390  144.4510 C   0  0  1  0  0  3  0  0  0  0  0  0
  191.0010  177.2870  145.4010 C   0  0  2  0  0  3  0  0  0  0  0  0
  188.4560  177.5730  145.0960 C   0  0  2  0  0  3  0  0  0  0  0  0
  189.5030  177.5380  147.3130 N   0  0  0  0  0  2  0  0  0  0  0  0
  188.3340  177.1260  146.5510 C   0  0  0  0  0  2  0  0  0  0  0  0
  192.0860  176.5670  144.8840 O   0  0  0  0  0  0  0  0  0  0  0  0
  191.6650  175.2320  144.8780 C   0  0  0  0  0  1  0  0  0  0  0  0
  192.4650  175.6290  148.0640 C   0  0  0  0  0  1  0  0  0  0  0  0
  191.8050  176.9660  147.7740 C   0  0  0  0  0  2  0  0  0  0  0  0
  187.4560  175.9490  143.6170 O   0  0  0  0  0  1  0  0  0  0  0  0
  187.3030  177.0960  144.3250 N   0  0  0  0  0  0  0  0  0  0  0  0
  184.1040  178.5960  143.0270 C   0  0  0  0  0  0  0  0  0  0  0  0
  183.5620  179.1330  144.1990 C   0  0  0  0  0  3  0  0  0  0  0  0
  186.0420  177.7990  144.2710 C   0  0  0  0  0  0  0  0  0  0  0  0
  184.2600  179.0130  145.4040 C   0  0  0  0  0  3  0  0  0  0  0  0
  185.3380  177.9400  143.0620 C   0  0  0  0  0  3  0  0  0  0  0  0
  185.4930  178.3480  145.4390 C   0  0  0  0  0  3  0  0  0  0  0  0
  183.3740  178.7320  141.7380 C   0  0  0  0  0  1  0  0  0  0  0  0
  190.0750  177.8390  143.0990 C   0  0  2  0  0  3  0  0  0  0  0  0
  190.6640  175.7340  142.0770 O   0  0  0  0  0  0  0  0  0  0  0  0
  190.1870  176.8910  141.9160 C   0  0  0  0  0  0  0  0  0  0  0  0
  189.7060  177.2450  140.6120 N   0  0  0  0  0  2  0  0  0  0  0  0
  188.8630  178.3920  140.3180 C   0  0  0  0  0  2  0  0  0  0  0  0
  189.0740  178.8450  138.8800 C   0  0  0  0  0  2  0  0  0  0  0  0
  188.6660  177.8030  137.9380 N   0  0  0  0  0  0  0  0  0  0  0  0
  189.3050  177.3970  135.6470 C   0  0  0  0  0  2  0  0  0  0  0  0
  189.5730  177.2870  136.9420 C   0  0  0  0  0  0  0  0  0  0  0  0
  190.8600  176.6410  137.3360 C   0  0  0  0  0  1  0  0  0  0  0  0
  187.3140  177.2650  138.0520 C   0  0  0  0  0  2  0  0  0  0  0  0
  185.1030  178.3090  138.4290 C   0  0  0  0  0  1  0  0  0  0  0  0
  186.2930  178.2440  137.4950 C   0  0  0  0  0  2  0  0  0  0  0  0
  191.2910  178.7520  143.2090 C   0  0  0  0  0  2  0  0  0  0  0  0
  190.9640  179.9090  143.9220 O   0  0  0  0  0  1  0  0  0  0  0  0
  1  5  1  0  0  0  0
  1 10  1  1  0  0  0
  2 20  1  6  0  0  0
  2  4  1  0  0  0  0
  2  3  1  0  0  0  0
  3  7  1  6  0  0  0
  3  1  1  0  0  0  0
  4 12  1  6  0  0  0
  4  6  1  0  0  0  0
  6  5  1  0  0  0  0
  8  7  1  0  0  0  0
 10  9  1  0  0  0  0
 11 12  1  0  0  0  0
 13 17  2  0  0  0  0
 13 14  1  0  0  0  0
 14 16  2  0  0  0  0
 15 12  1  0  0  0  0
 15 18  2  0  0  0  0
 16 18  1  0  0  0  0
 17 15  1  0  0  0  0
 19 13  1  0  0  0  0
 20 33  1  1  0  0  0
 22 21  2  0  0  0  0
 22 20  1  0  0  0  0
 23 22  1  0  0  0  0
 24 23  1  0  0  0  0
 25 24  1  0  0  0  0
 26 30  1  0  0  0  0
 26 25  1  0  0  0  0
 27 28  2  0  0  0  0
 28 29  1  0  0  0  0
 28 26  1  0  0  0  0
 32 30  1  0  0  0  0
 32 31  1  0  0  0  0
 33 34  1  0  0  0  0
M  END
>  <MODEL>
1

>  <REMARK>
 VINA RESULT:      -7.2      0.000      0.000
  Name = 
  13 active torsions:
  status: ('A' for Active; 'I' for Inactive)
    1  A    between atoms: C_1  and  C_19
    2  A    between atoms: O_2  and  C_15
    3  A    between atoms: C_3  and  N_13
    4  A    between atoms: C_3  and  C_17
    5  A    between atoms: C_4  and  C_31
    6  A    between atoms: C_10  and  C_31
    7  A    between atoms: C_12  and  N_28
    8  A    between atoms: N_13  and  C_14
    9  A    between atoms: N_13  and  C_33
   10  A    between atoms: C_17  and  N_29
   11  A    between atoms: C_18  and  C_31
   12  A    between atoms: C_21  and  N_28
   13  A    between atoms: C_22  and  C_33
                            x       y       z     vdW  Elec       q    Type
                         _______ _______ _______ _____ _____    ______ ____

>  <TORSDO>
F 13

$$$$
=
 OpenBabel11052413583D

 34 35  0  0  1  0  0  0  0  0999 V2000
  181.2840  179.3130  142.8470 C   0  0  2  0  0  3  0  0  0  0  0  0
  183.2780  178.7060  141.4070 C   0  0  1  0  0  3  0  0  0  0  0  0
  181.7450  178.6320  141.5460 C   0  0  2  0  0  3  0  0  0  0  0  0
  184.0240  178.4010  142.7310 C   0  0  2  0  0  3  0  0  0  0  0  0
  181.9300  178.6670  143.9810 N   0  0  0  0  0  2  0  0  0  0  0  0
  183.3410  179.0240  143.9460 C   0  0  0  0  0  2  0  0  0  0  0  0
  181.1530  179.2470  140.4350 O   0  0  0  0  0  0  0  0  0  0  0  0
  180.0930  178.4060  140.0770 C   0  0  0  0  0  1  0  0  0  0  0  0
  179.4450  178.6330  144.3870 C   0  0  0  0  0  1  0  0  0  0  0  0
  179.7790  179.2100  143.0230 C   0  0  0  0  0  2  0  0  0  0  0  0
  185.7300  179.8820  141.8850 O   0  0  0  0  0  1  0  0  0  0  0  0
  185.4280  178.8200  142.6730 N   0  0  0  0  0  0  0  0  0  0  0  0
  187.5620  177.4970  145.4770 C   0  0  0  0  0  0  0  0  0  0  0  0
  188.5320  176.7840  144.7640 C   0  0  0  0  0  3  0  0  0  0  0  0
  186.4860  178.1450  143.3890 C   0  0  0  0  0  0  0  0  0  0  0  0
  188.4880  176.7570  143.3680 C   0  0  0  0  0  3  0  0  0  0  0  0
  186.5510  178.1780  144.7930 C   0  0  0  0  0  3  0  0  0  0  0  0
  187.4690  177.4340  142.6840 C   0  0  0  0  0  3  0  0  0  0  0  0
  187.6120  177.5420  146.9620 C   0  0  0  0  0  1  0  0  0  0  0  0
  183.7640  177.8390  140.2220 C   0  0  2  0  0  3  0  0  0  0  0  0
  183.2370  179.3460  138.4130 O   0  0  0  0  0  0  0  0  0  0  0  0
  184.1130  178.6290  138.9710 C   0  0  0  0  0  0  0  0  0  0  0  0
  185.4390  178.6390  138.4250 N   0  0  0  0  0  2  0  0  0  0  0  0
  186.6220  178.1310  139.1000 C   0  0  0  0  0  2  0  0  0  0  0  0
  187.8210  178.1760  138.1640 C   0  0  0  0  0  2  0  0  0  0  0  0
  188.4150  176.8470  138.0100 N   0  0  0  0  0  0  0  0  0  0  0  0
  190.6340  175.9420  137.7360 C   0  0  0  0  0  2  0  0  0  0  0  0
  189.7380  176.5480  138.5030 C   0  0  0  0  0  0  0  0  0  0  0  0
  190.1510  176.9420  139.8830 C   0  0  0  0  0  1  0  0  0  0  0  0
  187.6150  175.8080  137.3690 C   0  0  0  0  0  2  0  0  0  0  0  0
  185.7430  175.9640  135.7600 C   0  0  0  0  0  1  0  0  0  0  0  0
  187.2230  176.2180  135.9600 C   0  0  0  0  0  2  0  0  0  0  0  0
  182.7650  176.7260  139.9270 C   0  0  0  0  0  2  0  0  0  0  0  0
  183.1870  175.9790  138.8220 O   0  0  0  0  0  1  0  0  0  0  0  0
  1 10  1  1  0  0  0
  1  5  1  0  0  0  0
  2 20  1  6  0  0  0
  2  3  1  0  0  0  0
  2  4  1  0  0  0  0
  3  7  1  6  0  0  0
  3  1  1  0  0  0  0
  4 12  1  6  0  0  0
  4  6  1  0  0  0  0
  6  5  1  0  0  0  0
  8  7  1  0  0  0  0
 10  9  1  0  0  0  0
 11 12  1  0  0  0  0
 12 15  1  0  0  0  0
 13 19  1  0  0  0  0
 14 13  2  0  0  0  0
 15 17  2  0  0  0  0
 16 14  1  0  0  0  0
 17 13  1  0  0  0  0
 18 16  2  0  0  0  0
 18 15  1  0  0  0  0
 20 33  1  6  0  0  0
 21 22  2  0  0  0  0
 22 20  1  0  0  0  0
 23 22  1  0  0  0  0
 23 24  1  0  0  0  0
 25 24  1  0  0  0  0
 26 25  1  0  0  0  0
 26 28  1  0  0  0  0
 27 28  2  0  0  0  0
 28 29  1  0  0  0  0
 30 26  1  0  0  0  0
 31 32  1  0  0  0  0
 32 30  1  0  0  0  0
 34 33  1  0  0  0  0
M  END
>  <MODEL>
2

>  <REMARK>
 VINA RESULT:      -6.8      3.159      7.053
  Name = 
  13 active torsions:
  status: ('A' for Active; 'I' for Inactive)
    1  A    between atoms: C_1  and  C_19
    2  A    between atoms: O_2  and  C_15
    3  A    between atoms: C_3  and  N_13
    4  A    between atoms: C_3  and  C_17
    5  A    between atoms: C_4  and  C_31
    6  A    between atoms: C_10  and  C_31
    7  A    between atoms: C_12  and  N_28
    8  A    between atoms: N_13  and  C_14
    9  A    between atoms: N_13  and  C_33
   10  A    between atoms: C_17  and  N_29
   11  A    between atoms: C_18  and  C_31
   12  A    between atoms: C_21  and  N_28
   13  A    between atoms: C_22  and  C_33
                            x       y       z     vdW  Elec       q    Type
                         _______ _______ _______ _____ _____    ______ ____

>  <TORSDO>
F 13

$$$$
=
 OpenBabel11052413583D

 34 35  0  0  1  0  0  0  0  0999 V2000
  181.0240  179.3090  142.8590 C   0  0  2  0  0  3  0  0  0  0  0  0
  183.1410  178.8760  141.5360 C   0  0  1  0  0  3  0  0  0  0  0  0
  181.6050  178.7510  141.5470 C   0  0  2  0  0  3  0  0  0  0  0  0
  183.7940  178.4820  142.8860 C   0  0  2  0  0  3  0  0  0  0  0  0
  181.6030  178.5880  143.9840 N   0  0  0  0  0  2  0  0  0  0  0  0
  183.0000  178.9830  144.0890 C   0  0  0  0  0  2  0  0  0  0  0  0
  181.0790  179.4400  140.4460 O   0  0  0  0  0  0  0  0  0  0  0  0
  180.1230  178.5760  139.9010 C   0  0  0  0  0  1  0  0  0  0  0  0
  179.0030  179.3890  144.3180 C   0  0  0  0  0  1  0  0  0  0  0  0
  179.5140  179.1520  142.9080 C   0  0  0  0  0  2  0  0  0  0  0  0
  185.5510  179.9730  142.1710 O   0  0  0  0  0  1  0  0  0  0  0  0
  185.1830  178.9420  142.9710 N   0  0  0  0  0  0  0  0  0  0  0  0
  187.1010  177.9730  146.0620 C   0  0  0  0  0  0  0  0  0  0  0  0
  188.0600  177.1080  145.5250 C   0  0  0  0  0  3  0  0  0  0  0  0
  186.1650  178.3360  143.8420 C   0  0  0  0  0  0  0  0  0  0  0  0
  188.0800  176.8630  144.1490 C   0  0  0  0  0  3  0  0  0  0  0  0
  186.1650  178.5880  145.2250 C   0  0  0  0  0  3  0  0  0  0  0  0
  187.1360  177.4730  143.3130 C   0  0  0  0  0  3  0  0  0  0  0  0
  187.0820  178.2500  147.5230 C   0  0  0  0  0  1  0  0  0  0  0  0
  183.7440  178.1250  140.3260 C   0  0  2  0  0  3  0  0  0  0  0  0
  183.3150  179.8830  138.7310 O   0  0  0  0  0  0  0  0  0  0  0  0
  184.1310  179.0220  139.1610 C   0  0  0  0  0  0  0  0  0  0  0  0
  185.4320  178.9670  138.5610 N   0  0  0  0  0  2  0  0  0  0  0  0
  186.5780  178.2680  139.1180 C   0  0  0  0  0  2  0  0  0  0  0  0
  187.2920  177.4790  138.0290 C   0  0  0  0  0  2  0  0  0  0  0  0
  188.7290  177.4060  138.2930 N   0  0  0  0  0  0  0  0  0  0  0  0
  190.9390  176.7540  137.5780 C   0  0  0  0  0  2  0  0  0  0  0  0
  189.6240  176.6900  137.4160 C   0  0  0  0  0  0  0  0  0  0  0  0
  189.0960  175.8280  136.3180 C   0  0  0  0  0  1  0  0  0  0  0  0
  189.2490  178.1110  139.4610 C   0  0  0  0  0  2  0  0  0  0  0  0
  190.8180  177.2970  141.1920 C   0  0  0  0  0  1  0  0  0  0  0  0
  189.4150  177.1630  140.6370 C   0  0  0  0  0  2  0  0  0  0  0  0
  182.8230  176.9920  139.8860 C   0  0  0  0  0  2  0  0  0  0  0  0
  183.1690  176.5600  138.6020 O   0  0  0  0  0  1  0  0  0  0  0  0
  1 10  1  6  0  0  0
  1  5  1  0  0  0  0
  2 20  1  6  0  0  0
  2  3  1  0  0  0  0
  2  4  1  0  0  0  0
  3  7  1  6  0  0  0
  3  1  1  0  0  0  0
  4 12  1  6  0  0  0
  4  6  1  0  0  0  0
  5  6  1  0  0  0  0
  8  7  1  0  0  0  0
 10  9  1  0  0  0  0
 11 12  1  0  0  0  0
 12 15  1  0  0  0  0
 13 19  1  0  0  0  0
 14 13  1  0  0  0  0
 15 17  1  0  0  0  0
 16 14  2  0  0  0  0
 17 13  2  0  0  0  0
 18 15  2  0  0  0  0
 18 16  1  0  0  0  0
 20 33  1  6  0  0  0
 21 22  2  0  0  0  0
 22 20  1  0  0  0  0
 23 24  1  0  0  0  0
 23 22  1  0  0  0  0
 25 26  1  0  0  0  0
 25 24  1  0  0  0  0
 26 30  1  0  0  0  0
 28 27  2  0  0  0  0
 28 26  1  0  0  0  0
 29 28  1  0  0  0  0
 30 32  1  0  0  0  0
 32 31  1  0  0  0  0
 34 33  1  0  0  0  0
M  END
>  <MODEL>
3

>  <REMARK>
 VINA RESULT:      -6.7      3.150      7.207
  Name = 
  13 active torsions:
  status: ('A' for Active; 'I' for Inactive)
    1  A    between atoms: C_1  and  C_19
    2  A    between atoms: O_2  and  C_15
    3  A    between atoms: C_3  and  N_13
    4  A    between atoms: C_3  and  C_17
    5  A    between atoms: C_4  and  C_31
    6  A    between atoms: C_10  and  C_31
    7  A    between atoms: C_12  and  N_28
    8  A    between atoms: N_13  and  C_14
    9  A    between atoms: N_13  and  C_33
   10  A    between atoms: C_17  and  N_29
   11  A    between atoms: C_18  and  C_31
   12  A    between atoms: C_21  and  N_28
   13  A    between atoms: C_22  and  C_33
                            x       y       z     vdW  Elec       q    Type
                         _______ _______ _______ _____ _____    ______ ____

>  <TORSDO>
F 13

$$$$
=
 OpenBabel11052413583D

 34 35  0  0  1  0  0  0  0  0999 V2000
  188.8430  177.5360  147.2500 C   0  0  2  0  0  3  0  0  0  0  0  0
  189.4660  177.4000  144.7980 C   0  0  1  0  0  3  0  0  0  0  0  0
  189.9460  177.7940  146.2080 C   0  0  2  0  0  3  0  0  0  0  0  0
  188.0150  177.8580  144.4990 C   0  0  2  0  0  3  0  0  0  0  0  0
  187.6540  178.2940  146.8850 N   0  0  0  0  0  2  0  0  0  0  0  0
  187.0850  177.6770  145.6960 C   0  0  0  0  0  2  0  0  0  0  0  0
  191.0980  177.0610  146.5230 O   0  0  0  0  0  0  0  0  0  0  0  0
  190.6280  175.8220  146.9720 C   0  0  0  0  0  1  0  0  0  0  0  0
  188.0730  178.2240  149.5200 C   0  0  0  0  0  1  0  0  0  0  0  0
  189.2830  177.9620  148.6400 C   0  0  0  0  0  2  0  0  0  0  0  0
  187.8940  175.9170  143.0720 O   0  0  0  0  0  1  0  0  0  0  0  0
  187.4620  177.1780  143.3240 N   0  0  0  0  0  0  0  0  0  0  0  0
  184.2540  178.5660  141.9270 C   0  0  0  0  0  0  0  0  0  0  0  0
  184.6840  179.0390  140.6830 C   0  0  0  0  0  3  0  0  0  0  0  0
  186.5100  177.7930  142.4280 C   0  0  0  0  0  0  0  0  0  0  0  0
  186.0200  178.8830  140.3050 C   0  0  0  0  0  3  0  0  0  0  0  0
  185.1600  177.9410  142.7900 C   0  0  0  0  0  3  0  0  0  0  0  0
  186.9290  178.2640  141.1740 C   0  0  0  0  0  3  0  0  0  0  0  0
  182.8300  178.7150  142.3300 C   0  0  0  0  0  1  0  0  0  0  0  0
  190.4810  177.8570  143.7240 C   0  0  2  0  0  3  0  0  0  0  0  0
  191.7860  175.8290  143.6590 O   0  0  0  0  0  0  0  0  0  0  0  0
  191.1810  176.7180  143.0000 C   0  0  0  0  0  0  0  0  0  0  0  0
  191.1280  176.5800  141.5740 N   0  0  0  0  0  2  0  0  0  0  0  0
  190.2350  177.3200  140.6970 C   0  0  0  0  0  2  0  0  0  0  0  0
  190.8290  177.4130  139.2990 C   0  0  0  0  0  2  0  0  0  0  0  0
  189.9480  176.7880  138.3130 N   0  0  0  0  0  0  0  0  0  0  0  0
  187.6470  176.8740  137.5890 C   0  0  0  0  0  2  0  0  0  0  0  0
  188.8110  177.4870  137.7630 C   0  0  0  0  0  0  0  0  0  0  0  0
  188.9000  178.9330  137.4040 C   0  0  0  0  0  1  0  0  0  0  0  0
  190.2660  175.4340  137.8680 C   0  0  0  0  0  2  0  0  0  0  0  0
  192.2790  174.5180  136.7600 C   0  0  0  0  0  1  0  0  0  0  0  0
  191.1080  175.4650  136.6030 C   0  0  0  0  0  2  0  0  0  0  0  0
  191.4780  178.8470  144.3160 C   0  0  0  0  0  2  0  0  0  0  0  0
  191.0640  180.1590  144.0630 O   0  0  0  0  0  1  0  0  0  0  0  0
  1 10  1  1  0  0  0
  2 20  1  6  0  0  0
  2  3  1  0  0  0  0
  3  7  1  1  0  0  0
  3  1  1  0  0  0  0
  4 12  1  6  0  0  0
  4  2  1  0  0  0  0
  4  6  1  0  0  0  0
  5  1  1  0  0  0  0
  6  5  1  0  0  0  0
  7  8  1  0  0  0  0
 10  9  1  0  0  0  0
 11 12  1  0  0  0  0
 13 19  1  0  0  0  0
 13 17  1  0  0  0  0
 14 13  2  0  0  0  0
 15 17  2  0  0  0  0
 15 12  1  0  0  0  0
 16 14  1  0  0  0  0
 16 18  2  0  0  0  0
 18 15  1  0  0  0  0
 20 33  1  1  0  0  0
 22 21  2  0  0  0  0
 22 20  1  0  0  0  0
 23 22  1  0  0  0  0
 24 23  1  0  0  0  0
 25 24  1  0  0  0  0
 26 25  1  0  0  0  0
 27 28  2  0  0  0  0
 28 26  1  0  0  0  0
 29 28  1  0  0  0  0
 30 26  1  0  0  0  0
 32 31  1  0  0  0  0
 32 30  1  0  0  0  0
 34 33  1  0  0  0  0
M  END
>  <MODEL>
4

>  <REMARK>
 VINA RESULT:      -6.6      1.565      2.880
  Name = 
  13 active torsions:
  status: ('A' for Active; 'I' for Inactive)
    1  A    between atoms: C_1  and  C_19
    2  A    between atoms: O_2  and  C_15
    3  A    between atoms: C_3  and  N_13
    4  A    between atoms: C_3  and  C_17
    5  A    between atoms: C_4  and  C_31
    6  A    between atoms: C_10  and  C_31
    7  A    between atoms: C_12  and  N_28
    8  A    between atoms: N_13  and  C_14
    9  A    between atoms: N_13  and  C_33
   10  A    between atoms: C_17  and  N_29
   11  A    between atoms: C_18  and  C_31
   12  A    between atoms: C_21  and  N_28
   13  A    between atoms: C_22  and  C_33
                            x       y       z     vdW  Elec       q    Type
                         _______ _______ _______ _____ _____    ______ ____

>  <TORSDO>
F 13

$$$$
=
 OpenBabel11052413583D

 34 35  0  0  1  0  0  0  0  0999 V2000
  180.9200  179.1020  142.4520 C   0  0  2  0  0  3  0  0  0  0  0  0
  182.7630  178.4110  140.8560 C   0  0  1  0  0  3  0  0  0  0  0  0
  181.2620  178.2970  141.1840 C   0  0  2  0  0  3  0  0  0  0  0  0
  183.6710  178.2840  142.1070 C   0  0  2  0  0  3  0  0  0  0  0  0
  181.7240  178.6100  143.5620 N   0  0  0  0  0  2  0  0  0  0  0  0
  183.1020  179.0130  143.3210 C   0  0  0  0  0  2  0  0  0  0  0  0
  180.5160  178.7610  140.0930 O   0  0  0  0  0  0  0  0  0  0  0  0
  180.6130  180.1560  140.1550 C   0  0  0  0  0  1  0  0  0  0  0  0
  179.2760  179.0160  144.3240 C   0  0  0  0  0  1  0  0  0  0  0  0
  179.4530  178.9630  142.8170 C   0  0  0  0  0  2  0  0  0  0  0  0
  185.2030  179.6520  140.8400 O   0  0  0  0  0  1  0  0  0  0  0  0
  185.0360  178.7460  141.8360 N   0  0  0  0  0  0  0  0  0  0  0  0
  188.5700  177.7440  142.6590 C   0  0  0  0  0  0  0  0  0  0  0  0
  188.4400  177.3720  144.0010 C   0  0  0  0  0  3  0  0  0  0  0  0
  186.1920  178.2660  142.5580 C   0  0  0  0  0  0  0  0  0  0  0  0
  187.1890  177.4370  144.6210 C   0  0  0  0  0  3  0  0  0  0  0  0
  187.4520  178.1810  141.9410 C   0  0  0  0  0  3  0  0  0  0  0  0
  186.0710  177.8830  143.9030 C   0  0  0  0  0  3  0  0  0  0  0  0
  189.8950  177.6640  141.9880 C   0  0  0  0  0  1  0  0  0  0  0  0
  183.1530  177.4360  139.7200 C   0  0  2  0  0  3  0  0  0  0  0  0
  182.2100  178.6820  137.8820 O   0  0  0  0  0  0  0  0  0  0  0  0
  183.2150  178.0750  138.3420 C   0  0  0  0  0  0  0  0  0  0  0  0
  184.4140  178.0660  137.5550 N   0  0  0  0  0  2  0  0  0  0  0  0
  185.7300  177.6920  138.0470 C   0  0  0  0  0  2  0  0  0  0  0  0
  186.7760  177.9040  136.9610 C   0  0  0  0  0  2  0  0  0  0  0  0
  187.9150  177.0060  137.1500 N   0  0  0  0  0  0  0  0  0  0  0  0
  189.8410  176.3820  138.4640 C   0  0  0  0  0  2  0  0  0  0  0  0
  188.9750  177.3120  138.0810 C   0  0  0  0  0  0  0  0  0  0  0  0
  189.1500  178.6940  138.6170 C   0  0  0  0  0  1  0  0  0  0  0  0
  187.9400  175.7590  136.3900 C   0  0  0  0  0  2  0  0  0  0  0  0
  187.6840  173.3510  136.8920 C   0  0  0  0  0  1  0  0  0  0  0  0
  187.0420  174.7150  137.0310 C   0  0  0  0  0  2  0  0  0  0  0  0
  182.2480  176.2090  139.7340 C   0  0  0  0  0  2  0  0  0  0  0  0
  182.7170  175.2530  138.8280 O   0  0  0  0  0  1  0  0  0  0  0  0
  1 10  1  1  0  0  0
  1  5  1  0  0  0  0
  2 20  1  6  0  0  0
  2  3  1  0  0  0  0
  2  4  1  0  0  0  0
  3  7  1  6  0  0  0
  3  1  1  0  0  0  0
  4 12  1  6  0  0  0
  4  6  1  0  0  0  0
  6  5  1  0  0  0  0
  7  8  1  0  0  0  0
 10  9  1  0  0  0  0
 11 12  1  0  0  0  0
 12 15  1  0  0  0  0
 13 14  1  0  0  0  0
 14 16  2  0  0  0  0
 15 18  2  0  0  0  0
 17 15  1  0  0  0  0
 17 13  2  0  0  0  0
 18 16  1  0  0  0  0
 19 13  1  0  0  0  0
 20 33  1  6  0  0  0
 21 22  2  0  0  0  0
 22 20  1  0  0  0  0
 23 24  1  0  0  0  0
 23 22  1  0  0  0  0
 25 26  1  0  0  0  0
 25 24  1  0  0  0  0
 26 28  1  0  0  0  0
 28 27  2  0  0  0  0
 28 29  1  0  0  0  0
 30 32  1  0  0  0  0
 30 26  1  0  0  0  0
 31 32  1  0  0  0  0
 34 33  1  0  0  0  0
M  END
>  <MODEL>
5

>  <REMARK>
 VINA RESULT:      -6.3      3.489      7.447
  Name = 
  13 active torsions:
  status: ('A' for Active; 'I' for Inactive)
    1  A    between atoms: C_1  and  C_19
    2  A    between atoms: O_2  and  C_15
    3  A    between atoms: C_3  and  N_13
    4  A    between atoms: C_3  and  C_17
    5  A    between atoms: C_4  and  C_31
    6  A    between atoms: C_10  and  C_31
    7  A    between atoms: C_12  and  N_28
    8  A    between atoms: N_13  and  C_14
    9  A    between atoms: N_13  and  C_33
   10  A    between atoms: C_17  and  N_29
   11  A    between atoms: C_18  and  C_31
   12  A    between atoms: C_21  and  N_28
   13  A    between atoms: C_22  and  C_33
                            x       y       z     vdW  Elec       q    Type
                         _______ _______ _______ _____ _____    ______ ____

>  <TORSDO>
F 13

$$$$
=
 OpenBabel11052413583D

 34 35  0  0  1  0  0  0  0  0999 V2000
  188.4370  177.0040  146.7830 C   0  0  2  0  0  3  0  0  0  0  0  0
  189.3300  177.2580  144.4260 C   0  0  1  0  0  3  0  0  0  0  0  0
  189.6820  177.2910  145.9250 C   0  0  2  0  0  3  0  0  0  0  0  0
  187.9970  177.9790  144.0980 C   0  0  2  0  0  3  0  0  0  0  0  0
  187.4080  177.9890  146.4780 N   0  0  0  0  0  2  0  0  0  0  0  0
  186.9130  177.7100  145.1380 C   0  0  0  0  0  2  0  0  0  0  0  0
  190.6840  176.3460  146.1830 O   0  0  0  0  0  0  0  0  0  0  0  0
  191.4560  176.9070  147.2070 C   0  0  0  0  0  1  0  0  0  0  0  0
  188.0780  178.2840  148.8930 C   0  0  0  0  0  1  0  0  0  0  0  0
  188.7560  177.0780  148.2660 C   0  0  0  0  0  2  0  0  0  0  0  0
  188.2830  176.8180  142.0020 O   0  0  0  0  0  1  0  0  0  0  0  0
  187.5080  177.6330  142.7600 N   0  0  0  0  0  0  0  0  0  0  0  0
  183.9280  178.7680  142.4890 C   0  0  0  0  0  0  0  0  0  0  0  0
  183.8690  179.1580  141.1480 C   0  0  0  0  0  3  0  0  0  0  0  0
  186.2660  178.1340  142.2170 C   0  0  0  0  0  0  0  0  0  0  0  0
  185.0010  179.0290  140.3370 C   0  0  0  0  0  3  0  0  0  0  0  0
  185.1160  178.2530  143.0170 C   0  0  0  0  0  3  0  0  0  0  0  0
  186.1930  178.5210  140.8700 C   0  0  0  0  0  3  0  0  0  0  0  0
  182.7250  178.8880  143.3540 C   0  0  0  0  0  1  0  0  0  0  0  0
  190.5180  177.7580  143.5710 C   0  0  2  0  0  3  0  0  0  0  0  0
  191.7220  175.6760  143.7450 O   0  0  0  0  0  0  0  0  0  0  0  0
  191.3980  176.6510  143.0140 C   0  0  0  0  0  0  0  0  0  0  0  0
  191.8320  176.6420  141.6470 N   0  0  0  0  0  2  0  0  0  0  0  0
  191.3090  177.5040  140.6010 C   0  0  0  0  0  2  0  0  0  0  0  0
  191.8730  177.0910  139.2490 C   0  0  0  0  0  2  0  0  0  0  0  0
  190.8560  176.4160  138.4420 N   0  0  0  0  0  0  0  0  0  0  0  0
  192.3250  175.5400  136.7400 C   0  0  0  0  0  2  0  0  0  0  0  0
  191.2100  175.4300  137.4500 C   0  0  0  0  0  0  0  0  0  0  0  0
  190.3470  174.2340  137.2140 C   0  0  0  0  0  1  0  0  0  0  0  0
  189.4540  176.7420  138.6890 C   0  0  0  0  0  2  0  0  0  0  0  0
  189.0670  179.0140  137.7890 C   0  0  0  0  0  1  0  0  0  0  0  0
  188.8700  177.5340  137.5320 C   0  0  0  0  0  2  0  0  0  0  0  0
  191.3310  178.7950  144.3380 C   0  0  0  0  0  2  0  0  0  0  0  0
  190.9290  180.0860  143.9810 O   0  0  0  0  0  1  0  0  0  0  0  0
  1 10  1  1  0  0  0
  2 20  1  6  0  0  0
  2  3  1  0  0  0  0
  3  7  1  6  0  0  0
  3  1  1  0  0  0  0
  4 12  1  6  0  0  0
  4  2  1  0  0  0  0
  4  6  1  0  0  0  0
  5  1  1  0  0  0  0
  6  5  1  0  0  0  0
  7  8  1  0  0  0  0
 10  9  1  0  0  0  0
 11 12  1  0  0  0  0
 13 17  1  0  0  0  0
 13 19  1  0  0  0  0
 14 13  2  0  0  0  0
 15 12  1  0  0  0  0
 15 17  2  0  0  0  0
 16 18  2  0  0  0  0
 16 14  1  0  0  0  0
 18 15  1  0  0  0  0
 20 33  1  1  0  0  0
 22 20  1  0  0  0  0
 22 21  2  0  0  0  0
 23 22  1  0  0  0  0
 24 23  1  0  0  0  0
 25 24  1  0  0  0  0
 26 30  1  0  0  0  0
 26 25  1  0  0  0  0
 27 28  2  0  0  0  0
 28 26  1  0  0  0  0
 29 28  1  0  0  0  0
 32 31  1  0  0  0  0
 32 30  1  0  0  0  0
 34 33  1  0  0  0  0
M  END
>  <MODEL>
6

>  <REMARK>
 VINA RESULT:      -6.1      1.630      2.617
  Name = 
  13 active torsions:
  status: ('A' for Active; 'I' for Inactive)
    1  A    between atoms: C_1  and  C_19
    2  A    between atoms: O_2  and  C_15
    3  A    between atoms: C_3  and  N_13
    4  A    between atoms: C_3  and  C_17
    5  A    between atoms: C_4  and  C_31
    6  A    between atoms: C_10  and  C_31
    7  A    between atoms: C_12  and  N_28
    8  A    between atoms: N_13  and  C_14
    9  A    between atoms: N_13  and  C_33
   10  A    between atoms: C_17  and  N_29
   11  A    between atoms: C_18  and  C_31
   12  A    between atoms: C_21  and  N_28
   13  A    between atoms: C_22  and  C_33
                            x       y       z     vdW  Elec       q    Type
                         _______ _______ _______ _____ _____    ______ ____

>  <TORSDO>
F 13

$$$$
=
 OpenBabel11052413583D

 34 35  0  0  1  0  0  0  0  0999 V2000
  190.6750  176.0170  138.8310 C   0  0  2  0  0  3  0  0  0  0  0  0
  188.4740  177.2670  138.9380 C   0  0  1  0  0  3  0  0  0  0  0  0
  189.5390  176.6530  138.0100 C   0  0  2  0  0  3  0  0  0  0  0  0
  189.0830  178.0510  140.1280 C   0  0  2  0  0  3  0  0  0  0  0  0
  191.2700  177.0310  139.6900 N   0  0  0  0  0  2  0  0  0  0  0  0
  190.3020  177.3540  140.7280 C   0  0  0  0  0  2  0  0  0  0  0  0
  188.9340  175.6940  137.1860 O   0  0  0  0  0  0  0  0  0  0  0  0
  189.4730  175.9170  135.9140 C   0  0  0  0  0  1  0  0  0  0  0  0
  192.9890  176.3350  137.9580 C   0  0  0  0  0  1  0  0  0  0  0  0
  191.7580  175.4470  137.9320 C   0  0  0  0  0  2  0  0  0  0  0  0
  186.9730  178.9980  140.8160 O   0  0  0  0  0  1  0  0  0  0  0  0
  188.0880  178.3120  141.1730 N   0  0  0  0  0  0  0  0  0  0  0  0
  189.6680  177.5060  144.4930 C   0  0  0  0  0  0  0  0  0  0  0  0
  188.5480  177.1260  145.2400 C   0  0  0  0  0  3  0  0  0  0  0  0
  188.2550  177.8970  142.5470 C   0  0  0  0  0  0  0  0  0  0  0  0
  187.2840  177.1220  144.6420 C   0  0  0  0  0  3  0  0  0  0  0  0
  189.5220  177.8810  143.1540 C   0  0  0  0  0  3  0  0  0  0  0  0
  187.1390  177.5070  143.3030 C   0  0  0  0  0  3  0  0  0  0  0  0
  191.0170  177.4990  145.1180 C   0  0  0  0  0  1  0  0  0  0  0  0
  187.4490  178.0930  138.1260 C   0  0  2  0  0  3  0  0  0  0  0  0
  186.2270  176.1820  137.3070 O   0  0  0  0  0  0  0  0  0  0  0  0
  186.1680  177.3450  137.7900 C   0  0  0  0  0  0  0  0  0  0  0  0
  184.8730  177.8980  138.0630 N   0  0  0  0  0  2  0  0  0  0  0  0
  184.6240  179.0700  138.8850 C   0  0  0  0  0  2  0  0  0  0  0  0
  183.1320  179.2200  139.1470 C   0  0  0  0  0  2  0  0  0  0  0  0
  182.6900  178.2980  140.1940 N   0  0  0  0  0  0  0  0  0  0  0  0
  180.3020  178.0030  140.0120 C   0  0  0  0  0  2  0  0  0  0  0  0
  181.5180  177.4720  140.0300 C   0  0  0  0  0  0  0  0  0  0  0  0
  181.6390  175.9970  139.8400 C   0  0  0  0  0  1  0  0  0  0  0  0
  183.4900  178.2070  141.4120 C   0  0  0  0  0  2  0  0  0  0  0  0
  183.5710  178.6330  143.8470 C   0  0  0  0  0  1  0  0  0  0  0  0
  182.7810  178.8750  142.5780 C   0  0  0  0  0  2  0  0  0  0  0  0
  188.1020  178.6840  136.8820 C   0  0  0  0  0  2  0  0  0  0  0  0
  188.8610  179.8080  137.2220 O   0  0  0  0  0  1  0  0  0  0  0  0
  1 10  1  6  0  0  0
  1  5  1  0  0  0  0
  2 20  1  6  0  0  0
  2  4  1  0  0  0  0
  3  7  1  1  0  0  0
  3  1  1  0  0  0  0
  3  2  1  0  0  0  0
  4  6  1  0  0  0  0
  4 12  1  1  0  0  0
  5  6  1  0  0  0  0
  8  7  1  0  0  0  0
 10  9  1  0  0  0  0
 11 12  1  0  0  0  0
 12 15  1  0  0  0  0
 13 19  1  0  0  0  0
 13 14  1  0  0  0  0
 15 17  1  0  0  0  0
 15 18  2  0  0  0  0
 16 14  2  0  0  0  0
 17 13  2  0  0  0  0
 18 16  1  0  0  0  0
 20 33  1  6  0  0  0
 21 22  2  0  0  0  0
 22 23  1  0  0  0  0
 22 20  1  0  0  0  0
 23 24  1  0  0  0  0
 24 25  1  0  0  0  0
 25 26  1  0  0  0  0
 26 30  1  0  0  0  0
 27 28  2  0  0  0  0
 28 26  1  0  0  0  0
 29 28  1  0  0  0  0
 30 32  1  0  0  0  0
 32 31  1  0  0  0  0
 33 34  1  0  0  0  0
M  END
>  <MODEL>
7

>  <REMARK>
 VINA RESULT:      -6.0      2.796      6.743
  Name = 
  13 active torsions:
  status: ('A' for Active; 'I' for Inactive)
    1  A    between atoms: C_1  and  C_19
    2  A    between atoms: O_2  and  C_15
    3  A    between atoms: C_3  and  N_13
    4  A    between atoms: C_3  and  C_17
    5  A    between atoms: C_4  and  C_31
    6  A    between atoms: C_10  and  C_31
    7  A    between atoms: C_12  and  N_28
    8  A    between atoms: N_13  and  C_14
    9  A    between atoms: N_13  and  C_33
   10  A    between atoms: C_17  and  N_29
   11  A    between atoms: C_18  and  C_31
   12  A    between atoms: C_21  and  N_28
   13  A    between atoms: C_22  and  C_33
                            x       y       z     vdW  Elec       q    Type
                         _______ _______ _______ _____ _____    ______ ____

>  <TORSDO>
F 13

$$$$
=
 OpenBabel11052413583D

 34 35  0  0  1  0  0  0  0  0999 V2000
  181.5970  179.3500  143.0420 C   0  0  2  0  0  3  0  0  0  0  0  0
  183.3420  178.6640  141.3390 C   0  0  1  0  0  3  0  0  0  0  0  0
  181.8380  178.6880  141.6740 C   0  0  2  0  0  3  0  0  0  0  0  0
  184.2280  178.2620  142.5460 C   0  0  2  0  0  3  0  0  0  0  0  0
  182.3350  178.6220  144.0640 N   0  0  0  0  0  2  0  0  0  0  0  0
  183.7520  178.8850  143.8560 C   0  0  0  0  0  2  0  0  0  0  0  0
  181.1530  179.3800  140.6670 O   0  0  0  0  0  0  0  0  0  0  0  0
  179.9070  178.7510  140.5780 C   0  0  0  0  0  1  0  0  0  0  0  0
  179.8150  178.1720  144.3300 C   0  0  0  0  0  1  0  0  0  0  0  0
  180.1230  179.3410  143.4100 C   0  0  0  0  0  2  0  0  0  0  0  0
  185.9210  179.4890  141.3410 O   0  0  0  0  0  1  0  0  0  0  0  0
  185.6390  178.5890  142.3170 N   0  0  0  0  0  0  0  0  0  0  0  0
  187.8040  177.4350  145.1710 C   0  0  0  0  0  0  0  0  0  0  0  0
  188.8200  176.7620  144.4850 C   0  0  0  0  0  3  0  0  0  0  0  0
  186.7220  177.9860  143.0590 C   0  0  0  0  0  0  0  0  0  0  0  0
  188.7950  176.7060  143.0890 C   0  0  0  0  0  3  0  0  0  0  0  0
  186.7670  178.0490  144.4620 C   0  0  0  0  0  3  0  0  0  0  0  0
  187.7500  177.3140  142.3800 C   0  0  0  0  0  3  0  0  0  0  0  0
  187.8320  177.5110  146.6570 C   0  0  0  0  0  1  0  0  0  0  0  0
  183.6100  177.8100  140.0770 C   0  0  2  0  0  3  0  0  0  0  0  0
  183.3940  179.8210  138.7620 O   0  0  0  0  0  0  0  0  0  0  0  0
  183.7690  178.6170  138.7990 C   0  0  0  0  0  0  0  0  0  0  0  0
  184.3940  178.0700  137.6300 N   0  0  0  0  0  2  0  0  0  0  0  0
  185.1490  176.8290  137.5920 C   0  0  0  0  0  2  0  0  0  0  0  0
  185.4380  176.4330  136.1510 C   0  0  0  0  0  2  0  0  0  0  0  0
  185.9640  175.0700  136.0780 N   0  0  0  0  0  0  0  0  0  0  0  0
  183.9820  173.7130  136.3070 C   0  0  0  0  0  2  0  0  0  0  0  0
  185.2450  173.9510  136.6370 C   0  0  0  0  0  0  0  0  0  0  0  0
  185.9110  173.0040  137.5800 C   0  0  0  0  0  1  0  0  0  0  0  0
  187.2340  174.8590  135.3890 C   0  0  0  0  0  2  0  0  0  0  0  0
  188.7480  175.3980  137.2700 C   0  0  0  0  0  1  0  0  0  0  0  0
  188.2910  175.8280  135.8920 C   0  0  0  0  0  2  0  0  0  0  0  0
  182.5520  176.7220  139.9320 C   0  0  0  0  0  2  0  0  0  0  0  0
  181.9030  176.8420  138.6990 O   0  0  0  0  0  1  0  0  0  0  0  0
  1 10  1  1  0  0  0
  1  5  1  0  0  0  0
  2 20  1  6  0  0  0
  2  3  1  0  0  0  0
  2  4  1  0  0  0  0
  3  7  1  6  0  0  0
  3  1  1  0  0  0  0
  4 12  1  6  0  0  0
  4  6  1  0  0  0  0
  6  5  1  0  0  0  0
  8  7  1  0  0  0  0
 10  9  1  0  0  0  0
 11 12  1  0  0  0  0
 12 15  1  0  0  0  0
 13 19  1  0  0  0  0
 14 13  1  0  0  0  0
 15 17  1  0  0  0  0
 16 14  2  0  0  0  0
 17 13  2  0  0  0  0
 18 15  2  0  0  0  0
 18 16  1  0  0  0  0
 20 33  1  6  0  0  0
 21 22  2  0  0  0  0
 22 20  1  0  0  0  0
 23 22  1  0  0  0  0
 24 23  1  0  0  0  0
 25 24  1  0  0  0  0
 26 25  1  0  0  0  0
 26 28  1  0  0  0  0
 27 28  2  0  0  0  0
 28 29  1  0  0  0  0
 30 32  1  0  0  0  0
 30 26  1  0  0  0  0
 32 31  1  0  0  0  0
 34 33  1  0  0  0  0
M  END
>  <MODEL>
8

>  <REMARK>
 VINA RESULT:      -5.8      3.565      7.420
  Name = 
  13 active torsions:
  status: ('A' for Active; 'I' for Inactive)
    1  A    between atoms: C_1  and  C_19
    2  A    between atoms: O_2  and  C_15
    3  A    between atoms: C_3  and  N_13
    4  A    between atoms: C_3  and  C_17
    5  A    between atoms: C_4  and  C_31
    6  A    between atoms: C_10  and  C_31
    7  A    between atoms: C_12  and  N_28
    8  A    between atoms: N_13  and  C_14
    9  A    between atoms: N_13  and  C_33
   10  A    between atoms: C_17  and  N_29
   11  A    between atoms: C_18  and  C_31
   12  A    between atoms: C_21  and  N_28
   13  A    between atoms: C_22  and  C_33
                            x       y       z     vdW  Elec       q    Type
                         _______ _______ _______ _____ _____    ______ ____

>  <TORSDO>
F 13

$$$$
=
 OpenBabel11052413583D

 34 35  0  0  1  0  0  0  0  0999 V2000
  181.1290  177.1260  137.8830 C   0  0  2  0  0  3  0  0  0  0  0  0
  183.6320  177.3810  138.1810 C   0  0  1  0  0  3  0  0  0  0  0  0
  182.5140  176.6080  137.4550 C   0  0  2  0  0  3  0  0  0  0  0  0
  183.3360  177.6080  139.6860 C   0  0  2  0  0  3  0  0  0  0  0  0
  180.9910  176.9860  139.3260 N   0  0  0  0  0  2  0  0  0  0  0  0
  181.8750  177.9600  139.9500 C   0  0  0  0  0  2  0  0  0  0  0  0
  182.6820  176.7480  136.0710 O   0  0  0  0  0  0  0  0  0  0  0  0
  182.2200  178.0350  135.7770 C   0  0  0  0  0  1  0  0  0  0  0  0
  180.0710  174.8820  137.6210 C   0  0  0  0  0  1  0  0  0  0  0  0
  180.0130  176.3440  137.2120 C   0  0  0  0  0  2  0  0  0  0  0  0
  184.5800  179.6630  139.4630 O   0  0  0  0  0  1  0  0  0  0  0  0
  184.2140  178.6310  140.2630 N   0  0  0  0  0  0  0  0  0  0  0  0
  184.3570  178.7300  144.0230 C   0  0  0  0  0  0  0  0  0  0  0  0
  185.6990  178.4070  144.2510 C   0  0  0  0  0  3  0  0  0  0  0  0
  184.7130  178.5720  141.6180 C   0  0  0  0  0  0  0  0  0  0  0  0
  186.5510  178.1760  143.1670 C   0  0  0  0  0  3  0  0  0  0  0  0
  183.8700  178.8190  142.7160 C   0  0  0  0  0  3  0  0  0  0  0  0
  186.0590  178.2570  141.8570 C   0  0  0  0  0  3  0  0  0  0  0  0
  183.4480  178.9910  145.1710 C   0  0  0  0  0  1  0  0  0  0  0  0
  185.0090  176.7250  137.9230 C   0  0  2  0  0  3  0  0  0  0  0  0
  185.5210  177.8730  135.8640 O   0  0  0  0  0  0  0  0  0  0  0  0
  185.9220  177.5260  137.0090 C   0  0  0  0  0  0  0  0  0  0  0  0
  187.2220  177.9630  137.4290 N   0  0  0  0  0  2  0  0  0  0  0  0
  187.7130  177.9220  138.7960 C   0  0  0  0  0  2  0  0  0  0  0  0
  189.1080  178.5280  138.8720 C   0  0  0  0  0  2  0  0  0  0  0  0
  190.0690  177.5640  139.4070 N   0  0  0  0  0  0  0  0  0  0  0  0
  189.9420  175.6470  137.9460 C   0  0  0  0  0  2  0  0  0  0  0  0
  190.6780  176.5590  138.5700 C   0  0  0  0  0  0  0  0  0  0  0  0
  192.1540  176.5330  138.3510 C   0  0  0  0  0  1  0  0  0  0  0  0
  190.4280  177.6630  140.8190 C   0  0  0  0  0  2  0  0  0  0  0  0
  189.8900  176.6850  143.0270 C   0  0  0  0  0  1  0  0  0  0  0  0
  190.0850  176.3790  141.5560 C   0  0  0  0  0  2  0  0  0  0  0  0
  184.8360  175.2920  137.4340 C   0  0  0  0  0  2  0  0  0  0  0  0
  185.9710  174.8830  136.7260 O   0  0  0  0  0  1  0  0  0  0  0  0
  1 10  1  6  0  0  0
  1  5  1  0  0  0  0
  2 20  1  1  0  0  0
  2  4  1  0  0  0  0
  3  7  1  6  0  0  0
  3  1  1  0  0  0  0
  3  2  1  0  0  0  0
  4  6  1  0  0  0  0
  4 12  1  6  0  0  0
  5  6  1  0  0  0  0
  8  7  1  0  0  0  0
 10  9  1  0  0  0  0
 11 12  1  0  0  0  0
 12 15  1  0  0  0  0
 13 14  1  0  0  0  0
 13 19  1  0  0  0  0
 15 18  2  0  0  0  0
 15 17  1  0  0  0  0
 16 14  2  0  0  0  0
 17 13  2  0  0  0  0
 18 16  1  0  0  0  0
 20 33  1  6  0  0  0
 21 22  2  0  0  0  0
 22 23  1  0  0  0  0
 22 20  1  0  0  0  0
 23 24  1  0  0  0  0
 24 25  1  0  0  0  0
 25 26  1  0  0  0  0
 26 30  1  0  0  0  0
 27 28  2  0  0  0  0
 28 26  1  0  0  0  0
 29 28  1  0  0  0  0
 30 32  1  0  0  0  0
 32 31  1  0  0  0  0
 34 33  1  0  0  0  0
M  END
>  <MODEL>
9

>  <REMARK>
 VINA RESULT:      -5.7      3.801      7.931
  Name = 
  13 active torsions:
  status: ('A' for Active; 'I' for Inactive)
    1  A    between atoms: C_1  and  C_19
    2  A    between atoms: O_2  and  C_15
    3  A    between atoms: C_3  and  N_13
    4  A    between atoms: C_3  and  C_17
    5  A    between atoms: C_4  and  C_31
    6  A    between atoms: C_10  and  C_31
    7  A    between atoms: C_12  and  N_28
    8  A    between atoms: N_13  and  C_14
    9  A    between atoms: N_13  and  C_33
   10  A    between atoms: C_17  and  N_29
   11  A    between atoms: C_18  and  C_31
   12  A    between atoms: C_21  and  N_28
   13  A    between atoms: C_22  and  C_33
                            x       y       z     vdW  Elec       q    Type
                         _______ _______ _______ _____ _____    ______ ____

>  <TORSDO>
F 13

$$$$
