=
 OpenBabel11052412233D

 30 32  0  0  1  0  0  0  0  0999 V2000
  191.0050  176.6920  144.0850 C   0  0  0  0  0  0  0  0  0  0  0  0
  191.6530  176.3570  145.3140 N   0  0  0  0  0  0  0  0  0  0  0  0
  191.6220  176.5320  142.9980 O   0  0  0  0  0  0  0  0  0  0  0  0
  189.2160  177.8290  145.4300 C   0  0  2  0  0  3  0  0  0  0  0  0
  190.9770  176.5090  146.5660 C   0  0  0  0  0  3  0  0  0  0  0  0
  189.5600  177.1330  144.1010 C   0  0  1  0  0  3  0  0  0  0  0  0
  189.8140  177.1550  146.6370 C   0  0  0  0  0  2  0  0  0  0  0  0
  185.8040  178.4790  147.0010 C   0  0  0  0  0  3  0  0  0  0  0  0
  184.9690  178.3760  145.8870 C   0  0  0  0  0  3  0  0  0  0  0  0
  187.1830  178.2990  146.8670 C   0  0  0  0  0  0  0  0  0  0  0  0
  186.8820  177.9100  144.4900 C   0  0  0  0  0  3  0  0  0  0  0  0
  188.0420  178.4220  148.0800 C   0  0  0  0  0  1  0  0  0  0  0  0
  185.5030  178.0910  144.6240 C   0  0  0  0  0  0  0  0  0  0  0  0
  187.7330  178.0090  145.6030 C   0  0  0  0  0  0  0  0  0  0  0  0
  185.5310  179.7880  142.2150 O   0  0  0  0  0  0  0  0  0  0  0  0
  184.7140  178.8330  142.3010 C   0  0  0  0  0  0  0  0  0  0  0  0
  184.6770  177.9850  143.4560 N   0  0  0  0  0  2  0  0  0  0  0  0
  183.7710  178.5770  141.1820 C   0  0  0  0  0  1  0  0  0  0  0  0
  188.6900  177.5990  141.8470 C   0  0  0  0  0  3  0  0  0  0  0  0
  189.2570  178.0570  142.9590 C   0  0  0  0  0  3  0  0  0  0  0  0
  188.3950  178.5310  140.7230 C   0  0  0  0  0  2  0  0  0  0  0  0
  189.3250  178.2650  139.5450 C   0  0  2  0  0  3  0  0  0  0  0  0
  189.0800  179.1970  138.5380 O   0  0  0  0  0  1  0  0  0  0  0  0
  189.6700  175.0530  137.3390 C   0  0  0  0  0  2  0  0  0  0  0  0
  189.1860  176.8470  138.9810 C   0  0  1  0  0  3  0  0  0  0  0  0
  188.3250  175.7030  137.0760 C   0  0  2  0  0  0  0  0  0  0  0  0
  188.0660  176.7630  138.0500 N   0  0  0  0  0  2  0  0  0  0  0  0
  190.7040  176.2640  138.1770 S   0  0  0  0  0  0  0  0  0  0  0  0
  187.3220  174.7380  137.1640 O   0  0  0  0  0  1  0  0  0  0  0  0
  188.3200  176.2980  135.6830 C   0  0  0  0  0  1  0  0  0  0  0  0
  1  6  1  0  0  0  0
  1  2  1  0  0  0  0
  2  5  2  0  0  0  0
  3  1  2  0  0  0  0
  4 14  1  1  0  0  0
  4  7  1  0  0  0  0
  5  7  1  0  0  0  0
  6 20  1  6  0  0  0
  6  4  1  0  0  0  0
  9  8  2  0  0  0  0
 10  8  1  0  0  0  0
 10 12  1  0  0  0  0
 11 13  2  0  0  0  0
 11 14  1  0  0  0  0
 13  9  1  0  0  0  0
 14 10  2  0  0  0  0
 15 16  2  0  0  0  0
 16 17  1  0  0  0  0
 17 13  1  0  0  0  0
 18 16  1  0  0  0  0
 19 20  2  0  0  0  0
 21 19  1  0  0  0  0
 22 23  1  6  0  0  0
 22 21  1  0  0  0  0
 24 28  1  0  0  0  0
 25 22  1  6  0  0  0
 26 30  1  6  0  0  0
 26 29  1  0  0  0  0
 26 24  1  0  0  0  0
 26 27  1  0  0  0  0
 27 25  1  0  0  0  0
 28 25  1  0  0  0  0
M  END
>  <MODEL>
1

>  <REMARK>
 VINA RESULT:      -9.7      0.000      0.000
  Name = 
  6 active torsions:
  status: ('A' for Active; 'I' for Inactive)
    1  A    between atoms: C_1  and  C_4
    2  A    between atoms: C_4  and  C_27
    3  A    between atoms: C_5  and  C_22
    4  A    between atoms: C_8  and  C_27
    5  A    between atoms: N_16  and  C_25
    6  A    between atoms: C_19  and  C_29
                            x       y       z     vdW  Elec       q    Type
                         _______ _______ _______ _____ _____    ______ ____

>  <TORSDO>
F 6

$$$$
=
 OpenBabel11052412233D

 30 32  0  0  1  0  0  0  0  0999 V2000
  191.1050  176.3800  144.6200 C   0  0  0  0  0  0  0  0  0  0  0  0
  191.6610  176.2710  145.9320 N   0  0  0  0  0  0  0  0  0  0  0  0
  191.7930  176.0250  143.6260 O   0  0  0  0  0  0  0  0  0  0  0  0
  189.2460  177.7470  145.6090 C   0  0  2  0  0  3  0  0  0  0  0  0
  190.9030  176.6480  147.0860 C   0  0  0  0  0  3  0  0  0  0  0  0
  189.6700  176.8210  144.4540 C   0  0  1  0  0  3  0  0  0  0  0  0
  189.7480  177.3000  146.9570 C   0  0  0  0  0  2  0  0  0  0  0  0
  185.7230  178.5240  146.8410 C   0  0  0  0  0  3  0  0  0  0  0  0
  184.9870  178.3860  145.6620 C   0  0  0  0  0  3  0  0  0  0  0  0
  187.1040  178.3140  146.8380 C   0  0  0  0  0  0  0  0  0  0  0  0
  187.0050  177.8250  144.4620 C   0  0  0  0  0  3  0  0  0  0  0  0
  187.8550  178.4770  148.1160 C   0  0  0  0  0  1  0  0  0  0  0  0
  185.6240  178.0350  144.4650 C   0  0  0  0  0  0  0  0  0  0  0  0
  187.7570  177.9600  145.6410 C   0  0  0  0  0  0  0  0  0  0  0  0
  185.6770  179.8030  142.1080 O   0  0  0  0  0  0  0  0  0  0  0  0
  184.9480  178.7760  142.1060 C   0  0  0  0  0  0  0  0  0  0  0  0
  184.9030  177.8920  143.2340 N   0  0  0  0  0  2  0  0  0  0  0  0
  184.1200  178.4710  140.9110 C   0  0  0  0  0  1  0  0  0  0  0  0
  189.0450  176.8560  142.0750 C   0  0  0  0  0  3  0  0  0  0  0  0
  189.4610  177.5250  143.1460 C   0  0  0  0  0  3  0  0  0  0  0  0
  188.8410  177.5710  140.7830 C   0  0  0  0  0  2  0  0  0  0  0  0
  189.7610  177.0080  139.7060 C   0  0  2  0  0  3  0  0  0  0  0  0
  191.0240  177.5880  139.8220 O   0  0  0  0  0  1  0  0  0  0  0  0
  187.9250  178.4450  136.5660 C   0  0  0  0  0  2  0  0  0  0  0  0
  189.2230  177.2210  138.2870 C   0  0  1  0  0  3  0  0  0  0  0  0
  187.1660  177.2390  137.0850 C   0  0  2  0  0  0  0  0  0  0  0  0
  187.9460  176.5400  138.1050 N   0  0  0  0  0  2  0  0  0  0  0  0
  189.0530  178.9760  137.8620 S   0  0  0  0  0  0  0  0  0  0  0  0
  186.9020  176.3700  136.0270 O   0  0  0  0  0  1  0  0  0  0  0  0
  185.8540  177.6960  137.6900 C   0  0  0  0  0  1  0  0  0  0  0  0
  1  2  1  0  0  0  0
  2  5  2  0  0  0  0
  3  1  2  0  0  0  0
  4 14  1  1  0  0  0
  4  7  1  0  0  0  0
  6 20  1  6  0  0  0
  6  1  1  0  0  0  0
  6  4  1  0  0  0  0
  7  5  1  0  0  0  0
  9  8  2  0  0  0  0
 10  8  1  0  0  0  0
 10 12  1  0  0  0  0
 11 13  2  0  0  0  0
 11 14  1  0  0  0  0
 13  9  1  0  0  0  0
 14 10  2  0  0  0  0
 16 15  2  0  0  0  0
 16 17  1  0  0  0  0
 17 13  1  0  0  0  0
 18 16  1  0  0  0  0
 19 20  2  0  0  0  0
 21 19  1  0  0  0  0
 22 23  1  6  0  0  0
 22 21  1  0  0  0  0
 24 26  1  0  0  0  0
 24 28  1  0  0  0  0
 25 22  1  1  0  0  0
 26 30  1  1  0  0  0
 26 27  1  0  0  0  0
 27 25  1  0  0  0  0
 28 25  1  0  0  0  0
 29 26  1  0  0  0  0
M  END
>  <MODEL>
2

>  <REMARK>
 VINA RESULT:      -9.5      1.273      1.423
  Name = 
  6 active torsions:
  status: ('A' for Active; 'I' for Inactive)
    1  A    between atoms: C_1  and  C_4
    2  A    between atoms: C_4  and  C_27
    3  A    between atoms: C_5  and  C_22
    4  A    between atoms: C_8  and  C_27
    5  A    between atoms: N_16  and  C_25
    6  A    between atoms: C_19  and  C_29
                            x       y       z     vdW  Elec       q    Type
                         _______ _______ _______ _____ _____    ______ ____

>  <TORSDO>
F 6

$$$$
=
 OpenBabel11052412233D

 30 32  0  0  1  0  0  0  0  0999 V2000
  185.0820  178.8040  144.4700 C   0  0  0  0  0  0  0  0  0  0  0  0
  184.5000  178.9570  145.7670 N   0  0  0  0  0  0  0  0  0  0  0  0
  184.3910  179.0620  143.4480 O   0  0  0  0  0  0  0  0  0  0  0  0
  187.0000  177.6050  145.5600 C   0  0  2  0  0  3  0  0  0  0  0  0
  185.2600  178.6900  146.9490 C   0  0  0  0  0  3  0  0  0  0  0  0
  186.5430  178.4370  144.3480 C   0  0  1  0  0  3  0  0  0  0  0  0
  186.4520  178.1000  146.8730 C   0  0  0  0  0  2  0  0  0  0  0  0
  190.5310  176.9730  146.8490 C   0  0  0  0  0  3  0  0  0  0  0  0
  191.2870  177.2190  145.7010 C   0  0  0  0  0  3  0  0  0  0  0  0
  189.1400  177.0990  146.8180 C   0  0  0  0  0  0  0  0  0  0  0  0
  189.2690  177.7240  144.4750 C   0  0  0  0  0  3  0  0  0  0  0  0
  188.3690  176.8220  148.0640 C   0  0  0  0  0  1  0  0  0  0  0  0
  190.6600  177.5960  144.5060 C   0  0  0  0  0  0  0  0  0  0  0  0
  188.4980  177.4800  145.6240 C   0  0  0  0  0  0  0  0  0  0  0  0
  190.5970  176.0900  141.9740 O   0  0  0  0  0  0  0  0  0  0  0  0
  191.3510  177.0920  142.0900 C   0  0  0  0  0  0  0  0  0  0  0  0
  191.4020  177.8500  143.3050 N   0  0  0  0  0  2  0  0  0  0  0  0
  192.2030  177.5000  140.9440 C   0  0  0  0  0  1  0  0  0  0  0  0
  187.4220  178.2540  142.0580 C   0  0  0  0  0  3  0  0  0  0  0  0
  186.8120  177.6720  143.0860 C   0  0  0  0  0  3  0  0  0  0  0  0
  187.6830  177.4790  140.8120 C   0  0  0  0  0  2  0  0  0  0  0  0
  188.1230  178.4060  139.6850 C   0  0  2  0  0  3  0  0  0  0  0  0
  187.0360  178.6780  138.8540 O   0  0  0  0  0  1  0  0  0  0  0  0
  190.2790  176.9270  136.7750 C   0  0  0  0  0  2  0  0  0  0  0  0
  189.2760  177.8330  138.8540 C   0  0  1  0  0  3  0  0  0  0  0  0
  189.9270  175.8220  137.7520 C   0  0  2  0  0  0  0  0  0  0  0  0
  189.3280  176.3790  138.9650 N   0  0  0  0  0  2  0  0  0  0  0  0
  189.1860  178.3170  137.1080 S   0  0  0  0  0  0  0  0  0  0  0  0
  191.0810  175.1170  138.0880 O   0  0  0  0  0  1  0  0  0  0  0  0
  188.9390  174.8750  137.1020 C   0  0  0  0  0  1  0  0  0  0  0  0
  1  2  1  0  0  0  0
  2  5  2  0  0  0  0
  3  1  2  0  0  0  0
  4 14  1  1  0  0  0
  4  7  1  0  0  0  0
  6 20  1  6  0  0  0
  6  1  1  0  0  0  0
  6  4  1  0  0  0  0
  7  5  1  0  0  0  0
  9  8  2  0  0  0  0
 10  8  1  0  0  0  0
 10 12  1  0  0  0  0
 11 13  2  0  0  0  0
 11 14  1  0  0  0  0
 13  9  1  0  0  0  0
 14 10  2  0  0  0  0
 15 16  2  0  0  0  0
 16 17  1  0  0  0  0
 17 13  1  0  0  0  0
 18 16  1  0  0  0  0
 19 20  2  0  0  0  0
 21 19  1  0  0  0  0
 22 23  1  6  0  0  0
 22 21  1  0  0  0  0
 24 28  1  0  0  0  0
 24 26  1  0  0  0  0
 25 27  1  0  0  0  0
 25 22  1  1  0  0  0
 26 30  1  6  0  0  0
 26 29  1  0  0  0  0
 26 27  1  0  0  0  0
 28 25  1  0  0  0  0
M  END
>  <MODEL>
3

>  <REMARK>
 VINA RESULT:      -9.2      1.724      4.426
  Name = 
  6 active torsions:
  status: ('A' for Active; 'I' for Inactive)
    1  A    between atoms: C_1  and  C_4
    2  A    between atoms: C_4  and  C_27
    3  A    between atoms: C_5  and  C_22
    4  A    between atoms: C_8  and  C_27
    5  A    between atoms: N_16  and  C_25
    6  A    between atoms: C_19  and  C_29
                            x       y       z     vdW  Elec       q    Type
                         _______ _______ _______ _____ _____    ______ ____

>  <TORSDO>
F 6

$$$$
=
 OpenBabel11052412233D

 30 32  0  0  1  0  0  0  0  0999 V2000
  185.5690  178.7570  140.7790 C   0  0  0  0  0  0  0  0  0  0  0  0
  184.1510  178.9360  140.7800 N   0  0  0  0  0  0  0  0  0  0  0  0
  186.2010  178.8360  139.6920 O   0  0  0  0  0  0  0  0  0  0  0  0
  185.3850  177.9170  143.1380 C   0  0  2  0  0  3  0  0  0  0  0  0
  183.4030  178.8700  141.9990 C   0  0  0  0  0  3  0  0  0  0  0  0
  186.2980  178.5800  142.0900 C   0  0  1  0  0  3  0  0  0  0  0  0
  183.9720  178.4390  143.1240 C   0  0  0  0  0  2  0  0  0  0  0  0
  185.7810  178.6050  146.8670 C   0  0  0  0  0  3  0  0  0  0  0  0
  187.0630  178.1030  147.1010 C   0  0  0  0  0  3  0  0  0  0  0  0
  185.2270  178.5550  145.5850 C   0  0  0  0  0  0  0  0  0  0  0  0
  187.2550  177.4970  144.7710 C   0  0  0  0  0  3  0  0  0  0  0  0
  183.8530  179.0970  145.3780 C   0  0  0  0  0  1  0  0  0  0  0  0
  187.8080  177.5460  146.0530 C   0  0  0  0  0  0  0  0  0  0  0  0
  185.9670  177.9990  144.5230 C   0  0  0  0  0  0  0  0  0  0  0  0
  190.3310  178.4010  144.7940 O   0  0  0  0  0  0  0  0  0  0  0  0
  190.3330  177.4510  145.6220 C   0  0  0  0  0  0  0  0  0  0  0  0
  189.1250  177.0140  146.2560 N   0  0  0  0  0  2  0  0  0  0  0  0
  191.6120  176.7720  145.9500 C   0  0  0  0  0  1  0  0  0  0  0  0
  188.6660  178.3130  141.4790 C   0  0  0  0  0  3  0  0  0  0  0  0
  187.5410  177.7580  141.9190 C   0  0  0  0  0  3  0  0  0  0  0  0
  189.8920  177.4810  141.3160 C   0  0  0  0  0  2  0  0  0  0  0  0
  190.4770  177.6540  139.9190 C   0  0  2  0  0  3  0  0  0  0  0  0
  189.5220  178.2320  139.0830 O   0  0  0  0  0  1  0  0  0  0  0  0
  192.1280  174.9870  137.5810 C   0  0  0  0  0  2  0  0  0  0  0  0
  190.9680  176.3370  139.3080 C   0  0  1  0  0  3  0  0  0  0  0  0
  190.6220  174.9560  137.3970 C   0  0  2  0  0  0  0  0  0  0  0  0
  189.9620  175.7660  138.4190 N   0  0  0  0  0  2  0  0  0  0  0  0
  192.5400  176.5230  138.4230 S   0  0  0  0  0  0  0  0  0  0  0  0
  190.1740  173.6390  137.4890 O   0  0  0  0  0  1  0  0  0  0  0  0
  190.2740  175.5040  136.0280 C   0  0  0  0  0  1  0  0  0  0  0  0
  1  2  1  0  0  0  0
  1  6  1  0  0  0  0
  2  5  2  0  0  0  0
  3  1  2  0  0  0  0
  4 14  1  1  0  0  0
  5  7  1  0  0  0  0
  6 20  1  6  0  0  0
  6  4  1  0  0  0  0
  7  4  1  0  0  0  0
  8  9  1  0  0  0  0
 10  8  2  0  0  0  0
 11 13  1  0  0  0  0
 12 10  1  0  0  0  0
 13 17  1  0  0  0  0
 13  9  2  0  0  0  0
 14 11  2  0  0  0  0
 14 10  1  0  0  0  0
 15 16  2  0  0  0  0
 16 18  1  0  0  0  0
 16 17  1  0  0  0  0
 19 20  2  0  0  0  0
 21 19  1  0  0  0  0
 22 23  1  6  0  0  0
 22 21  1  0  0  0  0
 24 28  1  0  0  0  0
 25 22  1  6  0  0  0
 26 30  1  6  0  0  0
 26 29  1  0  0  0  0
 26 24  1  0  0  0  0
 26 27  1  0  0  0  0
 27 25  1  0  0  0  0
 28 25  1  0  0  0  0
M  END
>  <MODEL>
4

>  <REMARK>
 VINA RESULT:      -9.2      1.697      4.595
  Name = 
  6 active torsions:
  status: ('A' for Active; 'I' for Inactive)
    1  A    between atoms: C_1  and  C_4
    2  A    between atoms: C_4  and  C_27
    3  A    between atoms: C_5  and  C_22
    4  A    between atoms: C_8  and  C_27
    5  A    between atoms: N_16  and  C_25
    6  A    between atoms: C_19  and  C_29
                            x       y       z     vdW  Elec       q    Type
                         _______ _______ _______ _____ _____    ______ ____

>  <TORSDO>
F 6

$$$$
=
 OpenBabel11052412233D

 30 32  0  0  1  0  0  0  0  0999 V2000
  184.9900  178.9280  140.6770 C   0  0  0  0  0  0  0  0  0  0  0  0
  183.5690  179.0090  140.8110 N   0  0  0  0  0  0  0  0  0  0  0  0
  185.5150  179.1010  139.5440 O   0  0  0  0  0  0  0  0  0  0  0  0
  185.0740  177.9690  142.9950 C   0  0  2  0  0  3  0  0  0  0  0  0
  182.9400  178.8360  142.0840 C   0  0  0  0  0  3  0  0  0  0  0  0
  185.8440  178.7410  141.9090 C   0  0  1  0  0  3  0  0  0  0  0  0
  183.6350  178.3930  143.1310 C   0  0  0  0  0  2  0  0  0  0  0  0
  185.7900  178.5960  146.6870 C   0  0  0  0  0  3  0  0  0  0  0  0
  187.0840  178.0830  146.8030 C   0  0  0  0  0  3  0  0  0  0  0  0
  185.1290  178.5700  145.4560 C   0  0  0  0  0  0  0  0  0  0  0  0
  187.0720  177.5110  144.4570 C   0  0  0  0  0  3  0  0  0  0  0  0
  183.7470  179.1240  145.3750 C   0  0  0  0  0  1  0  0  0  0  0  0
  187.7330  177.5360  145.6880 C   0  0  0  0  0  0  0  0  0  0  0  0
  185.7720  178.0260  144.3270 C   0  0  0  0  0  0  0  0  0  0  0  0
  190.2230  178.6300  144.5550 O   0  0  0  0  0  0  0  0  0  0  0  0
  190.2490  177.5490  145.2010 C   0  0  0  0  0  0  0  0  0  0  0  0
  189.0580  176.9930  145.7710 N   0  0  0  0  0  2  0  0  0  0  0  0
  191.5410  176.8390  145.3820 C   0  0  0  0  0  1  0  0  0  0  0  0
  188.2390  178.6860  141.3490 C   0  0  0  0  0  3  0  0  0  0  0  0
  187.1170  178.0140  141.5870 C   0  0  0  0  0  3  0  0  0  0  0  0
  189.4950  177.9480  141.0320 C   0  0  0  0  0  2  0  0  0  0  0  0
  189.7790  177.9880  139.5350 C   0  0  2  0  0  3  0  0  0  0  0  0
  189.0750  179.0430  138.9560 O   0  0  0  0  0  1  0  0  0  0  0  0
  189.3790  175.1550  136.8670 C   0  0  0  0  0  2  0  0  0  0  0  0
  189.4220  176.6780  138.8230 C   0  0  1  0  0  3  0  0  0  0  0  0
  188.0510  175.8630  137.0530 C   0  0  2  0  0  0  0  0  0  0  0  0
  188.1040  176.7620  138.2050 N   0  0  0  0  0  2  0  0  0  0  0  0
  190.6560  176.2010  137.5820 S   0  0  0  0  0  0  0  0  0  0  0  0
  187.0470  174.9150  137.2510 O   0  0  0  0  0  1  0  0  0  0  0  0
  187.7330  176.6680  135.8100 C   0  0  0  0  0  1  0  0  0  0  0  0
  1  2  1  0  0  0  0
  1  6  1  0  0  0  0
  2  5  2  0  0  0  0
  3  1  2  0  0  0  0
  4  7  1  0  0  0  0
  4 14  1  1  0  0  0
  5  7  1  0  0  0  0
  6 20  1  6  0  0  0
  6  4  1  0  0  0  0
  8  9  1  0  0  0  0
 10  8  2  0  0  0  0
 11 13  1  0  0  0  0
 12 10  1  0  0  0  0
 13 17  1  0  0  0  0
 13  9  2  0  0  0  0
 14 11  2  0  0  0  0
 14 10  1  0  0  0  0
 15 16  2  0  0  0  0
 16 18  1  0  0  0  0
 16 17  1  0  0  0  0
 19 20  2  0  0  0  0
 21 19  1  0  0  0  0
 22 23  1  6  0  0  0
 22 21  1  0  0  0  0
 24 26  1  0  0  0  0
 24 28  1  0  0  0  0
 25 22  1  6  0  0  0
 26 30  1  6  0  0  0
 26 29  1  0  0  0  0
 26 27  1  0  0  0  0
 27 25  1  0  0  0  0
 28 25  1  0  0  0  0
M  END
>  <MODEL>
5

>  <REMARK>
 VINA RESULT:      -9.1      1.373      4.567
  Name = 
  6 active torsions:
  status: ('A' for Active; 'I' for Inactive)
    1  A    between atoms: C_1  and  C_4
    2  A    between atoms: C_4  and  C_27
    3  A    between atoms: C_5  and  C_22
    4  A    between atoms: C_8  and  C_27
    5  A    between atoms: N_16  and  C_25
    6  A    between atoms: C_19  and  C_29
                            x       y       z     vdW  Elec       q    Type
                         _______ _______ _______ _____ _____    ______ ____

>  <TORSDO>
F 6

$$$$
=
 OpenBabel11052412233D

 30 32  0  0  1  0  0  0  0  0999 V2000
  184.4540  178.9940  144.4200 C   0  0  0  0  0  0  0  0  0  0  0  0
  184.0850  178.8980  145.7980 N   0  0  0  0  0  0  0  0  0  0  0  0
  183.6410  179.4930  143.5960 O   0  0  0  0  0  0  0  0  0  0  0  0
  186.4100  177.5030  144.9220 C   0  0  2  0  0  3  0  0  0  0  0  0
  184.9890  178.3530  146.7640 C   0  0  0  0  0  3  0  0  0  0  0  0
  185.8460  178.5930  143.9920 C   0  0  1  0  0  3  0  0  0  0  0  0
  186.1050  177.7360  146.3790 C   0  0  0  0  0  2  0  0  0  0  0  0
  190.1610  177.2730  145.5640 C   0  0  0  0  0  3  0  0  0  0  0  0
  190.6260  176.8680  144.3110 C   0  0  0  0  0  3  0  0  0  0  0  0
  188.7970  177.4880  145.7740 C   0  0  0  0  0  0  0  0  0  0  0  0
  188.3660  176.8880  143.4610 C   0  0  0  0  0  3  0  0  0  0  0  0
  188.3400  177.9150  147.1280 C   0  0  0  0  0  1  0  0  0  0  0  0
  189.7310  176.6720  143.2510 C   0  0  0  0  0  0  0  0  0  0  0  0
  187.8860  177.2970  144.7160 C   0  0  0  0  0  0  0  0  0  0  0  0
  189.5250  178.1260  140.6960 O   0  0  0  0  0  0  0  0  0  0  0  0
  190.0490  176.9810  140.7270 C   0  0  0  0  0  0  0  0  0  0  0  0
  190.1700  176.2490  141.9530 N   0  0  0  0  0  2  0  0  0  0  0  0
  190.5560  176.3780  139.4680 C   0  0  0  0  0  1  0  0  0  0  0  0
  186.0580  178.9400  141.5660 C   0  0  0  0  0  3  0  0  0  0  0  0
  185.8630  178.0980  142.5760 C   0  0  0  0  0  3  0  0  0  0  0  0
  186.0730  178.4320  140.1650 C   0  0  0  0  0  2  0  0  0  0  0  0
  184.7560  178.7490  139.4650 C   0  0  2  0  0  3  0  0  0  0  0  0
  184.5470  180.1280  139.4690 O   0  0  0  0  0  1  0  0  0  0  0  0
  181.3590  176.8940  140.0250 C   0  0  0  0  0  2  0  0  0  0  0  0
  183.5540  178.0430  140.1010 C   0  0  1  0  0  3  0  0  0  0  0  0
  181.2150  178.3440  140.4440 C   0  0  2  0  0  0  0  0  0  0  0  0
  182.5200  179.0030  140.4720 N   0  0  0  0  0  2  0  0  0  0  0  0
  182.8510  176.7600  139.0290 S   0  0  0  0  0  0  0  0  0  0  0  0
  180.6390  178.4040  141.7120 O   0  0  0  0  0  1  0  0  0  0  0  0
  180.3180  179.0640  139.4580 C   0  0  0  0  0  1  0  0  0  0  0  0
  1  2  1  0  0  0  0
  2  5  2  0  0  0  0
  3  1  2  0  0  0  0
  4 14  1  1  0  0  0
  4  7  1  0  0  0  0
  6 20  1  6  0  0  0
  6  1  1  0  0  0  0
  6  4  1  0  0  0  0
  7  5  1  0  0  0  0
  8 10  1  0  0  0  0
  9  8  2  0  0  0  0
 10 12  1  0  0  0  0
 11 14  1  0  0  0  0
 13 11  2  0  0  0  0
 13  9  1  0  0  0  0
 14 10  2  0  0  0  0
 15 16  2  0  0  0  0
 16 17  1  0  0  0  0
 17 13  1  0  0  0  0
 18 16  1  0  0  0  0
 19 20  2  0  0  0  0
 21 19  1  0  0  0  0
 22 23  1  1  0  0  0
 22 21  1  0  0  0  0
 24 26  1  0  0  0  0
 25 22  1  6  0  0  0
 25 27  1  0  0  0  0
 26 30  1  6  0  0  0
 26 27  1  0  0  0  0
 26 29  1  0  0  0  0
 28 24  1  0  0  0  0
 28 25  1  0  0  0  0
M  END
>  <MODEL>
6

>  <REMARK>
 VINA RESULT:      -9.1      2.738      5.835
  Name = 
  6 active torsions:
  status: ('A' for Active; 'I' for Inactive)
    1  A    between atoms: C_1  and  C_4
    2  A    between atoms: C_4  and  C_27
    3  A    between atoms: C_5  and  C_22
    4  A    between atoms: C_8  and  C_27
    5  A    between atoms: N_16  and  C_25
    6  A    between atoms: C_19  and  C_29
                            x       y       z     vdW  Elec       q    Type
                         _______ _______ _______ _____ _____    ______ ____

>  <TORSDO>
F 6

$$$$
=
 OpenBabel11052412233D

 30 32  0  0  1  0  0  0  0  0999 V2000
  184.3480  178.7600  145.1580 C   0  0  0  0  0  0  0  0  0  0  0  0
  184.5560  178.7020  146.5710 N   0  0  0  0  0  2  0  0  0  0  0  0
  183.2120  179.0740  144.7130 O   0  0  0  0  0  0  0  0  0  0  0  0
  186.5650  177.6180  144.8660 C   0  0  2  0  0  3  0  0  0  0  0  0
  185.8380  178.3660  147.1120 C   0  0  0  0  0  3  0  0  0  0  0  0
  185.5160  178.5450  144.2240 C   0  0  1  0  0  3  0  0  0  0  0  0
  186.8070  177.9000  146.3260 C   0  0  0  0  0  3  0  0  0  0  0  0
  190.2760  177.3740  144.0260 C   0  0  0  0  0  3  0  0  0  0  0  0
  190.2570  177.6020  142.6480 C   0  0  0  0  0  3  0  0  0  0  0  0
  189.0860  177.3820  144.7580 C   0  0  0  0  0  0  0  0  0  0  0  0
  187.8570  177.8500  142.7170 C   0  0  0  0  0  3  0  0  0  0  0  0
  189.1470  177.1280  146.2260 C   0  0  0  0  0  1  0  0  0  0  0  0
  189.0470  177.8420  141.9850 C   0  0  0  0  0  0  0  0  0  0  0  0
  187.8620  177.6230  144.1030 C   0  0  0  0  0  0  0  0  0  0  0  0
  190.4580  176.3910  139.8430 O   0  0  0  0  0  0  0  0  0  0  0  0
  189.6930  177.3490  139.5540 C   0  0  0  0  0  0  0  0  0  0  0  0
  188.9880  178.0720  140.5710 N   0  0  0  0  0  2  0  0  0  0  0  0
  189.5150  177.7360  138.1310 C   0  0  0  0  0  1  0  0  0  0  0  0
  184.5880  178.7480  141.9550 C   0  0  0  0  0  3  0  0  0  0  0  0
  185.0710  177.9650  142.9150 C   0  0  0  0  0  3  0  0  0  0  0  0
  184.1510  178.1550  140.6600 C   0  0  0  0  0  2  0  0  0  0  0  0
  184.9110  178.7840  139.4980 C   0  0  2  0  0  3  0  0  0  0  0  0
  184.5540  180.1270  139.3800 O   0  0  0  0  0  1  0  0  0  0  0  0
  184.2860  176.0600  136.7610 C   0  0  0  0  0  2  0  0  0  0  0  0
  184.6680  178.0670  138.1650 C   0  0  1  0  0  3  0  0  0  0  0  0
  185.7270  176.5270  136.6870 C   0  0  2  0  0  0  0  0  0  0  0  0
  185.9300  177.7040  137.5300 N   0  0  0  0  0  2  0  0  0  0  0  0
  183.6210  176.5970  138.3440 S   0  0  0  0  0  0  0  0  0  0  0  0
  186.0430  176.8430  135.3660 O   0  0  0  0  0  1  0  0  0  0  0  0
  186.6390  175.4140  137.1620 C   0  0  0  0  0  1  0  0  0  0  0  0
  1  2  1  0  0  0  0
  2  5  1  0  0  0  0
  3  1  2  0  0  0  0
  4 14  1  6  0  0  0
  4  7  1  0  0  0  0
  6 20  1  6  0  0  0
  6  4  1  0  0  0  0
  6  1  1  0  0  0  0
  7  5  2  0  0  0  0
  8 10  1  0  0  0  0
  9  8  2  0  0  0  0
 10 12  1  0  0  0  0
 11 14  1  0  0  0  0
 13  9  1  0  0  0  0
 13 11  2  0  0  0  0
 14 10  2  0  0  0  0
 16 15  2  0  0  0  0
 16 17  1  0  0  0  0
 17 13  1  0  0  0  0
 18 16  1  0  0  0  0
 19 20  2  0  0  0  0
 21 19  1  0  0  0  0
 22 23  1  6  0  0  0
 22 21  1  0  0  0  0
 24 28  1  0  0  0  0
 25 28  1  0  0  0  0
 25 22  1  1  0  0  0
 26 24  1  0  0  0  0
 26 30  1  1  0  0  0
 26 27  1  0  0  0  0
 27 25  1  0  0  0  0
 29 26  1  0  0  0  0
M  END
>  <MODEL>
7

>  <REMARK>
 VINA RESULT:      -9.0      2.437      4.955
  Name = 
  6 active torsions:
  status: ('A' for Active; 'I' for Inactive)
    1  A    between atoms: C_1  and  C_4
    2  A    between atoms: C_4  and  C_27
    3  A    between atoms: C_5  and  C_22
    4  A    between atoms: C_8  and  C_27
    5  A    between atoms: N_16  and  C_25
    6  A    between atoms: C_19  and  C_29
                            x       y       z     vdW  Elec       q    Type
                         _______ _______ _______ _____ _____    ______ ____

>  <TORSDO>
F 6

$$$$
=
 OpenBabel11052412233D

 30 32  0  0  1  0  0  0  0  0999 V2000
  186.5410  178.3900  147.1350 C   0  0  0  0  0  0  0  0  0  0  0  0
  187.3150  178.2180  148.3250 N   0  0  0  0  0  2  0  0  0  0  0  0
  185.3300  178.7270  147.2280 O   0  0  0  0  0  0  0  0  0  0  0  0
  188.4080  177.3000  145.8590 C   0  0  2  0  0  3  0  0  0  0  0  0
  188.6960  177.8520  148.2560 C   0  0  0  0  0  3  0  0  0  0  0  0
  187.2110  178.2650  145.7870 C   0  0  1  0  0  3  0  0  0  0  0  0
  189.2400  177.4630  147.1040 C   0  0  0  0  0  3  0  0  0  0  0  0
  191.4210  177.1280  143.5290 C   0  0  0  0  0  3  0  0  0  0  0  0
  190.8460  177.5080  142.3140 C   0  0  0  0  0  3  0  0  0  0  0  0
  190.6420  177.0620  144.6870 C   0  0  0  0  0  0  0  0  0  0  0  0
  188.7050  177.7610  143.4020 C   0  0  0  0  0  3  0  0  0  0  0  0
  191.2930  176.6470  145.9640 C   0  0  0  0  0  1  0  0  0  0  0  0
  189.4840  177.8260  142.2430 C   0  0  0  0  0  0  0  0  0  0  0  0
  189.2720  177.3820  144.6290 C   0  0  0  0  0  0  0  0  0  0  0  0
  189.8550  176.6550  139.5650 O   0  0  0  0  0  0  0  0  0  0  0  0
  189.0650  177.6230  139.7230 C   0  0  0  0  0  0  0  0  0  0  0  0
  188.8570  178.2130  141.0120 N   0  0  0  0  0  2  0  0  0  0  0  0
  188.3300  178.1630  138.5500 C   0  0  0  0  0  1  0  0  0  0  0  0
  185.4630  178.6500  144.0990 C   0  0  0  0  0  3  0  0  0  0  0  0
  186.2480  177.7900  144.7390 C   0  0  0  0  0  3  0  0  0  0  0  0
  184.5130  178.1610  143.0600 C   0  0  0  0  0  2  0  0  0  0  0  0
  184.9990  178.5420  141.6660 C   0  0  2  0  0  3  0  0  0  0  0  0
  185.7790  179.6960  141.7440 O   0  0  0  0  0  1  0  0  0  0  0  0
  181.5700  178.3620  139.7920 C   0  0  0  0  0  2  0  0  0  0  0  0
  183.8540  178.7600  140.6710 C   0  0  1  0  0  3  0  0  0  0  0  0
  182.6120  177.5840  139.0120 C   0  0  2  0  0  0  0  0  0  0  0  0
  183.9480  177.8270  139.5540 N   0  0  0  0  0  2  0  0  0  0  0  0
  182.2200  178.6310  141.4480 S   0  0  0  0  0  0  0  0  0  0  0  0
  182.5760  177.9790  137.6750 O   0  0  0  0  0  1  0  0  0  0  0  0
  182.3020  176.1040  139.1000 C   0  0  0  0  0  1  0  0  0  0  0  0
  1  3  2  0  0  0  0
  1  2  1  0  0  0  0
  4 14  1  6  0  0  0
  4  7  1  0  0  0  0
  5  2  1  0  0  0  0
  6 20  1  6  0  0  0
  6  4  1  0  0  0  0
  6  1  1  0  0  0  0
  7  5  2  0  0  0  0
  8 10  1  0  0  0  0
  9  8  2  0  0  0  0
 10 12  1  0  0  0  0
 11 14  1  0  0  0  0
 13  9  1  0  0  0  0
 13 11  2  0  0  0  0
 14 10  2  0  0  0  0
 15 16  2  0  0  0  0
 16 17  1  0  0  0  0
 17 13  1  0  0  0  0
 18 16  1  0  0  0  0
 19 20  2  0  0  0  0
 21 19  1  0  0  0  0
 22 23  1  1  0  0  0
 22 21  1  0  0  0  0
 24 28  1  0  0  0  0
 25 28  1  0  0  0  0
 25 22  1  1  0  0  0
 26 30  1  1  0  0  0
 26 27  1  0  0  0  0
 26 24  1  0  0  0  0
 27 25  1  0  0  0  0
 29 26  1  0  0  0  0
M  END
>  <MODEL>
8

>  <REMARK>
 VINA RESULT:      -8.9      2.919      5.361
  Name = 
  6 active torsions:
  status: ('A' for Active; 'I' for Inactive)
    1  A    between atoms: C_1  and  C_4
    2  A    between atoms: C_4  and  C_27
    3  A    between atoms: C_5  and  C_22
    4  A    between atoms: C_8  and  C_27
    5  A    between atoms: N_16  and  C_25
    6  A    between atoms: C_19  and  C_29
                            x       y       z     vdW  Elec       q    Type
                         _______ _______ _______ _____ _____    ______ ____

>  <TORSDO>
F 6

$$$$
=
 OpenBabel11052412233D

 30 32  0  0  1  0  0  0  0  0999 V2000
  184.6660  178.7880  145.6680 C   0  0  0  0  0  0  0  0  0  0  0  0
  185.2500  178.6340  146.9640 N   0  0  0  0  0  2  0  0  0  0  0  0
  183.4600  179.1410  145.5710 O   0  0  0  0  0  0  0  0  0  0  0  0
  186.6870  177.6490  144.7100 C   0  0  2  0  0  3  0  0  0  0  0  0
  186.6210  178.2510  147.1110 C   0  0  0  0  0  3  0  0  0  0  0  0
  185.5290  178.6260  144.4390 C   0  0  1  0  0  3  0  0  0  0  0  0
  187.3250  177.8300  146.0620 C   0  0  0  0  0  3  0  0  0  0  0  0
  190.0020  177.3420  142.8500 C   0  0  0  0  0  3  0  0  0  0  0  0
  189.6320  177.7520  141.5680 C   0  0  0  0  0  3  0  0  0  0  0  0
  189.0570  177.3090  143.8800 C   0  0  0  0  0  0  0  0  0  0  0  0
  187.3670  178.1030  142.3280 C   0  0  0  0  0  3  0  0  0  0  0  0
  189.4910  176.8600  145.2340 C   0  0  0  0  0  1  0  0  0  0  0  0
  188.3110  178.1350  141.2980 C   0  0  0  0  0  0  0  0  0  0  0  0
  187.7270  177.6930  143.6230 C   0  0  0  0  0  0  0  0  0  0  0  0
  188.5400  176.6650  138.7550 O   0  0  0  0  0  0  0  0  0  0  0  0
  188.0250  177.8140  138.7720 C   0  0  0  0  0  0  0  0  0  0  0  0
  187.8930  178.5540  139.9920 N   0  0  0  0  0  2  0  0  0  0  0  0
  187.5390  178.4150  137.5030 C   0  0  0  0  0  1  0  0  0  0  0  0
  184.1660  178.9990  142.4240 C   0  0  0  0  0  3  0  0  0  0  0  0
  184.7280  178.1380  143.2670 C   0  0  0  0  0  3  0  0  0  0  0  0
  183.3750  178.4970  141.2650 C   0  0  0  0  0  2  0  0  0  0  0  0
  184.2450  178.4100  140.0170 C   0  0  2  0  0  3  0  0  0  0  0  0
  184.6130  179.6940  139.6150 O   0  0  0  0  0  1  0  0  0  0  0  0
  181.6100  177.1240  137.4290 C   0  0  0  0  0  2  0  0  0  0  0  0
  183.5580  177.6830  138.8570 C   0  0  1  0  0  3  0  0  0  0  0  0
  181.8810  176.0390  138.4530 C   0  0  2  0  0  0  0  0  0  0  0  0
  183.0270  176.3950  139.2890 N   0  0  0  0  0  2  0  0  0  0  0  0
  182.2410  178.6710  138.0960 S   0  0  0  0  0  0  0  0  0  0  0  0
  182.1440  174.8380  137.7940 O   0  0  0  0  0  1  0  0  0  0  0  0
  180.6610  175.8640  139.3330 C   0  0  0  0  0  1  0  0  0  0  0  0
  1  2  1  0  0  0  0
  2  5  1  0  0  0  0
  3  1  2  0  0  0  0
  4 14  1  6  0  0  0
  4  7  1  0  0  0  0
  6 20  1  6  0  0  0
  6  4  1  0  0  0  0
  6  1  1  0  0  0  0
  7  5  2  0  0  0  0
  8 10  1  0  0  0  0
  9  8  2  0  0  0  0
 10 12  1  0  0  0  0
 11 14  1  0  0  0  0
 13  9  1  0  0  0  0
 13 11  2  0  0  0  0
 14 10  2  0  0  0  0
 15 16  2  0  0  0  0
 16 17  1  0  0  0  0
 17 13  1  0  0  0  0
 18 16  1  0  0  0  0
 19 20  2  0  0  0  0
 21 19  1  0  0  0  0
 22 23  1  6  0  0  0
 22 21  1  0  0  0  0
 24 28  1  0  0  0  0
 24 26  1  0  0  0  0
 25 27  1  0  0  0  0
 25 22  1  1  0  0  0
 26 27  1  0  0  0  0
 26 30  1  1  0  0  0
 28 25  1  0  0  0  0
 29 26  1  0  0  0  0
M  END
>  <MODEL>
9

>  <REMARK>
 VINA RESULT:      -8.9      2.973      5.576
  Name = 
  6 active torsions:
  status: ('A' for Active; 'I' for Inactive)
    1  A    between atoms: C_1  and  C_4
    2  A    between atoms: C_4  and  C_27
    3  A    between atoms: C_5  and  C_22
    4  A    between atoms: C_8  and  C_27
    5  A    between atoms: N_16  and  C_25
    6  A    between atoms: C_19  and  C_29
                            x       y       z     vdW  Elec       q    Type
                         _______ _______ _______ _____ _____    ______ ____

>  <TORSDO>
F 6

$$$$
