=
 OpenBabel11052415063D

 55 60  0  0  1  0  0  0  0  0999 V2000
  191.9400  176.8530  139.0410 C   0  0  0  0  0  2  0  0  0  0  0  0
  187.7290  179.2170  136.9040 C   0  0  0  0  0  2  0  0  0  0  0  0
  187.9490  177.4540  134.5940 C   0  0  0  0  0  2  0  0  0  0  0  0
  189.6450  176.0760  135.6220 C   0  0  0  0  0  2  0  0  0  0  0  0
  191.0770  176.8760  141.4240 C   0  0  0  0  0  2  0  0  0  0  0  0
  188.5090  177.7520  140.5790 C   0  0  1  0  0  3  0  0  0  0  0  0
  191.7260  175.3840  138.7040 C   0  0  0  0  0  2  0  0  0  0  0  0
  189.4660  177.1930  139.5280 C   0  0  0  0  0  2  0  0  0  0  0  0
  187.5170  179.4840  138.3910 C   0  0  0  0  0  2  0  0  0  0  0  0
  188.9530  178.3450  136.6590 C   0  0  0  0  0  2  0  0  0  0  0  0
  188.6890  177.2280  135.6790 C   0  0  0  0  0  0  0  0  0  0  0  0
  189.9650  177.4590  142.2980 C   0  0  0  0  0  2  0  0  0  0  0  0
  186.5690  178.4610  139.0400 C   0  0  2  0  0  0  0  0  0  0  0  0
  190.8980  177.4110  140.0080 C   0  0  2  0  0  3  0  0  0  0  0  0
  189.8560  175.4510  136.9970 C   0  0  2  0  0  3  0  0  0  0  0  0
  191.3610  175.2550  137.2300 C   0  0  2  0  0  3  0  0  0  0  0  0
  186.3760  178.7710  140.4010 O   0  0  0  0  0  0  0  0  0  0  0  0
  187.0630  177.5690  140.1380 C   0  0  2  0  0  3  0  0  0  0  0  0
  188.7050  177.0750  141.7990 O   0  0  0  0  0  0  0  0  0  0  0  0
  189.6750  173.0030  136.7780 O   0  0  0  0  0  0  0  0  0  0  0  0
  189.5960  172.9140  135.3740 C   0  0  0  0  0  2  0  0  0  0  0  0
  187.5820  174.3190  136.6070 C   0  0  2  0  0  3  0  0  0  0  0  0
  187.1350  173.0230  135.9370 C   0  0  0  0  0  2  0  0  0  0  0  0
  188.1810  172.5390  134.9310 C   0  0  0  0  0  2  0  0  0  0  0  0
  189.0030  174.1790  137.2020 C   0  0  2  0  0  3  0  0  0  0  0  0
  186.6770  174.6530  137.6130 O   0  0  0  0  0  1  0  0  0  0  0  0
  184.8920  176.7970  138.6260 F   0  0  0  0  0  0  0  0  0  0  0  0
  185.2070  178.1260  138.3840 C   0  0  0  0  0  0  0  0  0  0  0  0
  185.2960  178.2940  137.0120 F   0  0  0  0  0  0  0  0  0  0  0  0
  184.0920  179.0380  138.9500 C   0  0  1  0  0  3  0  0  0  0  0  0
  184.4260  180.3880  138.7820 O   0  0  0  0  0  1  0  0  0  0  0  0
  182.6570  178.7570  138.4300 C   0  0  2  0  0  0  0  0  0  0  0  0
  182.7330  178.1520  137.1720 O   0  0  0  0  0  1  0  0  0  0  0  0
  181.0540  180.0360  137.1620 F   0  0  0  0  0  0  0  0  0  0  0  0
  181.8630  180.0590  138.2850 C   0  0  0  0  0  2  0  0  0  0  0  0
  181.9120  177.8010  139.3910 C   0  0  2  0  0  3  0  0  0  0  0  0
  181.4190  176.5290  138.6920 C   0  0  2  0  0  3  0  0  0  0  0  0
  180.1000  176.6610  138.2980 F   0  0  0  0  0  0  0  0  0  0  0  0
  181.5450  175.4360  139.5490 O   0  0  0  0  0  1  0  0  0  0  0  0
  180.8400  178.4520  140.0190 O   0  0  0  0  0  0  0  0  0  0  0  0
  181.4190  179.3290  142.0450 O   0  0  0  0  0  1  0  0  0  0  0  0
  180.9870  178.1790  141.3830 C   0  0  1  0  0  3  0  0  0  0  0  0
  179.2830  178.1700  143.2100 O   0  0  0  0  0  1  0  0  0  0  0  0
  179.6860  177.7320  141.9550 C   0  0  0  0  0  0  0  0  0  0  0  0
  178.9560  176.9400  141.3030 O   0  0  0  0  0  0  0  0  0  0  0  0
  191.9040  173.9660  136.6150 C   0  0  0  0  0  2  0  0  0  0  0  0
  194.1810  172.9930  136.9730 C   0  0  0  0  0  3  0  0  0  0  0  0
  196.1810  174.1740  136.2610 C   0  0  0  0  0  0  0  0  0  0  0  0
  193.9860  175.1330  135.8540 C   0  0  0  0  0  3  0  0  0  0  0  0
  195.3780  175.2020  135.7430 C   0  0  0  0  0  3  0  0  0  0  0  0
  195.5730  173.0620  136.8620 C   0  0  0  0  0  3  0  0  0  0  0  0
  193.3870  174.0290  136.4720 C   0  0  0  0  0  0  0  0  0  0  0  0
  197.6700  174.2270  136.0990 C   0  0  0  0  0  3  0  0  0  0  0  0
  198.1200  173.2530  135.0210 C   0  0  0  0  0  2  0  0  0  0  0  0
  198.0370  174.7290  134.7110 C   0  0  0  0  0  2  0  0  0  0  0  0
  2  9  1  0  0  0  0
  3 11  2  0  0  0  0
  4 11  1  0  0  0  0
  5 12  1  0  0  0  0
  6  8  1  6  0  0  0
  6 19  1  0  0  0  0
  7  1  1  0  0  0  0
  8 14  1  0  0  0  0
  9 13  1  0  0  0  0
 10  2  1  0  0  0  0
 11 10  1  0  0  0  0
 13 28  1  6  0  0  0
 13 18  1  0  0  0  0
 13 17  1  0  0  0  0
 14  1  1  6  0  0  0
 14  5  1  0  0  0  0
 15  4  1  6  0  0  0
 15 25  1  0  0  0  0
 15 16  1  0  0  0  0
 16 46  1  1  0  0  0
 16  7  1  0  0  0  0
 18 17  1  1  0  0  0
 18  6  1  0  0  0  0
 19 12  1  0  0  0  0
 21 20  1  0  0  0  0
 22 25  1  0  0  0  0
 22 26  1  1  0  0  0
 23 22  1  0  0  0  0
 24 21  1  0  0  0  0
 24 23  1  0  0  0  0
 25 20  1  6  0  0  0
 28 27  1  0  0  0  0
 28 30  1  0  0  0  0
 29 28  1  0  0  0  0
 30 31  1  6  0  0  0
 32 33  1  6  0  0  0
 32 30  1  0  0  0  0
 32 36  1  0  0  0  0
 34 35  1  0  0  0  0
 35 32  1  0  0  0  0
 36 40  1  6  0  0  0
 37 38  1  1  0  0  0
 37 36  1  0  0  0  0
 37 39  1  0  0  0  0
 40 42  1  0  0  0  0
 42 44  1  0  0  0  0
 42 41  1  1  0  0  0
 44 43  1  0  0  0  0
 45 44  2  0  0  0  0
 48 51  2  0  0  0  0
 49 52  1  0  0  0  0
 50 49  2  0  0  0  0
 50 48  1  0  0  0  0
 51 47  1  0  0  0  0
 52 46  1  0  0  0  0
 52 47  2  0  0  0  0
 53 48  1  0  0  0  0
 54 53  1  0  0  0  0
 55 54  1  0  0  0  0
 55 53  1  0  0  0  0
M  END
>  <MODEL>
1

>  <REMARK>
 VINA RESULT:      -4.4      0.000      0.000
  Name = 
  13 active torsions:
  status: ('A' for Active; 'I' for Inactive)
    1  A    between atoms: C_1  and  C_53
    2  A    between atoms: C_6  and  C_14
    3  A    between atoms: C_6  and  C_20
    4  A    between atoms: C_6  and  C_53
    5  A    between atoms: C_8  and  C_20
    6  A    between atoms: C_8  and  C_43
    7  A    between atoms: C_10  and  C_32
    8  A    between atoms: C_11  and  C_29
    9  A    between atoms: C_11  and  O_38
   10  A    between atoms: C_26  and  C_45
   11  A    between atoms: C_33  and  C_49
   12  A    between atoms: C_33  and  C_52
   13  A    between atoms: O_38  and  C_53
                            x       y       z     vdW  Elec       q    Type
                         _______ _______ _______ _____ _____    ______ ____

>  <TORSDO>
F 13

$$$$
=
 OpenBabel11052415063D

 55 60  0  0  1  0  0  0  0  0999 V2000
  179.8650  176.6450  136.5600 C   0  0  0  0  0  2  0  0  0  0  0  0
  184.4200  174.8170  134.6100 C   0  0  0  0  0  2  0  0  0  0  0  0
  185.6910  177.3520  135.2850 C   0  0  0  0  0  2  0  0  0  0  0  0
  183.7740  178.1540  136.5160 C   0  0  0  0  0  2  0  0  0  0  0  0
  179.1370  174.4630  137.6250 C   0  0  0  0  0  2  0  0  0  0  0  0
  181.6650  173.2690  137.1150 C   0  0  1  0  0  3  0  0  0  0  0  0
  180.2970  177.4070  137.8050 C   0  0  0  0  0  2  0  0  0  0  0  0
  181.5460  174.7880  137.0050 C   0  0  0  0  0  2  0  0  0  0  0  0
  183.6930  173.5260  134.9720 C   0  0  0  0  0  2  0  0  0  0  0  0
  183.6190  176.0460  135.0210 C   0  0  0  0  0  2  0  0  0  0  0  0
  184.4600  177.0850  135.7210 C   0  0  0  0  0  0  0  0  0  0  0  0
  179.4850  172.9750  137.6820 C   0  0  0  0  0  2  0  0  0  0  0  0
  184.1090  172.9870  136.3510 C   0  0  2  0  0  0  0  0  0  0  0  0
  180.1020  175.1400  136.6580 C   0  0  2  0  0  3  0  0  0  0  0  0
  182.8110  177.5640  137.5400 C   0  0  2  0  0  3  0  0  0  0  0  0
  181.4740  178.3110  137.4570 C   0  0  2  0  0  3  0  0  0  0  0  0
  183.4410  171.7770  136.6240 O   0  0  0  0  0  0  0  0  0  0  0  0
  183.0960  172.8660  137.4480 C   0  0  2  0  0  3  0  0  0  0  0  0
  180.8090  172.8020  138.1320 O   0  0  0  0  0  0  0  0  0  0  0  0
  182.8440  176.4820  139.7540 O   0  0  0  0  0  0  0  0  0  0  0  0
  181.6010  176.9350  140.2380 C   0  0  0  0  0  2  0  0  0  0  0  0
  183.4480  178.8830  139.6520 C   0  0  2  0  0  3  0  0  0  0  0  0
  183.1010  178.7610  141.1330 C   0  0  0  0  0  2  0  0  0  0  0  0
  181.7930  177.9930  141.3260 C   0  0  0  0  0  2  0  0  0  0  0  0
  183.4260  177.5020  138.9570 C   0  0  2  0  0  3  0  0  0  0  0  0
  184.7100  179.4610  139.5200 O   0  0  0  0  0  1  0  0  0  0  0  0
  186.2110  171.9380  135.8700 F   0  0  0  0  0  0  0  0  0  0  0  0
  185.6060  172.8500  136.7220 C   0  0  0  0  0  0  0  0  0  0  0  0
  185.7230  172.3610  138.0120 F   0  0  0  0  0  0  0  0  0  0  0  0
  186.3210  174.2190  136.6160 C   0  0  1  0  0  3  0  0  0  0  0  0
  186.1880  174.9380  137.8100 O   0  0  0  0  0  1  0  0  0  0  0  0
  187.8040  174.1740  136.1600 C   0  0  2  0  0  0  0  0  0  0  0  0
  187.8560  174.0170  134.7720 O   0  0  0  0  0  1  0  0  0  0  0  0
  189.1510  172.1990  135.8460 F   0  0  0  0  0  0  0  0  0  0  0  0
  188.5370  172.9910  136.8010 C   0  0  0  0  0  2  0  0  0  0  0  0
  188.5220  175.4920  136.5340 C   0  0  2  0  0  3  0  0  0  0  0  0
  189.9380  175.5770  135.9510 C   0  0  2  0  0  3  0  0  0  0  0  0
  190.8910  175.4060  136.9390 F   0  0  0  0  0  0  0  0  0  0  0  0
  190.1240  176.8120  135.3300 O   0  0  0  0  0  1  0  0  0  0  0  0
  188.5630  175.6670  137.9260 O   0  0  0  0  0  0  0  0  0  0  0  0
  187.5660  177.7170  138.0370 O   0  0  0  0  0  1  0  0  0  0  0  0
  188.7800  177.0350  138.1210 C   0  0  1  0  0  3  0  0  0  0  0  0
  190.5460  178.0280  139.5840 O   0  0  0  0  0  0  0  0  0  0  0  0
  189.3910  177.2660  139.4610 C   0  0  0  0  0  0  0  0  0  0  0  0
  188.8650  176.7540  140.4840 O   0  0  0  0  0  1  0  0  0  0  0  0
  181.4570  179.6100  138.2610 C   0  0  0  0  0  2  0  0  0  0  0  0
  180.6860  180.5580  136.0780 C   0  0  0  0  0  3  0  0  0  0  0  0
  180.5400  182.9570  135.7280 C   0  0  0  0  0  0  0  0  0  0  0  0
  181.2510  182.0770  137.8780 C   0  0  0  0  0  3  0  0  0  0  0  0
  180.9560  183.1660  137.0520 C   0  0  0  0  0  3  0  0  0  0  0  0
  180.3900  181.6460  135.2520 C   0  0  0  0  0  3  0  0  0  0  0  0
  181.1180  180.7720  137.3900 C   0  0  0  0  0  0  0  0  0  0  0  0
  180.1790  184.1240  134.8590 C   0  0  0  0  0  3  0  0  0  0  0  0
  179.2580  185.0750  135.6070 C   0  0  0  0  0  2  0  0  0  0  0  0
  180.7220  185.4160  135.4510 C   0  0  0  0  0  2  0  0  0  0  0  0
  1  7  1  0  0  0  0
  2  9  1  0  0  0  0
  2 10  1  0  0  0  0
  3 11  2  0  0  0  0
  5 12  1  0  0  0  0
  6  8  1  1  0  0  0
  6 18  1  0  0  0  0
  6 19  1  0  0  0  0
  9 13  1  0  0  0  0
 10 11  1  0  0  0  0
 11  4  1  0  0  0  0
 12 19  1  0  0  0  0
 13 17  1  0  0  0  0
 13 28  1  1  0  0  0
 13 18  1  0  0  0  0
 14  1  1  1  0  0  0
 14  8  1  0  0  0  0
 14  5  1  0  0  0  0
 15  4  1  6  0  0  0
 15 25  1  0  0  0  0
 16 15  1  0  0  0  0
 16  7  1  0  0  0  0
 16 46  1  1  0  0  0
 18 17  1  6  0  0  0
 20 21  1  0  0  0  0
 21 24  1  0  0  0  0
 22 26  1  1  0  0  0
 22 23  1  0  0  0  0
 23 24  1  0  0  0  0
 25 22  1  0  0  0  0
 25 20  1  1  0  0  0
 27 28  1  0  0  0  0
 28 29  1  0  0  0  0
 30 28  1  0  0  0  0
 30 31  1  1  0  0  0
 32 33  1  6  0  0  0
 32 36  1  0  0  0  0
 32 30  1  0  0  0  0
 32 35  1  0  0  0  0
 34 35  1  0  0  0  0
 36 40  1  1  0  0  0
 37 39  1  1  0  0  0
 37 36  1  0  0  0  0
 37 38  1  0  0  0  0
 40 42  1  0  0  0  0
 42 41  1  1  0  0  0
 42 44  1  0  0  0  0
 44 43  2  0  0  0  0
 44 45  1  0  0  0  0
 47 52  1  0  0  0  0
 48 50  2  0  0  0  0
 50 49  1  0  0  0  0
 51 48  1  0  0  0  0
 51 47  2  0  0  0  0
 52 49  2  0  0  0  0
 52 46  1  0  0  0  0
 53 55  1  0  0  0  0
 53 54  1  0  0  0  0
 53 48  1  0  0  0  0
 55 54  1  0  0  0  0
M  END
>  <MODEL>
2

>  <REMARK>
 VINA RESULT:      -4.4      3.751     10.772
  Name = 
  13 active torsions:
  status: ('A' for Active; 'I' for Inactive)
    1  A    between atoms: C_1  and  C_53
    2  A    between atoms: C_6  and  C_14
    3  A    between atoms: C_6  and  C_20
    4  A    between atoms: C_6  and  C_53
    5  A    between atoms: C_8  and  C_20
    6  A    between atoms: C_8  and  C_43
    7  A    between atoms: C_10  and  C_32
    8  A    between atoms: C_11  and  C_29
    9  A    between atoms: C_11  and  O_38
   10  A    between atoms: C_26  and  C_45
   11  A    between atoms: C_33  and  C_49
   12  A    between atoms: C_33  and  C_52
   13  A    between atoms: O_38  and  C_53
                            x       y       z     vdW  Elec       q    Type
                         _______ _______ _______ _____ _____    ______ ____

>  <TORSDO>
F 13

$$$$
=
 OpenBabel11052415063D

 55 60  0  0  1  0  0  0  0  0999 V2000
  182.1390  175.9410  135.9650 C   0  0  0  0  0  2  0  0  0  0  0  0
  187.2900  176.6270  135.0240 C   0  0  0  0  0  2  0  0  0  0  0  0
  187.1820  179.1660  136.4510 C   0  0  0  0  0  2  0  0  0  0  0  0
  184.9300  178.7940  137.2420 C   0  0  0  0  0  2  0  0  0  0  0  0
  182.2770  173.4460  136.3950 C   0  0  0  0  0  2  0  0  0  0  0  0
  185.1180  173.5130  136.3820 C   0  0  1  0  0  3  0  0  0  0  0  0
  181.9750  176.4390  137.3940 C   0  0  0  0  0  2  0  0  0  0  0  0
  184.3640  174.8340  136.5130 C   0  0  0  0  0  2  0  0  0  0  0  0
  187.1560  175.1100  134.9440 C   0  0  0  0  0  2  0  0  0  0  0  0
  185.9730  177.2860  135.4140 C   0  0  0  0  0  2  0  0  0  0  0  0
  186.1400  178.3350  136.4850 C   0  0  0  0  0  0  0  0  0  0  0  0
  183.2300  172.2550  136.2810 C   0  0  0  0  0  2  0  0  0  0  0  0
  187.5270  174.4190  136.2670 C   0  0  2  0  0  0  0  0  0  0  0  0
  182.9940  174.6800  135.8580 C   0  0  2  0  0  3  0  0  0  0  0  0
  184.1680  177.6210  137.8480 C   0  0  2  0  0  3  0  0  0  0  0  0
  182.6730  177.7850  137.5410 C   0  0  2  0  0  3  0  0  0  0  0  0
  187.4240  173.0200  136.1330 O   0  0  0  0  0  0  0  0  0  0  0  0
  186.5010  173.6200  137.0120 C   0  0  2  0  0  3  0  0  0  0  0  0
  184.3970  172.4920  137.0330 O   0  0  0  0  0  0  0  0  0  0  0  0
  183.4860  176.6910  140.0270 O   0  0  0  0  0  0  0  0  0  0  0  0
  182.4140  177.5600  140.3100 C   0  0  0  0  0  2  0  0  0  0  0  0
  184.8820  178.7390  140.0500 C   0  0  2  0  0  3  0  0  0  0  0  0
  184.2900  178.8060  141.4540 C   0  0  0  0  0  2  0  0  0  0  0  0
  182.7850  178.5370  141.4270 C   0  0  0  0  0  2  0  0  0  0  0  0
  184.4970  177.4170  139.3440 C   0  0  2  0  0  3  0  0  0  0  0  0
  186.2700  178.8480  140.1290 O   0  0  0  0  0  1  0  0  0  0  0  0
  189.3710  173.6340  137.5840 F   0  0  0  0  0  0  0  0  0  0  0  0
  188.8450  174.7760  136.9980 C   0  0  0  0  0  0  0  0  0  0  0  0
  188.5850  175.6860  138.0090 F   0  0  0  0  0  0  0  0  0  0  0  0
  189.8720  175.3740  136.0060 C   0  0  1  0  0  3  0  0  0  0  0  0
  189.8310  176.7740  136.0400 O   0  0  0  0  0  1  0  0  0  0  0  0
  191.3290  174.8610  136.1480 C   0  0  2  0  0  0  0  0  0  0  0  0
  191.9080  174.7580  134.8800 O   0  0  0  0  0  1  0  0  0  0  0  0
  191.6220  172.4840  135.8670 F   0  0  0  0  0  0  0  0  0  0  0  0
  191.3590  173.4740  136.7980 C   0  0  0  0  0  2  0  0  0  0  0  0
  192.1680  175.8470  136.9940 C   0  0  2  0  0  3  0  0  0  0  0  0
  193.6750  175.6970  136.7520 C   0  0  2  0  0  3  0  0  0  0  0  0
  194.2800  175.0280  137.8000 F   0  0  0  0  0  0  0  0  0  0  0  0
  194.2600  176.9540  136.5980 O   0  0  0  0  0  1  0  0  0  0  0  0
  191.8840  175.7080  138.3610 O   0  0  0  0  0  0  0  0  0  0  0  0
  190.4200  177.2440  139.2000 O   0  0  0  0  0  1  0  0  0  0  0  0
  191.7500  177.0120  138.8470 C   0  0  1  0  0  3  0  0  0  0  0  0
  192.0650  177.3730  141.3000 O   0  0  0  0  0  1  0  0  0  0  0  0
  192.6240  177.2030  140.0390 C   0  0  0  0  0  0  0  0  0  0  0  0
  193.8750  177.2250  139.8990 O   0  0  0  0  0  0  0  0  0  0  0  0
  181.9500  178.7020  138.5260 C   0  0  0  0  0  2  0  0  0  0  0  0
  181.6090  181.1810  138.5020 C   0  0  0  0  0  3  0  0  0  0  0  0
  180.5570  182.2870  136.6130 C   0  0  0  0  0  0  0  0  0  0  0  0
  180.9100  179.8840  136.5780 C   0  0  0  0  0  3  0  0  0  0  0  0
  180.4530  181.0510  135.9580 C   0  0  0  0  0  3  0  0  0  0  0  0
  181.1530  182.3470  137.8810 C   0  0  0  0  0  3  0  0  0  0  0  0
  181.4870  179.9480  137.8520 C   0  0  0  0  0  0  0  0  0  0  0  0
  180.1090  183.5420  135.9260 C   0  0  0  0  0  3  0  0  0  0  0  0
  179.9260  184.6620  136.9390 C   0  0  0  0  0  2  0  0  0  0  0  0
  181.1610  184.6320  136.0690 C   0  0  0  0  0  2  0  0  0  0  0  0
  1  7  1  0  0  0  0
  2 10  1  0  0  0  0
  3 11  2  0  0  0  0
  6  8  1  1  0  0  0
  6 18  1  0  0  0  0
  6 19  1  0  0  0  0
  7 16  1  0  0  0  0
  9  2  1  0  0  0  0
  9 13  1  0  0  0  0
 10 11  1  0  0  0  0
 11  4  1  0  0  0  0
 12  5  1  0  0  0  0
 12 19  1  0  0  0  0
 13 28  1  1  0  0  0
 13 18  1  0  0  0  0
 14  1  1  1  0  0  0
 14  5  1  0  0  0  0
 14  8  1  0  0  0  0
 15  4  1  1  0  0  0
 15 25  1  0  0  0  0
 16 15  1  0  0  0  0
 16 46  1  1  0  0  0
 17 13  1  0  0  0  0
 18 17  1  6  0  0  0
 20 21  1  0  0  0  0
 21 24  1  0  0  0  0
 22 26  1  1  0  0  0
 22 23  1  0  0  0  0
 24 23  1  0  0  0  0
 25 20  1  1  0  0  0
 25 22  1  0  0  0  0
 28 27  1  0  0  0  0
 28 29  1  0  0  0  0
 30 31  1  1  0  0  0
 30 32  1  0  0  0  0
 30 28  1  0  0  0  0
 32 33  1  6  0  0  0
 32 35  1  0  0  0  0
 32 36  1  0  0  0  0
 34 35  1  0  0  0  0
 36 40  1  1  0  0  0
 37 39  1  1  0  0  0
 37 36  1  0  0  0  0
 37 38  1  0  0  0  0
 40 42  1  0  0  0  0
 42 41  1  1  0  0  0
 42 44  1  0  0  0  0
 44 43  1  0  0  0  0
 45 44  2  0  0  0  0
 48 51  2  0  0  0  0
 49 52  1  0  0  0  0
 50 49  2  0  0  0  0
 50 48  1  0  0  0  0
 51 47  1  0  0  0  0
 52 47  2  0  0  0  0
 52 46  1  0  0  0  0
 53 55  1  0  0  0  0
 53 48  1  0  0  0  0
 53 54  1  0  0  0  0
 55 54  1  0  0  0  0
M  END
>  <MODEL>
3

>  <REMARK>
 VINA RESULT:      -4.0      3.240     10.872
  Name = 
  13 active torsions:
  status: ('A' for Active; 'I' for Inactive)
    1  A    between atoms: C_1  and  C_53
    2  A    between atoms: C_6  and  C_14
    3  A    between atoms: C_6  and  C_20
    4  A    between atoms: C_6  and  C_53
    5  A    between atoms: C_8  and  C_20
    6  A    between atoms: C_8  and  C_43
    7  A    between atoms: C_10  and  C_32
    8  A    between atoms: C_11  and  C_29
    9  A    between atoms: C_11  and  O_38
   10  A    between atoms: C_26  and  C_45
   11  A    between atoms: C_33  and  C_49
   12  A    between atoms: C_33  and  C_52
   13  A    between atoms: O_38  and  C_53
                            x       y       z     vdW  Elec       q    Type
                         _______ _______ _______ _____ _____    ______ ____

>  <TORSDO>
F 13

$$$$
=
 OpenBabel11052415063D

 55 60  0  0  1  0  0  0  0  0999 V2000
  191.5100  176.5670  138.0580 C   0  0  0  0  0  2  0  0  0  0  0  0
  186.9980  178.9510  136.6980 C   0  0  0  0  0  2  0  0  0  0  0  0
  186.6180  176.9680  134.5960 C   0  0  0  0  0  2  0  0  0  0  0  0
  188.4610  175.6000  135.3510 C   0  0  0  0  0  2  0  0  0  0  0  0
  191.2240  176.8640  140.5590 C   0  0  0  0  0  2  0  0  0  0  0  0
  188.5600  177.7980  140.2320 C   0  0  1  0  0  3  0  0  0  0  0  0
  191.1750  175.0880  137.9340 C   0  0  0  0  0  2  0  0  0  0  0  0
  189.2290  177.0900  139.0550 C   0  0  0  0  0  2  0  0  0  0  0  0
  187.1450  179.3690  138.1570 C   0  0  0  0  0  2  0  0  0  0  0  0
  188.1030  177.9920  136.2740 C   0  0  0  0  0  2  0  0  0  0  0  0
  187.5820  176.8050  135.5020 C   0  0  0  0  0  0  0  0  0  0  0  0
  190.3640  177.5880  141.5960 C   0  0  0  0  0  2  0  0  0  0  0  0
  186.3400  178.4670  139.1080 C   0  0  2  0  0  0  0  0  0  0  0  0
  190.7390  177.2720  139.1720 C   0  0  2  0  0  3  0  0  0  0  0  0
  188.9640  175.0980  136.6990 C   0  0  2  0  0  3  0  0  0  0  0  0
  190.4740  174.8400  136.6040 C   0  0  2  0  0  3  0  0  0  0  0  0
  186.4780  178.9140  140.4370 O   0  0  0  0  0  0  0  0  0  0  0  0
  187.0450  177.6570  140.1530 C   0  0  2  0  0  3  0  0  0  0  0  0
  189.0110  177.2310  141.4400 O   0  0  0  0  0  0  0  0  0  0  0  0
  188.7710  172.6550  136.9690 O   0  0  0  0  0  0  0  0  0  0  0  0
  188.5530  172.3030  135.6220 C   0  0  0  0  0  2  0  0  0  0  0  0
  186.6670  173.9460  136.7570 C   0  0  2  0  0  3  0  0  0  0  0  0
  186.1600  172.5540  136.3930 C   0  0  0  0  0  2  0  0  0  0  0  0
  187.1030  171.8730  135.4000 C   0  0  0  0  0  2  0  0  0  0  0  0
  188.1400  173.9010  137.2250 C   0  0  2  0  0  3  0  0  0  0  0  0
  185.8650  174.4790  137.7650 O   0  0  0  0  0  1  0  0  0  0  0  0
  184.5350  176.9070  139.3480 F   0  0  0  0  0  0  0  0  0  0  0  0
  184.8530  178.1490  138.8180 C   0  0  0  0  0  0  0  0  0  0  0  0
  184.6480  178.0870  137.4500 F   0  0  0  0  0  0  0  0  0  0  0  0
  183.9340  179.2310  139.4360 C   0  0  1  0  0  3  0  0  0  0  0  0
  184.2160  180.4880  138.8870 O   0  0  0  0  0  1  0  0  0  0  0  0
  182.4120  178.9350  139.3870 C   0  0  2  0  0  0  0  0  0  0  0  0
  181.7150  180.1340  139.2090 O   0  0  0  0  0  1  0  0  0  0  0  0
  182.9100  178.3710  141.6780 F   0  0  0  0  0  0  0  0  0  0  0  0
  181.9360  178.2990  140.6970 C   0  0  0  0  0  2  0  0  0  0  0  0
  182.0830  177.9940  138.2050 C   0  0  2  0  0  3  0  0  0  0  0  0
  181.3780  178.7190  137.0530 C   0  0  2  0  0  3  0  0  0  0  0  0
  180.0060  178.5600  137.1340 F   0  0  0  0  0  0  0  0  0  0  0  0
  181.8350  178.2270  135.8300 O   0  0  0  0  0  1  0  0  0  0  0  0
  181.3130  176.9010  138.6290 O   0  0  0  0  0  0  0  0  0  0  0  0
  182.6310  175.0530  138.3950 O   0  0  0  0  0  1  0  0  0  0  0  0
  181.6630  175.8470  137.7790 C   0  0  1  0  0  3  0  0  0  0  0  0
  180.2930  173.7770  138.0670 O   0  0  0  0  0  1  0  0  0  0  0  0
  180.4610  175.0210  137.4720 C   0  0  0  0  0  0  0  0  0  0  0  0
  179.6030  175.4470  136.6560 O   0  0  0  0  0  0  0  0  0  0  0  0
  190.8170  173.4710  136.0200 C   0  0  0  0  0  2  0  0  0  0  0  0
  192.9680  174.4240  135.1680 C   0  0  0  0  0  3  0  0  0  0  0  0
  195.0190  173.1230  135.1940 C   0  0  0  0  0  0  0  0  0  0  0  0
  192.9610  172.1760  136.0720 C   0  0  0  0  0  3  0  0  0  0  0  0
  194.3280  172.0620  135.7990 C   0  0  0  0  0  3  0  0  0  0  0  0
  194.3340  174.3100  134.8950 C   0  0  0  0  0  3  0  0  0  0  0  0
  192.2800  173.3570  135.7540 C   0  0  0  0  0  0  0  0  0  0  0  0
  196.4930  173.0160  134.9460 C   0  0  0  0  0  3  0  0  0  0  0  0
  197.2440  174.0610  135.7560 C   0  0  0  0  0  2  0  0  0  0  0  0
  197.2220  172.6240  136.2220 C   0  0  0  0  0  2  0  0  0  0  0  0
  2  9  1  0  0  0  0
  3 11  2  0  0  0  0
  4 11  1  0  0  0  0
  5 12  1  0  0  0  0
  6  8  1  6  0  0  0
  6 19  1  0  0  0  0
  7  1  1  0  0  0  0
  8 14  1  0  0  0  0
  9 13  1  0  0  0  0
 10  2  1  0  0  0  0
 11 10  1  0  0  0  0
 13 28  1  6  0  0  0
 13 18  1  0  0  0  0
 13 17  1  0  0  0  0
 14  1  1  6  0  0  0
 14  5  1  0  0  0  0
 15  4  1  6  0  0  0
 15 25  1  0  0  0  0
 16 46  1  1  0  0  0
 16 15  1  0  0  0  0
 16  7  1  0  0  0  0
 18  6  1  0  0  0  0
 18 17  1  1  0  0  0
 19 12  1  0  0  0  0
 21 20  1  0  0  0  0
 22 25  1  0  0  0  0
 22 26  1  1  0  0  0
 23 22  1  0  0  0  0
 24 21  1  0  0  0  0
 24 23  1  0  0  0  0
 25 20  1  6  0  0  0
 28 27  1  0  0  0  0
 28 30  1  0  0  0  0
 29 28  1  0  0  0  0
 30 31  1  6  0  0  0
 32 33  1  6  0  0  0
 32 30  1  0  0  0  0
 32 35  1  0  0  0  0
 35 34  1  0  0  0  0
 36 40  1  1  0  0  0
 36 32  1  0  0  0  0
 37 39  1  6  0  0  0
 37 38  1  0  0  0  0
 37 36  1  0  0  0  0
 42 41  1  1  0  0  0
 42 40  1  0  0  0  0
 44 42  1  0  0  0  0
 44 43  1  0  0  0  0
 45 44  2  0  0  0  0
 47 52  1  0  0  0  0
 48 50  2  0  0  0  0
 50 49  1  0  0  0  0
 51 47  2  0  0  0  0
 51 48  1  0  0  0  0
 52 46  1  0  0  0  0
 52 49  2  0  0  0  0
 53 48  1  0  0  0  0
 53 54  1  0  0  0  0
 53 55  1  0  0  0  0
 54 55  1  0  0  0  0
M  END
>  <MODEL>
4

>  <REMARK>
 VINA RESULT:      -3.9      1.480      2.402
  Name = 
  13 active torsions:
  status: ('A' for Active; 'I' for Inactive)
    1  A    between atoms: C_1  and  C_53
    2  A    between atoms: C_6  and  C_14
    3  A    between atoms: C_6  and  C_20
    4  A    between atoms: C_6  and  C_53
    5  A    between atoms: C_8  and  C_20
    6  A    between atoms: C_8  and  C_43
    7  A    between atoms: C_10  and  C_32
    8  A    between atoms: C_11  and  C_29
    9  A    between atoms: C_11  and  O_38
   10  A    between atoms: C_26  and  C_45
   11  A    between atoms: C_33  and  C_49
   12  A    between atoms: C_33  and  C_52
   13  A    between atoms: O_38  and  C_53
                            x       y       z     vdW  Elec       q    Type
                         _______ _______ _______ _____ _____    ______ ____

>  <TORSDO>
F 13

$$$$
=
 OpenBabel11052415063D

 55 60  0  0  1  0  0  0  0  0999 V2000
  192.3750  176.8320  139.1770 C   0  0  0  0  0  2  0  0  0  0  0  0
  188.2280  179.2110  136.9340 C   0  0  0  0  0  2  0  0  0  0  0  0
  188.5260  177.4750  134.6110 C   0  0  0  0  0  2  0  0  0  0  0  0
  190.1920  176.0890  135.6780 C   0  0  0  0  0  2  0  0  0  0  0  0
  191.4360  176.8250  141.5310 C   0  0  0  0  0  2  0  0  0  0  0  0
  188.8950  177.7050  140.6150 C   0  0  1  0  0  3  0  0  0  0  0  0
  192.1760  175.3660  138.8160 C   0  0  0  0  0  2  0  0  0  0  0  0
  189.8860  177.1610  139.5880 C   0  0  0  0  0  2  0  0  0  0  0  0
  187.9680  179.4590  138.4160 C   0  0  0  0  0  2  0  0  0  0  0  0
  189.4620  178.3440  136.7180 C   0  0  0  0  0  2  0  0  0  0  0  0
  189.2320  177.2390  135.7170 C   0  0  0  0  0  0  0  0  0  0  0  0
  190.2950  177.3950  142.3750 C   0  0  0  0  0  2  0  0  0  0  0  0
  187.0020  178.4280  139.0220 C   0  0  2  0  0  0  0  0  0  0  0  0
  191.3010  177.3760  140.1160 C   0  0  2  0  0  3  0  0  0  0  0  0
  190.3610  175.4490  137.0510 C   0  0  2  0  0  3  0  0  0  0  0  0
  191.8580  175.2530  137.3300 C   0  0  2  0  0  3  0  0  0  0  0  0
  186.7650  178.7210  140.3800 O   0  0  0  0  0  0  0  0  0  0  0  0
  187.4630  177.5240  140.1250 C   0  0  2  0  0  3  0  0  0  0  0  0
  189.0530  177.0150  141.8330 O   0  0  0  0  0  0  0  0  0  0  0  0
  190.0530  173.0620  136.5210 O   0  0  0  0  0  0  0  0  0  0  0  0
  189.7420  173.1790  135.1520 C   0  0  0  0  0  2  0  0  0  0  0  0
  188.0120  174.4170  136.8910 C   0  0  2  0  0  3  0  0  0  0  0  0
  187.4130  173.2400  136.1290 C   0  0  0  0  0  2  0  0  0  0  0  0
  188.2610  172.8930  134.9040 C   0  0  0  0  0  2  0  0  0  0  0  0
  189.5050  174.1730  137.2140 C   0  0  2  0  0  3  0  0  0  0  0  0
  187.2980  174.6140  138.0720 O   0  0  0  0  0  1  0  0  0  0  0  0
  185.5130  176.7210  138.2360 F   0  0  0  0  0  0  0  0  0  0  0  0
  185.6620  178.0970  138.3200 C   0  0  0  0  0  0  0  0  0  0  0  0
  185.6780  178.5980  137.0290 F   0  0  0  0  0  0  0  0  0  0  0  0
  184.4740  178.7050  139.1020 C   0  0  1  0  0  3  0  0  0  0  0  0
  184.3510  180.0730  138.8270 O   0  0  0  0  0  1  0  0  0  0  0  0
  183.1100  177.9840  138.9320 C   0  0  2  0  0  0  0  0  0  0  0  0
  182.9970  176.9770  139.8950 O   0  0  0  0  0  1  0  0  0  0  0  0
  182.6240  176.0050  137.6420 F   0  0  0  0  0  0  0  0  0  0  0  0
  183.0070  177.3320  137.5490 C   0  0  0  0  0  2  0  0  0  0  0  0
  181.9440  178.9820  139.1220 C   0  0  2  0  0  3  0  0  0  0  0  0
  181.1590  178.7300  140.4150 C   0  0  2  0  0  3  0  0  0  0  0  0
  179.8290  178.4690  140.1420 F   0  0  0  0  0  0  0  0  0  0  0  0
  181.2560  179.8400  141.2540 O   0  0  0  0  0  1  0  0  0  0  0  0
  181.0770  178.9600  138.0200 O   0  0  0  0  0  0  0  0  0  0  0  0
  181.7780  181.1290  138.1420 O   0  0  0  0  0  1  0  0  0  0  0  0
  180.7110  180.2940  137.8090 C   0  0  1  0  0  3  0  0  0  0  0  0
  180.5510  181.7310  135.7710 O   0  0  0  0  0  1  0  0  0  0  0  0
  180.3420  180.5000  136.3800 C   0  0  0  0  0  0  0  0  0  0  0  0
  179.8260  179.5560  135.7260 O   0  0  0  0  0  0  0  0  0  0  0  0
  192.4240  173.9730  136.7180 C   0  0  0  0  0  2  0  0  0  0  0  0
  194.5430  175.0380  135.9190 C   0  0  0  0  0  3  0  0  0  0  0  0
  196.7110  174.0950  136.4740 C   0  0  0  0  0  0  0  0  0  0  0  0
  194.6800  173.0570  137.3060 C   0  0  0  0  0  3  0  0  0  0  0  0
  196.0750  173.0940  137.2230 C   0  0  0  0  0  3  0  0  0  0  0  0
  195.9370  175.0760  135.8360 C   0  0  0  0  0  3  0  0  0  0  0  0
  193.9120  174.0270  136.6520 C   0  0  0  0  0  0  0  0  0  0  0  0
  198.2080  174.1610  136.4250 C   0  0  0  0  0  3  0  0  0  0  0  0
  198.7960  173.8520  137.7930 C   0  0  0  0  0  2  0  0  0  0  0  0
  198.8110  172.7950  136.7130 C   0  0  0  0  0  2  0  0  0  0  0  0
  2  9  1  0  0  0  0
  3 11  2  0  0  0  0
  4 11  1  0  0  0  0
  5 12  1  0  0  0  0
  6  8  1  6  0  0  0
  6 19  1  0  0  0  0
  7  1  1  0  0  0  0
  8 14  1  0  0  0  0
  9 13  1  0  0  0  0
 10  2  1  0  0  0  0
 11 10  1  0  0  0  0
 13 28  1  6  0  0  0
 13 18  1  0  0  0  0
 13 17  1  0  0  0  0
 14  1  1  6  0  0  0
 14  5  1  0  0  0  0
 15  4  1  6  0  0  0
 15 25  1  0  0  0  0
 15 16  1  0  0  0  0
 16 46  1  1  0  0  0
 16  7  1  0  0  0  0
 18 17  1  1  0  0  0
 18  6  1  0  0  0  0
 19 12  1  0  0  0  0
 21 20  1  0  0  0  0
 22 25  1  0  0  0  0
 22 26  1  1  0  0  0
 23 22  1  0  0  0  0
 24 21  1  0  0  0  0
 24 23  1  0  0  0  0
 25 20  1  6  0  0  0
 27 28  1  0  0  0  0
 28 30  1  0  0  0  0
 29 28  1  0  0  0  0
 30 31  1  6  0  0  0
 32 30  1  0  0  0  0
 32 36  1  0  0  0  0
 32 33  1  1  0  0  0
 35 34  1  0  0  0  0
 35 32  1  0  0  0  0
 36 40  1  6  0  0  0
 36 37  1  0  0  0  0
 37 38  1  6  0  0  0
 37 39  1  0  0  0  0
 42 40  1  0  0  0  0
 42 41  1  6  0  0  0
 43 44  1  0  0  0  0
 44 42  1  0  0  0  0
 45 44  2  0  0  0  0
 47 52  1  0  0  0  0
 48 50  2  0  0  0  0
 50 49  1  0  0  0  0
 51 47  2  0  0  0  0
 51 48  1  0  0  0  0
 52 46  1  0  0  0  0
 52 49  2  0  0  0  0
 53 48  1  0  0  0  0
 53 55  1  0  0  0  0
 53 54  1  0  0  0  0
 55 54  1  0  0  0  0
M  END
>  <MODEL>
5

>  <REMARK>
 VINA RESULT:      -3.7      1.313      2.391
  Name = 
  13 active torsions:
  status: ('A' for Active; 'I' for Inactive)
    1  A    between atoms: C_1  and  C_53
    2  A    between atoms: C_6  and  C_14
    3  A    between atoms: C_6  and  C_20
    4  A    between atoms: C_6  and  C_53
    5  A    between atoms: C_8  and  C_20
    6  A    between atoms: C_8  and  C_43
    7  A    between atoms: C_10  and  C_32
    8  A    between atoms: C_11  and  C_29
    9  A    between atoms: C_11  and  O_38
   10  A    between atoms: C_26  and  C_45
   11  A    between atoms: C_33  and  C_49
   12  A    between atoms: C_33  and  C_52
   13  A    between atoms: O_38  and  C_53
                            x       y       z     vdW  Elec       q    Type
                         _______ _______ _______ _____ _____    ______ ____

>  <TORSDO>
F 13

$$$$
=
 OpenBabel11052415063D

 55 60  0  0  1  0  0  0  0  0999 V2000
  188.7010  177.0020  134.5950 C   0  0  0  0  0  2  0  0  0  0  0  0
  188.3250  178.8770  139.5180 C   0  0  0  0  0  2  0  0  0  0  0  0
  185.5170  178.0970  139.5690 C   0  0  0  0  0  2  0  0  0  0  0  0
  185.6610  176.8970  137.4780 C   0  0  0  0  0  2  0  0  0  0  0  0
  191.0220  176.0180  134.8620 C   0  0  0  0  0  2  0  0  0  0  0  0
  190.9960  176.4930  137.6630 C   0  0  1  0  0  3  0  0  0  0  0  0
  187.8730  175.7250  134.6430 C   0  0  0  0  0  2  0  0  0  0  0  0
  189.6720  176.5630  136.9050 C   0  0  0  0  0  2  0  0  0  0  0  0
  189.8150  178.5710  139.4120 C   0  0  0  0  0  2  0  0  0  0  0  0
  187.5750  178.4540  138.2620 C   0  0  0  0  0  2  0  0  0  0  0  0
  186.3020  177.7030  138.5660 C   0  0  0  0  0  0  0  0  0  0  0  0
  192.2180  175.9930  135.8150 C   0  0  0  0  0  2  0  0  0  0  0  0
  190.1740  177.1970  140.0020 C   0  0  2  0  0  0  0  0  0  0  0  0
  189.9610  176.9390  135.4550 C   0  0  2  0  0  3  0  0  0  0  0  0
  186.6440  175.9160  136.8490 C   0  0  2  0  0  3  0  0  0  0  0  0
  186.5400  176.0150  135.3210 C   0  0  2  0  0  3  0  0  0  0  0  0
  191.5630  176.9770  139.9140 O   0  0  0  0  0  0  0  0  0  0  0  0
  190.7590  176.1320  139.1240 C   0  0  2  0  0  3  0  0  0  0  0  0
  191.8230  175.5130  137.0780 O   0  0  0  0  0  0  0  0  0  0  0  0
  187.7320  173.8090  137.5210 O   0  0  0  0  0  0  0  0  0  0  0  0
  188.1080  173.3410  136.2460 C   0  0  0  0  0  2  0  0  0  0  0  0
  185.4120  173.6680  136.6620 C   0  0  2  0  0  3  0  0  0  0  0  0
  185.8540  172.2210  136.4670 C   0  0  0  0  0  2  0  0  0  0  0  0
  187.2400  172.1550  135.8240 C   0  0  0  0  0  2  0  0  0  0  0  0
  186.4890  174.4860  137.4130 C   0  0  2  0  0  3  0  0  0  0  0  0
  184.2140  173.6930  137.3750 O   0  0  0  0  0  1  0  0  0  0  0  0
  190.0840  175.4960  141.6890 F   0  0  0  0  0  0  0  0  0  0  0  0
  189.6700  176.7890  141.4080 C   0  0  0  0  0  0  0  0  0  0  0  0
  188.2860  176.8010  141.4270 F   0  0  0  0  0  0  0  0  0  0  0  0
  190.2170  177.7590  142.4840 C   0  0  1  0  0  3  0  0  0  0  0  0
  189.2770  178.7570  142.7700 O   0  0  0  0  0  1  0  0  0  0  0  0
  190.7360  177.0990  143.7890 C   0  0  2  0  0  0  0  0  0  0  0  0
  191.9440  177.6960  144.1590 O   0  0  0  0  0  1  0  0  0  0  0  0
  192.1790  175.2040  144.1660 F   0  0  0  0  0  0  0  0  0  0  0  0
  190.9890  175.6020  143.5810 C   0  0  0  0  0  2  0  0  0  0  0  0
  189.7170  177.2970  144.9350 C   0  0  2  0  0  3  0  0  0  0  0  0
  190.1910  176.6810  146.2570 C   0  0  2  0  0  3  0  0  0  0  0  0
  189.1660  175.9890  146.8760 F   0  0  0  0  0  0  0  0  0  0  0  0
  190.6600  177.6830  147.1080 O   0  0  0  0  0  1  0  0  0  0  0  0
  188.4590  176.7810  144.5880 O   0  0  0  0  0  0  0  0  0  0  0  0
  188.1750  178.6460  145.8720 O   0  0  0  0  0  1  0  0  0  0  0  0
  187.5340  177.5440  145.3080 C   0  0  1  0  0  3  0  0  0  0  0  0
  186.2690  177.4210  143.1560 O   0  0  0  0  0  0  0  0  0  0  0  0
  186.4450  178.0090  144.4030 C   0  0  0  0  0  0  0  0  0  0  0  0
  185.6910  178.9500  144.7650 O   0  0  0  0  0  1  0  0  0  0  0  0
  185.4050  175.1750  134.7380 C   0  0  0  0  0  2  0  0  0  0  0  0
  184.1450  177.3360  134.6860 C   0  0  0  0  0  3  0  0  0  0  0  0
  181.7190  177.3820  134.7950 C   0  0  0  0  0  0  0  0  0  0  0  0
  182.9020  175.2610  134.8030 C   0  0  0  0  0  3  0  0  0  0  0  0
  181.7030  175.9790  134.8260 C   0  0  0  0  0  3  0  0  0  0  0  0
  182.9470  178.0550  134.7080 C   0  0  0  0  0  3  0  0  0  0  0  0
  184.1240  175.9390  134.7350 C   0  0  0  0  0  0  0  0  0  0  0  0
  180.4310  178.1490  134.7720 C   0  0  0  0  0  3  0  0  0  0  0  0
  179.7930  178.1520  136.1520 C   0  0  0  0  0  2  0  0  0  0  0  0
  180.5280  179.3780  135.6630 C   0  0  0  0  0  2  0  0  0  0  0  0
  1  7  1  0  0  0  0
  4 11  1  0  0  0  0
  5 14  1  0  0  0  0
  5 12  1  0  0  0  0
  6  8  1  6  0  0  0
  6 18  1  0  0  0  0
  7 16  1  0  0  0  0
  9  2  1  0  0  0  0
  9 13  1  0  0  0  0
 10 11  1  0  0  0  0
 10  2  1  0  0  0  0
 11  3  2  0  0  0  0
 12 19  1  0  0  0  0
 13 28  1  1  0  0  0
 14  1  1  6  0  0  0
 14  8  1  0  0  0  0
 15 25  1  0  0  0  0
 15  4  1  1  0  0  0
 16 46  1  6  0  0  0
 16 15  1  0  0  0  0
 17 13  1  0  0  0  0
 18 17  1  1  0  0  0
 18 13  1  0  0  0  0
 19  6  1  0  0  0  0
 21 20  1  0  0  0  0
 22 26  1  1  0  0  0
 22 25  1  0  0  0  0
 23 22  1  0  0  0  0
 24 21  1  0  0  0  0
 24 23  1  0  0  0  0
 25 20  1  6  0  0  0
 28 29  1  0  0  0  0
 28 27  1  0  0  0  0
 28 30  1  0  0  0  0
 30 31  1  1  0  0  0
 30 32  1  0  0  0  0
 32 33  1  1  0  0  0
 32 36  1  0  0  0  0
 35 32  1  0  0  0  0
 35 34  1  0  0  0  0
 36 40  1  6  0  0  0
 36 37  1  0  0  0  0
 37 38  1  1  0  0  0
 37 39  1  0  0  0  0
 40 42  1  0  0  0  0
 42 41  1  6  0  0  0
 43 44  2  0  0  0  0
 44 45  1  0  0  0  0
 44 42  1  0  0  0  0
 47 51  2  0  0  0  0
 47 52  1  0  0  0  0
 48 50  2  0  0  0  0
 49 50  1  0  0  0  0
 51 48  1  0  0  0  0
 52 46  1  0  0  0  0
 52 49  2  0  0  0  0
 53 48  1  0  0  0  0
 53 55  1  0  0  0  0
 53 54  1  0  0  0  0
 55 54  1  0  0  0  0
M  END
>  <MODEL>
6

>  <REMARK>
 VINA RESULT:      -3.6      3.801      8.618
  Name = 
  13 active torsions:
  status: ('A' for Active; 'I' for Inactive)
    1  A    between atoms: C_1  and  C_53
    2  A    between atoms: C_6  and  C_14
    3  A    between atoms: C_6  and  C_20
    4  A    between atoms: C_6  and  C_53
    5  A    between atoms: C_8  and  C_20
    6  A    between atoms: C_8  and  C_43
    7  A    between atoms: C_10  and  C_32
    8  A    between atoms: C_11  and  C_29
    9  A    between atoms: C_11  and  O_38
   10  A    between atoms: C_26  and  C_45
   11  A    between atoms: C_33  and  C_49
   12  A    between atoms: C_33  and  C_52
   13  A    between atoms: O_38  and  C_53
                            x       y       z     vdW  Elec       q    Type
                         _______ _______ _______ _____ _____    ______ ____

>  <TORSDO>
F 13

$$$$
=
 OpenBabel11052415063D

 55 60  0  0  1  0  0  0  0  0999 V2000
  187.9140  177.3830  134.6490 C   0  0  0  0  0  2  0  0  0  0  0  0
  187.2690  178.9600  139.6480 C   0  0  0  0  0  2  0  0  0  0  0  0
  184.5630  177.8760  139.6090 C   0  0  0  0  0  2  0  0  0  0  0  0
  184.8660  176.8040  137.4660 C   0  0  0  0  0  2  0  0  0  0  0  0
  190.3260  176.6480  134.9120 C   0  0  0  0  0  2  0  0  0  0  0  0
  190.2110  176.9770  137.7320 C   0  0  1  0  0  3  0  0  0  0  0  0
  187.2320  176.0230  134.6200 C   0  0  0  0  0  2  0  0  0  0  0  0
  188.8970  176.9400  136.9530 C   0  0  0  0  0  2  0  0  0  0  0  0
  188.7850  178.8250  139.5550 C   0  0  0  0  0  2  0  0  0  0  0  0
  186.5860  178.5200  138.3590 C   0  0  0  0  0  2  0  0  0  0  0  0
  185.4000  177.6200  138.6040 C   0  0  0  0  0  0  0  0  0  0  0  0
  191.5050  176.7070  135.8850 C   0  0  0  0  0  2  0  0  0  0  0  0
  189.2850  177.4710  140.0850 C   0  0  2  0  0  0  0  0  0  0  0  0
  189.1620  177.4170  135.5280 C   0  0  2  0  0  3  0  0  0  0  0  0
  185.9600  175.9690  136.8100 C   0  0  2  0  0  3  0  0  0  0  0  0
  185.8660  176.1320  135.2860 C   0  0  2  0  0  3  0  0  0  0  0  0
  190.6910  177.4080  140.0140 O   0  0  0  0  0  0  0  0  0  0  0  0
  189.9950  176.5210  139.1690 C   0  0  2  0  0  3  0  0  0  0  0  0
  191.1480  176.1240  137.1160 O   0  0  0  0  0  0  0  0  0  0  0  0
  187.2640  173.9610  137.3950 O   0  0  0  0  0  0  0  0  0  0  0  0
  187.7000  173.6000  136.1040 C   0  0  0  0  0  2  0  0  0  0  0  0
  184.9810  173.6130  136.4960 C   0  0  2  0  0  3  0  0  0  0  0  0
  185.5790  172.2340  136.2380 C   0  0  0  0  0  2  0  0  0  0  0  0
  186.9700  172.3500  135.6130 C   0  0  0  0  0  2  0  0  0  0  0  0
  185.9560  174.5040  137.3010 C   0  0  2  0  0  3  0  0  0  0  0  0
  183.7810  173.4730  137.1920 O   0  0  0  0  0  1  0  0  0  0  0  0
  189.4400  175.7360  141.7340 F   0  0  0  0  0  0  0  0  0  0  0  0
  188.8100  176.9410  141.4610 C   0  0  0  0  0  0  0  0  0  0  0  0
  187.4470  176.7040  141.4220 F   0  0  0  0  0  0  0  0  0  0  0  0
  189.1320  177.9630  142.5780 C   0  0  1  0  0  3  0  0  0  0  0  0
  188.5470  179.2040  142.2930 O   0  0  0  0  0  1  0  0  0  0  0  0
  188.7950  177.5130  144.0240 C   0  0  2  0  0  0  0  0  0  0  0  0
  188.3400  176.1920  144.0030 O   0  0  0  0  0  1  0  0  0  0  0  0
  186.5560  177.6440  144.9100 F   0  0  0  0  0  0  0  0  0  0  0  0
  187.6890  178.3870  144.6250 C   0  0  0  0  0  2  0  0  0  0  0  0
  190.0550  177.5860  144.9180 C   0  0  2  0  0  3  0  0  0  0  0  0
  191.3520  177.6690  144.1040 C   0  0  2  0  0  3  0  0  0  0  0  0
  192.3030  176.7960  144.6000 F   0  0  0  0  0  0  0  0  0  0  0  0
  191.8500  178.9710  144.1330 O   0  0  0  0  0  1  0  0  0  0  0  0
  190.1100  176.4980  145.8020 O   0  0  0  0  0  0  0  0  0  0  0  0
  189.1010  176.5010  147.8490 O   0  0  0  0  0  1  0  0  0  0  0  0
  190.1240  177.0600  147.0830 C   0  0  1  0  0  3  0  0  0  0  0  0
  192.2640  175.7840  147.2740 O   0  0  0  0  0  0  0  0  0  0  0  0
  191.4370  176.7990  147.7380 C   0  0  0  0  0  0  0  0  0  0  0  0
  191.7910  177.4940  148.7260 O   0  0  0  0  0  1  0  0  0  0  0  0
  184.8380  175.2020  134.6430 C   0  0  0  0  0  2  0  0  0  0  0  0
  183.3620  177.2230  134.5940 C   0  0  0  0  0  3  0  0  0  0  0  0
  180.9440  177.0170  134.6770 C   0  0  0  0  0  0  0  0  0  0  0  0
  182.3390  175.0290  134.6820 C   0  0  0  0  0  3  0  0  0  0  0  0
  181.0720  175.6200  134.6970 C   0  0  0  0  0  3  0  0  0  0  0  0
  182.0960  177.8140  134.6080 C   0  0  0  0  0  3  0  0  0  0  0  0
  183.4860  175.8300  134.6320 C   0  0  0  0  0  0  0  0  0  0  0  0
  179.5840  177.6470  134.6460 C   0  0  0  0  0  3  0  0  0  0  0  0
  179.0020  177.7170  136.0500 C   0  0  0  0  0  2  0  0  0  0  0  0
  179.5870  178.9580  135.4180 C   0  0  0  0  0  2  0  0  0  0  0  0
  4 11  1  0  0  0  0
  5 14  1  0  0  0  0
  5 12  1  0  0  0  0
  6  8  1  6  0  0  0
  6 18  1  0  0  0  0
  7  1  1  0  0  0  0
  7 16  1  0  0  0  0
  9  2  1  0  0  0  0
  9 13  1  0  0  0  0
 10 11  1  0  0  0  0
 10  2  1  0  0  0  0
 11  3  2  0  0  0  0
 12 19  1  0  0  0  0
 13 28  1  1  0  0  0
 14  1  1  6  0  0  0
 14  8  1  0  0  0  0
 15 25  1  0  0  0  0
 15  4  1  1  0  0  0
 16 46  1  6  0  0  0
 16 15  1  0  0  0  0
 17 13  1  0  0  0  0
 18 17  1  1  0  0  0
 18 13  1  0  0  0  0
 19  6  1  0  0  0  0
 21 20  1  0  0  0  0
 22 26  1  1  0  0  0
 22 25  1  0  0  0  0
 23 22  1  0  0  0  0
 24 21  1  0  0  0  0
 24 23  1  0  0  0  0
 25 20  1  6  0  0  0
 28 27  1  0  0  0  0
 28 30  1  0  0  0  0
 29 28  1  0  0  0  0
 30 31  1  6  0  0  0
 30 32  1  0  0  0  0
 32 33  1  6  0  0  0
 32 35  1  0  0  0  0
 32 36  1  0  0  0  0
 35 34  1  0  0  0  0
 36 40  1  6  0  0  0
 37 39  1  1  0  0  0
 37 38  1  0  0  0  0
 37 36  1  0  0  0  0
 40 42  1  0  0  0  0
 42 44  1  0  0  0  0
 42 41  1  1  0  0  0
 43 44  2  0  0  0  0
 44 45  1  0  0  0  0
 47 51  2  0  0  0  0
 47 52  1  0  0  0  0
 48 50  2  0  0  0  0
 49 50  1  0  0  0  0
 51 48  1  0  0  0  0
 52 46  1  0  0  0  0
 52 49  2  0  0  0  0
 53 48  1  0  0  0  0
 53 55  1  0  0  0  0
 53 54  1  0  0  0  0
 55 54  1  0  0  0  0
M  END
>  <MODEL>
7

>  <REMARK>
 VINA RESULT:      -3.5      4.040      9.152
  Name = 
  13 active torsions:
  status: ('A' for Active; 'I' for Inactive)
    1  A    between atoms: C_1  and  C_53
    2  A    between atoms: C_6  and  C_14
    3  A    between atoms: C_6  and  C_20
    4  A    between atoms: C_6  and  C_53
    5  A    between atoms: C_8  and  C_20
    6  A    between atoms: C_8  and  C_43
    7  A    between atoms: C_10  and  C_32
    8  A    between atoms: C_11  and  C_29
    9  A    between atoms: C_11  and  O_38
   10  A    between atoms: C_26  and  C_45
   11  A    between atoms: C_33  and  C_49
   12  A    between atoms: C_33  and  C_52
   13  A    between atoms: O_38  and  C_53
                            x       y       z     vdW  Elec       q    Type
                         _______ _______ _______ _____ _____    ______ ____

>  <TORSDO>
F 13

$$$$
=
 OpenBabel11052415063D

 55 60  0  0  1  0  0  0  0  0999 V2000
  190.9280  177.0510  138.2490 C   0  0  0  0  0  2  0  0  0  0  0  0
  186.3030  179.0120  136.6200 C   0  0  0  0  0  2  0  0  0  0  0  0
  186.1320  176.8820  134.6380 C   0  0  0  0  0  2  0  0  0  0  0  0
  188.0420  175.7010  135.5270 C   0  0  0  0  0  2  0  0  0  0  0  0
  190.5420  177.4770  140.7190 C   0  0  0  0  0  2  0  0  0  0  0  0
  187.8310  178.1940  140.2610 C   0  0  1  0  0  3  0  0  0  0  0  0
  190.7030  175.5460  138.2100 C   0  0  0  0  0  2  0  0  0  0  0  0
  188.5850  177.4660  139.1500 C   0  0  0  0  0  2  0  0  0  0  0  0
  186.3740  179.5280  138.0540 C   0  0  0  0  0  2  0  0  0  0  0  0
  187.4860  178.1120  136.2880 C   0  0  0  0  0  2  0  0  0  0  0  0
  187.0760  176.8460  135.5790 C   0  0  0  0  0  0  0  0  0  0  0  0
  189.6010  178.1990  141.6840 C   0  0  0  0  0  2  0  0  0  0  0  0
  185.6060  178.6300  139.0370 C   0  0  2  0  0  0  0  0  0  0  0  0
  190.0740  177.7640  139.2960 C   0  0  2  0  0  3  0  0  0  0  0  0
  188.5370  175.3200  136.9180 C   0  0  2  0  0  3  0  0  0  0  0  0
  190.0640  175.1680  136.8800 C   0  0  2  0  0  3  0  0  0  0  0  0
  185.6690  179.1660  140.3390 O   0  0  0  0  0  0  0  0  0  0  0  0
  186.3330  177.9380  140.1500 C   0  0  2  0  0  3  0  0  0  0  0  0
  188.2820  177.7350  141.5150 O   0  0  0  0  0  0  0  0  0  0  0  0
  188.5020  172.8880  137.3210 O   0  0  0  0  0  0  0  0  0  0  0  0
  188.3380  172.4480  135.9930 C   0  0  0  0  0  2  0  0  0  0  0  0
  186.3210  174.0190  137.0000 C   0  0  2  0  0  3  0  0  0  0  0  0
  185.9170  172.5780  136.7050 C   0  0  0  0  0  2  0  0  0  0  0  0
  186.9240  171.9090  135.7690 C   0  0  0  0  0  2  0  0  0  0  0  0
  187.7840  174.1000  137.4960 C   0  0  2  0  0  3  0  0  0  0  0  0
  185.4640  174.5510  137.9620 O   0  0  0  0  0  1  0  0  0  0  0  0
  183.8940  176.9810  139.3630 F   0  0  0  0  0  0  0  0  0  0  0  0
  184.1540  178.1870  138.7280 C   0  0  0  0  0  0  0  0  0  0  0  0
  184.0100  177.9840  137.3660 F   0  0  0  0  0  0  0  0  0  0  0  0
  183.1450  179.2580  139.2070 C   0  0  1  0  0  3  0  0  0  0  0  0
  183.5920  180.5410  138.8700 O   0  0  0  0  0  1  0  0  0  0  0  0
  181.6740  179.0500  138.7580 C   0  0  2  0  0  0  0  0  0  0  0  0
  181.6390  178.1430  137.6950 O   0  0  0  0  0  1  0  0  0  0  0  0
  180.7640  180.3270  136.9270 F   0  0  0  0  0  0  0  0  0  0  0  0
  181.0580  180.3680  138.2780 C   0  0  0  0  0  2  0  0  0  0  0  0
  180.8310  178.4780  139.9220 C   0  0  2  0  0  3  0  0  0  0  0  0
  181.0640  179.2240  141.2410 C   0  0  2  0  0  3  0  0  0  0  0  0
  181.4040  178.3450  142.2530 F   0  0  0  0  0  0  0  0  0  0  0  0
  179.9150  179.9290  141.5990 O   0  0  0  0  0  1  0  0  0  0  0  0
  181.0730  177.1070  140.0940 O   0  0  0  0  0  0  0  0  0  0  0  0
  178.9600  177.2830  139.2510 O   0  0  0  0  0  1  0  0  0  0  0  0
  179.8180  176.4950  140.0190 C   0  0  1  0  0  3  0  0  0  0  0  0
  181.1620  174.7290  138.8720 O   0  0  0  0  0  0  0  0  0  0  0  0
  179.9470  175.1460  139.3990 C   0  0  0  0  0  0  0  0  0  0  0  0
  178.9430  174.3880  139.3380 O   0  0  0  0  0  1  0  0  0  0  0  0
  190.5220  173.7930  136.3930 C   0  0  0  0  0  2  0  0  0  0  0  0
  192.8240  172.8210  136.5120 C   0  0  0  0  0  3  0  0  0  0  0  0
  194.6980  173.8840  135.3890 C   0  0  0  0  0  0  0  0  0  0  0  0
  192.4700  174.8350  135.2130 C   0  0  0  0  0  3  0  0  0  0  0  0
  193.8300  174.8670  134.8900 C   0  0  0  0  0  3  0  0  0  0  0  0
  194.1840  172.8520  136.1880 C   0  0  0  0  0  3  0  0  0  0  0  0
  191.9660  173.8130  136.0260 C   0  0  0  0  0  0  0  0  0  0  0  0
  196.1460  173.8930  135.0040 C   0  0  0  0  0  3  0  0  0  0  0  0
  197.0080  174.2910  136.1920 C   0  0  0  0  0  2  0  0  0  0  0  0
  196.9130  172.8380  135.7870 C   0  0  0  0  0  2  0  0  0  0  0  0
  2  9  1  0  0  0  0
  3 11  2  0  0  0  0
  4 11  1  0  0  0  0
  5 12  1  0  0  0  0
  6  8  1  6  0  0  0
  6 19  1  0  0  0  0
  7  1  1  0  0  0  0
  8 14  1  0  0  0  0
  9 13  1  0  0  0  0
 10  2  1  0  0  0  0
 11 10  1  0  0  0  0
 13 28  1  6  0  0  0
 13 18  1  0  0  0  0
 13 17  1  0  0  0  0
 14  1  1  6  0  0  0
 14  5  1  0  0  0  0
 15  4  1  6  0  0  0
 15 25  1  0  0  0  0
 16 46  1  1  0  0  0
 16 15  1  0  0  0  0
 16  7  1  0  0  0  0
 18  6  1  0  0  0  0
 18 17  1  1  0  0  0
 19 12  1  0  0  0  0
 21 20  1  0  0  0  0
 22 25  1  0  0  0  0
 22 26  1  1  0  0  0
 23 22  1  0  0  0  0
 24 21  1  0  0  0  0
 24 23  1  0  0  0  0
 25 20  1  6  0  0  0
 28 30  1  0  0  0  0
 28 27  1  0  0  0  0
 29 28  1  0  0  0  0
 30 31  1  6  0  0  0
 32 33  1  6  0  0  0
 32 30  1  0  0  0  0
 32 36  1  0  0  0  0
 34 35  1  0  0  0  0
 35 32  1  0  0  0  0
 36 40  1  1  0  0  0
 36 37  1  0  0  0  0
 37 39  1  1  0  0  0
 37 38  1  0  0  0  0
 42 41  1  6  0  0  0
 42 40  1  0  0  0  0
 43 44  2  0  0  0  0
 44 42  1  0  0  0  0
 45 44  1  0  0  0  0
 48 51  2  0  0  0  0
 49 52  1  0  0  0  0
 50 49  2  0  0  0  0
 50 48  1  0  0  0  0
 51 47  1  0  0  0  0
 52 46  1  0  0  0  0
 52 47  2  0  0  0  0
 53 48  1  0  0  0  0
 53 55  1  0  0  0  0
 53 54  1  0  0  0  0
 55 54  1  0  0  0  0
M  END
>  <MODEL>
8

>  <REMARK>
 VINA RESULT:      -3.5      1.422      2.053
  Name = 
  13 active torsions:
  status: ('A' for Active; 'I' for Inactive)
    1  A    between atoms: C_1  and  C_53
    2  A    between atoms: C_6  and  C_14
    3  A    between atoms: C_6  and  C_20
    4  A    between atoms: C_6  and  C_53
    5  A    between atoms: C_8  and  C_20
    6  A    between atoms: C_8  and  C_43
    7  A    between atoms: C_10  and  C_32
    8  A    between atoms: C_11  and  C_29
    9  A    between atoms: C_11  and  O_38
   10  A    between atoms: C_26  and  C_45
   11  A    between atoms: C_33  and  C_49
   12  A    between atoms: C_33  and  C_52
   13  A    between atoms: O_38  and  C_53
                            x       y       z     vdW  Elec       q    Type
                         _______ _______ _______ _____ _____    ______ ____

>  <TORSDO>
F 13

$$$$
=
 OpenBabel11052415063D

 55 60  0  0  1  0  0  0  0  0999 V2000
  187.0360  177.6400  140.8680 C   0  0  0  0  0  2  0  0  0  0  0  0
  183.3470  175.1450  138.0300 C   0  0  0  0  0  2  0  0  0  0  0  0
  181.3980  175.7110  140.1220 C   0  0  0  0  0  2  0  0  0  0  0  0
  182.8980  177.1690  141.3290 C   0  0  0  0  0  2  0  0  0  0  0  0
  188.1860  178.7450  138.8970 C   0  0  0  0  0  2  0  0  0  0  0  0
  186.1230  177.9250  137.1220 C   0  0  1  0  0  3  0  0  0  0  0  0
  186.2900  178.8390  141.4360 C   0  0  0  0  0  2  0  0  0  0  0  0
  185.8560  177.8560  138.6240 C   0  0  0  0  0  2  0  0  0  0  0  0
  184.3390  175.5660  136.9520 C   0  0  0  0  0  2  0  0  0  0  0  0
  183.7540  175.6670  139.4020 C   0  0  0  0  0  2  0  0  0  0  0  0
  182.6020  176.2820  140.1580 C   0  0  0  0  0  0  0  0  0  0  0  0
  188.2300  178.7360  137.3680 C   0  0  0  0  0  2  0  0  0  0  0  0
  183.9310  176.8780  136.2620 C   0  0  2  0  0  0  0  0  0  0  0  0
  187.1880  177.6840  139.3490 C   0  0  2  0  0  3  0  0  0  0  0  0
  183.8650  178.2880  140.9570 C   0  0  2  0  0  3  0  0  0  0  0  0
  184.9650  178.3730  142.0250 C   0  0  2  0  0  3  0  0  0  0  0  0
  184.8570  177.2060  135.2510 O   0  0  0  0  0  0  0  0  0  0  0  0
  184.8180  178.0830  136.3520 C   0  0  2  0  0  3  0  0  0  0  0  0
  186.9560  179.0260  136.8430 O   0  0  0  0  0  0  0  0  0  0  0  0
  181.9680  179.7780  141.4620 O   0  0  0  0  0  0  0  0  0  0  0  0
  180.9310  179.0130  140.8930 C   0  0  0  0  0  2  0  0  0  0  0  0
  182.8950  179.8550  139.1660 C   0  0  2  0  0  3  0  0  0  0  0  0
  181.5230  180.4730  138.9170 C   0  0  0  0  0  2  0  0  0  0  0  0
  180.4240  179.6590  139.6020 C   0  0  0  0  0  2  0  0  0  0  0  0
  183.1390  179.6220  140.6750 C   0  0  2  0  0  3  0  0  0  0  0  0
  183.8800  180.6960  138.6500 O   0  0  0  0  0  1  0  0  0  0  0  0
  182.3100  176.2960  134.5940 F   0  0  0  0  0  0  0  0  0  0  0  0
  182.4900  177.0710  135.7290 C   0  0  0  0  0  0  0  0  0  0  0  0
  182.3000  178.3950  135.3690 F   0  0  0  0  0  0  0  0  0  0  0  0
  181.4540  176.6690  136.8070 C   0  0  1  0  0  3  0  0  0  0  0  0
  181.3240  177.6800  137.7670 O   0  0  0  0  0  1  0  0  0  0  0  0
  180.0630  176.2290  136.2780 C   0  0  2  0  0  0  0  0  0  0  0  0
  180.0080  176.4360  134.8960 O   0  0  0  0  0  1  0  0  0  0  0  0
  179.1160  178.4060  136.6970 F   0  0  0  0  0  0  0  0  0  0  0  0
  178.9460  177.0520  136.9270 C   0  0  0  0  0  2  0  0  0  0  0  0
  179.8300  174.7260  136.5600 C   0  0  2  0  0  3  0  0  0  0  0  0
  178.9310  174.4890  137.7790 C   0  0  2  0  0  3  0  0  0  0  0  0
  179.1350  175.4610  138.7410 F   0  0  0  0  0  0  0  0  0  0  0  0
  179.1880  173.2300  138.3220 O   0  0  0  0  0  1  0  0  0  0  0  0
  181.0470  174.0480  136.7200 O   0  0  0  0  0  0  0  0  0  0  0  0
  182.4800  173.5370  135.0180 O   0  0  0  0  0  1  0  0  0  0  0  0
  181.2120  173.2990  135.5500 C   0  0  1  0  0  3  0  0  0  0  0  0
  182.1360  171.1150  136.3360 O   0  0  0  0  0  1  0  0  0  0  0  0
  181.0600  171.8470  135.8500 C   0  0  0  0  0  0  0  0  0  0  0  0
  179.9550  171.2800  135.6480 O   0  0  0  0  0  0  0  0  0  0  0  0
  184.5580  179.1960  143.2460 C   0  0  0  0  0  2  0  0  0  0  0  0
  185.0780  179.3780  145.6870 C   0  0  0  0  0  3  0  0  0  0  0  0
  186.6110  177.8340  146.7660 C   0  0  0  0  0  0  0  0  0  0  0  0
  186.0990  177.5960  144.4030 C   0  0  0  0  0  3  0  0  0  0  0  0
  186.7700  177.1550  145.5480 C   0  0  0  0  0  3  0  0  0  0  0  0
  185.7480  178.9380  146.8320 C   0  0  0  0  0  3  0  0  0  0  0  0
  185.2540  178.7090  144.4710 C   0  0  0  0  0  0  0  0  0  0  0  0
  187.2950  177.3330  148.0020 C   0  0  0  0  0  3  0  0  0  0  0  0
  188.8000  177.5180  147.8860 C   0  0  0  0  0  2  0  0  0  0  0  0
  187.9880  178.4750  148.7280 C   0  0  0  0  0  2  0  0  0  0  0  0
  1  7  1  0  0  0  0
  2 10  1  0  0  0  0
  3 11  2  0  0  0  0
  5 14  1  0  0  0  0
  6  8  1  1  0  0  0
  7 16  1  0  0  0  0
  9  2  1  0  0  0  0
 10 11  1  0  0  0  0
 11  4  1  0  0  0  0
 12  5  1  0  0  0  0
 13 28  1  6  0  0  0
 13 18  1  0  0  0  0
 13  9  1  0  0  0  0
 14  8  1  6  0  0  0
 14  1  1  0  0  0  0
 15  4  1  1  0  0  0
 15 16  1  0  0  0  0
 16 46  1  1  0  0  0
 17 13  1  0  0  0  0
 18 17  1  6  0  0  0
 18  6  1  0  0  0  0
 19  6  1  0  0  0  0
 19 12  1  0  0  0  0
 21 20  1  0  0  0  0
 22 26  1  1  0  0  0
 22 25  1  0  0  0  0
 23 22  1  0  0  0  0
 23 24  1  0  0  0  0
 24 21  1  0  0  0  0
 25 15  1  0  0  0  0
 25 20  1  1  0  0  0
 27 28  1  0  0  0  0
 28 30  1  0  0  0  0
 29 28  1  0  0  0  0
 30 31  1  1  0  0  0
 32 33  1  6  0  0  0
 32 36  1  0  0  0  0
 32 30  1  0  0  0  0
 32 35  1  0  0  0  0
 34 35  1  0  0  0  0
 36 40  1  1  0  0  0
 36 37  1  0  0  0  0
 37 39  1  1  0  0  0
 37 38  1  0  0  0  0
 42 41  1  1  0  0  0
 42 44  1  0  0  0  0
 42 40  1  0  0  0  0
 44 43  1  0  0  0  0
 45 44  2  0  0  0  0
 46 52  1  0  0  0  0
 47 51  1  0  0  0  0
 48 51  2  0  0  0  0
 48 53  1  0  0  0  0
 49 52  1  0  0  0  0
 49 50  2  0  0  0  0
 50 48  1  0  0  0  0
 52 47  2  0  0  0  0
 53 55  1  0  0  0  0
 54 53  1  0  0  0  0
 54 55  1  0  0  0  0
M  END
>  <MODEL>
9

>  <REMARK>
 VINA RESULT:      -2.6      4.822      8.624
  Name = 
  13 active torsions:
  status: ('A' for Active; 'I' for Inactive)
    1  A    between atoms: C_1  and  C_53
    2  A    between atoms: C_6  and  C_14
    3  A    between atoms: C_6  and  C_20
    4  A    between atoms: C_6  and  C_53
    5  A    between atoms: C_8  and  C_20
    6  A    between atoms: C_8  and  C_43
    7  A    between atoms: C_10  and  C_32
    8  A    between atoms: C_11  and  C_29
    9  A    between atoms: C_11  and  O_38
   10  A    between atoms: C_26  and  C_45
   11  A    between atoms: C_33  and  C_49
   12  A    between atoms: C_33  and  C_52
   13  A    between atoms: O_38  and  C_53
                            x       y       z     vdW  Elec       q    Type
                         _______ _______ _______ _____ _____    ______ ____

>  <TORSDO>
F 13

$$$$
