=
 OpenBabel11052413273D

 28 32  0  0  1  0  0  0  0  0999 V2000
  190.0850  176.3780  143.8640 C   0  0  0  0  0  0  0  0  0  0  0  0
  185.3460  178.3180  142.8700 C   0  0  0  0  0  3  0  0  0  0  0  0
  188.2980  177.1890  148.2900 C   0  0  0  0  0  1  0  0  0  0  0  0
  184.4220  178.6260  145.0960 C   0  0  0  0  0  0  0  0  0  0  0  0
  186.9060  178.1220  144.8410 C   0  0  2  0  0  3  0  0  0  0  0  0
  183.0000  178.8430  143.1420 C   0  0  0  0  0  0  0  0  0  0  0  0
  185.5210  178.3110  144.2620 C   0  0  0  0  0  0  0  0  0  0  0  0
  185.9830  178.8490  147.0470 C   0  0  0  0  0  2  0  0  0  0  0  0
  183.1670  178.8690  144.5290 C   0  0  0  0  0  3  0  0  0  0  0  0
  189.3540  177.2620  146.0250 C   0  0  0  0  0  0  0  0  0  0  0  0
  187.6520  176.9770  144.1680 C   0  0  0  0  0  2  0  0  0  0  0  0
  184.5440  178.6280  146.5940 C   0  0  0  0  0  2  0  0  0  0  0  0
  191.6810  176.6560  145.6690 C   0  0  0  0  0  3  0  0  0  0  0  0
  188.3030  177.8780  146.9320 C   0  0  1  0  0  3  0  0  0  0  0  0
  190.6730  177.1630  146.4900 C   0  0  0  0  0  3  0  0  0  0  0  0
  181.7510  179.0890  142.5890 O   0  0  0  0  0  1  0  0  0  0  0  0
  184.0900  178.5740  142.3140 C   0  0  0  0  0  3  0  0  0  0  0  0
  186.8860  177.8440  146.3460 C   0  0  2  0  0  3  0  0  0  0  0  0
  191.3860  176.2610  144.3660 C   0  0  0  0  0  3  0  0  0  0  0  0
  189.0610  176.8870  144.6890 C   0  0  0  0  0  0  0  0  0  0  0  0
  189.8090  175.9440  142.4430 C   0  0  0  0  0  2  0  0  0  0  0  0
  189.7610  177.0440  141.4680 N   0  0  0  0  0  0  0  0  0  0  0  0
  189.2270  178.4870  139.1110 C   0  0  0  0  0  0  0  0  0  0  0  0
  188.3700  177.3700  141.1450 C   0  0  0  0  0  2  0  0  0  0  0  0
  190.4740  176.6750  140.2400 C   0  0  0  0  0  2  0  0  0  0  0  0
  190.5820  177.8780  139.3060 C   0  0  0  0  0  2  0  0  0  0  0  0
  188.9080  178.9360  138.0220 O   0  0  0  0  0  0  0  0  0  0  0  0
  188.3060  178.6300  140.2830 C   0  0  0  0  0  2  0  0  0  0  0  0
  1 19  2  0  0  0  0
  1 20  1  0  0  0  0
  2  7  1  0  0  0  0
  4 12  1  0  0  0  0
  5 11  1  6  0  0  0
  5 18  1  0  0  0  0
  6  9  2  0  0  0  0
  7  5  1  0  0  0  0
  7  4  2  0  0  0  0
  9  4  1  0  0  0  0
 10 15  1  0  0  0  0
 10 14  1  0  0  0  0
 11 20  1  0  0  0  0
 12  8  1  0  0  0  0
 13 15  2  0  0  0  0
 14  3  1  1  0  0  0
 16  6  1  0  0  0  0
 17  2  2  0  0  0  0
 17  6  1  0  0  0  0
 18 14  1  0  0  0  0
 18  8  1  1  0  0  0
 19 13  1  0  0  0  0
 20 10  2  0  0  0  0
 21  1  1  0  0  0  0
 22 21  1  0  0  0  0
 23 26  1  0  0  0  0
 23 28  1  0  0  0  0
 24 22  1  0  0  0  0
 25 22  1  0  0  0  0
 26 25  1  0  0  0  0
 27 23  2  0  0  0  0
 28 24  1  0  0  0  0
M  END
>  <MODEL>
1

>  <REMARK>
 VINA RESULT:     -12.5      0.000      0.000
  Name = 
  2 active torsions:
  status: ('A' for Active; 'I' for Inactive)
    1  A    between atoms: C_1  and  C_2
    2  A    between atoms: C_2  and  N_3
                            x       y       z     vdW  Elec       q    Type
                         _______ _______ _______ _____ _____    ______ ____

>  <TORSDO>
F 2

$$$$
=
 OpenBabel11052413273D

 28 32  0  0  1  0  0  0  0  0999 V2000
  187.0050  178.4990  140.9690 C   0  0  0  0  0  0  0  0  0  0  0  0
  190.2300  176.8410  144.7180 C   0  0  0  0  0  3  0  0  0  0  0  0
  184.4280  179.2130  145.0050 C   0  0  0  0  0  1  0  0  0  0  0  0
  188.9670  177.2970  146.7430 C   0  0  0  0  0  0  0  0  0  0  0  0
  187.7940  177.4510  144.4870 C   0  0  2  0  0  3  0  0  0  0  0  0
  191.3030  176.6580  146.8790 C   0  0  0  0  0  0  0  0  0  0  0  0
  189.0320  177.2400  145.3310 C   0  0  0  0  0  0  0  0  0  0  0  0
  186.4710  177.5030  146.6060 C   0  0  0  0  0  2  0  0  0  0  0  0
  190.1090  177.0260  147.5040 C   0  0  0  0  0  3  0  0  0  0  0  0
  185.5750  178.3690  142.9500 C   0  0  0  0  0  0  0  0  0  0  0  0
  188.0910  178.2650  143.2350 C   0  0  0  0  0  2  0  0  0  0  0  0
  187.7160  177.7240  147.4580 C   0  0  0  0  0  2  0  0  0  0  0  0
  184.5920  178.6060  140.7390 C   0  0  0  0  0  3  0  0  0  0  0  0
  185.3680  178.1580  144.4390 C   0  0  1  0  0  3  0  0  0  0  0  0
  184.4490  178.4680  142.1190 C   0  0  0  0  0  3  0  0  0  0  0  0
  192.4310  176.3880  147.6420 O   0  0  0  0  0  1  0  0  0  0  0  0
  191.3610  176.5610  145.4880 C   0  0  0  0  0  3  0  0  0  0  0  0
  186.6710  178.1600  145.2490 C   0  0  2  0  0  3  0  0  0  0  0  0
  185.8640  178.6280  140.1680 C   0  0  0  0  0  3  0  0  0  0  0  0
  186.8670  178.3620  142.3650 C   0  0  0  0  0  0  0  0  0  0  0  0
  188.3650  178.5210  140.3100 C   0  0  0  0  0  2  0  0  0  0  0  0
  188.3770  178.0400  138.9200 N   0  0  0  0  0  0  0  0  0  0  0  0
  189.3200  177.1630  136.4170 C   0  0  0  0  0  0  0  0  0  0  0  0
  189.0580  176.7450  138.8410 C   0  0  0  0  0  2  0  0  0  0  0  0
  189.0560  179.0030  138.0470 C   0  0  0  0  0  2  0  0  0  0  0  0
  188.9060  178.5930  136.5850 C   0  0  0  0  0  2  0  0  0  0  0  0
  189.9180  176.8120  135.4140 O   0  0  0  0  0  0  0  0  0  0  0  0
  188.9090  176.1500  137.4420 C   0  0  0  0  0  2  0  0  0  0  0  0
  1 20  1  0  0  0  0
  2  7  2  0  0  0  0
  2 17  1  0  0  0  0
  4 12  1  0  0  0  0
  4  9  2  0  0  0  0
  5 11  1  6  0  0  0
  5 18  1  0  0  0  0
  5  7  1  0  0  0  0
  6  9  1  0  0  0  0
  6 16  1  0  0  0  0
  7  4  1  0  0  0  0
  8 12  1  0  0  0  0
 10 14  1  0  0  0  0
 13 15  2  0  0  0  0
 14  3  1  1  0  0  0
 14 18  1  0  0  0  0
 15 10  1  0  0  0  0
 17  6  2  0  0  0  0
 18  8  1  1  0  0  0
 19 13  1  0  0  0  0
 19  1  2  0  0  0  0
 20 10  2  0  0  0  0
 20 11  1  0  0  0  0
 21  1  1  0  0  0  0
 22 21  1  0  0  0  0
 23 26  1  0  0  0  0
 23 28  1  0  0  0  0
 24 22  1  0  0  0  0
 25 22  1  0  0  0  0
 26 25  1  0  0  0  0
 27 23  2  0  0  0  0
 28 24  1  0  0  0  0
M  END
>  <MODEL>
2

>  <REMARK>
 VINA RESULT:     -11.3      2.567      5.459
  Name = 
  2 active torsions:
  status: ('A' for Active; 'I' for Inactive)
    1  A    between atoms: C_1  and  C_2
    2  A    between atoms: C_2  and  N_3
                            x       y       z     vdW  Elec       q    Type
                         _______ _______ _______ _____ _____    ______ ____

>  <TORSDO>
F 2

$$$$
=
 OpenBabel11052413273D

 28 32  0  0  1  0  0  0  0  0999 V2000
  189.9800  176.8970  143.0750 C   0  0  0  0  0  0  0  0  0  0  0  0
  185.0920  178.6880  142.7500 C   0  0  0  0  0  3  0  0  0  0  0  0
  188.5070  176.8640  147.6870 C   0  0  0  0  0  1  0  0  0  0  0  0
  184.3310  178.5710  145.0540 C   0  0  0  0  0  0  0  0  0  0  0  0
  186.8080  178.2650  144.5480 C   0  0  2  0  0  3  0  0  0  0  0  0
  182.7520  179.0210  143.2680 C   0  0  0  0  0  0  0  0  0  0  0  0
  185.3750  178.4640  144.1060 C   0  0  0  0  0  0  0  0  0  0  0  0
  186.0260  178.5640  146.9030 C   0  0  0  0  0  2  0  0  0  0  0  0
  183.0250  178.8290  144.6250 C   0  0  0  0  0  3  0  0  0  0  0  0
  189.3790  177.3700  145.3990 C   0  0  0  0  0  0  0  0  0  0  0  0
  187.5530  177.2920  143.6430 C   0  0  0  0  0  2  0  0  0  0  0  0
  184.5690  178.3350  146.5190 C   0  0  0  0  0  2  0  0  0  0  0  0
  191.6970  176.9690  144.7870 C   0  0  0  0  0  3  0  0  0  0  0  0
  188.3740  177.7650  146.4670 C   0  0  1  0  0  3  0  0  0  0  0  0
  190.7330  177.2740  145.7480 C   0  0  0  0  0  3  0  0  0  0  0  0
  181.4540  179.2800  142.8510 O   0  0  0  0  0  1  0  0  0  0  0  0
  183.7860  178.9560  142.3330 C   0  0  0  0  0  3  0  0  0  0  0  0
  186.9190  177.7430  145.9830 C   0  0  2  0  0  3  0  0  0  0  0  0
  191.3200  176.7760  143.4590 C   0  0  0  0  0  3  0  0  0  0  0  0
  189.0000  177.2020  144.0420 C   0  0  0  0  0  0  0  0  0  0  0  0
  189.6150  176.6860  141.6240 C   0  0  0  0  0  2  0  0  0  0  0  0
  190.7600  176.4220  140.7390 N   0  0  0  0  0  0  0  0  0  0  0  0
  192.6420  176.7150  138.6670 C   0  0  0  0  0  0  0  0  0  0  0  0
  191.7180  177.5270  140.8130 C   0  0  0  0  0  2  0  0  0  0  0  0
  190.3120  176.2560  139.3530 C   0  0  0  0  0  2  0  0  0  0  0  0
  191.4710  175.8010  138.4700 C   0  0  0  0  0  2  0  0  0  0  0  0
  193.3520  177.0140  137.7210 O   0  0  0  0  0  0  0  0  0  0  0  0
  192.9940  177.1780  140.0480 C   0  0  0  0  0  2  0  0  0  0  0  0
  1 19  2  0  0  0  0
  1 20  1  0  0  0  0
  2  7  1  0  0  0  0
  4 12  1  0  0  0  0
  5 11  1  6  0  0  0
  5 18  1  0  0  0  0
  6  9  2  0  0  0  0
  7  5  1  0  0  0  0
  7  4  2  0  0  0  0
  9  4  1  0  0  0  0
 10 15  1  0  0  0  0
 10 14  1  0  0  0  0
 11 20  1  0  0  0  0
 12  8  1  0  0  0  0
 13 15  2  0  0  0  0
 14  3  1  1  0  0  0
 16  6  1  0  0  0  0
 17  2  2  0  0  0  0
 17  6  1  0  0  0  0
 18 14  1  0  0  0  0
 18  8  1  1  0  0  0
 19 13  1  0  0  0  0
 20 10  2  0  0  0  0
 21  1  1  0  0  0  0
 22 24  1  0  0  0  0
 22 21  1  0  0  0  0
 23 28  1  0  0  0  0
 25 22  1  0  0  0  0
 26 23  1  0  0  0  0
 26 25  1  0  0  0  0
 27 23  2  0  0  0  0
 28 24  1  0  0  0  0
M  END
>  <MODEL>
3

>  <REMARK>
 VINA RESULT:     -11.3      1.396      1.801
  Name = 
  2 active torsions:
  status: ('A' for Active; 'I' for Inactive)
    1  A    between atoms: C_1  and  C_2
    2  A    between atoms: C_2  and  N_3
                            x       y       z     vdW  Elec       q    Type
                         _______ _______ _______ _____ _____    ______ ____

>  <TORSDO>
F 2

$$$$
=
 OpenBabel11052413273D

 28 32  0  0  1  0  0  0  0  0999 V2000
  189.1730  177.1250  146.3330 C   0  0  0  0  0  0  0  0  0  0  0  0
  187.9310  178.1870  141.3800 C   0  0  0  0  0  3  0  0  0  0  0  0
  184.4730  178.2530  146.6160 C   0  0  0  0  0  1  0  0  0  0  0  0
  185.5500  178.6520  141.5190 C   0  0  0  0  0  0  0  0  0  0  0  0
  186.9120  178.4930  143.6660 C   0  0  2  0  0  3  0  0  0  0  0  0
  186.6190  178.3910  139.3570 C   0  0  0  0  0  0  0  0  0  0  0  0
  186.7840  178.3950  142.1620 C   0  0  0  0  0  0  0  0  0  0  0  0
  184.5710  179.3660  143.7150 C   0  0  0  0  0  2  0  0  0  0  0  0
  185.4750  178.6280  140.1230 C   0  0  0  0  0  3  0  0  0  0  0  0
  186.9690  178.1750  146.5000 C   0  0  0  0  0  0  0  0  0  0  0  0
  187.7970  177.3910  144.2350 C   0  0  0  0  0  2  0  0  0  0  0  0
  184.2860  178.8750  142.3000 C   0  0  0  0  0  2  0  0  0  0  0  0
  188.3410  177.8780  148.4840 C   0  0  0  0  0  3  0  0  0  0  0  0
  185.7090  178.7440  145.8740 C   0  0  1  0  0  3  0  0  0  0  0  0
  187.1720  178.3350  147.8780 C   0  0  0  0  0  3  0  0  0  0  0  0
  186.5350  178.3710  137.9720 O   0  0  0  0  0  1  0  0  0  0  0  0
  187.8460  178.1760  139.9860 C   0  0  0  0  0  3  0  0  0  0  0  0
  185.5600  178.4210  144.3820 C   0  0  2  0  0  3  0  0  0  0  0  0
  189.3340  177.2710  147.7160 C   0  0  0  0  0  3  0  0  0  0  0  0
  187.9920  177.5830  145.7140 C   0  0  0  0  0  0  0  0  0  0  0  0
  190.2760  176.4670  145.5370 C   0  0  0  0  0  2  0  0  0  0  0  0
  190.4280  176.9800  144.1670 N   0  0  0  0  0  0  0  0  0  0  0  0
  191.5340  177.5120  141.6340 C   0  0  0  0  0  0  0  0  0  0  0  0
  190.6000  175.8680  143.2290 C   0  0  0  0  0  2  0  0  0  0  0  0
  191.5850  177.8770  144.0790 C   0  0  0  0  0  2  0  0  0  0  0  0
  191.6330  178.5500  142.7100 C   0  0  0  0  0  2  0  0  0  0  0  0
  192.1780  177.6340  140.6050 O   0  0  0  0  0  0  0  0  0  0  0  0
  190.5690  176.3770  141.7890 C   0  0  0  0  0  2  0  0  0  0  0  0
  1 19  1  0  0  0  0
  2  7  1  0  0  0  0
  4  7  2  0  0  0  0
  4 12  1  0  0  0  0
  5 11  1  1  0  0  0
  5 18  1  0  0  0  0
  6 17  1  0  0  0  0
  6  9  2  0  0  0  0
  7  5  1  0  0  0  0
  9  4  1  0  0  0  0
 10 15  2  0  0  0  0
 11 20  1  0  0  0  0
 12  8  1  0  0  0  0
 14 10  1  0  0  0  0
 14  3  1  1  0  0  0
 15 13  1  0  0  0  0
 16  6  1  0  0  0  0
 17  2  2  0  0  0  0
 18  8  1  6  0  0  0
 18 14  1  0  0  0  0
 19 13  2  0  0  0  0
 20  1  2  0  0  0  0
 20 10  1  0  0  0  0
 21  1  1  0  0  0  0
 22 21  1  0  0  0  0
 23 28  1  0  0  0  0
 23 26  1  0  0  0  0
 24 22  1  0  0  0  0
 25 22  1  0  0  0  0
 26 25  1  0  0  0  0
 27 23  2  0  0  0  0
 28 24  1  0  0  0  0
M  END
>  <MODEL>
4

>  <REMARK>
 VINA RESULT:     -10.5      1.853      3.714
  Name = 
  2 active torsions:
  status: ('A' for Active; 'I' for Inactive)
    1  A    between atoms: C_1  and  C_2
    2  A    between atoms: C_2  and  N_3
                            x       y       z     vdW  Elec       q    Type
                         _______ _______ _______ _____ _____    ______ ____

>  <TORSDO>
F 2

$$$$
=
 OpenBabel11052413273D

 28 32  0  0  1  0  0  0  0  0999 V2000
  189.0170  176.8340  143.8620 C   0  0  0  0  0  0  0  0  0  0  0  0
  184.7320  178.1530  141.1960 C   0  0  0  0  0  3  0  0  0  0  0  0
  185.9180  178.1100  147.3570 C   0  0  0  0  0  1  0  0  0  0  0  0
  183.1540  178.6930  142.9630 C   0  0  0  0  0  0  0  0  0  0  0  0
  185.6160  178.3940  143.5450 C   0  0  2  0  0  3  0  0  0  0  0  0
  182.3950  178.4890  140.6680 C   0  0  0  0  0  0  0  0  0  0  0  0
  184.4690  178.3660  142.5580 C   0  0  0  0  0  0  0  0  0  0  0  0
  184.0260  179.3440  145.2230 C   0  0  0  0  0  2  0  0  0  0  0  0
  182.1240  178.7320  142.0170 C   0  0  0  0  0  3  0  0  0  0  0  0
  187.6160  177.9510  145.5290 C   0  0  0  0  0  0  0  0  0  0  0  0
  186.5840  177.2390  143.3260 C   0  0  0  0  0  2  0  0  0  0  0  0
  182.8080  178.9250  144.4070 C   0  0  0  0  0  2  0  0  0  0  0  0
  189.9650  177.5220  145.9860 C   0  0  0  0  0  3  0  0  0  0  0  0
  186.3110  178.5900  145.9670 C   0  0  1  0  0  3  0  0  0  0  0  0
  188.7310  178.0450  146.3740 C   0  0  0  0  0  3  0  0  0  0  0  0
  181.3670  178.5320  139.7360 O   0  0  0  0  0  1  0  0  0  0  0  0
  183.6980  178.2050  140.2580 C   0  0  0  0  0  3  0  0  0  0  0  0
  185.1460  178.3380  145.0010 C   0  0  2  0  0  3  0  0  0  0  0  0
  190.1040  176.9140  144.7400 C   0  0  0  0  0  3  0  0  0  0  0  0
  187.7660  177.3590  144.2480 C   0  0  0  0  0  0  0  0  0  0  0  0
  189.2120  176.1740  142.5170 C   0  0  0  0  0  2  0  0  0  0  0  0
  189.4920  177.1060  141.4150 N   0  0  0  0  0  0  0  0  0  0  0  0
  189.6680  178.1780  138.8180 C   0  0  0  0  0  0  0  0  0  0  0  0
  188.2530  177.4330  140.7050 C   0  0  0  0  0  2  0  0  0  0  0  0
  190.4530  176.5190  140.4750 C   0  0  0  0  0  2  0  0  0  0  0  0
  190.8810  177.5530  139.4370 C   0  0  0  0  0  2  0  0  0  0  0  0
  189.6630  178.4610  137.6310 O   0  0  0  0  0  0  0  0  0  0  0  0
  188.5020  178.5430  139.6840 C   0  0  0  0  0  2  0  0  0  0  0  0
  1 20  2  0  0  0  0
  1 19  1  0  0  0  0
  2  7  1  0  0  0  0
  4 12  1  0  0  0  0
  5 11  1  6  0  0  0
  5 18  1  0  0  0  0
  6  9  2  0  0  0  0
  7  4  2  0  0  0  0
  7  5  1  0  0  0  0
  9  4  1  0  0  0  0
 10 14  1  0  0  0  0
 10 15  2  0  0  0  0
 11 20  1  0  0  0  0
 12  8  1  0  0  0  0
 13 15  1  0  0  0  0
 14  3  1  1  0  0  0
 16  6  1  0  0  0  0
 17  6  1  0  0  0  0
 17  2  2  0  0  0  0
 18  8  1  6  0  0  0
 18 14  1  0  0  0  0
 19 13  2  0  0  0  0
 20 10  1  0  0  0  0
 21  1  1  0  0  0  0
 22 21  1  0  0  0  0
 23 26  1  0  0  0  0
 23 28  1  0  0  0  0
 24 22  1  0  0  0  0
 25 22  1  0  0  0  0
 26 25  1  0  0  0  0
 27 23  2  0  0  0  0
 28 24  1  0  0  0  0
M  END
>  <MODEL>
5

>  <REMARK>
 VINA RESULT:     -10.2      1.120      1.885
  Name = 
  2 active torsions:
  status: ('A' for Active; 'I' for Inactive)
    1  A    between atoms: C_1  and  C_2
    2  A    between atoms: C_2  and  N_3
                            x       y       z     vdW  Elec       q    Type
                         _______ _______ _______ _____ _____    ______ ____

>  <TORSDO>
F 2

$$$$
=
 OpenBabel11052413273D

 28 32  0  0  1  0  0  0  0  0999 V2000
  184.1720  178.6510  142.7130 C   0  0  0  0  0  0  0  0  0  0  0  0
  188.8970  176.4530  142.9330 C   0  0  0  0  0  3  0  0  0  0  0  0
  185.5550  179.5130  147.2730 C   0  0  0  0  0  1  0  0  0  0  0  0
  189.6210  176.9790  145.1920 C   0  0  0  0  0  0  0  0  0  0  0  0
  187.1890  177.3690  144.5450 C   0  0  2  0  0  3  0  0  0  0  0  0
  191.1900  176.0490  143.5920 C   0  0  0  0  0  0  0  0  0  0  0  0
  188.6080  176.9720  144.2050 C   0  0  0  0  0  0  0  0  0  0  0  0
  187.8980  177.4990  146.9380 C   0  0  0  0  0  2  0  0  0  0  0  0
  190.9090  176.5370  144.8700 C   0  0  0  0  0  3  0  0  0  0  0  0
  184.6870  178.6190  145.1050 C   0  0  0  0  0  0  0  0  0  0  0  0
  186.5460  178.1910  143.4350 C   0  0  0  0  0  2  0  0  0  0  0  0
  189.3770  177.5290  146.5690 C   0  0  0  0  0  2  0  0  0  0  0  0
  182.4230  179.0660  144.3420 C   0  0  0  0  0  3  0  0  0  0  0  0
  185.6340  178.3740  146.2660 C   0  0  1  0  0  3  0  0  0  0  0  0
  183.3390  178.8910  145.3790 C   0  0  0  0  0  3  0  0  0  0  0  0
  192.4690  175.6100  143.2820 O   0  0  0  0  0  1  0  0  0  0  0  0
  190.1830  176.0020  142.6260 C   0  0  0  0  0  3  0  0  0  0  0  0
  187.0950  178.1810  145.8400 C   0  0  2  0  0  3  0  0  0  0  0  0
  182.8390  178.9530  143.0170 C   0  0  0  0  0  3  0  0  0  0  0  0
  185.1040  178.4750  143.7570 C   0  0  0  0  0  0  0  0  0  0  0  0
  184.5810  178.5300  141.2630 C   0  0  0  0  0  2  0  0  0  0  0  0
  183.4650  178.5990  140.3070 N   0  0  0  0  0  0  0  0  0  0  0  0
  182.0070  178.4340  137.9050 C   0  0  0  0  0  0  0  0  0  0  0  0
  183.2190  177.2770  139.7250 C   0  0  0  0  0  2  0  0  0  0  0  0
  183.7620  179.5560  139.2370 C   0  0  0  0  0  2  0  0  0  0  0  0
  182.5350  179.7630  138.3530 C   0  0  0  0  0  2  0  0  0  0  0  0
  181.5560  178.3010  136.7800 O   0  0  0  0  0  0  0  0  0  0  0  0
  181.9470  177.2970  138.8790 C   0  0  0  0  0  2  0  0  0  0  0  0
  1 19  2  0  0  0  0
  1 20  1  0  0  0  0
  2  7  1  0  0  0  0
  4 12  1  0  0  0  0
  5 11  1  6  0  0  0
  5 18  1  0  0  0  0
  6  9  2  0  0  0  0
  7  5  1  0  0  0  0
  7  4  2  0  0  0  0
  9  4  1  0  0  0  0
 10 15  1  0  0  0  0
 10 14  1  0  0  0  0
 11 20  1  0  0  0  0
 12  8  1  0  0  0  0
 13 15  2  0  0  0  0
 14  3  1  1  0  0  0
 16  6  1  0  0  0  0
 17  2  2  0  0  0  0
 17  6  1  0  0  0  0
 18 14  1  0  0  0  0
 18  8  1  1  0  0  0
 19 13  1  0  0  0  0
 20 10  2  0  0  0  0
 21  1  1  0  0  0  0
 22 21  1  0  0  0  0
 23 26  1  0  0  0  0
 23 28  1  0  0  0  0
 24 22  1  0  0  0  0
 25 22  1  0  0  0  0
 26 25  1  0  0  0  0
 27 23  2  0  0  0  0
 28 24  1  0  0  0  0
M  END
>  <MODEL>
6

>  <REMARK>
 VINA RESULT:     -10.2      2.819      6.348
  Name = 
  2 active torsions:
  status: ('A' for Active; 'I' for Inactive)
    1  A    between atoms: C_1  and  C_2
    2  A    between atoms: C_2  and  N_3
                            x       y       z     vdW  Elec       q    Type
                         _______ _______ _______ _____ _____    ______ ____

>  <TORSDO>
F 2

$$$$
=
 OpenBabel11052413273D

 28 32  0  0  1  0  0  0  0  0999 V2000
  184.9490  178.7720  143.8920 C   0  0  0  0  0  0  0  0  0  0  0  0
  188.2250  177.4080  140.0690 C   0  0  0  0  0  3  0  0  0  0  0  0
  189.0560  177.8220  146.2740 C   0  0  0  0  0  1  0  0  0  0  0  0
  190.3060  177.0330  141.2640 C   0  0  0  0  0  0  0  0  0  0  0  0
  188.1450  177.2960  142.5870 C   0  0  2  0  0  3  0  0  0  0  0  0
  190.2860  177.1080  138.8390 C   0  0  0  0  0  0  0  0  0  0  0  0
  188.9160  177.2930  141.2850 C   0  0  0  0  0  0  0  0  0  0  0  0
  190.2310  176.5060  143.7150 C   0  0  0  0  0  2  0  0  0  0  0  0
  190.9830  176.9620  140.0420 C   0  0  0  0  0  3  0  0  0  0  0  0
  186.8600  177.8100  145.0800 C   0  0  0  0  0  0  0  0  0  0  0  0
  187.1020  178.4050  142.6280 C   0  0  0  0  0  2  0  0  0  0  0  0
  191.1040  176.9070  142.5310 C   0  0  0  0  0  2  0  0  0  0  0  0
  184.7600  178.1980  146.2420 C   0  0  0  0  0  3  0  0  0  0  0  0
  188.2660  177.2390  145.1100 C   0  0  1  0  0  3  0  0  0  0  0  0
  186.0770  177.7390  146.2410 C   0  0  0  0  0  3  0  0  0  0  0  0
  190.9650  177.0330  137.6310 O   0  0  0  0  0  1  0  0  0  0  0  0
  188.9080  177.3250  138.8540 C   0  0  0  0  0  3  0  0  0  0  0  0
  189.0500  177.4620  143.8100 C   0  0  2  0  0  3  0  0  0  0  0  0
  184.2020  178.7180  145.0740 C   0  0  0  0  0  3  0  0  0  0  0  0
  186.2810  178.3110  143.8850 C   0  0  0  0  0  0  0  0  0  0  0  0
  184.3040  179.3360  142.6470 C   0  0  0  0  0  2  0  0  0  0  0  0
  183.3550  178.4280  141.9870 N   0  0  0  0  0  0  0  0  0  0  0  0
  181.4720  177.4260  140.1500 C   0  0  0  0  0  0  0  0  0  0  0  0
  183.7880  178.1590  140.6130 C   0  0  0  0  0  2  0  0  0  0  0  0
  182.0100  179.0120  141.9690 C   0  0  0  0  0  2  0  0  0  0  0  0
  180.9950  177.9960  141.4520 C   0  0  0  0  0  2  0  0  0  0  0  0
  180.6740  177.1770  139.2620 O   0  0  0  0  0  0  0  0  0  0  0  0
  182.9170  177.0730  139.9840 C   0  0  0  0  0  2  0  0  0  0  0  0
  1 19  1  0  0  0  0
  2  7  1  0  0  0  0
  4  7  2  0  0  0  0
  4 12  1  0  0  0  0
  5 11  1  6  0  0  0
  5 18  1  0  0  0  0
  6 17  1  0  0  0  0
  6  9  2  0  0  0  0
  7  5  1  0  0  0  0
  9  4  1  0  0  0  0
 10 14  1  0  0  0  0
 10 15  2  0  0  0  0
 11 20  1  0  0  0  0
 12  8  1  0  0  0  0
 14  3  1  1  0  0  0
 15 13  1  0  0  0  0
 16  6  1  0  0  0  0
 17  2  2  0  0  0  0
 18  8  1  6  0  0  0
 18 14  1  0  0  0  0
 19 13  2  0  0  0  0
 20  1  2  0  0  0  0
 20 10  1  0  0  0  0
 21  1  1  0  0  0  0
 22 21  1  0  0  0  0
 23 26  1  0  0  0  0
 24 22  1  0  0  0  0
 25 22  1  0  0  0  0
 26 25  1  0  0  0  0
 27 23  2  0  0  0  0
 28 23  1  0  0  0  0
 28 24  1  0  0  0  0
M  END
>  <MODEL>
7

>  <REMARK>
 VINA RESULT:     -10.0      2.083      6.435
  Name = 
  2 active torsions:
  status: ('A' for Active; 'I' for Inactive)
    1  A    between atoms: C_1  and  C_2
    2  A    between atoms: C_2  and  N_3
                            x       y       z     vdW  Elec       q    Type
                         _______ _______ _______ _____ _____    ______ ____

>  <TORSDO>
F 2

$$$$
=
 OpenBabel11052413273D

 28 32  0  0  1  0  0  0  0  0999 V2000
  189.5220  177.3350  141.8930 C   0  0  0  0  0  0  0  0  0  0  0  0
  184.5800  178.7190  142.8260 C   0  0  0  0  0  3  0  0  0  0  0  0
  189.2240  177.0930  146.7200 C   0  0  0  0  0  1  0  0  0  0  0  0
  184.4150  178.4960  145.2390 C   0  0  0  0  0  0  0  0  0  0  0  0
  186.7100  178.4060  144.1390 C   0  0  2  0  0  3  0  0  0  0  0  0
  182.4190  178.8460  143.9050 C   0  0  0  0  0  0  0  0  0  0  0  0
  185.2010  178.4930  144.0640 C   0  0  0  0  0  0  0  0  0  0  0  0
  186.5050  178.5950  146.6220 C   0  0  0  0  0  2  0  0  0  0  0  0
  183.0280  178.6520  145.1480 C   0  0  0  0  0  3  0  0  0  0  0  0
  189.4710  177.7120  144.3100 C   0  0  0  0  0  0  0  0  0  0  0  0
  187.2840  177.5160  143.0440 C   0  0  0  0  0  2  0  0  0  0  0  0
  185.0190  178.2530  146.5940 C   0  0  0  0  0  2  0  0  0  0  0  0
  191.5940  177.5180  143.1420 C   0  0  0  0  0  3  0  0  0  0  0  0
  188.7300  178.0020  145.6030 C   0  0  1  0  0  3  0  0  0  0  0  0
  190.8730  177.7230  144.3180 C   0  0  0  0  0  3  0  0  0  0  0  0
  181.0420  179.0040  143.8240 O   0  0  0  0  0  1  0  0  0  0  0  0
  183.1960  178.8860  142.7470 C   0  0  0  0  0  3  0  0  0  0  0  0
  187.2060  177.8680  145.4840 C   0  0  2  0  0  3  0  0  0  0  0  0
  190.9210  177.3190  141.9370 C   0  0  0  0  0  3  0  0  0  0  0  0
  188.7870  177.5390  143.0790 C   0  0  0  0  0  0  0  0  0  0  0  0
  188.8320  177.1220  140.5650 C   0  0  0  0  0  2  0  0  0  0  0  0
  189.7100  177.2550  139.3930 N   0  0  0  0  0  0  0  0  0  0  0  0
  190.9060  176.7520  136.8950 C   0  0  0  0  0  0  0  0  0  0  0  0
  188.9070  177.4370  138.1810 C   0  0  0  0  0  2  0  0  0  0  0  0
  190.5550  176.0670  139.2440 C   0  0  0  0  0  2  0  0  0  0  0  0
  191.5890  176.2830  138.1430 C   0  0  0  0  0  2  0  0  0  0  0  0
  191.2950  176.3710  135.8040 O   0  0  0  0  0  0  0  0  0  0  0  0
  189.8070  177.7660  136.9910 C   0  0  0  0  0  2  0  0  0  0  0  0
  1 19  2  0  0  0  0
  1 20  1  0  0  0  0
  2  7  1  0  0  0  0
  4 12  1  0  0  0  0
  5 11  1  6  0  0  0
  5 18  1  0  0  0  0
  6  9  2  0  0  0  0
  7  5  1  0  0  0  0
  7  4  2  0  0  0  0
  9  4  1  0  0  0  0
 10 15  1  0  0  0  0
 10 14  1  0  0  0  0
 11 20  1  0  0  0  0
 12  8  1  0  0  0  0
 13 15  2  0  0  0  0
 14  3  1  1  0  0  0
 16  6  1  0  0  0  0
 17  2  2  0  0  0  0
 17  6  1  0  0  0  0
 18 14  1  0  0  0  0
 18  8  1  1  0  0  0
 19 13  1  0  0  0  0
 20 10  2  0  0  0  0
 21  1  1  0  0  0  0
 22 21  1  0  0  0  0
 23 28  1  0  0  0  0
 23 26  1  0  0  0  0
 24 22  1  0  0  0  0
 25 22  1  0  0  0  0
 26 25  1  0  0  0  0
 27 23  2  0  0  0  0
 28 24  1  0  0  0  0
M  END
>  <MODEL>
8

>  <REMARK>
 VINA RESULT:     -10.0      1.551      2.008
  Name = 
  2 active torsions:
  status: ('A' for Active; 'I' for Inactive)
    1  A    between atoms: C_1  and  C_2
    2  A    between atoms: C_2  and  N_3
                            x       y       z     vdW  Elec       q    Type
                         _______ _______ _______ _____ _____    ______ ____

>  <TORSDO>
F 2

$$$$
=
 OpenBabel11052413273D

 28 32  0  0  1  0  0  0  0  0999 V2000
  188.0460  178.2680  139.9190 C   0  0  0  0  0  0  0  0  0  0  0  0
  190.4530  176.7710  144.2980 C   0  0  0  0  0  3  0  0  0  0  0  0
  184.7740  179.2630  143.3470 C   0  0  0  0  0  1  0  0  0  0  0  0
  188.8440  177.3680  146.0180 C   0  0  0  0  0  0  0  0  0  0  0  0
  188.1240  177.4120  143.5750 C   0  0  2  0  0  3  0  0  0  0  0  0
  191.0920  176.6950  146.6300 C   0  0  0  0  0  0  0  0  0  0  0  0
  189.1730  177.2270  144.6490 C   0  0  0  0  0  0  0  0  0  0  0  0
  186.4260  177.6120  145.3970 C   0  0  0  0  0  2  0  0  0  0  0  0
  189.8130  177.1200  146.9960 C   0  0  0  0  0  3  0  0  0  0  0  0
  186.2640  178.2810  141.5960 C   0  0  0  0  0  0  0  0  0  0  0  0
  188.6770  178.1470  142.3600 C   0  0  0  0  0  2  0  0  0  0  0  0
  187.4930  177.8590  146.4570 C   0  0  0  0  0  2  0  0  0  0  0  0
  185.7250  178.4070  139.2290 C   0  0  0  0  0  3  0  0  0  0  0  0
  185.7730  178.1600  143.0270 C   0  0  1  0  0  3  0  0  0  0  0  0
  185.3190  178.3520  140.5620 C   0  0  0  0  0  3  0  0  0  0  0  0
  192.0470  176.4480  147.6080 O   0  0  0  0  0  1  0  0  0  0  0  0
  191.4100  176.5150  145.2830 C   0  0  0  0  0  3  0  0  0  0  0  0
  186.8990  178.1850  144.0690 C   0  0  2  0  0  3  0  0  0  0  0  0
  187.0820  178.3710  138.9110 C   0  0  0  0  0  3  0  0  0  0  0  0
  187.6430  178.2150  141.2700 C   0  0  0  0  0  0  0  0  0  0  0  0
  189.5060  178.2260  139.5310 C   0  0  0  0  0  2  0  0  0  0  0  0
  189.8610  177.1370  138.6100 N   0  0  0  0  0  0  0  0  0  0  0  0
  191.2240  175.6570  136.6410 C   0  0  0  0  0  0  0  0  0  0  0  0
  191.2070  176.6420  138.9100 C   0  0  0  0  0  2  0  0  0  0  0  0
  189.8100  177.6010  137.2200 C   0  0  0  0  0  2  0  0  0  0  0  0
  189.9970  176.4280  136.2610 C   0  0  0  0  0  2  0  0  0  0  0  0
  191.9410  175.1800  135.7770 O   0  0  0  0  0  0  0  0  0  0  0  0
  191.5100  175.3910  138.0870 C   0  0  0  0  0  2  0  0  0  0  0  0
  1 20  1  0  0  0  0
  2  7  2  0  0  0  0
  2 17  1  0  0  0  0
  4 12  1  0  0  0  0
  4  9  2  0  0  0  0
  5 11  1  6  0  0  0
  5 18  1  0  0  0  0
  5  7  1  0  0  0  0
  6  9  1  0  0  0  0
  6 16  1  0  0  0  0
  7  4  1  0  0  0  0
  8 12  1  0  0  0  0
 10 14  1  0  0  0  0
 13 15  2  0  0  0  0
 14  3  1  1  0  0  0
 14 18  1  0  0  0  0
 15 10  1  0  0  0  0
 17  6  2  0  0  0  0
 18  8  1  1  0  0  0
 19 13  1  0  0  0  0
 19  1  2  0  0  0  0
 20 10  2  0  0  0  0
 20 11  1  0  0  0  0
 21  1  1  0  0  0  0
 22 24  1  0  0  0  0
 22 21  1  0  0  0  0
 23 28  1  0  0  0  0
 25 22  1  0  0  0  0
 26 23  1  0  0  0  0
 26 25  1  0  0  0  0
 27 23  2  0  0  0  0
 28 24  1  0  0  0  0
M  END
>  <MODEL>
9

>  <REMARK>
 VINA RESULT:      -9.9      2.793      5.655
  Name = 
  2 active torsions:
  status: ('A' for Active; 'I' for Inactive)
    1  A    between atoms: C_1  and  C_2
    2  A    between atoms: C_2  and  N_3
                            x       y       z     vdW  Elec       q    Type
                         _______ _______ _______ _____ _____    ______ ____

>  <TORSDO>
F 2

$$$$
