=
 OpenBabel11052412503D

 25 29  0  0  1  0  0  0  0  0999 V2000
  186.3500  178.2400  144.8720 N   0  0  0  0  0  0  0  0  0  0  0  0
  185.9410  177.6300  143.6080 C   0  0  2  0  0  3  0  0  0  0  0  0
  184.1630  179.0480  145.3150 N   0  0  0  0  0  0  0  0  0  0  0  0
  187.4830  177.8600  145.6400 C   0  0  0  0  0  0  0  0  0  0  0  0
  186.9520  178.7020  141.8700 N   0  0  0  0  0  0  0  0  0  0  0  0
  189.5500  177.1870  147.3780 C   0  0  0  0  0  3  0  0  0  0  0  0
  183.8320  178.8940  143.9240 C   0  0  0  0  0  3  0  0  0  0  0  0
  187.3790  178.1570  146.9900 C   0  0  0  0  0  0  0  0  0  0  0  0
  188.4050  177.8230  147.8760 C   0  0  0  0  0  3  0  0  0  0  0  0
  184.5700  178.3770  141.6020 C   0  0  2  0  0  0  0  0  0  0  0  0
  183.3880  177.8690  140.8840 C   0  0  0  0  0  2  0  0  0  0  0  0
  187.0000  177.5790  142.6540 O   0  0  0  0  0  0  0  0  0  0  0  0
  189.6560  176.8860  146.0110 C   0  0  0  0  0  3  0  0  0  0  0  0
  185.3580  178.7720  145.7480 C   0  0  0  0  0  0  0  0  0  0  0  0
  185.8360  178.9410  147.4700 S   0  0  0  0  0  0  0  0  0  0  0  0
  183.5660  179.2470  141.1450 O   0  0  0  0  0  0  0  0  0  0  0  0
  188.6170  177.2200  145.1310 C   0  0  0  0  0  3  0  0  0  0  0  0
  185.8870  178.5450  140.8680 C   0  0  0  0  0  2  0  0  0  0  0  0
  184.6620  178.2540  143.0860 C   0  0  0  0  0  0  0  0  0  0  0  0
  188.2380  178.8600  141.1880 C   0  0  0  0  0  2  0  0  0  0  0  0
  189.0190  177.5480  141.0500 C   0  0  2  0  0  3  0  0  0  0  0  0
  190.2190  177.6080  141.7720 O   0  0  0  0  0  1  0  0  0  0  0  0
  189.2520  177.2310  139.6360 N   0  0  0  0  0  0  0  0  0  0  0  0
  190.6010  176.7070  139.5060 C   0  0  0  0  0  1  0  0  0  0  0  0
  189.1710  178.4360  138.8170 C   0  0  0  0  0  1  0  0  0  0  0  0
  1  4  1  0  0  0  0
  1 14  1  0  0  0  0
  2 12  1  6  0  0  0
  2  1  1  0  0  0  0
  3 14  2  0  0  0  0
  4  8  1  0  0  0  0
  5 12  1  0  0  0  0
  6  9  1  0  0  0  0
  7  3  1  0  0  0  0
  8 15  1  0  0  0  0
  8  9  2  0  0  0  0
 10 18  1  6  0  0  0
 10 19  1  0  0  0  0
 11 16  1  0  0  0  0
 11 10  1  0  0  0  0
 13  6  2  0  0  0  0
 14 15  1  0  0  0  0
 16 10  1  0  0  0  0
 17  4  2  0  0  0  0
 17 13  1  0  0  0  0
 18  5  1  0  0  0  0
 19  2  1  0  0  0  0
 19  7  2  0  0  0  0
 20  5  1  0  0  0  0
 21 20  1  0  0  0  0
 21 22  1  1  0  0  0
 23 21  1  0  0  0  0
 24 23  1  0  0  0  0
 25 23  1  0  0  0  0
M  END
>  <MODEL>
1

>  <REMARK>
 VINA RESULT:      -8.4      0.000      0.000
  Name = 
  3 active torsions:
  status: ('A' for Active; 'I' for Inactive)
    1  A    between atoms: N_2  and  C_21
    2  A    between atoms: N_6  and  C_15
    3  A    between atoms: C_15  and  C_21
                            x       y       z     vdW  Elec       q    Type
                         _______ _______ _______ _____ _____    ______ ____

>  <TORSDO>
F 3

$$$$
=
 OpenBabel11052412503D

 25 29  0  0  1  0  0  0  0  0999 V2000
  188.2150  177.6660  145.2130 N   0  0  0  0  0  0  0  0  0  0  0  0
  187.3910  177.2670  144.0720 C   0  0  2  0  0  3  0  0  0  0  0  0
  186.3410  178.4870  146.4170 N   0  0  0  0  0  0  0  0  0  0  0  0
  189.4910  177.1320  145.5320 C   0  0  0  0  0  0  0  0  0  0  0  0
  187.9120  178.5420  142.2580 N   0  0  0  0  0  0  0  0  0  0  0  0
  191.9250  176.1290  146.4350 C   0  0  0  0  0  3  0  0  0  0  0  0
  185.5920  178.5530  145.1920 C   0  0  0  0  0  3  0  0  0  0  0  0
  189.8280  177.2310  146.8740 C   0  0  0  0  0  0  0  0  0  0  0  0
  191.0430  176.7300  147.3440 C   0  0  0  0  0  3  0  0  0  0  0  0
  185.5420  178.3550  142.7090 C   0  0  2  0  0  0  0  0  0  0  0  0
  184.1600  178.0060  142.3370 C   0  0  0  0  0  2  0  0  0  0  0  0
  188.1010  177.3150  142.8370 O   0  0  0  0  0  0  0  0  0  0  0  0
  191.5850  176.0280  145.0770 C   0  0  0  0  0  3  0  0  0  0  0  0
  187.5840  178.1030  146.4150 C   0  0  0  0  0  0  0  0  0  0  0  0
  188.5750  177.9960  147.9080 S   0  0  0  0  0  0  0  0  0  0  0  0
  184.5240  179.3220  142.7040 O   0  0  0  0  0  0  0  0  0  0  0  0
  190.3590  176.5290  144.6170 C   0  0  0  0  0  3  0  0  0  0  0  0
  186.5840  178.5770  141.6270 C   0  0  0  0  0  2  0  0  0  0  0  0
  186.0710  178.0110  144.0620 C   0  0  0  0  0  0  0  0  0  0  0  0
  188.9380  178.7480  141.2330 C   0  0  0  0  0  2  0  0  0  0  0  0
  189.6260  177.4500  140.7920 C   0  0  2  0  0  3  0  0  0  0  0  0
  190.9910  177.4800  141.1120 O   0  0  0  0  0  1  0  0  0  0  0  0
  189.4090  177.2120  139.3600 N   0  0  0  0  0  0  0  0  0  0  0  0
  190.6360  176.6690  138.8020 C   0  0  0  0  0  1  0  0  0  0  0  0
  189.1310  178.4640  138.6650 C   0  0  0  0  0  1  0  0  0  0  0  0
  1  4  1  0  0  0  0
  1 14  1  0  0  0  0
  2 12  1  6  0  0  0
  2  1  1  0  0  0  0
  4  8  1  0  0  0  0
  5 12  1  0  0  0  0
  6  9  1  0  0  0  0
  7  3  1  0  0  0  0
  8  9  2  0  0  0  0
  8 15  1  0  0  0  0
 10 18  1  6  0  0  0
 10 19  1  0  0  0  0
 11 16  1  0  0  0  0
 11 10  1  0  0  0  0
 13  6  2  0  0  0  0
 14  3  2  0  0  0  0
 14 15  1  0  0  0  0
 16 10  1  0  0  0  0
 17 13  1  0  0  0  0
 17  4  2  0  0  0  0
 18  5  1  0  0  0  0
 19  2  1  0  0  0  0
 19  7  2  0  0  0  0
 20  5  1  0  0  0  0
 21 22  1  6  0  0  0
 21 20  1  0  0  0  0
 23 21  1  0  0  0  0
 24 23  1  0  0  0  0
 25 23  1  0  0  0  0
M  END
>  <MODEL>
2

>  <REMARK>
 VINA RESULT:      -8.4      1.366      1.853
  Name = 
  3 active torsions:
  status: ('A' for Active; 'I' for Inactive)
    1  A    between atoms: N_2  and  C_21
    2  A    between atoms: N_6  and  C_15
    3  A    between atoms: C_15  and  C_21
                            x       y       z     vdW  Elec       q    Type
                         _______ _______ _______ _____ _____    ______ ____

>  <TORSDO>
F 3

$$$$
=
 OpenBabel11052412503D

 25 29  0  0  1  0  0  0  0  0999 V2000
  187.1720  178.1350  142.7030 N   0  0  0  0  0  0  0  0  0  0  0  0
  188.2160  177.1900  142.3070 C   0  0  2  0  0  3  0  0  0  0  0  0
  186.6690  178.6900  140.4510 N   0  0  0  0  0  0  0  0  0  0  0  0
  186.4750  178.1190  143.9400 C   0  0  0  0  0  0  0  0  0  0  0  0
  190.2510  177.9600  142.9820 N   0  0  0  0  0  0  0  0  0  0  0  0
  184.8800  178.1900  146.2200 C   0  0  0  0  0  3  0  0  0  0  0  0
  187.9450  178.1650  140.0440 C   0  0  0  0  0  3  0  0  0  0  0  0
  185.2200  178.7070  143.8920 C   0  0  0  0  0  0  0  0  0  0  0  0
  184.4060  178.7490  145.0250 C   0  0  0  0  0  3  0  0  0  0  0  0
  190.1650  177.2300  140.6770 C   0  0  2  0  0  0  0  0  0  0  0  0
  190.6140  176.3970  139.5480 C   0  0  0  0  0  2  0  0  0  0  0  0
  189.2500  177.0730  143.2820 O   0  0  0  0  0  0  0  0  0  0  0  0
  186.1510  177.5940  146.2700 C   0  0  0  0  0  3  0  0  0  0  0  0
  186.3270  178.7050  141.7050 C   0  0  0  0  0  0  0  0  0  0  0  0
  184.7510  179.3440  142.2800 S   0  0  0  0  0  0  0  0  0  0  0  0
  190.6840  177.8090  139.5070 O   0  0  0  0  0  0  0  0  0  0  0  0
  186.9570  177.5530  145.1240 C   0  0  0  0  0  3  0  0  0  0  0  0
  191.0650  177.4140  141.8850 C   0  0  0  0  0  2  0  0  0  0  0  0
  188.7110  177.4760  140.9040 C   0  0  0  0  0  0  0  0  0  0  0  0
  191.0950  178.1420  144.1660 C   0  0  0  0  0  2  0  0  0  0  0  0
  190.7770  177.1560  145.2960 C   0  0  2  0  0  3  0  0  0  0  0  0
  190.2340  177.8280  146.4010 O   0  0  0  0  0  1  0  0  0  0  0  0
  191.9730  176.3880  145.6630 N   0  0  0  0  0  0  0  0  0  0  0  0
  192.0210  175.2010  144.8270 C   0  0  0  0  0  1  0  0  0  0  0  0
  191.8940  175.9410  147.0490 C   0  0  0  0  0  1  0  0  0  0  0  0
  1  4  1  0  0  0  0
  2 19  1  6  0  0  0
  2  1  1  0  0  0  0
  2 12  1  0  0  0  0
  3 14  2  0  0  0  0
  4 17  1  0  0  0  0
  5 12  1  0  0  0  0
  5 20  1  0  0  0  0
  6 13  1  0  0  0  0
  7  3  1  0  0  0  0
  7 19  2  0  0  0  0
  8  4  2  0  0  0  0
  8  9  1  0  0  0  0
  9  6  2  0  0  0  0
 10 11  1  6  0  0  0
 10 19  1  0  0  0  0
 10 18  1  0  0  0  0
 14 15  1  0  0  0  0
 14  1  1  0  0  0  0
 15  8  1  0  0  0  0
 16 11  1  0  0  0  0
 16 10  1  0  0  0  0
 17 13  2  0  0  0  0
 18  5  1  0  0  0  0
 20 21  1  0  0  0  0
 21 23  1  0  0  0  0
 21 22  1  1  0  0  0
 23 25  1  0  0  0  0
 24 23  1  0  0  0  0
M  END
>  <MODEL>
3

>  <REMARK>
 VINA RESULT:      -8.3      2.501      5.048
  Name = 
  3 active torsions:
  status: ('A' for Active; 'I' for Inactive)
    1  A    between atoms: N_2  and  C_21
    2  A    between atoms: N_6  and  C_15
    3  A    between atoms: C_15  and  C_21
                            x       y       z     vdW  Elec       q    Type
                         _______ _______ _______ _____ _____    ______ ____

>  <TORSDO>
F 3

$$$$
=
 OpenBabel11052412503D

 25 29  0  0  1  0  0  0  0  0999 V2000
  187.5440  177.9560  142.0470 N   0  0  0  0  0  0  0  0  0  0  0  0
  188.5110  176.9910  141.5230 C   0  0  2  0  0  3  0  0  0  0  0  0
  186.8200  178.5740  139.8730 N   0  0  0  0  0  0  0  0  0  0  0  0
  186.9840  177.9330  143.3520 C   0  0  0  0  0  0  0  0  0  0  0  0
  190.6290  177.6880  141.9890 N   0  0  0  0  0  0  0  0  0  0  0  0
  185.6460  177.9990  145.7920 C   0  0  0  0  0  3  0  0  0  0  0  0
  188.0280  178.0230  139.3220 C   0  0  0  0  0  3  0  0  0  0  0  0
  185.7500  178.5570  143.4500 C   0  0  0  0  0  0  0  0  0  0  0  0
  185.0640  178.5960  144.6650 C   0  0  0  0  0  3  0  0  0  0  0  0
  190.2740  177.0120  139.6940 C   0  0  2  0  0  0  0  0  0  0  0  0
  190.5740  176.1910  138.5070 C   0  0  0  0  0  2  0  0  0  0  0  0
  189.6400  176.8240  142.3780 O   0  0  0  0  0  0  0  0  0  0  0  0
  186.8960  177.3660  145.6930 C   0  0  0  0  0  3  0  0  0  0  0  0
  186.6150  178.5720  141.1570 C   0  0  0  0  0  0  0  0  0  0  0  0
  185.1300  179.2420  141.9110 S   0  0  0  0  0  0  0  0  0  0  0  0
  190.6820  177.6010  138.4860 O   0  0  0  0  0  0  0  0  0  0  0  0
  187.5730  177.3270  144.4660 C   0  0  0  0  0  3  0  0  0  0  0  0
  191.3040  177.1440  140.8010 C   0  0  0  0  0  2  0  0  0  0  0  0
  188.8610  177.2940  140.0800 C   0  0  0  0  0  0  0  0  0  0  0  0
  191.6000  177.8200  143.0780 C   0  0  0  0  0  2  0  0  0  0  0  0
  190.9680  178.2510  144.4070 C   0  0  2  0  0  3  0  0  0  0  0  0
  191.1260  179.6300  144.6060 O   0  0  0  0  0  1  0  0  0  0  0  0
  191.5280  177.4750  145.5200 N   0  0  0  0  0  0  0  0  0  0  0  0
  191.8510  176.1470  145.0280 C   0  0  0  0  0  1  0  0  0  0  0  0
  190.5440  177.3160  146.5850 C   0  0  0  0  0  1  0  0  0  0  0  0
  1  4  1  0  0  0  0
  2 19  1  6  0  0  0
  2  1  1  0  0  0  0
  2 12  1  0  0  0  0
  3 14  2  0  0  0  0
  4  8  2  0  0  0  0
  4 17  1  0  0  0  0
  5 12  1  0  0  0  0
  5 20  1  0  0  0  0
  7  3  1  0  0  0  0
  7 19  2  0  0  0  0
  8  9  1  0  0  0  0
  9  6  2  0  0  0  0
 10 11  1  6  0  0  0
 10 19  1  0  0  0  0
 10 18  1  0  0  0  0
 13  6  1  0  0  0  0
 14 15  1  0  0  0  0
 14  1  1  0  0  0  0
 15  8  1  0  0  0  0
 16 11  1  0  0  0  0
 16 10  1  0  0  0  0
 17 13  2  0  0  0  0
 18  5  1  0  0  0  0
 20 21  1  0  0  0  0
 21 22  1  1  0  0  0
 21 23  1  0  0  0  0
 23 25  1  0  0  0  0
 24 23  1  0  0  0  0
M  END
>  <MODEL>
4

>  <REMARK>
 VINA RESULT:      -7.8      2.584      5.068
  Name = 
  3 active torsions:
  status: ('A' for Active; 'I' for Inactive)
    1  A    between atoms: N_2  and  C_21
    2  A    between atoms: N_6  and  C_15
    3  A    between atoms: C_15  and  C_21
                            x       y       z     vdW  Elec       q    Type
                         _______ _______ _______ _____ _____    ______ ____

>  <TORSDO>
F 3

$$$$
=
 OpenBabel11052412503D

 25 29  0  0  1  0  0  0  0  0999 V2000
  185.4110  178.4040  144.2700 N   0  0  0  0  0  0  0  0  0  0  0  0
  186.6970  178.7200  144.8920 C   0  0  2  0  0  3  0  0  0  0  0  0
  184.2650  178.4780  146.3470 N   0  0  0  0  0  0  0  0  0  0  0  0
  185.0840  178.6180  142.9050 C   0  0  0  0  0  0  0  0  0  0  0  0
  188.1000  176.9340  144.7120 N   0  0  0  0  0  0  0  0  0  0  0  0
  184.1720  179.0860  140.3170 C   0  0  0  0  0  3  0  0  0  0  0  0
  185.5180  178.3200  147.0360 C   0  0  0  0  0  3  0  0  0  0  0  0
  183.7260  178.7700  142.6640 C   0  0  0  0  0  0  0  0  0  0  0  0
  183.2520  179.0090  141.3730 C   0  0  0  0  0  3  0  0  0  0  0  0
  187.9690  177.8910  146.9300 C   0  0  2  0  0  0  0  0  0  0  0  0
  188.5620  178.5120  148.1280 C   0  0  0  0  0  2  0  0  0  0  0  0
  187.8020  178.1630  144.1840 O   0  0  0  0  0  0  0  0  0  0  0  0
  185.5460  178.9330  140.5600 C   0  0  0  0  0  3  0  0  0  0  0  0
  184.2180  178.4820  145.0480 C   0  0  0  0  0  0  0  0  0  0  0  0
  182.6890  178.6770  144.1270 S   0  0  0  0  0  0  0  0  0  0  0  0
  187.8640  177.2830  148.1920 O   0  0  0  0  0  0  0  0  0  0  0  0
  186.0110  178.7000  141.8620 C   0  0  0  0  0  3  0  0  0  0  0  0
  188.8490  177.1190  145.9650 C   0  0  0  0  0  2  0  0  0  0  0  0
  186.6820  178.4010  146.3740 C   0  0  0  0  0  0  0  0  0  0  0  0
  188.9310  176.1960  143.7580 C   0  0  0  0  0  2  0  0  0  0  0  0
  189.6220  177.0970  142.7280 C   0  0  2  0  0  3  0  0  0  0  0  0
  189.2330  176.7490  141.4260 O   0  0  0  0  0  1  0  0  0  0  0  0
  191.0800  177.0450  142.8910 N   0  0  0  0  0  0  0  0  0  0  0  0
  191.4050  175.8580  143.6630 C   0  0  0  0  0  1  0  0  0  0  0  0
  191.5560  178.1990  143.6460 C   0  0  0  0  0  1  0  0  0  0  0  0
  1  2  1  0  0  0  0
  1 14  1  0  0  0  0
  2 12  1  6  0  0  0
  2 19  1  0  0  0  0
  3  7  1  0  0  0  0
  4  1  1  0  0  0  0
  5 18  1  0  0  0  0
  6 13  2  0  0  0  0
  6  9  1  0  0  0  0
  8  4  1  0  0  0  0
  8 15  1  0  0  0  0
  9  8  2  0  0  0  0
 10 18  1  6  0  0  0
 10 11  1  0  0  0  0
 10 16  1  0  0  0  0
 11 16  1  0  0  0  0
 12  5  1  0  0  0  0
 13 17  1  0  0  0  0
 14  3  2  0  0  0  0
 15 14  1  0  0  0  0
 17  4  2  0  0  0  0
 19 10  1  0  0  0  0
 19  7  2  0  0  0  0
 20  5  1  0  0  0  0
 21 22  1  6  0  0  0
 21 23  1  0  0  0  0
 21 20  1  0  0  0  0
 23 25  1  0  0  0  0
 23 24  1  0  0  0  0
M  END
>  <MODEL>
5

>  <REMARK>
 VINA RESULT:      -7.6      2.303      5.106
  Name = 
  3 active torsions:
  status: ('A' for Active; 'I' for Inactive)
    1  A    between atoms: N_2  and  C_21
    2  A    between atoms: N_6  and  C_15
    3  A    between atoms: C_15  and  C_21
                            x       y       z     vdW  Elec       q    Type
                         _______ _______ _______ _____ _____    ______ ____

>  <TORSDO>
F 3

$$$$
=
 OpenBabel11052412503D

 25 29  0  0  1  0  0  0  0  0999 V2000
  187.4330  177.9990  139.7950 N   0  0  0  0  0  0  0  0  0  0  0  0
  187.3280  178.6620  141.0940 C   0  0  2  0  0  3  0  0  0  0  0  0
  185.2830  178.7430  139.1200 N   0  0  0  0  0  0  0  0  0  0  0  0
  188.6470  177.6370  139.1520 C   0  0  0  0  0  0  0  0  0  0  0  0
  187.2510  177.1020  142.7530 N   0  0  0  0  0  0  0  0  0  0  0  0
  190.8910  176.9800  137.6430 C   0  0  0  0  0  3  0  0  0  0  0  0
  184.9460  178.9930  140.4950 C   0  0  0  0  0  3  0  0  0  0  0  0
  188.5510  177.5420  137.7720 C   0  0  0  0  0  0  0  0  0  0  0  0
  189.6680  177.2170  137.0000 C   0  0  0  0  0  3  0  0  0  0  0  0
  185.5510  178.8170  142.9050 C   0  0  2  0  0  0  0  0  0  0  0  0
  184.8470  179.9070  143.6010 C   0  0  0  0  0  2  0  0  0  0  0  0
  188.0700  177.9950  142.1140 O   0  0  0  0  0  0  0  0  0  0  0  0
  190.9890  177.0760  139.0400 C   0  0  0  0  0  3  0  0  0  0  0  0
  186.4400  178.2430  138.8010 C   0  0  0  0  0  0  0  0  0  0  0  0
  186.9260  177.9080  137.1050 S   0  0  0  0  0  0  0  0  0  0  0  0
  184.1780  178.7310  143.1900 O   0  0  0  0  0  0  0  0  0  0  0  0
  189.8620  177.4100  139.8050 C   0  0  0  0  0  3  0  0  0  0  0  0
  186.3890  177.8300  143.6970 C   0  0  0  0  0  2  0  0  0  0  0  0
  185.8820  178.9360  141.4550 C   0  0  0  0  0  0  0  0  0  0  0  0
  188.0770  176.1450  143.4930 C   0  0  0  0  0  2  0  0  0  0  0  0
  189.5770  176.4550  143.4230 C   0  0  2  0  0  3  0  0  0  0  0  0
  190.2670  175.4180  142.7790 O   0  0  0  0  0  1  0  0  0  0  0  0
  190.1150  176.7140  144.7640 N   0  0  0  0  0  0  0  0  0  0  0  0
  189.8790  178.1110  145.0830 C   0  0  0  0  0  1  0  0  0  0  0  0
  191.5570  176.4970  144.7930 C   0  0  0  0  0  1  0  0  0  0  0  0
  1  2  1  0  0  0  0
  2 19  1  1  0  0  0
  2 12  1  0  0  0  0
  3  7  1  0  0  0  0
  4  1  1  0  0  0  0
  4 17  1  0  0  0  0
  5 20  1  0  0  0  0
  5 18  1  0  0  0  0
  6 13  1  0  0  0  0
  7 19  2  0  0  0  0
  8  4  2  0  0  0  0
  9  6  2  0  0  0  0
  9  8  1  0  0  0  0
 10 16  1  0  0  0  0
 10 11  1  1  0  0  0
 10 18  1  0  0  0  0
 12  5  1  0  0  0  0
 13 17  2  0  0  0  0
 14  3  2  0  0  0  0
 14  1  1  0  0  0  0
 15  8  1  0  0  0  0
 15 14  1  0  0  0  0
 16 11  1  0  0  0  0
 19 10  1  0  0  0  0
 21 22  1  1  0  0  0
 21 20  1  0  0  0  0
 21 23  1  0  0  0  0
 23 25  1  0  0  0  0
 23 24  1  0  0  0  0
M  END
>  <MODEL>
6

>  <REMARK>
 VINA RESULT:      -7.4      2.907      5.822
  Name = 
  3 active torsions:
  status: ('A' for Active; 'I' for Inactive)
    1  A    between atoms: N_2  and  C_21
    2  A    between atoms: N_6  and  C_15
    3  A    between atoms: C_15  and  C_21
                            x       y       z     vdW  Elec       q    Type
                         _______ _______ _______ _____ _____    ______ ____

>  <TORSDO>
F 3

$$$$
=
 OpenBabel11052412503D

 25 29  0  0  1  0  0  0  0  0999 V2000
  188.6520  177.9030  143.9500 N   0  0  0  0  0  0  0  0  0  0  0  0
  187.3160  177.4740  144.3630 C   0  0  2  0  0  3  0  0  0  0  0  0
  189.3910  178.1320  146.1930 N   0  0  0  0  0  0  0  0  0  0  0  0
  189.2500  177.6300  142.6910 C   0  0  0  0  0  0  0  0  0  0  0  0
  185.7810  179.0480  143.7660 N   0  0  0  0  0  0  0  0  0  0  0  0
  190.6750  177.0860  140.3630 C   0  0  0  0  0  3  0  0  0  0  0  0
  188.0230  178.1820  146.6320 C   0  0  0  0  0  3  0  0  0  0  0  0
  190.6370  177.6340  142.7090 C   0  0  0  0  0  0  0  0  0  0  0  0
  191.3670  177.3600  141.5510 C   0  0  0  0  0  3  0  0  0  0  0  0
  185.6020  178.2860  146.0550 C   0  0  2  0  0  0  0  0  0  0  0  0
  184.8690  177.6880  147.1840 C   0  0  0  0  0  2  0  0  0  0  0  0
  186.3080  177.8310  143.4200 O   0  0  0  0  0  0  0  0  0  0  0  0
  189.2710  177.0820  140.3430 C   0  0  0  0  0  3  0  0  0  0  0  0
  189.6800  178.0370  144.9290 C   0  0  0  0  0  0  0  0  0  0  0  0
  191.3660  177.9690  144.3150 S   0  0  0  0  0  0  0  0  0  0  0  0
  185.4010  178.9970  147.2490 O   0  0  0  0  0  0  0  0  0  0  0  0
  188.5480  177.3520  141.5140 C   0  0  0  0  0  3  0  0  0  0  0  0
  184.8370  178.8650  144.8790 C   0  0  0  0  0  2  0  0  0  0  0  0
  187.0190  177.9030  145.7860 C   0  0  0  0  0  0  0  0  0  0  0  0
  185.0660  179.6010  142.6120 C   0  0  0  0  0  2  0  0  0  0  0  0
  185.0910  178.6830  141.3840 C   0  0  2  0  0  3  0  0  0  0  0  0
  185.3980  179.4130  140.2270 O   0  0  0  0  0  1  0  0  0  0  0  0
  183.8180  177.9640  141.2510 N   0  0  0  0  0  0  0  0  0  0  0  0
  183.5150  177.8410  139.8360 C   0  0  0  0  0  1  0  0  0  0  0  0
  182.7330  178.7190  141.8660 C   0  0  0  0  0  1  0  0  0  0  0  0
  1  2  1  0  0  0  0
  1 14  1  0  0  0  0
  2 12  1  6  0  0  0
  2 19  1  0  0  0  0
  3  7  1  0  0  0  0
  4  8  1  0  0  0  0
  4  1  1  0  0  0  0
  5 18  1  0  0  0  0
  6  9  1  0  0  0  0
  8 15  1  0  0  0  0
  9  8  2  0  0  0  0
 10 18  1  6  0  0  0
 10 11  1  0  0  0  0
 10 16  1  0  0  0  0
 11 16  1  0  0  0  0
 12  5  1  0  0  0  0
 13  6  2  0  0  0  0
 13 17  1  0  0  0  0
 14  3  2  0  0  0  0
 15 14  1  0  0  0  0
 17  4  2  0  0  0  0
 19 10  1  0  0  0  0
 19  7  2  0  0  0  0
 20  5  1  0  0  0  0
 21 22  1  6  0  0  0
 21 20  1  0  0  0  0
 23 21  1  0  0  0  0
 23 25  1  0  0  0  0
 24 23  1  0  0  0  0
M  END
>  <MODEL>
7

>  <REMARK>
 VINA RESULT:      -7.4      2.310      5.075
  Name = 
  3 active torsions:
  status: ('A' for Active; 'I' for Inactive)
    1  A    between atoms: N_2  and  C_21
    2  A    between atoms: N_6  and  C_15
    3  A    between atoms: C_15  and  C_21
                            x       y       z     vdW  Elec       q    Type
                         _______ _______ _______ _____ _____    ______ ____

>  <TORSDO>
F 3

$$$$
=
 OpenBabel11052412503D

 25 29  0  0  1  0  0  0  0  0999 V2000
  186.9630  178.0150  142.0310 N   0  0  0  0  0  0  0  0  0  0  0  0
  187.1300  178.7650  140.7870 C   0  0  2  0  0  3  0  0  0  0  0  0
  189.1160  177.0320  141.8550 N   0  0  0  0  0  0  0  0  0  0  0  0
  186.0670  178.3530  143.0800 C   0  0  0  0  0  0  0  0  0  0  0  0
  185.6680  177.9950  139.2180 N   0  0  0  0  0  0  0  0  0  0  0  0
  184.5060  178.9020  145.3180 C   0  0  0  0  0  3  0  0  0  0  0  0
  189.1400  177.3520  140.4540 C   0  0  0  0  0  3  0  0  0  0  0  0
  186.4450  177.8710  144.3250 C   0  0  0  0  0  0  0  0  0  0  0  0
  185.6750  178.1410  145.4580 C   0  0  0  0  0  3  0  0  0  0  0  0
  187.9500  178.2180  138.4440 C   0  0  2  0  0  0  0  0  0  0  0  0
  188.9800  178.7500  137.5350 C   0  0  0  0  0  2  0  0  0  0  0  0
  185.8940  179.0040  140.1180 O   0  0  0  0  0  0  0  0  0  0  0  0
  184.1230  179.3900  144.0580 C   0  0  0  0  0  3  0  0  0  0  0  0
  188.0760  177.3140  142.5830 C   0  0  0  0  0  0  0  0  0  0  0  0
  187.9820  176.9440  144.3370 S   0  0  0  0  0  0  0  0  0  0  0  0
  188.7470  177.3610  137.6670 O   0  0  0  0  0  0  0  0  0  0  0  0
  184.9080  179.1190  142.9280 C   0  0  0  0  0  3  0  0  0  0  0  0
  186.4920  178.2240  138.0210 C   0  0  0  0  0  2  0  0  0  0  0  0
  188.2020  178.1450  139.9130 C   0  0  0  0  0  0  0  0  0  0  0  0
  184.2530  178.0030  138.8400 C   0  0  0  0  0  2  0  0  0  0  0  0
  183.3080  177.7100  140.0110 C   0  0  2  0  0  3  0  0  0  0  0  0
  182.6270  176.5020  139.8070 O   0  0  0  0  0  1  0  0  0  0  0  0
  182.3800  178.8280  140.2180 N   0  0  0  0  0  0  0  0  0  0  0  0
  181.4080  178.4290  141.2220 C   0  0  0  0  0  1  0  0  0  0  0  0
  181.6450  179.1210  138.9930 C   0  0  0  0  0  1  0  0  0  0  0  0
  1 14  1  0  0  0  0
  1  4  1  0  0  0  0
  2 19  1  6  0  0  0
  2  1  1  0  0  0  0
  3 14  2  0  0  0  0
  4  8  1  0  0  0  0
  5 12  1  0  0  0  0
  6  9  1  0  0  0  0
  7  3  1  0  0  0  0
  8 15  1  0  0  0  0
  8  9  2  0  0  0  0
 10 11  1  6  0  0  0
 10 19  1  0  0  0  0
 11 16  1  0  0  0  0
 12  2  1  0  0  0  0
 13  6  2  0  0  0  0
 14 15  1  0  0  0  0
 16 10  1  0  0  0  0
 17  4  2  0  0  0  0
 17 13  1  0  0  0  0
 18 10  1  0  0  0  0
 18  5  1  0  0  0  0
 19  7  2  0  0  0  0
 20  5  1  0  0  0  0
 20 21  1  0  0  0  0
 21 22  1  6  0  0  0
 21 23  1  0  0  0  0
 23 24  1  0  0  0  0
 25 23  1  0  0  0  0
M  END
>  <MODEL>
8

>  <REMARK>
 VINA RESULT:      -7.3      2.550      5.439
  Name = 
  3 active torsions:
  status: ('A' for Active; 'I' for Inactive)
    1  A    between atoms: N_2  and  C_21
    2  A    between atoms: N_6  and  C_15
    3  A    between atoms: C_15  and  C_21
                            x       y       z     vdW  Elec       q    Type
                         _______ _______ _______ _____ _____    ______ ____

>  <TORSDO>
F 3

$$$$
=
 OpenBabel11052412503D

 25 29  0  0  1  0  0  0  0  0999 V2000
  184.1290  178.6130  142.4470 N   0  0  0  0  0  0  0  0  0  0  0  0
  185.1590  179.1030  143.3630 C   0  0  2  0  0  3  0  0  0  0  0  0
  182.4120  178.8710  144.0650 N   0  0  0  0  0  0  0  0  0  0  0  0
  184.2190  178.6220  141.0290 C   0  0  0  0  0  0  0  0  0  0  0  0
  186.6100  177.4200  143.8640 N   0  0  0  0  0  0  0  0  0  0  0  0
  184.1080  178.6790  138.2490 C   0  0  0  0  0  3  0  0  0  0  0  0
  183.4060  178.8980  145.1040 C   0  0  0  0  0  3  0  0  0  0  0  0
  182.9910  178.6390  140.3840 C   0  0  0  0  0  0  0  0  0  0  0  0
  182.9180  178.6710  138.9900 C   0  0  0  0  0  3  0  0  0  0  0  0
  185.7900  178.6450  145.7820 C   0  0  2  0  0  0  0  0  0  0  0  0
  185.9750  179.4590  146.9960 C   0  0  0  0  0  2  0  0  0  0  0  0
  186.4430  178.5430  143.0970 O   0  0  0  0  0  0  0  0  0  0  0  0
  185.3510  178.6620  138.9020 C   0  0  0  0  0  3  0  0  0  0  0  0
  182.7560  178.7010  142.8220 C   0  0  0  0  0  0  0  0  0  0  0  0
  181.5680  178.6590  141.4770 S   0  0  0  0  0  0  0  0  0  0  0  0
  185.3320  178.2000  147.0330 O   0  0  0  0  0  0  0  0  0  0  0  0
  185.4130  178.6360  140.3020 C   0  0  0  0  0  3  0  0  0  0  0  0
  186.9430  177.8210  145.2400 C   0  0  0  0  0  2  0  0  0  0  0  0
  184.7120  178.9800  144.8060 C   0  0  0  0  0  0  0  0  0  0  0  0
  187.7120  176.6270  143.3130 C   0  0  0  0  0  2  0  0  0  0  0  0
  188.7440  177.4680  142.5520 C   0  0  2  0  0  3  0  0  0  0  0  0
  188.7500  177.1320  141.1910 O   0  0  0  0  0  1  0  0  0  0  0  0
  190.0750  177.3190  143.1540 N   0  0  0  0  0  0  0  0  0  0  0  0
  190.3220  178.4770  143.9960 C   0  0  0  0  0  1  0  0  0  0  0  0
  191.1080  177.3010  142.1240 C   0  0  0  0  0  1  0  0  0  0  0  0
  1 14  1  0  0  0  0
  1  2  1  0  0  0  0
  2 12  1  1  0  0  0
  2 19  1  0  0  0  0
  3  7  1  0  0  0  0
  4  1  1  0  0  0  0
  5 18  1  0  0  0  0
  6 13  2  0  0  0  0
  6  9  1  0  0  0  0
  8  4  1  0  0  0  0
  8 15  1  0  0  0  0
  9  8  2  0  0  0  0
 10 18  1  6  0  0  0
 10 11  1  0  0  0  0
 10 16  1  0  0  0  0
 11 16  1  0  0  0  0
 12  5  1  0  0  0  0
 13 17  1  0  0  0  0
 14  3  2  0  0  0  0
 15 14  1  0  0  0  0
 17  4  2  0  0  0  0
 19  7  2  0  0  0  0
 19 10  1  0  0  0  0
 20  5  1  0  0  0  0
 21 22  1  6  0  0  0
 21 23  1  0  0  0  0
 21 20  1  0  0  0  0
 23 24  1  0  0  0  0
 25 23  1  0  0  0  0
M  END
>  <MODEL>
9

>  <REMARK>
 VINA RESULT:      -7.2      2.587      5.371
  Name = 
  3 active torsions:
  status: ('A' for Active; 'I' for Inactive)
    1  A    between atoms: N_2  and  C_21
    2  A    between atoms: N_6  and  C_15
    3  A    between atoms: C_15  and  C_21
                            x       y       z     vdW  Elec       q    Type
                         _______ _______ _______ _____ _____    ______ ____

>  <TORSDO>
F 3

$$$$
