=
 OpenBabel11052416483D

 32 36  0  0  1  0  0  0  0  0999 V2000
  193.5640  177.3250  139.0340 C   0  0  0  0  0  3  0  0  0  0  0  0
  188.5050  177.1460  141.1590 C   0  0  0  0  0  3  0  0  0  0  0  0
  191.4200  176.9000  146.3900 C   0  0  0  0  0  3  0  0  0  0  0  0
  190.1070  176.7400  146.8830 C   0  0  0  0  0  3  0  0  0  0  0  0
  190.5670  176.7130  139.7950 C   0  0  0  0  0  0  0  0  0  0  0  0
  191.5500  177.4220  141.9290 N   0  0  0  0  0  0  0  0  0  0  0  0
  192.8630  177.8410  140.0380 C   0  0  0  0  0  3  0  0  0  0  0  0
  191.6580  177.0190  145.0090 C   0  0  0  0  0  3  0  0  0  0  0  0
  190.4660  177.0650  142.7890 C   0  0  0  0  0  0  0  0  0  0  0  0
  190.5550  176.9630  144.1600 C   0  0  0  0  0  0  0  0  0  0  0  0
  188.3880  176.8440  143.6210 N   0  0  0  0  0  0  0  0  0  0  0  0
  192.0970  175.5260  138.1620 C   0  0  0  0  0  3  0  0  0  0  0  0
  191.6440  177.2920  140.6390 C   0  0  0  0  0  0  0  0  0  0  0  0
  190.8100  175.9610  138.7220 C   0  0  0  0  0  3  0  0  0  0  0  0
  193.3070  176.0780  138.3010 C   0  0  0  0  0  0  0  0  0  0  0  0
  189.0110  176.7000  146.0000 C   0  0  0  0  0  3  0  0  0  0  0  0
  189.2760  176.8150  144.6350 C   0  0  0  0  0  0  0  0  0  0  0  0
  189.1420  177.0120  140.0010 C   0  0  0  0  0  3  0  0  0  0  0  0
  189.1120  177.0000  142.4830 C   0  0  0  0  0  0  0  0  0  0  0  0
  195.4290  174.6270  138.1570 C   0  0  0  0  0  0  0  0  0  0  0  0
  194.4340  175.5100  137.6170 N   0  0  0  0  0  2  0  0  0  0  0  0
  195.4160  174.2850  139.3680 O   0  0  0  0  0  0  0  0  0  0  0  0
  196.7190  174.0090  137.0880 S   0  0  0  0  0  1  0  0  0  0  0  0
  186.9350  176.7630  143.7300 C   0  0  0  0  0  2  0  0  0  0  0  0
  184.5810  177.9940  142.8210 O   0  0  0  0  0  1  0  0  0  0  0  0
  184.5870  179.7070  144.5410 C   0  0  2  0  0  3  0  0  0  0  0  0
  186.3830  177.9920  144.4440 C   0  0  2  0  0  3  0  0  0  0  0  0
  185.6510  178.7950  146.4380 C   0  0  0  0  0  2  0  0  0  0  0  0
  185.2950  179.9880  145.7350 O   0  0  0  0  0  0  0  0  0  0  0  0
  183.1780  179.1940  144.8400 C   0  0  0  0  0  1  0  0  0  0  0  0
  185.7460  177.6280  145.6360 O   0  0  0  0  0  0  0  0  0  0  0  0
  185.4120  178.8140  143.5940 C   0  0  1  0  0  3  0  0  0  0  0  0
  1  7  1  0  0  0  0
  2 19  2  0  0  0  0
  3  4  1  0  0  0  0
  5 18  2  0  0  0  0
  5 13  1  0  0  0  0
  6  9  2  0  0  0  0
  7 13  2  0  0  0  0
  8  3  2  0  0  0  0
  9 10  1  0  0  0  0
 10 17  2  0  0  0  0
 10  8  1  0  0  0  0
 11 24  1  0  0  0  0
 11 17  1  0  0  0  0
 12 15  1  0  0  0  0
 12 14  2  0  0  0  0
 13  6  1  0  0  0  0
 14  5  1  0  0  0  0
 15  1  2  0  0  0  0
 16  4  2  0  0  0  0
 17 16  1  0  0  0  0
 18  2  1  0  0  0  0
 19  9  1  0  0  0  0
 19 11  1  0  0  0  0
 20 22  2  0  0  0  0
 21 20  1  0  0  0  0
 21 15  1  0  0  0  0
 23 20  1  0  0  0  0
 26 30  1  1  0  0  0
 26 29  1  0  0  0  0
 27 24  1  6  0  0  0
 27 31  1  0  0  0  0
 29 28  1  0  0  0  0
 31 28  1  0  0  0  0
 32 25  1  1  0  0  0
 32 27  1  0  0  0  0
 32 26  1  0  0  0  0
M  END
>  <MODEL>
1

>  <REMARK>
 VINA RESULT:      -8.7      0.000      0.000
  Name = 
  3 active torsions:
  status: ('A' for Active; 'I' for Inactive)
    1  A    between atoms: N_10  and  C_24
    2  A    between atoms: C_11  and  C_27
    3  A    between atoms: N_16  and  C_27
                            x       y       z     vdW  Elec       q    Type
                         _______ _______ _______ _____ _____    ______ ____

>  <TORSDO>
F 3

$$$$
=
 OpenBabel11052416483D

 32 36  0  0  1  0  0  0  0  0999 V2000
  193.0960  176.4610  138.9520 C   0  0  0  0  0  3  0  0  0  0  0  0
  188.2240  178.8370  139.8190 C   0  0  0  0  0  3  0  0  0  0  0  0
  188.9960  176.8680  145.4260 C   0  0  0  0  0  3  0  0  0  0  0  0
  187.6930  177.3900  145.5730 C   0  0  0  0  0  3  0  0  0  0  0  0
  190.1070  177.4610  138.8930 C   0  0  0  0  0  0  0  0  0  0  0  0
  190.6460  177.4540  141.2880 N   0  0  0  0  0  0  0  0  0  0  0  0
  192.4790  177.2190  139.8530 C   0  0  0  0  0  3  0  0  0  0  0  0
  189.6490  176.9100  144.1810 C   0  0  0  0  0  3  0  0  0  0  0  0
  189.3300  177.6740  141.8010 C   0  0  0  0  0  0  0  0  0  0  0  0
  188.9580  177.4760  143.1120 C   0  0  0  0  0  0  0  0  0  0  0  0
  187.2690  178.5250  142.0890 N   0  0  0  0  0  0  0  0  0  0  0  0
  191.2640  175.7290  137.4510 C   0  0  0  0  0  3  0  0  0  0  0  0
  191.0330  177.3560  140.0510 C   0  0  0  0  0  0  0  0  0  0  0  0
  190.2520  176.7430  137.7800 C   0  0  0  0  0  3  0  0  0  0  0  0
  192.4900  175.5650  137.9580 C   0  0  0  0  0  0  0  0  0  0  0  0
  187.0250  177.9670  144.4770 C   0  0  0  0  0  3  0  0  0  0  0  0
  187.6940  177.9910  143.2510 C   0  0  0  0  0  0  0  0  0  0  0  0
  189.0180  178.4470  138.8280 C   0  0  0  0  0  3  0  0  0  0  0  0
  188.2700  178.3350  141.1930 C   0  0  0  0  0  0  0  0  0  0  0  0
  194.5880  174.6810  136.7580 C   0  0  0  0  0  0  0  0  0  0  0  0
  193.3410  174.5270  137.4490 N   0  0  0  0  0  2  0  0  0  0  0  0
  195.0530  175.8190  136.4870 O   0  0  0  0  0  0  0  0  0  0  0  0
  195.4960  173.2250  136.2620 S   0  0  0  0  0  1  0  0  0  0  0  0
  186.0000  179.2060  141.8530 C   0  0  0  0  0  2  0  0  0  0  0  0
  183.2570  178.6960  142.1670 O   0  0  0  0  0  1  0  0  0  0  0  0
  183.0090  177.6480  139.9910 C   0  0  2  0  0  3  0  0  0  0  0  0
  185.2150  178.5080  140.7480 C   0  0  2  0  0  3  0  0  0  0  0  0
  184.6170  178.6110  138.5600 C   0  0  0  0  0  2  0  0  0  0  0  0
  183.7840  177.4790  138.8180 O   0  0  0  0  0  0  0  0  0  0  0  0
  181.9120  178.6920  139.7850 C   0  0  0  0  0  1  0  0  0  0  0  0
  184.9420  179.3930  139.6990 O   0  0  0  0  0  0  0  0  0  0  0  0
  183.9010  177.8840  141.2260 C   0  0  1  0  0  3  0  0  0  0  0  0
  1  7  1  0  0  0  0
  2 19  2  0  0  0  0
  3  4  1  0  0  0  0
  5 13  1  0  0  0  0
  6  9  2  0  0  0  0
  7 13  2  0  0  0  0
  8  3  2  0  0  0  0
  9 10  1  0  0  0  0
 10 17  2  0  0  0  0
 10  8  1  0  0  0  0
 11 17  1  0  0  0  0
 12 14  2  0  0  0  0
 12 15  1  0  0  0  0
 13  6  1  0  0  0  0
 14  5  1  0  0  0  0
 15  1  2  0  0  0  0
 16  4  2  0  0  0  0
 17 16  1  0  0  0  0
 18  5  2  0  0  0  0
 18  2  1  0  0  0  0
 19  9  1  0  0  0  0
 19 11  1  0  0  0  0
 20 21  1  0  0  0  0
 21 15  1  0  0  0  0
 22 20  2  0  0  0  0
 23 20  1  0  0  0  0
 24 11  1  0  0  0  0
 26 30  1  6  0  0  0
 26 32  1  0  0  0  0
 27 32  1  0  0  0  0
 27 24  1  1  0  0  0
 28 29  1  0  0  0  0
 28 31  1  0  0  0  0
 29 26  1  0  0  0  0
 31 27  1  0  0  0  0
 32 25  1  1  0  0  0
M  END
>  <MODEL>
2

>  <REMARK>
 VINA RESULT:      -8.3      2.320      3.243
  Name = 
  3 active torsions:
  status: ('A' for Active; 'I' for Inactive)
    1  A    between atoms: N_10  and  C_24
    2  A    between atoms: C_11  and  C_27
    3  A    between atoms: N_16  and  C_27
                            x       y       z     vdW  Elec       q    Type
                         _______ _______ _______ _____ _____    ______ ____

>  <TORSDO>
F 3

$$$$
=
 OpenBabel11052416483D

 32 36  0  0  1  0  0  0  0  0999 V2000
  190.1550  177.6890  139.2270 C   0  0  0  0  0  3  0  0  0  0  0  0
  184.7890  178.7740  138.8280 C   0  0  0  0  0  3  0  0  0  0  0  0
  184.9910  178.6710  144.8170 C   0  0  0  0  0  3  0  0  0  0  0  0
  183.5960  178.8340  144.6650 C   0  0  0  0  0  3  0  0  0  0  0  0
  187.0750  177.7740  138.5630 C   0  0  0  0  0  0  0  0  0  0  0  0
  187.1660  178.5580  140.8870 N   0  0  0  0  0  0  0  0  0  0  0  0
  189.2280  178.4600  139.7860 C   0  0  0  0  0  3  0  0  0  0  0  0
  185.8260  178.5570  143.6920 C   0  0  0  0  0  3  0  0  0  0  0  0
  185.7660  178.5360  141.1720 C   0  0  0  0  0  0  0  0  0  0  0  0
  185.2230  178.6020  142.4370 C   0  0  0  0  0  0  0  0  0  0  0  0
  183.5460  178.8310  140.9760 N   0  0  0  0  0  0  0  0  0  0  0  0
  188.8410  176.1070  137.8430 C   0  0  0  0  0  3  0  0  0  0  0  0
  187.7800  178.2420  139.7850 C   0  0  0  0  0  0  0  0  0  0  0  0
  187.5790  176.8530  137.7430 C   0  0  0  0  0  3  0  0  0  0  0  0
  189.9620  176.4290  138.4980 C   0  0  0  0  0  0  0  0  0  0  0  0
  183.0190  178.8890  143.3830 C   0  0  0  0  0  3  0  0  0  0  0  0
  183.8700  178.7670  142.2830 C   0  0  0  0  0  0  0  0  0  0  0  0
  185.8150  178.3670  138.0900 C   0  0  0  0  0  3  0  0  0  0  0  0
  184.7060  178.6920  140.2870 C   0  0  0  0  0  0  0  0  0  0  0  0
  192.1220  175.5550  137.4050 C   0  0  0  0  0  0  0  0  0  0  0  0
  191.1080  175.5680  138.4190 N   0  0  0  0  0  2  0  0  0  0  0  0
  192.0650  176.3230  136.4090 O   0  0  0  0  0  0  0  0  0  0  0  0
  193.4880  174.4140  137.5520 S   0  0  0  0  0  1  0  0  0  0  0  0
  182.2150  179.0480  140.4160 C   0  0  0  0  0  2  0  0  0  0  0  0
  179.5680  179.0040  139.4830 O   0  0  0  0  0  1  0  0  0  0  0  0
  179.3370  176.5950  139.6810 C   0  0  2  0  0  3  0  0  0  0  0  0
  181.4580  177.7290  140.3100 C   0  0  2  0  0  3  0  0  0  0  0  0
  181.4800  175.6570  139.3810 C   0  0  0  0  0  2  0  0  0  0  0  0
  180.1750  175.4820  139.9370 O   0  0  0  0  0  0  0  0  0  0  0  0
  178.9450  176.6650  138.2060 C   0  0  0  0  0  1  0  0  0  0  0  0
  181.8780  177.0050  139.1870 O   0  0  0  0  0  0  0  0  0  0  0  0
  179.9380  177.8940  140.2530 C   0  0  1  0  0  3  0  0  0  0  0  0
  1  7  1  0  0  0  0
  2 19  2  0  0  0  0
  4  3  1  0  0  0  0
  5 13  1  0  0  0  0
  6  9  2  0  0  0  0
  8  3  2  0  0  0  0
  9 10  1  0  0  0  0
 10  8  1  0  0  0  0
 11 17  1  0  0  0  0
 12 15  1  0  0  0  0
 13  7  2  0  0  0  0
 13  6  1  0  0  0  0
 14 12  2  0  0  0  0
 14  5  1  0  0  0  0
 15  1  2  0  0  0  0
 16  4  2  0  0  0  0
 17 10  2  0  0  0  0
 17 16  1  0  0  0  0
 18  5  2  0  0  0  0
 18  2  1  0  0  0  0
 19 11  1  0  0  0  0
 19  9  1  0  0  0  0
 20 23  1  0  0  0  0
 20 21  1  0  0  0  0
 21 15  1  0  0  0  0
 22 20  2  0  0  0  0
 24 11  1  0  0  0  0
 26 30  1  6  0  0  0
 26 29  1  0  0  0  0
 26 32  1  0  0  0  0
 27 24  1  6  0  0  0
 28 29  1  0  0  0  0
 31 28  1  0  0  0  0
 31 27  1  0  0  0  0
 32 25  1  6  0  0  0
 32 27  1  0  0  0  0
M  END
>  <MODEL>
3

>  <REMARK>
 VINA RESULT:      -8.2      4.023      5.751
  Name = 
  3 active torsions:
  status: ('A' for Active; 'I' for Inactive)
    1  A    between atoms: N_10  and  C_24
    2  A    between atoms: C_11  and  C_27
    3  A    between atoms: N_16  and  C_27
                            x       y       z     vdW  Elec       q    Type
                         _______ _______ _______ _____ _____    ______ ____

>  <TORSDO>
F 3

$$$$
=
 OpenBabel11052416483D

 32 36  0  0  1  0  0  0  0  0999 V2000
  183.2930  179.2720  139.4180 C   0  0  0  0  0  3  0  0  0  0  0  0
  188.3230  178.6230  141.5210 C   0  0  0  0  0  3  0  0  0  0  0  0
  189.3870  175.7350  136.3780 C   0  0  0  0  0  3  0  0  0  0  0  0
  190.6280  175.4930  137.0060 C   0  0  0  0  0  3  0  0  0  0  0  0
  185.8370  178.6680  141.1800 C   0  0  0  0  0  0  0  0  0  0  0  0
  186.6210  178.2250  138.8960 N   0  0  0  0  0  0  0  0  0  0  0  0
  184.5680  179.3360  139.0470 C   0  0  0  0  0  3  0  0  0  0  0  0
  188.3740  176.4500  137.0430 C   0  0  0  0  0  3  0  0  0  0  0  0
  187.8750  177.6200  139.2180 C   0  0  0  0  0  0  0  0  0  0  0  0
  188.6440  176.8940  138.3350 C   0  0  0  0  0  0  0  0  0  0  0  0
  189.8780  177.2410  140.1670 N   0  0  0  0  0  0  0  0  0  0  0  0
  183.3900  178.2200  141.6610 C   0  0  0  0  0  3  0  0  0  0  0  0
  185.7110  178.6920  139.6990 C   0  0  0  0  0  0  0  0  0  0  0  0
  184.8000  178.4710  141.9930 C   0  0  0  0  0  3  0  0  0  0  0  0
  182.7180  178.5290  140.5480 C   0  0  0  0  0  0  0  0  0  0  0  0
  190.8750  175.9660  138.3080 C   0  0  0  0  0  3  0  0  0  0  0  0
  189.8510  176.6670  138.9480 C   0  0  0  0  0  0  0  0  0  0  0  0
  187.0930  178.9740  141.8800 C   0  0  0  0  0  3  0  0  0  0  0  0
  188.6680  177.8300  140.3400 C   0  0  0  0  0  0  0  0  0  0  0  0
  180.7100  177.0140  139.9990 C   0  0  0  0  0  0  0  0  0  0  0  0
  181.3160  178.2330  140.4540 N   0  0  0  0  0  2  0  0  0  0  0  0
  181.4050  176.0520  139.5800 O   0  0  0  0  0  0  0  0  0  0  0  0
  178.9310  176.8650  140.0190 S   0  0  0  0  0  1  0  0  0  0  0  0
  191.0020  177.2580  141.0990 C   0  0  0  0  0  2  0  0  0  0  0  0
  191.1260  175.4490  143.2420 O   0  0  0  0  0  1  0  0  0  0  0  0
  190.2310  177.0160  144.8650 C   0  0  2  0  0  3  0  0  0  0  0  0
  190.5380  177.6780  142.4890 C   0  0  2  0  0  3  0  0  0  0  0  0
  190.8440  179.1830  144.1620 C   0  0  0  0  0  2  0  0  0  0  0  0
  189.9260  178.3980  144.9260 O   0  0  0  0  0  0  0  0  0  0  0  0
  191.5050  176.6960  145.6470 C   0  0  0  0  0  1  0  0  0  0  0  0
  191.4940  178.4920  143.1070 O   0  0  0  0  0  0  0  0  0  0  0  0
  190.2180  176.5010  143.4130 C   0  0  1  0  0  3  0  0  0  0  0  0
  1 15  1  0  0  0  0
  2 18  2  0  0  0  0
  3  4  2  0  0  0  0
  3  8  1  0  0  0  0
  4 16  1  0  0  0  0
  5 18  1  0  0  0  0
  5 14  2  0  0  0  0
  6  9  1  0  0  0  0
  6 13  2  0  0  0  0
  7  1  2  0  0  0  0
  7 13  1  0  0  0  0
  8 10  2  0  0  0  0
  9 19  2  0  0  0  0
 10 17  1  0  0  0  0
 10  9  1  0  0  0  0
 11 19  1  0  0  0  0
 11 24  1  0  0  0  0
 12 14  1  0  0  0  0
 13  5  1  0  0  0  0
 15 12  2  0  0  0  0
 16 17  2  0  0  0  0
 17 11  1  0  0  0  0
 19  2  1  0  0  0  0
 20 23  1  0  0  0  0
 20 21  1  0  0  0  0
 21 15  1  0  0  0  0
 22 20  2  0  0  0  0
 26 29  1  0  0  0  0
 26 30  1  6  0  0  0
 27 24  1  6  0  0  0
 27 31  1  0  0  0  0
 27 32  1  0  0  0  0
 28 29  1  0  0  0  0
 31 28  1  0  0  0  0
 32 25  1  1  0  0  0
 32 26  1  0  0  0  0
M  END
>  <MODEL>
4

>  <REMARK>
 VINA RESULT:      -7.8      4.725      8.480
  Name = 
  3 active torsions:
  status: ('A' for Active; 'I' for Inactive)
    1  A    between atoms: N_10  and  C_24
    2  A    between atoms: C_11  and  C_27
    3  A    between atoms: N_16  and  C_27
                            x       y       z     vdW  Elec       q    Type
                         _______ _______ _______ _____ _____    ______ ____

>  <TORSDO>
F 3

$$$$
=
 OpenBabel11052416483D

 32 36  0  0  1  0  0  0  0  0999 V2000
  189.8420  177.7540  138.8090 C   0  0  0  0  0  3  0  0  0  0  0  0
  184.4190  178.2580  138.1220 C   0  0  0  0  0  3  0  0  0  0  0  0
  184.3980  179.0240  144.0660 C   0  0  0  0  0  3  0  0  0  0  0  0
  183.0020  179.0320  143.8570 C   0  0  0  0  0  3  0  0  0  0  0  0
  186.7950  177.4510  138.0630 C   0  0  0  0  0  0  0  0  0  0  0  0
  186.7250  178.5620  140.2500 N   0  0  0  0  0  0  0  0  0  0  0  0
  188.8290  178.5050  139.2280 C   0  0  0  0  0  3  0  0  0  0  0  0
  185.2840  178.8310  142.9910 C   0  0  0  0  0  3  0  0  0  0  0  0
  185.3230  178.4480  140.5000 C   0  0  0  0  0  0  0  0  0  0  0  0
  184.7280  178.6410  141.7270 C   0  0  0  0  0  0  0  0  0  0  0  0
  183.0940  178.5010  140.2080 N   0  0  0  0  0  0  0  0  0  0  0  0
  188.7310  175.8740  137.6360 C   0  0  0  0  0  3  0  0  0  0  0  0
  187.4070  178.1530  139.2210 C   0  0  0  0  0  0  0  0  0  0  0  0
  187.4110  176.4750  137.3970 C   0  0  0  0  0  3  0  0  0  0  0  0
  189.7910  176.3900  138.2660 C   0  0  0  0  0  0  0  0  0  0  0  0
  182.4710  178.8490  142.5660 C   0  0  0  0  0  3  0  0  0  0  0  0
  183.3720  178.6540  141.5170 C   0  0  0  0  0  0  0  0  0  0  0  0
  185.5060  177.8490  137.4770 C   0  0  0  0  0  3  0  0  0  0  0  0
  184.2880  178.3760  139.5750 C   0  0  0  0  0  0  0  0  0  0  0  0
  192.0130  175.4940  137.3240 C   0  0  0  0  0  0  0  0  0  0  0  0
  191.0130  175.6400  138.3420 N   0  0  0  0  0  2  0  0  0  0  0  0
  191.8740  176.0170  136.1870 O   0  0  0  0  0  0  0  0  0  0  0  0
  193.4820  174.5420  137.6740 S   0  0  0  0  0  1  0  0  0  0  0  0
  181.7720  178.5090  139.5880 C   0  0  0  0  0  2  0  0  0  0  0  0
  181.2970  179.4390  136.9830 O   0  0  0  0  0  1  0  0  0  0  0  0
  180.6190  181.6590  137.6940 C   0  0  2  0  0  3  0  0  0  0  0  0
  181.2980  179.9390  139.3560 C   0  0  2  0  0  3  0  0  0  0  0  0
  179.6740  181.4490  139.8460 C   0  0  0  0  0  2  0  0  0  0  0  0
  180.3150  182.3190  138.9100 O   0  0  0  0  0  0  0  0  0  0  0  0
  179.3520  181.3610  136.8940 C   0  0  0  0  0  1  0  0  0  0  0  0
  179.9380  180.0670  139.6610 O   0  0  0  0  0  0  0  0  0  0  0  0
  181.5360  180.4420  137.9300 C   0  0  1  0  0  3  0  0  0  0  0  0
  1  7  1  0  0  0  0
  2 19  2  0  0  0  0
  4  3  1  0  0  0  0
  5 13  1  0  0  0  0
  6  9  2  0  0  0  0
  8  3  2  0  0  0  0
  9 10  1  0  0  0  0
 10  8  1  0  0  0  0
 11 17  1  0  0  0  0
 12 15  1  0  0  0  0
 13  7  2  0  0  0  0
 13  6  1  0  0  0  0
 14 12  2  0  0  0  0
 14  5  1  0  0  0  0
 15 21  1  0  0  0  0
 15  1  2  0  0  0  0
 16  4  2  0  0  0  0
 17 10  2  0  0  0  0
 17 16  1  0  0  0  0
 18  5  2  0  0  0  0
 18  2  1  0  0  0  0
 19 11  1  0  0  0  0
 19  9  1  0  0  0  0
 20 23  1  0  0  0  0
 20 21  1  0  0  0  0
 22 20  2  0  0  0  0
 24 11  1  0  0  0  0
 26 30  1  1  0  0  0
 26 32  1  0  0  0  0
 26 29  1  0  0  0  0
 27 24  1  6  0  0  0
 27 31  1  0  0  0  0
 29 28  1  0  0  0  0
 31 28  1  0  0  0  0
 32 25  1  6  0  0  0
 32 27  1  0  0  0  0
M  END
>  <MODEL>
5

>  <REMARK>
 VINA RESULT:      -7.6      4.603      6.282
  Name = 
  3 active torsions:
  status: ('A' for Active; 'I' for Inactive)
    1  A    between atoms: N_10  and  C_24
    2  A    between atoms: C_11  and  C_27
    3  A    between atoms: N_16  and  C_27
                            x       y       z     vdW  Elec       q    Type
                         _______ _______ _______ _____ _____    ______ ____

>  <TORSDO>
F 3

$$$$
=
 OpenBabel11052416483D

 32 36  0  0  1  0  0  0  0  0999 V2000
  188.6840  178.2650  142.8150 C   0  0  0  0  0  3  0  0  0  0  0  0
  192.7600  177.1010  139.3260 C   0  0  0  0  0  3  0  0  0  0  0  0
  188.3880  174.5950  136.0820 C   0  0  0  0  0  3  0  0  0  0  0  0
  189.4820  174.2170  135.2730 C   0  0  0  0  0  3  0  0  0  0  0  0
  191.3330  177.3430  141.3770 C   0  0  0  0  0  0  0  0  0  0  0  0
  189.6230  177.0430  139.6410 N   0  0  0  0  0  0  0  0  0  0  0  0
  188.9410  178.2730  141.5110 C   0  0  0  0  0  3  0  0  0  0  0  0
  188.5920  175.3170  137.2720 C   0  0  0  0  0  3  0  0  0  0  0  0
  190.4130  176.3290  138.6880 C   0  0  0  0  0  0  0  0  0  0  0  0
  189.9040  175.6310  137.6160 C   0  0  0  0  0  0  0  0  0  0  0  0
  192.1220  175.7370  137.3520 N   0  0  0  0  0  0  0  0  0  0  0  0
  190.5990  177.0220  143.7800 C   0  0  0  0  0  3  0  0  0  0  0  0
  189.9690  177.5010  140.8080 C   0  0  0  0  0  0  0  0  0  0  0  0
  191.5600  177.1480  142.6750 C   0  0  0  0  0  3  0  0  0  0  0  0
  189.3420  177.4700  143.8600 C   0  0  0  0  0  0  0  0  0  0  0  0
  190.7960  174.5600  135.6420 C   0  0  0  0  0  3  0  0  0  0  0  0
  190.9710  175.2710  136.8300 C   0  0  0  0  0  0  0  0  0  0  0  0
  192.5560  177.5030  140.5760 C   0  0  0  0  0  3  0  0  0  0  0  0
  191.7880  176.3900  138.4940 C   0  0  0  0  0  0  0  0  0  0  0  0
  189.0770  177.3240  146.4160 C   0  0  0  0  0  0  0  0  0  0  0  0
  188.5900  177.2780  145.0680 N   0  0  0  0  0  2  0  0  0  0  0  0
  190.2960  177.5110  146.6680 O   0  0  0  0  0  0  0  0  0  0  0  0
  187.9300  177.1000  147.7660 S   0  0  0  0  0  1  0  0  0  0  0  0
  193.4590  175.5990  136.7820 C   0  0  0  0  0  2  0  0  0  0  0  0
  195.0070  173.7540  135.3400 O   0  0  0  0  0  1  0  0  0  0  0  0
  195.7840  172.5740  137.3140 C   0  0  2  0  0  3  0  0  0  0  0  0
  194.2430  174.5140  137.5120 C   0  0  2  0  0  3  0  0  0  0  0  0
  195.8330  174.1280  139.0870 C   0  0  0  0  0  2  0  0  0  0  0  0
  195.7480  172.7500  138.7180 O   0  0  0  0  0  0  0  0  0  0  0  0
  197.1750  172.8710  136.7550 C   0  0  0  0  0  1  0  0  0  0  0  0
  195.4000  175.0460  138.0950 O   0  0  0  0  0  0  0  0  0  0  0  0
  194.6350  173.3320  136.6220 C   0  0  1  0  0  3  0  0  0  0  0  0
  1 15  1  0  0  0  0
  2 18  2  0  0  0  0
  3  8  1  0  0  0  0
  4 16  1  0  0  0  0
  4  3  2  0  0  0  0
  5 14  2  0  0  0  0
  6 13  2  0  0  0  0
  7  1  2  0  0  0  0
  8 10  2  0  0  0  0
  9  6  1  0  0  0  0
 10  9  1  0  0  0  0
 11 19  1  0  0  0  0
 12 15  2  0  0  0  0
 13  5  1  0  0  0  0
 13  7  1  0  0  0  0
 14 12  1  0  0  0  0
 15 21  1  0  0  0  0
 16 17  2  0  0  0  0
 17 11  1  0  0  0  0
 17 10  1  0  0  0  0
 18  5  1  0  0  0  0
 19  9  2  0  0  0  0
 19  2  1  0  0  0  0
 20 22  2  0  0  0  0
 20 23  1  0  0  0  0
 21 20  1  0  0  0  0
 24 11  1  0  0  0  0
 26 30  1  6  0  0  0
 26 29  1  0  0  0  0
 27 24  1  6  0  0  0
 27 31  1  0  0  0  0
 29 28  1  0  0  0  0
 31 28  1  0  0  0  0
 32 25  1  6  0  0  0
 32 26  1  0  0  0  0
 32 27  1  0  0  0  0
M  END
>  <MODEL>
6

>  <REMARK>
 VINA RESULT:      -7.5      3.726      9.684
  Name = 
  3 active torsions:
  status: ('A' for Active; 'I' for Inactive)
    1  A    between atoms: N_10  and  C_24
    2  A    between atoms: C_11  and  C_27
    3  A    between atoms: N_16  and  C_27
                            x       y       z     vdW  Elec       q    Type
                         _______ _______ _______ _____ _____    ______ ____

>  <TORSDO>
F 3

$$$$
=
 OpenBabel11052416483D

 32 36  0  0  1  0  0  0  0  0999 V2000
  184.8980  179.2620  144.9840 C   0  0  0  0  0  3  0  0  0  0  0  0
  184.5210  178.8470  139.5230 C   0  0  0  0  0  3  0  0  0  0  0  0
  178.9460  176.9920  140.7040 C   0  0  0  0  0  3  0  0  0  0  0  0
  178.9330  176.7910  139.3070 C   0  0  0  0  0  3  0  0  0  0  0  0
  185.2710  178.6660  141.9110 C   0  0  0  0  0  0  0  0  0  0  0  0
  182.8310  178.7000  142.1800 N   0  0  0  0  0  0  0  0  0  0  0  0
  184.0460  179.5300  143.9990 C   0  0  0  0  0  3  0  0  0  0  0  0
  180.1010  177.4670  141.3500 C   0  0  0  0  0  3  0  0  0  0  0  0
  182.4700  178.1950  140.8930 C   0  0  0  0  0  0  0  0  0  0  0  0
  181.2210  177.7180  140.5610 C   0  0  0  0  0  0  0  0  0  0  0  0
  182.3950  177.8940  138.6660 N   0  0  0  0  0  0  0  0  0  0  0  0
  186.6340  177.8700  143.8920 C   0  0  0  0  0  3  0  0  0  0  0  0
  184.0160  178.9210  142.6670 C   0  0  0  0  0  0  0  0  0  0  0  0
  186.3870  178.2200  142.4860 C   0  0  0  0  0  3  0  0  0  0  0  0
  185.9920  178.2820  144.9900 C   0  0  0  0  0  0  0  0  0  0  0  0
  180.0770  177.0660  138.5350 C   0  0  0  0  0  3  0  0  0  0  0  0
  181.2120  177.5310  139.2010 C   0  0  0  0  0  0  0  0  0  0  0  0
  185.4250  178.9910  140.4850 C   0  0  0  0  0  3  0  0  0  0  0  0
  183.1720  178.3060  139.6990 C   0  0  0  0  0  0  0  0  0  0  0  0
  187.7770  177.8640  146.7970 C   0  0  0  0  0  0  0  0  0  0  0  0
  186.4370  177.8480  146.2830 N   0  0  0  0  0  2  0  0  0  0  0  0
  188.7460  178.2500  146.0920 O   0  0  0  0  0  0  0  0  0  0  0  0
  188.0770  177.3140  148.4680 S   0  0  0  0  0  1  0  0  0  0  0  0
  182.7520  177.8830  137.2510 C   0  0  0  0  0  2  0  0  0  0  0  0
  185.3730  177.5050  136.3170 O   0  0  0  0  0  1  0  0  0  0  0  0
  185.1050  175.1190  135.9620 C   0  0  2  0  0  3  0  0  0  0  0  0
  183.2270  176.4970  136.8290 C   0  0  2  0  0  3  0  0  0  0  0  0
  183.5070  174.3520  137.5180 C   0  0  0  0  0  2  0  0  0  0  0  0
  184.1490  174.1180  136.2630 O   0  0  0  0  0  0  0  0  0  0  0  0
  186.3310  175.0030  136.8670 C   0  0  0  0  0  1  0  0  0  0  0  0
  183.5000  175.7040  137.9490 O   0  0  0  0  0  0  0  0  0  0  0  0
  184.4610  176.5180  135.9230 C   0  0  1  0  0  3  0  0  0  0  0  0
  1 15  1  0  0  0  0
  2 19  1  0  0  0  0
  2 18  2  0  0  0  0
  3  8  1  0  0  0  0
  4  3  2  0  0  0  0
  5 14  2  0  0  0  0
  5 13  1  0  0  0  0
  6 13  2  0  0  0  0
  7  1  2  0  0  0  0
  9  6  1  0  0  0  0
 10  9  1  0  0  0  0
 10  8  2  0  0  0  0
 11 17  1  0  0  0  0
 11 19  1  0  0  0  0
 12 15  2  0  0  0  0
 13  7  1  0  0  0  0
 14 12  1  0  0  0  0
 15 21  1  0  0  0  0
 16 17  2  0  0  0  0
 16  4  1  0  0  0  0
 17 10  1  0  0  0  0
 18  5  1  0  0  0  0
 19  9  2  0  0  0  0
 20 23  1  0  0  0  0
 21 20  1  0  0  0  0
 22 20  2  0  0  0  0
 24 11  1  0  0  0  0
 26 29  1  0  0  0  0
 26 30  1  1  0  0  0
 27 24  1  1  0  0  0
 27 31  1  0  0  0  0
 28 31  1  0  0  0  0
 29 28  1  0  0  0  0
 32 26  1  0  0  0  0
 32 25  1  1  0  0  0
 32 27  1  0  0  0  0
M  END
>  <MODEL>
7

>  <REMARK>
 VINA RESULT:      -7.5      5.767      9.673
  Name = 
  3 active torsions:
  status: ('A' for Active; 'I' for Inactive)
    1  A    between atoms: N_10  and  C_24
    2  A    between atoms: C_11  and  C_27
    3  A    between atoms: N_16  and  C_27
                            x       y       z     vdW  Elec       q    Type
                         _______ _______ _______ _____ _____    ______ ____

>  <TORSDO>
F 3

$$$$
=
 OpenBabel11052416483D

 32 36  0  0  1  0  0  0  0  0999 V2000
  191.0250  178.1270  144.4630 C   0  0  0  0  0  3  0  0  0  0  0  0
  189.0000  178.1170  139.3600 C   0  0  0  0  0  3  0  0  0  0  0  0
  183.7640  179.0020  142.1390 C   0  0  0  0  0  3  0  0  0  0  0  0
  183.2740  178.8770  140.8210 C   0  0  0  0  0  3  0  0  0  0  0  0
  190.2180  177.5300  141.4750 C   0  0  0  0  0  0  0  0  0  0  0  0
  188.2390  178.6760  142.3690 N   0  0  0  0  0  0  0  0  0  0  0  0
  190.1500  178.7910  143.7130 C   0  0  0  0  0  3  0  0  0  0  0  0
  185.1380  178.8690  142.4090 C   0  0  0  0  0  3  0  0  0  0  0  0
  187.3480  178.4380  141.2770 C   0  0  0  0  0  0  0  0  0  0  0  0
  185.9810  178.6020  141.3330 C   0  0  0  0  0  0  0  0  0  0  0  0
  186.5280  178.2810  139.1890 N   0  0  0  0  0  0  0  0  0  0  0  0
  191.5650  176.1290  143.0990 C   0  0  0  0  0  3  0  0  0  0  0  0
  189.4790  178.3090  142.5030 C   0  0  0  0  0  0  0  0  0  0  0  0
  191.1230  176.6010  141.7790 C   0  0  0  0  0  3  0  0  0  0  0  0
  191.5120  176.7530  144.2800 C   0  0  0  0  0  0  0  0  0  0  0  0
  184.1530  178.6200  139.7530 C   0  0  0  0  0  3  0  0  0  0  0  0
  185.5110  178.4860  140.0490 C   0  0  0  0  0  0  0  0  0  0  0  0
  190.0990  177.7950  140.0330 C   0  0  0  0  0  3  0  0  0  0  0  0
  187.6610  178.2520  139.9360 C   0  0  0  0  0  0  0  0  0  0  0  0
  191.6270  176.2850  146.8080 C   0  0  0  0  0  0  0  0  0  0  0  0
  192.0530  176.1200  145.4480 N   0  0  0  0  0  2  0  0  0  0  0  0
  190.7030  177.0840  147.1140 O   0  0  0  0  0  0  0  0  0  0  0  0
  192.4310  175.3440  148.0950 S   0  0  0  0  0  1  0  0  0  0  0  0
  186.4330  178.1540  137.7380 C   0  0  0  0  0  2  0  0  0  0  0  0
  184.2270  177.1290  136.3370 O   0  0  0  0  0  1  0  0  0  0  0  0
  185.1260  174.8790  136.1870 C   0  0  2  0  0  3  0  0  0  0  0  0
  186.3940  176.6850  137.3300 C   0  0  2  0  0  3  0  0  0  0  0  0
  187.4770  175.0620  136.1690 C   0  0  0  0  0  2  0  0  0  0  0  0
  186.3530  174.2240  136.4500 O   0  0  0  0  0  0  0  0  0  0  0  0
  184.9040  175.0570  134.6850 C   0  0  0  0  0  1  0  0  0  0  0  0
  187.2180  176.4560  136.2220 O   0  0  0  0  0  0  0  0  0  0  0  0
  184.9870  176.1700  137.0170 C   0  0  1  0  0  3  0  0  0  0  0  0
  2 19  1  0  0  0  0
  2 18  2  0  0  0  0
  3  8  1  0  0  0  0
  4  3  2  0  0  0  0
  5 14  2  0  0  0  0
  5 13  1  0  0  0  0
  6 13  2  0  0  0  0
  7  1  2  0  0  0  0
  9 10  1  0  0  0  0
  9  6  1  0  0  0  0
 10  8  2  0  0  0  0
 11 19  1  0  0  0  0
 11 17  1  0  0  0  0
 12 15  2  0  0  0  0
 13  7  1  0  0  0  0
 14 12  1  0  0  0  0
 15  1  1  0  0  0  0
 15 21  1  0  0  0  0
 16 17  2  0  0  0  0
 16  4  1  0  0  0  0
 17 10  1  0  0  0  0
 18  5  1  0  0  0  0
 19  9  2  0  0  0  0
 20 22  2  0  0  0  0
 20 23  1  0  0  0  0
 21 20  1  0  0  0  0
 24 11  1  0  0  0  0
 26 30  1  6  0  0  0
 26 29  1  0  0  0  0
 26 32  1  0  0  0  0
 27 24  1  6  0  0  0
 28 31  1  0  0  0  0
 28 29  1  0  0  0  0
 31 27  1  0  0  0  0
 32 25  1  6  0  0  0
 32 27  1  0  0  0  0
M  END
>  <MODEL>
8

>  <REMARK>
 VINA RESULT:      -7.2      4.337      7.284
  Name = 
  3 active torsions:
  status: ('A' for Active; 'I' for Inactive)
    1  A    between atoms: N_10  and  C_24
    2  A    between atoms: C_11  and  C_27
    3  A    between atoms: N_16  and  C_27
                            x       y       z     vdW  Elec       q    Type
                         _______ _______ _______ _____ _____    ______ ____

>  <TORSDO>
F 3

$$$$
=
 OpenBabel11052416483D

 32 36  0  0  1  0  0  0  0  0999 V2000
  180.4180  180.1230  139.7690 C   0  0  0  0  0  3  0  0  0  0  0  0
  185.4740  178.0390  140.2560 C   0  0  0  0  0  3  0  0  0  0  0  0
  184.5090  178.7910  146.1230 C   0  0  0  0  0  3  0  0  0  0  0  0
  185.8520  178.3600  146.1930 C   0  0  0  0  0  3  0  0  0  0  0  0
  183.4820  179.4080  139.5790 C   0  0  0  0  0  0  0  0  0  0  0  0
  182.9340  178.8970  141.9170 N   0  0  0  0  0  0  0  0  0  0  0  0
  181.0950  179.2570  140.5170 C   0  0  0  0  0  3  0  0  0  0  0  0
  183.8680  178.9400  144.8810 C   0  0  0  0  0  3  0  0  0  0  0  0
  184.2620  178.6910  142.4040 C   0  0  0  0  0  0  0  0  0  0  0  0
  184.6100  178.6570  143.7360 C   0  0  0  0  0  0  0  0  0  0  0  0
  186.3870  177.9760  142.5640 N   0  0  0  0  0  0  0  0  0  0  0  0
  182.1870  181.2870  138.4800 C   0  0  0  0  0  3  0  0  0  0  0  0
  182.5450  179.2050  140.7150 C   0  0  0  0  0  0  0  0  0  0  0  0
  183.2810  180.3170  138.6260 C   0  0  0  0  0  3  0  0  0  0  0  0
  180.9490  181.2450  138.9830 C   0  0  0  0  0  0  0  0  0  0  0  0
  186.5720  178.0700  145.0190 C   0  0  0  0  0  3  0  0  0  0  0  0
  185.9130  178.2320  143.7990 C   0  0  0  0  0  0  0  0  0  0  0  0
  184.6530  178.5500  139.3450 C   0  0  0  0  0  3  0  0  0  0  0  0
  185.3780  178.2540  141.7010 C   0  0  0  0  0  0  0  0  0  0  0  0
  180.2780  183.5220  137.9880 C   0  0  0  0  0  0  0  0  0  0  0  0
  180.0140  182.2880  138.6710 N   0  0  0  0  0  2  0  0  0  0  0  0
  181.4410  183.8310  137.6170 O   0  0  0  0  0  0  0  0  0  0  0  0
  178.9310  184.6490  137.6700 S   0  0  0  0  0  1  0  0  0  0  0  0
  187.7120  177.4630  142.2260 C   0  0  0  0  0  2  0  0  0  0  0  0
  189.3470  175.4050  143.2130 O   0  0  0  0  0  1  0  0  0  0  0  0
  190.4540  176.8120  144.8520 C   0  0  2  0  0  3  0  0  0  0  0  0
  188.6970  177.7370  143.3570 C   0  0  2  0  0  3  0  0  0  0  0  0
  190.4640  179.0110  143.9990 C   0  0  0  0  0  2  0  0  0  0  0  0
  190.5260  178.1910  145.1680 O   0  0  0  0  0  0  0  0  0  0  0  0
  191.7350  176.3320  144.1720 C   0  0  0  0  0  1  0  0  0  0  0  0
  189.8230  178.4180  142.8800 O   0  0  0  0  0  0  0  0  0  0  0  0
  189.1550  176.4760  144.0940 C   0  0  1  0  0  3  0  0  0  0  0  0
  1  7  1  0  0  0  0
  2 19  2  0  0  0  0
  3  4  1  0  0  0  0
  5 13  1  0  0  0  0
  6  9  2  0  0  0  0
  7 13  2  0  0  0  0
  8  3  2  0  0  0  0
  9 10  1  0  0  0  0
 10 17  2  0  0  0  0
 10  8  1  0  0  0  0
 11 17  1  0  0  0  0
 12 14  2  0  0  0  0
 12 15  1  0  0  0  0
 13  6  1  0  0  0  0
 14  5  1  0  0  0  0
 15  1  2  0  0  0  0
 16  4  2  0  0  0  0
 17 16  1  0  0  0  0
 18  5  2  0  0  0  0
 18  2  1  0  0  0  0
 19  9  1  0  0  0  0
 19 11  1  0  0  0  0
 20 21  1  0  0  0  0
 21 15  1  0  0  0  0
 22 20  2  0  0  0  0
 23 20  1  0  0  0  0
 24 11  1  0  0  0  0
 26 30  1  6  0  0  0
 26 29  1  0  0  0  0
 27 24  1  6  0  0  0
 27 32  1  0  0  0  0
 28 29  1  0  0  0  0
 31 27  1  0  0  0  0
 31 28  1  0  0  0  0
 32 25  1  6  0  0  0
 32 26  1  0  0  0  0
M  END
>  <MODEL>
9

>  <REMARK>
 VINA RESULT:      -7.0      5.799      9.316
  Name = 
  3 active torsions:
  status: ('A' for Active; 'I' for Inactive)
    1  A    between atoms: N_10  and  C_24
    2  A    between atoms: C_11  and  C_27
    3  A    between atoms: N_16  and  C_27
                            x       y       z     vdW  Elec       q    Type
                         _______ _______ _______ _____ _____    ______ ____

>  <TORSDO>
F 3

$$$$
