=
 OpenBabel11052413403D

 27 30  0  0  1  0  0  0  0  0999 V2000
  189.6250  176.7000  143.6300 N   0  0  0  0  0  0  0  0  0  0  0  0
  190.3690  176.9280  142.4120 C   0  0  0  0  0  0  0  0  0  0  0  0
  191.6520  177.5080  142.4630 C   0  0  0  0  0  3  0  0  0  0  0  0
  190.5600  176.8090  139.9830 C   0  0  0  0  0  0  0  0  0  0  0  0
  191.8380  177.3820  140.0580 C   0  0  0  0  0  3  0  0  0  0  0  0
  189.8390  176.5800  141.1570 C   0  0  0  0  0  3  0  0  0  0  0  0
  192.3790  177.7370  141.2950 C   0  0  0  0  0  3  0  0  0  0  0  0
  190.0080  176.3170  138.6800 C   0  0  2  0  0  3  0  0  0  0  0  0
  190.7710  175.1620  138.2400 N   0  0  0  0  0  1  0  0  0  0  0  0
  189.2590  176.9950  136.5170 O   0  0  0  0  0  0  0  0  0  0  0  0
  188.6950  177.9530  137.3800 C   0  0  0  0  0  2  0  0  0  0  0  0
  190.0500  177.3980  137.6080 C   0  0  1  0  0  3  0  0  0  0  0  0
  191.4310  176.6110  147.4770 C   0  0  0  0  0  3  0  0  0  0  0  0
  190.2460  176.7020  144.9340 C   0  0  0  0  0  0  0  0  0  0  0  0
  189.6090  177.2970  146.0350 C   0  0  0  0  0  3  0  0  0  0  0  0
  190.2020  177.2530  147.3010 C   0  0  0  0  0  3  0  0  0  0  0  0
  192.0650  176.0040  146.3890 C   0  0  0  0  0  3  0  0  0  0  0  0
  191.4730  176.0480  145.1230 C   0  0  0  0  0  3  0  0  0  0  0  0
  188.1980  176.3780  143.5540 C   0  0  0  0  0  2  0  0  0  0  0  0
  187.3040  178.8050  141.3160 Cl  0  0  0  0  0  0  0  0  0  0  0  0
  184.8040  178.9560  144.1640 C   0  0  0  0  0  3  0  0  0  0  0  0
  185.6770  178.6240  145.3380 C   0  0  1  0  0  3  0  0  0  0  0  0
  187.3360  177.6130  143.7830 C   0  0  2  0  0  3  0  0  0  0  0  0
  185.1580  178.6440  142.9080 C   0  0  0  0  0  3  0  0  0  0  0  0
  184.6730  178.3520  146.7770 Cl  0  0  0  0  0  0  0  0  0  0  0  0
  186.5210  177.3910  145.0550 C   0  0  0  0  0  2  0  0  0  0  0  0
  186.4220  177.8910  142.5690 C   0  0  1  0  0  3  0  0  0  0  0  0
  1 14  1  0  0  0  0
  2  3  1  0  0  0  0
  2  1  1  0  0  0  0
  4  5  2  0  0  0  0
  4  6  1  0  0  0  0
  5  7  1  0  0  0  0
  6  2  2  0  0  0  0
  7  3  2  0  0  0  0
  8  9  1  6  0  0  0
  8  4  1  0  0  0  0
 10 11  1  0  0  0  0
 10 12  1  0  0  0  0
 11 12  1  0  0  0  0
 12  8  1  1  0  0  0
 14 18  2  0  0  0  0
 14 15  1  0  0  0  0
 15 16  2  0  0  0  0
 16 13  1  0  0  0  0
 17 13  2  0  0  0  0
 18 17  1  0  0  0  0
 19  1  1  0  0  0  0
 21 22  1  0  0  0  0
 22 25  1  1  0  0  0
 23 19  1  6  0  0  0
 23 26  1  0  0  0  0
 24 21  2  0  0  0  0
 26 22  1  0  0  0  0
 27 20  1  6  0  0  0
 27 24  1  0  0  0  0
 27 23  1  0  0  0  0
M  END
>  <MODEL>
1

>  <REMARK>
 VINA RESULT:      -8.7      0.000      0.000
  Name = 
  6 active torsions:
  status: ('A' for Active; 'I' for Inactive)
    1  A    between atoms: C_1  and  N_15
    2  A    between atoms: C_1  and  C_18
    3  A    between atoms: C_2  and  N_15
    4  A    between atoms: C_8  and  C_14
    5  A    between atoms: C_8  and  C_16
    6  A    between atoms: C_9  and  N_15
                            x       y       z     vdW  Elec       q    Type
                         _______ _______ _______ _____ _____    ______ ____

>  <TORSDO>
F 6

$$$$
=
 OpenBabel11052413403D

 27 30  0  0  1  0  0  0  0  0999 V2000
  186.7540  177.4040  143.9330 N   0  0  0  0  0  0  0  0  0  0  0  0
  185.5170  178.0090  143.4910 C   0  0  0  0  0  0  0  0  0  0  0  0
  184.6340  178.5810  144.4270 C   0  0  0  0  0  3  0  0  0  0  0  0
  183.9680  178.6220  141.7100 C   0  0  0  0  0  0  0  0  0  0  0  0
  183.1060  179.1920  142.6590 C   0  0  0  0  0  3  0  0  0  0  0  0
  185.1670  178.0420  142.1300 C   0  0  0  0  0  3  0  0  0  0  0  0
  183.4350  179.1650  144.0150 C   0  0  0  0  0  3  0  0  0  0  0  0
  183.6890  178.7400  140.2430 C   0  0  2  0  0  3  0  0  0  0  0  0
  184.5630  179.7490  139.6670 N   0  0  0  0  0  1  0  0  0  0  0  0
  182.0720  179.3630  138.6010 O   0  0  0  0  0  0  0  0  0  0  0  0
  181.6120  178.1170  139.0650 C   0  0  0  0  0  2  0  0  0  0  0  0
  182.2360  179.1080  139.9740 C   0  0  1  0  0  3  0  0  0  0  0  0
  190.1890  176.9900  141.4650 C   0  0  0  0  0  3  0  0  0  0  0  0
  187.9000  177.2560  143.0690 C   0  0  0  0  0  0  0  0  0  0  0  0
  188.2220  178.2430  142.1220 C   0  0  0  0  0  3  0  0  0  0  0  0
  189.3620  178.1080  141.3220 C   0  0  0  0  0  3  0  0  0  0  0  0
  189.8830  176.0100  142.4140 C   0  0  0  0  0  3  0  0  0  0  0  0
  188.7440  176.1450  143.2140 C   0  0  0  0  0  3  0  0  0  0  0  0
  186.8410  176.8460  145.2850 C   0  0  0  0  0  2  0  0  0  0  0  0
  186.0550  179.4600  147.3460 Cl  0  0  0  0  0  0  0  0  0  0  0  0
  189.3860  178.0870  148.5280 C   0  0  0  0  0  3  0  0  0  0  0  0
  190.0190  177.6920  147.2260 C   0  0  1  0  0  3  0  0  0  0  0  0
  187.7660  177.6720  146.1700 C   0  0  2  0  0  3  0  0  0  0  0  0
  188.0610  178.2590  148.6480 C   0  0  0  0  0  3  0  0  0  0  0  0
  191.4920  176.7500  147.5340 Cl  0  0  0  0  0  0  0  0  0  0  0  0
  189.0530  176.8770  146.3790 C   0  0  0  0  0  2  0  0  0  0  0  0
  187.0920  178.0170  147.5160 C   0  0  1  0  0  3  0  0  0  0  0  0
  1 19  1  0  0  0  0
  2  1  1  0  0  0  0
  2  3  1  0  0  0  0
  4  6  1  0  0  0  0
  4  5  2  0  0  0  0
  5  7  1  0  0  0  0
  6  2  2  0  0  0  0
  7  3  2  0  0  0  0
  8  9  1  1  0  0  0
  8  4  1  0  0  0  0
 10 11  1  0  0  0  0
 10 12  1  0  0  0  0
 11 12  1  0  0  0  0
 12  8  1  6  0  0  0
 13 17  1  0  0  0  0
 14 18  1  0  0  0  0
 14  1  1  0  0  0  0
 15 14  2  0  0  0  0
 16 13  2  0  0  0  0
 16 15  1  0  0  0  0
 17 18  2  0  0  0  0
 21 24  2  0  0  0  0
 22 25  1  1  0  0  0
 22 21  1  0  0  0  0
 23 19  1  6  0  0  0
 23 26  1  0  0  0  0
 23 27  1  0  0  0  0
 26 22  1  0  0  0  0
 27 20  1  6  0  0  0
 27 24  1  0  0  0  0
M  END
>  <MODEL>
2

>  <REMARK>
 VINA RESULT:      -8.5      3.163      6.102
  Name = 
  6 active torsions:
  status: ('A' for Active; 'I' for Inactive)
    1  A    between atoms: C_1  and  N_15
    2  A    between atoms: C_1  and  C_18
    3  A    between atoms: C_2  and  N_15
    4  A    between atoms: C_8  and  C_14
    5  A    between atoms: C_8  and  C_16
    6  A    between atoms: C_9  and  N_15
                            x       y       z     vdW  Elec       q    Type
                         _______ _______ _______ _____ _____    ______ ____

>  <TORSDO>
F 6

$$$$
=
 OpenBabel11052413403D

 27 30  0  0  1  0  0  0  0  0999 V2000
  188.8920  177.2990  141.9850 N   0  0  0  0  0  0  0  0  0  0  0  0
  189.1250  177.4830  140.5700 C   0  0  0  0  0  0  0  0  0  0  0  0
  188.4650  178.5130  139.8720 C   0  0  0  0  0  3  0  0  0  0  0  0
  190.2220  176.8280  138.4930 C   0  0  0  0  0  0  0  0  0  0  0  0
  189.5590  177.8640  137.8190 C   0  0  0  0  0  3  0  0  0  0  0  0
  190.0060  176.6490  139.8610 C   0  0  0  0  0  3  0  0  0  0  0  0
  188.6770  178.7000  138.5060 C   0  0  0  0  0  3  0  0  0  0  0  0
  191.2560  175.9920  137.8020 C   0  0  2  0  0  3  0  0  0  0  0  0
  191.0040  174.5880  138.0800 N   0  0  0  0  0  1  0  0  0  0  0  0
  193.5420  175.3110  137.9130 O   0  0  0  0  0  0  0  0  0  0  0  0
  193.5730  176.4460  137.0820 C   0  0  0  0  0  2  0  0  0  0  0  0
  192.6650  176.3580  138.2500 C   0  0  1  0  0  3  0  0  0  0  0  0
  191.8790  177.7970  144.9670 C   0  0  0  0  0  3  0  0  0  0  0  0
  189.9290  177.4720  142.9740 C   0  0  0  0  0  0  0  0  0  0  0  0
  190.4780  178.7400  143.2300 C   0  0  0  0  0  3  0  0  0  0  0  0
  191.4510  178.9000  144.2220 C   0  0  0  0  0  3  0  0  0  0  0  0
  191.3290  176.5350  144.7270 C   0  0  0  0  0  3  0  0  0  0  0  0
  190.3570  176.3740  143.7360 C   0  0  0  0  0  3  0  0  0  0  0  0
  187.5770  176.8460  142.4470 C   0  0  0  0  0  2  0  0  0  0  0  0
  185.3820  179.1680  141.2280 Cl  0  0  0  0  0  0  0  0  0  0  0  0
  184.7690  178.9260  144.9620 C   0  0  0  0  0  3  0  0  0  0  0  0
  186.1620  178.6960  145.4730 C   0  0  1  0  0  3  0  0  0  0  0  0
  186.8420  177.9480  143.2000 C   0  0  2  0  0  3  0  0  0  0  0  0
  184.4360  178.6880  143.6850 C   0  0  0  0  0  3  0  0  0  0  0  0
  186.1070  178.2640  147.1940 Cl  0  0  0  0  0  0  0  0  0  0  0  0
  186.8530  177.5940  144.6850 C   0  0  0  0  0  2  0  0  0  0  0  0
  185.4000  178.1200  142.6720 C   0  0  1  0  0  3  0  0  0  0  0  0
  1 19  1  0  0  0  0
  1 14  1  0  0  0  0
  2  1  1  0  0  0  0
  3  2  1  0  0  0  0
  4  6  1  0  0  0  0
  5  4  2  0  0  0  0
  5  7  1  0  0  0  0
  6  2  2  0  0  0  0
  7  3  2  0  0  0  0
  8  9  1  1  0  0  0
  8  4  1  0  0  0  0
 10 12  1  0  0  0  0
 11 10  1  0  0  0  0
 11 12  1  0  0  0  0
 12  8  1  6  0  0  0
 14 15  2  0  0  0  0
 14 18  1  0  0  0  0
 15 16  1  0  0  0  0
 16 13  2  0  0  0  0
 17 13  1  0  0  0  0
 18 17  2  0  0  0  0
 21 22  1  0  0  0  0
 22 25  1  1  0  0  0
 23 19  1  6  0  0  0
 23 26  1  0  0  0  0
 24 21  2  0  0  0  0
 26 22  1  0  0  0  0
 27 20  1  6  0  0  0
 27 23  1  0  0  0  0
 27 24  1  0  0  0  0
M  END
>  <MODEL>
3

>  <REMARK>
 VINA RESULT:      -8.5      1.767      2.581
  Name = 
  6 active torsions:
  status: ('A' for Active; 'I' for Inactive)
    1  A    between atoms: C_1  and  N_15
    2  A    between atoms: C_1  and  C_18
    3  A    between atoms: C_2  and  N_15
    4  A    between atoms: C_8  and  C_14
    5  A    between atoms: C_8  and  C_16
    6  A    between atoms: C_9  and  N_15
                            x       y       z     vdW  Elec       q    Type
                         _______ _______ _______ _____ _____    ______ ____

>  <TORSDO>
F 6

$$$$
=
 OpenBabel11052413403D

 27 30  0  0  1  0  0  0  0  0999 V2000
  189.5440  177.9570  142.3480 N   0  0  0  0  0  0  0  0  0  0  0  0
  190.3200  177.4980  141.2170 C   0  0  0  0  0  0  0  0  0  0  0  0
  191.7180  177.6710  141.2010 C   0  0  0  0  0  3  0  0  0  0  0  0
  190.4620  176.4390  139.0250 C   0  0  0  0  0  0  0  0  0  0  0  0
  191.8530  176.6160  139.0320 C   0  0  0  0  0  3  0  0  0  0  0  0
  189.7080  176.8740  140.1170 C   0  0  0  0  0  3  0  0  0  0  0  0
  192.4790  177.2370  140.1150 C   0  0  0  0  0  3  0  0  0  0  0  0
  189.7840  175.6760  137.9280 C   0  0  2  0  0  3  0  0  0  0  0  0
  190.5170  174.4470  137.6750 N   0  0  0  0  0  1  0  0  0  0  0  0
  188.9770  175.7630  135.6830 O   0  0  0  0  0  0  0  0  0  0  0  0
  188.2830  176.8040  136.3270 C   0  0  0  0  0  2  0  0  0  0  0  0
  189.6960  176.4930  136.6460 C   0  0  1  0  0  3  0  0  0  0  0  0
  185.3050  178.2620  142.3110 C   0  0  0  0  0  3  0  0  0  0  0  0
  188.1030  178.0290  142.3250 C   0  0  0  0  0  0  0  0  0  0  0  0
  187.3320  177.3860  143.3080 C   0  0  0  0  0  3  0  0  0  0  0  0
  185.9380  177.5020  143.2980 C   0  0  0  0  0  3  0  0  0  0  0  0
  186.0650  178.9160  141.3370 C   0  0  0  0  0  3  0  0  0  0  0  0
  187.4580  178.8010  141.3460 C   0  0  0  0  0  3  0  0  0  0  0  0
  190.2330  178.4410  143.5460 C   0  0  0  0  0  2  0  0  0  0  0  0
  191.8830  175.4640  143.8770 Cl  0  0  0  0  0  0  0  0  0  0  0  0
  190.7590  176.4930  147.3500 C   0  0  0  0  0  3  0  0  0  0  0  0
  189.4410  177.1440  147.0500 C   0  0  1  0  0  3  0  0  0  0  0  0
  190.1520  177.4290  144.6830 C   0  0  2  0  0  3  0  0  0  0  0  0
  191.6960  176.3240  146.4050 C   0  0  0  0  0  3  0  0  0  0  0  0
  188.8350  177.9710  148.5000 Cl  0  0  0  0  0  0  0  0  0  0  0  0
  189.5750  178.1380  145.9060 C   0  0  0  0  0  2  0  0  0  0  0  0
  191.5380  176.8180  144.9870 C   0  0  1  0  0  3  0  0  0  0  0  0
  1 19  1  0  0  0  0
  2  1  1  0  0  0  0
  3  2  1  0  0  0  0
  4  5  2  0  0  0  0
  4  6  1  0  0  0  0
  5  7  1  0  0  0  0
  6  2  2  0  0  0  0
  7  3  2  0  0  0  0
  8  9  1  6  0  0  0
  8  4  1  0  0  0  0
 10 11  1  0  0  0  0
 10 12  1  0  0  0  0
 11 12  1  0  0  0  0
 12  8  1  1  0  0  0
 13 16  1  0  0  0  0
 14  1  1  0  0  0  0
 14 15  1  0  0  0  0
 16 15  2  0  0  0  0
 17 18  1  0  0  0  0
 17 13  2  0  0  0  0
 18 14  2  0  0  0  0
 22 21  1  0  0  0  0
 22 25  1  1  0  0  0
 23 19  1  6  0  0  0
 23 27  1  0  0  0  0
 23 26  1  0  0  0  0
 24 21  2  0  0  0  0
 26 22  1  0  0  0  0
 27 20  1  6  0  0  0
 27 24  1  0  0  0  0
M  END
>  <MODEL>
4

>  <REMARK>
 VINA RESULT:      -8.5      1.889      4.334
  Name = 
  6 active torsions:
  status: ('A' for Active; 'I' for Inactive)
    1  A    between atoms: C_1  and  N_15
    2  A    between atoms: C_1  and  C_18
    3  A    between atoms: C_2  and  N_15
    4  A    between atoms: C_8  and  C_14
    5  A    between atoms: C_8  and  C_16
    6  A    between atoms: C_9  and  N_15
                            x       y       z     vdW  Elec       q    Type
                         _______ _______ _______ _____ _____    ______ ____

>  <TORSDO>
F 6

$$$$
=
 OpenBabel11052413403D

 27 30  0  0  1  0  0  0  0  0999 V2000
  187.3340  177.3000  144.5860 N   0  0  0  0  0  0  0  0  0  0  0  0
  186.0750  177.8860  144.1850 C   0  0  0  0  0  0  0  0  0  0  0  0
  185.2390  178.4920  145.1420 C   0  0  0  0  0  3  0  0  0  0  0  0
  184.4360  178.4300  142.4620 C   0  0  0  0  0  0  0  0  0  0  0  0
  183.6220  179.0340  143.4320 C   0  0  0  0  0  3  0  0  0  0  0  0
  185.6570  177.8680  142.8430 C   0  0  0  0  0  3  0  0  0  0  0  0
  184.0190  179.0580  144.7690 C   0  0  0  0  0  3  0  0  0  0  0  0
  184.0840  178.4930  141.0070 C   0  0  2  0  0  3  0  0  0  0  0  0
  184.9270  179.4770  140.3500 N   0  0  0  0  0  1  0  0  0  0  0  0
  182.3530  178.9200  139.4190 O   0  0  0  0  0  0  0  0  0  0  0  0
  181.9150  177.7610  140.0850 C   0  0  0  0  0  2  0  0  0  0  0  0
  182.6190  178.8520  140.7990 C   0  0  1  0  0  3  0  0  0  0  0  0
  189.1060  177.9570  148.3930 C   0  0  0  0  0  3  0  0  0  0  0  0
  187.9370  177.5560  145.8720 C   0  0  0  0  0  0  0  0  0  0  0  0
  187.1950  178.1360  146.9150 C   0  0  0  0  0  3  0  0  0  0  0  0
  187.7800  178.3380  148.1690 C   0  0  0  0  0  3  0  0  0  0  0  0
  189.8470  177.3660  147.3660 C   0  0  0  0  0  3  0  0  0  0  0  0
  189.2640  177.1650  146.1110 C   0  0  0  0  0  3  0  0  0  0  0  0
  188.0790  176.4700  143.6360 C   0  0  0  0  0  2  0  0  0  0  0  0
  191.3710  177.3850  143.7930 Cl  0  0  0  0  0  0  0  0  0  0  0  0
  190.2950  177.7580  140.1760 C   0  0  0  0  0  3  0  0  0  0  0  0
  188.8780  178.2240  140.3390 C   0  0  1  0  0  3  0  0  0  0  0  0
  188.8770  177.3240  142.6580 C   0  0  2  0  0  3  0  0  0  0  0  0
  190.9500  177.1280  141.1620 C   0  0  0  0  0  3  0  0  0  0  0  0
  188.0530  178.2020  138.7670 Cl  0  0  0  0  0  0  0  0  0  0  0  0
  188.1280  177.3450  141.3280 C   0  0  0  0  0  2  0  0  0  0  0  0
  190.3140  176.7820  142.4880 C   0  0  1  0  0  3  0  0  0  0  0  0
  1 14  1  0  0  0  0
  2  1  1  0  0  0  0
  2  3  1  0  0  0  0
  4  6  1  0  0  0  0
  4  5  2  0  0  0  0
  5  7  1  0  0  0  0
  6  2  2  0  0  0  0
  7  3  2  0  0  0  0
  8  9  1  6  0  0  0
  8  4  1  0  0  0  0
 10 11  1  0  0  0  0
 10 12  1  0  0  0  0
 11 12  1  0  0  0  0
 12  8  1  6  0  0  0
 14 18  2  0  0  0  0
 14 15  1  0  0  0  0
 15 16  2  0  0  0  0
 16 13  1  0  0  0  0
 17 13  2  0  0  0  0
 18 17  1  0  0  0  0
 19  1  1  0  0  0  0
 21 22  1  0  0  0  0
 21 24  2  0  0  0  0
 22 25  1  6  0  0  0
 22 26  1  0  0  0  0
 23 19  1  1  0  0  0
 24 27  1  0  0  0  0
 26 23  1  0  0  0  0
 27 23  1  0  0  0  0
 27 20  1  1  0  0  0
M  END
>  <MODEL>
5

>  <REMARK>
 VINA RESULT:      -8.4      2.988      5.769
  Name = 
  6 active torsions:
  status: ('A' for Active; 'I' for Inactive)
    1  A    between atoms: C_1  and  N_15
    2  A    between atoms: C_1  and  C_18
    3  A    between atoms: C_2  and  N_15
    4  A    between atoms: C_8  and  C_14
    5  A    between atoms: C_8  and  C_16
    6  A    between atoms: C_9  and  N_15
                            x       y       z     vdW  Elec       q    Type
                         _______ _______ _______ _____ _____    ______ ____

>  <TORSDO>
F 6

$$$$
=
 OpenBabel11052413403D

 27 30  0  0  1  0  0  0  0  0999 V2000
  187.3990  177.6230  143.6610 N   0  0  0  0  0  0  0  0  0  0  0  0
  186.3680  178.1610  142.8010 C   0  0  0  0  0  0  0  0  0  0  0  0
  186.6300  178.3860  141.4360 C   0  0  0  0  0  3  0  0  0  0  0  0
  184.1000  178.9940  142.4660 C   0  0  0  0  0  0  0  0  0  0  0  0
  184.3820  179.2040  141.1080 C   0  0  0  0  0  3  0  0  0  0  0  0
  185.0900  178.4690  143.2990 C   0  0  0  0  0  3  0  0  0  0  0  0
  185.6460  178.9080  140.5960 C   0  0  0  0  0  3  0  0  0  0  0  0
  182.7200  179.1980  143.0110 C   0  0  2  0  0  3  0  0  0  0  0  0
  182.6410  178.6290  144.3460 N   0  0  0  0  0  1  0  0  0  0  0  0
  180.4200  178.5990  142.7770 O   0  0  0  0  0  0  0  0  0  0  0  0
  180.6210  179.5510  141.7610 C   0  0  0  0  0  2  0  0  0  0  0  0
  181.6630  178.5600  142.1190 C   0  0  1  0  0  3  0  0  0  0  0  0
  191.4510  177.1240  142.4820 C   0  0  0  0  0  3  0  0  0  0  0  0
  188.7680  177.4700  143.2320 C   0  0  0  0  0  0  0  0  0  0  0  0
  189.6590  178.5560  143.2620 C   0  0  0  0  0  3  0  0  0  0  0  0
  190.9950  178.3830  142.8860 C   0  0  0  0  0  3  0  0  0  0  0  0
  190.5750  176.0360  142.4630 C   0  0  0  0  0  3  0  0  0  0  0  0
  189.2390  176.2090  142.8390 C   0  0  0  0  0  3  0  0  0  0  0  0
  187.0430  177.1400  144.9980 C   0  0  0  0  0  2  0  0  0  0  0  0
  186.0400  179.4790  147.2840 Cl  0  0  0  0  0  0  0  0  0  0  0  0
  189.2220  177.9140  148.6300 C   0  0  0  0  0  3  0  0  0  0  0  0
  189.9920  177.6810  147.3630 C   0  0  1  0  0  3  0  0  0  0  0  0
  187.8680  177.8310  146.0770 C   0  0  2  0  0  3  0  0  0  0  0  0
  187.8920  178.0890  148.6270 C   0  0  0  0  0  3  0  0  0  0  0  0
  191.4220  176.6850  147.7040 Cl  0  0  0  0  0  0  0  0  0  0  0  0
  189.1230  176.9970  146.3190 C   0  0  0  0  0  2  0  0  0  0  0  0
  187.0510  178.0110  147.3760 C   0  0  1  0  0  3  0  0  0  0  0  0
  1 19  1  0  0  0  0
  2  6  1  0  0  0  0
  2  1  1  0  0  0  0
  3  2  2  0  0  0  0
  4  8  1  0  0  0  0
  4  6  2  0  0  0  0
  5  4  1  0  0  0  0
  7  5  2  0  0  0  0
  7  3  1  0  0  0  0
  8  9  1  1  0  0  0
 11 12  1  0  0  0  0
 11 10  1  0  0  0  0
 12 10  1  0  0  0  0
 12  8  1  1  0  0  0
 13 16  1  0  0  0  0
 14 15  1  0  0  0  0
 14  1  1  0  0  0  0
 16 15  2  0  0  0  0
 17 13  2  0  0  0  0
 17 18  1  0  0  0  0
 18 14  2  0  0  0  0
 22 25  1  1  0  0  0
 22 21  1  0  0  0  0
 23 19  1  6  0  0  0
 23 26  1  0  0  0  0
 23 27  1  0  0  0  0
 24 21  2  0  0  0  0
 26 22  1  0  0  0  0
 27 20  1  6  0  0  0
 27 24  1  0  0  0  0
M  END
>  <MODEL>
6

>  <REMARK>
 VINA RESULT:      -8.4      3.474      6.260
  Name = 
  6 active torsions:
  status: ('A' for Active; 'I' for Inactive)
    1  A    between atoms: C_1  and  N_15
    2  A    between atoms: C_1  and  C_18
    3  A    between atoms: C_2  and  N_15
    4  A    between atoms: C_8  and  C_14
    5  A    between atoms: C_8  and  C_16
    6  A    between atoms: C_9  and  N_15
                            x       y       z     vdW  Elec       q    Type
                         _______ _______ _______ _____ _____    ______ ____

>  <TORSDO>
F 6

$$$$
=
 OpenBabel11052413403D

 27 30  0  0  1  0  0  0  0  0999 V2000
  188.2470  178.1910  141.4600 N   0  0  0  0  0  0  0  0  0  0  0  0
  186.8770  178.4110  141.8670 C   0  0  0  0  0  0  0  0  0  0  0  0
  185.8810  178.6560  140.9020 C   0  0  0  0  0  3  0  0  0  0  0  0
  185.1830  178.6060  143.6110 C   0  0  0  0  0  0  0  0  0  0  0  0
  184.2060  178.8420  142.6320 C   0  0  0  0  0  3  0  0  0  0  0  0
  186.5060  178.3870  143.2230 C   0  0  0  0  0  3  0  0  0  0  0  0
  184.5560  178.8740  141.2810 C   0  0  0  0  0  3  0  0  0  0  0  0
  184.8110  178.4560  145.0550 C   0  0  2  0  0  3  0  0  0  0  0  0
  183.5010  179.0430  145.2780 N   0  0  0  0  0  1  0  0  0  0  0  0
  185.3530  179.0890  147.2920 O   0  0  0  0  0  0  0  0  0  0  0  0
  186.3440  178.1460  146.9640 C   0  0  0  0  0  2  0  0  0  0  0  0
  185.8320  179.1190  145.9700 C   0  0  1  0  0  3  0  0  0  0  0  0
  191.2290  176.5020  143.9730 C   0  0  0  0  0  3  0  0  0  0  0  0
  189.2360  177.6100  142.3360 C   0  0  0  0  0  0  0  0  0  0  0  0
  189.3330  176.2170  142.4910 C   0  0  0  0  0  3  0  0  0  0  0  0
  190.3250  175.6670  143.3090 C   0  0  0  0  0  3  0  0  0  0  0  0
  191.1470  177.8880  143.8130 C   0  0  0  0  0  3  0  0  0  0  0  0
  190.1560  178.4390  142.9960 C   0  0  0  0  0  3  0  0  0  0  0  0
  188.6850  178.6370  140.1350 C   0  0  0  0  0  2  0  0  0  0  0  0
  186.5280  177.4810  137.7460 Cl  0  0  0  0  0  0  0  0  0  0  0  0
  189.9740  176.1850  136.8380 C   0  0  0  0  0  3  0  0  0  0  0  0
  190.5590  175.9320  138.1970 C   0  0  1  0  0  3  0  0  0  0  0  0
  188.8610  177.4610  139.1820 C   0  0  2  0  0  3  0  0  0  0  0  0
  188.9270  177.0050  136.6600 C   0  0  0  0  0  3  0  0  0  0  0  0
  192.2930  175.5800  138.0490 Cl  0  0  0  0  0  0  0  0  0  0  0  0
  190.3500  177.1310  139.1090 C   0  0  0  0  0  2  0  0  0  0  0  0
  188.2860  177.7820  137.7850 C   0  0  1  0  0  3  0  0  0  0  0  0
  1  2  1  0  0  0  0
  1 14  1  0  0  0  0
  2  6  1  0  0  0  0
  3  7  1  0  0  0  0
  3  2  2  0  0  0  0
  4  8  1  0  0  0  0
  5  4  1  0  0  0  0
  6  4  2  0  0  0  0
  7  5  2  0  0  0  0
  8  9  1  6  0  0  0
 11 10  1  0  0  0  0
 12  8  1  6  0  0  0
 12 11  1  0  0  0  0
 12 10  1  0  0  0  0
 14 15  2  0  0  0  0
 14 18  1  0  0  0  0
 15 16  1  0  0  0  0
 16 13  2  0  0  0  0
 17 13  1  0  0  0  0
 18 17  2  0  0  0  0
 19  1  1  0  0  0  0
 21 22  1  0  0  0  0
 22 25  1  6  0  0  0
 22 26  1  0  0  0  0
 23 19  1  1  0  0  0
 24 21  2  0  0  0  0
 24 27  1  0  0  0  0
 26 23  1  0  0  0  0
 27 20  1  1  0  0  0
 27 23  1  0  0  0  0
M  END
>  <MODEL>
7

>  <REMARK>
 VINA RESULT:      -8.4      3.579      7.055
  Name = 
  6 active torsions:
  status: ('A' for Active; 'I' for Inactive)
    1  A    between atoms: C_1  and  N_15
    2  A    between atoms: C_1  and  C_18
    3  A    between atoms: C_2  and  N_15
    4  A    between atoms: C_8  and  C_14
    5  A    between atoms: C_8  and  C_16
    6  A    between atoms: C_9  and  N_15
                            x       y       z     vdW  Elec       q    Type
                         _______ _______ _______ _____ _____    ______ ____

>  <TORSDO>
F 6

$$$$
=
 OpenBabel11052413403D

 27 30  0  0  1  0  0  0  0  0999 V2000
  187.8690  177.3130  144.2020 N   0  0  0  0  0  0  0  0  0  0  0  0
  186.8170  177.9780  143.4640 C   0  0  0  0  0  0  0  0  0  0  0  0
  186.9790  178.2530  142.0930 C   0  0  0  0  0  3  0  0  0  0  0  0
  184.6100  179.0120  143.3740 C   0  0  0  0  0  0  0  0  0  0  0  0
  184.7900  179.2700  142.0070 C   0  0  0  0  0  3  0  0  0  0  0  0
  185.6200  178.3640  144.0900 C   0  0  0  0  0  3  0  0  0  0  0  0
  185.9740  178.8970  141.3700 C   0  0  0  0  0  3  0  0  0  0  0  0
  183.3050  179.2990  144.0510 C   0  0  2  0  0  3  0  0  0  0  0  0
  183.4230  179.0030  145.4690 N   0  0  0  0  0  1  0  0  0  0  0  0
  180.9990  178.7000  144.2020 O   0  0  0  0  0  0  0  0  0  0  0  0
  181.0870  179.3780  142.9730 C   0  0  0  0  0  2  0  0  0  0  0  0
  182.1680  178.4840  143.4500 C   0  0  1  0  0  3  0  0  0  0  0  0
  188.5090  177.8590  148.3680 C   0  0  0  0  0  3  0  0  0  0  0  0
  188.0890  177.5320  145.6110 C   0  0  0  0  0  0  0  0  0  0  0  0
  187.0850  178.0880  146.4210 C   0  0  0  0  0  3  0  0  0  0  0  0
  187.2960  178.2520  147.7940 C   0  0  0  0  0  3  0  0  0  0  0  0
  189.5080  177.2930  147.5710 C   0  0  0  0  0  3  0  0  0  0  0  0
  189.2970  177.1280  146.1990 C   0  0  0  0  0  3  0  0  0  0  0  0
  188.8040  176.4370  143.4920 C   0  0  0  0  0  2  0  0  0  0  0  0
  191.0180  178.9940  143.9990 Cl  0  0  0  0  0  0  0  0  0  0  0  0
  191.8150  177.5030  140.6050 C   0  0  0  0  0  3  0  0  0  0  0  0
  190.4440  177.1390  140.1160 C   0  0  1  0  0  3  0  0  0  0  0  0
  189.6180  177.2090  142.4620 C   0  0  2  0  0  3  0  0  0  0  0  0
  192.0720  177.7010  141.9060 C   0  0  0  0  0  3  0  0  0  0  0  0
  190.5720  176.1530  138.6440 Cl  0  0  0  0  0  0  0  0  0  0  0  0
  189.6710  176.3780  141.1820 C   0  0  0  0  0  2  0  0  0  0  0  0
  191.0360  177.5230  142.9900 C   0  0  1  0  0  3  0  0  0  0  0  0
  1 14  1  0  0  0  0
  2  6  1  0  0  0  0
  2  1  1  0  0  0  0
  3  2  2  0  0  0  0
  4  8  1  0  0  0  0
  4  6  2  0  0  0  0
  5  4  1  0  0  0  0
  7  5  2  0  0  0  0
  7  3  1  0  0  0  0
  8  9  1  1  0  0  0
 11 12  1  0  0  0  0
 11 10  1  0  0  0  0
 12  8  1  1  0  0  0
 12 10  1  0  0  0  0
 14 18  2  0  0  0  0
 14 15  1  0  0  0  0
 15 16  2  0  0  0  0
 16 13  1  0  0  0  0
 17 13  2  0  0  0  0
 18 17  1  0  0  0  0
 19  1  1  0  0  0  0
 21 24  2  0  0  0  0
 22 25  1  6  0  0  0
 22 21  1  0  0  0  0
 22 26  1  0  0  0  0
 23 27  1  0  0  0  0
 23 19  1  1  0  0  0
 24 27  1  0  0  0  0
 26 23  1  0  0  0  0
 27 20  1  6  0  0  0
M  END
>  <MODEL>
8

>  <REMARK>
 VINA RESULT:      -8.4      3.363      6.504
  Name = 
  6 active torsions:
  status: ('A' for Active; 'I' for Inactive)
    1  A    between atoms: C_1  and  N_15
    2  A    between atoms: C_1  and  C_18
    3  A    between atoms: C_2  and  N_15
    4  A    between atoms: C_8  and  C_14
    5  A    between atoms: C_8  and  C_16
    6  A    between atoms: C_9  and  N_15
                            x       y       z     vdW  Elec       q    Type
                         _______ _______ _______ _____ _____    ______ ____

>  <TORSDO>
F 6

$$$$
=
 OpenBabel11052413403D

 27 30  0  0  1  0  0  0  0  0999 V2000
  188.9040  177.2150  142.0690 N   0  0  0  0  0  0  0  0  0  0  0  0
  189.2100  177.2690  140.6570 C   0  0  0  0  0  0  0  0  0  0  0  0
  190.4570  176.8180  140.1840 C   0  0  0  0  0  3  0  0  0  0  0  0
  188.5840  177.8230  138.3660 C   0  0  0  0  0  0  0  0  0  0  0  0
  189.8300  177.3620  137.9170 C   0  0  0  0  0  3  0  0  0  0  0  0
  188.2800  177.7680  139.7280 C   0  0  0  0  0  3  0  0  0  0  0  0
  190.7670  176.8680  138.8250 C   0  0  0  0  0  3  0  0  0  0  0  0
  187.5230  178.2520  137.3980 C   0  0  2  0  0  3  0  0  0  0  0  0
  186.3260  178.6270  138.1320 N   0  0  0  0  0  1  0  0  0  0  0  0
  186.0470  177.5180  135.6700 O   0  0  0  0  0  0  0  0  0  0  0  0
  187.2850  177.6540  135.0160 C   0  0  0  0  0  2  0  0  0  0  0  0
  187.1880  177.1470  136.4050 C   0  0  1  0  0  3  0  0  0  0  0  0
  191.7620  177.8720  145.1450 C   0  0  0  0  0  3  0  0  0  0  0  0
  189.8980  177.4420  143.0900 C   0  0  0  0  0  0  0  0  0  0  0  0
  190.4130  178.7280  143.3230 C   0  0  0  0  0  3  0  0  0  0  0  0
  191.3440  178.9400  144.3450 C   0  0  0  0  0  3  0  0  0  0  0  0
  191.2440  176.5920  144.9280 C   0  0  0  0  0  3  0  0  0  0  0  0
  190.3140  176.3790  143.9060 C   0  0  0  0  0  3  0  0  0  0  0  0
  187.5540  176.8440  142.5000 C   0  0  0  0  0  2  0  0  0  0  0  0
  185.4990  179.3650  141.4430 Cl  0  0  0  0  0  0  0  0  0  0  0  0
  184.9360  178.9760  145.1730 C   0  0  0  0  0  3  0  0  0  0  0  0
  186.3180  178.6280  145.6430 C   0  0  1  0  0  3  0  0  0  0  0  0
  186.9070  177.9520  143.3220 C   0  0  2  0  0  3  0  0  0  0  0  0
  184.5650  178.8250  143.8930 C   0  0  0  0  0  3  0  0  0  0  0  0
  186.2650  178.1130  147.3410 Cl  0  0  0  0  0  0  0  0  0  0  0  0
  186.9200  177.5240  144.7870 C   0  0  0  0  0  2  0  0  0  0  0  0
  185.4710  178.2460  142.8330 C   0  0  1  0  0  3  0  0  0  0  0  0
  1 19  1  0  0  0  0
  1 14  1  0  0  0  0
  2  1  1  0  0  0  0
  3  2  1  0  0  0  0
  4  6  1  0  0  0  0
  5  4  2  0  0  0  0
  5  7  1  0  0  0  0
  6  2  2  0  0  0  0
  7  3  2  0  0  0  0
  8  9  1  1  0  0  0
  8  4  1  0  0  0  0
 10 12  1  0  0  0  0
 11 10  1  0  0  0  0
 11 12  1  0  0  0  0
 12  8  1  1  0  0  0
 14 15  2  0  0  0  0
 14 18  1  0  0  0  0
 15 16  1  0  0  0  0
 16 13  2  0  0  0  0
 17 13  1  0  0  0  0
 18 17  2  0  0  0  0
 21 22  1  0  0  0  0
 22 25  1  1  0  0  0
 23 19  1  6  0  0  0
 23 26  1  0  0  0  0
 24 21  2  0  0  0  0
 26 22  1  0  0  0  0
 27 20  1  6  0  0  0
 27 23  1  0  0  0  0
 27 24  1  0  0  0  0
M  END
>  <MODEL>
9

>  <REMARK>
 VINA RESULT:      -8.2      1.868      2.521
  Name = 
  6 active torsions:
  status: ('A' for Active; 'I' for Inactive)
    1  A    between atoms: C_1  and  N_15
    2  A    between atoms: C_1  and  C_18
    3  A    between atoms: C_2  and  N_15
    4  A    between atoms: C_8  and  C_14
    5  A    between atoms: C_8  and  C_16
    6  A    between atoms: C_9  and  N_15
                            x       y       z     vdW  Elec       q    Type
                         _______ _______ _______ _____ _____    ______ ____

>  <TORSDO>
F 6

$$$$
