=
 OpenBabel11052415553D

 34 39  0  0  1  0  0  0  0  0999 V2000
  189.2460  177.4480  143.4610 C   0  0  0  0  0  0  0  0  0  0  0  0
  192.2780  176.8810  141.3780 C   0  0  0  0  0  3  0  0  0  0  0  0
  191.9640  176.7640  143.7680 C   0  0  0  0  0  3  0  0  0  0  0  0
  187.5030  177.6810  145.7850 C   0  0  0  0  0  3  0  0  0  0  0  0
  187.8210  177.8030  143.3230 C   0  0  0  0  0  3  0  0  0  0  0  0
  188.9610  177.3200  145.8850 C   0  0  0  0  0  0  0  0  0  0  0  0
  190.8560  176.7490  147.2900 C   0  0  0  0  0  3  0  0  0  0  0  0
  189.5070  177.0860  147.1510 C   0  0  0  0  0  3  0  0  0  0  0  0
  187.0000  177.9170  144.3770 C   0  0  0  0  0  0  0  0  0  0  0  0
  191.1430  176.8730  144.8900 C   0  0  0  0  0  0  0  0  0  0  0  0
  189.7780  177.2150  144.7430 C   0  0  2  0  0  3  0  0  0  0  0  0
  191.6720  176.6420  146.1620 C   0  0  0  0  0  3  0  0  0  0  0  0
  191.7800  177.1050  140.0910 C   0  0  0  0  0  0  0  0  0  0  0  0
  190.4290  177.4450  139.9270 C   0  0  0  0  0  3  0  0  0  0  0  0
  191.4440  176.9930  142.4930 C   0  0  0  0  0  0  0  0  0  0  0  0
  189.5870  177.5600  141.0350 C   0  0  0  0  0  3  0  0  0  0  0  0
  190.0800  177.3370  142.3290 C   0  0  0  0  0  0  0  0  0  0  0  0
  183.4180  178.9960  145.0530 C   0  0  0  0  0  3  0  0  0  0  0  0
  185.0220  178.2520  142.8790 C   0  0  0  0  0  3  0  0  0  0  0  0
  180.9900  179.2750  142.2690 C   0  0  0  0  0  0  0  0  0  0  0  0
  181.5360  179.3050  143.5610 C   0  0  0  0  0  3  0  0  0  0  0  0
  182.8750  178.9660  143.7670 C   0  0  0  0  0  0  0  0  0  0  0  0
  183.1410  178.5610  141.3860 C   0  0  0  0  0  3  0  0  0  0  0  0
  183.6830  178.5910  142.6720 C   0  0  0  0  0  0  0  0  0  0  0  0
  181.7990  178.9020  141.1860 C   0  0  0  0  0  3  0  0  0  0  0  0
  185.5760  178.2790  144.1690 C   0  0  0  0  0  0  0  0  0  0  0  0
  184.7590  178.6540  145.2520 C   0  0  0  0  0  3  0  0  0  0  0  0
  179.5780  179.6340  142.0580 C   0  0  0  0  0  0  0  0  0  0  0  0
  178.9360  180.2500  142.9500 O   0  0  0  0  0  1  0  0  0  0  0  0
  178.9390  179.2960  140.8720 O   0  0  0  0  0  0  0  0  0  0  0  0
  192.7050  175.9120  138.0200 C   0  0  0  0  0  0  0  0  0  0  0  0
  193.7060  175.9490  136.9230 C   0  0  0  0  0  1  0  0  0  0  0  0
  191.9040  174.9440  138.0910 O   0  0  0  0  0  0  0  0  0  0  0  0
  192.6720  176.9800  138.9750 N   0  0  0  0  0  2  0  0  0  0  0  0
  2 15  1  0  0  0  0
  3 10  1  0  0  0  0
  4  6  2  0  0  0  0
  5  1  1  0  0  0  0
  5  9  2  0  0  0  0
  6  8  1  0  0  0  0
  8  7  2  0  0  0  0
  9  4  1  0  0  0  0
 10 12  2  0  0  0  0
 11  1  1  1  0  0  0
 11 10  1  0  0  0  0
 11  6  1  0  0  0  0
 12  7  1  0  0  0  0
 13  2  2  0  0  0  0
 14 13  1  0  0  0  0
 14 16  2  0  0  0  0
 15  3  2  0  0  0  0
 16 17  1  0  0  0  0
 17 15  1  0  0  0  0
 17  1  2  0  0  0  0
 18 27  1  0  0  0  0
 19 26  1  0  0  0  0
 20 21  2  0  0  0  0
 21 22  1  0  0  0  0
 22 18  2  0  0  0  0
 23 24  1  0  0  0  0
 24 19  2  0  0  0  0
 24 22  1  0  0  0  0
 25 23  2  0  0  0  0
 25 20  1  0  0  0  0
 26  9  1  0  0  0  0
 26 27  2  0  0  0  0
 28 20  1  0  0  0  0
 28 29  1  0  0  0  0
 30 28  2  0  0  0  0
 31 33  2  0  0  0  0
 31 34  1  0  0  0  0
 32 31  1  0  0  0  0
 34 13  1  0  0  0  0
M  END
>  <MODEL>
1

>  <REMARK>
 VINA RESULT:     -12.3      0.000      0.000
  Name = 
  3 active torsions:
  status: ('A' for Active; 'I' for Inactive)
    1  A    between atoms: C_7  and  C_11
    2  A    between atoms: C_18  and  C_30
    3  A    between atoms: C_23  and  N_25
                            x       y       z     vdW  Elec       q    Type
                         _______ _______ _______ _____ _____    ______ ____

>  <TORSDO>
F 3

$$$$
=
 OpenBabel11052415553D

 34 39  0  0  1  0  0  0  0  0999 V2000
  187.1440  178.0220  144.3010 C   0  0  0  0  0  0  0  0  0  0  0  0
  183.5630  178.7660  144.9920 C   0  0  0  0  0  3  0  0  0  0  0  0
  185.4170  178.4080  146.4950 C   0  0  0  0  0  3  0  0  0  0  0  0
  189.9710  177.4490  144.7200 C   0  0  0  0  0  3  0  0  0  0  0  0
  188.0650  177.8180  143.1670 C   0  0  0  0  0  3  0  0  0  0  0  0
  189.0000  177.6640  145.8500 C   0  0  0  0  0  0  0  0  0  0  0  0
  188.6080  177.7780  148.2430 C   0  0  0  0  0  3  0  0  0  0  0  0
  189.4740  177.5860  147.1640 C   0  0  0  0  0  3  0  0  0  0  0  0
  189.3690  177.5530  143.3350 C   0  0  0  0  0  0  0  0  0  0  0  0
  186.7670  178.1340  146.7130 C   0  0  0  0  0  0  0  0  0  0  0  0
  187.6390  177.9400  145.6160 C   0  0  2  0  0  3  0  0  0  0  0  0
  187.2570  178.0520  148.0180 C   0  0  0  0  0  3  0  0  0  0  0  0
  183.0410  178.8550  143.6990 C   0  0  0  0  0  0  0  0  0  0  0  0
  183.8910  178.6650  142.6000 C   0  0  0  0  0  3  0  0  0  0  0  0
  184.9180  178.4920  145.1950 C   0  0  0  0  0  0  0  0  0  0  0  0
  185.2470  178.3900  142.7910 C   0  0  0  0  0  3  0  0  0  0  0  0
  185.7780  178.2990  144.0860 C   0  0  0  0  0  0  0  0  0  0  0  0
  192.4530  177.3680  141.1200 C   0  0  0  0  0  3  0  0  0  0  0  0
  189.6860  176.9690  140.9210 C   0  0  0  0  0  3  0  0  0  0  0  0
  192.1430  176.4070  137.5550 C   0  0  0  0  0  0  0  0  0  0  0  0
  192.7060  176.7940  138.7800 C   0  0  0  0  0  3  0  0  0  0  0  0
  191.8920  176.9820  139.9000 C   0  0  0  0  0  0  0  0  0  0  0  0
  189.9370  176.3950  138.5820 C   0  0  0  0  0  3  0  0  0  0  0  0
  190.4990  176.7810  139.8000 C   0  0  0  0  0  0  0  0  0  0  0  0
  190.7570  176.2090  137.4640 C   0  0  0  0  0  3  0  0  0  0  0  0
  190.2420  177.3570  142.1510 C   0  0  0  0  0  0  0  0  0  0  0  0
  191.6320  177.5540  142.2370 C   0  0  0  0  0  3  0  0  0  0  0  0
  193.0050  176.2110  136.3790 C   0  0  0  0  0  0  0  0  0  0  0  0
  192.5650  175.6190  135.3570 O   0  0  0  0  0  0  0  0  0  0  0  0
  194.3130  176.6780  136.3830 O   0  0  0  0  0  1  0  0  0  0  0  0
  180.8300  178.8190  142.4030 C   0  0  0  0  0  0  0  0  0  0  0  0
  179.3920  179.1930  142.4110 C   0  0  0  0  0  1  0  0  0  0  0  0
  181.3080  178.2280  141.3990 O   0  0  0  0  0  0  0  0  0  0  0  0
  181.6440  179.1380  143.5380 N   0  0  0  0  0  2  0  0  0  0  0  0
  2 15  1  0  0  0  0
  3 10  1  0  0  0  0
  4  6  2  0  0  0  0
  5  9  2  0  0  0  0
  5  1  1  0  0  0  0
  6  8  1  0  0  0  0
  8  7  2  0  0  0  0
  9  4  1  0  0  0  0
 10 12  2  0  0  0  0
 11  1  1  1  0  0  0
 11  6  1  0  0  0  0
 11 10  1  0  0  0  0
 12  7  1  0  0  0  0
 13  2  2  0  0  0  0
 14 16  2  0  0  0  0
 14 13  1  0  0  0  0
 15  3  2  0  0  0  0
 16 17  1  0  0  0  0
 17  1  2  0  0  0  0
 17 15  1  0  0  0  0
 18 27  1  0  0  0  0
 19 26  1  0  0  0  0
 20 21  2  0  0  0  0
 21 22  1  0  0  0  0
 22 18  2  0  0  0  0
 23 24  1  0  0  0  0
 24 22  1  0  0  0  0
 24 19  2  0  0  0  0
 25 20  1  0  0  0  0
 25 23  2  0  0  0  0
 26 27  2  0  0  0  0
 26  9  1  0  0  0  0
 28 30  1  0  0  0  0
 28 20  1  0  0  0  0
 29 28  2  0  0  0  0
 31 32  1  0  0  0  0
 31 34  1  0  0  0  0
 33 31  2  0  0  0  0
 34 13  1  0  0  0  0
M  END
>  <MODEL>
2

>  <REMARK>
 VINA RESULT:     -12.3      2.421      9.001
  Name = 
  3 active torsions:
  status: ('A' for Active; 'I' for Inactive)
    1  A    between atoms: C_7  and  C_11
    2  A    between atoms: C_18  and  C_30
    3  A    between atoms: C_23  and  N_25
                            x       y       z     vdW  Elec       q    Type
                         _______ _______ _______ _____ _____    ______ ____

>  <TORSDO>
F 3

$$$$
=
 OpenBabel11052415553D

 34 39  0  0  1  0  0  0  0  0999 V2000
  185.3160  178.4270  142.4810 C   0  0  0  0  0  0  0  0  0  0  0  0
  184.8240  178.6580  138.7990 C   0  0  0  0  0  3  0  0  0  0  0  0
  183.2440  178.8390  140.6140 C   0  0  0  0  0  3  0  0  0  0  0  0
  184.7530  178.4010  145.3410 C   0  0  0  0  0  3  0  0  0  0  0  0
  186.3850  178.2140  143.4760 C   0  0  0  0  0  3  0  0  0  0  0  0
  183.6910  178.6160  144.2970 C   0  0  0  0  0  0  0  0  0  0  0  0
  181.3520  179.0150  143.7810 C   0  0  0  0  0  3  0  0  0  0  0  0
  182.3710  178.8120  144.7160 C   0  0  0  0  0  3  0  0  0  0  0  0
  186.1510  178.1980  144.7960 C   0  0  0  0  0  0  0  0  0  0  0  0
  182.9590  178.8290  141.9800 C   0  0  0  0  0  0  0  0  0  0  0  0
  183.9940  178.6230  142.9220 C   0  0  1  0  0  3  0  0  0  0  0  0
  181.6460  179.0230  142.4150 C   0  0  0  0  0  3  0  0  0  0  0  0
  186.1270  178.4670  138.3300 C   0  0  0  0  0  0  0  0  0  0  0  0
  187.1650  178.2610  139.2500 C   0  0  0  0  0  3  0  0  0  0  0  0
  184.5520  178.6460  140.1690 C   0  0  0  0  0  0  0  0  0  0  0  0
  186.9050  178.2470  140.6220 C   0  0  0  0  0  3  0  0  0  0  0  0
  185.6000  178.4380  141.1000 C   0  0  0  0  0  0  0  0  0  0  0  0
  188.1950  178.0820  147.9980 C   0  0  0  0  0  3  0  0  0  0  0  0
  188.4880  177.4470  145.2840 C   0  0  0  0  0  3  0  0  0  0  0  0
  191.6750  176.8140  147.9530 C   0  0  0  0  0  0  0  0  0  0  0  0
  190.4630  177.3430  148.4190 C   0  0  0  0  0  3  0  0  0  0  0  0
  189.4020  177.5550  147.5350 C   0  0  0  0  0  0  0  0  0  0  0  0
  190.7560  176.7090  145.7030 C   0  0  0  0  0  3  0  0  0  0  0  0
  189.5500  177.2350  146.1680 C   0  0  0  0  0  0  0  0  0  0  0  0
  191.8150  176.4990  146.5930 C   0  0  0  0  0  3  0  0  0  0  0  0
  187.2720  177.9770  145.7430 C   0  0  0  0  0  0  0  0  0  0  0  0
  187.1370  178.2910  147.1080 C   0  0  0  0  0  3  0  0  0  0  0  0
  192.7900  176.5940  148.8890 C   0  0  0  0  0  0  0  0  0  0  0  0
  193.2600  175.4380  149.0600 O   0  0  0  0  0  0  0  0  0  0  0  0
  193.3350  177.6600  149.5940 O   0  0  0  0  0  1  0  0  0  0  0  0
  186.4890  177.3500  136.0510 C   0  0  0  0  0  0  0  0  0  0  0  0
  186.7300  177.5640  134.6010 C   0  0  0  0  0  1  0  0  0  0  0  0
  186.4020  176.1760  136.4960 O   0  0  0  0  0  0  0  0  0  0  0  0
  186.3600  178.4870  136.9150 N   0  0  0  0  0  2  0  0  0  0  0  0
  1 11  1  0  0  0  0
  1  5  1  0  0  0  0
  2 15  1  0  0  0  0
  3 10  1  0  0  0  0
  5  9  2  0  0  0  0
  6  8  1  0  0  0  0
  6  4  2  0  0  0  0
  7  8  2  0  0  0  0
  9  4  1  0  0  0  0
  9 26  1  0  0  0  0
 10 12  2  0  0  0  0
 11 10  1  1  0  0  0
 11  6  1  0  0  0  0
 12  7  1  0  0  0  0
 13  2  2  0  0  0  0
 13 14  1  0  0  0  0
 14 16  2  0  0  0  0
 15  3  2  0  0  0  0
 15 17  1  0  0  0  0
 16 17  1  0  0  0  0
 17  1  2  0  0  0  0
 19 26  2  0  0  0  0
 19 24  1  0  0  0  0
 20 21  1  0  0  0  0
 20 28  1  0  0  0  0
 22 18  1  0  0  0  0
 22 21  2  0  0  0  0
 23 24  2  0  0  0  0
 23 25  1  0  0  0  0
 24 22  1  0  0  0  0
 25 20  2  0  0  0  0
 26 27  1  0  0  0  0
 27 18  2  0  0  0  0
 28 29  2  0  0  0  0
 28 30  1  0  0  0  0
 31 33  2  0  0  0  0
 31 34  1  0  0  0  0
 32 31  1  0  0  0  0
 34 13  1  0  0  0  0
M  END
>  <MODEL>
3

>  <REMARK>
 VINA RESULT:     -10.4      3.809      8.347
  Name = 
  3 active torsions:
  status: ('A' for Active; 'I' for Inactive)
    1  A    between atoms: C_7  and  C_11
    2  A    between atoms: C_18  and  C_30
    3  A    between atoms: C_23  and  N_25
                            x       y       z     vdW  Elec       q    Type
                         _______ _______ _______ _____ _____    ______ ____

>  <TORSDO>
F 3

$$$$
=
 OpenBabel11052415553D

 34 39  0  0  1  0  0  0  0  0999 V2000
  191.0150  176.6210  138.2230 C   0  0  0  0  0  0  0  0  0  0  0  0
  193.3640  175.5090  135.5590 C   0  0  0  0  0  3  0  0  0  0  0  0
  191.1110  176.3610  135.4180 C   0  0  0  0  0  3  0  0  0  0  0  0
  188.6230  177.6430  139.5380 C   0  0  0  0  0  3  0  0  0  0  0  0
  190.9440  176.7660  139.6890 C   0  0  0  0  0  3  0  0  0  0  0  0
  188.7340  177.4820  138.0460 C   0  0  0  0  0  0  0  0  0  0  0  0
  187.6990  177.7030  135.8610 C   0  0  0  0  0  3  0  0  0  0  0  0
  187.6400  177.8380  137.2510 C   0  0  0  0  0  3  0  0  0  0  0  0
  189.8550  177.2330  140.3170 C   0  0  0  0  0  0  0  0  0  0  0  0
  189.9580  176.8510  136.0320 C   0  0  0  0  0  0  0  0  0  0  0  0
  189.9040  176.9850  137.4390 C   0  0  2  0  0  3  0  0  0  0  0  0
  188.8560  177.2110  135.2530 C   0  0  0  0  0  3  0  0  0  0  0  0
  194.4840  175.1400  136.3090 C   0  0  0  0  0  0  0  0  0  0  0  0
  194.4470  175.2650  137.7050 C   0  0  0  0  0  3  0  0  0  0  0  0
  192.2170  175.9990  136.1870 C   0  0  0  0  0  0  0  0  0  0  0  0
  193.3050  175.7540  138.3440 C   0  0  0  0  0  3  0  0  0  0  0  0
  192.1770  176.1260  137.5970 C   0  0  0  0  0  0  0  0  0  0  0  0
  191.0410  177.6020  143.9090 C   0  0  0  0  0  3  0  0  0  0  0  0
  188.6330  177.3360  142.5000 C   0  0  0  0  0  3  0  0  0  0  0  0
  188.5950  177.6770  146.6900 C   0  0  0  0  0  0  0  0  0  0  0  0
  189.8120  177.6960  145.9940 C   0  0  0  0  0  3  0  0  0  0  0  0
  189.8290  177.5830  144.6020 C   0  0  0  0  0  0  0  0  0  0  0  0
  187.4040  177.4300  144.5840 C   0  0  0  0  0  3  0  0  0  0  0  0
  188.6160  177.4490  143.8920 C   0  0  0  0  0  0  0  0  0  0  0  0
  187.3930  177.5440  145.9770 C   0  0  0  0  0  3  0  0  0  0  0  0
  189.8480  177.3540  141.7960 C   0  0  0  0  0  0  0  0  0  0  0  0
  191.0500  177.4880  142.5160 C   0  0  0  0  0  3  0  0  0  0  0  0
  188.5840  177.7960  148.1570 C   0  0  0  0  0  0  0  0  0  0  0  0
  187.5550  177.4850  148.8150 O   0  0  0  0  0  0  0  0  0  0  0  0
  189.7090  178.2530  148.8320 O   0  0  0  0  0  1  0  0  0  0  0  0
  196.9240  175.2710  135.5370 C   0  0  0  0  0  0  0  0  0  0  0  0
  198.0120  174.6040  134.7750 C   0  0  0  0  0  1  0  0  0  0  0  0
  197.1500  176.3780  136.0940 O   0  0  0  0  0  0  0  0  0  0  0  0
  195.6400  174.6410  135.6220 N   0  0  0  0  0  2  0  0  0  0  0  0
  1  5  2  0  0  0  0
  2 15  2  0  0  0  0
  2 13  1  0  0  0  0
  3 10  2  0  0  0  0
  3 15  1  0  0  0  0
  4  9  2  0  0  0  0
  5  9  1  0  0  0  0
  6  4  1  0  0  0  0
  7  8  1  0  0  0  0
  8  6  2  0  0  0  0
  9 26  1  0  0  0  0
 11 10  1  1  0  0  0
 11  6  1  0  0  0  0
 11  1  1  0  0  0  0
 12  7  2  0  0  0  0
 12 10  1  0  0  0  0
 13 14  2  0  0  0  0
 14 16  1  0  0  0  0
 15 17  1  0  0  0  0
 17  1  1  0  0  0  0
 17 16  2  0  0  0  0
 18 22  1  0  0  0  0
 19 24  1  0  0  0  0
 20 28  1  0  0  0  0
 21 20  1  0  0  0  0
 22 21  2  0  0  0  0
 23 25  1  0  0  0  0
 24 23  2  0  0  0  0
 24 22  1  0  0  0  0
 25 20  2  0  0  0  0
 26 19  2  0  0  0  0
 26 27  1  0  0  0  0
 27 18  2  0  0  0  0
 28 29  2  0  0  0  0
 28 30  1  0  0  0  0
 31 34  1  0  0  0  0
 31 33  2  0  0  0  0
 32 31  1  0  0  0  0
 34 13  1  0  0  0  0
M  END
>  <MODEL>
4

>  <REMARK>
 VINA RESULT:     -10.3      4.404      7.545
  Name = 
  3 active torsions:
  status: ('A' for Active; 'I' for Inactive)
    1  A    between atoms: C_7  and  C_11
    2  A    between atoms: C_18  and  C_30
    3  A    between atoms: C_23  and  N_25
                            x       y       z     vdW  Elec       q    Type
                         _______ _______ _______ _____ _____    ______ ____

>  <TORSDO>
F 3

$$$$
=
 OpenBabel11052415553D

 34 39  0  0  0  0  0  0  0  0999 V2000
  188.7090  177.4830  145.0050 C   0  0  0  0  0  0  0  0  0  0  0  0
  190.4720  177.0010  148.2470 C   0  0  0  0  0  3  0  0  0  0  0  0
  188.2070  177.6820  147.7710 C   0  0  0  0  0  3  0  0  0  0  0  0
  186.6160  178.0870  143.0690 C   0  0  0  0  0  2  0  0  0  0  0  0
  188.9510  177.3840  143.5530 C   0  0  0  0  0  3  0  0  0  0  0  0
  186.4090  178.1750  144.5560 C   0  0  0  0  0  0  0  0  0  0  0  0
  184.9170  178.6610  146.4090 C   0  0  0  0  0  3  0  0  0  0  0  0
  185.1540  178.5650  145.0350 C   0  0  0  0  0  3  0  0  0  0  0  0
  188.0040  177.6570  142.6430 C   0  0  0  0  0  0  0  0  0  0  0  0
  187.1950  177.9750  146.8570 C   0  0  0  0  0  0  0  0  0  0  0  0
  187.4400  177.8770  145.4680 C   0  0  0  0  0  0  0  0  0  0  0  0
  185.9350  178.3670  147.3180 C   0  0  0  0  0  3  0  0  0  0  0  0
  191.7430  176.6060  147.8190 C   0  0  0  0  0  0  0  0  0  0  0  0
  192.0040  176.5030  146.4450 C   0  0  0  0  0  3  0  0  0  0  0  0
  189.4670  177.2900  147.3210 C   0  0  0  0  0  0  0  0  0  0  0  0
  191.0070  176.7910  145.5100 C   0  0  0  0  0  3  0  0  0  0  0  0
  189.7290  177.1880  145.9320 C   0  0  0  0  0  0  0  0  0  0  0  0
  187.7670  178.0070  138.8660 C   0  0  0  0  0  3  0  0  0  0  0  0
  189.4560  176.8410  140.7740 C   0  0  0  0  0  3  0  0  0  0  0  0
  190.3480  176.4970  136.6790 C   0  0  0  0  0  0  0  0  0  0  0  0
  189.2050  177.1960  137.0940 C   0  0  0  0  0  3  0  0  0  0  0  0
  188.9050  177.3120  138.4530 C   0  0  0  0  0  0  0  0  0  0  0  0
  190.8940  176.0280  139.0030 C   0  0  0  0  0  3  0  0  0  0  0  0
  189.7560  176.7240  139.4140 C   0  0  0  0  0  0  0  0  0  0  0  0
  191.1890  175.9160  137.6410 C   0  0  0  0  0  3  0  0  0  0  0  0
  188.3130  177.5390  141.1970 C   0  0  0  0  0  0  0  0  0  0  0  0
  187.4740  178.1200  140.2280 C   0  0  0  0  0  3  0  0  0  0  0  0
  190.6580  176.3770  135.2450 C   0  0  0  0  0  0  0  0  0  0  0  0
  191.0690  177.3760  134.5960 O   0  0  0  0  0  1  0  0  0  0  0  0
  190.5020  175.1610  134.5940 O   0  0  0  0  0  0  0  0  0  0  0  0
  193.2850  177.2310  149.7680 C   0  0  0  0  0  0  0  0  0  0  0  0
  194.3240  176.7540  150.7180 C   0  0  0  0  0  1  0  0  0  0  0  0
  192.9010  178.4290  149.8250 O   0  0  0  0  0  0  0  0  0  0  0  0
  192.7440  176.3180  148.8060 N   0  0  0  0  0  2  0  0  0  0  0  0
  1 11  2  0  0  0  0
  1 17  1  0  0  0  0
  4  6  1  0  0  0  0
  5  1  1  0  0  0  0
  6  8  2  0  0  0  0
  6 11  1  0  0  0  0
  7 12  2  0  0  0  0
  8  7  1  0  0  0  0
  9  4  1  0  0  0  0
  9  5  2  0  0  0  0
 10 12  1  0  0  0  0
 10  3  2  0  0  0  0
 11 10  1  0  0  0  0
 13  2  1  0  0  0  0
 13 34  1  0  0  0  0
 14 13  2  0  0  0  0
 15  3  1  0  0  0  0
 15  2  2  0  0  0  0
 16 17  2  0  0  0  0
 16 14  1  0  0  0  0
 17 15  1  0  0  0  0
 18 27  1  0  0  0  0
 19 26  1  0  0  0  0
 20 21  2  0  0  0  0
 20 25  1  0  0  0  0
 21 22  1  0  0  0  0
 22 18  2  0  0  0  0
 22 24  1  0  0  0  0
 23 24  1  0  0  0  0
 24 19  2  0  0  0  0
 25 23  2  0  0  0  0
 26  9  1  0  0  0  0
 27 26  2  0  0  0  0
 28 20  1  0  0  0  0
 29 28  1  0  0  0  0
 30 28  2  0  0  0  0
 31 33  2  0  0  0  0
 31 32  1  0  0  0  0
 34 31  1  0  0  0  0
M  END
>  <MODEL>
5

>  <REMARK>
 VINA RESULT:      -9.8      4.580      8.128
  Name = 
  3 active torsions:
  status: ('A' for Active; 'I' for Inactive)
    1  A    between atoms: C_7  and  C_11
    2  A    between atoms: C_18  and  C_30
    3  A    between atoms: C_23  and  N_25
                            x       y       z     vdW  Elec       q    Type
                         _______ _______ _______ _____ _____    ______ ____

>  <TORSDO>
F 3

$$$$
=
 OpenBabel11052415553D

 34 39  0  0  1  0  0  0  0  0999 V2000
  188.0400  177.7460  143.5600 C   0  0  0  0  0  0  0  0  0  0  0  0
  191.5690  176.9790  142.6600 C   0  0  0  0  0  3  0  0  0  0  0  0
  190.4930  177.1530  144.8130 C   0  0  0  0  0  3  0  0  0  0  0  0
  185.6430  178.2350  145.1440 C   0  0  0  0  0  3  0  0  0  0  0  0
  186.7450  178.0570  142.9240 C   0  0  0  0  0  3  0  0  0  0  0  0
  186.9800  177.9140  145.7550 C   0  0  0  0  0  0  0  0  0  0  0  0
  188.3020  177.5530  147.7590 C   0  0  0  0  0  3  0  0  0  0  0  0
  187.0800  177.8470  147.1490 C   0  0  0  0  0  3  0  0  0  0  0  0
  185.6300  178.2860  143.6310 C   0  0  0  0  0  0  0  0  0  0  0  0
  189.3560  177.3850  145.5860 C   0  0  0  0  0  0  0  0  0  0  0  0
  188.1210  177.6830  144.9630 C   0  0  1  0  0  3  0  0  0  0  0  0
  189.4380  177.3220  146.9790 C   0  0  0  0  0  3  0  0  0  0  0  0
  191.5210  177.0340  141.2640 C   0  0  0  0  0  0  0  0  0  0  0  0
  190.3050  177.3280  140.6300 C   0  0  0  0  0  3  0  0  0  0  0  0
  190.4210  177.2130  143.4220 C   0  0  0  0  0  0  0  0  0  0  0  0
  189.1520  177.5640  141.3810 C   0  0  0  0  0  3  0  0  0  0  0  0
  189.1930  177.5110  142.7830 C   0  0  0  0  0  0  0  0  0  0  0  0
  181.9420  178.9220  142.9630 C   0  0  0  0  0  3  0  0  0  0  0  0
  184.3620  178.8590  141.5500 C   0  0  0  0  0  3  0  0  0  0  0  0
  180.7720  179.7370  139.5440 C   0  0  0  0  0  0  0  0  0  0  0  0
  180.7620  179.4750  140.9220 C   0  0  0  0  0  3  0  0  0  0  0  0
  181.9520  179.1830  141.5910 C   0  0  0  0  0  0  0  0  0  0  0  0
  183.1830  179.4110  139.5080 C   0  0  0  0  0  3  0  0  0  0  0  0
  183.1710  179.1510  140.8800 C   0  0  0  0  0  0  0  0  0  0  0  0
  181.9880  179.7040  138.8430 C   0  0  0  0  0  3  0  0  0  0  0  0
  184.3590  178.5950  142.9290 C   0  0  0  0  0  0  0  0  0  0  0  0
  183.1380  178.6300  143.6270 C   0  0  0  0  0  3  0  0  0  0  0  0
  179.5140  180.0440  138.8440 C   0  0  0  0  0  0  0  0  0  0  0  0
  178.9310  179.1600  138.1620 O   0  0  0  0  0  0  0  0  0  0  0  0
  178.9580  181.3140  138.9280 O   0  0  0  0  0  1  0  0  0  0  0  0
  192.8180  176.4150  139.1430 C   0  0  0  0  0  0  0  0  0  0  0  0
  194.1580  176.1980  138.5390 C   0  0  0  0  0  1  0  0  0  0  0  0
  191.7900  176.2680  138.4310 O   0  0  0  0  0  0  0  0  0  0  0  0
  192.7240  176.7870  140.5230 N   0  0  0  0  0  2  0  0  0  0  0  0
  2 15  1  0  0  0  0
  3 10  1  0  0  0  0
  4  6  2  0  0  0  0
  5  1  1  0  0  0  0
  5  9  2  0  0  0  0
  6  8  1  0  0  0  0
  8  7  2  0  0  0  0
  9  4  1  0  0  0  0
 10 12  2  0  0  0  0
 11  1  1  6  0  0  0
 11 10  1  0  0  0  0
 11  6  1  0  0  0  0
 12  7  1  0  0  0  0
 13  2  2  0  0  0  0
 14 13  1  0  0  0  0
 14 16  2  0  0  0  0
 15  3  2  0  0  0  0
 16 17  1  0  0  0  0
 17 15  1  0  0  0  0
 17  1  2  0  0  0  0
 18 27  1  0  0  0  0
 19 26  1  0  0  0  0
 20 21  2  0  0  0  0
 21 22  1  0  0  0  0
 22 18  2  0  0  0  0
 23 24  1  0  0  0  0
 24 19  2  0  0  0  0
 24 22  1  0  0  0  0
 25 23  2  0  0  0  0
 25 20  1  0  0  0  0
 26 27  2  0  0  0  0
 26  9  1  0  0  0  0
 28 30  1  0  0  0  0
 28 20  1  0  0  0  0
 29 28  2  0  0  0  0
 31 34  1  0  0  0  0
 32 31  1  0  0  0  0
 33 31  2  0  0  0  0
 34 13  1  0  0  0  0
M  END
>  <MODEL>
6

>  <REMARK>
 VINA RESULT:      -9.6      1.400      2.139
  Name = 
  3 active torsions:
  status: ('A' for Active; 'I' for Inactive)
    1  A    between atoms: C_7  and  C_11
    2  A    between atoms: C_18  and  C_30
    3  A    between atoms: C_23  and  N_25
                            x       y       z     vdW  Elec       q    Type
                         _______ _______ _______ _____ _____    ______ ____

>  <TORSDO>
F 3

$$$$
