=
 OpenBabel11052413353D

 28 33  0  0  1  0  0  0  0  0999 V2000
  186.4820  177.9440  142.5690 O   0  0  0  0  0  0  0  0  0  0  0  0
  187.4940  176.0710  144.3410 O   0  0  0  0  0  1  0  0  0  0  0  0
  188.1140  177.3200  144.2580 C   0  0  1  0  0  0  0  0  0  0  0  0
  184.3430  177.9970  140.1070 C   0  0  0  0  0  2  0  0  0  0  0  0
  190.2310  176.5690  142.6960 S   0  0  0  0  0  0  0  0  0  0  0  0
  188.9910  177.7510  140.4680 C   0  0  2  0  0  3  0  0  0  0  0  0
  189.6290  177.0930  144.3400 C   0  0  1  0  0  3  0  0  0  0  0  0
  186.5440  178.1970  140.3440 C   0  0  2  0  0  3  0  0  0  0  0  0
  188.6840  177.0710  141.8560 C   0  0  2  0  0  3  0  0  0  0  0  0
  184.2110  178.5550  141.3560 O   0  0  0  0  0  0  0  0  0  0  0  0
  187.8950  178.7060  139.9160 C   0  0  0  0  0  2  0  0  0  0  0  0
  185.2930  179.0590  140.5780 C   0  0  2  0  0  0  0  0  0  0  0  0
  186.4360  178.9460  141.6020 C   0  0  1  0  0  3  0  0  0  0  0  0
  187.8610  177.9010  142.8740 C   0  0  1  0  0  3  0  0  0  0  0  0
  190.9390  175.7360  137.8190 C   0  0  0  0  0  2  0  0  0  0  0  0
  188.8530  177.1300  137.9470 C   0  0  1  0  0  3  0  0  0  0  0  0
  189.7940  176.3560  137.0580 C   0  0  2  0  0  0  0  0  0  0  0  0
  189.3050  176.7240  139.3580 C   0  0  1  0  0  3  0  0  0  0  0  0
  189.0900  175.3630  136.3540 O   0  0  0  0  0  0  0  0  0  0  0  0
  189.7220  176.3560  135.5820 C   0  0  0  0  0  2  0  0  0  0  0  0
  190.7590  176.2590  139.2370 C   0  0  0  0  0  2  0  0  0  0  0  0
  188.9130  178.6410  137.6590 C   0  0  0  0  0  2  0  0  0  0  0  0
  187.7540  179.1890  136.3600 S   0  0  0  0  0  0  0  0  0  0  0  0
  186.5690  177.8810  136.7760 C   0  0  0  0  0  1  0  0  0  0  0  0
  190.4700  178.2550  144.8910 C   0  0  0  0  0  2  0  0  0  0  0  0
  191.3350  178.9260  143.8330 C   0  0  0  0  0  1  0  0  0  0  0  0
  187.5430  178.1870  145.3970 C   0  0  0  0  0  2  0  0  0  0  0  0
  186.3650  177.5710  146.1380 C   0  0  0  0  0  1  0  0  0  0  0  0
  3  7  1  0  0  0  0
  3  2  1  1  0  0  0
  3 27  1  0  0  0  0
  4 10  1  0  0  0  0
  5  7  1  0  0  0  0
  6 11  1  6  0  0  0
  6  9  1  0  0  0  0
  7 25  1  6  0  0  0
  8 11  1  6  0  0  0
  8 12  1  0  0  0  0
  8 13  1  0  0  0  0
  9  5  1  1  0  0  0
  9 14  1  0  0  0  0
 12  4  1  6  0  0  0
 12 10  1  0  0  0  0
 12 13  1  0  0  0  0
 13  1  1  1  0  0  0
 14  1  1  6  0  0  0
 14  3  1  0  0  0  0
 15 21  1  0  0  0  0
 16 22  1  1  0  0  0
 16 18  1  0  0  0  0
 17 20  1  6  0  0  0
 17 15  1  0  0  0  0
 17 16  1  0  0  0  0
 18 21  1  6  0  0  0
 18  6  1  0  0  0  0
 19 17  1  0  0  0  0
 20 19  1  0  0  0  0
 23 24  1  0  0  0  0
 23 22  1  0  0  0  0
 26 25  1  0  0  0  0
 27 28  1  0  0  0  0
M  END
>  <MODEL>
1

>  <REMARK>
 VINA RESULT:      -6.0      0.000      0.000
  Name = 
  5 active torsions:
  status: ('A' for Active; 'I' for Inactive)
    1  A    between atoms: C_3  and  C_7
    2  A    between atoms: C_6  and  C_11
    3  A    between atoms: C_9  and  C_18
    4  A    between atoms: C_10  and  C_13
    5  A    between atoms: S_14  and  C_18
                            x       y       z     vdW  Elec       q    Type
                         _______ _______ _______ _____ _____    ______ ____

>  <TORSDO>
F 5

$$$$
=
 OpenBabel11052413353D

 28 33  0  0  1  0  0  0  0  0999 V2000
  185.9630  178.4400  145.1050 O   0  0  0  0  0  0  0  0  0  0  0  0
  184.5900  180.3600  143.6570 O   0  0  0  0  0  1  0  0  0  0  0  0
  184.2570  179.0160  143.4740 C   0  0  1  0  0  0  0  0  0  0  0  0
  188.6310  178.3100  146.9770 C   0  0  0  0  0  2  0  0  0  0  0  0
  185.6120  178.6250  141.1290 S   0  0  0  0  0  0  0  0  0  0  0  0
  187.6320  177.2690  142.5380 C   0  0  2  0  0  3  0  0  0  0  0  0
  184.0020  178.8010  141.9760 C   0  0  1  0  0  3  0  0  0  0  0  0
  188.0140  177.5490  144.9820 C   0  0  2  0  0  3  0  0  0  0  0  0
  186.5260  178.3800  142.6970 C   0  0  2  0  0  3  0  0  0  0  0  0
  187.3170  178.2020  147.3660 O   0  0  0  0  0  0  0  0  0  0  0  0
  188.0860  176.5630  143.8460 C   0  0  0  0  0  2  0  0  0  0  0  0
  187.7660  177.1990  146.4590 C   0  0  2  0  0  0  0  0  0  0  0  0
  186.6400  177.2620  145.4110 C   0  0  1  0  0  3  0  0  0  0  0  0
  185.4710  178.1610  143.8100 C   0  0  1  0  0  3  0  0  0  0  0  0
  190.4080  177.7170  139.8980 C   0  0  0  0  0  2  0  0  0  0  0  0
  190.2240  177.2000  142.3500 C   0  0  1  0  0  3  0  0  0  0  0  0
  191.1420  177.3410  141.1610 C   0  0  2  0  0  0  0  0  0  0  0  0
  188.9040  177.7920  141.8330 C   0  0  1  0  0  3  0  0  0  0  0  0
  192.1470  178.2860  141.4330 O   0  0  0  0  0  0  0  0  0  0  0  0
  192.5720  176.9690  141.1740 C   0  0  0  0  0  2  0  0  0  0  0  0
  188.9420  177.6860  140.3060 C   0  0  0  0  0  2  0  0  0  0  0  0
  190.1340  175.7400  142.8280 C   0  0  0  0  0  2  0  0  0  0  0  0
  191.4920  175.2460  143.9440 S   0  0  0  0  0  0  0  0  0  0  0  0
  191.5100  176.8730  144.7450 C   0  0  0  0  0  1  0  0  0  0  0  0
  183.0520  177.6540  141.5980 C   0  0  0  0  0  2  0  0  0  0  0  0
  183.0230  177.3640  140.1030 C   0  0  0  0  0  1  0  0  0  0  0  0
  183.0370  178.7240  144.3690 C   0  0  0  0  0  2  0  0  0  0  0  0
  181.7240  179.3090  143.8680 C   0  0  0  0  0  1  0  0  0  0  0  0
  3  2  1  1  0  0  0
  3 14  1  0  0  0  0
  3 27  1  0  0  0  0
  4 10  1  0  0  0  0
  5  7  1  0  0  0  0
  6  9  1  0  0  0  0
  6 11  1  1  0  0  0
  7 25  1  1  0  0  0
  7  3  1  0  0  0  0
  8 11  1  6  0  0  0
  8 13  1  0  0  0  0
  8 12  1  0  0  0  0
  9  5  1  6  0  0  0
  9 14  1  0  0  0  0
 12  4  1  1  0  0  0
 12 10  1  0  0  0  0
 13  1  1  1  0  0  0
 13 12  1  0  0  0  0
 14  1  1  1  0  0  0
 15 21  1  0  0  0  0
 16 22  1  6  0  0  0
 17 15  1  6  0  0  0
 17 20  1  0  0  0  0
 17 19  1  0  0  0  0
 17 16  1  0  0  0  0
 18 21  1  6  0  0  0
 18 16  1  0  0  0  0
 18  6  1  0  0  0  0
 20 19  1  0  0  0  0
 22 23  1  0  0  0  0
 23 24  1  0  0  0  0
 26 25  1  0  0  0  0
 28 27  1  0  0  0  0
M  END
>  <MODEL>
2

>  <REMARK>
 VINA RESULT:      -5.9      2.714      5.734
  Name = 
  5 active torsions:
  status: ('A' for Active; 'I' for Inactive)
    1  A    between atoms: C_3  and  C_7
    2  A    between atoms: C_6  and  C_11
    3  A    between atoms: C_9  and  C_18
    4  A    between atoms: C_10  and  C_13
    5  A    between atoms: S_14  and  C_18
                            x       y       z     vdW  Elec       q    Type
                         _______ _______ _______ _____ _____    ______ ____

>  <TORSDO>
F 5

$$$$
=
 OpenBabel11052413353D

 28 33  0  0  1  0  0  0  0  0999 V2000
  184.3290  179.1310  141.6140 O   0  0  0  0  0  0  0  0  0  0  0  0
  184.6240  180.2620  139.1030 O   0  0  0  0  0  1  0  0  0  0  0  0
  184.4550  178.8790  139.2010 C   0  0  1  0  0  0  0  0  0  0  0  0
  184.6860  180.0700  144.7180 C   0  0  0  0  0  2  0  0  0  0  0  0
  187.0790  178.1730  138.8790 S   0  0  0  0  0  0  0  0  0  0  0  0
  187.2770  177.6990  141.6420 C   0  0  2  0  0  3  0  0  0  0  0  0
  185.3920  178.2240  138.1770 C   0  0  1  0  0  3  0  0  0  0  0  0
  185.7210  178.6930  143.3130 C   0  0  2  0  0  3  0  0  0  0  0  0
  186.4970  178.5530  140.5730 C   0  0  2  0  0  3  0  0  0  0  0  0
  183.5200  179.7940  144.0450 O   0  0  0  0  0  0  0  0  0  0  0  0
  186.5560  177.4780  143.0020 C   0  0  0  0  0  2  0  0  0  0  0  0
  184.4310  178.7050  144.1500 C   0  0  2  0  0  0  0  0  0  0  0  0
  184.4730  178.2470  142.6810 C   0  0  1  0  0  3  0  0  0  0  0  0
  184.9530  178.4210  140.5640 C   0  0  1  0  0  3  0  0  0  0  0  0
  191.1120  177.9780  141.9370 C   0  0  0  0  0  2  0  0  0  0  0  0
  189.1020  178.1870  143.4290 C   0  0  1  0  0  3  0  0  0  0  0  0
  190.6090  178.1800  143.3440 C   0  0  2  0  0  0  0  0  0  0  0  0
  188.6780  178.2710  141.9550 C   0  0  1  0  0  3  0  0  0  0  0  0
  191.1310  179.3710  143.8770 O   0  0  0  0  0  0  0  0  0  0  0  0
  191.5010  178.1750  144.5220 C   0  0  0  0  0  2  0  0  0  0  0  0
  189.8470  177.7270  141.1290 C   0  0  0  0  0  2  0  0  0  0  0  0
  188.5690  176.9580  144.1860 C   0  0  0  0  0  2  0  0  0  0  0  0
  188.9450  176.9740  145.9720 S   0  0  0  0  0  0  0  0  0  0  0  0
  187.3780  177.8010  146.3600 C   0  0  0  0  0  1  0  0  0  0  0  0
  184.9740  176.8440  137.6460 C   0  0  0  0  0  2  0  0  0  0  0  0
  184.7180  176.8300  136.1450 C   0  0  0  0  0  1  0  0  0  0  0  0
  182.9620  178.5850  138.9660 C   0  0  0  0  0  2  0  0  0  0  0  0
  182.1260  179.7980  138.5780 C   0  0  0  0  0  1  0  0  0  0  0  0
  3  2  1  6  0  0  0
  3 14  1  0  0  0  0
  6 18  1  0  0  0  0
  6 11  1  1  0  0  0
  7 25  1  1  0  0  0
  7  5  1  0  0  0  0
  7  3  1  0  0  0  0
  8 11  1  1  0  0  0
  8 12  1  0  0  0  0
  9  5  1  6  0  0  0
  9  6  1  0  0  0  0
 10 12  1  0  0  0  0
 10  4  1  0  0  0  0
 12  4  1  1  0  0  0
 13  1  1  6  0  0  0
 13  8  1  0  0  0  0
 13 12  1  0  0  0  0
 14  9  1  0  0  0  0
 14  1  1  1  0  0  0
 16 22  1  6  0  0  0
 17 15  1  6  0  0  0
 17 16  1  0  0  0  0
 17 19  1  0  0  0  0
 17 20  1  0  0  0  0
 18 21  1  6  0  0  0
 18 16  1  0  0  0  0
 19 20  1  0  0  0  0
 21 15  1  0  0  0  0
 22 23  1  0  0  0  0
 23 24  1  0  0  0  0
 26 25  1  0  0  0  0
 27  3  1  0  0  0  0
 28 27  1  0  0  0  0
M  END
>  <MODEL>
3

>  <REMARK>
 VINA RESULT:      -5.9      2.790      6.372
  Name = 
  5 active torsions:
  status: ('A' for Active; 'I' for Inactive)
    1  A    between atoms: C_3  and  C_7
    2  A    between atoms: C_6  and  C_11
    3  A    between atoms: C_9  and  C_18
    4  A    between atoms: C_10  and  C_13
    5  A    between atoms: S_14  and  C_18
                            x       y       z     vdW  Elec       q    Type
                         _______ _______ _______ _____ _____    ______ ____

>  <TORSDO>
F 5

$$$$
=
 OpenBabel11052413353D

 28 33  0  0  1  0  0  0  0  0999 V2000
  188.8090  174.5360  136.1350 O   0  0  0  0  0  0  0  0  0  0  0  0
  189.7930  176.9780  135.2750 O   0  0  0  0  0  1  0  0  0  0  0  0
  189.6210  176.7680  136.6460 C   0  0  1  0  0  0  0  0  0  0  0  0
  187.4260  171.9060  134.7890 C   0  0  0  0  0  2  0  0  0  0  0  0
  187.2690  178.1360  136.9270 S   0  0  0  0  0  0  0  0  0  0  0  0
  185.8770  175.6970  137.0310 C   0  0  2  0  0  3  0  0  0  0  0  0
  189.0670  178.0660  137.2470 C   0  0  1  0  0  3  0  0  0  0  0  0
  186.7910  173.5640  136.1260 C   0  0  2  0  0  3  0  0  0  0  0  0
  187.1800  176.3700  136.4540 C   0  0  2  0  0  3  0  0  0  0  0  0
  188.6810  172.0160  135.3370 O   0  0  0  0  0  0  0  0  0  0  0  0
  185.9250  174.1530  137.2080 C   0  0  0  0  0  2  0  0  0  0  0  0
  187.6040  172.2640  136.2350 C   0  0  2  0  0  0  0  0  0  0  0  0
  188.0680  173.5970  136.8490 C   0  0  1  0  0  3  0  0  0  0  0  0
  188.5320  175.7240  136.8480 C   0  0  1  0  0  3  0  0  0  0  0  0
  183.4930  177.4990  134.5940 C   0  0  0  0  0  2  0  0  0  0  0  0
  183.4760  176.6940  136.9730 C   0  0  1  0  0  3  0  0  0  0  0  0
  182.7340  177.4460  135.8950 C   0  0  2  0  0  0  0  0  0  0  0  0
  184.6190  176.0230  136.1950 C   0  0  1  0  0  3  0  0  0  0  0  0
  181.4660  176.8740  135.6910 O   0  0  0  0  0  0  0  0  0  0  0  0
  181.4930  178.2120  136.1310 C   0  0  0  0  0  2  0  0  0  0  0  0
  184.8290  176.8480  134.9220 C   0  0  0  0  0  2  0  0  0  0  0  0
  183.9290  177.6280  138.1090 C   0  0  0  0  0  2  0  0  0  0  0  0
  182.9770  177.4230  139.6530 S   0  0  0  0  0  0  0  0  0  0  0  0
  182.4450  175.7550  139.1790 C   0  0  0  0  0  1  0  0  0  0  0  0
  189.3730  178.3220  138.7310 C   0  0  0  0  0  2  0  0  0  0  0  0
  188.1520  178.1850  139.6300 C   0  0  0  0  0  1  0  0  0  0  0  0
  190.9880  176.3430  137.2150 C   0  0  0  0  0  2  0  0  0  0  0  0
  192.0360  175.9960  136.1660 C   0  0  0  0  0  1  0  0  0  0  0  0
  3  2  1  6  0  0  0
  3 14  1  0  0  0  0
  3 27  1  0  0  0  0
  3  7  1  0  0  0  0
  4 10  1  0  0  0  0
  5  7  1  0  0  0  0
  6 11  1  6  0  0  0
  7 25  1  1  0  0  0
  8 12  1  0  0  0  0
  8 13  1  0  0  0  0
  8 11  1  1  0  0  0
  9 14  1  0  0  0  0
  9  5  1  1  0  0  0
  9  6  1  0  0  0  0
 10 12  1  0  0  0  0
 12  4  1  1  0  0  0
 12 13  1  0  0  0  0
 13  1  1  6  0  0  0
 14  1  1  6  0  0  0
 15 21  1  0  0  0  0
 16 22  1  1  0  0  0
 17 15  1  6  0  0  0
 17 20  1  0  0  0  0
 17 16  1  0  0  0  0
 18 21  1  6  0  0  0
 18 16  1  0  0  0  0
 18  6  1  0  0  0  0
 19 17  1  0  0  0  0
 19 20  1  0  0  0  0
 22 23  1  0  0  0  0
 24 23  1  0  0  0  0
 25 26  1  0  0  0  0
 28 27  1  0  0  0  0
M  END
>  <MODEL>
4

>  <REMARK>
 VINA RESULT:      -5.7      4.080      7.358
  Name = 
  5 active torsions:
  status: ('A' for Active; 'I' for Inactive)
    1  A    between atoms: C_3  and  C_7
    2  A    between atoms: C_6  and  C_11
    3  A    between atoms: C_9  and  C_18
    4  A    between atoms: C_10  and  C_13
    5  A    between atoms: S_14  and  C_18
                            x       y       z     vdW  Elec       q    Type
                         _______ _______ _______ _____ _____    ______ ____

>  <TORSDO>
F 5

$$$$
=
 OpenBabel11052413353D

 28 33  0  0  1  0  0  0  0  0999 V2000
  187.9720  178.3420  142.9940 O   0  0  0  0  0  0  0  0  0  0  0  0
  186.0480  180.2410  142.3880 O   0  0  0  0  0  1  0  0  0  0  0  0
  185.6800  178.8930  142.4060 C   0  0  1  0  0  0  0  0  0  0  0  0
  191.2160  178.2430  143.3150 C   0  0  0  0  0  2  0  0  0  0  0  0
  185.7120  178.4750  139.7020 S   0  0  0  0  0  0  0  0  0  0  0  0
  188.1740  177.1430  139.9500 C   0  0  2  0  0  3  0  0  0  0  0  0
  184.7240  178.6580  141.2290 C   0  0  1  0  0  3  0  0  0  0  0  0
  189.7050  177.4540  141.8880 C   0  0  2  0  0  3  0  0  0  0  0  0
  187.2800  178.2530  140.6200 C   0  0  2  0  0  3  0  0  0  0  0  0
  190.2640  178.1370  144.3000 O   0  0  0  0  0  0  0  0  0  0  0  0
  189.2180  176.4540  140.8730 C   0  0  0  0  0  2  0  0  0  0  0  0
  190.2170  177.1230  143.3000 C   0  0  2  0  0  0  0  0  0  0  0  0
  188.7220  177.1700  142.9400 C   0  0  1  0  0  3  0  0  0  0  0  0
  186.9090  178.0460  142.1110 C   0  0  1  0  0  3  0  0  0  0  0  0
  189.0590  179.2440  136.8400 C   0  0  0  0  0  2  0  0  0  0  0  0
  188.7370  176.8230  137.4320 C   0  0  1  0  0  3  0  0  0  0  0  0
  188.9950  177.8250  136.3320 C   0  0  2  0  0  0  0  0  0  0  0  0
  188.9320  177.6590  138.7060 C   0  0  1  0  0  3  0  0  0  0  0  0
  190.1810  177.5030  135.6510 O   0  0  0  0  0  0  0  0  0  0  0  0
  188.9940  177.4880  134.8940 C   0  0  0  0  0  2  0  0  0  0  0  0
  188.7010  179.1210  138.3140 C   0  0  0  0  0  2  0  0  0  0  0  0
  187.3500  176.1710  137.2920 C   0  0  0  0  0  2  0  0  0  0  0  0
  187.4000  174.4720  136.6250 S   0  0  0  0  0  0  0  0  0  0  0  0
  189.1590  174.2970  137.0310 C   0  0  0  0  0  1  0  0  0  0  0  0
  183.7200  177.5040  141.3770 C   0  0  0  0  0  2  0  0  0  0  0  0
  183.0330  177.1320  140.0710 C   0  0  0  0  0  1  0  0  0  0  0  0
  185.0600  178.6100  143.7870 C   0  0  0  0  0  2  0  0  0  0  0  0
  184.1930  179.7330  144.3390 C   0  0  0  0  0  1  0  0  0  0  0  0
  3  2  1  6  0  0  0
  3 27  1  0  0  0  0
  4 10  1  0  0  0  0
  5  7  1  0  0  0  0
  6  9  1  0  0  0  0
  6 11  1  1  0  0  0
  7 25  1  1  0  0  0
  7  3  1  0  0  0  0
  8 11  1  6  0  0  0
  8 13  1  0  0  0  0
  8 12  1  0  0  0  0
  9  5  1  6  0  0  0
  9 14  1  0  0  0  0
 12  4  1  1  0  0  0
 12 10  1  0  0  0  0
 13  1  1  1  0  0  0
 13 12  1  0  0  0  0
 14  3  1  0  0  0  0
 14  1  1  1  0  0  0
 15 21  1  0  0  0  0
 16 22  1  6  0  0  0
 16 18  1  0  0  0  0
 17 20  1  6  0  0  0
 17 15  1  0  0  0  0
 17 16  1  0  0  0  0
 18 21  1  6  0  0  0
 18  6  1  0  0  0  0
 19 17  1  0  0  0  0
 20 19  1  0  0  0  0
 23 24  1  0  0  0  0
 23 22  1  0  0  0  0
 26 25  1  0  0  0  0
 27 28  1  0  0  0  0
M  END
>  <MODEL>
5

>  <REMARK>
 VINA RESULT:      -5.5      2.128      4.411
  Name = 
  5 active torsions:
  status: ('A' for Active; 'I' for Inactive)
    1  A    between atoms: C_3  and  C_7
    2  A    between atoms: C_6  and  C_11
    3  A    between atoms: C_9  and  C_18
    4  A    between atoms: C_10  and  C_13
    5  A    between atoms: S_14  and  C_18
                            x       y       z     vdW  Elec       q    Type
                         _______ _______ _______ _____ _____    ______ ____

>  <TORSDO>
F 5

$$$$
=
 OpenBabel11052413353D

 28 33  0  0  1  0  0  0  0  0999 V2000
  188.0920  178.0170  138.8590 O   0  0  0  0  0  0  0  0  0  0  0  0
  188.3060  179.7580  141.0030 O   0  0  0  0  0  1  0  0  0  0  0  0
  187.9270  178.4350  141.2470 C   0  0  1  0  0  0  0  0  0  0  0  0
  188.0610  178.2240  135.6040 C   0  0  0  0  0  2  0  0  0  0  0  0
  185.2400  178.8750  141.5230 S   0  0  0  0  0  0  0  0  0  0  0  0
  184.8200  177.8440  138.9420 C   0  0  2  0  0  3  0  0  0  0  0  0
  186.8310  178.4570  142.3210 C   0  0  1  0  0  3  0  0  0  0  0  0
  186.6050  177.7320  137.2100 C   0  0  2  0  0  3  0  0  0  0  0  0
  185.8900  178.5760  139.8370 C   0  0  2  0  0  3  0  0  0  0  0  0
  189.0450  177.7040  136.4110 O   0  0  0  0  0  0  0  0  0  0  0  0
  185.3740  177.0400  137.7330 C   0  0  0  0  0  2  0  0  0  0  0  0
  187.7830  177.0490  136.4950 C   0  0  2  0  0  0  0  0  0  0  0  0
  187.5980  177.0190  138.0230 C   0  0  1  0  0  3  0  0  0  0  0  0
  187.2640  177.8780  139.9960 C   0  0  1  0  0  3  0  0  0  0  0  0
  182.3690  180.8120  138.7190 C   0  0  0  0  0  2  0  0  0  0  0  0
  182.2940  178.3080  138.5360 C   0  0  1  0  0  3  0  0  0  0  0  0
  181.4990  179.5910  138.5590 C   0  0  2  0  0  0  0  0  0  0  0  0
  183.7410  178.8060  138.3970 C   0  0  1  0  0  3  0  0  0  0  0  0
  180.7220  179.7010  137.3920 O   0  0  0  0  0  0  0  0  0  0  0  0
  180.0240  179.6450  138.6130 C   0  0  0  0  0  2  0  0  0  0  0  0
  183.7640  180.2430  138.9270 C   0  0  0  0  0  2  0  0  0  0  0  0
  182.0230  177.4490  139.7840 C   0  0  0  0  0  2  0  0  0  0  0  0
  180.9360  176.0160  139.4690 S   0  0  0  0  0  0  0  0  0  0  0  0
  182.0710  175.3490  138.2220 C   0  0  0  0  0  1  0  0  0  0  0  0
  186.6970  177.1990  143.1930 C   0  0  0  0  0  2  0  0  0  0  0  0
  186.6460  177.5020  144.6840 C   0  0  0  0  0  1  0  0  0  0  0  0
  189.1980  177.6680  141.6590 C   0  0  0  0  0  2  0  0  0  0  0  0
  189.9460  178.2630  142.8430 C   0  0  0  0  0  1  0  0  0  0  0  0
  3  2  1  6  0  0  0
  3 27  1  0  0  0  0
  3  7  1  0  0  0  0
  4 10  1  0  0  0  0
  5  7  1  0  0  0  0
  6 11  1  6  0  0  0
  6  9  1  0  0  0  0
  7 25  1  6  0  0  0
  8 11  1  6  0  0  0
  8 13  1  0  0  0  0
  9 14  1  0  0  0  0
  9  5  1  1  0  0  0
 10 12  1  0  0  0  0
 12  4  1  6  0  0  0
 12  8  1  0  0  0  0
 12 13  1  0  0  0  0
 13  1  1  1  0  0  0
 14  1  1  6  0  0  0
 14  3  1  0  0  0  0
 15 21  1  0  0  0  0
 16 17  1  0  0  0  0
 16 22  1  1  0  0  0
 17 20  1  1  0  0  0
 17 15  1  0  0  0  0
 18 16  1  0  0  0  0
 18 21  1  1  0  0  0
 18  6  1  0  0  0  0
 19 17  1  0  0  0  0
 19 20  1  0  0  0  0
 23 22  1  0  0  0  0
 24 23  1  0  0  0  0
 25 26  1  0  0  0  0
 27 28  1  0  0  0  0
M  END
>  <MODEL>
6

>  <REMARK>
 VINA RESULT:      -5.5      3.102      6.139
  Name = 
  5 active torsions:
  status: ('A' for Active; 'I' for Inactive)
    1  A    between atoms: C_3  and  C_7
    2  A    between atoms: C_6  and  C_11
    3  A    between atoms: C_9  and  C_18
    4  A    between atoms: C_10  and  C_13
    5  A    between atoms: S_14  and  C_18
                            x       y       z     vdW  Elec       q    Type
                         _______ _______ _______ _____ _____    ______ ____

>  <TORSDO>
F 5

$$$$
=
 OpenBabel11052413353D

 28 33  0  0  1  0  0  0  0  0999 V2000
  184.4100  175.3750  136.7000 O   0  0  0  0  0  0  0  0  0  0  0  0
  185.7660  177.6050  135.7720 O   0  0  0  0  0  1  0  0  0  0  0  0
  186.1600  177.0360  136.9860 C   0  0  1  0  0  0  0  0  0  0  0  0
  181.6720  173.7630  135.9630 C   0  0  0  0  0  2  0  0  0  0  0  0
  184.9230  178.8290  138.6420 S   0  0  0  0  0  0  0  0  0  0  0  0
  182.9010  176.9440  139.1510 C   0  0  2  0  0  3  0  0  0  0  0  0
  186.4870  178.1830  137.9510 C   0  0  1  0  0  3  0  0  0  0  0  0
  182.4030  175.0330  137.6340 C   0  0  2  0  0  3  0  0  0  0  0  0
  183.9530  177.3870  138.0650 C   0  0  2  0  0  3  0  0  0  0  0  0
  182.9710  173.3570  135.7730 O   0  0  0  0  0  0  0  0  0  0  0  0
  182.4200  175.4680  139.0760 C   0  0  0  0  0  2  0  0  0  0  0  0
  182.6020  173.5940  137.1280 C   0  0  2  0  0  0  0  0  0  0  0  0
  183.7690  174.4960  137.5690 C   0  0  1  0  0  3  0  0  0  0  0  0
  184.9680  176.3130  137.5970 C   0  0  1  0  0  3  0  0  0  0  0  0
  180.6050  180.0020  138.6550 C   0  0  0  0  0  2  0  0  0  0  0  0
  181.2910  178.4610  140.5170 C   0  0  1  0  0  3  0  0  0  0  0  0
  180.5150  179.6960  140.1290 C   0  0  2  0  0  0  0  0  0  0  0  0
  181.6400  177.8370  139.1570 C   0  0  1  0  0  3  0  0  0  0  0  0
  179.1690  179.5620  140.5120 O   0  0  0  0  0  0  0  0  0  0  0  0
  179.8910  180.6170  141.1020 C   0  0  0  0  0  2  0  0  0  0  0  0
  181.5900  178.9690  138.1270 C   0  0  0  0  0  2  0  0  0  0  0  0
  182.5040  178.8070  141.4000 C   0  0  0  0  0  2  0  0  0  0  0  0
  182.0940  179.0020  143.1680 S   0  0  0  0  0  0  0  0  0  0  0  0
  183.7960  178.6300  143.6700 C   0  0  0  0  0  1  0  0  0  0  0  0
  187.4980  177.8760  139.0670 C   0  0  0  0  0  2  0  0  0  0  0  0
  188.8460  178.5540  138.8620 C   0  0  0  0  0  1  0  0  0  0  0  0
  187.3510  176.1060  136.6860 C   0  0  0  0  0  2  0  0  0  0  0  0
  187.7890  176.0800  135.2280 C   0  0  0  0  0  1  0  0  0  0  0  0
  3  2  1  6  0  0  0
  3 14  1  0  0  0  0
  3  7  1  0  0  0  0
  6 11  1  6  0  0  0
  6 18  1  0  0  0  0
  7  5  1  0  0  0  0
  7 25  1  1  0  0  0
  8 11  1  1  0  0  0
  9  5  1  1  0  0  0
  9  6  1  0  0  0  0
 10  4  1  0  0  0  0
 10 12  1  0  0  0  0
 12  4  1  1  0  0  0
 12 13  1  0  0  0  0
 12  8  1  0  0  0  0
 13  1  1  6  0  0  0
 13  8  1  0  0  0  0
 14  1  1  6  0  0  0
 14  9  1  0  0  0  0
 16 22  1  6  0  0  0
 17 15  1  6  0  0  0
 17 19  1  0  0  0  0
 17 16  1  0  0  0  0
 17 20  1  0  0  0  0
 18 21  1  6  0  0  0
 18 16  1  0  0  0  0
 19 20  1  0  0  0  0
 21 15  1  0  0  0  0
 22 23  1  0  0  0  0
 23 24  1  0  0  0  0
 26 25  1  0  0  0  0
 27  3  1  0  0  0  0
 28 27  1  0  0  0  0
M  END
>  <MODEL>
7

>  <REMARK>
 VINA RESULT:      -5.4      4.096      8.158
  Name = 
  5 active torsions:
  status: ('A' for Active; 'I' for Inactive)
    1  A    between atoms: C_3  and  C_7
    2  A    between atoms: C_6  and  C_11
    3  A    between atoms: C_9  and  C_18
    4  A    between atoms: C_10  and  C_13
    5  A    between atoms: S_14  and  C_18
                            x       y       z     vdW  Elec       q    Type
                         _______ _______ _______ _____ _____    ______ ____

>  <TORSDO>
F 5

$$$$
=
 OpenBabel11052413353D

 28 33  0  0  1  0  0  0  0  0999 V2000
  185.9660  173.6240  136.4340 O   0  0  0  0  0  0  0  0  0  0  0  0
  187.5880  175.3730  135.0260 O   0  0  0  0  0  1  0  0  0  0  0  0
  187.6410  175.3830  136.4220 C   0  0  1  0  0  0  0  0  0  0  0  0
  183.4510  171.6490  135.7880 C   0  0  0  0  0  2  0  0  0  0  0  0
  186.0870  177.5980  136.8260 S   0  0  0  0  0  0  0  0  0  0  0  0
  183.9390  175.9400  137.5600 C   0  0  2  0  0  3  0  0  0  0  0  0
  187.7520  176.8460  136.8710 C   0  0  1  0  0  3  0  0  0  0  0  0
  183.7780  173.5440  136.9040 C   0  0  2  0  0  3  0  0  0  0  0  0
  185.2470  175.9780  136.6830 C   0  0  2  0  0  3  0  0  0  0  0  0
  184.7420  171.3010  136.1080 O   0  0  0  0  0  0  0  0  0  0  0  0
  183.4420  174.5320  137.9900 C   0  0  0  0  0  2  0  0  0  0  0  0
  184.0490  172.0440  137.1070 C   0  0  2  0  0  0  0  0  0  0  0  0
  185.0950  173.1330  137.4040 C   0  0  1  0  0  3  0  0  0  0  0  0
  186.3100  174.8870  136.9670 C   0  0  1  0  0  3  0  0  0  0  0  0
  181.9460  178.2650  135.2160 C   0  0  0  0  0  2  0  0  0  0  0  0
  182.1640  177.8370  137.6820 C   0  0  1  0  0  3  0  0  0  0  0  0
  181.5440  178.6940  136.6050 C   0  0  2  0  0  0  0  0  0  0  0  0
  182.7490  176.6600  136.8860 C   0  0  1  0  0  3  0  0  0  0  0  0
  180.1440  178.6870  136.7260 O   0  0  0  0  0  0  0  0  0  0  0  0
  180.7840  179.9320  136.8730 C   0  0  0  0  0  2  0  0  0  0  0  0
  182.9640  177.1600  135.4550 C   0  0  0  0  0  2  0  0  0  0  0  0
  183.1890  178.6260  138.5160 C   0  0  0  0  0  2  0  0  0  0  0  0
  182.9980  178.4030  140.3180 S   0  0  0  0  0  0  0  0  0  0  0  0
  184.6810  178.9990  140.6350 C   0  0  0  0  0  1  0  0  0  0  0  0
  188.4350  177.1010  138.2240 C   0  0  0  0  0  2  0  0  0  0  0  0
  189.0510  178.4890  138.3360 C   0  0  0  0  0  1  0  0  0  0  0  0
  188.8370  174.5050  136.8380 C   0  0  0  0  0  2  0  0  0  0  0  0
  190.0470  174.5980  135.9180 C   0  0  0  0  0  1  0  0  0  0  0  0
  3  2  1  6  0  0  0
  3 27  1  0  0  0  0
  3  7  1  0  0  0  0
  3 14  1  0  0  0  0
  4 10  1  0  0  0  0
  5  7  1  0  0  0  0
  6 11  1  6  0  0  0
  7 25  1  1  0  0  0
  8 12  1  0  0  0  0
  8 13  1  0  0  0  0
  8 11  1  1  0  0  0
  9  5  1  1  0  0  0
  9 14  1  0  0  0  0
  9  6  1  0  0  0  0
 10 12  1  0  0  0  0
 12  4  1  1  0  0  0
 12 13  1  0  0  0  0
 13  1  1  6  0  0  0
 14  1  1  6  0  0  0
 15 21  1  0  0  0  0
 16 22  1  6  0  0  0
 17 15  1  6  0  0  0
 17 19  1  0  0  0  0
 17 20  1  0  0  0  0
 17 16  1  0  0  0  0
 18 21  1  6  0  0  0
 18  6  1  0  0  0  0
 18 16  1  0  0  0  0
 19 20  1  0  0  0  0
 22 23  1  0  0  0  0
 23 24  1  0  0  0  0
 25 26  1  0  0  0  0
 28 27  1  0  0  0  0
M  END
>  <MODEL>
8

>  <REMARK>
 VINA RESULT:      -5.4      4.289      7.791
  Name = 
  5 active torsions:
  status: ('A' for Active; 'I' for Inactive)
    1  A    between atoms: C_3  and  C_7
    2  A    between atoms: C_6  and  C_11
    3  A    between atoms: C_9  and  C_18
    4  A    between atoms: C_10  and  C_13
    5  A    between atoms: S_14  and  C_18
                            x       y       z     vdW  Elec       q    Type
                         _______ _______ _______ _____ _____    ______ ____

>  <TORSDO>
F 5

$$$$
=
 OpenBabel11052413353D

 28 33  0  0  1  0  0  0  0  0999 V2000
  186.8530  175.2510  137.2910 O   0  0  0  0  0  0  0  0  0  0  0  0
  185.7390  172.8410  138.0830 O   0  0  0  0  0  1  0  0  0  0  0  0
  185.5290  173.2810  136.7730 C   0  0  1  0  0  0  0  0  0  0  0  0
  188.2990  177.8020  138.7210 C   0  0  0  0  0  2  0  0  0  0  0  0
  182.9910  174.2420  137.1190 S   0  0  0  0  0  0  0  0  0  0  0  0
  184.0030  176.8640  137.1540 C   0  0  2  0  0  3  0  0  0  0  0  0
  184.0760  172.9570  136.4030 C   0  0  1  0  0  3  0  0  0  0  0  0
  186.3760  177.4050  137.6790 C   0  0  2  0  0  3  0  0  0  0  0  0
  184.3890  175.3700  137.4730 C   0  0  2  0  0  3  0  0  0  0  0  0
  188.8710  176.8450  137.9170 O   0  0  0  0  0  0  0  0  0  0  0  0
  185.1850  177.8300  136.8610 C   0  0  0  0  0  2  0  0  0  0  0  0
  187.8500  177.6230  137.3000 C   0  0  2  0  0  0  0  0  0  0  0  0
  186.9860  176.5030  136.6950 C   0  0  1  0  0  3  0  0  0  0  0  0
  185.6310  174.7990  136.7440 C   0  0  1  0  0  3  0  0  0  0  0  0
  181.5410  177.2370  140.0990 C   0  0  0  0  0  2  0  0  0  0  0  0
  181.8520  178.1790  137.7910 C   0  0  1  0  0  3  0  0  0  0  0  0
  180.9750  178.1220  139.0180 C   0  0  2  0  0  0  0  0  0  0  0  0
  183.1500  177.5100  138.2690 C   0  0  1  0  0  3  0  0  0  0  0  0
  180.7590  179.4180  139.5200 O   0  0  0  0  0  0  0  0  0  0  0  0
  179.6210  178.7090  139.0910 C   0  0  0  0  0  2  0  0  0  0  0  0
  182.7740  176.6180  139.4560 C   0  0  0  0  0  2  0  0  0  0  0  0
  181.1820  177.5020  136.5820 C   0  0  0  0  0  2  0  0  0  0  0  0
  181.3860  178.4210  135.0180 S   0  0  0  0  0  0  0  0  0  0  0  0
  180.7800  179.9570  135.7680 C   0  0  0  0  0  1  0  0  0  0  0  0
  183.7750  172.7510  134.9110 C   0  0  0  0  0  2  0  0  0  0  0  0
  183.2110  171.3720  134.5950 C   0  0  0  0  0  1  0  0  0  0  0  0
  186.5760  172.5810  135.8860 C   0  0  0  0  0  2  0  0  0  0  0  0
  187.7420  171.9610  136.6430 C   0  0  0  0  0  1  0  0  0  0  0  0
  3  2  1  1  0  0  0
  6 11  1  1  0  0  0
  6  9  1  0  0  0  0
  6 18  1  0  0  0  0
  7 25  1  6  0  0  0
  7  3  1  0  0  0  0
  7  5  1  0  0  0  0
  8 11  1  6  0  0  0
  9  5  1  6  0  0  0
 10  4  1  0  0  0  0
 12  8  1  0  0  0  0
 12 10  1  0  0  0  0
 12  4  1  6  0  0  0
 13  1  1  1  0  0  0
 13 12  1  0  0  0  0
 13  8  1  0  0  0  0
 14  3  1  0  0  0  0
 14  1  1  1  0  0  0
 14  9  1  0  0  0  0
 16 22  1  6  0  0  0
 16 18  1  0  0  0  0
 16 17  1  0  0  0  0
 17 20  1  6  0  0  0
 17 19  1  0  0  0  0
 17 15  1  0  0  0  0
 18 21  1  1  0  0  0
 20 19  1  0  0  0  0
 21 15  1  0  0  0  0
 23 24  1  0  0  0  0
 23 22  1  0  0  0  0
 26 25  1  0  0  0  0
 27 28  1  0  0  0  0
 27  3  1  0  0  0  0
M  END
>  <MODEL>
9

>  <REMARK>
 VINA RESULT:      -5.3      4.569      8.342
  Name = 
  5 active torsions:
  status: ('A' for Active; 'I' for Inactive)
    1  A    between atoms: C_3  and  C_7
    2  A    between atoms: C_6  and  C_11
    3  A    between atoms: C_9  and  C_18
    4  A    between atoms: C_10  and  C_13
    5  A    between atoms: S_14  and  C_18
                            x       y       z     vdW  Elec       q    Type
                         _______ _______ _______ _____ _____    ______ ____

>  <TORSDO>
F 5

$$$$
