=
 OpenBabel11052415083D

 55 59  0  0  1  0  0  0  0  0999 V2000
  183.7340  174.6840  135.7390 C   0  0  0  0  0  3  0  0  0  0  0  0
  185.6990  176.6680  135.9580 C   0  0  0  0  0  0  0  0  0  0  0  0
  184.7440  176.5120  136.9660 C   0  0  0  0  0  3  0  0  0  0  0  0
  184.6960  174.8320  134.7340 C   0  0  0  0  0  3  0  0  0  0  0  0
  183.7540  175.5280  136.8550 C   0  0  0  0  0  0  0  0  0  0  0  0
  185.6730  175.8290  134.8380 C   0  0  0  0  0  3  0  0  0  0  0  0
  186.6900  177.7810  136.0450 C   0  0  0  0  0  2  0  0  0  0  0  0
  188.1190  177.2500  136.0070 C   0  0  0  0  0  2  0  0  0  0  0  0
  188.4800  176.2480  137.4830 S   0  0  0  0  0  0  0  0  0  0  0  0
  187.7480  177.7500  138.7950 S   0  0  0  0  0  0  0  0  0  0  0  0
  189.3290  177.8600  139.6840 C   0  0  0  0  0  2  0  0  0  0  0  0
  188.4090  179.0520  142.1190 C   0  0  0  0  0  1  0  0  0  0  0  0
  188.8810  177.6210  142.0480 C   0  0  0  0  0  0  0  0  0  0  0  0
  189.2710  177.1160  140.9210 N   0  0  0  0  0  0  0  0  0  0  0  0
  190.7330  177.0820  146.0530 C   0  0  2  0  0  3  0  0  0  0  0  0
  190.1820  176.1440  143.6770 C   0  0  1  0  0  3  0  0  0  0  0  0
  187.9890  175.6400  142.9510 F   0  0  0  0  0  0  0  0  0  0  0  0
  191.2000  175.9190  146.6650 O   0  0  0  0  0  1  0  0  0  0  0  0
  188.2770  176.6870  145.6290 O   0  0  0  0  0  0  0  0  0  0  0  0
  189.2580  177.3000  146.4360 C   0  0  2  0  0  3  0  0  0  0  0  0
  188.8040  176.7140  143.2670 C   0  0  2  0  0  0  0  0  0  0  0  0
  190.9000  175.6360  142.5900 O   0  0  0  0  0  1  0  0  0  0  0  0
  188.1570  177.4390  144.4520 C   0  0  0  0  0  2  0  0  0  0  0  0
  191.0720  177.0370  144.5540 C   0  0  1  0  0  3  0  0  0  0  0  0
  191.5250  178.3310  143.9560 C   0  0  0  0  0  0  0  0  0  0  0  0
  191.0680  179.5470  144.4420 O   0  0  0  0  0  1  0  0  0  0  0  0
  192.3420  178.3140  143.0000 O   0  0  0  0  0  0  0  0  0  0  0  0
  188.2010  178.4590  148.2750 O   0  0  0  0  0  1  0  0  0  0  0  0
  188.8830  178.6410  147.0710 C   0  0  0  0  0  2  0  0  0  0  0  0
  182.7080  175.4000  137.9100 C   0  0  0  0  0  2  0  0  0  0  0  0
  181.9370  176.7070  138.0260 C   0  0  0  0  0  2  0  0  0  0  0  0
  179.3610  180.1480  138.9870 C   0  0  0  0  0  2  0  0  0  0  0  0
  179.7900  181.5920  138.8380 C   0  0  0  0  0  2  0  0  0  0  0  0
  182.9970  180.1350  138.5630 C   0  0  0  0  0  3  0  0  0  0  0  0
  181.6660  180.4030  139.1980 C   0  0  1  0  0  3  0  0  0  0  0  0
  181.1960  181.6690  138.8140 O   0  0  0  0  0  0  0  0  0  0  0  0
  180.6310  179.3690  138.8180 C   0  0  1  0  0  3  0  0  0  0  0  0
  183.3130  177.9370  139.7690 C   0  0  2  0  0  3  0  0  0  0  0  0
  183.7280  179.0440  138.8260 C   0  0  0  0  0  3  0  0  0  0  0  0
  180.7370  178.1420  139.7560 C   0  0  2  0  0  3  0  0  0  0  0  0
  181.9660  177.2560  139.4530 C   0  0  1  0  0  3  0  0  0  0  0  0
  184.8240  178.0160  141.7520 C   0  0  0  0  0  3  0  0  0  0  0  0
  184.0540  178.7470  143.9370 C   0  0  0  0  0  0  0  0  0  0  0  0
  182.5180  178.6810  142.0570 C   0  0  0  0  0  3  0  0  0  0  0  0
  182.7710  178.9440  143.4060 C   0  0  0  0  0  3  0  0  0  0  0  0
  185.0770  178.2790  143.1020 C   0  0  0  0  0  3  0  0  0  0  0  0
  183.5460  178.2220  141.2220 C   0  0  0  0  0  0  0  0  0  0  0  0
  184.3290  179.0300  145.3530 C   0  0  0  0  0  0  0  0  0  0  0  0
  183.4020  178.9780  146.2050 O   0  0  0  0  0  1  0  0  0  0  0  0
  185.6160  179.3560  145.7650 O   0  0  0  0  0  0  0  0  0  0  0  0
  179.4710  177.2700  139.9140 C   0  0  1  0  0  3  0  0  0  0  0  0
  179.2130  176.3900  138.7020 C   0  0  0  0  0  1  0  0  0  0  0  0
  179.2770  175.1170  141.1580 O   0  0  0  0  0  0  0  0  0  0  0  0
  179.3750  177.0940  142.3110 O   0  0  0  0  0  1  0  0  0  0  0  0
  179.3670  176.5030  141.1980 C   0  0  0  0  0  0  0  0  0  0  0  0
  1  5  1  0  0  0  0
  2  7  1  0  0  0  0
  2  3  1  0  0  0  0
  4  6  1  0  0  0  0
  4  1  2  0  0  0  0
  5  3  2  0  0  0  0
  5 30  1  0  0  0  0
  6  2  2  0  0  0  0
  8  7  1  0  0  0  0
  8  9  1  0  0  0  0
  9 10  1  0  0  0  0
 10 11  1  0  0  0  0
 11 14  1  0  0  0  0
 13 12  1  0  0  0  0
 13 21  1  0  0  0  0
 14 13  2  0  0  0  0
 15 20  1  0  0  0  0
 15 18  1  6  0  0  0
 16 22  1  6  0  0  0
 16 24  1  0  0  0  0
 19 20  1  0  0  0  0
 20 29  1  6  0  0  0
 21 17  1  6  0  0  0
 21 16  1  0  0  0  0
 21 23  1  0  0  0  0
 23 19  1  0  0  0  0
 24 25  1  6  0  0  0
 24 15  1  0  0  0  0
 25 26  1  0  0  0  0
 27 25  2  0  0  0  0
 29 28  1  0  0  0  0
 30 31  1  0  0  0  0
 33 32  1  0  0  0  0
 34 39  2  0  0  0  0
 35 34  1  6  0  0  0
 36 33  1  0  0  0  0
 36 35  1  0  0  0  0
 37 32  1  1  0  0  0
 37 35  1  0  0  0  0
 37 40  1  0  0  0  0
 38 47  1  1  0  0  0
 39 38  1  0  0  0  0
 40 51  1  6  0  0  0
 41 31  1  6  0  0  0
 41 40  1  0  0  0  0
 41 38  1  0  0  0  0
 42 46  1  0  0  0  0
 43 48  1  0  0  0  0
 44 45  2  0  0  0  0
 45 43  1  0  0  0  0
 46 43  2  0  0  0  0
 47 42  2  0  0  0  0
 47 44  1  0  0  0  0
 48 50  2  0  0  0  0
 48 49  1  0  0  0  0
 51 52  1  6  0  0  0
 51 55  1  0  0  0  0
 53 55  2  0  0  0  0
 55 54  1  0  0  0  0
M  END
>  <MODEL>
1

>  <REMARK>
 VINA RESULT:      -7.4      0.000      0.000
  Name = 
  16 active torsions:
  status: ('A' for Active; 'I' for Inactive)
    1  A    between atoms: C_1  and  C_53
    2  A    between atoms: C_2  and  C_28
    3  A    between atoms: C_2  and  C_44
    4  A    between atoms: C_8  and  N_22
    5  A    between atoms: C_8  and  S_35
    6  A    between atoms: C_10  and  C_32
    7  A    between atoms: C_19  and  C_40
    8  A    between atoms: C_19  and  C_45
    9  A    between atoms: C_20  and  C_42
   10  A    between atoms: C_25  and  C_38
   11  A    between atoms: C_27  and  C_54
   12  A    between atoms: C_28  and  C_49
   13  A    between atoms: C_33  and  C_52
   14  A    between atoms: S_35  and  S_43
   15  A    between atoms: S_43  and  C_51
   16  A    between atoms: C_51  and  C_54
                            x       y       z     vdW  Elec       q    Type
                         _______ _______ _______ _____ _____    ______ ____

>  <TORSDO>
F 16

$$$$
=
 OpenBabel11052415083D

 55 59  0  0  1  0  0  0  0  0999 V2000
  185.1890  176.0740  135.8350 C   0  0  0  0  0  3  0  0  0  0  0  0
  187.7090  175.3970  136.8540 C   0  0  0  0  0  0  0  0  0  0  0  0
  186.8810  176.2780  137.5560 C   0  0  0  0  0  3  0  0  0  0  0  0
  186.0120  175.1840  135.1370 C   0  0  0  0  0  3  0  0  0  0  0  0
  185.6250  176.6270  137.0440 C   0  0  0  0  0  0  0  0  0  0  0  0
  187.2740  174.8520  135.6400 C   0  0  0  0  0  3  0  0  0  0  0  0
  189.0810  175.1080  137.3640 C   0  0  0  0  0  2  0  0  0  0  0  0
  189.7650  176.3790  137.8550 C   0  0  0  0  0  2  0  0  0  0  0  0
  191.4470  176.5180  137.1740 S   0  0  0  0  0  0  0  0  0  0  0  0
  192.3340  176.4230  139.1030 S   0  0  0  0  0  0  0  0  0  0  0  0
  190.9740  177.3570  139.8640 C   0  0  0  0  0  2  0  0  0  0  0  0
  188.6790  178.2640  141.3160 C   0  0  0  0  0  1  0  0  0  0  0  0
  189.5500  177.1340  141.8050 C   0  0  0  0  0  0  0  0  0  0  0  0
  190.5670  176.7420  141.1070 N   0  0  0  0  0  0  0  0  0  0  0  0
  189.7230  177.5030  146.2320 C   0  0  2  0  0  3  0  0  0  0  0  0
  190.3750  176.2280  144.0470 C   0  0  1  0  0  3  0  0  0  0  0  0
  188.8130  175.0820  142.6900 F   0  0  0  0  0  0  0  0  0  0  0  0
  190.1420  176.5750  147.1840 O   0  0  0  0  0  1  0  0  0  0  0  0
  187.7830  176.4200  145.0350 O   0  0  0  0  0  0  0  0  0  0  0  0
  188.2070  177.3500  146.0060 C   0  0  2  0  0  3  0  0  0  0  0  0
  189.1870  176.3610  143.0650 C   0  0  2  0  0  0  0  0  0  0  0  0
  191.5560  175.8300  143.4130 O   0  0  0  0  0  1  0  0  0  0  0  0
  187.9840  176.9950  143.7720 C   0  0  0  0  0  2  0  0  0  0  0  0
  190.6310  177.4080  144.9960 C   0  0  1  0  0  3  0  0  0  0  0  0
  190.9990  178.7120  144.3630 C   0  0  0  0  0  0  0  0  0  0  0  0
  192.2520  178.9100  143.8000 O   0  0  0  0  0  0  0  0  0  0  0  0
  190.1540  179.6420  144.3340 O   0  0  0  0  0  1  0  0  0  0  0  0
  186.7900  178.6460  147.4750 O   0  0  0  0  0  1  0  0  0  0  0  0
  187.3350  178.5950  146.1910 C   0  0  0  0  0  2  0  0  0  0  0  0
  184.7690  177.6060  137.7730 C   0  0  0  0  0  2  0  0  0  0  0  0
  183.3680  177.6010  137.1770 C   0  0  0  0  0  2  0  0  0  0  0  0
  179.6070  179.6780  136.2070 C   0  0  0  0  0  2  0  0  0  0  0  0
  179.3860  181.1630  136.4060 C   0  0  0  0  0  2  0  0  0  0  0  0
  182.3310  180.8780  138.3380 C   0  0  0  0  0  3  0  0  0  0  0  0
  180.9340  180.5390  137.9170 C   0  0  1  0  0  3  0  0  0  0  0  0
  180.3210  181.6600  137.3360 O   0  0  0  0  0  0  0  0  0  0  0  0
  180.8940  179.4000  136.9250 C   0  0  1  0  0  3  0  0  0  0  0  0
  182.7290  178.6240  139.4100 C   0  0  2  0  0  3  0  0  0  0  0  0
  183.1210  180.0290  139.0090 C   0  0  0  0  0  3  0  0  0  0  0  0
  180.9080  178.0430  137.6720 C   0  0  2  0  0  3  0  0  0  0  0  0
  182.2920  177.6940  138.2610 C   0  0  1  0  0  3  0  0  0  0  0  0
  182.3990  179.0260  141.8500 C   0  0  0  0  0  3  0  0  0  0  0  0
  180.3530  178.3980  142.9990 C   0  0  0  0  0  0  0  0  0  0  0  0
  180.6060  177.9590  140.6250 C   0  0  0  0  0  3  0  0  0  0  0  0
  179.8440  177.8940  141.7940 C   0  0  0  0  0  3  0  0  0  0  0  0
  181.6360  178.9610  143.0210 C   0  0  0  0  0  3  0  0  0  0  0  0
  181.8860  178.5310  140.6460 C   0  0  0  0  0  0  0  0  0  0  0  0
  179.5540  178.3420  144.2320 C   0  0  0  0  0  0  0  0  0  0  0  0
  178.9940  179.3800  144.6760 O   0  0  0  0  0  0  0  0  0  0  0  0
  179.4070  177.1420  144.9180 O   0  0  0  0  0  1  0  0  0  0  0  0
  180.3180  176.8270  136.9240 C   0  0  1  0  0  3  0  0  0  0  0  0
  180.9820  176.5900  135.5780 C   0  0  0  0  0  1  0  0  0  0  0  0
  181.2590  174.6560  137.7170 O   0  0  0  0  0  0  0  0  0  0  0  0
  179.1820  175.3220  138.4180 O   0  0  0  0  0  1  0  0  0  0  0  0
  180.2070  175.5630  137.7260 C   0  0  0  0  0  0  0  0  0  0  0  0
  1  5  1  0  0  0  0
  2  7  1  0  0  0  0
  2  3  1  0  0  0  0
  4  6  1  0  0  0  0
  4  1  2  0  0  0  0
  5  3  2  0  0  0  0
  5 30  1  0  0  0  0
  6  2  2  0  0  0  0
  7  8  1  0  0  0  0
  9  8  1  0  0  0  0
  9 10  1  0  0  0  0
 10 11  1  0  0  0  0
 11 14  1  0  0  0  0
 12 13  1  0  0  0  0
 13 21  1  0  0  0  0
 14 13  2  0  0  0  0
 15 18  1  1  0  0  0
 16 22  1  6  0  0  0
 16 24  1  0  0  0  0
 19 20  1  0  0  0  0
 20 29  1  6  0  0  0
 20 15  1  0  0  0  0
 21 17  1  6  0  0  0
 21 23  1  0  0  0  0
 21 16  1  0  0  0  0
 23 19  1  0  0  0  0
 24 25  1  6  0  0  0
 24 15  1  0  0  0  0
 26 25  2  0  0  0  0
 27 25  1  0  0  0  0
 29 28  1  0  0  0  0
 31 30  1  0  0  0  0
 32 33  1  0  0  0  0
 33 36  1  0  0  0  0
 34 39  2  0  0  0  0
 35 34  1  6  0  0  0
 36 35  1  0  0  0  0
 37 32  1  1  0  0  0
 37 40  1  0  0  0  0
 37 35  1  0  0  0  0
 38 47  1  1  0  0  0
 39 38  1  0  0  0  0
 40 51  1  6  0  0  0
 40 41  1  0  0  0  0
 41 31  1  6  0  0  0
 41 38  1  0  0  0  0
 42 46  1  0  0  0  0
 43 46  2  0  0  0  0
 43 48  1  0  0  0  0
 44 47  1  0  0  0  0
 44 45  2  0  0  0  0
 45 43  1  0  0  0  0
 47 42  2  0  0  0  0
 48 49  2  0  0  0  0
 48 50  1  0  0  0  0
 51 52  1  6  0  0  0
 51 55  1  0  0  0  0
 53 55  2  0  0  0  0
 55 54  1  0  0  0  0
M  END
>  <MODEL>
2

>  <REMARK>
 VINA RESULT:      -5.5      1.860      2.610
  Name = 
  16 active torsions:
  status: ('A' for Active; 'I' for Inactive)
    1  A    between atoms: C_1  and  C_53
    2  A    between atoms: C_2  and  C_28
    3  A    between atoms: C_2  and  C_44
    4  A    between atoms: C_8  and  N_22
    5  A    between atoms: C_8  and  S_35
    6  A    between atoms: C_10  and  C_32
    7  A    between atoms: C_19  and  C_40
    8  A    between atoms: C_19  and  C_45
    9  A    between atoms: C_20  and  C_42
   10  A    between atoms: C_25  and  C_38
   11  A    between atoms: C_27  and  C_54
   12  A    between atoms: C_28  and  C_49
   13  A    between atoms: C_33  and  C_52
   14  A    between atoms: S_35  and  S_43
   15  A    between atoms: S_43  and  C_51
   16  A    between atoms: C_51  and  C_54
                            x       y       z     vdW  Elec       q    Type
                         _______ _______ _______ _____ _____    ______ ____

>  <TORSDO>
F 16

$$$$
=
 OpenBabel11052415083D

 55 59  0  0  1  0  0  0  0  0999 V2000
  184.1070  178.8970  145.2600 C   0  0  0  0  0  3  0  0  0  0  0  0
  186.4250  178.2490  143.8270 C   0  0  0  0  0  0  0  0  0  0  0  0
  185.2330  178.5160  143.1490 C   0  0  0  0  0  3  0  0  0  0  0  0
  185.3030  178.6410  145.9390 C   0  0  0  0  0  3  0  0  0  0  0  0
  184.0690  178.8300  143.8620 C   0  0  0  0  0  0  0  0  0  0  0  0
  186.4590  178.3090  145.2250 C   0  0  0  0  0  3  0  0  0  0  0  0
  187.6320  177.8250  143.0590 C   0  0  0  0  0  2  0  0  0  0  0  0
  188.0370  176.3980  143.4140 C   0  0  0  0  0  2  0  0  0  0  0  0
  189.7740  176.0850  142.9700 S   0  0  0  0  0  0  0  0  0  0  0  0
  190.1940  178.1590  142.7780 S   0  0  0  0  0  0  0  0  0  0  0  0
  191.3770  177.8770  141.4260 C   0  0  0  0  0  2  0  0  0  0  0  0
  192.8400  177.0960  139.0930 C   0  0  0  0  0  1  0  0  0  0  0  0
  191.3850  176.7480  139.2890 C   0  0  0  0  0  0  0  0  0  0  0  0
  190.7670  177.1050  140.3680 N   0  0  0  0  0  0  0  0  0  0  0  0
  187.9090  176.8900  136.5210 C   0  0  2  0  0  3  0  0  0  0  0  0
  189.1310  175.7960  138.5550 C   0  0  1  0  0  3  0  0  0  0  0  0
  191.1600  174.5960  138.3660 F   0  0  0  0  0  0  0  0  0  0  0  0
  186.8990  175.9500  136.3160 O   0  0  0  0  0  1  0  0  0  0  0  0
  190.0620  175.7110  135.9370 O   0  0  0  0  0  0  0  0  0  0  0  0
  189.0610  176.6200  135.5360 C   0  0  2  0  0  3  0  0  0  0  0  0
  190.6500  175.8810  138.2780 C   0  0  2  0  0  0  0  0  0  0  0  0
  188.8420  175.5360  139.8990 O   0  0  0  0  0  1  0  0  0  0  0  0
  190.9010  176.3690  136.8470 C   0  0  0  0  0  2  0  0  0  0  0  0
  188.2600  176.9400  138.0170 C   0  0  1  0  0  3  0  0  0  0  0  0
  188.5210  178.3040  138.5730 C   0  0  0  0  0  0  0  0  0  0  0  0
  187.9800  178.7010  139.7880 O   0  0  0  0  0  1  0  0  0  0  0  0
  189.2520  179.1000  137.9310 O   0  0  0  0  0  0  0  0  0  0  0  0
  188.5460  178.7880  134.5990 O   0  0  0  0  0  1  0  0  0  0  0  0
  189.5040  177.7730  134.6320 C   0  0  0  0  0  2  0  0  0  0  0  0
  182.7890  179.0640  143.1360 C   0  0  0  0  0  2  0  0  0  0  0  0
  182.8120  178.3200  141.8080 C   0  0  0  0  0  2  0  0  0  0  0  0
  179.1930  176.1520  140.5430 C   0  0  0  0  0  2  0  0  0  0  0  0
  179.1530  175.1790  139.3840 C   0  0  0  0  0  2  0  0  0  0  0  0
  182.2730  176.6550  138.6300 C   0  0  0  0  0  3  0  0  0  0  0  0
  180.8070  176.6380  138.9350 C   0  0  1  0  0  3  0  0  0  0  0  0
  180.2440  175.4190  138.5260 O   0  0  0  0  0  0  0  0  0  0  0  0
  180.5250  176.8280  140.4080 C   0  0  1  0  0  3  0  0  0  0  0  0
  182.5700  179.0470  139.3880 C   0  0  2  0  0  3  0  0  0  0  0  0
  183.0500  177.7290  138.8240 C   0  0  0  0  0  3  0  0  0  0  0  0
  180.4930  178.3380  140.7520 C   0  0  2  0  0  3  0  0  0  0  0  0
  181.8980  178.9800  140.7740 C   0  0  1  0  0  3  0  0  0  0  0  0
  181.5980  181.2630  138.7780 C   0  0  0  0  0  3  0  0  0  0  0  0
  180.6130  181.6870  136.5990 C   0  0  0  0  0  0  0  0  0  0  0  0
  181.5230  179.4980  137.1240 C   0  0  0  0  0  3  0  0  0  0  0  0
  180.8920  180.3640  136.2280 C   0  0  0  0  0  3  0  0  0  0  0  0
  180.9670  182.1300  137.8810 C   0  0  0  0  0  3  0  0  0  0  0  0
  181.8850  179.9460  138.4020 C   0  0  0  0  0  0  0  0  0  0  0  0
  179.9570  182.6060  135.6570 C   0  0  0  0  0  0  0  0  0  0  0  0
  179.4380  182.1670  134.5960 O   0  0  0  0  0  0  0  0  0  0  0  0
  179.9020  183.9680  135.9300 O   0  0  0  0  0  1  0  0  0  0  0  0
  179.6920  178.7530  142.0060 C   0  0  1  0  0  3  0  0  0  0  0  0
  180.0980  177.9710  143.2440 C   0  0  0  0  0  1  0  0  0  0  0  0
  179.1570  181.0760  141.2720 O   0  0  0  0  0  0  0  0  0  0  0  0
  179.9530  180.7040  143.3880 O   0  0  0  0  0  1  0  0  0  0  0  0
  179.6180  180.2270  142.2710 C   0  0  0  0  0  0  0  0  0  0  0  0
  1  4  1  0  0  0  0
  2  6  1  0  0  0  0
  3  2  2  0  0  0  0
  3  5  1  0  0  0  0
  5  1  2  0  0  0  0
  6  4  2  0  0  0  0
  7  8  1  0  0  0  0
  7  2  1  0  0  0  0
  9  8  1  0  0  0  0
 10  9  1  0  0  0  0
 11 10  1  0  0  0  0
 12 13  1  0  0  0  0
 13 14  2  0  0  0  0
 14 11  1  0  0  0  0
 15 18  1  1  0  0  0
 15 24  1  0  0  0  0
 16 22  1  1  0  0  0
 19 23  1  0  0  0  0
 20 29  1  1  0  0  0
 20 19  1  0  0  0  0
 20 15  1  0  0  0  0
 21 17  1  1  0  0  0
 21 16  1  0  0  0  0
 21 13  1  0  0  0  0
 23 21  1  0  0  0  0
 24 16  1  0  0  0  0
 24 25  1  6  0  0  0
 25 26  1  0  0  0  0
 27 25  2  0  0  0  0
 28 29  1  0  0  0  0
 30  5  1  0  0  0  0
 31 30  1  0  0  0  0
 33 32  1  0  0  0  0
 34 39  2  0  0  0  0
 35 34  1  1  0  0  0
 35 37  1  0  0  0  0
 36 35  1  0  0  0  0
 36 33  1  0  0  0  0
 37 32  1  6  0  0  0
 37 40  1  0  0  0  0
 38 47  1  6  0  0  0
 38 41  1  0  0  0  0
 39 38  1  0  0  0  0
 40 41  1  0  0  0  0
 40 51  1  1  0  0  0
 41 31  1  1  0  0  0
 43 46  1  0  0  0  0
 44 47  2  0  0  0  0
 45 43  2  0  0  0  0
 45 44  1  0  0  0  0
 46 42  2  0  0  0  0
 47 42  1  0  0  0  0
 48 50  1  0  0  0  0
 48 43  1  0  0  0  0
 49 48  2  0  0  0  0
 51 55  1  0  0  0  0
 51 52  1  1  0  0  0
 53 55  2  0  0  0  0
 55 54  1  0  0  0  0
M  END
>  <MODEL>
3

>  <REMARK>
 VINA RESULT:      -5.3      3.231      7.203
  Name = 
  16 active torsions:
  status: ('A' for Active; 'I' for Inactive)
    1  A    between atoms: C_1  and  C_53
    2  A    between atoms: C_2  and  C_28
    3  A    between atoms: C_2  and  C_44
    4  A    between atoms: C_8  and  N_22
    5  A    between atoms: C_8  and  S_35
    6  A    between atoms: C_10  and  C_32
    7  A    between atoms: C_19  and  C_40
    8  A    between atoms: C_19  and  C_45
    9  A    between atoms: C_20  and  C_42
   10  A    between atoms: C_25  and  C_38
   11  A    between atoms: C_27  and  C_54
   12  A    between atoms: C_28  and  C_49
   13  A    between atoms: C_33  and  C_52
   14  A    between atoms: S_35  and  S_43
   15  A    between atoms: S_43  and  C_51
   16  A    between atoms: C_51  and  C_54
                            x       y       z     vdW  Elec       q    Type
                         _______ _______ _______ _____ _____    ______ ____

>  <TORSDO>
F 16

$$$$
=
 OpenBabel11052415083D

 55 59  0  0  1  0  0  0  0  0999 V2000
  186.0760  178.1490  146.2660 C   0  0  0  0  0  3  0  0  0  0  0  0
  184.2880  178.5360  144.1450 C   0  0  0  0  0  0  0  0  0  0  0  0
  185.5780  178.0600  143.8970 C   0  0  0  0  0  3  0  0  0  0  0  0
  184.7800  178.6150  146.5160 C   0  0  0  0  0  3  0  0  0  0  0  0
  186.4780  177.8760  144.9540 C   0  0  0  0  0  0  0  0  0  0  0  0
  183.8890  178.8160  145.4570 C   0  0  0  0  0  3  0  0  0  0  0  0
  183.3720  178.8160  143.0010 C   0  0  0  0  0  2  0  0  0  0  0  0
  181.9510  179.0850  143.4850 C   0  0  0  0  0  2  0  0  0  0  0  0
  180.7280  178.3230  142.3740 S   0  0  0  0  0  0  0  0  0  0  0  0
  179.8650  180.2020  141.8850 S   0  0  0  0  0  0  0  0  0  0  0  0
  179.2310  179.5900  140.2960 C   0  0  0  0  0  2  0  0  0  0  0  0
  179.4810  177.5590  138.2940 C   0  0  0  0  0  1  0  0  0  0  0  0
  180.4210  178.7370  138.3720 C   0  0  0  0  0  0  0  0  0  0  0  0
  180.2590  179.6430  139.2820 N   0  0  0  0  0  0  0  0  0  0  0  0
  184.0710  176.7710  136.7690 C   0  0  2  0  0  3  0  0  0  0  0  0
  182.9300  178.8290  137.9030 C   0  0  1  0  0  3  0  0  0  0  0  0
  181.3630  180.2200  136.8070 F   0  0  0  0  0  0  0  0  0  0  0  0
  185.3200  177.3190  136.4810 O   0  0  0  0  0  1  0  0  0  0  0  0
  182.4340  178.0030  135.2950 O   0  0  0  0  0  0  0  0  0  0  0  0
  183.1880  176.8310  135.5080 C   0  0  2  0  0  3  0  0  0  0  0  0
  181.5020  178.9410  137.3210 C   0  0  2  0  0  0  0  0  0  0  0  0
  183.0900  179.5600  139.0850 O   0  0  0  0  0  1  0  0  0  0  0  0
  181.3270  177.9640  136.1540 C   0  0  0  0  0  2  0  0  0  0  0  0
  183.5150  177.4170  138.0470 C   0  0  1  0  0  3  0  0  0  0  0  0
  182.8090  176.4900  138.9850 C   0  0  0  0  0  0  0  0  0  0  0  0
  182.0490  175.4300  138.5120 O   0  0  0  0  0  0  0  0  0  0  0  0
  182.9170  176.6700  140.2250 O   0  0  0  0  0  1  0  0  0  0  0  0
  183.1110  174.4210  135.6850 O   0  0  0  0  0  1  0  0  0  0  0  0
  182.5730  175.5190  135.0130 C   0  0  0  0  0  2  0  0  0  0  0  0
  187.8700  177.4170  144.6770 C   0  0  0  0  0  2  0  0  0  0  0  0
  187.8410  176.2860  143.6590 C   0  0  0  0  0  2  0  0  0  0  0  0
  191.3210  178.6550  144.9540 C   0  0  0  0  0  2  0  0  0  0  0  0
  191.5280  180.1130  144.6030 C   0  0  0  0  0  2  0  0  0  0  0  0
  188.9610  179.4450  142.2700 C   0  0  0  0  0  3  0  0  0  0  0  0
  190.2770  179.2320  142.9540 C   0  0  1  0  0  3  0  0  0  0  0  0
  190.7490  180.4450  143.4780 O   0  0  0  0  0  0  0  0  0  0  0  0
  190.1820  178.2250  144.0780 C   0  0  1  0  0  3  0  0  0  0  0  0
  188.8160  177.0600  141.4470 C   0  0  2  0  0  3  0  0  0  0  0  0
  188.3200  178.4810  141.5950 C   0  0  0  0  0  3  0  0  0  0  0  0
  190.3350  176.7890  143.5190 C   0  0  2  0  0  3  0  0  0  0  0  0
  189.0810  176.3010  142.7620 C   0  0  1  0  0  3  0  0  0  0  0  0
  189.4590  176.3840  139.1330 C   0  0  0  0  0  3  0  0  0  0  0  0
  191.7570  176.4720  138.3520 C   0  0  0  0  0  0  0  0  0  0  0  0
  191.2120  177.1300  140.6250 C   0  0  0  0  0  3  0  0  0  0  0  0
  192.1560  176.9380  139.6130 C   0  0  0  0  0  3  0  0  0  0  0  0
  190.4040  176.1930  138.1200 C   0  0  0  0  0  3  0  0  0  0  0  0
  189.8580  176.8590  140.3870 C   0  0  0  0  0  0  0  0  0  0  0  0
  192.7440  176.2760  137.2790 C   0  0  0  0  0  0  0  0  0  0  0  0
  192.4450  175.6080  136.2530 O   0  0  0  0  0  0  0  0  0  0  0  0
  194.0150  176.8280  137.3870 O   0  0  0  0  0  1  0  0  0  0  0  0
  190.8260  175.7040  144.5040 C   0  0  1  0  0  3  0  0  0  0  0  0
  192.0840  175.0030  144.0210 C   0  0  0  0  0  1  0  0  0  0  0  0
  192.1930  176.2950  146.5050 O   0  0  0  0  0  0  0  0  0  0  0  0
  189.9060  176.3560  146.6290 O   0  0  0  0  0  1  0  0  0  0  0  0
  190.9350  176.1300  145.9380 C   0  0  0  0  0  0  0  0  0  0  0  0
  1  4  1  0  0  0  0
  2  6  1  0  0  0  0
  3  2  2  0  0  0  0
  3  5  1  0  0  0  0
  5  1  2  0  0  0  0
  6  4  2  0  0  0  0
  7  8  1  0  0  0  0
  7  2  1  0  0  0  0
  9  8  1  0  0  0  0
 10  9  1  0  0  0  0
 11 10  1  0  0  0  0
 12 13  1  0  0  0  0
 13 14  2  0  0  0  0
 14 11  1  0  0  0  0
 15 18  1  6  0  0  0
 15 24  1  0  0  0  0
 16 24  1  0  0  0  0
 16 22  1  1  0  0  0
 19 20  1  0  0  0  0
 19 23  1  0  0  0  0
 20 29  1  1  0  0  0
 20 15  1  0  0  0  0
 21 17  1  6  0  0  0
 21 16  1  0  0  0  0
 21 13  1  0  0  0  0
 23 21  1  0  0  0  0
 24 25  1  6  0  0  0
 25 27  1  0  0  0  0
 26 25  2  0  0  0  0
 29 28  1  0  0  0  0
 30  5  1  0  0  0  0
 31 30  1  0  0  0  0
 33 32  1  0  0  0  0
 35 34  1  1  0  0  0
 35 36  1  0  0  0  0
 35 37  1  0  0  0  0
 36 33  1  0  0  0  0
 37 32  1  1  0  0  0
 38 47  1  6  0  0  0
 38 39  1  0  0  0  0
 38 41  1  0  0  0  0
 39 34  2  0  0  0  0
 40 37  1  0  0  0  0
 40 51  1  1  0  0  0
 41 40  1  0  0  0  0
 41 31  1  1  0  0  0
 42 47  1  0  0  0  0
 43 45  2  0  0  0  0
 45 44  1  0  0  0  0
 46 43  1  0  0  0  0
 46 42  2  0  0  0  0
 47 44  2  0  0  0  0
 48 50  1  0  0  0  0
 48 43  1  0  0  0  0
 49 48  2  0  0  0  0
 51 52  1  6  0  0  0
 51 55  1  0  0  0  0
 55 53  2  0  0  0  0
 55 54  1  0  0  0  0
M  END
>  <MODEL>
4

>  <REMARK>
 VINA RESULT:      -4.5      3.526     10.479
  Name = 
  16 active torsions:
  status: ('A' for Active; 'I' for Inactive)
    1  A    between atoms: C_1  and  C_53
    2  A    between atoms: C_2  and  C_28
    3  A    between atoms: C_2  and  C_44
    4  A    between atoms: C_8  and  N_22
    5  A    between atoms: C_8  and  S_35
    6  A    between atoms: C_10  and  C_32
    7  A    between atoms: C_19  and  C_40
    8  A    between atoms: C_19  and  C_45
    9  A    between atoms: C_20  and  C_42
   10  A    between atoms: C_25  and  C_38
   11  A    between atoms: C_27  and  C_54
   12  A    between atoms: C_28  and  C_49
   13  A    between atoms: C_33  and  C_52
   14  A    between atoms: S_35  and  S_43
   15  A    between atoms: S_43  and  C_51
   16  A    between atoms: C_51  and  C_54
                            x       y       z     vdW  Elec       q    Type
                         _______ _______ _______ _____ _____    ______ ____

>  <TORSDO>
F 16

$$$$
=
 OpenBabel11052415083D

 55 59  0  0  1  0  0  0  0  0999 V2000
  185.3990  175.6000  135.6650 C   0  0  0  0  0  3  0  0  0  0  0  0
  187.8870  175.3080  136.9200 C   0  0  0  0  0  0  0  0  0  0  0  0
  187.0420  176.3640  137.2730 C   0  0  0  0  0  3  0  0  0  0  0  0
  186.2390  174.5350  135.3190 C   0  0  0  0  0  3  0  0  0  0  0  0
  185.8020  176.5190  136.6410 C   0  0  0  0  0  0  0  0  0  0  0  0
  187.4850  174.3930  135.9390 C   0  0  0  0  0  3  0  0  0  0  0  0
  189.2430  175.2100  137.5340 C   0  0  0  0  0  2  0  0  0  0  0  0
  190.0380  176.4940  137.3230 C   0  0  0  0  0  2  0  0  0  0  0  0
  191.8080  176.1340  137.0970 S   0  0  0  0  0  0  0  0  0  0  0  0
  192.2670  176.6780  139.0990 S   0  0  0  0  0  0  0  0  0  0  0  0
  190.5740  177.2580  139.4170 C   0  0  0  0  0  2  0  0  0  0  0  0
  192.7150  177.0520  141.3060 C   0  0  0  0  0  1  0  0  0  0  0  0
  191.3920  177.6910  141.6500 C   0  0  0  0  0  0  0  0  0  0  0  0
  190.4580  177.7810  140.7590 N   0  0  0  0  0  0  0  0  0  0  0  0
  189.5970  176.8210  145.6230 C   0  0  2  0  0  3  0  0  0  0  0  0
  189.6940  178.2880  143.4630 C   0  0  1  0  0  3  0  0  0  0  0  0
  191.5280  179.6740  142.9090 F   0  0  0  0  0  0  0  0  0  0  0  0
  188.7580  177.6090  146.4090 O   0  0  0  0  0  1  0  0  0  0  0  0
  191.7250  178.1510  145.3570 O   0  0  0  0  0  0  0  0  0  0  0  0
  191.0620  177.0940  146.0130 C   0  0  2  0  0  3  0  0  0  0  0  0
  191.1710  178.3400  143.0090 C   0  0  2  0  0  0  0  0  0  0  0  0
  188.8060  178.6780  142.4550 O   0  0  0  0  0  1  0  0  0  0  0  0
  192.0750  177.7090  144.0730 C   0  0  0  0  0  2  0  0  0  0  0  0
  189.2190  176.9960  144.1430 C   0  0  1  0  0  3  0  0  0  0  0  0
  189.2510  175.7490  143.3170 C   0  0  0  0  0  0  0  0  0  0  0  0
  190.4170  175.0120  143.1730 O   0  0  0  0  0  1  0  0  0  0  0  0
  188.1980  175.3600  142.7510 O   0  0  0  0  0  0  0  0  0  0  0  0
  191.9410  175.7330  147.8070 O   0  0  0  0  0  1  0  0  0  0  0  0
  191.9200  175.8940  146.4210 C   0  0  0  0  0  2  0  0  0  0  0  0
  184.9290  177.6760  136.9860 C   0  0  0  0  0  2  0  0  0  0  0  0
  183.5610  177.1710  137.4250 C   0  0  0  0  0  2  0  0  0  0  0  0
  179.5160  178.0660  138.9210 C   0  0  0  0  0  2  0  0  0  0  0  0
  178.9770  179.4680  139.1100 C   0  0  0  0  0  2  0  0  0  0  0  0
  182.3820  180.3380  138.7460 C   0  0  0  0  0  3  0  0  0  0  0  0
  181.2120  179.6090  139.3330 C   0  0  1  0  0  3  0  0  0  0  0  0
  180.0470  180.3800  139.1960 O   0  0  0  0  0  0  0  0  0  0  0  0
  180.9820  178.2680  138.6750 C   0  0  1  0  0  3  0  0  0  0  0  0
  184.0490  178.5840  139.4750 C   0  0  2  0  0  3  0  0  0  0  0  0
  183.6400  179.8840  138.8190 C   0  0  0  0  0  3  0  0  0  0  0  0
  181.8770  177.1910  139.3370 C   0  0  2  0  0  3  0  0  0  0  0  0
  183.3630  177.3140  138.9350 C   0  0  1  0  0  3  0  0  0  0  0  0
  183.0150  178.8000  141.7360 C   0  0  0  0  0  3  0  0  0  0  0  0
  184.3370  178.7440  143.7730 C   0  0  0  0  0  0  0  0  0  0  0  0
  185.4180  178.5440  141.6080 C   0  0  0  0  0  3  0  0  0  0  0  0
  185.4980  178.5940  143.0020 C   0  0  0  0  0  3  0  0  0  0  0  0
  183.0960  178.8500  143.1310 C   0  0  0  0  0  3  0  0  0  0  0  0
  184.1740  178.6410  140.9690 C   0  0  0  0  0  0  0  0  0  0  0  0
  184.4130  178.7880  145.2410 C   0  0  0  0  0  0  0  0  0  0  0  0
  183.3650  178.9210  145.9290 O   0  0  0  0  0  1  0  0  0  0  0  0
  185.6410  178.6830  145.8830 O   0  0  0  0  0  0  0  0  0  0  0  0
  181.4080  175.7240  139.2210 C   0  0  1  0  0  3  0  0  0  0  0  0
  180.5980  175.2730  140.4250 C   0  0  0  0  0  1  0  0  0  0  0  0
  179.4240  174.9220  137.9390 O   0  0  0  0  0  1  0  0  0  0  0  0
  181.3600  175.4450  136.8320 O   0  0  0  0  0  0  0  0  0  0  0  0
  180.7440  175.3540  137.9270 C   0  0  0  0  0  0  0  0  0  0  0  0
  1  5  1  0  0  0  0
  2  3  1  0  0  0  0
  2  7  1  0  0  0  0
  4  1  2  0  0  0  0
  4  6  1  0  0  0  0
  5 30  1  0  0  0  0
  5  3  2  0  0  0  0
  6  2  2  0  0  0  0
  8  7  1  0  0  0  0
  9  8  1  0  0  0  0
  9 10  1  0  0  0  0
 10 11  1  0  0  0  0
 11 14  1  0  0  0  0
 12 13  1  0  0  0  0
 13 21  1  0  0  0  0
 14 13  2  0  0  0  0
 15 20  1  0  0  0  0
 15 18  1  1  0  0  0
 16 22  1  6  0  0  0
 16 24  1  0  0  0  0
 19 20  1  0  0  0  0
 20 29  1  6  0  0  0
 21 17  1  6  0  0  0
 21 16  1  0  0  0  0
 21 23  1  0  0  0  0
 23 19  1  0  0  0  0
 24 25  1  6  0  0  0
 24 15  1  0  0  0  0
 26 25  1  0  0  0  0
 27 25  2  0  0  0  0
 29 28  1  0  0  0  0
 30 31  1  0  0  0  0
 32 33  1  0  0  0  0
 33 36  1  0  0  0  0
 34 39  2  0  0  0  0
 35 34  1  6  0  0  0
 36 35  1  0  0  0  0
 37 32  1  1  0  0  0
 37 35  1  0  0  0  0
 37 40  1  0  0  0  0
 38 47  1  1  0  0  0
 39 38  1  0  0  0  0
 40 51  1  6  0  0  0
 41 31  1  6  0  0  0
 41 40  1  0  0  0  0
 41 38  1  0  0  0  0
 42 46  1  0  0  0  0
 43 48  1  0  0  0  0
 44 45  2  0  0  0  0
 45 43  1  0  0  0  0
 46 43  2  0  0  0  0
 47 44  1  0  0  0  0
 47 42  2  0  0  0  0
 48 50  2  0  0  0  0
 48 49  1  0  0  0  0
 51 52  1  1  0  0  0
 54 55  2  0  0  0  0
 55 53  1  0  0  0  0
 55 51  1  0  0  0  0
M  END
>  <MODEL>
5

>  <REMARK>
 VINA RESULT:      -4.4      1.928      2.883
  Name = 
  16 active torsions:
  status: ('A' for Active; 'I' for Inactive)
    1  A    between atoms: C_1  and  C_53
    2  A    between atoms: C_2  and  C_28
    3  A    between atoms: C_2  and  C_44
    4  A    between atoms: C_8  and  N_22
    5  A    between atoms: C_8  and  S_35
    6  A    between atoms: C_10  and  C_32
    7  A    between atoms: C_19  and  C_40
    8  A    between atoms: C_19  and  C_45
    9  A    between atoms: C_20  and  C_42
   10  A    between atoms: C_25  and  C_38
   11  A    between atoms: C_27  and  C_54
   12  A    between atoms: C_28  and  C_49
   13  A    between atoms: C_33  and  C_52
   14  A    between atoms: S_35  and  S_43
   15  A    between atoms: S_43  and  C_51
   16  A    between atoms: C_51  and  C_54
                            x       y       z     vdW  Elec       q    Type
                         _______ _______ _______ _____ _____    ______ ____

>  <TORSDO>
F 16

$$$$
