=
 OpenBabel11052412493D

 25 29  0  0  1  0  0  0  0  0999 V2000
  185.6720  178.5420  144.5530 C   0  0  0  0  0  0  0  0  0  0  0  0
  186.9970  178.1030  144.5970 C   0  0  0  0  0  0  0  0  0  0  0  0
  185.4340  178.3180  146.9490 C   0  0  0  0  0  3  0  0  0  0  0  0
  184.8600  179.0480  143.4170 C   0  0  2  0  0  3  0  0  0  0  0  0
  182.2620  178.7520  142.2110 C   0  0  0  0  0  3  0  0  0  0  0  0
  186.7590  177.8550  147.0200 C   0  0  0  0  0  3  0  0  0  0  0  0
  183.5660  179.3170  144.1430 C   0  0  0  0  0  0  0  0  0  0  0  0
  182.3110  179.3860  143.3900 C   0  0  0  0  0  3  0  0  0  0  0  0
  188.8760  177.3020  145.8790 C   0  0  0  0  0  0  0  0  0  0  0  0
  189.5390  176.9040  147.1550 C   0  0  0  0  0  1  0  0  0  0  0  0
  187.7480  178.0140  143.4710 N   0  0  0  0  0  0  0  0  0  0  0  0
  183.4250  177.9690  141.7160 C   0  0  0  0  0  3  0  0  0  0  0  0
  184.9260  178.6680  145.7000 C   0  0  0  0  0  0  0  0  0  0  0  0
  183.6070  179.1120  145.4240 N   0  0  0  0  0  0  0  0  0  0  0  0
  189.5830  177.2300  144.7210 N   0  0  0  0  0  0  0  0  0  0  0  0
  184.6260  178.0510  142.3120 C   0  0  0  0  0  3  0  0  0  0  0  0
  189.0370  177.5810  143.5230 C   0  0  0  0  0  0  0  0  0  0  0  0
  187.5470  177.7480  145.8500 C   0  0  0  0  0  0  0  0  0  0  0  0
  189.9670  177.3100  139.8670 C   0  0  0  0  0  0  0  0  0  0  0  0
  189.8380  177.4890  142.2870 C   0  0  0  0  0  0  0  0  0  0  0  0
  189.2080  177.3980  141.0370 C   0  0  0  0  0  3  0  0  0  0  0  0
  189.3500  177.2220  138.6650 F   0  0  0  0  0  0  0  0  0  0  0  0
  191.2400  177.4920  142.3480 C   0  0  0  0  0  3  0  0  0  0  0  0
  191.3620  177.3130  139.9370 C   0  0  0  0  0  3  0  0  0  0  0  0
  191.9990  177.4040  141.1770 C   0  0  0  0  0  3  0  0  0  0  0  0
  1  2  2  0  0  0  0
  1 13  1  0  0  0  0
  2 18  1  0  0  0  0
  3  6  1  0  0  0  0
  4 16  1  6  0  0  0
  4  7  1  0  0  0  0
  4  1  1  0  0  0  0
  5  8  2  0  0  0  0
  7 14  2  0  0  0  0
  8  7  1  0  0  0  0
  9 10  1  0  0  0  0
 11 17  2  0  0  0  0
 11  2  1  0  0  0  0
 12  5  1  0  0  0  0
 12 16  2  0  0  0  0
 13  3  2  0  0  0  0
 14 13  1  0  0  0  0
 15  9  2  0  0  0  0
 17 15  1  0  0  0  0
 18  9  1  0  0  0  0
 18  6  2  0  0  0  0
 19 24  2  0  0  0  0
 19 21  1  0  0  0  0
 20 23  1  0  0  0  0
 20 17  1  0  0  0  0
 21 20  2  0  0  0  0
 22 19  1  0  0  0  0
 24 25  1  0  0  0  0
 25 23  2  0  0  0  0
M  END
>  <MODEL>
1

>  <REMARK>
 VINA RESULT:     -10.5      0.000      0.000
  Name = 
  1 active torsions:
  status: ('A' for Active; 'I' for Inactive)
    1  A    between atoms: C_6  and  C_23
                            x       y       z     vdW  Elec       q    Type
                         _______ _______ _______ _____ _____    ______ ____

>  <TORSDO>
F 1

$$$$
=
 OpenBabel11052412493D

 25 29  0  0  1  0  0  0  0  0999 V2000
  185.6740  178.5390  144.4790 C   0  0  0  0  0  0  0  0  0  0  0  0
  186.9960  178.0940  144.4340 C   0  0  0  0  0  0  0  0  0  0  0  0
  185.5880  178.2940  146.8830 C   0  0  0  0  0  3  0  0  0  0  0  0
  184.7940  179.0600  143.4010 C   0  0  2  0  0  3  0  0  0  0  0  0
  182.1230  178.7880  142.3600 C   0  0  0  0  0  3  0  0  0  0  0  0
  186.9120  177.8250  146.8650 C   0  0  0  0  0  3  0  0  0  0  0  0
  183.5500  179.3290  144.2100 C   0  0  0  0  0  0  0  0  0  0  0  0
  182.2500  179.4110  143.5390 C   0  0  0  0  0  3  0  0  0  0  0  0
  188.9490  177.2720  145.5870 C   0  0  0  0  0  0  0  0  0  0  0  0
  189.6900  176.8580  146.8140 C   0  0  0  0  0  1  0  0  0  0  0  0
  187.6740  178.0110  143.2620 N   0  0  0  0  0  0  0  0  0  0  0  0
  183.2480  178.0040  141.7860 C   0  0  0  0  0  3  0  0  0  0  0  0
  185.0030  178.6590  145.6720 C   0  0  0  0  0  0  0  0  0  0  0  0
  183.6710  179.1120  145.4840 N   0  0  0  0  0  0  0  0  0  0  0  0
  189.5800  177.2060  144.3850 N   0  0  0  0  0  0  0  0  0  0  0  0
  184.4850  178.0740  142.3050 C   0  0  0  0  0  3  0  0  0  0  0  0
  188.9610  177.5710  143.2280 C   0  0  0  0  0  0  0  0  0  0  0  0
  187.6230  177.7240  145.6470 C   0  0  0  0  0  0  0  0  0  0  0  0
  191.7630  177.3190  140.6990 C   0  0  0  0  0  0  0  0  0  0  0  0
  189.6810  177.4870  141.9430 C   0  0  0  0  0  0  0  0  0  0  0  0
  191.0810  177.3980  141.9160 C   0  0  0  0  0  3  0  0  0  0  0  0
  193.1140  177.2340  140.6840 F   0  0  0  0  0  0  0  0  0  0  0  0
  188.9730  177.4930  140.7300 C   0  0  0  0  0  3  0  0  0  0  0  0
  191.0500  177.3260  139.4970 C   0  0  0  0  0  3  0  0  0  0  0  0
  189.6560  177.4140  139.5120 C   0  0  0  0  0  3  0  0  0  0  0  0
  1 13  1  0  0  0  0
  2  1  2  0  0  0  0
  2 18  1  0  0  0  0
  4 16  1  6  0  0  0
  4  7  1  0  0  0  0
  4  1  1  0  0  0  0
  5  8  2  0  0  0  0
  6  3  1  0  0  0  0
  7 14  2  0  0  0  0
  8  7  1  0  0  0  0
  9 18  1  0  0  0  0
  9 10  1  0  0  0  0
 11  2  1  0  0  0  0
 12 16  2  0  0  0  0
 12  5  1  0  0  0  0
 13  3  2  0  0  0  0
 14 13  1  0  0  0  0
 15  9  2  0  0  0  0
 17 11  2  0  0  0  0
 17 15  1  0  0  0  0
 18  6  2  0  0  0  0
 19 21  1  0  0  0  0
 20 17  1  0  0  0  0
 21 20  2  0  0  0  0
 22 19  1  0  0  0  0
 23 20  1  0  0  0  0
 24 25  1  0  0  0  0
 24 19  2  0  0  0  0
 25 23  2  0  0  0  0
M  END
>  <MODEL>
2

>  <REMARK>
 VINA RESULT:     -10.4      0.903      1.322
  Name = 
  1 active torsions:
  status: ('A' for Active; 'I' for Inactive)
    1  A    between atoms: C_6  and  C_23
                            x       y       z     vdW  Elec       q    Type
                         _______ _______ _______ _____ _____    ______ ____

>  <TORSDO>
F 1

$$$$
=
 OpenBabel11052412493D

 25 29  0  0  1  0  0  0  0  0999 V2000
  188.7580  177.3170  142.9510 C   0  0  0  0  0  0  0  0  0  0  0  0
  187.7040  177.6580  143.8000 C   0  0  0  0  0  0  0  0  0  0  0  0
  190.3040  177.1540  144.8020 C   0  0  0  0  0  3  0  0  0  0  0  0
  188.7730  177.0590  141.4880 C   0  0  2  0  0  3  0  0  0  0  0  0
  190.2620  177.7140  139.1110 C   0  0  0  0  0  3  0  0  0  0  0  0
  189.2670  177.5140  145.6780 C   0  0  0  0  0  3  0  0  0  0  0  0
  190.2400  176.7550  141.3090 C   0  0  0  0  0  0  0  0  0  0  0  0
  190.8540  176.8910  139.9860 C   0  0  0  0  0  3  0  0  0  0  0  0
  186.8990  178.1150  146.0270 C   0  0  0  0  0  0  0  0  0  0  0  0
  187.0800  178.2540  147.5020 C   0  0  0  0  0  1  0  0  0  0  0  0
  186.4560  177.8860  143.3200 N   0  0  0  0  0  0  0  0  0  0  0  0
  189.0550  178.4940  139.4930 C   0  0  0  0  0  3  0  0  0  0  0  0
  190.0120  177.0490  143.4440 C   0  0  0  0  0  0  0  0  0  0  0  0
  190.9310  176.7410  142.4080 N   0  0  0  0  0  0  0  0  0  0  0  0
  185.6690  178.3350  145.4930 N   0  0  0  0  0  0  0  0  0  0  0  0
  188.3900  178.2380  140.6330 C   0  0  0  0  0  3  0  0  0  0  0  0
  185.4360  178.2230  144.1550 C   0  0  0  0  0  0  0  0  0  0  0  0
  187.9650  177.7650  145.1860 C   0  0  0  0  0  0  0  0  0  0  0  0
  182.5720  178.6370  141.7200 C   0  0  0  0  0  0  0  0  0  0  0  0
  184.0850  178.4680  143.6140 C   0  0  0  0  0  0  0  0  0  0  0  0
  183.8510  178.4030  142.2320 C   0  0  0  0  0  3  0  0  0  0  0  0
  182.3550  178.5710  140.3850 F   0  0  0  0  0  0  0  0  0  0  0  0
  183.0190  178.7710  144.4760 C   0  0  0  0  0  3  0  0  0  0  0  0
  181.5160  178.9370  142.5850 C   0  0  0  0  0  3  0  0  0  0  0  0
  181.7390  179.0050  143.9620 C   0  0  0  0  0  3  0  0  0  0  0  0
  1 13  2  0  0  0  0
  1  2  1  0  0  0  0
  2 18  2  0  0  0  0
  3  6  2  0  0  0  0
  4 16  1  6  0  0  0
  4  1  1  0  0  0  0
  5 12  1  0  0  0  0
  5  8  2  0  0  0  0
  7  4  1  0  0  0  0
  7 14  2  0  0  0  0
  8  7  1  0  0  0  0
  9 10  1  0  0  0  0
 11  2  1  0  0  0  0
 11 17  2  0  0  0  0
 12 16  2  0  0  0  0
 13  3  1  0  0  0  0
 14 13  1  0  0  0  0
 15  9  2  0  0  0  0
 17 15  1  0  0  0  0
 18  6  1  0  0  0  0
 18  9  1  0  0  0  0
 19 21  2  0  0  0  0
 19 24  1  0  0  0  0
 20 17  1  0  0  0  0
 20 23  2  0  0  0  0
 21 20  1  0  0  0  0
 22 19  1  0  0  0  0
 24 25  2  0  0  0  0
 25 23  1  0  0  0  0
M  END
>  <MODEL>
3

>  <REMARK>
 VINA RESULT:     -10.4      1.926      6.257
  Name = 
  1 active torsions:
  status: ('A' for Active; 'I' for Inactive)
    1  A    between atoms: C_6  and  C_23
                            x       y       z     vdW  Elec       q    Type
                         _______ _______ _______ _____ _____    ______ ____

>  <TORSDO>
F 1

$$$$
=
 OpenBabel11052412493D

 25 29  0  0  1  0  0  0  0  0999 V2000
  187.4290  177.6990  145.1950 C   0  0  0  0  0  0  0  0  0  0  0  0
  186.5360  178.1340  144.2150 C   0  0  0  0  0  0  0  0  0  0  0  0
  185.8780  178.2530  146.9660 C   0  0  0  0  0  3  0  0  0  0  0  0
  188.7570  177.0450  145.0710 C   0  0  2  0  0  3  0  0  0  0  0  0
  191.4330  177.1850  146.1250 C   0  0  0  0  0  3  0  0  0  0  0  0
  184.9680  178.7140  146.0010 C   0  0  0  0  0  3  0  0  0  0  0  0
  189.0890  176.8850  146.5330 C   0  0  0  0  0  0  0  0  0  0  0  0
  190.4840  176.7190  146.9480 C   0  0  0  0  0  3  0  0  0  0  0  0
  184.4030  179.0940  143.6290 C   0  0  0  0  0  0  0  0  0  0  0  0
  183.0650  179.6620  143.9670 C   0  0  0  0  0  1  0  0  0  0  0  0
  186.8480  178.0630  142.8950 N   0  0  0  0  0  0  0  0  0  0  0  0
  191.0740  177.8870  144.8650 C   0  0  0  0  0  3  0  0  0  0  0  0
  187.0960  177.7360  146.5280 C   0  0  0  0  0  0  0  0  0  0  0  0
  188.1530  177.2650  147.3490 N   0  0  0  0  0  0  0  0  0  0  0  0
  184.7660  179.0030  142.3230 N   0  0  0  0  0  0  0  0  0  0  0  0
  189.8140  177.8820  144.3980 C   0  0  0  0  0  3  0  0  0  0  0  0
  185.9720  178.4930  141.9460 C   0  0  0  0  0  0  0  0  0  0  0  0
  185.2880  178.6550  144.6240 C   0  0  0  0  0  0  0  0  0  0  0  0
  188.0070  178.1750  138.7740 C   0  0  0  0  0  0  0  0  0  0  0  0
  186.3300  178.4100  140.5170 C   0  0  0  0  0  0  0  0  0  0  0  0
  187.6690  178.2530  140.1270 C   0  0  0  0  0  3  0  0  0  0  0  0
  189.3010  178.0240  138.4070 F   0  0  0  0  0  0  0  0  0  0  0  0
  185.3340  178.4870  139.5310 C   0  0  0  0  0  3  0  0  0  0  0  0
  187.0090  178.2530  137.7980 C   0  0  0  0  0  3  0  0  0  0  0  0
  185.6730  178.4090  138.1760 C   0  0  0  0  0  3  0  0  0  0  0  0
  1 13  1  0  0  0  0
  2 18  1  0  0  0  0
  2  1  2  0  0  0  0
  4 16  1  6  0  0  0
  4  1  1  0  0  0  0
  4  7  1  0  0  0  0
  5  8  2  0  0  0  0
  6  3  1  0  0  0  0
  7  8  1  0  0  0  0
  7 14  2  0  0  0  0
  9 10  1  0  0  0  0
  9 18  1  0  0  0  0
 11  2  1  0  0  0  0
 12  5  1  0  0  0  0
 13  3  2  0  0  0  0
 13 14  1  0  0  0  0
 15  9  2  0  0  0  0
 16 12  2  0  0  0  0
 17 15  1  0  0  0  0
 17 11  2  0  0  0  0
 18  6  2  0  0  0  0
 19 21  1  0  0  0  0
 20 17  1  0  0  0  0
 21 20  2  0  0  0  0
 22 19  1  0  0  0  0
 23 20  1  0  0  0  0
 24 25  1  0  0  0  0
 24 19  2  0  0  0  0
 25 23  2  0  0  0  0
M  END
>  <MODEL>
4

>  <REMARK>
 VINA RESULT:     -10.1      1.968      5.224
  Name = 
  1 active torsions:
  status: ('A' for Active; 'I' for Inactive)
    1  A    between atoms: C_6  and  C_23
                            x       y       z     vdW  Elec       q    Type
                         _______ _______ _______ _____ _____    ______ ____

>  <TORSDO>
F 1

$$$$
=
 OpenBabel11052412493D

 25 29  0  0  1  0  0  0  0  0999 V2000
  186.8470  177.8590  144.1680 C   0  0  0  0  0  0  0  0  0  0  0  0
  186.8500  178.0500  142.7860 C   0  0  0  0  0  0  0  0  0  0  0  0
  184.6140  178.7630  144.3700 C   0  0  0  0  0  3  0  0  0  0  0  0
  187.8500  177.2160  145.0560 C   0  0  2  0  0  3  0  0  0  0  0  0
  189.2300  177.6320  147.5490 C   0  0  0  0  0  3  0  0  0  0  0  0
  184.5970  178.9840  142.9830 C   0  0  0  0  0  3  0  0  0  0  0  0
  187.1500  177.3900  146.3810 C   0  0  0  0  0  0  0  0  0  0  0  0
  187.9240  177.3440  147.6240 C   0  0  0  0  0  3  0  0  0  0  0  0
  185.7270  178.8200  140.7950 C   0  0  0  0  0  0  0  0  0  0  0  0
  184.5700  179.4250  140.0740 C   0  0  0  0  0  1  0  0  0  0  0  0
  187.9170  177.6940  142.0270 N   0  0  0  0  0  0  0  0  0  0  0  0
  189.8520  178.0310  146.2590 C   0  0  0  0  0  3  0  0  0  0  0  0
  185.7510  178.1840  144.9300 C   0  0  0  0  0  0  0  0  0  0  0  0
  185.9690  177.9240  146.3080 N   0  0  0  0  0  0  0  0  0  0  0  0
  186.8230  178.4490  140.0830 N   0  0  0  0  0  0  0  0  0  0  0  0
  189.1910  177.9020  145.0960 C   0  0  0  0  0  3  0  0  0  0  0  0
  187.9120  177.8890  140.6800 C   0  0  0  0  0  0  0  0  0  0  0  0
  185.7090  178.6280  142.1840 C   0  0  0  0  0  0  0  0  0  0  0  0
  191.4790  177.1450  139.6630 C   0  0  0  0  0  0  0  0  0  0  0  0
  189.0830  177.4980  139.8710 C   0  0  0  0  0  0  0  0  0  0  0  0
  190.3710  177.5150  140.4300 C   0  0  0  0  0  3  0  0  0  0  0  0
  192.7170  177.1650  140.2110 F   0  0  0  0  0  0  0  0  0  0  0  0
  188.9230  177.1050  138.5330 C   0  0  0  0  0  3  0  0  0  0  0  0
  191.3100  176.7550  138.3320 C   0  0  0  0  0  3  0  0  0  0  0  0
  190.0320  176.7350  137.7670 C   0  0  0  0  0  3  0  0  0  0  0  0
  1 13  1  0  0  0  0
  1  4  1  0  0  0  0
  2  1  2  0  0  0  0
  3 13  2  0  0  0  0
  4 16  1  1  0  0  0
  4  7  1  0  0  0  0
  5  8  2  0  0  0  0
  6  3  1  0  0  0  0
  7  8  1  0  0  0  0
  9 18  1  0  0  0  0
 10  9  1  0  0  0  0
 11  2  1  0  0  0  0
 12  5  1  0  0  0  0
 13 14  1  0  0  0  0
 14  7  2  0  0  0  0
 15 17  1  0  0  0  0
 15  9  2  0  0  0  0
 16 12  2  0  0  0  0
 17 11  2  0  0  0  0
 18  2  1  0  0  0  0
 18  6  2  0  0  0  0
 19 22  1  0  0  0  0
 19 21  1  0  0  0  0
 20 21  2  0  0  0  0
 20 17  1  0  0  0  0
 23 20  1  0  0  0  0
 24 19  2  0  0  0  0
 25 24  1  0  0  0  0
 25 23  2  0  0  0  0
M  END
>  <MODEL>
5

>  <REMARK>
 VINA RESULT:     -10.0      1.760      4.672
  Name = 
  1 active torsions:
  status: ('A' for Active; 'I' for Inactive)
    1  A    between atoms: C_6  and  C_23
                            x       y       z     vdW  Elec       q    Type
                         _______ _______ _______ _____ _____    ______ ____

>  <TORSDO>
F 1

$$$$
=
 OpenBabel11052412493D

 25 29  0  0  1  0  0  0  0  0999 V2000
  187.0780  178.4000  141.1650 C   0  0  0  0  0  0  0  0  0  0  0  0
  186.4740  178.3590  142.4220 C   0  0  0  0  0  0  0  0  0  0  0  0
  184.9510  178.7460  140.0670 C   0  0  0  0  0  3  0  0  0  0  0  0
  188.5120  178.3590  140.7800 C   0  0  2  0  0  3  0  0  0  0  0  0
  190.2990  177.0770  138.9210 C   0  0  0  0  0  3  0  0  0  0  0  0
  184.3160  178.6910  141.3190 C   0  0  0  0  0  3  0  0  0  0  0  0
  188.3650  178.4490  139.2820 C   0  0  0  0  0  0  0  0  0  0  0  0
  189.4520  177.9820  138.4160 C   0  0  0  0  0  3  0  0  0  0  0  0
  184.4760  178.4500  143.7690 C   0  0  0  0  0  0  0  0  0  0  0  0
  183.0010  178.5870  143.9480 C   0  0  0  0  0  1  0  0  0  0  0  0
  187.2080  178.1870  143.5510 N   0  0  0  0  0  0  0  0  0  0  0  0
  190.1080  176.5340  140.2920 C   0  0  0  0  0  3  0  0  0  0  0  0
  186.3380  178.6130  140.0260 C   0  0  0  0  0  0  0  0  0  0  0  0
  187.1470  178.6000  138.8610 N   0  0  0  0  0  0  0  0  0  0  0  0
  185.2570  178.2730  144.8670 N   0  0  0  0  0  0  0  0  0  0  0  0
  189.2290  177.0860  141.1450 C   0  0  0  0  0  3  0  0  0  0  0  0
  186.6100  178.1440  144.7730 C   0  0  0  0  0  0  0  0  0  0  0  0
  185.0700  178.5000  142.5000 C   0  0  0  0  0  0  0  0  0  0  0  0
  189.4920  177.2480  147.0530 C   0  0  0  0  0  0  0  0  0  0  0  0
  187.4240  177.9540  145.9890 C   0  0  0  0  0  0  0  0  0  0  0  0
  188.7220  177.4280  145.9010 C   0  0  0  0  0  3  0  0  0  0  0  0
  190.7430  176.7400  146.9580 F   0  0  0  0  0  0  0  0  0  0  0  0
  186.9090  178.2970  147.2490 C   0  0  0  0  0  3  0  0  0  0  0  0
  188.9710  177.5920  148.3030 C   0  0  0  0  0  3  0  0  0  0  0  0
  187.6790  178.1160  148.4020 C   0  0  0  0  0  3  0  0  0  0  0  0
  1  2  1  0  0  0  0
  2 18  2  0  0  0  0
  2 11  1  0  0  0  0
  3  6  2  0  0  0  0
  4 16  1  6  0  0  0
  4  1  1  0  0  0  0
  5 12  1  0  0  0  0
  6 18  1  0  0  0  0
  7  4  1  0  0  0  0
  8  5  2  0  0  0  0
  8  7  1  0  0  0  0
  9 10  1  0  0  0  0
  9 15  2  0  0  0  0
 11 17  2  0  0  0  0
 12 16  2  0  0  0  0
 13  3  1  0  0  0  0
 13  1  2  0  0  0  0
 14  7  2  0  0  0  0
 14 13  1  0  0  0  0
 17 15  1  0  0  0  0
 17 20  1  0  0  0  0
 18  9  1  0  0  0  0
 19 24  1  0  0  0  0
 20 23  2  0  0  0  0
 21 20  1  0  0  0  0
 21 19  2  0  0  0  0
 22 19  1  0  0  0  0
 23 25  1  0  0  0  0
 24 25  2  0  0  0  0
M  END
>  <MODEL>
6

>  <REMARK>
 VINA RESULT:     -10.0      2.364      6.248
  Name = 
  1 active torsions:
  status: ('A' for Active; 'I' for Inactive)
    1  A    between atoms: C_6  and  C_23
                            x       y       z     vdW  Elec       q    Type
                         _______ _______ _______ _____ _____    ______ ____

>  <TORSDO>
F 1

$$$$
=
 OpenBabel11052412493D

 25 29  0  0  1  0  0  0  0  0999 V2000
  186.8490  177.8320  144.2050 C   0  0  0  0  0  0  0  0  0  0  0  0
  186.8490  178.0250  142.8220 C   0  0  0  0  0  0  0  0  0  0  0  0
  184.6100  178.7200  144.4100 C   0  0  0  0  0  3  0  0  0  0  0  0
  187.8580  177.1960  145.0900 C   0  0  2  0  0  3  0  0  0  0  0  0
  189.2380  177.6170  147.5820 C   0  0  0  0  0  3  0  0  0  0  0  0
  184.5890  178.9430  143.0230 C   0  0  0  0  0  3  0  0  0  0  0  0
  187.1580  177.3620  146.4160 C   0  0  0  0  0  0  0  0  0  0  0  0
  187.9350  177.3200  147.6580 C   0  0  0  0  0  3  0  0  0  0  0  0
  185.7180  178.7910  140.8350 C   0  0  0  0  0  0  0  0  0  0  0  0
  184.5550  179.3890  140.1160 C   0  0  0  0  0  1  0  0  0  0  0  0
  187.9180  177.6790  142.0610 N   0  0  0  0  0  0  0  0  0  0  0  0
  189.8550  178.0230  146.2920 C   0  0  0  0  0  3  0  0  0  0  0  0
  185.7510  178.1480  144.9680 C   0  0  0  0  0  0  0  0  0  0  0  0
  185.9740  177.8880  146.3450 N   0  0  0  0  0  0  0  0  0  0  0  0
  186.8160  178.4280  140.1200 N   0  0  0  0  0  0  0  0  0  0  0  0
  189.1940  177.8900  145.1300 C   0  0  0  0  0  3  0  0  0  0  0  0
  187.9100  177.8750  140.7150 C   0  0  0  0  0  0  0  0  0  0  0  0
  185.7030  178.5960  142.2230 C   0  0  0  0  0  0  0  0  0  0  0  0
  190.1120  177.1130  137.7360 C   0  0  0  0  0  0  0  0  0  0  0  0
  189.0820  177.4940  139.9040 C   0  0  0  0  0  0  0  0  0  0  0  0
  189.0020  177.4740  138.5030 C   0  0  0  0  0  3  0  0  0  0  0  0
  190.0250  177.0970  136.3850 F   0  0  0  0  0  0  0  0  0  0  0  0
  190.2920  177.1460  140.5250 C   0  0  0  0  0  3  0  0  0  0  0  0
  191.3130  176.7680  138.3630 C   0  0  0  0  0  3  0  0  0  0  0  0
  191.4030  176.7840  139.7570 C   0  0  0  0  0  3  0  0  0  0  0  0
  1 13  1  0  0  0  0
  1  4  1  0  0  0  0
  2  1  2  0  0  0  0
  3 13  2  0  0  0  0
  4 16  1  1  0  0  0
  4  7  1  0  0  0  0
  5  8  2  0  0  0  0
  6  3  1  0  0  0  0
  7  8  1  0  0  0  0
  9 18  1  0  0  0  0
 10  9  1  0  0  0  0
 11  2  1  0  0  0  0
 12  5  1  0  0  0  0
 13 14  1  0  0  0  0
 14  7  2  0  0  0  0
 15 17  1  0  0  0  0
 15  9  2  0  0  0  0
 16 12  2  0  0  0  0
 17 11  2  0  0  0  0
 18  2  1  0  0  0  0
 18  6  2  0  0  0  0
 19 24  2  0  0  0  0
 19 21  1  0  0  0  0
 20 23  1  0  0  0  0
 20 17  1  0  0  0  0
 21 20  2  0  0  0  0
 22 19  1  0  0  0  0
 24 25  1  0  0  0  0
 25 23  2  0  0  0  0
M  END
>  <MODEL>
7

>  <REMARK>
 VINA RESULT:      -9.9      1.664      4.538
  Name = 
  1 active torsions:
  status: ('A' for Active; 'I' for Inactive)
    1  A    between atoms: C_6  and  C_23
                            x       y       z     vdW  Elec       q    Type
                         _______ _______ _______ _____ _____    ______ ____

>  <TORSDO>
F 1

$$$$
=
 OpenBabel11052412493D

 25 29  0  0  1  0  0  0  0  0999 V2000
  189.5210  177.1660  141.7300 C   0  0  0  0  0  0  0  0  0  0  0  0
  188.8070  177.4090  142.9040 C   0  0  0  0  0  0  0  0  0  0  0  0
  191.5510  176.7140  142.9630 C   0  0  0  0  0  3  0  0  0  0  0  0
  189.0660  177.1120  140.3170 C   0  0  2  0  0  3  0  0  0  0  0  0
  189.7840  178.0570  137.6930 C   0  0  0  0  0  3  0  0  0  0  0  0
  190.8610  176.9720  144.1590 C   0  0  0  0  0  3  0  0  0  0  0  0
  190.3820  176.8040  139.6480 C   0  0  0  0  0  0  0  0  0  0  0  0
  190.5640  177.1080  138.2260 C   0  0  0  0  0  3  0  0  0  0  0  0
  188.7620  177.5710  145.3100 C   0  0  0  0  0  0  0  0  0  0  0  0
  189.4000  177.5000  146.6570 C   0  0  0  0  0  1  0  0  0  0  0  0
  187.4880  177.7290  142.8750 N   0  0  0  0  0  0  0  0  0  0  0  0
  188.8080  178.8030  138.5300 C   0  0  0  0  0  3  0  0  0  0  0  0
  190.8460  176.8050  141.7640 C   0  0  0  0  0  0  0  0  0  0  0  0
  191.3770  176.6220  140.4610 N   0  0  0  0  0  0  0  0  0  0  0  0
  187.4440  177.8900  145.2230 N   0  0  0  0  0  0  0  0  0  0  0  0
  188.5140  178.4070  139.7800 C   0  0  0  0  0  3  0  0  0  0  0  0
  186.8010  177.9690  144.0240 C   0  0  0  0  0  0  0  0  0  0  0  0
  189.4900  177.3170  144.1380 C   0  0  0  0  0  0  0  0  0  0  0  0
  183.3190  178.6280  142.7030 C   0  0  0  0  0  0  0  0  0  0  0  0
  185.3680  178.3170  143.9720 C   0  0  0  0  0  0  0  0  0  0  0  0
  184.6760  178.2980  142.7520 C   0  0  0  0  0  3  0  0  0  0  0  0
  182.6600  178.6070  141.5200 F   0  0  0  0  0  0  0  0  0  0  0  0
  184.6810  178.6720  145.1430 C   0  0  0  0  0  3  0  0  0  0  0  0
  182.6430  178.9810  143.8730 C   0  0  0  0  0  3  0  0  0  0  0  0
  183.3230  179.0030  145.0930 C   0  0  0  0  0  3  0  0  0  0  0  0
  1 13  2  0  0  0  0
  1  2  1  0  0  0  0
  2 18  2  0  0  0  0
  3  6  2  0  0  0  0
  4 16  1  6  0  0  0
  4  1  1  0  0  0  0
  5  8  2  0  0  0  0
  5 12  1  0  0  0  0
  7  4  1  0  0  0  0
  7 14  2  0  0  0  0
  8  7  1  0  0  0  0
  9 10  1  0  0  0  0
 11  2  1  0  0  0  0
 11 17  2  0  0  0  0
 12 16  2  0  0  0  0
 13  3  1  0  0  0  0
 14 13  1  0  0  0  0
 15  9  2  0  0  0  0
 17 15  1  0  0  0  0
 18  6  1  0  0  0  0
 18  9  1  0  0  0  0
 19 21  2  0  0  0  0
 19 24  1  0  0  0  0
 20 17  1  0  0  0  0
 20 23  2  0  0  0  0
 21 20  1  0  0  0  0
 22 19  1  0  0  0  0
 24 25  2  0  0  0  0
 25 23  1  0  0  0  0
M  END
>  <MODEL>
8

>  <REMARK>
 VINA RESULT:      -9.9      2.107      6.377
  Name = 
  1 active torsions:
  status: ('A' for Active; 'I' for Inactive)
    1  A    between atoms: C_6  and  C_23
                            x       y       z     vdW  Elec       q    Type
                         _______ _______ _______ _____ _____    ______ ____

>  <TORSDO>
F 1

$$$$
=
 OpenBabel11052412493D

 25 29  0  0  1  0  0  0  0  0999 V2000
  186.8220  178.2060  143.8990 C   0  0  0  0  0  0  0  0  0  0  0  0
  187.9460  177.7400  143.2150 C   0  0  0  0  0  0  0  0  0  0  0  0
  187.7330  177.5150  146.0300 C   0  0  0  0  0  3  0  0  0  0  0  0
  185.6300  178.9450  143.4090 C   0  0  2  0  0  3  0  0  0  0  0  0
  182.7570  178.9490  143.6030 C   0  0  0  0  0  3  0  0  0  0  0  0
  188.8670  177.0200  145.3650 C   0  0  0  0  0  3  0  0  0  0  0  0
  184.8810  179.0910  144.7090 C   0  0  0  0  0  0  0  0  0  0  0  0
  183.4360  179.3340  144.6920 C   0  0  0  0  0  3  0  0  0  0  0  0
  190.1020  176.6620  143.2590 C   0  0  0  0  0  0  0  0  0  0  0  0
  191.2430  176.0030  143.9590 C   0  0  0  0  0  1  0  0  0  0  0  0
  188.0520  177.8620  141.8680 N   0  0  0  0  0  0  0  0  0  0  0  0
  183.4430  178.2560  142.4810 C   0  0  0  0  0  3  0  0  0  0  0  0
  186.7340  178.1170  145.2680 C   0  0  0  0  0  0  0  0  0  0  0  0
  185.5040  178.6340  145.7520 N   0  0  0  0  0  0  0  0  0  0  0  0
  190.1560  176.8070  141.9080 N   0  0  0  0  0  0  0  0  0  0  0  0
  184.7840  178.1930  142.4150 C   0  0  0  0  0  3  0  0  0  0  0  0
  189.1490  177.4000  141.2090 C   0  0  0  0  0  0  0  0  0  0  0  0
  188.9820  177.1310  143.9590 C   0  0  0  0  0  0  0  0  0  0  0  0
  188.3390  178.3480  137.6380 C   0  0  0  0  0  0  0  0  0  0  0  0
  189.2460  177.5400  139.7430 C   0  0  0  0  0  0  0  0  0  0  0  0
  188.2480  178.2170  139.0260 C   0  0  0  0  0  3  0  0  0  0  0  0
  187.3720  179.0030  136.9550 F   0  0  0  0  0  0  0  0  0  0  0  0
  190.3380  176.9960  139.0480 C   0  0  0  0  0  3  0  0  0  0  0  0
  189.4300  177.8030  136.9540 C   0  0  0  0  0  3  0  0  0  0  0  0
  190.4290  177.1270  137.6590 C   0  0  0  0  0  3  0  0  0  0  0  0
  1 13  1  0  0  0  0
  2  1  2  0  0  0  0
  2 18  1  0  0  0  0
  4 16  1  6  0  0  0
  4  1  1  0  0  0  0
  4  7  1  0  0  0  0
  5  8  2  0  0  0  0
  6  3  1  0  0  0  0
  7 14  2  0  0  0  0
  8  7  1  0  0  0  0
  9 10  1  0  0  0  0
  9 18  1  0  0  0  0
 11  2  1  0  0  0  0
 12  5  1  0  0  0  0
 13 14  1  0  0  0  0
 13  3  2  0  0  0  0
 15  9  2  0  0  0  0
 16 12  2  0  0  0  0
 17 11  2  0  0  0  0
 17 15  1  0  0  0  0
 18  6  2  0  0  0  0
 19 21  1  0  0  0  0
 20 17  1  0  0  0  0
 21 20  2  0  0  0  0
 22 19  1  0  0  0  0
 23 20  1  0  0  0  0
 24 19  2  0  0  0  0
 24 25  1  0  0  0  0
 25 23  2  0  0  0  0
M  END
>  <MODEL>
9

>  <REMARK>
 VINA RESULT:      -9.9      1.633      2.465
  Name = 
  1 active torsions:
  status: ('A' for Active; 'I' for Inactive)
    1  A    between atoms: C_6  and  C_23
                            x       y       z     vdW  Elec       q    Type
                         _______ _______ _______ _____ _____    ______ ____

>  <TORSDO>
F 1

$$$$
