=
 OpenBabel11052412343D

 30 36  0  0  1  0  0  0  0  0999 V2000
  185.7770  178.1910  138.1420 C   0  0  0  0  0  0  0  0  0  0  0  0
  188.0040  178.7090  137.0450 C   0  0  1  0  0  3  0  0  0  0  0  0
  186.6420  175.3580  136.3250 C   0  0  0  0  0  2  0  0  0  0  0  0
  184.4970  177.7790  138.0130 C   0  0  0  0  0  0  0  0  0  0  0  0
  186.2140  178.7650  139.3820 N   0  0  0  0  0  0  0  0  0  0  0  0
  183.4810  178.1550  141.8970 S   0  0  0  0  0  0  0  0  0  0  0  0
  181.2740  177.6430  138.1700 C   0  0  1  0  0  3  0  0  0  0  0  0
  183.9280  178.7830  140.2420 C   0  0  1  0  0  3  0  0  0  0  0  0
  185.8550  179.3280  141.6470 N   0  0  0  0  0  2  0  0  0  0  0  0
  183.0690  174.8610  137.9550 C   0  0  0  0  0  2  0  0  0  0  0  0
  185.3570  174.6210  136.7540 C   0  0  2  0  0  3  0  0  0  0  0  0
  185.3900  179.0350  140.3450 C   0  0  0  0  0  0  0  0  0  0  0  0
  183.6030  177.8530  139.1430 N   0  0  0  0  0  0  0  0  0  0  0  0
  189.0280  178.1500  136.0660 C   0  0  0  0  0  2  0  0  0  0  0  0
  182.2230  175.5990  139.0250 C   0  0  2  0  0  3  0  0  0  0  0  0
  180.4160  176.5720  137.8150 O   0  0  0  0  0  0  0  0  0  0  0  0
  185.3510  178.4930  143.8100 N   0  0  0  0  0  1  0  0  0  0  0  0
  187.5680  179.9540  136.5880 O   0  0  0  0  0  1  0  0  0  0  0  0
  187.2260  176.2730  137.4060 C   0  0  2  0  0  3  0  0  0  0  0  0
  189.5760  176.7830  136.4960 C   0  0  0  0  0  2  0  0  0  0  0  0
  184.8130  179.1690  142.6440 C   0  0  2  0  0  3  0  0  0  0  0  0
  186.8180  177.7450  137.1420 C   0  0  1  0  0  3  0  0  0  0  0  0
  184.1470  176.8500  136.9160 C   0  0  0  0  0  2  0  0  0  0  0  0
  184.6940  174.0290  135.5220 C   0  0  0  0  0  1  0  0  0  0  0  0
  184.3850  175.5040  137.5520 C   0  0  1  0  0  3  0  0  0  0  0  0
  180.7990  175.4220  138.5480 C   0  0  0  0  0  2  0  0  0  0  0  0
  181.1290  177.9470  139.6530 C   0  0  0  0  0  2  0  0  0  0  0  0
  188.7360  176.0490  137.5520 C   0  0  1  0  0  3  0  0  0  0  0  0
  189.1940  176.4280  138.9480 C   0  0  0  0  0  1  0  0  0  0  0  0
  182.3120  177.1280  139.1320 C   0  0  2  0  0  0  0  0  0  0  0  0
  1  5  1  0  0  0  0
  2 18  1  6  0  0  0
  2 22  1  0  0  0  0
  3 11  1  0  0  0  0
  4  1  2  0  0  0  0
  4 13  1  0  0  0  0
  5 12  2  0  0  0  0
  6 21  1  0  0  0  0
  7 30  1  0  0  0  0
  7 27  1  1  0  0  0
  8 12  1  1  0  0  0
  8  6  1  0  0  0  0
  9 21  1  0  0  0  0
 11 24  1  6  0  0  0
 11 25  1  0  0  0  0
 12  9  1  0  0  0  0
 13  8  1  0  0  0  0
 14 20  1  0  0  0  0
 14  2  1  0  0  0  0
 15 10  1  6  0  0  0
 15 30  1  0  0  0  0
 16  7  1  0  0  0  0
 16 26  1  0  0  0  0
 19  3  1  6  0  0  0
 19 28  1  0  0  0  0
 20 28  1  0  0  0  0
 21 17  1  1  0  0  0
 22 19  1  0  0  0  0
 22  1  1  1  0  0  0
 23  4  1  0  0  0  0
 25 23  1  6  0  0  0
 25 10  1  0  0  0  0
 26 15  1  0  0  0  0
 28 29  1  1  0  0  0
 30 13  1  0  0  0  0
 30 27  1  1  0  0  0
M  END
>  <MODEL>
1

>  <REMARK>
 VINA RESULT:      -6.9      0.000      0.000
  Name = 
  0 active torsions:
  status: ('A' for Active; 'I' for Inactive)
                            x       y       z     vdW  Elec       q    Type
                         _______ _______ _______ _____ _____    ______ ____

>  <TORSDO>
F 0

$$$$
=
 OpenBabel11052412343D

 30 36  0  0  1  0  0  0  0  0999 V2000
  185.8940  178.7940  139.8070 C   0  0  0  0  0  0  0  0  0  0  0  0
  183.6770  179.8110  139.1100 C   0  0  1  0  0  3  0  0  0  0  0  0
  183.7710  178.4440  142.5350 C   0  0  0  0  0  2  0  0  0  0  0  0
  186.9090  178.7420  140.6970 C   0  0  0  0  0  0  0  0  0  0  0  0
  186.0280  178.1310  138.5410 N   0  0  0  0  0  0  0  0  0  0  0  0
  189.1070  175.9760  138.7530 S   0  0  0  0  0  0  0  0  0  0  0  0
  189.8580  178.7760  142.0130 C   0  0  1  0  0  3  0  0  0  0  0  0
  188.3760  177.6330  138.9900 C   0  0  1  0  0  3  0  0  0  0  0  0
  187.1920  176.7100  137.0590 N   0  0  0  0  0  2  0  0  0  0  0  0
  187.3810  177.1200  143.4730 C   0  0  0  0  0  2  0  0  0  0  0  0
  184.8660  177.7530  143.3710 C   0  0  2  0  0  3  0  0  0  0  0  0
  187.1440  177.5950  138.1590 C   0  0  0  0  0  0  0  0  0  0  0  0
  188.0840  177.9600  140.3990 N   0  0  0  0  0  0  0  0  0  0  0  0
  182.2930  180.1680  139.6360 C   0  0  0  0  0  2  0  0  0  0  0  0
  188.6800  176.7870  142.6930 C   0  0  2  0  0  3  0  0  0  0  0  0
  190.2360  178.4690  143.3440 O   0  0  0  0  0  0  0  0  0  0  0  0
  188.0690  174.5300  136.7280 N   0  0  0  0  0  1  0  0  0  0  0  0
  184.2840  180.9610  138.6040 O   0  0  0  0  0  1  0  0  0  0  0  0
  183.8180  178.1020  141.0420 C   0  0  2  0  0  3  0  0  0  0  0  0
  181.5420  178.9560  140.2030 C   0  0  0  0  0  2  0  0  0  0  0  0
  188.3980  175.9030  137.0640 C   0  0  2  0  0  3  0  0  0  0  0  0
  184.5200  179.2360  140.2530 C   0  0  1  0  0  3  0  0  0  0  0  0
  186.6400  179.0700  142.1150 C   0  0  0  0  0  2  0  0  0  0  0  0
  184.9360  178.4160  144.7360 C   0  0  0  0  0  1  0  0  0  0  0  0
  186.2390  177.7310  142.6800 C   0  0  1  0  0  3  0  0  0  0  0  0
  189.7860  177.1610  143.6530 C   0  0  0  0  0  2  0  0  0  0  0  0
  190.5200  177.7980  141.0530 C   0  0  0  0  0  2  0  0  0  0  0  0
  182.4210  177.7380  140.5230 C   0  0  1  0  0  3  0  0  0  0  0  0
  182.5280  176.8310  139.3110 C   0  0  0  0  0  1  0  0  0  0  0  0
  189.0570  177.6250  141.4640 C   0  0  2  0  0  0  0  0  0  0  0  0
  1  4  2  0  0  0  0
  2 18  1  1  0  0  0
  2 14  1  0  0  0  0
  2 22  1  0  0  0  0
  3 11  1  0  0  0  0
  4 23  1  0  0  0  0
  5  1  1  0  0  0  0
  6  8  1  0  0  0  0
  7 27  1  6  0  0  0
  7 16  1  0  0  0  0
  8 12  1  6  0  0  0
  8 13  1  0  0  0  0
  9 21  1  0  0  0  0
  9 12  1  0  0  0  0
 11 24  1  1  0  0  0
 12  5  2  0  0  0  0
 13  4  1  0  0  0  0
 13 30  1  0  0  0  0
 14 20  1  0  0  0  0
 15 10  1  1  0  0  0
 15 26  1  0  0  0  0
 16 26  1  0  0  0  0
 19  3  1  1  0  0  0
 20 28  1  0  0  0  0
 21 17  1  1  0  0  0
 21  6  1  0  0  0  0
 22  1  1  6  0  0  0
 22 19  1  0  0  0  0
 25 23  1  1  0  0  0
 25 11  1  0  0  0  0
 25 10  1  0  0  0  0
 28 29  1  6  0  0  0
 28 19  1  0  0  0  0
 30 27  1  6  0  0  0
 30  7  1  0  0  0  0
 30 15  1  0  0  0  0
M  END
>  <MODEL>
2

>  <REMARK>
 VINA RESULT:      -6.9      3.051      7.006
  Name = 
  0 active torsions:
  status: ('A' for Active; 'I' for Inactive)
                            x       y       z     vdW  Elec       q    Type
                         _______ _______ _______ _____ _____    ______ ____

>  <TORSDO>
F 0

$$$$
=
 OpenBabel11052412343D

 30 36  0  0  1  0  0  0  0  0999 V2000
  185.7890  178.3100  138.3720 C   0  0  0  0  0  0  0  0  0  0  0  0
  187.7620  178.5130  136.7910 C   0  0  1  0  0  3  0  0  0  0  0  0
  185.4080  175.7800  136.0210 C   0  0  0  0  0  2  0  0  0  0  0  0
  184.4500  178.2390  138.5400 C   0  0  0  0  0  0  0  0  0  0  0  0
  186.6370  178.5080  139.5120 N   0  0  0  0  0  0  0  0  0  0  0  0
  184.4880  178.0500  142.5680 S   0  0  0  0  0  0  0  0  0  0  0  0
  181.4370  178.8190  139.5470 C   0  0  1  0  0  3  0  0  0  0  0  0
  184.7010  178.8770  140.9550 C   0  0  1  0  0  3  0  0  0  0  0  0
  186.9700  178.6710  141.8430 N   0  0  0  0  0  2  0  0  0  0  0  0
  182.3040  175.8000  138.4770 C   0  0  0  0  0  2  0  0  0  0  0  0
  184.1030  175.2870  136.6790 C   0  0  2  0  0  3  0  0  0  0  0  0
  186.1590  178.7600  140.6900 C   0  0  0  0  0  0  0  0  0  0  0  0
  183.8920  178.2880  139.8700 N   0  0  0  0  0  0  0  0  0  0  0  0
  188.3430  177.9420  135.5050 C   0  0  0  0  0  2  0  0  0  0  0  0
  181.9590  176.4830  139.8270 C   0  0  2  0  0  3  0  0  0  0  0  0
  180.2610  178.0670  139.2970 O   0  0  0  0  0  0  0  0  0  0  0  0
  186.7630  177.5570  143.9280 N   0  0  0  0  0  1  0  0  0  0  0  0
  187.5910  179.8900  136.6430 O   0  0  0  0  0  1  0  0  0  0  0  0
  186.4500  176.3000  137.0170 C   0  0  2  0  0  3  0  0  0  0  0  0
  188.5780  176.4270  135.5800 C   0  0  0  0  0  2  0  0  0  0  0  0
  186.1800  178.5580  143.0550 C   0  0  2  0  0  3  0  0  0  0  0  0
  186.4120  177.8480  137.0750 C   0  0  1  0  0  3  0  0  0  0  0  0
  183.6190  177.6550  137.4640 C   0  0  0  0  0  2  0  0  0  0  0  0
  183.0410  175.1230  135.6050 C   0  0  0  0  0  1  0  0  0  0  0  0
  183.6180  176.1910  137.8230 C   0  0  1  0  0  3  0  0  0  0  0  0
  180.4710  176.7370  139.7350 C   0  0  0  0  0  2  0  0  0  0  0  0
  181.7220  178.8430  141.0410 C   0  0  0  0  0  2  0  0  0  0  0  0
  187.8330  175.7090  136.7140 C   0  0  1  0  0  3  0  0  0  0  0  0
  188.6830  175.6850  137.9720 C   0  0  0  0  0  1  0  0  0  0  0  0
  182.4850  177.8960  140.1120 C   0  0  2  0  0  0  0  0  0  0  0  0
  1  4  2  0  0  0  0
  1  5  1  0  0  0  0
  2 18  1  6  0  0  0
  2 22  1  0  0  0  0
  3 11  1  0  0  0  0
  4 13  1  0  0  0  0
  5 12  2  0  0  0  0
  6 21  1  0  0  0  0
  7 30  1  0  0  0  0
  7 27  1  1  0  0  0
  8 12  1  6  0  0  0
  8  6  1  0  0  0  0
  9 21  1  0  0  0  0
 11 24  1  6  0  0  0
 11 25  1  0  0  0  0
 12  9  1  0  0  0  0
 13 30  1  0  0  0  0
 13  8  1  0  0  0  0
 14 20  1  0  0  0  0
 14  2  1  0  0  0  0
 15 10  1  6  0  0  0
 15 30  1  0  0  0  0
 16  7  1  0  0  0  0
 16 26  1  0  0  0  0
 19  3  1  6  0  0  0
 19 22  1  0  0  0  0
 20 28  1  0  0  0  0
 21 17  1  1  0  0  0
 22  1  1  1  0  0  0
 23  4  1  0  0  0  0
 25 23  1  6  0  0  0
 25 10  1  0  0  0  0
 26 15  1  0  0  0  0
 28 19  1  0  0  0  0
 28 29  1  1  0  0  0
 30 27  1  1  0  0  0
M  END
>  <MODEL>
3

>  <REMARK>
 VINA RESULT:      -6.8      1.166      1.269
  Name = 
  0 active torsions:
  status: ('A' for Active; 'I' for Inactive)
                            x       y       z     vdW  Elec       q    Type
                         _______ _______ _______ _____ _____    ______ ____

>  <TORSDO>
F 0

$$$$
=
 OpenBabel11052412343D

 30 36  0  0  1  0  0  0  0  0999 V2000
  187.2670  176.3520  136.3160 C   0  0  0  0  0  0  0  0  0  0  0  0
  189.6680  176.9430  135.7510 C   0  0  1  0  0  3  0  0  0  0  0  0
  189.0900  173.4120  136.6440 C   0  0  0  0  0  2  0  0  0  0  0  0
  186.1930  175.5610  136.0970 C   0  0  0  0  0  0  0  0  0  0  0  0
  187.1220  177.5410  137.1050 N   0  0  0  0  0  0  0  0  0  0  0  0
  183.7220  177.3830  138.7130 S   0  0  0  0  0  0  0  0  0  0  0  0
  183.1990  174.5450  135.4410 C   0  0  1  0  0  3  0  0  0  0  0  0
  184.6970  177.2650  137.1720 C   0  0  1  0  0  3  0  0  0  0  0  0
  185.8550  178.9590  138.5040 N   0  0  0  0  0  2  0  0  0  0  0  0
  185.2500  172.6790  137.2620 C   0  0  0  0  0  2  0  0  0  0  0  0
  187.8350  172.6110  137.0450 C   0  0  2  0  0  3  0  0  0  0  0  0
  185.9650  177.9650  137.5050 C   0  0  0  0  0  0  0  0  0  0  0  0
  184.9310  175.8810  136.7190 N   0  0  0  0  0  0  0  0  0  0  0  0
  191.0480  176.3320  135.5490 C   0  0  0  0  0  2  0  0  0  0  0  0
  183.9770  173.5360  137.4860 C   0  0  2  0  0  3  0  0  0  0  0  0
  182.6760  173.2300  135.5150 O   0  0  0  0  0  0  0  0  0  0  0  0
  184.6570  179.1240  140.5460 N   0  0  0  0  0  1  0  0  0  0  0  0
  189.3000  177.6310  134.5940 O   0  0  0  0  0  1  0  0  0  0  0  0
  189.1010  174.8540  137.1590 C   0  0  2  0  0  3  0  0  0  0  0  0
  191.5430  175.5640  136.7820 C   0  0  0  0  0  2  0  0  0  0  0  0
  184.5350  178.9770  139.1070 C   0  0  2  0  0  3  0  0  0  0  0  0
  188.6580  175.8290  136.0400 C   0  0  1  0  0  3  0  0  0  0  0  0
  186.4040  174.1710  135.6380 C   0  0  0  0  0  2  0  0  0  0  0  0
  187.7730  171.3420  136.2120 C   0  0  0  0  0  1  0  0  0  0  0  0
  186.5340  173.4230  136.9410 C   0  0  1  0  0  3  0  0  0  0  0  0
  182.8780  172.7340  136.8270 C   0  0  0  0  0  2  0  0  0  0  0  0
  182.4590  175.4470  136.4170 C   0  0  0  0  0  2  0  0  0  0  0  0
  190.4540  175.1930  137.7980 C   0  0  1  0  0  3  0  0  0  0  0  0
  190.2900  176.3010  138.8240 C   0  0  0  0  0  1  0  0  0  0  0  0
  183.8380  174.8820  136.7620 C   0  0  2  0  0  0  0  0  0  0  0  0
  1  5  1  0  0  0  0
  2 18  1  6  0  0  0
  2 22  1  0  0  0  0
  3 11  1  0  0  0  0
  4  1  2  0  0  0  0
  4 13  1  0  0  0  0
  5 12  2  0  0  0  0
  6 21  1  0  0  0  0
  7 16  1  0  0  0  0
  7 27  1  1  0  0  0
  7 30  1  0  0  0  0
  8 12  1  1  0  0  0
  8  6  1  0  0  0  0
  9 21  1  0  0  0  0
 10 15  1  0  0  0  0
 11 24  1  6  0  0  0
 12  9  1  0  0  0  0
 13 30  1  0  0  0  0
 13  8  1  0  0  0  0
 14  2  1  0  0  0  0
 14 20  1  0  0  0  0
 15 26  1  6  0  0  0
 16 26  1  0  0  0  0
 19  3  1  6  0  0  0
 19 28  1  0  0  0  0
 20 28  1  0  0  0  0
 21 17  1  1  0  0  0
 22  1  1  1  0  0  0
 22 19  1  0  0  0  0
 23  4  1  0  0  0  0
 25 23  1  6  0  0  0
 25 11  1  0  0  0  0
 25 10  1  0  0  0  0
 28 29  1  1  0  0  0
 30 27  1  1  0  0  0
 30 15  1  0  0  0  0
M  END
>  <MODEL>
4

>  <REMARK>
 VINA RESULT:      -6.5      2.226      3.300
  Name = 
  0 active torsions:
  status: ('A' for Active; 'I' for Inactive)
                            x       y       z     vdW  Elec       q    Type
                         _______ _______ _______ _____ _____    ______ ____

>  <TORSDO>
F 0

$$$$
=
 OpenBabel11052412343D

 30 36  0  0  1  0  0  0  0  0999 V2000
  187.1100  178.4230  139.5240 C   0  0  0  0  0  0  0  0  0  0  0  0
  187.7670  178.5140  137.0760 C   0  0  1  0  0  3  0  0  0  0  0  0
  184.2570  177.5870  137.7260 C   0  0  0  0  0  2  0  0  0  0  0  0
  186.2710  178.8170  140.5080 C   0  0  0  0  0  0  0  0  0  0  0  0
  188.3250  177.7390  139.8620 N   0  0  0  0  0  0  0  0  0  0  0  0
  188.1070  176.8540  143.5140 S   0  0  0  0  0  0  0  0  0  0  0  0
  185.1160  180.0200  143.2730 C   0  0  1  0  0  3  0  0  0  0  0  0
  187.9610  178.1550  142.2410 C   0  0  1  0  0  3  0  0  0  0  0  0
  189.7520  176.6990  141.4290 N   0  0  0  0  0  2  0  0  0  0  0  0
  183.4070  177.7300  141.5890 C   0  0  0  0  0  2  0  0  0  0  0  0
  183.4280  177.4110  139.0130 C   0  0  2  0  0  3  0  0  0  0  0  0
  188.7220  177.6050  141.0880 C   0  0  0  0  0  0  0  0  0  0  0  0
  186.5690  178.4830  141.8790 N   0  0  0  0  0  0  0  0  0  0  0  0
  187.2000  178.4000  135.6680 C   0  0  0  0  0  2  0  0  0  0  0  0
  184.2240  177.8120  142.9040 C   0  0  2  0  0  3  0  0  0  0  0  0
  183.7870  179.9900  143.7630 O   0  0  0  0  0  0  0  0  0  0  0  0
  189.9580  174.9550  143.0250 N   0  0  0  0  0  1  0  0  0  0  0  0
  188.3920  179.7540  137.2180 O   0  0  0  0  0  1  0  0  0  0  0  0
  185.7200  177.1500  137.8620 C   0  0  2  0  0  3  0  0  0  0  0  0
  186.5040  177.0560  135.4150 C   0  0  0  0  0  2  0  0  0  0  0  0
  189.7460  176.3800  142.8450 C   0  0  2  0  0  3  0  0  0  0  0  0
  186.6290  178.3840  138.0920 C   0  0  1  0  0  3  0  0  0  0  0  0
  184.8720  179.1550  140.1670 C   0  0  0  0  0  2  0  0  0  0  0  0
  182.1230  178.1760  138.8670 C   0  0  0  0  0  1  0  0  0  0  0  0
  184.1850  177.8180  140.2870 C   0  0  1  0  0  3  0  0  0  0  0  0
  183.3540  178.6420  143.8200 C   0  0  0  0  0  2  0  0  0  0  0  0
  186.0300  179.2610  144.2230 C   0  0  0  0  0  2  0  0  0  0  0  0
  186.1360  176.2660  136.6790 C   0  0  1  0  0  3  0  0  0  0  0  0
  187.2780  175.3510  137.0810 C   0  0  0  0  0  1  0  0  0  0  0  0
  185.5320  178.6140  142.9290 C   0  0  2  0  0  0  0  0  0  0  0  0
  1  5  1  0  0  0  0
  1  4  2  0  0  0  0
  2 18  1  6  0  0  0
  2 22  1  0  0  0  0
  3 11  1  0  0  0  0
  4 13  1  0  0  0  0
  5 12  2  0  0  0  0
  7 16  1  0  0  0  0
  7 27  1  1  0  0  0
  8 12  1  6  0  0  0
  8  6  1  0  0  0  0
  9 21  1  0  0  0  0
 11 24  1  6  0  0  0
 11 25  1  0  0  0  0
 12  9  1  0  0  0  0
 13  8  1  0  0  0  0
 13 30  1  0  0  0  0
 14  2  1  0  0  0  0
 15 10  1  6  0  0  0
 15 30  1  0  0  0  0
 15 26  1  0  0  0  0
 16 26  1  0  0  0  0
 19  3  1  6  0  0  0
 19 22  1  0  0  0  0
 20 14  1  0  0  0  0
 20 28  1  0  0  0  0
 21 17  1  6  0  0  0
 21  6  1  0  0  0  0
 22  1  1  1  0  0  0
 23  4  1  0  0  0  0
 25 23  1  6  0  0  0
 25 10  1  0  0  0  0
 28 29  1  1  0  0  0
 28 19  1  0  0  0  0
 30  7  1  0  0  0  0
 30 27  1  1  0  0  0
M  END
>  <MODEL>
5

>  <REMARK>
 VINA RESULT:      -6.4      2.675      4.410
  Name = 
  0 active torsions:
  status: ('A' for Active; 'I' for Inactive)
                            x       y       z     vdW  Elec       q    Type
                         _______ _______ _______ _____ _____    ______ ____

>  <TORSDO>
F 0

$$$$
=
 OpenBabel11052412343D

 30 36  0  0  1  0  0  0  0  0999 V2000
  192.5960  176.2330  137.3670 C   0  0  0  0  0  0  0  0  0  0  0  0
  194.9680  175.8990  136.5360 C   0  0  1  0  0  3  0  0  0  0  0  0
  192.5960  173.2250  135.6280 C   0  0  0  0  0  2  0  0  0  0  0  0
  191.2750  176.2970  137.0880 C   0  0  0  0  0  0  0  0  0  0  0  0
  193.0680  176.6540  138.6550 N   0  0  0  0  0  0  0  0  0  0  0  0
  190.0360  177.1240  140.8350 S   0  0  0  0  0  0  0  0  0  0  0  0
  188.2170  177.3120  136.8750 C   0  0  1  0  0  3  0  0  0  0  0  0
  190.8570  177.5030  139.2480 C   0  0  1  0  0  3  0  0  0  0  0  0
  192.6840  177.3750  140.8700 N   0  0  0  0  0  2  0  0  0  0  0  0
  188.9220  174.0710  136.8350 C   0  0  0  0  0  2  0  0  0  0  0  0
  191.0950  173.0020  135.9000 C   0  0  2  0  0  3  0  0  0  0  0  0
  192.2910  177.2260  139.5200 C   0  0  0  0  0  0  0  0  0  0  0  0
  190.3460  176.7160  138.1100 N   0  0  0  0  0  0  0  0  0  0  0  0
  195.8300  174.9860  135.6740 C   0  0  0  0  0  2  0  0  0  0  0  0
  188.2800  175.0920  137.8090 C   0  0  2  0  0  3  0  0  0  0  0  0
  187.0800  176.6020  136.4130 O   0  0  0  0  0  0  0  0  0  0  0  0
  191.6810  176.8370  142.9520 N   0  0  0  0  0  1  0  0  0  0  0  0
  195.0550  177.2040  136.0460 O   0  0  0  0  0  1  0  0  0  0  0  0
  193.3430  173.9070  136.7790 C   0  0  2  0  0  3  0  0  0  0  0  0
  195.8060  173.5270  136.1480 C   0  0  0  0  0  2  0  0  0  0  0  0
  191.5490  177.6240  141.7400 C   0  0  2  0  0  3  0  0  0  0  0  0
  193.5150  175.4190  136.4870 C   0  0  1  0  0  3  0  0  0  0  0  0
  190.7420  175.5190  135.9480 C   0  0  0  0  0  2  0  0  0  0  0  0
  190.4060  172.6450  134.5940 C   0  0  0  0  0  1  0  0  0  0  0  0
  190.4160  174.1950  136.5920 C   0  0  1  0  0  3  0  0  0  0  0  0
  186.9470  175.4140  137.1720 C   0  0  0  0  0  2  0  0  0  0  0  0
  188.0260  177.6920  138.3350 C   0  0  0  0  0  2  0  0  0  0  0  0
  194.6500  173.1680  137.0930 C   0  0  1  0  0  3  0  0  0  0  0  0
  195.0550  173.4040  138.5370 C   0  0  0  0  0  1  0  0  0  0  0  0
  188.8920  176.4930  137.9430 C   0  0  2  0  0  0  0  0  0  0  0  0
  1  5  1  0  0  0  0
  2 18  1  6  0  0  0
  3 11  1  0  0  0  0
  4  1  2  0  0  0  0
  4 13  1  0  0  0  0
  5 12  2  0  0  0  0
  6 21  1  0  0  0  0
  7 30  1  0  0  0  0
  7 27  1  1  0  0  0
  8 12  1  1  0  0  0
  8  6  1  0  0  0  0
  9 21  1  0  0  0  0
 11 24  1  6  0  0  0
 11 25  1  0  0  0  0
 12  9  1  0  0  0  0
 13  8  1  0  0  0  0
 14 20  1  0  0  0  0
 14  2  1  0  0  0  0
 15 10  1  6  0  0  0
 15 30  1  0  0  0  0
 16  7  1  0  0  0  0
 16 26  1  0  0  0  0
 19  3  1  6  0  0  0
 19 28  1  0  0  0  0
 20 28  1  0  0  0  0
 21 17  1  1  0  0  0
 22  2  1  0  0  0  0
 22 19  1  0  0  0  0
 22  1  1  1  0  0  0
 23  4  1  0  0  0  0
 25 23  1  6  0  0  0
 25 10  1  0  0  0  0
 26 15  1  0  0  0  0
 28 29  1  1  0  0  0
 30 13  1  0  0  0  0
 30 27  1  1  0  0  0
M  END
>  <MODEL>
6

>  <REMARK>
 VINA RESULT:      -6.3      4.670      6.833
  Name = 
  0 active torsions:
  status: ('A' for Active; 'I' for Inactive)
                            x       y       z     vdW  Elec       q    Type
                         _______ _______ _______ _____ _____    ______ ____

>  <TORSDO>
F 0

$$$$
=
 OpenBabel11052412343D

 30 36  0  0  1  0  0  0  0  0999 V2000
  193.8640  175.5670  136.6470 C   0  0  0  0  0  0  0  0  0  0  0  0
  196.3790  175.6690  136.3310 C   0  0  1  0  0  3  0  0  0  0  0  0
  194.8620  172.3520  135.7830 C   0  0  0  0  0  2  0  0  0  0  0  0
  192.6530  175.2330  136.1490 C   0  0  0  0  0  0  0  0  0  0  0  0
  193.9460  176.3620  137.8380 N   0  0  0  0  0  0  0  0  0  0  0  0
  190.4780  176.5140  139.2940 S   0  0  0  0  0  0  0  0  0  0  0  0
  189.5760  175.3730  135.1820 C   0  0  1  0  0  3  0  0  0  0  0  0
  191.5330  176.7340  137.8190 C   0  0  1  0  0  3  0  0  0  0  0  0
  192.9450  177.4250  139.6930 N   0  0  0  0  0  2  0  0  0  0  0  0
  190.9190  172.4860  136.1090 C   0  0  0  0  0  2  0  0  0  0  0  0
  193.4160  171.8230  135.8550 C   0  0  2  0  0  3  0  0  0  0  0  0
  192.8980  176.8930  138.3850 C   0  0  0  0  0  0  0  0  0  0  0  0
  191.4570  175.6160  136.8600 N   0  0  0  0  0  0  0  0  0  0  0  0
  197.5770  174.8380  135.8910 C   0  0  0  0  0  2  0  0  0  0  0  0
  189.8840  173.4980  136.6630 C   0  0  2  0  0  3  0  0  0  0  0  0
  188.7380  174.3180  134.7430 O   0  0  0  0  0  0  0  0  0  0  0  0
  191.6400  177.1170  141.6510 N   0  0  0  0  0  1  0  0  0  0  0  0
  196.3030  176.8150  135.5370 O   0  0  0  0  0  1  0  0  0  0  0  0
  195.1820  173.4340  136.8200 C   0  0  2  0  0  3  0  0  0  0  0  0
  197.7480  173.5580  136.7220 C   0  0  0  0  0  2  0  0  0  0  0  0
  191.6210  177.5630  140.2700 C   0  0  2  0  0  3  0  0  0  0  0  0
  195.1010  174.8390  136.1730 C   0  0  1  0  0  3  0  0  0  0  0  0
  192.5550  174.1180  135.1820 C   0  0  0  0  0  2  0  0  0  0  0  0
  193.1180  171.0290  134.5940 C   0  0  0  0  0  1  0  0  0  0  0  0
  192.3730  172.9270  136.0890 C   0  0  1  0  0  3  0  0  0  0  0  0
  188.6870  173.3280  135.7550 C   0  0  0  0  0  2  0  0  0  0  0  0
  188.9950  176.0000  136.4400 C   0  0  0  0  0  2  0  0  0  0  0  0
  196.5110  173.1340  137.5260 C   0  0  1  0  0  3  0  0  0  0  0  0
  196.5320  173.7720  138.9030 C   0  0  0  0  0  1  0  0  0  0  0  0
  190.1520  175.0030  136.5220 C   0  0  2  0  0  0  0  0  0  0  0  0
  1  5  1  0  0  0  0
  2 18  1  6  0  0  0
  3 11  1  0  0  0  0
  4  1  2  0  0  0  0
  4 13  1  0  0  0  0
  5 12  2  0  0  0  0
  6 21  1  0  0  0  0
  7 27  1  1  0  0  0
  7 30  1  0  0  0  0
  8 12  1  1  0  0  0
  8  6  1  0  0  0  0
  9 21  1  0  0  0  0
 10 15  1  0  0  0  0
 11 24  1  6  0  0  0
 11 25  1  0  0  0  0
 12  9  1  0  0  0  0
 13  8  1  0  0  0  0
 14  2  1  0  0  0  0
 14 20  1  0  0  0  0
 15 26  1  6  0  0  0
 16  7  1  0  0  0  0
 16 26  1  0  0  0  0
 19  3  1  6  0  0  0
 19 28  1  0  0  0  0
 20 28  1  0  0  0  0
 21 17  1  1  0  0  0
 22  2  1  0  0  0  0
 22  1  1  1  0  0  0
 22 19  1  0  0  0  0
 23  4  1  0  0  0  0
 25 23  1  6  0  0  0
 25 10  1  0  0  0  0
 28 29  1  1  0  0  0
 30 27  1  1  0  0  0
 30 15  1  0  0  0  0
 30 13  1  0  0  0  0
M  END
>  <MODEL>
7

>  <REMARK>
 VINA RESULT:      -5.4      5.931      8.491
  Name = 
  0 active torsions:
  status: ('A' for Active; 'I' for Inactive)
                            x       y       z     vdW  Elec       q    Type
                         _______ _______ _______ _____ _____    ______ ____

>  <TORSDO>
F 0

$$$$
=
 OpenBabel11052412343D

 30 36  0  0  1  0  0  0  0  0999 V2000
  183.6820  177.8380  137.7040 C   0  0  0  0  0  0  0  0  0  0  0  0
  181.2110  178.2980  138.0420 C   0  0  1  0  0  3  0  0  0  0  0  0
  183.2940  178.6060  141.0710 C   0  0  0  0  0  2  0  0  0  0  0  0
  184.9610  178.2510  137.8450 C   0  0  0  0  0  0  0  0  0  0  0  0
  183.3940  176.6910  136.8920 N   0  0  0  0  0  0  0  0  0  0  0  0
  186.6890  175.0520  136.1000 S   0  0  0  0  0  0  0  0  0  0  0  0
  188.0260  179.0510  137.2190 C   0  0  1  0  0  3  0  0  0  0  0  0
  185.7070  176.5920  136.1160 C   0  0  1  0  0  3  0  0  0  0  0  0
  184.0840  174.8350  135.6070 N   0  0  0  0  0  2  0  0  0  0  0  0
  187.1300  178.0670  140.2580 C   0  0  0  0  0  2  0  0  0  0  0  0
  184.8010  178.4290  141.3440 C   0  0  2  0  0  3  0  0  0  0  0  0
  184.3020  176.1120  136.1710 C   0  0  0  0  0  0  0  0  0  0  0  0
  186.0290  177.4930  137.2390 N   0  0  0  0  0  0  0  0  0  0  0  0
  180.2000  178.7650  139.0810 C   0  0  0  0  0  2  0  0  0  0  0  0
  187.9440  177.5030  139.0640 C   0  0  2  0  0  3  0  0  0  0  0  0
  189.0560  179.3920  138.1320 O   0  0  0  0  0  0  0  0  0  0  0  0
  185.2960  172.7950  135.6180 N   0  0  0  0  0  1  0  0  0  0  0  0
  181.1440  179.1390  136.9300 O   0  0  0  0  0  1  0  0  0  0  0  0
  182.7320  177.6400  140.0220 C   0  0  2  0  0  3  0  0  0  0  0  0
  180.1930  177.8870  140.3390 C   0  0  0  0  0  2  0  0  0  0  0  0
  185.3270  174.1920  135.2250 C   0  0  2  0  0  3  0  0  0  0  0  0
  182.6170  178.3450  138.6480 C   0  0  1  0  0  3  0  0  0  0  0  0
  185.3060  179.1580  138.9620 C   0  0  0  0  0  2  0  0  0  0  0  0
  185.3050  179.6330  142.1210 C   0  0  0  0  0  1  0  0  0  0  0  0
  185.6270  178.1880  140.0700 C   0  0  1  0  0  3  0  0  0  0  0  0
  189.2070  178.3340  139.0620 C   0  0  0  0  0  2  0  0  0  0  0  0
  188.4140  177.7920  136.4570 C   0  0  0  0  0  2  0  0  0  0  0  0
  181.4310  176.9960  140.5180 C   0  0  1  0  0  3  0  0  0  0  0  0
  181.2170  175.6530  139.8430 C   0  0  0  0  0  1  0  0  0  0  0  0
  187.4370  177.7280  137.6330 C   0  0  2  0  0  0  0  0  0  0  0  0
  1  4  2  0  0  0  0
  2 18  1  6  0  0  0
  2 22  1  0  0  0  0
  2 14  1  0  0  0  0
  3 11  1  0  0  0  0
  4 23  1  0  0  0  0
  5  1  1  0  0  0  0
  7 27  1  6  0  0  0
  7 30  1  0  0  0  0
  7 16  1  0  0  0  0
  8  6  1  1  0  0  0
  8 12  1  0  0  0  0
  8 13  1  0  0  0  0
  9 12  1  0  0  0  0
 11 24  1  6  0  0  0
 12  5  2  0  0  0  0
 13 30  1  0  0  0  0
 13  4  1  0  0  0  0
 14 20  1  0  0  0  0
 15 26  1  6  0  0  0
 15 10  1  0  0  0  0
 16 26  1  0  0  0  0
 19 28  1  0  0  0  0
 19  3  1  1  0  0  0
 20 28  1  0  0  0  0
 21  9  1  0  0  0  0
 21 17  1  1  0  0  0
 21  6  1  0  0  0  0
 22  1  1  6  0  0  0
 22 19  1  0  0  0  0
 25 23  1  6  0  0  0
 25 10  1  0  0  0  0
 25 11  1  0  0  0  0
 28 29  1  6  0  0  0
 30 27  1  6  0  0  0
 30 15  1  0  0  0  0
M  END
>  <MODEL>
8

>  <REMARK>
 VINA RESULT:      -5.2      2.485      6.805
  Name = 
  0 active torsions:
  status: ('A' for Active; 'I' for Inactive)
                            x       y       z     vdW  Elec       q    Type
                         _______ _______ _______ _____ _____    ______ ____

>  <TORSDO>
F 0

$$$$
=
 OpenBabel11052412343D

 30 36  0  0  1  0  0  0  0  0999 V2000
  183.4630  176.7010  138.7470 C   0  0  0  0  0  0  0  0  0  0  0  0
  182.7430  178.4080  140.4790 C   0  0  1  0  0  3  0  0  0  0  0  0
  179.9930  176.8170  138.6030 C   0  0  0  0  0  2  0  0  0  0  0  0
  183.3570  175.4490  138.2490 C   0  0  0  0  0  0  0  0  0  0  0  0
  184.5200  177.5570  138.2910 N   0  0  0  0  0  0  0  0  0  0  0  0
  186.0870  175.8730  135.3110 S   0  0  0  0  0  0  0  0  0  0  0  0
  184.0750  172.4860  137.1850 C   0  0  1  0  0  3  0  0  0  0  0  0
  185.5440  175.7210  137.0480 C   0  0  1  0  0  3  0  0  0  0  0  0
  186.3310  178.0280  136.8510 N   0  0  0  0  0  2  0  0  0  0  0  0
  181.3400  174.0380  136.1280 C   0  0  0  0  0  2  0  0  0  0  0  0
  179.9470  175.7520  137.4900 C   0  0  2  0  0  3  0  0  0  0  0  0
  185.4680  177.1290  137.5170 C   0  0  0  0  0  0  0  0  0  0  0  0
  184.2600  175.0120  137.2120 N   0  0  0  0  0  0  0  0  0  0  0  0
  181.5120  179.0120  141.1410 C   0  0  0  0  0  2  0  0  0  0  0  0
  182.7240  173.6370  135.5550 C   0  0  2  0  0  3  0  0  0  0  0  0
  183.2220  171.5380  136.5650 O   0  0  0  0  0  0  0  0  0  0  0  0
  187.0100  178.3020  134.5940 N   0  0  0  0  0  1  0  0  0  0  0  0
  183.5690  177.8630  141.4620 O   0  0  0  0  0  1  0  0  0  0  0  0
  181.1970  177.7620  138.5130 C   0  0  2  0  0  3  0  0  0  0  0  0
  180.5470  179.6500  140.1320 C   0  0  0  0  0  2  0  0  0  0  0  0
  187.0080  177.4010  135.7310 C   0  0  2  0  0  3  0  0  0  0  0  0
  182.3060  177.3150  139.4990 C   0  0  1  0  0  3  0  0  0  0  0  0
  182.0800  174.7180  138.4060 C   0  0  0  0  0  2  0  0  0  0  0  0
  178.9310  174.6880  137.8690 C   0  0  0  0  0  1  0  0  0  0  0  0
  181.3200  175.1400  137.1740 C   0  0  1  0  0  3  0  0  0  0  0  0
  182.6390  172.1340  135.4200 C   0  0  0  0  0  2  0  0  0  0  0  0
  185.1890  172.8780  136.2260 C   0  0  0  0  0  2  0  0  0  0  0  0
  180.7560  179.2220  138.6730 C   0  0  1  0  0  3  0  0  0  0  0  0
  181.7420  180.1490  137.9870 C   0  0  0  0  0  1  0  0  0  0  0  0
  183.9750  173.7860  136.4320 C   0  0  2  0  0  0  0  0  0  0  0  0
  2 14  1  0  0  0  0
  2 18  1  1  0  0  0
  4 23  1  0  0  0  0
  4  1  2  0  0  0  0
  5  1  1  0  0  0  0
  6 21  1  0  0  0  0
  7 27  1  6  0  0  0
  8  6  1  6  0  0  0
  8 13  1  0  0  0  0
  8 12  1  0  0  0  0
  9 12  1  0  0  0  0
 11 24  1  1  0  0  0
 11  3  1  0  0  0  0
 12  5  2  0  0  0  0
 13  4  1  0  0  0  0
 15 26  1  1  0  0  0
 15 10  1  0  0  0  0
 15 30  1  0  0  0  0
 16  7  1  0  0  0  0
 19  3  1  1  0  0  0
 19 28  1  0  0  0  0
 19 22  1  0  0  0  0
 20 14  1  0  0  0  0
 21 17  1  6  0  0  0
 21  9  1  0  0  0  0
 22  1  1  6  0  0  0
 22  2  1  0  0  0  0
 25 10  1  6  0  0  0
 25 11  1  0  0  0  0
 25 23  1  0  0  0  0
 26 16  1  0  0  0  0
 28 29  1  1  0  0  0
 28 20  1  0  0  0  0
 30 27  1  6  0  0  0
 30  7  1  0  0  0  0
 30 13  1  0  0  0  0
M  END
>  <MODEL>
9

>  <REMARK>
 VINA RESULT:      -5.0      2.953      6.071
  Name = 
  0 active torsions:
  status: ('A' for Active; 'I' for Inactive)
                            x       y       z     vdW  Elec       q    Type
                         _______ _______ _______ _____ _____    ______ ____

>  <TORSDO>
F 0

$$$$
