=
 OpenBabel11052414023D

 34 38  0  0  1  0  0  0  0  0999 V2000
  185.9790  178.1790  138.1780 C   0  0  0  0  0  0  0  0  0  0  0  0
  188.3040  177.3430  138.0430 C   0  0  0  0  0  0  0  0  0  0  0  0
  187.4080  178.1160  140.1910 C   0  0  0  0  0  0  0  0  0  0  0  0
  188.2770  177.2750  143.2080 C   0  0  0  0  0  2  0  0  0  0  0  0
  183.3590  179.0710  138.2560 Cl  0  0  0  0  0  0  0  0  0  0  0  0
  188.2120  177.0690  136.7180 F   0  0  0  0  0  0  0  0  0  0  0  0
  189.6740  177.3240  139.9820 N   0  0  0  0  0  0  0  0  0  0  0  0
  187.2280  177.8790  138.7880 C   0  0  0  0  0  0  0  0  0  0  0  0
  189.0230  178.1590  142.2070 C   0  0  2  0  0  3  0  0  0  0  0  0
  185.7390  177.9800  136.7120 C   0  0  0  0  0  1  0  0  0  0  0  0
  186.2990  178.5910  140.9590 C   0  0  0  0  0  0  0  0  0  0  0  0
  184.9260  178.6820  138.9520 C   0  0  0  0  0  0  0  0  0  0  0  0
  189.5090  177.0660  138.6670 C   0  0  0  0  0  3  0  0  0  0  0  0
  186.7600  177.4370  143.1350 C   0  0  0  0  0  2  0  0  0  0  0  0
  186.3620  178.7530  142.4680 C   0  0  2  0  0  3  0  0  0  0  0  0
  188.6910  177.8460  140.7610 C   0  0  0  0  0  0  0  0  0  0  0  0
  185.0910  178.8670  140.3150 C   0  0  0  0  0  3  0  0  0  0  0  0
  184.8640  178.8040  145.5770 C   0  0  1  0  0  3  0  0  0  0  0  0
  183.3390  178.7050  145.4500 C   0  0  0  0  0  2  0  0  0  0  0  0
  185.1360  179.4080  143.1280 C   0  0  2  0  0  3  0  0  0  0  0  0
  182.8210  178.9520  144.0270 C   0  0  0  0  0  2  0  0  0  0  0  0
  185.4490  179.8040  144.5800 C   0  0  0  0  0  2  0  0  0  0  0  0
  183.8580  178.5590  142.9800 C   0  0  0  0  0  2  0  0  0  0  0  0
  185.2030  179.1790  146.8750 O   0  0  0  0  0  1  0  0  0  0  0  0
  190.5200  178.2810  142.5270 C   0  0  0  0  0  2  0  0  0  0  0  0
  190.8010  179.1080  143.7770 C   0  0  0  0  0  2  0  0  0  0  0  0
  191.6240  178.3110  144.7800 C   0  0  0  0  0  2  0  0  0  0  0  0
  189.0550  176.6040  146.8100 O   0  0  0  0  0  1  0  0  0  0  0  0
  190.8710  177.0950  145.3250 C   0  0  2  0  0  3  0  0  0  0  0  0
  190.2210  177.3620  146.6970 C   0  0  2  0  0  3  0  0  0  0  0  0
  192.0920  176.0910  147.7160 C   0  0  0  0  0  3  0  0  0  0  0  0
  192.3140  175.4090  146.4290 C   0  0  0  0  0  3  0  0  0  0  0  0
  191.7260  175.8510  145.3140 C   0  0  0  0  0  3  0  0  0  0  0  0
  191.1450  177.0250  147.8400 C   0  0  0  0  0  3  0  0  0  0  0  0
  1  8  2  0  0  0  0
  1 12  1  0  0  0  0
  2 13  2  0  0  0  0
  2  8  1  0  0  0  0
  3 16  1  0  0  0  0
  3 11  2  0  0  0  0
  5 12  1  0  0  0  0
  6  2  1  0  0  0  0
  7 16  2  0  0  0  0
  8  3  1  0  0  0  0
  9 25  1  6  0  0  0
  9  4  1  0  0  0  0
 10  1  1  0  0  0  0
 11 15  1  0  0  0  0
 12 17  2  0  0  0  0
 13  7  1  0  0  0  0
 14  4  1  0  0  0  0
 15 20  1  0  0  0  0
 15 14  1  1  0  0  0
 16  9  1  0  0  0  0
 17 11  1  0  0  0  0
 18 24  1  1  0  0  0
 19 18  1  0  0  0  0
 20 23  1  1  0  0  0
 20 22  1  0  0  0  0
 21 19  1  0  0  0  0
 22 18  1  0  0  0  0
 23 21  1  0  0  0  0
 25 26  1  0  0  0  0
 26 27  1  0  0  0  0
 29 27  1  1  0  0  0
 29 30  1  0  0  0  0
 30 28  1  1  0  0  0
 30 34  1  0  0  0  0
 31 34  2  0  0  0  0
 32 31  1  0  0  0  0
 33 29  1  0  0  0  0
 33 32  2  0  0  0  0
M  END
>  <MODEL>
1

>  <REMARK>
 VINA RESULT:      -9.7      0.000      0.000
  Name = 
  5 active torsions:
  status: ('A' for Active; 'I' for Inactive)
    1  A    between atoms: C_3  and  C_13
    2  A    between atoms: C_3  and  C_17
    3  A    between atoms: C_12  and  C_28
    4  A    between atoms: C_17  and  C_29
    5  A    between atoms: C_18  and  C_29
                            x       y       z     vdW  Elec       q    Type
                         _______ _______ _______ _____ _____    ______ ____

>  <TORSDO>
F 5

$$$$
=
 OpenBabel11052414023D

 34 38  0  0  1  0  0  0  0  0999 V2000
  187.8660  178.0710  137.8810 C   0  0  0  0  0  0  0  0  0  0  0  0
  188.8570  178.0460  140.1470 C   0  0  0  0  0  0  0  0  0  0  0  0
  186.4630  178.4970  139.8680 C   0  0  0  0  0  0  0  0  0  0  0  0
  184.0170  178.0120  141.9540 C   0  0  0  0  0  2  0  0  0  0  0  0
  186.8230  178.0500  135.3160 Cl  0  0  0  0  0  0  0  0  0  0  0  0
  190.0980  177.7470  139.6880 F   0  0  0  0  0  0  0  0  0  0  0  0
  187.4990  178.4940  142.0430 N   0  0  0  0  0  0  0  0  0  0  0  0
  187.7420  178.2030  139.2920 C   0  0  0  0  0  0  0  0  0  0  0  0
  185.1080  179.0850  141.9870 C   0  0  2  0  0  3  0  0  0  0  0  0
  189.1800  177.7930  137.2170 C   0  0  0  0  0  1  0  0  0  0  0  0
  185.3220  178.5860  139.0100 C   0  0  0  0  0  0  0  0  0  0  0  0
  186.7350  178.2040  137.0660 C   0  0  0  0  0  0  0  0  0  0  0  0
  188.7040  178.1870  141.5170 C   0  0  0  0  0  3  0  0  0  0  0  0
  183.5630  177.6640  140.5380 C   0  0  0  0  0  2  0  0  0  0  0  0
  183.9120  178.7700  139.5430 C   0  0  2  0  0  3  0  0  0  0  0  0
  186.3850  178.6690  141.2850 C   0  0  0  0  0  0  0  0  0  0  0  0
  185.4940  178.4430  137.6310 C   0  0  0  0  0  3  0  0  0  0  0  0
  180.8190  180.2890  139.3610 C   0  0  1  0  0  3  0  0  0  0  0  0
  179.8270  179.4180  138.5800 C   0  0  0  0  0  2  0  0  0  0  0  0
  182.8140  178.9900  138.4870 C   0  0  2  0  0  3  0  0  0  0  0  0
  180.4930  178.2850  137.7870 C   0  0  0  0  0  2  0  0  0  0  0  0
  182.1710  180.3760  138.6550 C   0  0  0  0  0  2  0  0  0  0  0  0
  181.7940  177.8350  138.4430 C   0  0  0  0  0  2  0  0  0  0  0  0
  180.2900  181.5680  139.5250 O   0  0  0  0  0  1  0  0  0  0  0  0
  185.2930  179.6960  143.3840 C   0  0  0  0  0  2  0  0  0  0  0  0
  184.8850  178.7530  144.5110 C   0  0  0  0  0  2  0  0  0  0  0  0
  185.7180  179.0090  145.7600 C   0  0  0  0  0  2  0  0  0  0  0  0
  187.6620  177.0090  148.1790 O   0  0  0  0  0  1  0  0  0  0  0  0
  186.4240  177.7490  146.2650 C   0  0  2  0  0  3  0  0  0  0  0  0
  187.5530  178.0590  147.2670 C   0  0  2  0  0  3  0  0  0  0  0  0
  189.1610  177.6700  145.4180 C   0  0  0  0  0  3  0  0  0  0  0  0
  188.1480  176.8560  144.7240 C   0  0  0  0  0  3  0  0  0  0  0  0
  186.8760  176.8630  145.1300 C   0  0  0  0  0  3  0  0  0  0  0  0
  188.8810  178.2620  146.5830 C   0  0  0  0  0  3  0  0  0  0  0  0
  1  8  1  0  0  0  0
  2 13  1  0  0  0  0
  3 16  2  0  0  0  0
  4  9  1  0  0  0  0
  5 12  1  0  0  0  0
  6  2  1  0  0  0  0
  8  3  1  0  0  0  0
  8  2  2  0  0  0  0
  9 25  1  1  0  0  0
 10  1  1  0  0  0  0
 11 15  1  0  0  0  0
 11  3  1  0  0  0  0
 12 17  1  0  0  0  0
 12  1  2  0  0  0  0
 13  7  2  0  0  0  0
 14  4  1  0  0  0  0
 15 14  1  6  0  0  0
 16  9  1  0  0  0  0
 16  7  1  0  0  0  0
 17 11  2  0  0  0  0
 18 24  1  6  0  0  0
 19 18  1  0  0  0  0
 20 23  1  1  0  0  0
 20 22  1  0  0  0  0
 20 15  1  0  0  0  0
 21 23  1  0  0  0  0
 21 19  1  0  0  0  0
 22 18  1  0  0  0  0
 25 26  1  0  0  0  0
 26 27  1  0  0  0  0
 29 27  1  6  0  0  0
 29 30  1  0  0  0  0
 30 28  1  1  0  0  0
 31 34  2  0  0  0  0
 32 33  2  0  0  0  0
 32 31  1  0  0  0  0
 33 29  1  0  0  0  0
 34 30  1  0  0  0  0
M  END
>  <MODEL>
2

>  <REMARK>
 VINA RESULT:      -9.5      2.807      4.610
  Name = 
  5 active torsions:
  status: ('A' for Active; 'I' for Inactive)
    1  A    between atoms: C_3  and  C_13
    2  A    between atoms: C_3  and  C_17
    3  A    between atoms: C_12  and  C_28
    4  A    between atoms: C_17  and  C_29
    5  A    between atoms: C_18  and  C_29
                            x       y       z     vdW  Elec       q    Type
                         _______ _______ _______ _____ _____    ______ ____

>  <TORSDO>
F 5

$$$$
=
 OpenBabel11052414023D

 34 38  0  0  1  0  0  0  0  0999 V2000
  189.2150  177.4070  146.2300 C   0  0  0  0  0  0  0  0  0  0  0  0
  191.1830  177.3750  144.7320 C   0  0  0  0  0  0  0  0  0  0  0  0
  188.9280  177.5230  143.7810 C   0  0  0  0  0  0  0  0  0  0  0  0
  187.9660  178.7900  140.9450 C   0  0  0  0  0  2  0  0  0  0  0  0
  187.0630  177.4690  147.9730 Cl  0  0  0  0  0  0  0  0  0  0  0  0
  192.0640  177.3100  145.7610 F   0  0  0  0  0  0  0  0  0  0  0  0
  190.8850  177.4510  142.3770 N   0  0  0  0  0  0  0  0  0  0  0  0
  189.7830  177.4320  144.9270 C   0  0  0  0  0  0  0  0  0  0  0  0
  188.7170  177.4830  141.2060 C   0  0  2  0  0  3  0  0  0  0  0  0
  190.0550  177.2840  147.4650 C   0  0  0  0  0  1  0  0  0  0  0  0
  187.5170  177.6530  143.9800 C   0  0  0  0  0  0  0  0  0  0  0  0
  187.8260  177.4950  146.3880 C   0  0  0  0  0  0  0  0  0  0  0  0
  191.7050  177.3970  143.4490 C   0  0  0  0  0  3  0  0  0  0  0  0
  186.9410  179.1180  142.0300 C   0  0  0  0  0  2  0  0  0  0  0  0
  186.5480  177.8780  142.8320 C   0  0  2  0  0  3  0  0  0  0  0  0
  189.5310  177.4990  142.4850 C   0  0  0  0  0  0  0  0  0  0  0  0
  187.0070  177.6270  145.2800 C   0  0  0  0  0  3  0  0  0  0  0  0
  183.5580  178.8140  141.3860 C   0  0  1  0  0  3  0  0  0  0  0  0
  182.6450  179.4970  142.4120 C   0  0  0  0  0  2  0  0  0  0  0  0
  185.0530  177.8530  143.1960 C   0  0  2  0  0  3  0  0  0  0  0  0
  183.0970  179.3020  143.8660 C   0  0  0  0  0  2  0  0  0  0  0  0
  184.1990  177.5490  141.9540 C   0  0  0  0  0  2  0  0  0  0  0  0
  184.6080  179.1160  143.9590 C   0  0  0  0  0  2  0  0  0  0  0  0
  182.8260  178.4990  140.2430 O   0  0  0  0  0  1  0  0  0  0  0  0
  189.4560  176.9680  139.9620 C   0  0  0  0  0  2  0  0  0  0  0  0
  189.4670  177.9690  138.8130 C   0  0  0  0  0  2  0  0  0  0  0  0
  188.6920  177.4310  137.6170 C   0  0  0  0  0  2  0  0  0  0  0  0
  185.4490  179.0730  138.2630 O   0  0  0  0  0  1  0  0  0  0  0  0
  187.4830  178.2990  137.2600 C   0  0  2  0  0  3  0  0  0  0  0  0
  186.2250  177.9300  138.0690 C   0  0  2  0  0  3  0  0  0  0  0  0
  185.3990  176.7460  136.0510 C   0  0  0  0  0  3  0  0  0  0  0  0
  186.2790  177.5820  135.2160 C   0  0  0  0  0  3  0  0  0  0  0  0
  187.2340  178.3320  135.7720 C   0  0  0  0  0  3  0  0  0  0  0  0
  185.3940  176.8760  137.3810 C   0  0  0  0  0  3  0  0  0  0  0  0
  1 12  1  0  0  0  0
  1 10  1  0  0  0  0
  2  8  1  0  0  0  0
  2  6  1  0  0  0  0
  3 11  2  0  0  0  0
  3  8  1  0  0  0  0
  4  9  1  0  0  0  0
  4 14  1  0  0  0  0
  7 16  2  0  0  0  0
  7 13  1  0  0  0  0
  8  1  2  0  0  0  0
  9 25  1  6  0  0  0
  9 16  1  0  0  0  0
 11 17  1  0  0  0  0
 12  5  1  0  0  0  0
 13  2  2  0  0  0  0
 15 14  1  1  0  0  0
 15 20  1  0  0  0  0
 15 11  1  0  0  0  0
 16  3  1  0  0  0  0
 17 12  2  0  0  0  0
 18 24  1  6  0  0  0
 18 22  1  0  0  0  0
 18 19  1  0  0  0  0
 19 21  1  0  0  0  0
 20 22  1  6  0  0  0
 20 23  1  0  0  0  0
 21 23  1  0  0  0  0
 26 25  1  0  0  0  0
 27 26  1  0  0  0  0
 29 27  1  6  0  0  0
 29 30  1  0  0  0  0
 30 28  1  6  0  0  0
 31 34  2  0  0  0  0
 32 33  2  0  0  0  0
 32 31  1  0  0  0  0
 33 29  1  0  0  0  0
 34 30  1  0  0  0  0
M  END
>  <MODEL>
3

>  <REMARK>
 VINA RESULT:      -9.5      3.445      7.184
  Name = 
  5 active torsions:
  status: ('A' for Active; 'I' for Inactive)
    1  A    between atoms: C_3  and  C_13
    2  A    between atoms: C_3  and  C_17
    3  A    between atoms: C_12  and  C_28
    4  A    between atoms: C_17  and  C_29
    5  A    between atoms: C_18  and  C_29
                            x       y       z     vdW  Elec       q    Type
                         _______ _______ _______ _____ _____    ______ ____

>  <TORSDO>
F 5

$$$$
=
 OpenBabel11052414023D

 34 38  0  0  1  0  0  0  0  0999 V2000
  183.8690  178.8690  141.7760 C   0  0  0  0  0  0  0  0  0  0  0  0
  184.7910  178.2780  143.9940 C   0  0  0  0  0  0  0  0  0  0  0  0
  186.1740  178.0090  141.9870 C   0  0  0  0  0  0  0  0  0  0  0  0
  189.4120  178.0440  141.6950 C   0  0  0  0  0  2  0  0  0  0  0  0
  182.7790  179.5830  139.3330 Cl  0  0  0  0  0  0  0  0  0  0  0  0
  183.6580  178.6340  144.6480 F   0  0  0  0  0  0  0  0  0  0  0  0
  186.9970  177.4160  144.1730 N   0  0  0  0  0  0  0  0  0  0  0  0
  184.9310  178.3880  142.5910 C   0  0  0  0  0  0  0  0  0  0  0  0
  188.5140  176.9550  142.2870 C   0  0  2  0  0  3  0  0  0  0  0  0
  182.5370  179.2540  142.3450 C   0  0  0  0  0  1  0  0  0  0  0  0
  186.3400  178.1870  140.5780 C   0  0  0  0  0  0  0  0  0  0  0  0
  184.0520  178.9930  140.3930 C   0  0  0  0  0  0  0  0  0  0  0  0
  185.8430  177.7990  144.7590 C   0  0  0  0  0  3  0  0  0  0  0  0
  188.7790  178.7580  140.5030 C   0  0  0  0  0  2  0  0  0  0  0  0
  187.6610  177.9290  139.8730 C   0  0  2  0  0  3  0  0  0  0  0  0
  187.2020  177.4850  142.8310 C   0  0  0  0  0  0  0  0  0  0  0  0
  185.2700  178.6680  139.8200 C   0  0  0  0  0  3  0  0  0  0  0  0
  188.7580  176.0690  137.1810 C   0  0  1  0  0  3  0  0  0  0  0  0
  189.3800  176.9740  136.1090 C   0  0  0  0  0  2  0  0  0  0  0  0
  187.6370  178.0290  138.3370 C   0  0  2  0  0  3  0  0  0  0  0  0
  189.0690  178.4640  136.3040 C   0  0  0  0  0  2  0  0  0  0  0  0
  187.4420  176.6400  137.7070 C   0  0  0  0  0  2  0  0  0  0  0  0
  188.8480  178.8000  137.7740 C   0  0  0  0  0  2  0  0  0  0  0  0
  188.5430  174.7970  136.6530 O   0  0  0  0  0  1  0  0  0  0  0  0
  189.2770  176.0020  143.2180 C   0  0  0  0  0  2  0  0  0  0  0  0
  190.7890  176.1850  143.1570 C   0  0  0  0  0  2  0  0  0  0  0  0
  191.4510  175.6610  144.4250 C   0  0  0  0  0  2  0  0  0  0  0  0
  192.0550  176.9880  147.8170 O   0  0  0  0  0  1  0  0  0  0  0  0
  191.6990  176.7630  145.4580 C   0  0  2  0  0  3  0  0  0  0  0  0
  191.2360  176.3680  146.8740 C   0  0  2  0  0  3  0  0  0  0  0  0
  189.2360  177.7900  146.5060 C   0  0  0  0  0  3  0  0  0  0  0  0
  189.9780  178.5470  145.4820 C   0  0  0  0  0  3  0  0  0  0  0  0
  191.1410  178.0920  145.0090 C   0  0  0  0  0  3  0  0  0  0  0  0
  189.8010  176.7530  147.1320 C   0  0  0  0  0  3  0  0  0  0  0  0
  1 10  1  0  0  0  0
  1  8  1  0  0  0  0
  2  6  1  0  0  0  0
  2 13  1  0  0  0  0
  3  8  1  0  0  0  0
  3 16  2  0  0  0  0
  4  9  1  0  0  0  0
  5 12  1  0  0  0  0
  7 13  2  0  0  0  0
  8  2  2  0  0  0  0
  9 16  1  0  0  0  0
  9 25  1  1  0  0  0
 11  3  1  0  0  0  0
 12  1  2  0  0  0  0
 14  4  1  0  0  0  0
 15 14  1  1  0  0  0
 15 11  1  0  0  0  0
 16  7  1  0  0  0  0
 17 12  1  0  0  0  0
 17 11  2  0  0  0  0
 18 24  1  6  0  0  0
 18 22  1  0  0  0  0
 19 21  1  0  0  0  0
 19 18  1  0  0  0  0
 20 22  1  6  0  0  0
 20 15  1  0  0  0  0
 21 23  1  0  0  0  0
 23 20  1  0  0  0  0
 26 25  1  0  0  0  0
 26 27  1  0  0  0  0
 29 27  1  6  0  0  0
 29 30  1  0  0  0  0
 30 34  1  0  0  0  0
 30 28  1  1  0  0  0
 31 34  2  0  0  0  0
 32 31  1  0  0  0  0
 33 29  1  0  0  0  0
 33 32  2  0  0  0  0
M  END
>  <MODEL>
4

>  <REMARK>
 VINA RESULT:      -9.5      2.856      5.443
  Name = 
  5 active torsions:
  status: ('A' for Active; 'I' for Inactive)
    1  A    between atoms: C_3  and  C_13
    2  A    between atoms: C_3  and  C_17
    3  A    between atoms: C_12  and  C_28
    4  A    between atoms: C_17  and  C_29
    5  A    between atoms: C_18  and  C_29
                            x       y       z     vdW  Elec       q    Type
                         _______ _______ _______ _____ _____    ______ ____

>  <TORSDO>
F 5

$$$$
=
 OpenBabel11052414023D

 34 38  0  0  1  0  0  0  0  0999 V2000
  183.8390  178.7940  143.1060 C   0  0  0  0  0  0  0  0  0  0  0  0
  184.1780  178.6100  140.6620 C   0  0  0  0  0  0  0  0  0  0  0  0
  186.0930  178.3940  142.1800 C   0  0  0  0  0  0  0  0  0  0  0  0
  188.9030  176.8200  141.7410 C   0  0  0  0  0  2  0  0  0  0  0  0
  183.3750  178.9810  145.8300 Cl  0  0  0  0  0  0  0  0  0  0  0  0
  182.8610  178.7790  140.3870 F   0  0  0  0  0  0  0  0  0  0  0  0
  186.3590  178.2610  139.7880 N   0  0  0  0  0  0  0  0  0  0  0  0
  184.6880  178.6040  141.9810 C   0  0  0  0  0  0  0  0  0  0  0  0
  188.4320  178.1340  141.1140 C   0  0  2  0  0  3  0  0  0  0  0  0
  182.3690  179.0460  142.9620 C   0  0  0  0  0  1  0  0  0  0  0  0
  186.5980  178.3180  143.5150 C   0  0  0  0  0  0  0  0  0  0  0  0
  184.3740  178.7530  144.4000 C   0  0  0  0  0  0  0  0  0  0  0  0
  185.0340  178.4260  139.5880 C   0  0  0  0  0  3  0  0  0  0  0  0
  188.4330  176.6430  143.1840 C   0  0  0  0  0  2  0  0  0  0  0  0
  188.0470  177.9770  143.8210 C   0  0  2  0  0  3  0  0  0  0  0  0
  186.9230  178.2530  141.0250 C   0  0  0  0  0  0  0  0  0  0  0  0
  185.7230  178.5070  144.5870 C   0  0  0  0  0  3  0  0  0  0  0  0
  190.6760  176.9360  145.7990 C   0  0  1  0  0  3  0  0  0  0  0  0
  190.1690  176.3980  147.1430 C   0  0  0  0  0  2  0  0  0  0  0  0
  188.4650  178.0740  145.2990 C   0  0  2  0  0  3  0  0  0  0  0  0
  188.7060  176.7530  147.4370 C   0  0  0  0  0  2  0  0  0  0  0  0
  189.9880  178.2470  145.4210 C   0  0  0  0  0  2  0  0  0  0  0  0
  187.9030  176.9190  146.1520 C   0  0  0  0  0  2  0  0  0  0  0  0
  192.0550  177.1280  145.8610 O   0  0  0  0  0  1  0  0  0  0  0  0
  189.1970  178.4840  139.8300 C   0  0  0  0  0  2  0  0  0  0  0  0
  190.3160  177.4980  139.5100 C   0  0  0  0  0  2  0  0  0  0  0  0
  190.3430  177.1720  138.0220 C   0  0  0  0  0  2  0  0  0  0  0  0
  186.9070  176.0200  137.3150 O   0  0  0  0  0  1  0  0  0  0  0  0
  188.9580  177.2580  137.3760 C   0  0  2  0  0  3  0  0  0  0  0  0
  188.2910  175.8790  137.2110 C   0  0  2  0  0  3  0  0  0  0  0  0
  188.9180  175.9760  134.8120 C   0  0  0  0  0  3  0  0  0  0  0  0
  188.9940  177.4440  134.9040 C   0  0  0  0  0  3  0  0  0  0  0  0
  188.9840  178.0530  136.0930 C   0  0  0  0  0  3  0  0  0  0  0  0
  188.6270  175.2380  135.8880 C   0  0  0  0  0  3  0  0  0  0  0  0
  1 12  1  0  0  0  0
  2  8  1  0  0  0  0
  3 11  2  0  0  0  0
  4 14  1  0  0  0  0
  6  2  1  0  0  0  0
  7 16  2  0  0  0  0
  8  3  1  0  0  0  0
  8  1  2  0  0  0  0
  9 25  1  6  0  0  0
  9  4  1  0  0  0  0
 10  1  1  0  0  0  0
 11 15  1  0  0  0  0
 11 17  1  0  0  0  0
 12 17  2  0  0  0  0
 12  5  1  0  0  0  0
 13  7  1  0  0  0  0
 13  2  2  0  0  0  0
 15 14  1  1  0  0  0
 15 20  1  0  0  0  0
 16  9  1  0  0  0  0
 16  3  1  0  0  0  0
 18 24  1  1  0  0  0
 18 19  1  0  0  0  0
 19 21  1  0  0  0  0
 20 22  1  6  0  0  0
 20 23  1  0  0  0  0
 22 18  1  0  0  0  0
 23 21  1  0  0  0  0
 26 25  1  0  0  0  0
 27 26  1  0  0  0  0
 29 27  1  6  0  0  0
 30 28  1  6  0  0  0
 30 29  1  0  0  0  0
 31 32  1  0  0  0  0
 31 34  2  0  0  0  0
 32 33  2  0  0  0  0
 33 29  1  0  0  0  0
 34 30  1  0  0  0  0
M  END
>  <MODEL>
5

>  <REMARK>
 VINA RESULT:      -9.3      2.948      6.675
  Name = 
  5 active torsions:
  status: ('A' for Active; 'I' for Inactive)
    1  A    between atoms: C_3  and  C_13
    2  A    between atoms: C_3  and  C_17
    3  A    between atoms: C_12  and  C_28
    4  A    between atoms: C_17  and  C_29
    5  A    between atoms: C_18  and  C_29
                            x       y       z     vdW  Elec       q    Type
                         _______ _______ _______ _____ _____    ______ ____

>  <TORSDO>
F 5

$$$$
=
 OpenBabel11052414023D

 34 38  0  0  1  0  0  0  0  0999 V2000
  186.1400  178.0730  146.1020 C   0  0  0  0  0  0  0  0  0  0  0  0
  184.8330  178.2950  144.0130 C   0  0  0  0  0  0  0  0  0  0  0  0
  187.2610  177.9640  143.9040 C   0  0  0  0  0  0  0  0  0  0  0  0
  189.0580  176.6560  141.5320 C   0  0  0  0  0  2  0  0  0  0  0  0
  187.5300  177.8010  148.4810 Cl  0  0  0  0  0  0  0  0  0  0  0  0
  183.6540  178.4230  144.6700 F   0  0  0  0  0  0  0  0  0  0  0  0
  185.9340  178.2240  141.9090 N   0  0  0  0  0  0  0  0  0  0  0  0
  186.0660  178.1140  144.6820 C   0  0  0  0  0  0  0  0  0  0  0  0
  188.3650  178.0200  141.5690 C   0  0  2  0  0  3  0  0  0  0  0  0
  184.9310  178.2520  146.9690 C   0  0  0  0  0  1  0  0  0  0  0  0
  188.4960  177.7100  144.5770 C   0  0  0  0  0  0  0  0  0  0  0  0
  187.3730  177.8630  146.7300 C   0  0  0  0  0  0  0  0  0  0  0  0
  184.7960  178.3350  142.6280 C   0  0  0  0  0  3  0  0  0  0  0  0
  189.6070  176.2260  142.8910 C   0  0  0  0  0  2  0  0  0  0  0  0
  189.7870  177.4170  143.8310 C   0  0  2  0  0  3  0  0  0  0  0  0
  187.1550  178.0570  142.4810 C   0  0  0  0  0  0  0  0  0  0  0  0
  188.5180  177.6740  145.9730 C   0  0  0  0  0  3  0  0  0  0  0  0
  191.7420  174.9140  145.1810 C   0  0  1  0  0  3  0  0  0  0  0  0
  192.1480  175.2540  146.6200 C   0  0  0  0  0  2  0  0  0  0  0  0
  191.0560  177.3070  144.6950 C   0  0  2  0  0  3  0  0  0  0  0  0
  191.9050  176.7210  147.0000 C   0  0  0  0  0  2  0  0  0  0  0  0
  191.9140  176.1120  144.2480 C   0  0  0  0  0  2  0  0  0  0  0  0
  190.7480  177.3170  146.2060 C   0  0  0  0  0  2  0  0  0  0  0  0
  192.5060  173.8440  144.7180 O   0  0  0  0  0  1  0  0  0  0  0  0
  188.1530  178.6130  140.1690 C   0  0  0  0  0  2  0  0  0  0  0  0
  189.2760  178.2720  139.1950 C   0  0  0  0  0  2  0  0  0  0  0  0
  189.0560  178.9550  137.8520 C   0  0  0  0  0  2  0  0  0  0  0  0
  187.6410  177.8610  134.6220 O   0  0  0  0  0  1  0  0  0  0  0  0
  188.7940  177.9590  136.7210 C   0  0  2  0  0  3  0  0  0  0  0  0
  187.4930  178.2570  135.9520 C   0  0  2  0  0  3  0  0  0  0  0  0
  186.4400  176.4020  137.2180 C   0  0  0  0  0  3  0  0  0  0  0  0
  187.7740  175.8230  137.4550 C   0  0  0  0  0  3  0  0  0  0  0  0
  188.8770  176.5290  137.1990 C   0  0  0  0  0  3  0  0  0  0  0  0
  186.3030  177.5520  136.5510 C   0  0  0  0  0  3  0  0  0  0  0  0
  1 12  1  0  0  0  0
  1 10  1  0  0  0  0
  2  6  1  0  0  0  0
  2  8  1  0  0  0  0
  3 11  2  0  0  0  0
  3  8  1  0  0  0  0
  4  9  1  0  0  0  0
  4 14  1  0  0  0  0
  7 16  2  0  0  0  0
  7 13  1  0  0  0  0
  8  1  2  0  0  0  0
  9 25  1  6  0  0  0
  9 16  1  0  0  0  0
 11 17  1  0  0  0  0
 12  5  1  0  0  0  0
 13  2  2  0  0  0  0
 15 14  1  1  0  0  0
 15 11  1  0  0  0  0
 15 20  1  0  0  0  0
 16  3  1  0  0  0  0
 17 12  2  0  0  0  0
 18 24  1  6  0  0  0
 18 19  1  0  0  0  0
 19 21  1  0  0  0  0
 20 22  1  6  0  0  0
 20 23  1  0  0  0  0
 22 18  1  0  0  0  0
 23 21  1  0  0  0  0
 26 25  1  0  0  0  0
 27 26  1  0  0  0  0
 29 33  1  0  0  0  0
 29 27  1  1  0  0  0
 30 28  1  6  0  0  0
 30 34  1  0  0  0  0
 30 29  1  0  0  0  0
 31 32  1  0  0  0  0
 33 32  2  0  0  0  0
 34 31  2  0  0  0  0
M  END
>  <MODEL>
6

>  <REMARK>
 VINA RESULT:      -9.2      3.693      7.875
  Name = 
  5 active torsions:
  status: ('A' for Active; 'I' for Inactive)
    1  A    between atoms: C_3  and  C_13
    2  A    between atoms: C_3  and  C_17
    3  A    between atoms: C_12  and  C_28
    4  A    between atoms: C_17  and  C_29
    5  A    between atoms: C_18  and  C_29
                            x       y       z     vdW  Elec       q    Type
                         _______ _______ _______ _____ _____    ______ ____

>  <TORSDO>
F 5

$$$$
=
 OpenBabel11052414023D

 34 38  0  0  1  0  0  0  0  0999 V2000
  187.8340  177.2600  137.2420 C   0  0  0  0  0  0  0  0  0  0  0  0
  187.3550  178.1470  139.5010 C   0  0  0  0  0  0  0  0  0  0  0  0
  189.5230  177.0980  139.0360 C   0  0  0  0  0  0  0  0  0  0  0  0
  192.3940  177.5730  140.4840 C   0  0  0  0  0  2  0  0  0  0  0  0
  188.3090  176.3200  134.6810 Cl  0  0  0  0  0  0  0  0  0  0  0  0
  186.1180  178.5820  139.1550 F   0  0  0  0  0  0  0  0  0  0  0  0
  188.9770  177.9490  141.2240 N   0  0  0  0  0  0  0  0  0  0  0  0
  188.2230  177.5040  138.5880 C   0  0  0  0  0  0  0  0  0  0  0  0
  191.1640  176.8330  141.0140 C   0  0  2  0  0  3  0  0  0  0  0  0
  186.4800  177.6350  136.7220 C   0  0  0  0  0  1  0  0  0  0  0  0
  190.4270  176.5130  138.0960 C   0  0  0  0  0  0  0  0  0  0  0  0
  188.7300  176.6480  136.3570 C   0  0  0  0  0  0  0  0  0  0  0  0
  187.7620  178.3650  140.8070 C   0  0  0  0  0  3  0  0  0  0  0  0
  192.5990  177.3960  138.9810 C   0  0  0  0  0  2  0  0  0  0  0  0
  191.8620  176.1660  138.4510 C   0  0  2  0  0  3  0  0  0  0  0  0
  189.8620  177.3170  140.4080 C   0  0  0  0  0  0  0  0  0  0  0  0
  190.0000  176.2980  136.7830 C   0  0  0  0  0  3  0  0  0  0  0  0
  194.8320  174.4230  138.2320 C   0  0  1  0  0  3  0  0  0  0  0  0
  195.5810  174.7790  136.9410 C   0  0  0  0  0  2  0  0  0  0  0  0
  192.6610  175.4130  137.3720 C   0  0  2  0  0  3  0  0  0  0  0  0
  194.7190  175.5250  135.9140 C   0  0  0  0  0  2  0  0  0  0  0  0
  193.3470  174.1750  137.9720 C   0  0  0  0  0  2  0  0  0  0  0  0
  193.6200  176.3340  136.5920 C   0  0  0  0  0  2  0  0  0  0  0  0
  195.4050  173.2910  138.8090 O   0  0  0  0  0  1  0  0  0  0  0  0
  191.1690  176.6980  142.5430 C   0  0  0  0  0  2  0  0  0  0  0  0
  191.5820  177.9800  143.2580 C   0  0  0  0  0  2  0  0  0  0  0  0
  190.5260  178.4000  144.2720 C   0  0  0  0  0  2  0  0  0  0  0  0
  187.4330  176.3870  144.3480 O   0  0  0  0  0  1  0  0  0  0  0  0
  189.6430  177.2330  144.7200 C   0  0  2  0  0  3  0  0  0  0  0  0
  188.1390  177.5560  144.6320 C   0  0  2  0  0  3  0  0  0  0  0  0
  188.1690  177.8850  147.0910 C   0  0  0  0  0  3  0  0  0  0  0  0
  189.3730  177.0400  147.1770 C   0  0  0  0  0  3  0  0  0  0  0  0
  190.0500  176.7070  146.0750 C   0  0  0  0  0  3  0  0  0  0  0  0
  187.6100  178.1590  145.9080 C   0  0  0  0  0  3  0  0  0  0  0  0
  1  8  1  0  0  0  0
  2 13  1  0  0  0  0
  3 16  2  0  0  0  0
  4  9  1  0  0  0  0
  5 12  1  0  0  0  0
  6  2  1  0  0  0  0
  8  3  1  0  0  0  0
  8  2  2  0  0  0  0
  9 25  1  1  0  0  0
 10  1  1  0  0  0  0
 11 15  1  0  0  0  0
 11  3  1  0  0  0  0
 12 17  1  0  0  0  0
 12  1  2  0  0  0  0
 13  7  2  0  0  0  0
 14  4  1  0  0  0  0
 15 14  1  6  0  0  0
 16  9  1  0  0  0  0
 16  7  1  0  0  0  0
 17 11  2  0  0  0  0
 18 24  1  6  0  0  0
 19 18  1  0  0  0  0
 20 23  1  1  0  0  0
 20 22  1  0  0  0  0
 20 15  1  0  0  0  0
 21 23  1  0  0  0  0
 21 19  1  0  0  0  0
 22 18  1  0  0  0  0
 25 26  1  0  0  0  0
 26 27  1  0  0  0  0
 29 27  1  1  0  0  0
 29 33  1  0  0  0  0
 30 28  1  1  0  0  0
 30 29  1  0  0  0  0
 30 34  1  0  0  0  0
 31 32  1  0  0  0  0
 33 32  2  0  0  0  0
 34 31  2  0  0  0  0
M  END
>  <MODEL>
7

>  <REMARK>
 VINA RESULT:      -8.9      3.551      6.901
  Name = 
  5 active torsions:
  status: ('A' for Active; 'I' for Inactive)
    1  A    between atoms: C_3  and  C_13
    2  A    between atoms: C_3  and  C_17
    3  A    between atoms: C_12  and  C_28
    4  A    between atoms: C_17  and  C_29
    5  A    between atoms: C_18  and  C_29
                            x       y       z     vdW  Elec       q    Type
                         _______ _______ _______ _____ _____    ______ ____

>  <TORSDO>
F 5

$$$$
=
 OpenBabel11052414023D

 34 38  0  0  1  0  0  0  0  0999 V2000
  189.2360  177.3640  146.1200 C   0  0  0  0  0  0  0  0  0  0  0  0
  191.1340  177.4040  144.5330 C   0  0  0  0  0  0  0  0  0  0  0  0
  188.8370  177.5640  143.6910 C   0  0  0  0  0  0  0  0  0  0  0  0
  187.7360  178.9200  140.9490 C   0  0  0  0  0  2  0  0  0  0  0  0
  187.1660  177.3450  147.9590 Cl  0  0  0  0  0  0  0  0  0  0  0  0
  192.0620  177.3110  145.5180 F   0  0  0  0  0  0  0  0  0  0  0  0
  190.7280  177.5600  142.1990 N   0  0  0  0  0  0  0  0  0  0  0  0
  189.7450  177.4410  144.7940 C   0  0  0  0  0  0  0  0  0  0  0  0
  188.5090  177.6120  141.1290 C   0  0  2  0  0  3  0  0  0  0  0  0
  190.1330  177.2070  147.3100 C   0  0  0  0  0  1  0  0  0  0  0  0
  187.4360  177.6720  143.9590 C   0  0  0  0  0  0  0  0  0  0  0  0
  187.8560  177.4330  146.3430 C   0  0  0  0  0  0  0  0  0  0  0  0
  191.5970  177.4760  143.2290 C   0  0  0  0  0  3  0  0  0  0  0  0
  186.7600  179.2000  142.0900 C   0  0  0  0  0  2  0  0  0  0  0  0
  186.4140  177.9280  142.8640 C   0  0  2  0  0  3  0  0  0  0  0  0
  189.3800  177.5910  142.3690 C   0  0  0  0  0  0  0  0  0  0  0  0
  186.9860  177.5970  145.2790 C   0  0  0  0  0  3  0  0  0  0  0  0
  183.3380  178.7320  141.5210 C   0  0  1  0  0  3  0  0  0  0  0  0
  182.4510  179.4260  142.5630 C   0  0  0  0  0  2  0  0  0  0  0  0
  184.9370  177.8770  143.2950 C   0  0  2  0  0  3  0  0  0  0  0  0
  182.9720  179.2960  144.0010 C   0  0  0  0  0  2  0  0  0  0  0  0
  184.0390  177.5060  142.1040 C   0  0  0  0  0  2  0  0  0  0  0  0
  184.4890  179.1530  144.0340 C   0  0  0  0  0  2  0  0  0  0  0  0
  182.5660  178.3580  140.4230 O   0  0  0  0  0  1  0  0  0  0  0  0
  189.1940  177.1480  139.8360 C   0  0  0  0  0  2  0  0  0  0  0  0
  189.4180  178.2770  138.8360 C   0  0  0  0  0  2  0  0  0  0  0  0
  189.5020  177.7350  137.4150 C   0  0  0  0  0  2  0  0  0  0  0  0
  191.2000  174.5040  137.9680 O   0  0  0  0  0  1  0  0  0  0  0  0
  189.6270  176.2100  137.3730 C   0  0  2  0  0  3  0  0  0  0  0  0
  191.0910  175.7330  137.3180 C   0  0  2  0  0  3  0  0  0  0  0  0
  190.7580  175.3200  134.8940 C   0  0  0  0  0  3  0  0  0  0  0  0
  189.3060  175.2200  135.1230 C   0  0  0  0  0  3  0  0  0  0  0  0
  188.7720  175.6050  136.2860 C   0  0  0  0  0  3  0  0  0  0  0  0
  191.5920  175.5930  135.9030 C   0  0  0  0  0  3  0  0  0  0  0  0
  1 12  1  0  0  0  0
  1 10  1  0  0  0  0
  2  8  1  0  0  0  0
  2  6  1  0  0  0  0
  3 11  2  0  0  0  0
  3  8  1  0  0  0  0
  4  9  1  0  0  0  0
  4 14  1  0  0  0  0
  7 16  2  0  0  0  0
  7 13  1  0  0  0  0
  8  1  2  0  0  0  0
  9 25  1  6  0  0  0
  9 16  1  0  0  0  0
 11 17  1  0  0  0  0
 12  5  1  0  0  0  0
 13  2  2  0  0  0  0
 15 14  1  1  0  0  0
 15 20  1  0  0  0  0
 15 11  1  0  0  0  0
 16  3  1  0  0  0  0
 17 12  2  0  0  0  0
 18 24  1  6  0  0  0
 18 22  1  0  0  0  0
 18 19  1  0  0  0  0
 19 21  1  0  0  0  0
 20 22  1  6  0  0  0
 20 23  1  0  0  0  0
 21 23  1  0  0  0  0
 26 25  1  0  0  0  0
 27 26  1  0  0  0  0
 29 27  1  6  0  0  0
 30 29  1  0  0  0  0
 30 28  1  6  0  0  0
 31 32  1  0  0  0  0
 31 34  2  0  0  0  0
 32 33  2  0  0  0  0
 33 29  1  0  0  0  0
 34 30  1  0  0  0  0
M  END
>  <MODEL>
8

>  <REMARK>
 VINA RESULT:      -8.9      3.618      6.961
  Name = 
  5 active torsions:
  status: ('A' for Active; 'I' for Inactive)
    1  A    between atoms: C_3  and  C_13
    2  A    between atoms: C_3  and  C_17
    3  A    between atoms: C_12  and  C_28
    4  A    between atoms: C_17  and  C_29
    5  A    between atoms: C_18  and  C_29
                            x       y       z     vdW  Elec       q    Type
                         _______ _______ _______ _____ _____    ______ ____

>  <TORSDO>
F 5

$$$$
=
 OpenBabel11052414023D

 34 38  0  0  1  0  0  0  0  0999 V2000
  187.4790  177.8610  146.3080 C   0  0  0  0  0  0  0  0  0  0  0  0
  189.7830  177.8530  145.4070 C   0  0  0  0  0  0  0  0  0  0  0  0
  187.8710  177.8040  143.8710 C   0  0  0  0  0  0  0  0  0  0  0  0
  187.6740  178.8270  140.7920 C   0  0  0  0  0  2  0  0  0  0  0  0
  184.9310  177.9030  147.3920 Cl  0  0  0  0  0  0  0  0  0  0  0  0
  190.3500  177.9060  146.6370 F   0  0  0  0  0  0  0  0  0  0  0  0
  190.1400  177.7610  143.0610 N   0  0  0  0  0  0  0  0  0  0  0  0
  188.3820  177.8380  145.2100 C   0  0  0  0  0  0  0  0  0  0  0  0
  188.3780  177.5870  141.3470 C   0  0  2  0  0  3  0  0  0  0  0  0
  187.9520  177.8680  147.7310 C   0  0  0  0  0  1  0  0  0  0  0  0
  186.4570  177.8600  143.6700 C   0  0  0  0  0  0  0  0  0  0  0  0
  186.0980  177.8740  146.0760 C   0  0  0  0  0  0  0  0  0  0  0  0
  190.6360  177.8250  144.3150 C   0  0  0  0  0  3  0  0  0  0  0  0
  186.3790  179.1610  141.5290 C   0  0  0  0  0  2  0  0  0  0  0  0
  185.8320  177.9520  142.2880 C   0  0  2  0  0  3  0  0  0  0  0  0
  188.8080  177.7340  142.7930 C   0  0  0  0  0  0  0  0  0  0  0  0
  185.6100  177.8860  144.7810 C   0  0  0  0  0  3  0  0  0  0  0  0
  183.3070  178.7640  140.0810 C   0  0  1  0  0  3  0  0  0  0  0  0
  182.1210  179.4010  140.8170 C   0  0  0  0  0  2  0  0  0  0  0  0
  184.2970  177.8610  142.2340 C   0  0  2  0  0  3  0  0  0  0  0  0
  182.1710  179.2190  142.3400 C   0  0  0  0  0  2  0  0  0  0  0  0
  183.8240  177.5250  140.8100 C   0  0  0  0  0  2  0  0  0  0  0  0
  183.6060  179.0990  142.8400 C   0  0  0  0  0  2  0  0  0  0  0  0
  182.9260  178.4240  138.7840 O   0  0  0  0  0  1  0  0  0  0  0  0
  189.4500  177.0400  140.3940 C   0  0  0  0  0  2  0  0  0  0  0  0
  189.6600  177.9120  139.1610 C   0  0  0  0  0  2  0  0  0  0  0  0
  189.9980  177.0600  137.9450 C   0  0  0  0  0  2  0  0  0  0  0  0
  187.5240  178.9980  136.0070 O   0  0  0  0  0  1  0  0  0  0  0  0
  189.0610  177.3220  136.7640 C   0  0  2  0  0  3  0  0  0  0  0  0
  187.8880  178.2520  137.1290 C   0  0  2  0  0  3  0  0  0  0  0  0
  186.4520  176.2310  137.2350 C   0  0  0  0  0  3  0  0  0  0  0  0
  187.4020  175.5250  136.3570 C   0  0  0  0  0  3  0  0  0  0  0  0
  188.6090  176.0390  136.1080 C   0  0  0  0  0  3  0  0  0  0  0  0
  186.6880  177.4870  137.6270 C   0  0  0  0  0  3  0  0  0  0  0  0
  1 10  1  0  0  0  0
  2  6  1  0  0  0  0
  3  8  1  0  0  0  0
  4  9  1  0  0  0  0
  4 14  1  0  0  0  0
  7 13  1  0  0  0  0
  8  2  1  0  0  0  0
  8  1  2  0  0  0  0
  9 25  1  6  0  0  0
  9 16  1  0  0  0  0
 11  3  2  0  0  0  0
 11 17  1  0  0  0  0
 12  1  1  0  0  0  0
 12  5  1  0  0  0  0
 13  2  2  0  0  0  0
 15 14  1  1  0  0  0
 15 11  1  0  0  0  0
 16  7  2  0  0  0  0
 16  3  1  0  0  0  0
 17 12  2  0  0  0  0
 18 24  1  6  0  0  0
 18 22  1  0  0  0  0
 18 19  1  0  0  0  0
 19 21  1  0  0  0  0
 20 22  1  6  0  0  0
 20 15  1  0  0  0  0
 20 23  1  0  0  0  0
 21 23  1  0  0  0  0
 26 25  1  0  0  0  0
 27 26  1  0  0  0  0
 29 30  1  0  0  0  0
 29 27  1  1  0  0  0
 30 28  1  6  0  0  0
 30 34  1  0  0  0  0
 31 34  2  0  0  0  0
 32 31  1  0  0  0  0
 33 32  2  0  0  0  0
 33 29  1  0  0  0  0
M  END
>  <MODEL>
9

>  <REMARK>
 VINA RESULT:      -8.8      3.727      7.008
  Name = 
  5 active torsions:
  status: ('A' for Active; 'I' for Inactive)
    1  A    between atoms: C_3  and  C_13
    2  A    between atoms: C_3  and  C_17
    3  A    between atoms: C_12  and  C_28
    4  A    between atoms: C_17  and  C_29
    5  A    between atoms: C_18  and  C_29
                            x       y       z     vdW  Elec       q    Type
                         _______ _______ _______ _____ _____    ______ ____

>  <TORSDO>
F 5

$$$$
