=
 OpenBabel11052416013D

 34 38  0  0  1  0  0  0  0  0999 V2000
  184.0240  178.1620  138.3580 C   0  0  1  0  0  3  0  0  0  0  0  0
  181.3810  180.5110  139.6130 C   0  0  0  0  0  3  0  0  0  0  0  0
  181.9480  178.4140  140.6480 C   0  0  0  0  0  2  0  0  0  0  0  0
  184.8880  179.6900  139.7080 O   0  0  0  0  0  0  0  0  0  0  0  0
  185.2260  178.9530  140.8520 C   0  0  0  0  0  2  0  0  0  0  0  0
  183.1580  177.7510  140.9020 O   0  0  0  0  0  0  0  0  0  0  0  0
  185.1780  178.9240  138.6640 O   0  0  0  0  0  0  0  0  0  0  0  0
  183.9590  178.6350  141.6370 C   0  0  0  0  0  2  0  0  0  0  0  0
  181.3700  181.5930  138.5880 C   0  0  0  0  0  2  0  0  0  0  0  0
  180.6770  181.1370  137.3450 C   0  0  0  0  0  0  0  0  0  0  0  0
  181.1820  180.1440  136.6080 C   0  0  0  0  0  3  0  0  0  0  0  0
  182.0140  179.3450  139.4600 C   0  0  0  0  0  0  0  0  0  0  0  0
  182.3560  179.3270  136.9730 C   0  0  0  0  0  3  0  0  0  0  0  0
  182.7570  178.9790  138.2090 C   0  0  0  0  0  0  0  0  0  0  0  0
  185.4010  177.5500  136.2870 C   0  0  1  0  0  3  0  0  0  0  0  0
  186.6950  174.8740  136.9190 C   0  0  0  0  0  2  0  0  0  0  0  0
  188.9850  178.6450  136.3840 C   0  0  0  0  0  2  0  0  0  0  0  0
  184.4090  175.7120  137.8870 C   0  0  1  0  0  3  0  0  0  0  0  0
  184.2830  177.1180  137.2640 C   0  0  1  0  0  3  0  0  0  0  0  0
  189.5690  176.1780  136.7870 C   0  0  2  0  0  3  0  0  0  0  0  0
  187.8680  177.8560  135.7180 C   0  0  2  0  0  3  0  0  0  0  0  0
  190.9110  176.1840  137.1730 O   0  0  0  0  0  1  0  0  0  0  0  0
  186.8570  177.4390  136.8030 C   0  0  2  0  0  3  0  0  0  0  0  0
  183.0410  175.1720  138.2750 C   0  0  0  0  0  1  0  0  0  0  0  0
  184.6420  173.8310  136.4430 O   0  0  0  0  0  0  0  0  0  0  0  0
  189.2950  177.2970  135.7670 C   0  0  1  0  0  3  0  0  0  0  0  0
  188.6430  176.0700  138.0010 C   0  0  2  0  0  3  0  0  0  0  0  0
  187.1840  176.1550  137.5910 C   0  0  2  0  0  3  0  0  0  0  0  0
  188.9630  177.0910  139.0850 C   0  0  0  0  0  1  0  0  0  0  0  0
  185.2040  174.7280  137.0540 C   0  0  0  0  0  0  0  0  0  0  0  0
  185.1870  176.9320  134.9090 C   0  0  0  0  0  1  0  0  0  0  0  0
  179.4770  181.8580  136.8890 C   0  0  0  0  0  0  0  0  0  0  0  0
  178.9310  182.8670  137.6740 O   0  0  0  0  0  1  0  0  0  0  0  0
  178.9310  181.5680  135.7910 O   0  0  0  0  0  0  0  0  0  0  0  0
  1 14  1  6  0  0  0
  1  7  1  0  0  0  0
  3  6  1  0  0  0  0
  4  5  1  0  0  0  0
  5  8  1  0  0  0  0
  6  8  1  0  0  0  0
  7  4  1  0  0  0  0
  9  2  1  0  0  0  0
 10  9  1  0  0  0  0
 11 13  1  0  0  0  0
 11 10  2  0  0  0  0
 12  2  2  0  0  0  0
 12  3  1  0  0  0  0
 13 14  2  0  0  0  0
 14 12  1  0  0  0  0
 15 31  1  6  0  0  0
 15 23  1  0  0  0  0
 15 19  1  0  0  0  0
 16 30  1  0  0  0  0
 16 28  1  0  0  0  0
 18 24  1  6  0  0  0
 19 18  1  0  0  0  0
 19  1  1  1  0  0  0
 20 22  1  1  0  0  0
 20 27  1  0  0  0  0
 21 26  1  0  0  0  0
 21 17  1  1  0  0  0
 21 23  1  0  0  0  0
 23 28  1  0  0  0  0
 25 30  2  0  0  0  0
 26 17  1  0  0  0  0
 26 20  1  0  0  0  0
 27 29  1  0  0  0  0
 28 27  1  0  0  0  0
 30 18  1  0  0  0  0
 32 10  1  0  0  0  0
 32 33  1  0  0  0  0
 34 32  2  0  0  0  0
M  END
>  <MODEL>
1

>  <REMARK>
 VINA RESULT:      -6.3      0.000      0.000
  Name = 
  2 active torsions:
  status: ('A' for Active; 'I' for Inactive)
    1  A    between atoms: C_1  and  C_9
    2  A    between atoms: C_3  and  C_25
                            x       y       z     vdW  Elec       q    Type
                         _______ _______ _______ _____ _____    ______ ____

>  <TORSDO>
F 2

$$$$
=
 OpenBabel11052416013D

 34 38  0  0  1  0  0  0  0  0999 V2000
  192.5330  175.0400  136.9900 C   0  0  1  0  0  3  0  0  0  0  0  0
  189.1880  176.6150  137.6280 C   0  0  0  0  0  3  0  0  0  0  0  0
  190.3580  176.6970  135.5270 C   0  0  0  0  0  2  0  0  0  0  0  0
  190.8910  173.5960  136.6460 O   0  0  0  0  0  0  0  0  0  0  0  0
  190.9000  173.4250  135.2540 C   0  0  0  0  0  2  0  0  0  0  0  0
  191.1050  175.7630  134.7920 O   0  0  0  0  0  0  0  0  0  0  0  0
  192.1590  173.6740  137.0260 O   0  0  0  0  0  0  0  0  0  0  0  0
  190.2780  174.6500  134.5940 C   0  0  0  0  0  2  0  0  0  0  0  0
  188.9580  176.3530  139.0770 C   0  0  0  0  0  2  0  0  0  0  0  0
  189.7880  177.2670  139.9190 C   0  0  0  0  0  0  0  0  0  0  0  0
  191.1220  177.1940  139.8940 C   0  0  0  0  0  3  0  0  0  0  0  0
  190.3590  176.4280  137.0140 C   0  0  0  0  0  0  0  0  0  0  0  0
  191.9080  176.3360  138.9870 C   0  0  0  0  0  3  0  0  0  0  0  0
  191.5920  175.9650  137.7320 C   0  0  0  0  0  0  0  0  0  0  0  0
  194.6670  174.0510  138.0050 C   0  0  1  0  0  3  0  0  0  0  0  0
  196.7060  174.0030  135.7510 C   0  0  0  0  0  2  0  0  0  0  0  0
  195.0310  170.3380  137.6260 C   0  0  0  0  0  2  0  0  0  0  0  0
  194.7410  175.7220  135.9750 C   0  0  1  0  0  3  0  0  0  0  0  0
  194.0300  175.2460  137.2580 C   0  0  1  0  0  3  0  0  0  0  0  0
  196.8070  170.8480  135.8450 C   0  0  2  0  0  3  0  0  0  0  0  0
  195.6190  171.6850  138.0210 C   0  0  2  0  0  3  0  0  0  0  0  0
  197.0350  169.6280  135.2050 O   0  0  0  0  0  1  0  0  0  0  0  0
  194.9440  172.7770  137.1690 C   0  0  2  0  0  3  0  0  0  0  0  0
  194.4430  177.1910  135.7090 C   0  0  0  0  0  1  0  0  0  0  0  0
  197.0490  176.3050  136.0880 O   0  0  0  0  0  0  0  0  0  0  0  0
  196.4890  170.6260  137.3340 C   0  0  1  0  0  3  0  0  0  0  0  0
  195.8590  171.7320  135.0310 C   0  0  2  0  0  3  0  0  0  0  0  0
  195.5380  173.0190  135.7670 C   0  0  2  0  0  3  0  0  0  0  0  0
  194.5840  171.0110  134.6160 C   0  0  0  0  0  1  0  0  0  0  0  0
  196.2240  175.4170  135.9310 C   0  0  0  0  0  0  0  0  0  0  0  0
  195.8550  174.5070  138.8450 C   0  0  0  0  0  1  0  0  0  0  0  0
  189.1170  178.1900  140.8490 C   0  0  0  0  0  0  0  0  0  0  0  0
  188.0950  179.0160  140.3940 O   0  0  0  0  0  0  0  0  0  0  0  0
  189.4600  178.2470  142.0600 O   0  0  0  0  0  1  0  0  0  0  0  0
  1  7  1  1  0  0  0
  1 14  1  0  0  0  0
  2  9  1  0  0  0  0
  3 12  1  0  0  0  0
  4  7  1  0  0  0  0
  5  4  1  0  0  0  0
  6  3  1  0  0  0  0
  8  6  1  0  0  0  0
  8  5  1  0  0  0  0
  9 10  1  0  0  0  0
 10 32  1  0  0  0  0
 11 10  2  0  0  0  0
 12  2  2  0  0  0  0
 12 14  1  0  0  0  0
 13 11  1  0  0  0  0
 14 13  2  0  0  0  0
 15 31  1  6  0  0  0
 16 28  1  0  0  0  0
 16 30  1  0  0  0  0
 18 24  1  1  0  0  0
 18 19  1  0  0  0  0
 19  1  1  6  0  0  0
 19 15  1  0  0  0  0
 20 22  1  6  0  0  0
 20 26  1  0  0  0  0
 21 17  1  6  0  0  0
 23 15  1  0  0  0  0
 23 21  1  0  0  0  0
 26 17  1  0  0  0  0
 26 21  1  0  0  0  0
 27 28  1  0  0  0  0
 27 20  1  0  0  0  0
 28 23  1  0  0  0  0
 29 27  1  0  0  0  0
 30 18  1  0  0  0  0
 30 25  2  0  0  0  0
 32 34  1  0  0  0  0
 33 32  2  0  0  0  0
M  END
>  <MODEL>
2

>  <REMARK>
 VINA RESULT:      -6.0      5.954     10.129
  Name = 
  2 active torsions:
  status: ('A' for Active; 'I' for Inactive)
    1  A    between atoms: C_1  and  C_9
    2  A    between atoms: C_3  and  C_25
                            x       y       z     vdW  Elec       q    Type
                         _______ _______ _______ _____ _____    ______ ____

>  <TORSDO>
F 2

$$$$
=
 OpenBabel11052416013D

 34 38  0  0  1  0  0  0  0  0999 V2000
  182.5530  177.8980  138.2370 C   0  0  1  0  0  3  0  0  0  0  0  0
  180.7090  181.0790  138.9830 C   0  0  0  0  0  3  0  0  0  0  0  0
  180.4460  179.0280  140.2130 C   0  0  0  0  0  2  0  0  0  0  0  0
  183.7230  179.2010  139.5900 O   0  0  0  0  0  0  0  0  0  0  0  0
  183.6800  178.5150  140.8130 C   0  0  0  0  0  2  0  0  0  0  0  0
  181.3390  178.0440  140.6650 O   0  0  0  0  0  0  0  0  0  0  0  0
  183.8540  178.2800  138.6440 O   0  0  0  0  0  0  0  0  0  0  0  0
  182.3040  178.6980  141.4420 C   0  0  0  0  0  2  0  0  0  0  0  0
  181.1610  181.9980  137.9000 C   0  0  0  0  0  2  0  0  0  0  0  0
  180.4910  181.6620  136.6070 C   0  0  0  0  0  0  0  0  0  0  0  0
  180.7160  180.4900  136.0060 C   0  0  0  0  0  3  0  0  0  0  0  0
  180.9380  179.7640  138.9880 C   0  0  0  0  0  0  0  0  0  0  0  0
  181.5120  179.3840  136.5740 C   0  0  0  0  0  3  0  0  0  0  0  0
  181.6470  179.0550  137.8710 C   0  0  0  0  0  0  0  0  0  0  0  0
  183.4150  177.0120  135.9940 C   0  0  1  0  0  3  0  0  0  0  0  0
  184.8770  174.4260  136.6360 C   0  0  0  0  0  2  0  0  0  0  0  0
  186.8980  178.0740  135.1010 C   0  0  0  0  0  2  0  0  0  0  0  0
  182.8670  175.4040  138.0020 C   0  0  1  0  0  3  0  0  0  0  0  0
  182.5680  176.7190  137.2540 C   0  0  1  0  0  3  0  0  0  0  0  0
  187.6110  175.6730  135.6640 C   0  0  2  0  0  3  0  0  0  0  0  0
  185.6720  177.2180  134.8230 C   0  0  2  0  0  3  0  0  0  0  0  0
  189.0050  175.7150  135.7180 O   0  0  0  0  0  1  0  0  0  0  0  0
  184.9540  176.9530  136.1610 C   0  0  2  0  0  3  0  0  0  0  0  0
  181.6400  174.9310  138.7680 C   0  0  0  0  0  1  0  0  0  0  0  0
  182.7910  173.3510  136.7940 O   0  0  0  0  0  0  0  0  0  0  0  0
  187.0810  176.6560  134.6040 C   0  0  1  0  0  3  0  0  0  0  0  0
  187.0000  175.7300  137.0660 C   0  0  2  0  0  3  0  0  0  0  0  0
  185.4840  175.7770  137.0050 C   0  0  2  0  0  3  0  0  0  0  0  0
  187.5450  176.8780  137.9050 C   0  0  0  0  0  1  0  0  0  0  0  0
  183.4630  174.3130  137.1360 C   0  0  0  0  0  0  0  0  0  0  0  0
  182.8950  176.2250  134.7950 C   0  0  0  0  0  1  0  0  0  0  0  0
  179.6470  182.6760  135.9530 C   0  0  0  0  0  0  0  0  0  0  0  0
  179.3520  182.5670  134.5980 O   0  0  0  0  0  0  0  0  0  0  0  0
  179.1890  183.6510  136.6060 O   0  0  0  0  0  1  0  0  0  0  0  0
  1 14  1  6  0  0  0
  1  7  1  0  0  0  0
  2 12  2  0  0  0  0
  3  6  1  0  0  0  0
  4  5  1  0  0  0  0
  5  8  1  0  0  0  0
  6  8  1  0  0  0  0
  7  4  1  0  0  0  0
  9  2  1  0  0  0  0
 10  9  1  0  0  0  0
 11 13  1  0  0  0  0
 11 10  2  0  0  0  0
 12  3  1  0  0  0  0
 13 14  2  0  0  0  0
 14 12  1  0  0  0  0
 15 31  1  6  0  0  0
 15 23  1  0  0  0  0
 15 19  1  0  0  0  0
 16 28  1  0  0  0  0
 16 30  1  0  0  0  0
 18 24  1  6  0  0  0
 19 18  1  0  0  0  0
 19  1  1  1  0  0  0
 20 22  1  1  0  0  0
 20 27  1  0  0  0  0
 21 17  1  1  0  0  0
 21 23  1  0  0  0  0
 23 28  1  0  0  0  0
 25 30  2  0  0  0  0
 26 21  1  0  0  0  0
 26 17  1  0  0  0  0
 26 20  1  0  0  0  0
 27 29  1  0  0  0  0
 28 27  1  0  0  0  0
 30 18  1  0  0  0  0
 32 34  1  0  0  0  0
 32 10  1  0  0  0  0
 33 32  2  0  0  0  0
M  END
>  <MODEL>
3

>  <REMARK>
 VINA RESULT:      -5.6      1.417      1.838
  Name = 
  2 active torsions:
  status: ('A' for Active; 'I' for Inactive)
    1  A    between atoms: C_1  and  C_9
    2  A    between atoms: C_3  and  C_25
                            x       y       z     vdW  Elec       q    Type
                         _______ _______ _______ _____ _____    ______ ____

>  <TORSDO>
F 2

$$$$
=
 OpenBabel11052416013D

 34 38  0  0  1  0  0  0  0  0999 V2000
  182.1010  177.3660  139.1390 C   0  0  1  0  0  3  0  0  0  0  0  0
  181.4190  178.6460  142.5990 C   0  0  0  0  0  3  0  0  0  0  0  0
  180.0670  179.1360  140.6700 C   0  0  0  0  0  2  0  0  0  0  0  0
  180.8930  175.9210  140.3010 O   0  0  0  0  0  0  0  0  0  0  0  0
  179.6340  175.9860  139.6860 C   0  0  0  0  0  2  0  0  0  0  0  0
  179.6160  178.3760  139.5800 O   0  0  0  0  0  0  0  0  0  0  0  0
  181.7940  175.9970  139.3310 O   0  0  0  0  0  0  0  0  0  0  0  0
  178.9350  177.2720  140.1090 C   0  0  0  0  0  2  0  0  0  0  0  0
  182.5750  178.1330  143.3870 C   0  0  0  0  0  2  0  0  0  0  0  0
  183.8050  178.9330  143.1030 C   0  0  0  0  0  0  0  0  0  0  0  0
  184.3540  178.9310  141.8850 C   0  0  0  0  0  3  0  0  0  0  0  0
  181.3570  178.6220  141.2650 C   0  0  0  0  0  0  0  0  0  0  0  0
  183.7770  178.2770  140.6940 C   0  0  0  0  0  3  0  0  0  0  0  0
  182.4740  178.1070  140.4060 C   0  0  0  0  0  0  0  0  0  0  0  0
  184.2210  176.6260  137.9050 C   0  0  1  0  0  3  0  0  0  0  0  0
  183.3320  175.9370  135.0810 C   0  0  0  0  0  2  0  0  0  0  0  0
  184.8870  172.9360  137.9680 C   0  0  0  0  0  2  0  0  0  0  0  0
  182.1820  177.7030  136.6380 C   0  0  1  0  0  3  0  0  0  0  0  0
  183.0180  177.5980  137.9300 C   0  0  1  0  0  3  0  0  0  0  0  0
  184.1460  172.9160  135.5100 C   0  0  2  0  0  3  0  0  0  0  0  0
  185.2170  174.3240  137.4400 C   0  0  2  0  0  3  0  0  0  0  0  0
  183.9840  171.5650  135.1960 O   0  0  0  0  0  1  0  0  0  0  0  0
  183.9280  175.1700  137.4630 C   0  0  2  0  0  3  0  0  0  0  0  0
  181.4930  179.0570  136.5530 C   0  0  0  0  0  1  0  0  0  0  0  0
  183.2860  178.2370  134.5950 O   0  0  0  0  0  0  0  0  0  0  0  0
  185.2940  173.1010  136.5190 C   0  0  1  0  0  3  0  0  0  0  0  0
  182.8020  173.5780  135.8220 C   0  0  2  0  0  3  0  0  0  0  0  0
  182.9860  175.0210  136.2530 C   0  0  2  0  0  3  0  0  0  0  0  0
  181.9820  172.8050  136.8460 C   0  0  0  0  0  1  0  0  0  0  0  0
  182.9410  177.3600  135.3720 C   0  0  0  0  0  0  0  0  0  0  0  0
  185.4140  177.2570  137.1960 C   0  0  0  0  0  1  0  0  0  0  0  0
  184.4620  179.6530  144.2070 C   0  0  0  0  0  0  0  0  0  0  0  0
  184.1380  179.3520  145.5250 O   0  0  0  0  0  1  0  0  0  0  0  0
  185.3170  180.5490  143.9720 O   0  0  0  0  0  0  0  0  0  0  0  0
  1  7  1  1  0  0  0
  1 14  1  0  0  0  0
  2  9  1  0  0  0  0
  3 12  1  0  0  0  0
  5  8  1  0  0  0  0
  5  4  1  0  0  0  0
  6  8  1  0  0  0  0
  6  3  1  0  0  0  0
  7  4  1  0  0  0  0
 10  9  1  0  0  0  0
 10 32  1  0  0  0  0
 11 10  2  0  0  0  0
 12  2  2  0  0  0  0
 13 11  1  0  0  0  0
 14 13  2  0  0  0  0
 14 12  1  0  0  0  0
 15 31  1  6  0  0  0
 15 19  1  0  0  0  0
 16 30  1  0  0  0  0
 16 28  1  0  0  0  0
 18 24  1  6  0  0  0
 18 19  1  0  0  0  0
 19  1  1  1  0  0  0
 20 22  1  1  0  0  0
 20 27  1  0  0  0  0
 20 26  1  0  0  0  0
 21 23  1  0  0  0  0
 21 17  1  1  0  0  0
 23 15  1  0  0  0  0
 25 30  2  0  0  0  0
 26 21  1  0  0  0  0
 26 17  1  0  0  0  0
 27 28  1  0  0  0  0
 27 29  1  0  0  0  0
 28 23  1  0  0  0  0
 30 18  1  0  0  0  0
 32 33  1  0  0  0  0
 34 32  2  0  0  0  0
M  END
>  <MODEL>
4

>  <REMARK>
 VINA RESULT:      -5.3      3.081      5.625
  Name = 
  2 active torsions:
  status: ('A' for Active; 'I' for Inactive)
    1  A    between atoms: C_1  and  C_9
    2  A    between atoms: C_3  and  C_25
                            x       y       z     vdW  Elec       q    Type
                         _______ _______ _______ _____ _____    ______ ____

>  <TORSDO>
F 2

$$$$
=
 OpenBabel11052416013D

 34 38  0  0  1  0  0  0  0  0999 V2000
  183.0430  176.6080  137.3420 C   0  0  1  0  0  3  0  0  0  0  0  0
  186.4530  176.2830  135.8110 C   0  0  0  0  0  3  0  0  0  0  0  0
  185.0130  174.4300  136.3430 C   0  0  0  0  0  2  0  0  0  0  0  0
  182.9460  176.7600  135.1350 O   0  0  0  0  0  0  0  0  0  0  0  0
  182.3150  175.5650  134.7590 C   0  0  0  0  0  2  0  0  0  0  0  0
  183.6340  174.2030  136.2180 O   0  0  0  0  0  0  0  0  0  0  0  0
  182.3470  177.1710  136.2450 O   0  0  0  0  0  0  0  0  0  0  0  0
  183.3080  174.4150  134.8720 C   0  0  0  0  0  2  0  0  0  0  0  0
  186.9440  177.6890  135.7680 C   0  0  0  0  0  2  0  0  0  0  0  0
  187.3640  178.1450  137.1280 C   0  0  0  0  0  0  0  0  0  0  0  0
  186.4710  178.2550  138.1160 C   0  0  0  0  0  3  0  0  0  0  0  0
  185.3690  175.8920  136.4840 C   0  0  0  0  0  0  0  0  0  0  0  0
  185.0560  177.8430  138.0330 C   0  0  0  0  0  3  0  0  0  0  0  0
  184.5410  176.8300  137.3130 C   0  0  0  0  0  0  0  0  0  0  0  0
  182.5650  178.3330  139.1730 C   0  0  1  0  0  3  0  0  0  0  0  0
  179.5370  178.4840  139.3930 C   0  0  0  0  0  2  0  0  0  0  0  0
  182.0670  181.8440  137.9550 C   0  0  0  0  0  2  0  0  0  0  0  0
  180.8940  176.3710  138.6450 C   0  0  1  0  0  3  0  0  0  0  0  0
  182.3490  176.8820  138.6820 C   0  0  1  0  0  3  0  0  0  0  0  0
  179.5700  181.4950  138.4390 C   0  0  2  0  0  3  0  0  0  0  0  0
  182.0170  180.8220  139.0810 C   0  0  2  0  0  3  0  0  0  0  0  0
  178.9310  182.5740  137.8250 O   0  0  0  0  0  1  0  0  0  0  0  0
  181.7400  179.4370  138.4660 C   0  0  2  0  0  3  0  0  0  0  0  0
  180.8540  174.8560  138.7750 C   0  0  0  0  0  1  0  0  0  0  0  0
  179.5830  176.4860  140.6310 O   0  0  0  0  0  0  0  0  0  0  0  0
  180.9490  181.9180  138.9750 C   0  0  1  0  0  3  0  0  0  0  0  0
  179.4910  180.2370  137.5710 C   0  0  2  0  0  3  0  0  0  0  0  0
  180.2630  179.0880  138.1930 C   0  0  2  0  0  3  0  0  0  0  0  0
  179.9380  180.4770  136.1350 C   0  0  0  0  0  1  0  0  0  0  0  0
  179.9630  177.0600  139.6220 C   0  0  0  0  0  0  0  0  0  0  0  0
  182.5110  178.4040  140.6960 C   0  0  0  0  0  1  0  0  0  0  0  0
  188.7600  178.5590  137.3450 C   0  0  0  0  0  0  0  0  0  0  0  0
  189.7850  177.6230  137.2670 O   0  0  0  0  0  0  0  0  0  0  0  0
  189.0420  179.7590  137.6070 O   0  0  0  0  0  1  0  0  0  0  0  0
  1  7  1  6  0  0  0
  2 12  2  0  0  0  0
  3 12  1  0  0  0  0
  4  7  1  0  0  0  0
  5  8  1  0  0  0  0
  5  4  1  0  0  0  0
  6  3  1  0  0  0  0
  8  6  1  0  0  0  0
  9  2  1  0  0  0  0
  9 10  1  0  0  0  0
 10 32  1  0  0  0  0
 10 11  2  0  0  0  0
 12 14  1  0  0  0  0
 13 11  1  0  0  0  0
 14  1  1  0  0  0  0
 14 13  2  0  0  0  0
 15 31  1  1  0  0  0
 16 30  1  0  0  0  0
 17 26  1  0  0  0  0
 18 19  1  0  0  0  0
 18 24  1  1  0  0  0
 18 30  1  0  0  0  0
 19  1  1  6  0  0  0
 19 15  1  0  0  0  0
 20 22  1  6  0  0  0
 20 26  1  0  0  0  0
 21 17  1  6  0  0  0
 23 21  1  0  0  0  0
 23 15  1  0  0  0  0
 26 21  1  0  0  0  0
 27 28  1  0  0  0  0
 27 20  1  0  0  0  0
 28 23  1  0  0  0  0
 28 16  1  0  0  0  0
 29 27  1  0  0  0  0
 30 25  2  0  0  0  0
 32 34  1  0  0  0  0
 33 32  2  0  0  0  0
M  END
>  <MODEL>
5

>  <REMARK>
 VINA RESULT:      -5.1      2.042      7.526
  Name = 
  2 active torsions:
  status: ('A' for Active; 'I' for Inactive)
    1  A    between atoms: C_1  and  C_9
    2  A    between atoms: C_3  and  C_25
                            x       y       z     vdW  Elec       q    Type
                         _______ _______ _______ _____ _____    ______ ____

>  <TORSDO>
F 2

$$$$
=
 OpenBabel11052416013D

 34 38  0  0  1  0  0  0  0  0999 V2000
  181.8980  176.9070  139.2400 C   0  0  1  0  0  3  0  0  0  0  0  0
  181.6910  179.0400  142.3190 C   0  0  0  0  0  3  0  0  0  0  0  0
  180.6940  179.5980  140.2020 C   0  0  0  0  0  2  0  0  0  0  0  0
  180.1860  176.3110  140.5110 O   0  0  0  0  0  0  0  0  0  0  0  0
  179.0730  176.7240  139.7640 C   0  0  0  0  0  2  0  0  0  0  0  0
  180.0070  178.8600  139.2260 O   0  0  0  0  0  0  0  0  0  0  0  0
  181.0680  175.8330  139.6430 O   0  0  0  0  0  0  0  0  0  0  0  0
  178.9310  178.2380  139.8710 C   0  0  0  0  0  2  0  0  0  0  0  0
  182.5290  178.2990  143.3050 C   0  0  0  0  0  2  0  0  0  0  0  0
  183.9820  178.4880  143.0120 C   0  0  0  0  0  0  0  0  0  0  0  0
  184.5160  178.0230  141.8790 C   0  0  0  0  0  3  0  0  0  0  0  0
  181.6590  178.7650  141.0130 C   0  0  0  0  0  0  0  0  0  0  0  0
  183.7570  177.4080  140.7730 C   0  0  0  0  0  3  0  0  0  0  0  0
  182.5020  177.6940  140.3840 C   0  0  0  0  0  0  0  0  0  0  0  0
  183.0430  174.9810  137.9980 C   0  0  1  0  0  3  0  0  0  0  0  0
  182.2940  175.3270  135.0720 C   0  0  0  0  0  2  0  0  0  0  0  0
  180.9460  171.9030  137.5660 C   0  0  0  0  0  2  0  0  0  0  0  0
  182.5070  177.2700  136.8170 C   0  0  1  0  0  3  0  0  0  0  0  0
  182.8630  176.5130  138.1130 C   0  0  1  0  0  3  0  0  0  0  0  0
  180.7190  172.5890  135.1020 C   0  0  2  0  0  3  0  0  0  0  0  0
  182.2100  172.6890  137.2510 C   0  0  2  0  0  3  0  0  0  0  0  0
  179.7070  171.7730  134.5940 O   0  0  0  0  0  1  0  0  0  0  0  0
  181.8820  174.1920  137.3440 C   0  0  2  0  0  3  0  0  0  0  0  0
  182.9690  178.7170  136.8960 C   0  0  0  0  0  1  0  0  0  0  0  0
  183.9190  177.0190  134.9140 O   0  0  0  0  0  0  0  0  0  0  0  0
  181.5330  171.8370  136.1710 C   0  0  1  0  0  3  0  0  0  0  0  0
  180.1870  173.9810  135.4510 C   0  0  2  0  0  3  0  0  0  0  0  0
  181.2640  174.8390  136.0890 C   0  0  2  0  0  3  0  0  0  0  0  0
  178.9390  173.9380  136.3230 C   0  0  0  0  0  1  0  0  0  0  0  0
  182.9670  176.5860  135.5460 C   0  0  0  0  0  0  0  0  0  0  0  0
  184.4170  174.6370  137.4320 C   0  0  0  0  0  1  0  0  0  0  0  0
  184.8420  179.1150  144.0300 C   0  0  0  0  0  0  0  0  0  0  0  0
  184.8670  180.4990  144.1650 O   0  0  0  0  0  0  0  0  0  0  0  0
  185.5650  178.4100  144.7840 O   0  0  0  0  0  1  0  0  0  0  0  0
  1  7  1  1  0  0  0
  1 14  1  0  0  0  0
  2  9  1  0  0  0  0
  3 12  1  0  0  0  0
  5  8  1  0  0  0  0
  5  4  1  0  0  0  0
  6  8  1  0  0  0  0
  6  3  1  0  0  0  0
  7  4  1  0  0  0  0
 10  9  1  0  0  0  0
 10 32  1  0  0  0  0
 11 10  2  0  0  0  0
 12  2  2  0  0  0  0
 13 11  1  0  0  0  0
 14 13  2  0  0  0  0
 14 12  1  0  0  0  0
 15 31  1  6  0  0  0
 15 19  1  0  0  0  0
 16 30  1  0  0  0  0
 16 28  1  0  0  0  0
 18 24  1  1  0  0  0
 18 19  1  0  0  0  0
 19  1  1  1  0  0  0
 20 22  1  1  0  0  0
 20 27  1  0  0  0  0
 20 26  1  0  0  0  0
 21 23  1  0  0  0  0
 21 17  1  1  0  0  0
 23 15  1  0  0  0  0
 25 30  2  0  0  0  0
 26 21  1  0  0  0  0
 26 17  1  0  0  0  0
 27 28  1  0  0  0  0
 27 29  1  0  0  0  0
 28 23  1  0  0  0  0
 30 18  1  0  0  0  0
 32 33  2  0  0  0  0
 32 34  1  0  0  0  0
M  END
>  <MODEL>
6

>  <REMARK>
 VINA RESULT:      -4.9      3.566      6.670
  Name = 
  2 active torsions:
  status: ('A' for Active; 'I' for Inactive)
    1  A    between atoms: C_1  and  C_9
    2  A    between atoms: C_3  and  C_25
                            x       y       z     vdW  Elec       q    Type
                         _______ _______ _______ _____ _____    ______ ____

>  <TORSDO>
F 2

$$$$
=
 OpenBabel11052416013D

 34 38  0  0  1  0  0  0  0  0999 V2000
  187.6870  175.3970  136.8420 C   0  0  1  0  0  3  0  0  0  0  0  0
  191.1720  176.7350  136.4660 C   0  0  0  0  0  3  0  0  0  0  0  0
  189.3840  177.1250  134.9040 C   0  0  0  0  0  2  0  0  0  0  0  0
  187.9210  177.3280  137.9000 O   0  0  0  0  0  0  0  0  0  0  0  0
  187.1560  178.2130  137.1260 C   0  0  0  0  0  2  0  0  0  0  0  0
  188.0160  177.4090  135.0430 O   0  0  0  0  0  0  0  0  0  0  0  0
  187.2520  176.1820  137.9370 O   0  0  0  0  0  0  0  0  0  0  0  0
  187.9180  178.5500  135.8490 C   0  0  0  0  0  2  0  0  0  0  0  0
  191.8920  176.1440  137.6290 C   0  0  0  0  0  2  0  0  0  0  0  0
  192.1910  174.7000  137.3890 C   0  0  0  0  0  0  0  0  0  0  0  0
  191.2030  173.8090  137.2700 C   0  0  0  0  0  3  0  0  0  0  0  0
  189.9550  176.3520  136.0700 C   0  0  0  0  0  0  0  0  0  0  0  0
  189.7640  174.1370  137.2350 C   0  0  0  0  0  3  0  0  0  0  0  0
  189.1900  175.2470  136.7380 C   0  0  0  0  0  0  0  0  0  0  0  0
  185.5900  174.1080  137.5510 C   0  0  1  0  0  3  0  0  0  0  0  0
  184.1020  173.4760  134.9760 C   0  0  0  0  0  2  0  0  0  0  0  0
  182.5410  176.2200  138.1050 C   0  0  0  0  0  2  0  0  0  0  0  0
  186.6970  173.7650  135.1890 C   0  0  1  0  0  3  0  0  0  0  0  0
  186.8700  174.1070  136.6830 C   0  0  1  0  0  3  0  0  0  0  0  0
  181.6680  175.2720  135.8850 C   0  0  2  0  0  3  0  0  0  0  0  0
  183.1860  174.8480  137.9750 C   0  0  2  0  0  3  0  0  0  0  0  0
  180.5700  176.0710  135.5600 O   0  0  0  0  0  1  0  0  0  0  0  0
  184.4090  174.9740  137.0450 C   0  0  2  0  0  3  0  0  0  0  0  0
  187.9840  173.1870  134.6180 C   0  0  0  0  0  1  0  0  0  0  0  0
  185.6230  171.7240  134.5940 O   0  0  0  0  0  0  0  0  0  0  0  0
  181.7840  175.1070  137.4110 C   0  0  1  0  0  3  0  0  0  0  0  0
  182.9160  175.7050  135.1120 C   0  0  2  0  0  3  0  0  0  0  0  0
  184.1320  174.8980  135.5310 C   0  0  2  0  0  3  0  0  0  0  0  0
  183.1930  177.1990  135.2190 C   0  0  0  0  0  1  0  0  0  0  0  0
  185.4900  172.9040  134.8800 C   0  0  0  0  0  0  0  0  0  0  0  0
  185.1920  172.6870  137.9330 C   0  0  0  0  0  1  0  0  0  0  0  0
  193.5940  174.2510  137.3760 C   0  0  0  0  0  0  0  0  0  0  0  0
  194.6080  175.1270  137.7470 O   0  0  0  0  0  1  0  0  0  0  0  0
  193.8910  173.0780  137.0280 O   0  0  0  0  0  0  0  0  0  0  0  0
  1 14  1  1  0  0  0
  1  7  1  0  0  0  0
  2  9  1  0  0  0  0
  3  6  1  0  0  0  0
  3 12  1  0  0  0  0
  4  7  1  0  0  0  0
  5  4  1  0  0  0  0
  6  8  1  0  0  0  0
  8  5  1  0  0  0  0
 10  9  1  0  0  0  0
 11 10  2  0  0  0  0
 12  2  2  0  0  0  0
 12 14  1  0  0  0  0
 13 11  1  0  0  0  0
 14 13  2  0  0  0  0
 15 31  1  6  0  0  0
 16 28  1  0  0  0  0
 18 24  1  1  0  0  0
 18 19  1  0  0  0  0
 19  1  1  6  0  0  0
 19 15  1  0  0  0  0
 20 22  1  1  0  0  0
 20 26  1  0  0  0  0
 21 17  1  1  0  0  0
 23 15  1  0  0  0  0
 23 21  1  0  0  0  0
 25 30  2  0  0  0  0
 26 21  1  0  0  0  0
 26 17  1  0  0  0  0
 27 29  1  0  0  0  0
 27 28  1  0  0  0  0
 27 20  1  0  0  0  0
 28 23  1  0  0  0  0
 30 16  1  0  0  0  0
 30 18  1  0  0  0  0
 32 10  1  0  0  0  0
 32 33  1  0  0  0  0
 34 32  2  0  0  0  0
M  END
>  <MODEL>
7

>  <REMARK>
 VINA RESULT:      -4.8      3.476      8.598
  Name = 
  2 active torsions:
  status: ('A' for Active; 'I' for Inactive)
    1  A    between atoms: C_1  and  C_9
    2  A    between atoms: C_3  and  C_25
                            x       y       z     vdW  Elec       q    Type
                         _______ _______ _______ _____ _____    ______ ____

>  <TORSDO>
F 2

$$$$
=
 OpenBabel11052416013D

 34 38  0  0  1  0  0  0  0  0999 V2000
  184.4950  176.0360  136.9520 C   0  0  1  0  0  3  0  0  0  0  0  0
  187.6220  174.5820  135.4730 C   0  0  0  0  0  3  0  0  0  0  0  0
  186.4560  176.4940  134.5940 C   0  0  0  0  0  2  0  0  0  0  0  0
  186.3020  176.8870  137.9070 O   0  0  0  0  0  0  0  0  0  0  0  0
  186.3170  178.2110  137.4420 C   0  0  0  0  0  2  0  0  0  0  0  0
  185.8300  177.6060  135.1790 O   0  0  0  0  0  0  0  0  0  0  0  0
  185.0330  176.5830  138.1430 O   0  0  0  0  0  0  0  0  0  0  0  0
  186.7860  178.2280  135.9920 C   0  0  0  0  0  2  0  0  0  0  0  0
  187.8790  173.3870  136.3250 C   0  0  0  0  0  2  0  0  0  0  0  0
  186.9420  172.2760  135.9750 C   0  0  0  0  0  0  0  0  0  0  0  0
  185.6270  172.4050  136.1730 C   0  0  0  0  0  3  0  0  0  0  0  0
  186.4840  175.2810  135.4930 C   0  0  0  0  0  0  0  0  0  0  0  0
  184.9530  173.6410  136.6190 C   0  0  0  0  0  3  0  0  0  0  0  0
  185.3140  174.9100  136.3570 C   0  0  0  0  0  0  0  0  0  0  0  0
  182.4450  175.9800  138.4860 C   0  0  1  0  0  3  0  0  0  0  0  0
  180.4390  177.9000  137.2500 C   0  0  0  0  0  2  0  0  0  0  0  0
  182.4040  178.5930  141.1760 C   0  0  0  0  0  2  0  0  0  0  0  0
  182.2460  176.5430  135.9240 C   0  0  1  0  0  3  0  0  0  0  0  0
  182.9840  175.7890  137.0490 C   0  0  1  0  0  3  0  0  0  0  0  0
  180.6070  179.7820  139.7800 C   0  0  2  0  0  3  0  0  0  0  0  0
  181.6990  177.4870  140.4050 C   0  0  2  0  0  3  0  0  0  0  0  0
  180.4910  181.0510  140.3510 O   0  0  0  0  0  1  0  0  0  0  0  0
  182.2860  177.4400  138.9800 C   0  0  2  0  0  3  0  0  0  0  0  0
  182.4200  175.8260  134.5940 C   0  0  0  0  0  1  0  0  0  0  0  0
  179.8960  176.2340  135.6810 O   0  0  0  0  0  0  0  0  0  0  0  0
  180.9300  178.7330  140.8590 C   0  0  1  0  0  3  0  0  0  0  0  0
  181.4830  179.8160  138.5260 C   0  0  2  0  0  3  0  0  0  0  0  0
  181.6860  178.4240  137.9570 C   0  0  2  0  0  3  0  0  0  0  0  0
  182.8200  180.5100  138.7540 C   0  0  0  0  0  1  0  0  0  0  0  0
  180.7950  176.8560  136.2270 C   0  0  0  0  0  0  0  0  0  0  0  0
  181.2140  175.1120  138.7250 C   0  0  0  0  0  1  0  0  0  0  0  0
  187.4930  170.9980  135.4940 C   0  0  0  0  0  0  0  0  0  0  0  0
  188.8490  170.8900  135.2040 O   0  0  0  0  0  0  0  0  0  0  0  0
  186.7480  169.9950  135.3370 O   0  0  0  0  0  1  0  0  0  0  0  0
  1 14  1  1  0  0  0
  1  7  1  0  0  0  0
  2 12  2  0  0  0  0
  2  9  1  0  0  0  0
  3  6  1  0  0  0  0
  3 12  1  0  0  0  0
  4  7  1  0  0  0  0
  5  4  1  0  0  0  0
  6  8  1  0  0  0  0
  8  5  1  0  0  0  0
 10 11  2  0  0  0  0
 10  9  1  0  0  0  0
 11 13  1  0  0  0  0
 12 14  1  0  0  0  0
 14 13  2  0  0  0  0
 15 31  1  6  0  0  0
 15 23  1  0  0  0  0
 16 28  1  0  0  0  0
 18 24  1  6  0  0  0
 18 30  1  0  0  0  0
 18 19  1  0  0  0  0
 19  1  1  1  0  0  0
 19 15  1  0  0  0  0
 20 22  1  1  0  0  0
 20 26  1  0  0  0  0
 21 26  1  0  0  0  0
 21 17  1  1  0  0  0
 23 21  1  0  0  0  0
 25 30  2  0  0  0  0
 26 17  1  0  0  0  0
 27 29  1  0  0  0  0
 27 20  1  0  0  0  0
 28 27  1  0  0  0  0
 28 23  1  0  0  0  0
 30 16  1  0  0  0  0
 32 10  1  0  0  0  0
 33 32  2  0  0  0  0
 34 32  1  0  0  0  0
M  END
>  <MODEL>
8

>  <REMARK>
 VINA RESULT:      -4.6      2.506      7.960
  Name = 
  2 active torsions:
  status: ('A' for Active; 'I' for Inactive)
    1  A    between atoms: C_1  and  C_9
    2  A    between atoms: C_3  and  C_25
                            x       y       z     vdW  Elec       q    Type
                         _______ _______ _______ _____ _____    ______ ____

>  <TORSDO>
F 2

$$$$
=
 OpenBabel11052416013D

 34 38  0  0  1  0  0  0  0  0999 V2000
  182.8420  177.3240  138.0620 C   0  0  1  0  0  3  0  0  0  0  0  0
  185.8210  178.8550  139.7540 C   0  0  0  0  0  3  0  0  0  0  0  0
  183.6270  179.8400  139.6970 C   0  0  0  0  0  2  0  0  0  0  0  0
  183.0540  176.5780  140.1360 O   0  0  0  0  0  0  0  0  0  0  0  0
  181.9720  177.1710  140.8020 C   0  0  0  0  0  2  0  0  0  0  0  0
  182.3260  179.3270  139.8270 O   0  0  0  0  0  0  0  0  0  0  0  0
  182.6140  176.2310  138.9330 O   0  0  0  0  0  0  0  0  0  0  0  0
  182.2800  178.6440  141.0490 C   0  0  0  0  0  2  0  0  0  0  0  0
  186.9240  177.9080  139.4260 C   0  0  0  0  0  2  0  0  0  0  0  0
  187.3700  178.0840  138.0100 C   0  0  0  0  0  0  0  0  0  0  0  0
  186.5420  177.8140  136.9960 C   0  0  0  0  0  3  0  0  0  0  0  0
  184.6190  178.8290  139.1720 C   0  0  0  0  0  0  0  0  0  0  0  0
  185.1190  177.4490  137.1350 C   0  0  0  0  0  3  0  0  0  0  0  0
  184.2590  177.8580  138.0860 C   0  0  0  0  0  0  0  0  0  0  0  0
  182.5140  175.6880  136.1190 C   0  0  1  0  0  3  0  0  0  0  0  0
  179.5080  175.4740  135.7210 C   0  0  0  0  0  2  0  0  0  0  0  0
  182.0480  172.1060  137.1210 C   0  0  0  0  0  2  0  0  0  0  0  0
  180.7620  177.5760  136.6540 C   0  0  1  0  0  3  0  0  0  0  0  0
  182.2300  177.1050  136.6720 C   0  0  1  0  0  3  0  0  0  0  0  0
  179.5730  172.4180  136.5160 C   0  0  2  0  0  3  0  0  0  0  0  0
  182.0310  173.1850  136.0490 C   0  0  2  0  0  3  0  0  0  0  0  0
  178.9310  171.2920  137.0350 O   0  0  0  0  0  1  0  0  0  0  0  0
  181.6820  174.5280  136.7190 C   0  0  2  0  0  3  0  0  0  0  0  0
  180.6870  179.0950  136.6020 C   0  0  0  0  0  1  0  0  0  0  0  0
  179.5660  177.5360  134.5940 O   0  0  0  0  0  0  0  0  0  0  0  0
  180.9910  172.0590  136.0380 C   0  0  1  0  0  3  0  0  0  0  0  0
  179.4110  173.6250  137.4430 C   0  0  2  0  0  3  0  0  0  0  0  0
  180.1840  174.8240  136.9260 C   0  0  2  0  0  3  0  0  0  0  0  0
  179.7840  173.3190  138.8880 C   0  0  0  0  0  1  0  0  0  0  0  0
  179.9060  176.9190  135.5910 C   0  0  0  0  0  0  0  0  0  0  0  0
  182.5460  175.6980  134.5940 C   0  0  0  0  0  1  0  0  0  0  0  0
  188.7640  178.4720  137.7410 C   0  0  0  0  0  0  0  0  0  0  0  0
  189.7490  177.4970  137.6290 O   0  0  0  0  0  1  0  0  0  0  0  0
  189.0820  179.6850  137.6140 O   0  0  0  0  0  0  0  0  0  0  0  0
  1 14  1  6  0  0  0
  1  7  1  0  0  0  0
  3  6  1  0  0  0  0
  4  5  1  0  0  0  0
  5  8  1  0  0  0  0
  6  8  1  0  0  0  0
  7  4  1  0  0  0  0
  9  2  1  0  0  0  0
 10  9  1  0  0  0  0
 11 13  1  0  0  0  0
 11 10  2  0  0  0  0
 12  3  1  0  0  0  0
 12  2  2  0  0  0  0
 13 14  2  0  0  0  0
 14 12  1  0  0  0  0
 15 31  1  6  0  0  0
 15 19  1  0  0  0  0
 15 23  1  0  0  0  0
 16 28  1  0  0  0  0
 18 24  1  6  0  0  0
 18 19  1  0  0  0  0
 19  1  1  1  0  0  0
 20 22  1  1  0  0  0
 20 27  1  0  0  0  0
 21 23  1  0  0  0  0
 21 17  1  1  0  0  0
 23 28  1  0  0  0  0
 25 30  2  0  0  0  0
 26 21  1  0  0  0  0
 26 20  1  0  0  0  0
 26 17  1  0  0  0  0
 27 29  1  0  0  0  0
 28 27  1  0  0  0  0
 30 16  1  0  0  0  0
 30 18  1  0  0  0  0
 32 10  1  0  0  0  0
 33 32  1  0  0  0  0
 34 32  2  0  0  0  0
M  END
>  <MODEL>
9

>  <REMARK>
 VINA RESULT:      -4.6      2.849      6.837
  Name = 
  2 active torsions:
  status: ('A' for Active; 'I' for Inactive)
    1  A    between atoms: C_1  and  C_9
    2  A    between atoms: C_3  and  C_25
                            x       y       z     vdW  Elec       q    Type
                         _______ _______ _______ _____ _____    ______ ____

>  <TORSDO>
F 2

$$$$
