=
 OpenBabel11052416533D

 32 36  0  0  1  0  0  0  0  0999 V2000
  191.0150  175.8460  135.6460 C   0  0  1  0  0  3  0  0  0  0  0  0
  189.4450  177.1450  140.3660 C   0  0  0  0  0  0  0  0  0  0  0  0
  185.1590  179.2010  139.7640 C   0  0  0  0  0  3  0  0  0  0  0  0
  185.0190  179.3120  141.1110 N   0  0  0  0  0  0  0  0  0  0  0  0
  190.7810  176.4460  138.4670 C   0  0  0  0  0  0  0  0  0  0  0  0
  188.6110  177.4790  138.1080 C   0  0  0  0  0  3  0  0  0  0  0  0
  189.9380  176.8400  136.0970 C   0  0  0  0  0  2  0  0  0  0  0  0
  186.2790  178.6440  139.2360 N   0  0  0  0  0  0  0  0  0  0  0  0
  188.4370  177.6080  139.4910 C   0  0  0  0  0  0  0  0  0  0  0  0
  187.2810  178.1870  140.0370 C   0  0  0  0  0  0  0  0  0  0  0  0
  188.1830  177.8270  142.2680 C   0  0  0  0  0  0  0  0  0  0  0  0
  192.2790  176.0260  136.4840 C   0  0  0  0  0  2  0  0  0  0  0  0
  189.7680  176.8890  137.5890 C   0  0  0  0  0  0  0  0  0  0  0  0
  192.0080  175.7420  137.9620 C   0  0  0  0  0  2  0  0  0  0  0  0
  185.9900  178.8720  141.9520 C   0  0  0  0  0  3  0  0  0  0  0  0
  187.1530  178.2930  141.4370 C   0  0  0  0  0  0  0  0  0  0  0  0
  188.0490  177.9130  143.6950 N   0  0  0  0  0  2  0  0  0  0  0  0
  190.6040  176.5630  139.8480 C   0  0  0  0  0  3  0  0  0  0  0  0
  189.2890  177.2620  141.7110 N   0  0  0  0  0  0  0  0  0  0  0  0
  190.5050  177.7130  144.3050 C   0  0  1  0  0  3  0  0  0  0  0  0
  188.8130  177.4090  145.9860 C   0  0  0  0  0  0  0  0  0  0  0  0
  189.8730  177.1710  146.7290 C   0  0  0  0  0  3  0  0  0  0  0  0
  191.4110  177.1950  145.8110 S   0  0  0  0  0  0  0  0  0  0  0  0
  187.1920  177.4240  146.6540 Cl  0  0  0  0  0  0  0  0  0  0  0  0
  189.0820  177.6590  144.6160 N   0  0  0  0  0  0  0  0  0  0  0  0
  190.9170  179.1270  143.9130 C   0  0  0  0  0  2  0  0  0  0  0  0
  192.1840  179.4220  144.3880 F   0  0  0  0  0  0  0  0  0  0  0  0
  189.3010  174.1830  135.4670 C   0  0  0  0  0  3  0  0  0  0  0  0
  190.5310  174.4750  135.7380 N   0  0  0  0  0  0  0  0  0  0  0  0
  188.8150  172.8060  135.5620 C   0  0  0  0  0  0  0  0  0  0  0  0
  189.1520  171.9450  134.7070 O   0  0  0  0  0  0  0  0  0  0  0  0
  187.9170  172.4210  136.6810 C   0  0  0  0  0  1  0  0  0  0  0  0
  1 29  1  1  0  0  0
  1  7  1  0  0  0  0
  1 12  1  0  0  0  0
  2 19  1  0  0  0  0
  3  4  1  0  0  0  0
  4 15  2  0  0  0  0
  5 18  2  0  0  0  0
  6  9  1  0  0  0  0
  7 13  1  0  0  0  0
  8  3  2  0  0  0  0
  8 10  1  0  0  0  0
  9 10  1  0  0  0  0
  9  2  2  0  0  0  0
 10 16  2  0  0  0  0
 11 17  1  0  0  0  0
 12 14  1  0  0  0  0
 13  6  2  0  0  0  0
 13  5  1  0  0  0  0
 14  5  1  0  0  0  0
 16 15  1  0  0  0  0
 16 11  1  0  0  0  0
 17 25  1  0  0  0  0
 18  2  1  0  0  0  0
 19 11  2  0  0  0  0
 20 26  1  1  0  0  0
 20 25  1  0  0  0  0
 20 23  1  0  0  0  0
 21 24  1  0  0  0  0
 21 22  2  0  0  0  0
 23 22  1  0  0  0  0
 25 21  1  0  0  0  0
 26 27  1  0  0  0  0
 28 30  1  0  0  0  0
 28 29  2  0  0  0  0
 30 32  1  0  0  0  0
 31 30  2  0  0  0  0
M  END
>  <MODEL>
1

>  <REMARK>
 VINA RESULT:      -8.5      0.000      0.000
  Name = 
  4 active torsions:
  status: ('A' for Active; 'I' for Inactive)
    1  A    between atoms: C_1  and  C_10
    2  A    between atoms: C_2  and  N_24
    3  A    between atoms: C_6  and  C_7
    4  A    between atoms: N_27  and  N_32
                            x       y       z     vdW  Elec       q    Type
                         _______ _______ _______ _____ _____    ______ ____

>  <TORSDO>
F 4

$$$$
=
 OpenBabel11052416533D

 32 36  0  0  1  0  0  0  0  0999 V2000
  180.3230  178.9560  141.6800 C   0  0  1  0  0  3  0  0  0  0  0  0
  185.2900  178.2090  142.7740 C   0  0  0  0  0  0  0  0  0  0  0  0
  185.6250  178.6260  147.5360 C   0  0  0  0  0  3  0  0  0  0  0  0
  186.9410  178.2960  147.4760 N   0  0  0  0  0  0  0  0  0  0  0  0
  183.1960  178.6110  141.6200 C   0  0  0  0  0  0  0  0  0  0  0  0
  183.3110  178.8310  144.0380 C   0  0  0  0  0  3  0  0  0  0  0  0
  181.1300  179.3150  142.9320 C   0  0  0  0  0  2  0  0  0  0  0  0
  184.8830  178.6910  146.3990 N   0  0  0  0  0  0  0  0  0  0  0  0
  184.6700  178.4940  144.0100 C   0  0  0  0  0  0  0  0  0  0  0  0
  185.4360  178.4290  145.1830 C   0  0  0  0  0  0  0  0  0  0  0  0
  187.3790  177.8170  143.8510 C   0  0  0  0  0  0  0  0  0  0  0  0
  181.1020  179.3450  140.4240 C   0  0  0  0  0  2  0  0  0  0  0  0
  182.5660  178.8780  142.8560 C   0  0  0  0  0  0  0  0  0  0  0  0
  182.4230  178.5800  140.3330 C   0  0  0  0  0  2  0  0  0  0  0  0
  187.5390  178.0260  146.2870 C   0  0  0  0  0  3  0  0  0  0  0  0
  186.8010  178.0850  145.1020 C   0  0  0  0  0  0  0  0  0  0  0  0
  188.7620  177.4440  143.7640 N   0  0  0  0  0  2  0  0  0  0  0  0
  184.5490  178.2630  141.5920 C   0  0  0  0  0  3  0  0  0  0  0  0
  186.6080  177.8780  142.7310 N   0  0  0  0  0  0  0  0  0  0  0  0
  188.9060  177.3350  141.2320 C   0  0  1  0  0  3  0  0  0  0  0  0
  190.9110  177.3200  142.5590 C   0  0  0  0  0  0  0  0  0  0  0  0
  191.4630  177.2030  141.3700 C   0  0  0  0  0  3  0  0  0  0  0  0
  190.2710  177.0670  140.0390 S   0  0  0  0  0  0  0  0  0  0  0  0
  191.8710  177.4520  144.0210 Cl  0  0  0  0  0  0  0  0  0  0  0  0
  189.4930  177.3410  142.5660 N   0  0  0  0  0  0  0  0  0  0  0  0
  188.2180  178.6640  140.9420 C   0  0  0  0  0  2  0  0  0  0  0  0
  187.4540  178.5830  139.7910 F   0  0  0  0  0  0  0  0  0  0  0  0
  179.4160  177.0010  140.6340 C   0  0  0  0  0  3  0  0  0  0  0  0
  179.9960  177.5360  141.6580 N   0  0  0  0  0  0  0  0  0  0  0  0
  179.0850  175.5760  140.6140 C   0  0  0  0  0  0  0  0  0  0  0  0
  178.9310  174.9370  141.6890 O   0  0  0  0  0  0  0  0  0  0  0  0
  178.9310  174.8770  139.3130 C   0  0  0  0  0  1  0  0  0  0  0  0
  1 29  1  6  0  0  0
  1  7  1  0  0  0  0
  2  9  1  0  0  0  0
  4  3  1  0  0  0  0
  5 13  2  0  0  0  0
  8  3  2  0  0  0  0
  9  6  2  0  0  0  0
  9 10  1  0  0  0  0
 10  8  1  0  0  0  0
 11 16  1  0  0  0  0
 12  1  1  0  0  0  0
 13  7  1  0  0  0  0
 13  6  1  0  0  0  0
 14 12  1  0  0  0  0
 14  5  1  0  0  0  0
 15  4  2  0  0  0  0
 16 10  2  0  0  0  0
 16 15  1  0  0  0  0
 17 11  1  0  0  0  0
 18  5  1  0  0  0  0
 18  2  2  0  0  0  0
 19  2  1  0  0  0  0
 19 11  2  0  0  0  0
 20 26  1  6  0  0  0
 20 25  1  0  0  0  0
 21 25  1  0  0  0  0
 21 24  1  0  0  0  0
 22 21  2  0  0  0  0
 23 20  1  0  0  0  0
 23 22  1  0  0  0  0
 25 17  1  0  0  0  0
 27 26  1  0  0  0  0
 28 29  2  0  0  0  0
 30 28  1  0  0  0  0
 30 31  2  0  0  0  0
 32 30  1  0  0  0  0
M  END
>  <MODEL>
2

>  <REMARK>
 VINA RESULT:      -8.4      4.548      7.842
  Name = 
  4 active torsions:
  status: ('A' for Active; 'I' for Inactive)
    1  A    between atoms: C_1  and  C_10
    2  A    between atoms: C_2  and  N_24
    3  A    between atoms: C_6  and  C_7
    4  A    between atoms: N_27  and  N_32
                            x       y       z     vdW  Elec       q    Type
                         _______ _______ _______ _____ _____    ______ ____

>  <TORSDO>
F 4

$$$$
=
 OpenBabel11052416533D

 32 36  0  0  1  0  0  0  0  0999 V2000
  187.7550  177.8800  136.5530 C   0  0  1  0  0  3  0  0  0  0  0  0
  187.8660  177.7900  141.6910 C   0  0  0  0  0  0  0  0  0  0  0  0
  183.4700  179.0940  143.0850 C   0  0  0  0  0  3  0  0  0  0  0  0
  183.8140  178.8770  144.3820 N   0  0  0  0  0  0  0  0  0  0  0  0
  188.4930  177.7880  139.3490 C   0  0  0  0  0  0  0  0  0  0  0  0
  186.2480  178.4530  140.0030 C   0  0  0  0  0  3  0  0  0  0  0  0
  186.8200  178.5310  137.5780 C   0  0  0  0  0  2  0  0  0  0  0  0
  184.3750  178.8850  142.0940 N   0  0  0  0  0  0  0  0  0  0  0  0
  186.5710  178.2380  141.3490 C   0  0  0  0  0  0  0  0  0  0  0  0
  185.6370  178.4570  142.3730 C   0  0  0  0  0  0  0  0  0  0  0  0
  187.3110  177.7880  144.0080 C   0  0  0  0  0  0  0  0  0  0  0  0
  189.2120  178.1020  136.9540 C   0  0  0  0  0  2  0  0  0  0  0  0
  187.1930  178.2170  139.0000 C   0  0  0  0  0  0  0  0  0  0  0  0
  189.5190  177.4540  138.3050 C   0  0  0  0  0  2  0  0  0  0  0  0
  185.0600  178.4500  144.7120 C   0  0  0  0  0  3  0  0  0  0  0  0
  186.0110  178.2260  143.7130 C   0  0  0  0  0  0  0  0  0  0  0  0
  187.6900  177.5300  145.3690 N   0  0  0  0  0  2  0  0  0  0  0  0
  188.8130  177.5620  140.6910 C   0  0  0  0  0  3  0  0  0  0  0  0
  188.1930  177.5750  142.9930 N   0  0  0  0  0  0  0  0  0  0  0  0
  190.1850  177.3210  144.9480 C   0  0  1  0  0  3  0  0  0  0  0  0
  189.3050  177.0350  147.1680 C   0  0  0  0  0  0  0  0  0  0  0  0
  190.5720  176.7950  147.4270 C   0  0  0  0  0  3  0  0  0  0  0  0
  191.6160  176.8060  145.9710 S   0  0  0  0  0  0  0  0  0  0  0  0
  188.0850  177.0610  148.4270 Cl  0  0  0  0  0  0  0  0  0  0  0  0
  189.0050  177.2760  145.8030 N   0  0  0  0  0  0  0  0  0  0  0  0
  190.4100  178.7310  144.4150 C   0  0  0  0  0  2  0  0  0  0  0  0
  191.6000  178.8090  143.7110 F   0  0  0  0  0  0  0  0  0  0  0  0
  186.2630  176.0290  136.2580 C   0  0  0  0  0  3  0  0  0  0  0  0
  187.4730  176.4560  136.4200 N   0  0  0  0  0  0  0  0  0  0  0  0
  185.9800  174.5990  136.1270 C   0  0  0  0  0  0  0  0  0  0  0  0
  185.3180  174.1620  135.1490 O   0  0  0  0  0  0  0  0  0  0  0  0
  186.4800  173.6550  137.1590 C   0  0  0  0  0  1  0  0  0  0  0  0
  1 29  1  1  0  0  0
  1 12  1  0  0  0  0
  1  7  1  0  0  0  0
  2 19  1  0  0  0  0
  3  4  1  0  0  0  0
  4 15  2  0  0  0  0
  5 18  1  0  0  0  0
  6  9  2  0  0  0  0
  7 13  1  0  0  0  0
  8 10  1  0  0  0  0
  8  3  2  0  0  0  0
  9  2  1  0  0  0  0
  9 10  1  0  0  0  0
 10 16  2  0  0  0  0
 11 17  1  0  0  0  0
 12 14  1  0  0  0  0
 13  5  2  0  0  0  0
 13  6  1  0  0  0  0
 14  5  1  0  0  0  0
 16 11  1  0  0  0  0
 16 15  1  0  0  0  0
 17 25  1  0  0  0  0
 18  2  2  0  0  0  0
 19 11  2  0  0  0  0
 20 26  1  1  0  0  0
 20 25  1  0  0  0  0
 20 23  1  0  0  0  0
 21 22  2  0  0  0  0
 21 24  1  0  0  0  0
 23 22  1  0  0  0  0
 25 21  1  0  0  0  0
 27 26  1  0  0  0  0
 28 29  2  0  0  0  0
 30 28  1  0  0  0  0
 30 32  1  0  0  0  0
 31 30  2  0  0  0  0
M  END
>  <MODEL>
3

>  <REMARK>
 VINA RESULT:      -8.1      2.043      2.759
  Name = 
  4 active torsions:
  status: ('A' for Active; 'I' for Inactive)
    1  A    between atoms: C_1  and  C_10
    2  A    between atoms: C_2  and  N_24
    3  A    between atoms: C_6  and  C_7
    4  A    between atoms: N_27  and  N_32
                            x       y       z     vdW  Elec       q    Type
                         _______ _______ _______ _____ _____    ______ ____

>  <TORSDO>
F 4

$$$$
=
 OpenBabel11052416533D

 32 36  0  0  1  0  0  0  0  0999 V2000
  181.1650  179.5290  138.5130 C   0  0  1  0  0  3  0  0  0  0  0  0
  185.7770  178.5930  140.5810 C   0  0  0  0  0  0  0  0  0  0  0  0
  188.7450  178.0010  136.8650 C   0  0  0  0  0  3  0  0  0  0  0  0
  189.7950  177.8850  137.7190 N   0  0  0  0  0  0  0  0  0  0  0  0
  183.3970  178.9180  140.2500 C   0  0  0  0  0  0  0  0  0  0  0  0
  184.8600  178.6280  138.3310 C   0  0  0  0  0  3  0  0  0  0  0  0
  182.4210  178.9030  137.8980 C   0  0  0  0  0  2  0  0  0  0  0  0
  187.4910  178.2030  137.3480 N   0  0  0  0  0  0  0  0  0  0  0  0
  185.9640  178.5030  139.1840 C   0  0  0  0  0  0  0  0  0  0  0  0
  187.2590  178.2920  138.6860 C   0  0  0  0  0  0  0  0  0  0  0  0
  188.1040  178.2610  140.9680 C   0  0  0  0  0  0  0  0  0  0  0  0
  180.9020  178.9310  139.8940 C   0  0  0  0  0  2  0  0  0  0  0  0
  183.5820  178.8490  138.8510 C   0  0  0  0  0  0  0  0  0  0  0  0
  182.0560  179.2240  140.8530 C   0  0  0  0  0  2  0  0  0  0  0  0
  189.6160  177.9660  139.0620 C   0  0  0  0  0  3  0  0  0  0  0  0
  188.3370  178.1740  139.5870 C   0  0  0  0  0  0  0  0  0  0  0  0
  189.2020  178.1640  141.8880 N   0  0  0  0  0  2  0  0  0  0  0  0
  184.4990  178.8050  141.1020 C   0  0  0  0  0  3  0  0  0  0  0  0
  186.8390  178.4760  141.4210 N   0  0  0  0  0  0  0  0  0  0  0  0
  187.9140  177.4780  143.9660 C   0  0  1  0  0  3  0  0  0  0  0  0
  190.1270  178.3990  144.1640 C   0  0  0  0  0  0  0  0  0  0  0  0
  189.8600  178.2530  145.4440 C   0  0  0  0  0  3  0  0  0  0  0  0
  188.2000  177.6620  145.7670 S   0  0  0  0  0  0  0  0  0  0  0  0
  191.6810  178.9810  143.5970 Cl  0  0  0  0  0  0  0  0  0  0  0  0
  189.0710  178.0450  143.2850 N   0  0  0  0  0  0  0  0  0  0  0  0
  187.7530  176.0030  143.6150 C   0  0  0  0  0  2  0  0  0  0  0  0
  188.9610  175.4550  143.2190 F   0  0  0  0  0  0  0  0  0  0  0  0
  181.0480  181.7310  137.5780 C   0  0  0  0  0  3  0  0  0  0  0  0
  181.2920  180.9780  138.6010 N   0  0  0  0  0  0  0  0  0  0  0  0
  181.1790  183.1860  137.6660 C   0  0  0  0  0  0  0  0  0  0  0  0
  182.2820  183.7150  137.9650 O   0  0  0  0  0  0  0  0  0  0  0  0
  179.9980  184.0460  137.3970 C   0  0  0  0  0  1  0  0  0  0  0  0
  1 29  1  1  0  0  0
  1 12  1  0  0  0  0
  2 18  1  0  0  0  0
  2 19  1  0  0  0  0
  3  8  2  0  0  0  0
  3  4  1  0  0  0  0
  4 15  2  0  0  0  0
  5 14  1  0  0  0  0
  5 18  2  0  0  0  0
  6 13  2  0  0  0  0
  6  9  1  0  0  0  0
  7  1  1  0  0  0  0
  7 13  1  0  0  0  0
  8 10  1  0  0  0  0
  9  2  2  0  0  0  0
 10  9  1  0  0  0  0
 10 16  2  0  0  0  0
 11 19  2  0  0  0  0
 11 17  1  0  0  0  0
 12 14  1  0  0  0  0
 13  5  1  0  0  0  0
 15 16  1  0  0  0  0
 16 11  1  0  0  0  0
 17 25  1  0  0  0  0
 20 26  1  1  0  0  0
 20 23  1  0  0  0  0
 21 22  2  0  0  0  0
 22 23  1  0  0  0  0
 24 21  1  0  0  0  0
 25 20  1  0  0  0  0
 25 21  1  0  0  0  0
 27 26  1  0  0  0  0
 28 30  1  0  0  0  0
 28 29  2  0  0  0  0
 30 31  2  0  0  0  0
 32 30  1  0  0  0  0
M  END
>  <MODEL>
4

>  <REMARK>
 VINA RESULT:      -7.7      4.054      7.260
  Name = 
  4 active torsions:
  status: ('A' for Active; 'I' for Inactive)
    1  A    between atoms: C_1  and  C_10
    2  A    between atoms: C_2  and  N_24
    3  A    between atoms: C_6  and  C_7
    4  A    between atoms: N_27  and  N_32
                            x       y       z     vdW  Elec       q    Type
                         _______ _______ _______ _____ _____    ______ ____

>  <TORSDO>
F 4

$$$$
=
 OpenBabel11052416533D

 32 36  0  0  1  0  0  0  0  0999 V2000
  192.4150  175.6800  135.4800 C   0  0  1  0  0  3  0  0  0  0  0  0
  190.1460  177.0120  139.8970 C   0  0  0  0  0  0  0  0  0  0  0  0
  185.8850  178.8150  138.6480 C   0  0  0  0  0  3  0  0  0  0  0  0
  185.5550  178.9520  139.9590 N   0  0  0  0  0  0  0  0  0  0  0  0
  191.7640  176.3380  138.2220 C   0  0  0  0  0  0  0  0  0  0  0  0
  189.6150  177.2420  137.5360 C   0  0  0  0  0  3  0  0  0  0  0  0
  191.2370  176.6240  135.7470 C   0  0  0  0  0  2  0  0  0  0  0  0
  187.0940  178.3060  138.2970 N   0  0  0  0  0  0  0  0  0  0  0  0
  189.2450  177.3960  138.8780 C   0  0  0  0  0  0  0  0  0  0  0  0
  187.9970  177.9250  139.2420 C   0  0  0  0  0  0  0  0  0  0  0  0
  188.6010  177.6730  141.5860 C   0  0  0  0  0  0  0  0  0  0  0  0
  193.5410  175.9490  136.4770 C   0  0  0  0  0  2  0  0  0  0  0  0
  190.8600  176.7020  137.2000 C   0  0  0  0  0  0  0  0  0  0  0  0
  193.0830  175.6900  137.9130 C   0  0  0  0  0  2  0  0  0  0  0  0
  186.4220  178.5870  140.9390 C   0  0  0  0  0  3  0  0  0  0  0  0
  187.6730  178.0600  140.6070 C   0  0  0  0  0  0  0  0  0  0  0  0
  188.2670  177.7870  142.9770 N   0  0  0  0  0  2  0  0  0  0  0  0
  191.3930  176.4810  139.5620 C   0  0  0  0  0  3  0  0  0  0  0  0
  189.8000  177.1540  141.2030 N   0  0  0  0  0  0  0  0  0  0  0  0
  190.6240  177.6930  143.9130 C   0  0  1  0  0  3  0  0  0  0  0  0
  188.7320  177.4310  145.3740 C   0  0  0  0  0  0  0  0  0  0  0  0
  189.6900  177.2660  146.2620 C   0  0  0  0  0  3  0  0  0  0  0  0
  191.3350  177.2840  145.5520 S   0  0  0  0  0  0  0  0  0  0  0  0
  187.0370  177.4340  145.8220 Cl  0  0  0  0  0  0  0  0  0  0  0  0
  189.1740  177.6150  144.0390 N   0  0  0  0  0  0  0  0  0  0  0  0
  191.0540  179.0960  143.4980 C   0  0  0  0  0  2  0  0  0  0  0  0
  190.8740  179.9940  144.5350 F   0  0  0  0  0  0  0  0  0  0  0  0
  192.7860  173.3310  135.1890 C   0  0  0  0  0  3  0  0  0  0  0  0
  191.9930  174.2870  135.5510 N   0  0  0  0  0  0  0  0  0  0  0  0
  192.3610  171.9330  135.2570 C   0  0  0  0  0  0  0  0  0  0  0  0
  191.2040  171.5940  134.8910 O   0  0  0  0  0  0  0  0  0  0  0  0
  193.3040  170.9030  135.7640 C   0  0  0  0  0  1  0  0  0  0  0  0
  1 29  1  1  0  0  0
  1  7  1  0  0  0  0
  1 12  1  0  0  0  0
  2 19  1  0  0  0  0
  3  4  1  0  0  0  0
  4 15  2  0  0  0  0
  5 18  2  0  0  0  0
  6  9  1  0  0  0  0
  7 13  1  0  0  0  0
  8  3  2  0  0  0  0
  8 10  1  0  0  0  0
  9 10  1  0  0  0  0
  9  2  2  0  0  0  0
 10 16  2  0  0  0  0
 11 17  1  0  0  0  0
 12 14  1  0  0  0  0
 13  6  2  0  0  0  0
 13  5  1  0  0  0  0
 14  5  1  0  0  0  0
 16 15  1  0  0  0  0
 16 11  1  0  0  0  0
 17 25  1  0  0  0  0
 18  2  1  0  0  0  0
 19 11  2  0  0  0  0
 20 26  1  1  0  0  0
 20 25  1  0  0  0  0
 20 23  1  0  0  0  0
 21 24  1  0  0  0  0
 21 22  2  0  0  0  0
 23 22  1  0  0  0  0
 25 21  1  0  0  0  0
 26 27  1  0  0  0  0
 28 30  1  0  0  0  0
 28 29  2  0  0  0  0
 30 32  1  0  0  0  0
 31 30  2  0  0  0  0
M  END
>  <MODEL>
5

>  <REMARK>
 VINA RESULT:      -7.6      1.522      1.704
  Name = 
  4 active torsions:
  status: ('A' for Active; 'I' for Inactive)
    1  A    between atoms: C_1  and  C_10
    2  A    between atoms: C_2  and  N_24
    3  A    between atoms: C_6  and  C_7
    4  A    between atoms: N_27  and  N_32
                            x       y       z     vdW  Elec       q    Type
                         _______ _______ _______ _____ _____    ______ ____

>  <TORSDO>
F 4

$$$$
=
 OpenBabel11052416533D

 32 36  0  0  1  0  0  0  0  0999 V2000
  191.4080  178.3370  144.3410 C   0  0  1  0  0  3  0  0  0  0  0  0
  189.6630  176.7560  139.7710 C   0  0  0  0  0  0  0  0  0  0  0  0
  193.5380  176.4180  136.9730 C   0  0  0  0  0  3  0  0  0  0  0  0
  192.7720  175.9210  135.9670 N   0  0  0  0  0  0  0  0  0  0  0  0
  189.8180  177.6100  142.0350 C   0  0  0  0  0  0  0  0  0  0  0  0
  191.8150  177.4540  140.6590 C   0  0  0  0  0  3  0  0  0  0  0  0
  192.0600  178.3920  142.9550 C   0  0  0  0  0  2  0  0  0  0  0  0
  192.9720  176.7520  138.1620 N   0  0  0  0  0  0  0  0  0  0  0  0
  191.0530  176.9390  139.6020 C   0  0  0  0  0  0  0  0  0  0  0  0
  191.6360  176.5970  138.3730 C   0  0  0  0  0  0  0  0  0  0  0  0
  189.4470  175.9250  137.5490 C   0  0  0  0  0  0  0  0  0  0  0  0
  189.9530  178.7940  144.2560 C   0  0  0  0  0  2  0  0  0  0  0  0
  191.2110  177.7760  141.8780 C   0  0  0  0  0  0  0  0  0  0  0  0
  189.1360  177.8750  143.3470 C   0  0  0  0  0  2  0  0  0  0  0  0
  191.4340  175.7490  136.1270 C   0  0  0  0  0  3  0  0  0  0  0  0
  190.8260  176.0830  137.3400 C   0  0  0  0  0  0  0  0  0  0  0  0
  188.6210  175.3800  136.5090 N   0  0  0  0  0  2  0  0  0  0  0  0
  189.0580  177.0860  140.9860 C   0  0  0  0  0  3  0  0  0  0  0  0
  188.9110  176.2560  138.7560 N   0  0  0  0  0  0  0  0  0  0  0  0
  186.3570  176.4810  136.1840 C   0  0  1  0  0  3  0  0  0  0  0  0
  186.4950  174.1650  136.8180 C   0  0  0  0  0  0  0  0  0  0  0  0
  185.1850  174.2910  136.8210 C   0  0  0  0  0  3  0  0  0  0  0  0
  184.6260  175.9600  136.4850 S   0  0  0  0  0  0  0  0  0  0  0  0
  187.2840  172.6320  137.1370 Cl  0  0  0  0  0  0  0  0  0  0  0  0
  187.2140  175.3540  136.5310 N   0  0  0  0  0  0  0  0  0  0  0  0
  186.5350  176.8610  134.7180 C   0  0  0  0  0  2  0  0  0  0  0  0
  186.8940  178.1920  134.5940 F   0  0  0  0  0  0  0  0  0  0  0  0
  192.0520  176.7850  146.0480 C   0  0  0  0  0  3  0  0  0  0  0  0
  191.4900  176.9940  144.9020 N   0  0  0  0  0  0  0  0  0  0  0  0
  192.1360  175.4360  146.6100 C   0  0  0  0  0  0  0  0  0  0  0  0
  192.2710  174.4340  145.8590 O   0  0  0  0  0  0  0  0  0  0  0  0
  192.0610  175.2490  148.0820 C   0  0  0  0  0  1  0  0  0  0  0  0
  1 29  1  6  0  0  0
  2 18  1  0  0  0  0
  3  8  1  0  0  0  0
  4 15  1  0  0  0  0
  4  3  2  0  0  0  0
  5 14  1  0  0  0  0
  6 13  2  0  0  0  0
  7  1  1  0  0  0  0
  8 10  2  0  0  0  0
  9  2  2  0  0  0  0
  9  6  1  0  0  0  0
 10  9  1  0  0  0  0
 11 19  2  0  0  0  0
 12  1  1  0  0  0  0
 13  5  1  0  0  0  0
 13  7  1  0  0  0  0
 14 12  1  0  0  0  0
 15 16  2  0  0  0  0
 16 11  1  0  0  0  0
 16 10  1  0  0  0  0
 17 25  1  0  0  0  0
 17 11  1  0  0  0  0
 18  5  2  0  0  0  0
 19  2  1  0  0  0  0
 20 26  1  6  0  0  0
 20 23  1  0  0  0  0
 20 25  1  0  0  0  0
 21 22  2  0  0  0  0
 21 24  1  0  0  0  0
 23 22  1  0  0  0  0
 25 21  1  0  0  0  0
 27 26  1  0  0  0  0
 28 30  1  0  0  0  0
 29 28  2  0  0  0  0
 30 32  1  0  0  0  0
 31 30  2  0  0  0  0
M  END
>  <MODEL>
6

>  <REMARK>
 VINA RESULT:      -6.8      4.635      8.479
  Name = 
  4 active torsions:
  status: ('A' for Active; 'I' for Inactive)
    1  A    between atoms: C_1  and  C_10
    2  A    between atoms: C_2  and  N_24
    3  A    between atoms: C_6  and  C_7
    4  A    between atoms: N_27  and  N_32
                            x       y       z     vdW  Elec       q    Type
                         _______ _______ _______ _____ _____    ______ ____

>  <TORSDO>
F 4

$$$$
=
 OpenBabel11052416533D

 32 36  0  0  1  0  0  0  0  0999 V2000
  191.3090  178.2310  143.8430 C   0  0  1  0  0  3  0  0  0  0  0  0
  190.0860  176.4280  139.1870 C   0  0  0  0  0  0  0  0  0  0  0  0
  194.1780  176.4540  136.6930 C   0  0  0  0  0  3  0  0  0  0  0  0
  193.5450  175.8700  135.6430 N   0  0  0  0  0  0  0  0  0  0  0  0
  189.9810  177.3200  141.4390 C   0  0  0  0  0  0  0  0  0  0  0  0
  192.0820  177.3520  140.2190 C   0  0  0  0  0  3  0  0  0  0  0  0
  192.0560  178.3370  142.5090 C   0  0  0  0  0  2  0  0  0  0  0  0
  193.4920  176.7420  137.8300 N   0  0  0  0  0  0  0  0  0  0  0  0
  191.4590  176.7500  139.1190 C   0  0  0  0  0  0  0  0  0  0  0  0
  192.1660  176.4550  137.9430 C   0  0  0  0  0  0  0  0  0  0  0  0
  190.1260  175.5530  136.9710 C   0  0  0  0  0  0  0  0  0  0  0  0
  189.8260  178.5370  143.6400 C   0  0  0  0  0  2  0  0  0  0  0  0
  191.3580  177.6250  141.3830 C   0  0  0  0  0  0  0  0  0  0  0  0
  189.1780  177.5290  142.6910 C   0  0  0  0  0  2  0  0  0  0  0  0
  192.2230  175.5640  135.7060 C   0  0  0  0  0  3  0  0  0  0  0  0
  191.4930  175.8480  136.8630 C   0  0  0  0  0  0  0  0  0  0  0  0
  189.4410  174.9150  135.8830 N   0  0  0  0  0  2  0  0  0  0  0  0
  189.3600  176.7090  140.3460 C   0  0  0  0  0  3  0  0  0  0  0  0
  189.4680  175.8420  138.1280 N   0  0  0  0  0  0  0  0  0  0  0  0
  187.3600  173.4610  135.8590 C   0  0  1  0  0  3  0  0  0  0  0  0
  187.1640  175.8550  135.7360 C   0  0  0  0  0  0  0  0  0  0  0  0
  185.8870  175.5490  135.6440 C   0  0  0  0  0  3  0  0  0  0  0  0
  185.5760  173.7850  135.5920 S   0  0  0  0  0  0  0  0  0  0  0  0
  187.7220  177.5160  135.7880 Cl  0  0  0  0  0  0  0  0  0  0  0  0
  188.0460  174.7460  135.8000 N   0  0  0  0  0  0  0  0  0  0  0  0
  187.5680  172.8020  137.2180 C   0  0  0  0  0  2  0  0  0  0  0  0
  186.3690  172.6810  137.8970 F   0  0  0  0  0  0  0  0  0  0  0  0
  191.8790  176.7770  145.6580 C   0  0  0  0  0  3  0  0  0  0  0  0
  191.4820  176.9110  144.4350 N   0  0  0  0  0  0  0  0  0  0  0  0
  192.0550  175.4500  146.2510 C   0  0  0  0  0  0  0  0  0  0  0  0
  192.4290  174.4760  145.5470 O   0  0  0  0  0  0  0  0  0  0  0  0
  191.7910  175.2530  147.7000 C   0  0  0  0  0  1  0  0  0  0  0  0
  1 29  1  6  0  0  0
  2 18  1  0  0  0  0
  3  8  1  0  0  0  0
  4 15  1  0  0  0  0
  4  3  2  0  0  0  0
  5 14  1  0  0  0  0
  6 13  2  0  0  0  0
  7  1  1  0  0  0  0
  8 10  2  0  0  0  0
  9  2  2  0  0  0  0
  9  6  1  0  0  0  0
 10  9  1  0  0  0  0
 11 19  2  0  0  0  0
 12  1  1  0  0  0  0
 13  5  1  0  0  0  0
 13  7  1  0  0  0  0
 14 12  1  0  0  0  0
 15 16  2  0  0  0  0
 16 11  1  0  0  0  0
 16 10  1  0  0  0  0
 17 11  1  0  0  0  0
 18  5  2  0  0  0  0
 19  2  1  0  0  0  0
 20 26  1  1  0  0  0
 21 24  1  0  0  0  0
 21 25  1  0  0  0  0
 22 21  2  0  0  0  0
 23 22  1  0  0  0  0
 23 20  1  0  0  0  0
 25 20  1  0  0  0  0
 25 17  1  0  0  0  0
 26 27  1  0  0  0  0
 28 30  1  0  0  0  0
 29 28  2  0  0  0  0
 30 32  1  0  0  0  0
 31 30  2  0  0  0  0
M  END
>  <MODEL>
7

>  <REMARK>
 VINA RESULT:      -6.7      4.704      8.608
  Name = 
  4 active torsions:
  status: ('A' for Active; 'I' for Inactive)
    1  A    between atoms: C_1  and  C_10
    2  A    between atoms: C_2  and  N_24
    3  A    between atoms: C_6  and  C_7
    4  A    between atoms: N_27  and  N_32
                            x       y       z     vdW  Elec       q    Type
                         _______ _______ _______ _____ _____    ______ ____

>  <TORSDO>
F 4

$$$$
=
 OpenBabel11052416533D

 32 36  0  0  1  0  0  0  0  0999 V2000
  190.0480  176.4670  137.7700 C   0  0  1  0  0  3  0  0  0  0  0  0
  184.9510  177.0160  137.3890 C   0  0  0  0  0  0  0  0  0  0  0  0
  183.2270  172.5780  136.8440 C   0  0  0  0  0  3  0  0  0  0  0  0
  181.9580  173.0640  136.8770 N   0  0  0  0  0  0  0  0  0  0  0  0
  187.3370  177.4360  137.4740 C   0  0  0  0  0  0  0  0  0  0  0  0
  186.5140  175.1650  137.2010 C   0  0  0  0  0  3  0  0  0  0  0  0
  188.9830  175.5080  137.2250 C   0  0  0  0  0  2  0  0  0  0  0  0
  184.2850  173.4220  136.9590 N   0  0  0  0  0  0  0  0  0  0  0  0
  185.1950  175.6340  137.2320 C   0  0  0  0  0  0  0  0  0  0  0  0
  184.1020  174.7630  137.1090 C   0  0  0  0  0  0  0  0  0  0  0  0
  182.5960  176.6660  137.2970 C   0  0  0  0  0  0  0  0  0  0  0  0
  189.8070  177.8780  137.2360 C   0  0  0  0  0  2  0  0  0  0  0  0
  187.5860  176.0520  137.3360 C   0  0  0  0  0  0  0  0  0  0  0  0
  188.4520  178.4180  137.6930 C   0  0  0  0  0  2  0  0  0  0  0  0
  181.7230  174.3930  137.0250 C   0  0  0  0  0  3  0  0  0  0  0  0
  182.7920  175.2840  137.1460 C   0  0  0  0  0  0  0  0  0  0  0  0
  181.2650  177.1990  137.3570 N   0  0  0  0  0  2  0  0  0  0  0  0
  186.0210  177.9040  137.5160 C   0  0  0  0  0  3  0  0  0  0  0  0
  183.6760  177.4850  137.4220 N   0  0  0  0  0  0  0  0  0  0  0  0
  180.5890  179.3770  138.4720 C   0  0  1  0  0  3  0  0  0  0  0  0
  181.0310  179.3150  136.1100 C   0  0  0  0  0  0  0  0  0  0  0  0
  180.6860  180.5810  136.2110 C   0  0  0  0  0  3  0  0  0  0  0  0
  180.1590  181.0490  137.8580 S   0  0  0  0  0  0  0  0  0  0  0  0
  181.5670  178.6150  134.5940 Cl  0  0  0  0  0  0  0  0  0  0  0  0
  180.9450  178.5690  137.3130 N   0  0  0  0  0  0  0  0  0  0  0  0
  181.7610  179.4680  139.4450 C   0  0  0  0  0  2  0  0  0  0  0  0
  182.8050  180.1900  138.8930 F   0  0  0  0  0  0  0  0  0  0  0  0
  190.9450  177.1290  139.8900 C   0  0  0  0  0  3  0  0  0  0  0  0
  190.0540  176.4660  139.2270 N   0  0  0  0  0  0  0  0  0  0  0  0
  190.9520  177.1260  141.3530 C   0  0  0  0  0  0  0  0  0  0  0  0
  191.9700  177.5030  141.9920 O   0  0  0  0  0  0  0  0  0  0  0  0
  189.7450  176.6740  142.0920 C   0  0  0  0  0  1  0  0  0  0  0  0
  1 29  1  1  0  0  0
  2 19  1  0  0  0  0
  2 18  1  0  0  0  0
  3  4  2  0  0  0  0
  3  8  1  0  0  0  0
  4 15  1  0  0  0  0
  5 18  2  0  0  0  0
  5 14  1  0  0  0  0
  6  9  1  0  0  0  0
  6 13  2  0  0  0  0
  7 13  1  0  0  0  0
  7  1  1  0  0  0  0
  8 10  2  0  0  0  0
  9  2  2  0  0  0  0
 10 16  1  0  0  0  0
 10  9  1  0  0  0  0
 11 17  1  0  0  0  0
 11 19  2  0  0  0  0
 12 14  1  0  0  0  0
 12  1  1  0  0  0  0
 13  5  1  0  0  0  0
 15 16  2  0  0  0  0
 16 11  1  0  0  0  0
 20 26  1  1  0  0  0
 21 22  2  0  0  0  0
 21 25  1  0  0  0  0
 22 23  1  0  0  0  0
 23 20  1  0  0  0  0
 24 21  1  0  0  0  0
 25 17  1  0  0  0  0
 25 20  1  0  0  0  0
 27 26  1  0  0  0  0
 28 30  1  0  0  0  0
 29 28  2  0  0  0  0
 30 31  2  0  0  0  0
 30 32  1  0  0  0  0
M  END
>  <MODEL>
8

>  <REMARK>
 VINA RESULT:      -6.3      5.750      8.130
  Name = 
  4 active torsions:
  status: ('A' for Active; 'I' for Inactive)
    1  A    between atoms: C_1  and  C_10
    2  A    between atoms: C_2  and  N_24
    3  A    between atoms: C_6  and  C_7
    4  A    between atoms: N_27  and  N_32
                            x       y       z     vdW  Elec       q    Type
                         _______ _______ _______ _____ _____    ______ ____

>  <TORSDO>
F 4

$$$$
=
 OpenBabel11052416533D

 32 36  0  0  1  0  0  0  0  0999 V2000
  184.8720  179.6880  143.9790 C   0  0  1  0  0  3  0  0  0  0  0  0
  183.7180  177.3800  139.5330 C   0  0  0  0  0  0  0  0  0  0  0  0
  187.2070  178.6390  136.4980 C   0  0  0  0  0  3  0  0  0  0  0  0
  186.6720  177.8340  135.5440 N   0  0  0  0  0  0  0  0  0  0  0  0
  183.6190  178.2860  141.7800 C   0  0  0  0  0  0  0  0  0  0  0  0
  185.4130  178.9530  140.2810 C   0  0  0  0  0  3  0  0  0  0  0  0
  185.3610  179.9740  142.5540 C   0  0  0  0  0  2  0  0  0  0  0  0
  186.6200  178.7360  137.7200 N   0  0  0  0  0  0  0  0  0  0  0  0
  184.8860  178.1320  139.2760 C   0  0  0  0  0  0  0  0  0  0  0  0
  185.4910  178.0340  138.0140 C   0  0  0  0  0  0  0  0  0  0  0  0
  183.7560  176.4700  137.3310 C   0  0  0  0  0  0  0  0  0  0  0  0
  183.3590  179.4800  143.9830 C   0  0  0  0  0  2  0  0  0  0  0  0
  184.7980  179.0240  141.5350 C   0  0  0  0  0  0  0  0  0  0  0  0
  182.9630  178.2750  143.1300 C   0  0  0  0  0  2  0  0  0  0  0  0
  185.5460  177.1140  135.7880 C   0  0  0  0  0  3  0  0  0  0  0  0
  184.9210  177.1940  137.0360 C   0  0  0  0  0  0  0  0  0  0  0  0
  183.1850  175.5960  136.3460 N   0  0  0  0  0  2  0  0  0  0  0  0
  183.0990  177.4570  140.7810 C   0  0  0  0  0  3  0  0  0  0  0  0
  183.1960  176.5780  138.5680 N   0  0  0  0  0  0  0  0  0  0  0  0
  180.6500  175.6330  136.2090 C   0  0  1  0  0  3  0  0  0  0  0  0
  181.8020  173.5900  136.7400 C   0  0  0  0  0  0  0  0  0  0  0  0
  180.5660  173.1470  136.8310 C   0  0  0  0  0  3  0  0  0  0  0  0
  179.3300  174.4230  136.5980 S   0  0  0  0  0  0  0  0  0  0  0  0
  183.1860  172.5340  136.9470 Cl  0  0  0  0  0  0  0  0  0  0  0  0
  181.9260  174.9740  136.4560 N   0  0  0  0  0  0  0  0  0  0  0  0
  180.5420  176.0670  134.7510 C   0  0  0  0  0  2  0  0  0  0  0  0
  180.9590  177.3770  134.5940 F   0  0  0  0  0  0  0  0  0  0  0  0
  186.8370  178.4940  144.6500 C   0  0  0  0  0  3  0  0  0  0  0  0
  185.5490  178.5250  144.5390 N   0  0  0  0  0  0  0  0  0  0  0  0
  187.5160  177.3240  145.2100 C   0  0  0  0  0  0  0  0  0  0  0  0
  187.9970  176.4380  144.4560 O   0  0  0  0  0  0  0  0  0  0  0  0
  187.6400  177.1840  146.6840 C   0  0  0  0  0  1  0  0  0  0  0  0
  1 12  1  0  0  0  0
  1 29  1  6  0  0  0
  2 18  1  0  0  0  0
  3  8  1  0  0  0  0
  4 15  1  0  0  0  0
  4  3  2  0  0  0  0
  5 14  1  0  0  0  0
  6 13  2  0  0  0  0
  7  1  1  0  0  0  0
  8 10  2  0  0  0  0
  9  2  2  0  0  0  0
  9  6  1  0  0  0  0
 10  9  1  0  0  0  0
 11 19  2  0  0  0  0
 13  5  1  0  0  0  0
 13  7  1  0  0  0  0
 14 12  1  0  0  0  0
 15 16  2  0  0  0  0
 16 11  1  0  0  0  0
 16 10  1  0  0  0  0
 17 25  1  0  0  0  0
 17 11  1  0  0  0  0
 18  5  2  0  0  0  0
 19  2  1  0  0  0  0
 20 26  1  6  0  0  0
 20 25  1  0  0  0  0
 20 23  1  0  0  0  0
 21 22  2  0  0  0  0
 21 24  1  0  0  0  0
 23 22  1  0  0  0  0
 25 21  1  0  0  0  0
 27 26  1  0  0  0  0
 28 30  1  0  0  0  0
 29 28  2  0  0  0  0
 30 32  1  0  0  0  0
 31 30  2  0  0  0  0
M  END
>  <MODEL>
9

>  <REMARK>
 VINA RESULT:      -6.1      5.951      9.710
  Name = 
  4 active torsions:
  status: ('A' for Active; 'I' for Inactive)
    1  A    between atoms: C_1  and  C_10
    2  A    between atoms: C_2  and  N_24
    3  A    between atoms: C_6  and  C_7
    4  A    between atoms: N_27  and  N_32
                            x       y       z     vdW  Elec       q    Type
                         _______ _______ _______ _____ _____    ______ ____

>  <TORSDO>
F 4

$$$$
