=
 OpenBabel11052413203D

 28 31  0  0  1  0  0  0  0  0999 V2000
  187.4990  178.6040  139.3670 N   0  0  0  0  0  0  0  0  0  0  0  0
  190.4600  175.9550  139.4180 O   0  0  0  0  0  1  0  0  0  0  0  0
  188.4230  178.8120  140.4940 C   0  0  0  0  0  2  0  0  0  0  0  0
  189.5560  177.8030  138.2180 C   0  0  0  0  0  2  0  0  0  0  0  0
  190.2040  177.3220  139.5190 C   0  0  1  0  0  3  0  0  0  0  0  0
  188.0330  177.7160  138.3220 C   0  0  0  0  0  2  0  0  0  0  0  0
  189.3270  177.5960  140.7630 C   0  0  1  0  0  3  0  0  0  0  0  0
  191.0970  176.7100  142.1280 C   0  0  0  0  0  1  0  0  0  0  0  0
  190.1380  177.7990  141.9840 N   0  0  0  0  0  0  0  0  0  0  0  0
  190.3010  177.2950  146.9440 C   0  0  0  0  0  3  0  0  0  0  0  0
  188.0260  177.3480  145.7890 C   0  0  0  0  0  0  0  0  0  0  0  0
  190.1590  177.8050  144.5210 C   0  0  0  0  0  2  0  0  0  0  0  0
  188.2840  177.9060  148.1470 C   0  0  0  0  0  0  0  0  0  0  0  0
  189.5130  177.0490  145.6810 C   0  0  1  0  0  3  0  0  0  0  0  0
  188.0330  176.4950  143.1550 S   0  0  0  0  0  0  0  0  0  0  0  0
  187.4700  177.7310  146.9410 C   0  0  0  0  0  3  0  0  0  0  0  0
  187.1370  177.1750  144.5950 C   0  0  0  0  0  2  0  0  0  0  0  0
  187.7450  178.2550  149.2300 O   0  0  0  0  0  0  0  0  0  0  0  0
  189.7310  177.6810  148.0850 C   0  0  0  0  0  3  0  0  0  0  0  0
  189.3290  177.7850  143.2160 C   0  0  2  0  0  3  0  0  0  0  0  0
  186.3040  177.9730  139.9070 C   0  0  0  0  0  2  0  0  0  0  0  0
  185.5280  178.9600  140.7760 C   0  0  2  0  0  3  0  0  0  0  0  0
  183.2110  178.4810  140.8960 N   0  0  0  0  0  0  0  0  0  0  0  0
  185.2850  178.3790  142.0320 O   0  0  0  0  0  0  0  0  0  0  0  0
  184.0470  179.3320  138.6750 C   0  0  0  0  0  1  0  0  0  0  0  0
  184.1750  179.3130  140.2010 C   0  0  2  0  0  3  0  0  0  0  0  0
  183.0710  177.1770  140.2550 C   0  0  0  0  0  1  0  0  0  0  0  0
  183.8830  178.2370  142.1660 C   0  0  0  0  0  2  0  0  0  0  0  0
  1 21  1  0  0  0  0
  1  3  1  0  0  0  0
  3  7  1  0  0  0  0
  4  6  1  0  0  0  0
  4  5  1  0  0  0  0
  5  2  1  6  0  0  0
  5  7  1  0  0  0  0
  6  1  1  0  0  0  0
  7  9  1  1  0  0  0
  9  8  1  0  0  0  0
 10 19  2  0  0  0  0
 11 16  2  0  0  0  0
 13 18  2  0  0  0  0
 14 12  1  6  0  0  0
 14 11  1  0  0  0  0
 14 10  1  0  0  0  0
 15 20  1  0  0  0  0
 15 17  1  0  0  0  0
 16 13  1  0  0  0  0
 17 11  1  0  0  0  0
 19 13  1  0  0  0  0
 20  9  1  6  0  0  0
 20 12  1  0  0  0  0
 22 21  1  6  0  0  0
 22 24  1  0  0  0  0
 23 28  1  0  0  0  0
 24 28  1  0  0  0  0
 26 25  1  6  0  0  0
 26 22  1  0  0  0  0
 26 23  1  0  0  0  0
 27 23  1  0  0  0  0
M  END
>  <MODEL>
1

>  <REMARK>
 VINA RESULT:      -8.2      0.000      0.000
  Name = 
  4 active torsions:
  status: ('A' for Active; 'I' for Inactive)
    1  A    between atoms: N_1  and  C_2
    2  A    between atoms: C_2  and  C_3
    3  A    between atoms: N_20  and  C_25
    4  A    between atoms: N_20  and  C_27
                            x       y       z     vdW  Elec       q    Type
                         _______ _______ _______ _____ _____    ______ ____

>  <TORSDO>
F 4

$$$$
=
 OpenBabel11052413203D

 28 31  0  0  1  0  0  0  0  0999 V2000
  188.4710  177.1190  145.2140 N   0  0  0  0  0  0  0  0  0  0  0  0
  192.0300  178.5520  144.1800 O   0  0  0  0  0  1  0  0  0  0  0  0
  188.9660  176.5440  143.9520 C   0  0  0  0  0  2  0  0  0  0  0  0
  190.8930  177.2010  145.7790 C   0  0  0  0  0  2  0  0  0  0  0  0
  191.3200  177.3590  144.3170 C   0  0  1  0  0  3  0  0  0  0  0  0
  189.5080  177.8130  145.9940 C   0  0  0  0  0  2  0  0  0  0  0  0
  190.1240  177.3500  143.3370 C   0  0  1  0  0  3  0  0  0  0  0  0
  191.7240  177.4480  141.5460 C   0  0  0  0  0  1  0  0  0  0  0  0
  190.4950  176.8160  142.0090 N   0  0  0  0  0  0  0  0  0  0  0  0
  189.7690  177.5370  137.1270 C   0  0  0  0  0  3  0  0  0  0  0  0
  187.8430  177.9990  138.7360 C   0  0  0  0  0  0  0  0  0  0  0  0
  189.9960  176.9460  139.5240 C   0  0  0  0  0  2  0  0  0  0  0  0
  187.4620  177.5270  136.3760 C   0  0  0  0  0  0  0  0  0  0  0  0
  189.3460  177.9040  138.5280 C   0  0  1  0  0  3  0  0  0  0  0  0
  188.6080  178.6750  141.3100 S   0  0  0  0  0  0  0  0  0  0  0  0
  186.9840  177.8350  137.7270 C   0  0  0  0  0  3  0  0  0  0  0  0
  187.2920  178.3250  140.0910 C   0  0  0  0  0  2  0  0  0  0  0  0
  186.6410  177.3870  135.4320 O   0  0  0  0  0  0  0  0  0  0  0  0
  188.8980  177.3730  136.1310 C   0  0  0  0  0  3  0  0  0  0  0  0
  189.4830  177.1030  140.9750 C   0  0  2  0  0  3  0  0  0  0  0  0
  187.4560  178.1020  144.8650 C   0  0  0  0  0  2  0  0  0  0  0  0
  186.1190  177.4150  144.5960 C   0  0  2  0  0  3  0  0  0  0  0  0
  184.3070  178.9300  144.4220 N   0  0  0  0  0  0  0  0  0  0  0  0
  185.8030  177.5340  143.2330 O   0  0  0  0  0  0  0  0  0  0  0  0
  185.2890  178.6480  146.7270 C   0  0  0  0  0  1  0  0  0  0  0  0
  184.9730  178.0420  145.3560 C   0  0  2  0  0  3  0  0  0  0  0  0
  184.9310  180.2500  144.4040 C   0  0  0  0  0  1  0  0  0  0  0  0
  184.6260  178.3140  143.1400 C   0  0  0  0  0  2  0  0  0  0  0  0
  1  6  1  0  0  0  0
  3  1  1  0  0  0  0
  4  6  1  0  0  0  0
  5  2  1  1  0  0  0
  5  4  1  0  0  0  0
  7  9  1  6  0  0  0
  7  3  1  0  0  0  0
  7  5  1  0  0  0  0
  8  9  1  0  0  0  0
 11 17  1  0  0  0  0
 12 20  1  0  0  0  0
 13 16  1  0  0  0  0
 14 10  1  6  0  0  0
 14 11  1  0  0  0  0
 14 12  1  0  0  0  0
 16 11  2  0  0  0  0
 17 15  1  0  0  0  0
 18 13  2  0  0  0  0
 19 13  1  0  0  0  0
 19 10  2  0  0  0  0
 20 15  1  0  0  0  0
 20  9  1  1  0  0  0
 21  1  1  0  0  0  0
 22 21  1  6  0  0  0
 22 26  1  0  0  0  0
 23 26  1  0  0  0  0
 24 22  1  0  0  0  0
 26 25  1  1  0  0  0
 27 23  1  0  0  0  0
 28 24  1  0  0  0  0
 28 23  1  0  0  0  0
M  END
>  <MODEL>
2

>  <REMARK>
 VINA RESULT:      -7.2      2.563      6.678
  Name = 
  4 active torsions:
  status: ('A' for Active; 'I' for Inactive)
    1  A    between atoms: N_1  and  C_2
    2  A    between atoms: C_2  and  C_3
    3  A    between atoms: N_20  and  C_25
    4  A    between atoms: N_20  and  C_27
                            x       y       z     vdW  Elec       q    Type
                         _______ _______ _______ _____ _____    ______ ____

>  <TORSDO>
F 4

$$$$
=
 OpenBabel11052413203D

 28 31  0  0  1  0  0  0  0  0999 V2000
  190.2310  177.0500  141.0900 N   0  0  0  0  0  0  0  0  0  0  0  0
  188.7560  179.2070  138.0980 O   0  0  0  0  0  1  0  0  0  0  0  0
  188.7660  176.9460  140.9890 C   0  0  0  0  0  2  0  0  0  0  0  0
  190.0850  177.3010  138.6190 C   0  0  0  0  0  2  0  0  0  0  0  0
  188.6950  177.9390  138.6760 C   0  0  1  0  0  3  0  0  0  0  0  0
  190.8670  177.6220  139.8930 C   0  0  0  0  0  2  0  0  0  0  0  0
  188.1440  178.0510  140.1170 C   0  0  1  0  0  3  0  0  0  0  0  0
  186.1060  178.8760  139.1430 C   0  0  0  0  0  1  0  0  0  0  0  0
  186.6670  177.9880  140.1560 N   0  0  0  0  0  0  0  0  0  0  0  0
  186.7180  177.2690  145.0920 C   0  0  0  0  0  3  0  0  0  0  0  0
  184.9720  178.8430  144.0980 C   0  0  0  0  0  0  0  0  0  0  0  0
  186.8180  177.8610  142.6860 C   0  0  0  0  0  2  0  0  0  0  0  0
  185.6530  178.9880  146.4340 C   0  0  0  0  0  0  0  0  0  0  0  0
  185.8960  177.6550  143.8860 C   0  0  1  0  0  3  0  0  0  0  0  0
  184.2840  178.3150  141.4680 S   0  0  0  0  0  0  0  0  0  0  0  0
  184.8610  179.4420  145.2860 C   0  0  0  0  0  3  0  0  0  0  0  0
  184.1250  179.3470  142.9690 C   0  0  0  0  0  2  0  0  0  0  0  0
  185.5280  179.5530  147.5510 O   0  0  0  0  0  0  0  0  0  0  0  0
  186.5970  177.8790  146.2710 C   0  0  0  0  0  3  0  0  0  0  0  0
  186.1090  178.4470  141.4410 C   0  0  2  0  0  3  0  0  0  0  0  0
  190.5190  177.9400  142.2060 C   0  0  0  0  0  2  0  0  0  0  0  0
  191.7900  177.4970  142.9260 C   0  0  2  0  0  3  0  0  0  0  0  0
  191.5340  177.3580  145.2770 N   0  0  0  0  0  0  0  0  0  0  0  0
  191.6850  176.1350  143.2560 O   0  0  0  0  0  0  0  0  0  0  0  0
  191.5280  179.6840  144.3030 C   0  0  0  0  0  1  0  0  0  0  0  0
  192.0170  178.2340  144.2260 C   0  0  2  0  0  3  0  0  0  0  0  0
  190.1020  177.5340  145.5020 C   0  0  0  0  0  1  0  0  0  0  0  0
  191.6880  176.0430  144.6680 C   0  0  0  0  0  2  0  0  0  0  0  0
  1 21  1  0  0  0  0
  3  1  1  0  0  0  0
  4  5  1  0  0  0  0
  4  6  1  0  0  0  0
  5  2  1  1  0  0  0
  5  7  1  0  0  0  0
  6  1  1  0  0  0  0
  7  9  1  6  0  0  0
  7  3  1  0  0  0  0
  8  9  1  0  0  0  0
 10 19  2  0  0  0  0
 11 16  2  0  0  0  0
 13 18  2  0  0  0  0
 14 12  1  6  0  0  0
 14 11  1  0  0  0  0
 14 10  1  0  0  0  0
 15 17  1  0  0  0  0
 16 13  1  0  0  0  0
 17 11  1  0  0  0  0
 19 13  1  0  0  0  0
 20  9  1  6  0  0  0
 20 15  1  0  0  0  0
 20 12  1  0  0  0  0
 22 21  1  1  0  0  0
 22 24  1  0  0  0  0
 22 26  1  0  0  0  0
 23 27  1  0  0  0  0
 24 28  1  0  0  0  0
 26 25  1  6  0  0  0
 26 23  1  0  0  0  0
 28 23  1  0  0  0  0
M  END
>  <MODEL>
3

>  <REMARK>
 VINA RESULT:      -7.1      2.267      5.288
  Name = 
  4 active torsions:
  status: ('A' for Active; 'I' for Inactive)
    1  A    between atoms: N_1  and  C_2
    2  A    between atoms: C_2  and  C_3
    3  A    between atoms: N_20  and  C_25
    4  A    between atoms: N_20  and  C_27
                            x       y       z     vdW  Elec       q    Type
                         _______ _______ _______ _____ _____    ______ ____

>  <TORSDO>
F 4

$$$$
=
 OpenBabel11052413203D

 28 31  0  0  1  0  0  0  0  0999 V2000
  189.6510  175.7560  137.0870 N   0  0  0  0  0  0  0  0  0  0  0  0
  189.1450  179.4910  138.3460 O   0  0  0  0  0  1  0  0  0  0  0  0
  188.8830  175.8290  138.3400 C   0  0  0  0  0  2  0  0  0  0  0  0
  188.5530  177.9420  136.6350 C   0  0  0  0  0  2  0  0  0  0  0  0
  188.4520  178.3010  138.1200 C   0  0  1  0  0  3  0  0  0  0  0  0
  189.7660  177.0460  136.3880 C   0  0  0  0  0  2  0  0  0  0  0  0
  189.0080  177.1920  139.0440 C   0  0  1  0  0  3  0  0  0  0  0  0
  187.6880  178.4570  140.6050 C   0  0  0  0  0  1  0  0  0  0  0  0
  188.3350  177.1730  140.3610 N   0  0  0  0  0  0  0  0  0  0  0  0
  189.0690  177.9690  145.2300 C   0  0  0  0  0  3  0  0  0  0  0  0
  191.0080  177.0870  143.8230 C   0  0  0  0  0  0  0  0  0  0  0  0
  188.6820  177.3110  142.8710 C   0  0  0  0  0  2  0  0  0  0  0  0
  190.9270  176.7770  146.2390 C   0  0  0  0  0  0  0  0  0  0  0  0
  189.7020  177.8650  143.8640 C   0  0  1  0  0  3  0  0  0  0  0  0
  190.8980  177.7490  141.1370 S   0  0  0  0  0  0  0  0  0  0  0  0
  191.5690  176.6010  144.9330 C   0  0  0  0  0  3  0  0  0  0  0  0
  191.7210  176.8850  142.5210 C   0  0  0  0  0  2  0  0  0  0  0  0
  191.4740  176.3250  147.2790 O   0  0  0  0  0  0  0  0  0  0  0  0
  189.6420  177.4750  146.3280 C   0  0  0  0  0  3  0  0  0  0  0  0
  189.2740  176.9790  141.4800 C   0  0  2  0  0  3  0  0  0  0  0  0
  190.9970  175.3280  137.4370 C   0  0  0  0  0  2  0  0  0  0  0  0
  192.0130  175.9050  136.4540 C   0  0  2  0  0  3  0  0  0  0  0  0
  194.2150  175.1070  136.8050 N   0  0  0  0  0  0  0  0  0  0  0  0
  192.2790  174.9560  135.4520 O   0  0  0  0  0  0  0  0  0  0  0  0
  193.3160  176.6720  138.5650 C   0  0  0  0  0  1  0  0  0  0  0  0
  193.3410  176.2260  137.1000 C   0  0  2  0  0  3  0  0  0  0  0  0
  194.0670  174.0400  137.7910 C   0  0  0  0  0  1  0  0  0  0  0  0
  193.6420  174.5940  135.5670 C   0  0  0  0  0  2  0  0  0  0  0  0
  1 21  1  0  0  0  0
  1  3  1  0  0  0  0
  3  7  1  0  0  0  0
  4  5  1  0  0  0  0
  5  2  1  6  0  0  0
  5  7  1  0  0  0  0
  6  4  1  0  0  0  0
  6  1  1  0  0  0  0
  7  9  1  1  0  0  0
  9  8  1  0  0  0  0
 10 19  2  0  0  0  0
 11 14  1  0  0  0  0
 11 16  2  0  0  0  0
 13 19  1  0  0  0  0
 13 18  2  0  0  0  0
 14 12  1  6  0  0  0
 14 10  1  0  0  0  0
 15 20  1  0  0  0  0
 15 17  1  0  0  0  0
 16 13  1  0  0  0  0
 17 11  1  0  0  0  0
 20  9  1  6  0  0  0
 20 12  1  0  0  0  0
 22 26  1  0  0  0  0
 22 21  1  1  0  0  0
 23 26  1  0  0  0  0
 23 27  1  0  0  0  0
 24 28  1  0  0  0  0
 24 22  1  0  0  0  0
 26 25  1  1  0  0  0
 28 23  1  0  0  0  0
M  END
>  <MODEL>
4

>  <REMARK>
 VINA RESULT:      -7.1      3.165      6.159
  Name = 
  4 active torsions:
  status: ('A' for Active; 'I' for Inactive)
    1  A    between atoms: N_1  and  C_2
    2  A    between atoms: C_2  and  C_3
    3  A    between atoms: N_20  and  C_25
    4  A    between atoms: N_20  and  C_27
                            x       y       z     vdW  Elec       q    Type
                         _______ _______ _______ _____ _____    ______ ____

>  <TORSDO>
F 4

$$$$
=
 OpenBabel11052413203D

 28 31  0  0  1  0  0  0  0  0999 V2000
  182.2230  175.2280  139.0130 N   0  0  0  0  0  0  0  0  0  0  0  0
  179.2880  177.8250  139.6700 O   0  0  0  0  0  1  0  0  0  0  0  0
  182.6750  176.4130  139.7610 C   0  0  0  0  0  2  0  0  0  0  0  0
  180.0890  175.6490  140.2200 C   0  0  0  0  0  2  0  0  0  0  0  0
  180.3330  177.1580  140.3100 C   0  0  1  0  0  3  0  0  0  0  0  0
  180.7590  175.0790  138.9710 C   0  0  0  0  0  2  0  0  0  0  0  0
  181.6820  177.5860  139.6860 C   0  0  1  0  0  3  0  0  0  0  0  0
  182.7320  179.7180  139.3200 C   0  0  0  0  0  1  0  0  0  0  0  0
  182.2390  178.7930  140.3340 N   0  0  0  0  0  0  0  0  0  0  0  0
  184.0700  179.2140  144.9560 C   0  0  0  0  0  3  0  0  0  0  0  0
  185.6100  178.3900  143.0940 C   0  0  0  0  0  0  0  0  0  0  0  0
  183.1420  178.7390  142.7060 C   0  0  0  0  0  2  0  0  0  0  0  0
  186.0570  177.9070  145.4410 C   0  0  0  0  0  0  0  0  0  0  0  0
  184.3780  179.1940  143.4780 C   0  0  1  0  0  3  0  0  0  0  0  0
  184.9320  179.2480  140.5510 S   0  0  0  0  0  0  0  0  0  0  0  0
  186.3840  177.8110  144.0150 C   0  0  0  0  0  3  0  0  0  0  0  0
  186.0060  178.2660  141.6550 C   0  0  0  0  0  2  0  0  0  0  0  0
  186.8030  177.3670  146.2990 O   0  0  0  0  0  0  0  0  0  0  0  0
  184.8520  178.6270  145.8620 C   0  0  0  0  0  3  0  0  0  0  0  0
  183.3950  178.4950  141.1990 C   0  0  2  0  0  3  0  0  0  0  0  0
  182.6850  175.3880  137.6420 C   0  0  0  0  0  2  0  0  0  0  0  0
  184.1280  175.8870  137.6210 C   0  0  2  0  0  3  0  0  0  0  0  0
  185.3850  175.0400  135.8010 N   0  0  0  0  0  0  0  0  0  0  0  0
  184.2470  176.9210  136.6780 O   0  0  0  0  0  0  0  0  0  0  0  0
  184.7810  173.3730  137.5930 C   0  0  0  0  0  1  0  0  0  0  0  0
  185.1140  174.8180  137.2090 C   0  0  2  0  0  3  0  0  0  0  0  0
  184.4020  174.3680  134.9560 C   0  0  0  0  0  1  0  0  0  0  0  0
  185.1260  176.4680  135.6650 C   0  0  0  0  0  2  0  0  0  0  0  0
  1  3  1  0  0  0  0
  4  5  1  0  0  0  0
  5  2  1  6  0  0  0
  6  1  1  0  0  0  0
  6  4  1  0  0  0  0
  7  3  1  0  0  0  0
  7  5  1  0  0  0  0
  7  9  1  1  0  0  0
  8  9  1  0  0  0  0
 10 19  2  0  0  0  0
 11 14  1  0  0  0  0
 11 16  2  0  0  0  0
 13 19  1  0  0  0  0
 13 18  2  0  0  0  0
 14 12  1  6  0  0  0
 14 10  1  0  0  0  0
 15 20  1  0  0  0  0
 15 17  1  0  0  0  0
 16 13  1  0  0  0  0
 17 11  1  0  0  0  0
 20  9  1  6  0  0  0
 20 12  1  0  0  0  0
 21  1  1  0  0  0  0
 22 21  1  6  0  0  0
 23 26  1  0  0  0  0
 24 22  1  0  0  0  0
 26 25  1  6  0  0  0
 26 22  1  0  0  0  0
 27 23  1  0  0  0  0
 28 23  1  0  0  0  0
 28 24  1  0  0  0  0
M  END
>  <MODEL>
5

>  <REMARK>
 VINA RESULT:      -6.9      3.874      6.643
  Name = 
  4 active torsions:
  status: ('A' for Active; 'I' for Inactive)
    1  A    between atoms: N_1  and  C_2
    2  A    between atoms: C_2  and  C_3
    3  A    between atoms: N_20  and  C_25
    4  A    between atoms: N_20  and  C_27
                            x       y       z     vdW  Elec       q    Type
                         _______ _______ _______ _____ _____    ______ ____

>  <TORSDO>
F 4

$$$$
=
 OpenBabel11052413203D

 28 31  0  0  1  0  0  0  0  0999 V2000
  182.6070  175.2560  138.6650 N   0  0  0  0  0  0  0  0  0  0  0  0
  179.4480  177.5360  139.4450 O   0  0  0  0  0  1  0  0  0  0  0  0
  182.9450  176.4220  139.4980 C   0  0  0  0  0  2  0  0  0  0  0  0
  180.4310  175.4060  139.8620 C   0  0  0  0  0  2  0  0  0  0  0  0
  180.5410  176.9210  140.0570 C   0  0  1  0  0  3  0  0  0  0  0  0
  181.1630  174.9820  138.5890 C   0  0  0  0  0  2  0  0  0  0  0  0
  181.8530  177.5070  139.4850 C   0  0  1  0  0  3  0  0  0  0  0  0
  182.7790  179.7160  139.2830 C   0  0  0  0  0  1  0  0  0  0  0  0
  182.2940  178.7110  140.2220 N   0  0  0  0  0  0  0  0  0  0  0  0
  183.9140  179.1700  144.9180 C   0  0  0  0  0  3  0  0  0  0  0  0
  185.5530  178.3910  143.1240 C   0  0  0  0  0  0  0  0  0  0  0  0
  183.0950  178.6760  142.6300 C   0  0  0  0  0  2  0  0  0  0  0  0
  185.9110  177.9150  145.4870 C   0  0  0  0  0  0  0  0  0  0  0  0
  184.2860  179.1620  143.4550 C   0  0  1  0  0  3  0  0  0  0  0  0
  184.9620  179.2360  140.5540 S   0  0  0  0  0  0  0  0  0  0  0  0
  186.3020  177.8300  144.0760 C   0  0  0  0  0  3  0  0  0  0  0  0
  186.0140  178.2790  141.7020 C   0  0  0  0  0  2  0  0  0  0  0  0
  186.6340  177.3930  146.3760 O   0  0  0  0  0  0  0  0  0  0  0  0
  184.6720  178.6030  145.8560 C   0  0  0  0  0  3  0  0  0  0  0  0
  183.4200  178.4420  141.1350 C   0  0  2  0  0  3  0  0  0  0  0  0
  183.0680  175.5490  137.3160 C   0  0  0  0  0  2  0  0  0  0  0  0
  183.7260  174.3160  136.6990 C   0  0  2  0  0  3  0  0  0  0  0  0
  186.0510  174.5820  136.3310 N   0  0  0  0  0  0  0  0  0  0  0  0
  184.3940  173.5960  137.7040 O   0  0  0  0  0  0  0  0  0  0  0  0
  184.5360  175.9340  134.8350 C   0  0  0  0  0  1  0  0  0  0  0  0
  184.7670  174.6640  135.6600 C   0  0  2  0  0  3  0  0  0  0  0  0
  186.3870  175.8390  136.9940 C   0  0  0  0  0  1  0  0  0  0  0  0
  185.7750  173.6260  137.3950 C   0  0  0  0  0  2  0  0  0  0  0  0
  1  3  1  0  0  0  0
  4  5  1  0  0  0  0
  5  2  1  6  0  0  0
  6  1  1  0  0  0  0
  6  4  1  0  0  0  0
  7  3  1  0  0  0  0
  7  5  1  0  0  0  0
  7  9  1  1  0  0  0
  8  9  1  0  0  0  0
 10 19  2  0  0  0  0
 11 14  1  0  0  0  0
 11 16  2  0  0  0  0
 13 19  1  0  0  0  0
 13 18  2  0  0  0  0
 14 12  1  6  0  0  0
 14 10  1  0  0  0  0
 15 20  1  0  0  0  0
 15 17  1  0  0  0  0
 16 13  1  0  0  0  0
 17 11  1  0  0  0  0
 20  9  1  6  0  0  0
 20 12  1  0  0  0  0
 21  1  1  0  0  0  0
 22 21  1  1  0  0  0
 22 24  1  0  0  0  0
 23 27  1  0  0  0  0
 23 28  1  0  0  0  0
 26 25  1  1  0  0  0
 26 23  1  0  0  0  0
 26 22  1  0  0  0  0
 28 24  1  0  0  0  0
M  END
>  <MODEL>
6

>  <REMARK>
 VINA RESULT:      -6.9      3.778      6.624
  Name = 
  4 active torsions:
  status: ('A' for Active; 'I' for Inactive)
    1  A    between atoms: N_1  and  C_2
    2  A    between atoms: C_2  and  C_3
    3  A    between atoms: N_20  and  C_25
    4  A    between atoms: N_20  and  C_27
                            x       y       z     vdW  Elec       q    Type
                         _______ _______ _______ _____ _____    ______ ____

>  <TORSDO>
F 4

$$$$
=
 OpenBabel11052413203D

 28 31  0  0  1  0  0  0  0  0999 V2000
  188.3660  176.7180  144.0390 N   0  0  0  0  0  0  0  0  0  0  0  0
  191.7810  178.1500  142.5990 O   0  0  0  0  0  1  0  0  0  0  0  0
  188.3090  176.9600  142.5880 C   0  0  0  0  0  2  0  0  0  0  0  0
  190.7580  176.2260  143.5610 C   0  0  0  0  0  2  0  0  0  0  0  0
  190.8070  177.1790  142.3640 C   0  0  1  0  0  3  0  0  0  0  0  0
  189.7330  176.7160  144.5840 C   0  0  0  0  0  2  0  0  0  0  0  0
  189.4490  177.8630  142.0840 C   0  0  1  0  0  3  0  0  0  0  0  0
  187.8580  178.3900  140.3600 C   0  0  0  0  0  1  0  0  0  0  0  0
  189.2720  178.1880  140.6520 N   0  0  0  0  0  0  0  0  0  0  0  0
  193.0830  176.4470  137.9440 C   0  0  0  0  0  3  0  0  0  0  0  0
  190.8000  175.3300  137.7120 C   0  0  0  0  0  0  0  0  0  0  0  0
  191.2300  177.1030  139.4550 C   0  0  0  0  0  2  0  0  0  0  0  0
  192.8640  174.1720  137.1290 C   0  0  0  0  0  0  0  0  0  0  0  0
  191.5850  176.5840  138.0630 C   0  0  1  0  0  3  0  0  0  0  0  0
  188.6370  176.9610  138.2860 S   0  0  0  0  0  0  0  0  0  0  0  0
  191.4050  174.2250  137.2690 C   0  0  0  0  0  3  0  0  0  0  0  0
  189.3050  175.3250  137.8210 C   0  0  0  0  0  2  0  0  0  0  0  0
  193.4190  173.1280  136.6970 O   0  0  0  0  0  0  0  0  0  0  0  0
  193.6720  175.3350  137.5020 C   0  0  0  0  0  3  0  0  0  0  0  0
  189.7130  177.1000  139.7600 C   0  0  2  0  0  3  0  0  0  0  0  0
  187.6420  177.8050  144.6810 C   0  0  0  0  0  2  0  0  0  0  0  0
  186.3130  177.3030  145.2410 C   0  0  2  0  0  3  0  0  0  0  0  0
  185.4390  178.6810  146.9570 N   0  0  0  0  0  0  0  0  0  0  0  0
  185.2630  178.0510  144.6830 O   0  0  0  0  0  0  0  0  0  0  0  0
  187.5000  177.3550  147.5510 C   0  0  0  0  0  1  0  0  0  0  0  0
  186.2050  177.4690  146.7390 C   0  0  2  0  0  3  0  0  0  0  0  0
  186.2970  179.8630  146.9530 C   0  0  0  0  0  1  0  0  0  0  0  0
  184.6410  178.7570  145.7400 C   0  0  0  0  0  2  0  0  0  0  0  0
  1  6  1  0  0  0  0
  1 21  1  0  0  0  0
  3  1  1  0  0  0  0
  4  6  1  0  0  0  0
  5  2  1  1  0  0  0
  5  4  1  0  0  0  0
  7  9  1  6  0  0  0
  7  5  1  0  0  0  0
  7  3  1  0  0  0  0
  8  9  1  0  0  0  0
 11 17  1  0  0  0  0
 11 14  1  0  0  0  0
 12 20  1  0  0  0  0
 13 16  1  0  0  0  0
 13 19  1  0  0  0  0
 14 10  1  1  0  0  0
 14 12  1  0  0  0  0
 15 20  1  0  0  0  0
 16 11  2  0  0  0  0
 17 15  1  0  0  0  0
 18 13  2  0  0  0  0
 19 10  2  0  0  0  0
 20  9  1  6  0  0  0
 22 21  1  6  0  0  0
 22 26  1  0  0  0  0
 24 22  1  0  0  0  0
 24 28  1  0  0  0  0
 26 23  1  0  0  0  0
 26 25  1  1  0  0  0
 27 23  1  0  0  0  0
 28 23  1  0  0  0  0
M  END
>  <MODEL>
7

>  <REMARK>
 VINA RESULT:      -6.8      2.949      7.188
  Name = 
  4 active torsions:
  status: ('A' for Active; 'I' for Inactive)
    1  A    between atoms: N_1  and  C_2
    2  A    between atoms: C_2  and  C_3
    3  A    between atoms: N_20  and  C_25
    4  A    between atoms: N_20  and  C_27
                            x       y       z     vdW  Elec       q    Type
                         _______ _______ _______ _____ _____    ______ ____

>  <TORSDO>
F 4

$$$$
=
 OpenBabel11052413203D

 28 31  0  0  1  0  0  0  0  0999 V2000
  188.3160  176.2200  135.8420 N   0  0  0  0  0  0  0  0  0  0  0  0
  191.0470  174.0830  137.7810 O   0  0  0  0  0  1  0  0  0  0  0  0
  189.1710  177.0490  136.7070 C   0  0  0  0  0  2  0  0  0  0  0  0
  190.3780  174.8460  135.6250 C   0  0  0  0  0  2  0  0  0  0  0  0
  190.8930  175.2370  137.0130 C   0  0  1  0  0  3  0  0  0  0  0  0
  188.8500  174.8700  135.6020 C   0  0  0  0  0  2  0  0  0  0  0  0
  189.9560  176.2260  137.7440 C   0  0  1  0  0  3  0  0  0  0  0  0
  192.0990  176.7310  138.7080 C   0  0  0  0  0  1  0  0  0  0  0  0
  190.6920  177.1090  138.6750 N   0  0  0  0  0  0  0  0  0  0  0  0
  187.2060  178.6190  141.9090 C   0  0  0  0  0  3  0  0  0  0  0  0
  189.2030  177.2930  142.7850 C   0  0  0  0  0  0  0  0  0  0  0  0
  188.8230  177.6240  140.3130 C   0  0  0  0  0  2  0  0  0  0  0  0
  187.0970  177.4050  144.0070 C   0  0  0  0  0  0  0  0  0  0  0  0
  188.6460  178.2140  141.7110 C   0  0  1  0  0  3  0  0  0  0  0  0
  191.5050  177.5030  141.2610 S   0  0  0  0  0  0  0  0  0  0  0  0
  188.4780  176.9380  143.8490 C   0  0  0  0  0  3  0  0  0  0  0  0
  190.6120  176.7930  142.6890 C   0  0  0  0  0  2  0  0  0  0  0  0
  186.4300  177.0730  145.0210 O   0  0  0  0  0  0  0  0  0  0  0  0
  186.4950  178.2530  142.9750 C   0  0  0  0  0  3  0  0  0  0  0  0
  190.2150  176.9970  140.0660 C   0  0  2  0  0  3  0  0  0  0  0  0
  187.0390  176.0690  136.5250 C   0  0  0  0  0  2  0  0  0  0  0  0
  186.2230  177.3550  136.4180 C   0  0  2  0  0  3  0  0  0  0  0  0
  183.9460  177.0710  137.0060 N   0  0  0  0  0  0  0  0  0  0  0  0
  186.0500  177.9020  137.7010 O   0  0  0  0  0  0  0  0  0  0  0  0
  184.6690  175.9970  134.8420 C   0  0  0  0  0  1  0  0  0  0  0  0
  184.8360  177.1280  135.8620 C   0  0  2  0  0  3  0  0  0  0  0  0
  183.8750  175.7210  137.5590 C   0  0  0  0  0  1  0  0  0  0  0  0
  184.6650  177.8730  137.9870 C   0  0  0  0  0  2  0  0  0  0  0  0
  1 21  1  0  0  0  0
  1  3  1  0  0  0  0
  3  7  1  0  0  0  0
  4  5  1  0  0  0  0
  5  7  1  0  0  0  0
  5  2  1  1  0  0  0
  6  4  1  0  0  0  0
  6  1  1  0  0  0  0
  7  9  1  6  0  0  0
  9  8  1  0  0  0  0
 10 19  2  0  0  0  0
 11 16  2  0  0  0  0
 13 18  2  0  0  0  0
 14 12  1  6  0  0  0
 14 10  1  0  0  0  0
 14 11  1  0  0  0  0
 15 17  1  0  0  0  0
 16 13  1  0  0  0  0
 17 11  1  0  0  0  0
 19 13  1  0  0  0  0
 20  9  1  6  0  0  0
 20 12  1  0  0  0  0
 20 15  1  0  0  0  0
 22 21  1  1  0  0  0
 22 24  1  0  0  0  0
 23 27  1  0  0  0  0
 23 28  1  0  0  0  0
 24 28  1  0  0  0  0
 26 25  1  1  0  0  0
 26 22  1  0  0  0  0
 26 23  1  0  0  0  0
M  END
>  <MODEL>
8

>  <REMARK>
 VINA RESULT:      -6.7      2.900      4.192
  Name = 
  4 active torsions:
  status: ('A' for Active; 'I' for Inactive)
    1  A    between atoms: N_1  and  C_2
    2  A    between atoms: C_2  and  C_3
    3  A    between atoms: N_20  and  C_25
    4  A    between atoms: N_20  and  C_27
                            x       y       z     vdW  Elec       q    Type
                         _______ _______ _______ _____ _____    ______ ____

>  <TORSDO>
F 4

$$$$
=
 OpenBabel11052413203D

 28 31  0  0  1  0  0  0  0  0999 V2000
  186.9560  178.2410  143.5170 N   0  0  0  0  0  0  0  0  0  0  0  0
  183.5200  178.1280  141.5230 O   0  0  0  0  0  1  0  0  0  0  0  0
  187.0720  178.7990  142.1600 C   0  0  0  0  0  2  0  0  0  0  0  0
  184.6410  179.1410  143.3660 C   0  0  0  0  0  2  0  0  0  0  0  0
  184.5800  178.9760  141.8450 C   0  0  1  0  0  3  0  0  0  0  0  0
  185.5650  178.0870  143.9750 C   0  0  0  0  0  2  0  0  0  0  0  0
  185.8930  178.4170  141.2480 C   0  0  1  0  0  3  0  0  0  0  0  0
  184.8470  178.9820  139.1580 C   0  0  0  0  0  1  0  0  0  0  0  0
  186.1200  178.8830  139.8630 N   0  0  0  0  0  0  0  0  0  0  0  0
  190.7600  177.2360  139.0650 C   0  0  0  0  0  3  0  0  0  0  0  0
  188.9050  176.5010  137.4740 C   0  0  0  0  0  0  0  0  0  0  0  0
  188.4020  177.8130  139.5690 C   0  0  0  0  0  2  0  0  0  0  0  0
  190.9640  175.2220  137.7270 C   0  0  0  0  0  0  0  0  0  0  0  0
  189.4140  177.5430  138.4570 C   0  0  1  0  0  3  0  0  0  0  0  0
  186.7710  178.2540  137.2780 S   0  0  0  0  0  0  0  0  0  0  0  0
  189.6400  175.4390  137.1350 C   0  0  0  0  0  3  0  0  0  0  0  0
  187.5660  176.6730  136.8240 C   0  0  0  0  0  2  0  0  0  0  0  0
  191.6510  174.2230  137.3890 O   0  0  0  0  0  0  0  0  0  0  0  0
  191.4800  176.1690  138.7190 C   0  0  0  0  0  3  0  0  0  0  0  0
  186.9430  177.9490  139.0740 C   0  0  2  0  0  3  0  0  0  0  0  0
  187.5540  176.9140  143.4840 C   0  0  0  0  0  2  0  0  0  0  0  0
  188.5620  176.7570  144.6200 C   0  0  2  0  0  3  0  0  0  0  0  0
  190.6760  177.7080  144.1360 N   0  0  0  0  0  0  0  0  0  0  0  0
  188.6500  177.9650  145.3320 O   0  0  0  0  0  0  0  0  0  0  0  0
  190.0820  175.6260  142.8430 C   0  0  0  0  0  1  0  0  0  0  0  0
  189.9580  176.4470  144.1310 C   0  0  2  0  0  3  0  0  0  0  0  0
  190.4720  178.4430  142.8910 C   0  0  0  0  0  1  0  0  0  0  0  0
  189.9680  178.4550  145.1670 C   0  0  0  0  0  2  0  0  0  0  0  0
  1  6  1  0  0  0  0
  3  1  1  0  0  0  0
  4  6  1  0  0  0  0
  5  2  1  1  0  0  0
  5  4  1  0  0  0  0
  7  9  1  6  0  0  0
  7  5  1  0  0  0  0
  7  3  1  0  0  0  0
  8  9  1  0  0  0  0
 11 14  1  0  0  0  0
 13 19  1  0  0  0  0
 14 10  1  1  0  0  0
 14 12  1  0  0  0  0
 15 20  1  0  0  0  0
 16 11  2  0  0  0  0
 16 13  1  0  0  0  0
 17 15  1  0  0  0  0
 17 11  1  0  0  0  0
 18 13  2  0  0  0  0
 19 10  2  0  0  0  0
 20 12  1  0  0  0  0
 20  9  1  1  0  0  0
 21  1  1  0  0  0  0
 22 21  1  6  0  0  0
 22 24  1  0  0  0  0
 23 28  1  0  0  0  0
 26 25  1  6  0  0  0
 26 23  1  0  0  0  0
 26 22  1  0  0  0  0
 27 23  1  0  0  0  0
 28 24  1  0  0  0  0
M  END
>  <MODEL>
9

>  <REMARK>
 VINA RESULT:      -6.6      2.301      7.307
  Name = 
  4 active torsions:
  status: ('A' for Active; 'I' for Inactive)
    1  A    between atoms: N_1  and  C_2
    2  A    between atoms: C_2  and  C_3
    3  A    between atoms: N_20  and  C_25
    4  A    between atoms: N_20  and  C_27
                            x       y       z     vdW  Elec       q    Type
                         _______ _______ _______ _____ _____    ______ ____

>  <TORSDO>
F 4

$$$$
