=
 OpenBabel11052413293D

 28 30  0  0  1  0  0  0  0  0999 V2000
  187.3880  178.4890  140.3620 C   0  0  0  0  0  0  0  0  0  0  0  0
  191.9150  177.2350  141.1950 O   0  0  0  0  0  0  0  0  0  0  0  0
  189.1170  177.5570  143.5550 C   0  0  0  0  0  0  0  0  0  0  0  0
  190.3660  175.4440  143.1580 C   0  0  0  0  0  1  0  0  0  0  0  0
  189.6580  177.7670  140.7130 C   0  0  0  0  0  0  0  0  0  0  0  0
  188.1860  178.0170  142.7010 C   0  0  0  0  0  3  0  0  0  0  0  0
  188.8820  178.2590  138.5360 C   0  0  0  0  0  3  0  0  0  0  0  0
  190.7320  177.3350  141.6170 C   0  0  0  0  0  0  0  0  0  0  0  0
  189.8760  177.8700  139.3750 N   0  0  0  0  0  0  0  0  0  0  0  0
  190.4140  176.9580  143.0380 C   0  0  1  0  0  3  0  0  0  0  0  0
  187.6530  178.5600  139.0290 N   0  0  0  0  0  0  0  0  0  0  0  0
  188.4010  178.0760  141.2430 C   0  0  0  0  0  0  0  0  0  0  0  0
  187.4910  177.5830  145.4590 C   0  0  0  0  0  3  0  0  0  0  0  0
  189.8570  177.5550  145.9850 C   0  0  0  0  0  0  0  0  0  0  0  0
  188.2110  177.5650  147.7650 C   0  0  0  0  0  0  0  0  0  0  0  0
  188.8270  177.5640  145.0160 C   0  0  0  0  0  0  0  0  0  0  0  0
  189.5430  177.5550  147.3470 C   0  0  0  0  0  3  0  0  0  0  0  0
  191.1650  177.5790  145.6260 F   0  0  0  0  0  0  0  0  0  0  0  0
  187.9160  177.5640  149.0870 F   0  0  0  0  0  0  0  0  0  0  0  0
  187.1840  177.5820  146.8210 C   0  0  0  0  0  3  0  0  0  0  0  0
  186.0060  178.8040  140.8730 C   0  0  1  0  0  3  0  0  0  0  0  0
  184.9170  178.7820  139.8000 C   0  0  0  0  0  2  0  0  0  0  0  0
  184.5890  180.0740  139.3810 O   0  0  0  0  0  1  0  0  0  0  0  0
  185.6250  178.0590  142.1580 C   0  0  0  0  0  2  0  0  0  0  0  0
  184.2400  178.4160  142.6830 C   0  0  0  0  0  2  0  0  0  0  0  0
  184.3540  179.4110  143.8210 C   0  0  0  0  0  2  0  0  0  0  0  0
  183.4160  179.0080  144.9390 C   0  0  0  0  0  2  0  0  0  0  0  0
  184.1200  178.9640  146.1410 O   0  0  0  0  0  1  0  0  0  0  0  0
  1 21  1  0  0  0  0
  1 12  1  0  0  0  0
  2  8  2  0  0  0  0
  3 16  1  0  0  0  0
  5 12  2  0  0  0  0
  5  8  1  0  0  0  0
  6  3  2  0  0  0  0
  7 11  1  0  0  0  0
  7  9  2  0  0  0  0
  8 10  1  0  0  0  0
  9  5  1  0  0  0  0
 10  4  1  6  0  0  0
 10  3  1  0  0  0  0
 11  1  2  0  0  0  0
 12  6  1  0  0  0  0
 13 20  1  0  0  0  0
 14 17  2  0  0  0  0
 15 19  1  0  0  0  0
 16 13  2  0  0  0  0
 16 14  1  0  0  0  0
 17 15  1  0  0  0  0
 18 14  1  0  0  0  0
 20 15  2  0  0  0  0
 21 22  1  6  0  0  0
 21 24  1  0  0  0  0
 23 22  1  0  0  0  0
 24 25  1  0  0  0  0
 25 26  1  0  0  0  0
 26 27  1  0  0  0  0
 27 28  1  0  0  0  0
M  END
>  <MODEL>
1

>  <REMARK>
 VINA RESULT:      -9.6      0.000      0.000
  Name = 
  7 active torsions:
  status: ('A' for Active; 'I' for Inactive)
    1  A    between atoms: C_1  and  C_2
    2  A    between atoms: C_2  and  C_3
    3  A    between atoms: C_2  and  C_8
    4  A    between atoms: C_3  and  C_7
    5  A    between atoms: C_6  and  C_22
    6  A    between atoms: C_7  and  C_22
    7  A    between atoms: C_10  and  C_13
                            x       y       z     vdW  Elec       q    Type
                         _______ _______ _______ _____ _____    ______ ____

>  <TORSDO>
F 7

$$$$
=
 OpenBabel11052413293D

 28 30  0  0  1  0  0  0  0  0999 V2000
  187.1550  177.7820  146.4190 C   0  0  0  0  0  0  0  0  0  0  0  0
  191.8750  177.1090  146.2660 O   0  0  0  0  0  0  0  0  0  0  0  0
  189.5090  177.6330  143.5050 C   0  0  0  0  0  0  0  0  0  0  0  0
  191.4270  179.1360  143.9970 C   0  0  0  0  0  1  0  0  0  0  0  0
  189.5490  177.5370  146.4040 C   0  0  0  0  0  0  0  0  0  0  0  0
  188.3690  177.6590  144.2190 C   0  0  0  0  0  3  0  0  0  0  0  0
  188.3680  177.6160  148.4490 C   0  0  0  0  0  3  0  0  0  0  0  0
  190.8140  177.4250  145.6650 C   0  0  0  0  0  0  0  0  0  0  0  0
  189.5350  177.5030  147.7630 N   0  0  0  0  0  0  0  0  0  0  0  0
  190.8570  177.7420  144.1950 C   0  0  1  0  0  3  0  0  0  0  0  0
  187.1950  177.7580  147.7800 N   0  0  0  0  0  0  0  0  0  0  0  0
  188.3530  177.6790  145.6940 C   0  0  0  0  0  0  0  0  0  0  0  0
  188.4710  178.3610  141.3450 C   0  0  0  0  0  3  0  0  0  0  0  0
  190.2930  176.7660  141.2510 C   0  0  0  0  0  0  0  0  0  0  0  0
  189.2410  177.5380  139.2080 C   0  0  0  0  0  0  0  0  0  0  0  0
  189.4300  177.5810  142.0180 C   0  0  0  0  0  0  0  0  0  0  0  0
  190.1930  176.7510  139.8570 C   0  0  0  0  0  3  0  0  0  0  0  0
  191.2110  175.9580  141.8390 F   0  0  0  0  0  0  0  0  0  0  0  0
  189.1510  177.5180  137.8570 F   0  0  0  0  0  0  0  0  0  0  0  0
  188.3770  178.3420  139.9520 C   0  0  0  0  0  3  0  0  0  0  0  0
  185.8390  177.9680  145.7080 C   0  0  1  0  0  3  0  0  0  0  0  0
  184.6530  178.2320  146.6350 C   0  0  0  0  0  2  0  0  0  0  0  0
  183.7090  179.0650  146.0300 O   0  0  0  0  0  1  0  0  0  0  0  0
  185.9040  178.9080  144.4990 C   0  0  0  0  0  2  0  0  0  0  0  0
  185.2070  178.3600  143.2600 C   0  0  0  0  0  2  0  0  0  0  0  0
  185.2910  179.3650  142.1280 C   0  0  0  0  0  2  0  0  0  0  0  0
  184.7400  178.7440  140.8620 C   0  0  0  0  0  2  0  0  0  0  0  0
  184.8290  179.6640  139.8190 O   0  0  0  0  0  1  0  0  0  0  0  0
  1 11  1  0  0  0  0
  3 10  1  0  0  0  0
  3  6  2  0  0  0  0
  5  9  2  0  0  0  0
  6 12  1  0  0  0  0
  8  2  2  0  0  0  0
  8  5  1  0  0  0  0
  9  7  1  0  0  0  0
 10  4  1  1  0  0  0
 10  8  1  0  0  0  0
 11  7  2  0  0  0  0
 12  5  1  0  0  0  0
 12  1  2  0  0  0  0
 13 16  1  0  0  0  0
 14 18  1  0  0  0  0
 14 16  2  0  0  0  0
 15 17  2  0  0  0  0
 15 20  1  0  0  0  0
 16  3  1  0  0  0  0
 17 14  1  0  0  0  0
 19 15  1  0  0  0  0
 20 13  2  0  0  0  0
 21 24  1  6  0  0  0
 21  1  1  0  0  0  0
 21 22  1  0  0  0  0
 23 22  1  0  0  0  0
 25 24  1  0  0  0  0
 26 25  1  0  0  0  0
 27 26  1  0  0  0  0
 28 27  1  0  0  0  0
M  END
>  <MODEL>
2

>  <REMARK>
 VINA RESULT:      -9.4      3.221      5.865
  Name = 
  7 active torsions:
  status: ('A' for Active; 'I' for Inactive)
    1  A    between atoms: C_1  and  C_2
    2  A    between atoms: C_2  and  C_3
    3  A    between atoms: C_2  and  C_8
    4  A    between atoms: C_3  and  C_7
    5  A    between atoms: C_6  and  C_22
    6  A    between atoms: C_7  and  C_22
    7  A    between atoms: C_10  and  C_13
                            x       y       z     vdW  Elec       q    Type
                         _______ _______ _______ _____ _____    ______ ____

>  <TORSDO>
F 7

$$$$
=
 OpenBabel11052413293D

 28 30  0  0  1  0  0  0  0  0999 V2000
  187.2210  177.7060  146.3440 C   0  0  0  0  0  0  0  0  0  0  0  0
  191.9480  177.0840  146.1590 O   0  0  0  0  0  0  0  0  0  0  0  0
  189.5580  177.5930  143.4150 C   0  0  0  0  0  0  0  0  0  0  0  0
  191.4640  179.1150  143.9000 C   0  0  0  0  0  1  0  0  0  0  0  0
  189.6180  177.4870  146.3140 C   0  0  0  0  0  0  0  0  0  0  0  0
  188.4230  177.6050  144.1360 C   0  0  0  0  0  3  0  0  0  0  0  0
  188.4500  177.5460  148.3660 C   0  0  0  0  0  3  0  0  0  0  0  0
  190.8800  177.3910  145.5660 C   0  0  0  0  0  0  0  0  0  0  0  0
  189.6120  177.4470  147.6720 N   0  0  0  0  0  0  0  0  0  0  0  0
  190.9100  177.7130  144.0970 C   0  0  1  0  0  3  0  0  0  0  0  0
  187.2710  177.6780  147.7050 N   0  0  0  0  0  0  0  0  0  0  0  0
  188.4160  177.6180  145.6110 C   0  0  0  0  0  0  0  0  0  0  0  0
  190.2890  176.6530  141.2120 C   0  0  0  0  0  3  0  0  0  0  0  0
  188.5870  178.3780  141.2040 C   0  0  0  0  0  0  0  0  0  0  0  0
  189.3440  177.4000  139.1180 C   0  0  0  0  0  0  0  0  0  0  0  0
  189.4710  177.5460  141.9290 C   0  0  0  0  0  0  0  0  0  0  0  0
  188.5300  178.2980  139.8090 C   0  0  0  0  0  3  0  0  0  0  0  0
  187.8020  179.2900  141.8290 F   0  0  0  0  0  0  0  0  0  0  0  0
  189.2810  177.3280  137.7670 F   0  0  0  0  0  0  0  0  0  0  0  0
  190.2260  176.5780  139.8190 C   0  0  0  0  0  3  0  0  0  0  0  0
  185.8990  177.8810  145.6420 C   0  0  1  0  0  3  0  0  0  0  0  0
  184.7570  178.3330  146.5520 C   0  0  0  0  0  2  0  0  0  0  0  0
  183.8220  179.1000  145.8540 O   0  0  0  0  0  1  0  0  0  0  0  0
  185.9850  178.6560  144.3220 C   0  0  0  0  0  2  0  0  0  0  0  0
  185.2990  177.9560  143.1570 C   0  0  0  0  0  2  0  0  0  0  0  0
  184.5260  178.9620  142.3260 C   0  0  0  0  0  2  0  0  0  0  0  0
  184.6180  178.5840  140.8630 C   0  0  0  0  0  2  0  0  0  0  0  0
  184.9430  179.7140  140.1130 O   0  0  0  0  0  1  0  0  0  0  0  0
  1 11  1  0  0  0  0
  3 10  1  0  0  0  0
  3  6  2  0  0  0  0
  5  9  2  0  0  0  0
  6 12  1  0  0  0  0
  8  2  2  0  0  0  0
  8  5  1  0  0  0  0
  9  7  1  0  0  0  0
 10  4  1  1  0  0  0
 10  8  1  0  0  0  0
 11  7  2  0  0  0  0
 12  5  1  0  0  0  0
 12  1  2  0  0  0  0
 13 16  1  0  0  0  0
 14 18  1  0  0  0  0
 14 16  2  0  0  0  0
 15 17  2  0  0  0  0
 15 20  1  0  0  0  0
 16  3  1  0  0  0  0
 17 14  1  0  0  0  0
 19 15  1  0  0  0  0
 20 13  2  0  0  0  0
 21 24  1  6  0  0  0
 21  1  1  0  0  0  0
 21 22  1  0  0  0  0
 23 22  1  0  0  0  0
 25 24  1  0  0  0  0
 26 25  1  0  0  0  0
 27 26  1  0  0  0  0
 28 27  1  0  0  0  0
M  END
>  <MODEL>
3

>  <REMARK>
 VINA RESULT:      -9.4      3.267      5.922
  Name = 
  7 active torsions:
  status: ('A' for Active; 'I' for Inactive)
    1  A    between atoms: C_1  and  C_2
    2  A    between atoms: C_2  and  C_3
    3  A    between atoms: C_2  and  C_8
    4  A    between atoms: C_3  and  C_7
    5  A    between atoms: C_6  and  C_22
    6  A    between atoms: C_7  and  C_22
    7  A    between atoms: C_10  and  C_13
                            x       y       z     vdW  Elec       q    Type
                         _______ _______ _______ _____ _____    ______ ____

>  <TORSDO>
F 7

$$$$
=
 OpenBabel11052413293D

 28 30  0  0  1  0  0  0  0  0999 V2000
  185.3100  178.6090  144.8270 C   0  0  0  0  0  0  0  0  0  0  0  0
  189.3840  176.7690  146.4920 O   0  0  0  0  0  0  0  0  0  0  0  0
  188.4960  177.7280  143.0580 C   0  0  0  0  0  0  0  0  0  0  0  0
  190.3800  178.7260  144.3370 C   0  0  0  0  0  1  0  0  0  0  0  0
  187.3770  177.7720  145.7340 C   0  0  0  0  0  0  0  0  0  0  0  0
  187.2140  178.0740  143.2710 C   0  0  0  0  0  3  0  0  0  0  0  0
  185.5520  178.2480  147.1570 C   0  0  0  0  0  3  0  0  0  0  0  0
  188.7580  177.3100  145.5420 C   0  0  0  0  0  0  0  0  0  0  0  0
  186.8240  177.8120  146.9760 N   0  0  0  0  0  0  0  0  0  0  0  0
  189.4490  177.5300  144.2240 C   0  0  1  0  0  3  0  0  0  0  0  0
  184.8090  178.6450  146.0920 N   0  0  0  0  0  0  0  0  0  0  0  0
  186.6290  178.1730  144.6220 C   0  0  0  0  0  0  0  0  0  0  0  0
  188.4500  178.4540  140.6620 C   0  0  0  0  0  3  0  0  0  0  0  0
  190.0040  176.7040  141.2900 C   0  0  0  0  0  0  0  0  0  0  0  0
  189.9030  177.4800  138.9960 C   0  0  0  0  0  0  0  0  0  0  0  0
  188.9940  177.6220  141.6580 C   0  0  0  0  0  0  0  0  0  0  0  0
  190.4500  176.6400  139.9670 C   0  0  0  0  0  3  0  0  0  0  0  0
  190.5420  175.8450  142.1920 F   0  0  0  0  0  0  0  0  0  0  0  0
  190.3410  177.4120  137.7150 F   0  0  0  0  0  0  0  0  0  0  0  0
  188.9000  178.3850  139.3420 C   0  0  0  0  0  3  0  0  0  0  0  0
  184.4680  179.0820  143.6690 C   0  0  1  0  0  3  0  0  0  0  0  0
  184.3740  178.0880  142.5110 C   0  0  0  0  0  2  0  0  0  0  0  0
  184.3770  178.7410  141.2770 O   0  0  0  0  0  1  0  0  0  0  0  0
  183.1220  179.6900  144.0770 C   0  0  0  0  0  2  0  0  0  0  0  0
  181.9370  178.7610  143.8440 C   0  0  0  0  0  2  0  0  0  0  0  0
  180.9370  179.4160  142.9110 C   0  0  0  0  0  2  0  0  0  0  0  0
  180.8110  178.5900  141.6490 C   0  0  0  0  0  2  0  0  0  0  0  0
  180.8970  179.4270  140.5370 O   0  0  0  0  0  1  0  0  0  0  0  0
  1 11  1  0  0  0  0
  3  6  2  0  0  0  0
  3 10  1  0  0  0  0
  5  9  2  0  0  0  0
  6 12  1  0  0  0  0
  8  5  1  0  0  0  0
  8  2  2  0  0  0  0
  9  7  1  0  0  0  0
 10  4  1  1  0  0  0
 10  8  1  0  0  0  0
 11  7  2  0  0  0  0
 12  1  2  0  0  0  0
 12  5  1  0  0  0  0
 13 16  1  0  0  0  0
 14 16  2  0  0  0  0
 14 18  1  0  0  0  0
 15 20  1  0  0  0  0
 15 17  2  0  0  0  0
 16  3  1  0  0  0  0
 17 14  1  0  0  0  0
 19 15  1  0  0  0  0
 20 13  2  0  0  0  0
 21 22  1  6  0  0  0
 21 24  1  0  0  0  0
 21  1  1  0  0  0  0
 23 22  1  0  0  0  0
 25 24  1  0  0  0  0
 26 25  1  0  0  0  0
 27 26  1  0  0  0  0
 28 27  1  0  0  0  0
M  END
>  <MODEL>
4

>  <REMARK>
 VINA RESULT:      -8.4      3.297      5.576
  Name = 
  7 active torsions:
  status: ('A' for Active; 'I' for Inactive)
    1  A    between atoms: C_1  and  C_2
    2  A    between atoms: C_2  and  C_3
    3  A    between atoms: C_2  and  C_8
    4  A    between atoms: C_3  and  C_7
    5  A    between atoms: C_6  and  C_22
    6  A    between atoms: C_7  and  C_22
    7  A    between atoms: C_10  and  C_13
                            x       y       z     vdW  Elec       q    Type
                         _______ _______ _______ _____ _____    ______ ____

>  <TORSDO>
F 7

$$$$
=
 OpenBabel11052413293D

 28 30  0  0  1  0  0  0  0  0999 V2000
  185.0920  178.4160  142.7780 C   0  0  0  0  0  0  0  0  0  0  0  0
  184.1800  178.2530  147.4580 O   0  0  0  0  0  0  0  0  0  0  0  0
  187.3600  177.7440  145.6870 C   0  0  0  0  0  0  0  0  0  0  0  0
  186.9790  179.5260  147.3780 C   0  0  0  0  0  1  0  0  0  0  0  0
  184.5980  178.4430  145.1340 C   0  0  0  0  0  0  0  0  0  0  0  0
  186.9040  177.8370  144.4250 C   0  0  0  0  0  3  0  0  0  0  0  0
  182.9140  178.9420  143.5540 C   0  0  0  0  0  3  0  0  0  0  0  0
  185.0310  178.2750  146.5280 C   0  0  0  0  0  0  0  0  0  0  0  0
  183.3140  178.7770  144.8410 N   0  0  0  0  0  0  0  0  0  0  0  0
  186.4960  178.1840  146.8570 C   0  0  1  0  0  3  0  0  0  0  0  0
  183.7990  178.7670  142.5380 N   0  0  0  0  0  0  0  0  0  0  0  0
  185.5250  178.2540  144.1040 C   0  0  0  0  0  0  0  0  0  0  0  0
  189.7010  177.3720  144.8800 C   0  0  0  0  0  3  0  0  0  0  0  0
  189.1730  176.7520  147.1620 C   0  0  0  0  0  0  0  0  0  0  0  0
  191.4170  176.4410  146.3020 C   0  0  0  0  0  0  0  0  0  0  0  0
  188.7570  177.2830  145.9200 C   0  0  0  0  0  0  0  0  0  0  0  0
  190.4950  176.3370  147.3440 C   0  0  0  0  0  3  0  0  0  0  0  0
  188.3040  176.6010  148.1930 F   0  0  0  0  0  0  0  0  0  0  0  0
  192.6970  176.0370  146.4860 F   0  0  0  0  0  0  0  0  0  0  0  0
  191.0200  176.9560  145.0680 C   0  0  0  0  0  3  0  0  0  0  0  0
  186.0550  178.2560  141.6290 C   0  0  1  0  0  3  0  0  0  0  0  0
  185.4200  178.4190  140.2480 C   0  0  0  0  0  2  0  0  0  0  0  0
  185.0970  179.7530  139.9890 O   0  0  0  0  0  1  0  0  0  0  0  0
  187.3720  179.0210  141.8010 C   0  0  0  0  0  2  0  0  0  0  0  0
  188.5050  178.4890  140.9320 C   0  0  0  0  0  2  0  0  0  0  0  0
  188.9280  177.1140  141.4120 C   0  0  0  0  0  2  0  0  0  0  0  0
  190.3620  176.8570  141.0010 C   0  0  0  0  0  2  0  0  0  0  0  0
  191.1990  177.7620  141.6520 O   0  0  0  0  0  1  0  0  0  0  0  0
  1 12  1  0  0  0  0
  3 16  1  0  0  0  0
  3 10  1  0  0  0  0
  5  8  1  0  0  0  0
  6  3  2  0  0  0  0
  7  9  2  0  0  0  0
  8 10  1  0  0  0  0
  8  2  2  0  0  0  0
  9  5  1  0  0  0  0
 10  4  1  6  0  0  0
 11  1  2  0  0  0  0
 11  7  1  0  0  0  0
 12  6  1  0  0  0  0
 12  5  2  0  0  0  0
 13 20  2  0  0  0  0
 13 16  1  0  0  0  0
 14 17  1  0  0  0  0
 14 18  1  0  0  0  0
 15 19  1  0  0  0  0
 15 17  2  0  0  0  0
 16 14  2  0  0  0  0
 20 15  1  0  0  0  0
 21 22  1  6  0  0  0
 21 24  1  0  0  0  0
 21  1  1  0  0  0  0
 23 22  1  0  0  0  0
 25 26  1  0  0  0  0
 25 24  1  0  0  0  0
 27 26  1  0  0  0  0
 27 28  1  0  0  0  0
M  END
>  <MODEL>
5

>  <REMARK>
 VINA RESULT:      -8.3      2.132      5.254
  Name = 
  7 active torsions:
  status: ('A' for Active; 'I' for Inactive)
    1  A    between atoms: C_1  and  C_2
    2  A    between atoms: C_2  and  C_3
    3  A    between atoms: C_2  and  C_8
    4  A    between atoms: C_3  and  C_7
    5  A    between atoms: C_6  and  C_22
    6  A    between atoms: C_7  and  C_22
    7  A    between atoms: C_10  and  C_13
                            x       y       z     vdW  Elec       q    Type
                         _______ _______ _______ _____ _____    ______ ____

>  <TORSDO>
F 7

$$$$
=
 OpenBabel11052413293D

 28 30  0  0  1  0  0  0  0  0999 V2000
  187.0900  178.4180  140.2140 C   0  0  0  0  0  0  0  0  0  0  0  0
  191.6730  177.4510  141.1240 O   0  0  0  0  0  0  0  0  0  0  0  0
  188.8220  177.6010  143.4370 C   0  0  0  0  0  0  0  0  0  0  0  0
  190.2060  175.5690  143.0660 C   0  0  0  0  0  1  0  0  0  0  0  0
  189.3950  177.8400  140.6030 C   0  0  0  0  0  0  0  0  0  0  0  0
  187.8770  178.0010  142.5670 C   0  0  0  0  0  3  0  0  0  0  0  0
  188.6260  178.2790  138.4130 C   0  0  0  0  0  3  0  0  0  0  0  0
  190.4790  177.4780  141.5260 C   0  0  0  0  0  0  0  0  0  0  0  0
  189.6280  177.9540  139.2690 N   0  0  0  0  0  0  0  0  0  0  0  0
  190.1620  177.0830  142.9430 C   0  0  1  0  0  3  0  0  0  0  0  0
  187.3720  178.5030  138.8850 N   0  0  0  0  0  0  0  0  0  0  0  0
  188.1120  178.0710  141.1120 C   0  0  0  0  0  0  0  0  0  0  0  0
  189.5530  177.6860  145.8310 C   0  0  0  0  0  3  0  0  0  0  0  0
  187.1820  177.4900  145.3720 C   0  0  0  0  0  0  0  0  0  0  0  0
  187.9780  177.5960  147.6600 C   0  0  0  0  0  0  0  0  0  0  0  0
  188.5080  177.5920  144.8930 C   0  0  0  0  0  0  0  0  0  0  0  0
  186.9270  177.4930  146.7470 C   0  0  0  0  0  3  0  0  0  0  0  0
  186.1320  177.3550  144.5240 F   0  0  0  0  0  0  0  0  0  0  0  0
  187.7220  177.5990  148.9900 F   0  0  0  0  0  0  0  0  0  0  0  0
  189.2920  177.6890  147.2020 C   0  0  0  0  0  3  0  0  0  0  0  0
  185.6830  178.6470  140.7020 C   0  0  1  0  0  3  0  0  0  0  0  0
  185.5870  179.4790  141.9810 C   0  0  0  0  0  2  0  0  0  0  0  0
  184.4130  179.1980  142.6850 O   0  0  0  0  0  1  0  0  0  0  0  0
  184.6990  179.0750  139.6080 C   0  0  0  0  0  2  0  0  0  0  0  0
  183.8620  177.9270  139.0560 C   0  0  0  0  0  2  0  0  0  0  0  0
  183.0940  177.2560  140.1780 C   0  0  0  0  0  2  0  0  0  0  0  0
  181.6280  177.6180  140.0730 C   0  0  0  0  0  2  0  0  0  0  0  0
  181.3490  178.6750  140.9380 O   0  0  0  0  0  1  0  0  0  0  0  0
  1 21  1  0  0  0  0
  1 12  1  0  0  0  0
  2  8  2  0  0  0  0
  3 16  1  0  0  0  0
  5 12  2  0  0  0  0
  5  8  1  0  0  0  0
  6  3  2  0  0  0  0
  7 11  1  0  0  0  0
  7  9  2  0  0  0  0
  8 10  1  0  0  0  0
  9  5  1  0  0  0  0
 10  4  1  6  0  0  0
 10  3  1  0  0  0  0
 11  1  2  0  0  0  0
 12  6  1  0  0  0  0
 13 20  1  0  0  0  0
 14 17  2  0  0  0  0
 15 19  1  0  0  0  0
 16 14  1  0  0  0  0
 16 13  2  0  0  0  0
 17 15  1  0  0  0  0
 18 14  1  0  0  0  0
 20 15  2  0  0  0  0
 21 24  1  6  0  0  0
 21 22  1  0  0  0  0
 22 23  1  0  0  0  0
 25 24  1  0  0  0  0
 25 26  1  0  0  0  0
 27 26  1  0  0  0  0
 27 28  1  0  0  0  0
M  END
>  <MODEL>
6

>  <REMARK>
 VINA RESULT:      -8.1      1.637      2.495
  Name = 
  7 active torsions:
  status: ('A' for Active; 'I' for Inactive)
    1  A    between atoms: C_1  and  C_2
    2  A    between atoms: C_2  and  C_3
    3  A    between atoms: C_2  and  C_8
    4  A    between atoms: C_3  and  C_7
    5  A    between atoms: C_6  and  C_22
    6  A    between atoms: C_7  and  C_22
    7  A    between atoms: C_10  and  C_13
                            x       y       z     vdW  Elec       q    Type
                         _______ _______ _______ _____ _____    ______ ____

>  <TORSDO>
F 7

$$$$
=
 OpenBabel11052413293D

 28 30  0  0  1  0  0  0  0  0999 V2000
  185.1510  178.7390  142.9810 C   0  0  0  0  0  0  0  0  0  0  0  0
  188.9990  178.4090  140.1800 O   0  0  0  0  0  0  0  0  0  0  0  0
  188.6610  177.6780  143.7650 C   0  0  0  0  0  0  0  0  0  0  0  0
  189.3490  176.0020  142.0630 C   0  0  0  0  0  1  0  0  0  0  0  0
  187.0370  178.4960  141.5050 C   0  0  0  0  0  0  0  0  0  0  0  0
  187.3810  178.0590  143.9280 C   0  0  0  0  0  3  0  0  0  0  0  0
  184.9360  179.1720  140.6600 C   0  0  0  0  0  3  0  0  0  0  0  0
  188.4530  178.1660  141.2890 C   0  0  0  0  0  0  0  0  0  0  0  0
  186.2470  178.8760  140.4660 N   0  0  0  0  0  0  0  0  0  0  0  0
  189.2410  177.4850  142.3750 C   0  0  1  0  0  3  0  0  0  0  0  0
  184.3990  179.0980  141.9050 N   0  0  0  0  0  0  0  0  0  0  0  0
  186.5060  178.4170  142.7960 C   0  0  0  0  0  0  0  0  0  0  0  0
  190.8840  177.3020  144.8560 C   0  0  0  0  0  3  0  0  0  0  0  0
  188.8970  177.1270  146.2330 C   0  0  0  0  0  0  0  0  0  0  0  0
  191.0910  176.7940  147.2090 C   0  0  0  0  0  0  0  0  0  0  0  0
  189.4820  177.3660  144.9690 C   0  0  0  0  0  0  0  0  0  0  0  0
  189.7030  176.8450  147.3400 C   0  0  0  0  0  3  0  0  0  0  0  0
  187.5510  177.1320  146.4020 F   0  0  0  0  0  0  0  0  0  0  0  0
  191.8640  176.5200  148.2870 F   0  0  0  0  0  0  0  0  0  0  0  0
  191.6820  177.0200  145.9660 C   0  0  0  0  0  3  0  0  0  0  0  0
  184.5180  178.6410  144.3450 C   0  0  1  0  0  3  0  0  0  0  0  0
  185.4560  178.9870  145.5020 C   0  0  0  0  0  2  0  0  0  0  0  0
  184.8690  178.7010  146.7370 O   0  0  0  0  0  1  0  0  0  0  0  0
  183.1380  179.3010  144.4470 C   0  0  0  0  0  2  0  0  0  0  0  0
  182.0020  178.4210  143.9400 C   0  0  0  0  0  2  0  0  0  0  0  0
  181.0720  179.2290  143.0560 C   0  0  0  0  0  2  0  0  0  0  0  0
  179.6390  178.8250  143.3300 C   0  0  0  0  0  2  0  0  0  0  0  0
  179.6130  177.8730  144.3480 O   0  0  0  0  0  1  0  0  0  0  0  0
  1 21  1  0  0  0  0
  2  8  2  0  0  0  0
  3  6  2  0  0  0  0
  3 16  1  0  0  0  0
  5 12  2  0  0  0  0
  7 11  1  0  0  0  0
  8  5  1  0  0  0  0
  8 10  1  0  0  0  0
  9  7  2  0  0  0  0
  9  5  1  0  0  0  0
 10  4  1  6  0  0  0
 10  3  1  0  0  0  0
 11  1  2  0  0  0  0
 12  1  1  0  0  0  0
 12  6  1  0  0  0  0
 13 16  2  0  0  0  0
 13 20  1  0  0  0  0
 14 18  1  0  0  0  0
 14 17  2  0  0  0  0
 15 17  1  0  0  0  0
 15 19  1  0  0  0  0
 16 14  1  0  0  0  0
 20 15  2  0  0  0  0
 21 24  1  6  0  0  0
 21 22  1  0  0  0  0
 22 23  1  0  0  0  0
 25 24  1  0  0  0  0
 26 27  1  0  0  0  0
 26 25  1  0  0  0  0
 27 28  1  0  0  0  0
M  END
>  <MODEL>
7

>  <REMARK>
 VINA RESULT:      -8.1      2.181      3.571
  Name = 
  7 active torsions:
  status: ('A' for Active; 'I' for Inactive)
    1  A    between atoms: C_1  and  C_2
    2  A    between atoms: C_2  and  C_3
    3  A    between atoms: C_2  and  C_8
    4  A    between atoms: C_3  and  C_7
    5  A    between atoms: C_6  and  C_22
    6  A    between atoms: C_7  and  C_22
    7  A    between atoms: C_10  and  C_13
                            x       y       z     vdW  Elec       q    Type
                         _______ _______ _______ _____ _____    ______ ____

>  <TORSDO>
F 7

$$$$
=
 OpenBabel11052413293D

 28 30  0  0  1  0  0  0  0  0999 V2000
  186.9740  178.3880  140.5720 C   0  0  0  0  0  0  0  0  0  0  0  0
  191.6110  177.4230  141.1420 O   0  0  0  0  0  0  0  0  0  0  0  0
  188.9380  177.5640  143.6580 C   0  0  0  0  0  0  0  0  0  0  0  0
  190.2920  175.5350  143.1810 C   0  0  0  0  0  1  0  0  0  0  0  0
  189.3010  177.8110  140.7900 C   0  0  0  0  0  0  0  0  0  0  0  0
  187.9310  177.9650  142.8600 C   0  0  0  0  0  3  0  0  0  0  0  0
  188.3740  178.2550  138.6630 C   0  0  0  0  0  3  0  0  0  0  0  0
  190.4500  177.4470  141.6310 C   0  0  0  0  0  0  0  0  0  0  0  0
  189.4360  177.9280  139.4430 N   0  0  0  0  0  0  0  0  0  0  0  0
  190.2380  177.0490  143.0660 C   0  0  1  0  0  3  0  0  0  0  0  0
  187.1580  178.4770  139.2260 N   0  0  0  0  0  0  0  0  0  0  0  0
  188.0590  178.0390  141.3930 C   0  0  0  0  0  0  0  0  0  0  0  0
  187.4220  177.5670  145.6520 C   0  0  0  0  0  3  0  0  0  0  0  0
  189.8130  177.5250  146.0410 C   0  0  0  0  0  0  0  0  0  0  0  0
  188.2720  177.5150  147.9120 C   0  0  0  0  0  0  0  0  0  0  0  0
  188.7300  177.5510  145.1330 C   0  0  0  0  0  0  0  0  0  0  0  0
  189.5770  177.5070  147.4190 C   0  0  0  0  0  3  0  0  0  0  0  0
  191.0990  177.5510  145.6090 F   0  0  0  0  0  0  0  0  0  0  0  0
  188.0520  177.4960  149.2490 F   0  0  0  0  0  0  0  0  0  0  0  0
  187.1930  177.5480  147.0290 C   0  0  0  0  0  3  0  0  0  0  0  0
  185.6060  178.6140  141.1630 C   0  0  1  0  0  3  0  0  0  0  0  0
  185.5750  179.6190  142.3140 C   0  0  0  0  0  2  0  0  0  0  0  0
  184.5610  179.3170  143.2270 O   0  0  0  0  0  1  0  0  0  0  0  0
  184.4990  178.8250  140.1240 C   0  0  0  0  0  2  0  0  0  0  0  0
  183.3030  177.8990  140.3080 C   0  0  0  0  0  2  0  0  0  0  0  0
  182.0180  178.7030  140.3160 C   0  0  0  0  0  2  0  0  0  0  0  0
  181.3910  178.6360  141.6920 C   0  0  0  0  0  2  0  0  0  0  0  0
  180.6980  179.8190  141.9440 O   0  0  0  0  0  1  0  0  0  0  0  0
  1 21  1  0  0  0  0
  1 12  1  0  0  0  0
  2  8  2  0  0  0  0
  3 16  1  0  0  0  0
  5 12  2  0  0  0  0
  5  8  1  0  0  0  0
  6  3  2  0  0  0  0
  7 11  1  0  0  0  0
  7  9  2  0  0  0  0
  8 10  1  0  0  0  0
  9  5  1  0  0  0  0
 10  4  1  6  0  0  0
 10  3  1  0  0  0  0
 11  1  2  0  0  0  0
 12  6  1  0  0  0  0
 13 20  1  0  0  0  0
 14 17  2  0  0  0  0
 15 19  1  0  0  0  0
 16 13  2  0  0  0  0
 16 14  1  0  0  0  0
 17 15  1  0  0  0  0
 18 14  1  0  0  0  0
 20 15  2  0  0  0  0
 21 24  1  6  0  0  0
 21 22  1  0  0  0  0
 22 23  1  0  0  0  0
 24 25  1  0  0  0  0
 25 26  1  0  0  0  0
 26 27  1  0  0  0  0
 27 28  1  0  0  0  0
M  END
>  <MODEL>
8

>  <REMARK>
 VINA RESULT:      -8.0      1.426      1.898
  Name = 
  7 active torsions:
  status: ('A' for Active; 'I' for Inactive)
    1  A    between atoms: C_1  and  C_2
    2  A    between atoms: C_2  and  C_3
    3  A    between atoms: C_2  and  C_8
    4  A    between atoms: C_3  and  C_7
    5  A    between atoms: C_6  and  C_22
    6  A    between atoms: C_7  and  C_22
    7  A    between atoms: C_10  and  C_13
                            x       y       z     vdW  Elec       q    Type
                         _______ _______ _______ _____ _____    ______ ____

>  <TORSDO>
F 7

$$$$
=
 OpenBabel11052413293D

 28 30  0  0  1  0  0  0  0  0999 V2000
  189.4160  177.8010  139.8150 C   0  0  0  0  0  0  0  0  0  0  0  0
  190.1320  177.9160  144.5300 O   0  0  0  0  0  0  0  0  0  0  0  0
  186.9860  178.1560  142.6470 C   0  0  0  0  0  0  0  0  0  0  0  0
  187.4810  176.3720  144.3060 C   0  0  0  0  0  1  0  0  0  0  0  0
  189.8220  177.7540  142.1870 C   0  0  0  0  0  0  0  0  0  0  0  0
  187.4950  178.1470  141.4020 C   0  0  0  0  0  3  0  0  0  0  0  0
  191.6050  177.4730  140.6630 C   0  0  0  0  0  3  0  0  0  0  0  0
  189.3230  177.8360  143.5670 C   0  0  0  0  0  0  0  0  0  0  0  0
  191.1440  177.5590  141.9370 N   0  0  0  0  0  0  0  0  0  0  0  0
  187.8450  177.7710  143.8390 C   0  0  1  0  0  3  0  0  0  0  0  0
  190.7460  177.5880  139.6180 N   0  0  0  0  0  0  0  0  0  0  0  0
  188.9190  177.8800  141.1260 C   0  0  0  0  0  0  0  0  0  0  0  0
  184.6420  178.2670  141.7730 C   0  0  0  0  0  3  0  0  0  0  0  0
  185.0370  178.9670  144.0590 C   0  0  0  0  0  0  0  0  0  0  0  0
  182.7960  179.0260  143.1340 C   0  0  0  0  0  0  0  0  0  0  0  0
  185.5410  178.4690  142.8360 C   0  0  0  0  0  0  0  0  0  0  0  0
  183.6730  179.2410  144.1990 C   0  0  0  0  0  3  0  0  0  0  0  0
  185.8550  179.2230  145.1100 F   0  0  0  0  0  0  0  0  0  0  0  0
  181.4760  179.2930  143.2790 F   0  0  0  0  0  0  0  0  0  0  0  0
  183.2810  178.5420  141.9190 C   0  0  0  0  0  3  0  0  0  0  0  0
  188.4850  177.8980  138.6330 C   0  0  1  0  0  3  0  0  0  0  0  0
  188.9210  178.9050  137.5680 C   0  0  0  0  0  2  0  0  0  0  0  0
  187.8200  179.5040  136.9520 O   0  0  0  0  0  1  0  0  0  0  0  0
  188.0470  176.5440  138.0640 C   0  0  0  0  0  2  0  0  0  0  0  0
  188.8860  176.0780  136.8810 C   0  0  0  0  0  2  0  0  0  0  0  0
  189.0930  174.5770  136.9480 C   0  0  0  0  0  2  0  0  0  0  0  0
  190.5740  174.2710  136.9080 C   0  0  0  0  0  2  0  0  0  0  0  0
  191.1450  174.5810  138.1410 O   0  0  0  0  0  1  0  0  0  0  0  0
  1 12  1  0  0  0  0
  3 16  1  0  0  0  0
  3 10  1  0  0  0  0
  5  8  1  0  0  0  0
  6  3  2  0  0  0  0
  7  9  2  0  0  0  0
  8 10  1  0  0  0  0
  8  2  2  0  0  0  0
  9  5  1  0  0  0  0
 10  4  1  6  0  0  0
 11  1  2  0  0  0  0
 11  7  1  0  0  0  0
 12  6  1  0  0  0  0
 12  5  2  0  0  0  0
 13 20  2  0  0  0  0
 13 16  1  0  0  0  0
 14 17  1  0  0  0  0
 14 18  1  0  0  0  0
 15 19  1  0  0  0  0
 15 17  2  0  0  0  0
 16 14  2  0  0  0  0
 20 15  1  0  0  0  0
 21 22  1  6  0  0  0
 21  1  1  0  0  0  0
 23 22  1  0  0  0  0
 24 21  1  0  0  0  0
 25 26  1  0  0  0  0
 25 24  1  0  0  0  0
 27 26  1  0  0  0  0
 27 28  1  0  0  0  0
M  END
>  <MODEL>
9

>  <REMARK>
 VINA RESULT:      -7.9      2.849      5.677
  Name = 
  7 active torsions:
  status: ('A' for Active; 'I' for Inactive)
    1  A    between atoms: C_1  and  C_2
    2  A    between atoms: C_2  and  C_3
    3  A    between atoms: C_2  and  C_8
    4  A    between atoms: C_3  and  C_7
    5  A    between atoms: C_6  and  C_22
    6  A    between atoms: C_7  and  C_22
    7  A    between atoms: C_10  and  C_13
                            x       y       z     vdW  Elec       q    Type
                         _______ _______ _______ _____ _____    ______ ____

>  <TORSDO>
F 7

$$$$
