=
 OpenBabel11052413123D

 31 35  0  0  1  0  0  0  0  0999 V2000
  187.3660  178.3190  146.7090 C   0  0  0  0  0  0  0  0  0  0  0  0
  186.9060  177.3760  143.0170 C   0  0  1  0  0  3  0  0  0  0  0  0
  188.3450  177.0480  142.6710 C   0  0  0  0  0  0  0  0  0  0  0  0
  190.0530  175.9910  144.0920 C   0  0  0  0  0  3  0  0  0  0  0  0
  186.6780  177.8490  144.4310 C   0  0  0  0  0  0  0  0  0  0  0  0
  186.0670  178.7400  147.0160 C   0  0  0  0  0  3  0  0  0  0  0  0
  188.8870  175.7570  143.1960 C   0  0  0  0  0  2  0  0  0  0  0  0
  184.9230  178.8890  142.4450 N   0  0  0  0  0  0  0  0  0  0  0  0
  188.3270  178.3390  147.6630 F   0  0  0  0  0  0  0  0  0  0  0  0
  188.4330  178.9210  141.0340 C   0  0  0  0  0  2  0  0  0  0  0  0
  191.1850  176.5370  143.6540 C   0  0  0  0  0  3  0  0  0  0  0  0
  184.3700  178.2590  143.6530 C   0  0  0  0  0  2  0  0  0  0  0  0
  186.2180  178.3230  141.9980 C   0  0  1  0  0  3  0  0  0  0  0  0
  187.6730  177.8730  145.4190 C   0  0  0  0  0  3  0  0  0  0  0  0
  191.3780  177.0100  142.3130 N   0  0  0  0  0  0  0  0  0  0  0  0
  185.3860  178.2740  144.7450 C   0  0  0  0  0  0  0  0  0  0  0  0
  185.0730  178.7180  146.0330 C   0  0  0  0  0  3  0  0  0  0  0  0
  187.1640  179.4690  141.6690 C   0  0  0  0  0  2  0  0  0  0  0  0
  189.0800  177.8310  141.8490 C   0  0  0  0  0  0  0  0  0  0  0  0
  190.4990  177.5580  141.5220 C   0  0  0  0  0  3  0  0  0  0  0  0
  183.9750  178.6720  141.3610 C   0  0  0  0  0  2  0  0  0  0  0  0
  184.3250  180.1300  139.4940 O   0  0  0  0  0  1  0  0  0  0  0  0
  184.6540  178.8760  140.0110 C   0  0  2  0  0  3  0  0  0  0  0  0
  183.5060  175.8090  137.2190 C   0  0  0  0  0  0  0  0  0  0  0  0
  183.1420  176.9890  139.3020 C   0  0  0  0  0  3  0  0  0  0  0  0
  186.0760  178.3820  137.5970 F   0  0  0  0  0  0  0  0  0  0  0  0
  183.0400  174.5610  136.0820 Cl  0  0  0  0  0  0  0  0  0  0  0  0
  182.7690  175.9940  138.3930 C   0  0  0  0  0  3  0  0  0  0  0  0
  184.9910  177.6140  137.8630 C   0  0  0  0  0  0  0  0  0  0  0  0
  184.2570  177.8020  139.0440 C   0  0  0  0  0  0  0  0  0  0  0  0
  184.6160  176.6180  136.9550 C   0  0  0  0  0  3  0  0  0  0  0  0
  1  6  1  0  0  0  0
  1  9  1  0  0  0  0
  2  3  1  6  0  0  0
  2  5  1  0  0  0  0
  3  7  1  0  0  0  0
  5 16  2  0  0  0  0
  5 14  1  0  0  0  0
  7  4  1  0  0  0  0
  8 12  1  0  0  0  0
 10 18  1  0  0  0  0
 10 19  1  0  0  0  0
 11  4  2  0  0  0  0
 12 16  1  0  0  0  0
 13 18  1  1  0  0  0
 13  8  1  0  0  0  0
 13  2  1  0  0  0  0
 14  1  2  0  0  0  0
 15 11  1  0  0  0  0
 16 17  1  0  0  0  0
 17  6  2  0  0  0  0
 19  3  2  0  0  0  0
 20 19  1  0  0  0  0
 20 15  2  0  0  0  0
 21  8  1  0  0  0  0
 23 22  1  6  0  0  0
 23 21  1  0  0  0  0
 24 28  1  0  0  0  0
 26 29  1  0  0  0  0
 27 24  1  0  0  0  0
 28 25  2  0  0  0  0
 29 30  2  0  0  0  0
 30 25  1  0  0  0  0
 30 23  1  0  0  0  0
 31 24  2  0  0  0  0
 31 29  1  0  0  0  0
M  END
>  <MODEL>
1

>  <REMARK>
 VINA RESULT:      -9.0      0.000      0.000
  Name = 
  3 active torsions:
  status: ('A' for Active; 'I' for Inactive)
    1  A    between atoms: C_9  and  C_22
    2  A    between atoms: C_9  and  C_23
    3  A    between atoms: N_15  and  C_23
                            x       y       z     vdW  Elec       q    Type
                         _______ _______ _______ _____ _____    ______ ____

>  <TORSDO>
F 3

$$$$
=
 OpenBabel11052413123D

 31 35  0  0  1  0  0  0  0  0999 V2000
  193.0810  176.7370  137.9200 C   0  0  0  0  0  0  0  0  0  0  0  0
  189.4410  176.3320  139.0670 C   0  0  1  0  0  3  0  0  0  0  0  0
  188.7930  176.0620  137.7230 C   0  0  0  0  0  0  0  0  0  0  0  0
  189.7120  174.8190  135.8080 C   0  0  0  0  0  3  0  0  0  0  0  0
  190.9250  176.5960  139.0220 C   0  0  0  0  0  0  0  0  0  0  0  0
  193.6780  177.1050  139.1320 C   0  0  0  0  0  3  0  0  0  0  0  0
  189.0220  174.7110  137.1230 C   0  0  0  0  0  2  0  0  0  0  0  0
  189.4620  177.9030  141.0860 N   0  0  0  0  0  0  0  0  0  0  0  0
  193.8350  176.6240  136.8020 F   0  0  0  0  0  0  0  0  0  0  0  0
  187.4500  178.1510  137.8920 C   0  0  0  0  0  2  0  0  0  0  0  0
  189.1560  175.4260  134.7630 C   0  0  0  0  0  3  0  0  0  0  0  0
  190.6500  177.1040  141.4240 C   0  0  0  0  0  2  0  0  0  0  0  0
  188.7090  177.4120  139.9070 C   0  0  1  0  0  3  0  0  0  0  0  0
  191.7070  176.4820  137.8630 C   0  0  0  0  0  3  0  0  0  0  0  0
  187.8830  176.0880  134.8060 N   0  0  0  0  0  0  0  0  0  0  0  0
  191.5280  176.9660  140.2260 C   0  0  0  0  0  0  0  0  0  0  0  0
  192.9010  177.2200  140.2880 C   0  0  0  0  0  3  0  0  0  0  0  0
  188.3790  178.5980  139.0110 C   0  0  0  0  0  2  0  0  0  0  0  0
  187.9690  176.9580  137.1320 C   0  0  0  0  0  0  0  0  0  0  0  0
  187.3530  176.7390  135.8030 C   0  0  0  0  0  3  0  0  0  0  0  0
  188.5510  177.8400  142.2200 C   0  0  0  0  0  2  0  0  0  0  0  0
  188.1790  175.5620  142.8560 O   0  0  0  0  0  1  0  0  0  0  0  0
  188.9370  176.6950  143.1500 C   0  0  2  0  0  3  0  0  0  0  0  0
  188.3880  177.7860  147.2770 C   0  0  0  0  0  0  0  0  0  0  0  0
  187.4690  177.4170  145.0670 C   0  0  0  0  0  3  0  0  0  0  0  0
  191.0830  176.7880  145.0160 F   0  0  0  0  0  0  0  0  0  0  0  0
  188.1660  178.2300  148.9560 Cl  0  0  0  0  0  0  0  0  0  0  0  0
  187.2920  177.7690  146.4090 C   0  0  0  0  0  3  0  0  0  0  0  0
  189.8410  177.0990  145.4610 C   0  0  0  0  0  0  0  0  0  0  0  0
  188.7450  177.0830  144.5840 C   0  0  0  0  0  0  0  0  0  0  0  0
  189.6610  177.4520  146.8030 C   0  0  0  0  0  3  0  0  0  0  0  0
  1  6  1  0  0  0  0
  2  3  1  6  0  0  0
  2 13  1  0  0  0  0
  4  7  1  0  0  0  0
  5  2  1  0  0  0  0
  5 16  2  0  0  0  0
  6 17  2  0  0  0  0
  7  3  1  0  0  0  0
  8 12  1  0  0  0  0
  8 21  1  0  0  0  0
  9  1  1  0  0  0  0
 10 18  1  0  0  0  0
 11 15  1  0  0  0  0
 11  4  2  0  0  0  0
 13 18  1  6  0  0  0
 13  8  1  0  0  0  0
 14  1  2  0  0  0  0
 14  5  1  0  0  0  0
 15 20  2  0  0  0  0
 16 17  1  0  0  0  0
 16 12  1  0  0  0  0
 19  3  2  0  0  0  0
 19 10  1  0  0  0  0
 20 19  1  0  0  0  0
 21 23  1  0  0  0  0
 23 22  1  6  0  0  0
 23 30  1  0  0  0  0
 24 27  1  0  0  0  0
 25 28  1  0  0  0  0
 26 29  1  0  0  0  0
 28 24  2  0  0  0  0
 29 31  2  0  0  0  0
 30 25  2  0  0  0  0
 30 29  1  0  0  0  0
 31 24  1  0  0  0  0
M  END
>  <MODEL>
2

>  <REMARK>
 VINA RESULT:      -8.7      4.520      8.156
  Name = 
  3 active torsions:
  status: ('A' for Active; 'I' for Inactive)
    1  A    between atoms: C_9  and  C_22
    2  A    between atoms: C_9  and  C_23
    3  A    between atoms: N_15  and  C_23
                            x       y       z     vdW  Elec       q    Type
                         _______ _______ _______ _____ _____    ______ ____

>  <TORSDO>
F 3

$$$$
=
 OpenBabel11052413123D

 31 35  0  0  1  0  0  0  0  0999 V2000
  185.2500  178.3970  139.5530 C   0  0  0  0  0  0  0  0  0  0  0  0
  189.0870  178.4020  139.4650 C   0  0  1  0  0  3  0  0  0  0  0  0
  189.2950  178.1200  137.9900 C   0  0  0  0  0  0  0  0  0  0  0  0
  187.9390  178.8840  136.0840 C   0  0  0  0  0  3  0  0  0  0  0  0
  187.6480  178.4350  139.9150 C   0  0  0  0  0  0  0  0  0  0  0  0
  185.0390  178.5380  140.9300 C   0  0  0  0  0  3  0  0  0  0  0  0
  189.0190  179.2440  137.0430 C   0  0  0  0  0  2  0  0  0  0  0  0
  189.5600  177.5490  141.8310 N   0  0  0  0  0  0  0  0  0  0  0  0
  184.1930  178.3140  138.7110 F   0  0  0  0  0  0  0  0  0  0  0  0
  190.4140  175.9570  138.5070 C   0  0  0  0  0  2  0  0  0  0  0  0
  188.0710  177.8920  135.2070 C   0  0  0  0  0  3  0  0  0  0  0  0
  188.6250  178.6310  142.1760 C   0  0  0  0  0  2  0  0  0  0  0  0
  189.9410  177.5030  140.3990 C   0  0  1  0  0  3  0  0  0  0  0  0
  186.5520  178.3460  139.0440 C   0  0  0  0  0  3  0  0  0  0  0  0
  189.2210  177.0360  135.1340 N   0  0  0  0  0  0  0  0  0  0  0  0
  187.4280  178.5710  141.2870 C   0  0  0  0  0  0  0  0  0  0  0  0
  186.1290  178.6250  141.8000 C   0  0  0  0  0  3  0  0  0  0  0  0
  189.8520  176.0610  139.9170 C   0  0  0  0  0  2  0  0  0  0  0  0
  189.7970  176.9430  137.5490 C   0  0  0  0  0  0  0  0  0  0  0  0
  189.9760  176.6240  136.1140 C   0  0  0  0  0  3  0  0  0  0  0  0
  190.7870  177.7700  142.5830 C   0  0  0  0  0  2  0  0  0  0  0  0
  190.5160  175.4430  143.0780 O   0  0  0  0  0  1  0  0  0  0  0  0
  191.0040  176.6450  143.5890 C   0  0  2  0  0  3  0  0  0  0  0  0
  189.0830  177.5160  147.3400 C   0  0  0  0  0  0  0  0  0  0  0  0
  189.0070  177.4080  144.9220 C   0  0  0  0  0  3  0  0  0  0  0  0
  192.3200  176.3560  146.0960 F   0  0  0  0  0  0  0  0  0  0  0  0
  188.3030  177.8710  148.8670 Cl  0  0  0  0  0  0  0  0  0  0  0  0
  188.3840  177.6890  146.1420 C   0  0  0  0  0  3  0  0  0  0  0  0
  191.0330  176.7830  146.0990 C   0  0  0  0  0  0  0  0  0  0  0  0
  190.3360  176.9570  144.8940 C   0  0  0  0  0  0  0  0  0  0  0  0
  190.4070  177.0650  147.3190 C   0  0  0  0  0  3  0  0  0  0  0  0
  1  6  1  0  0  0  0
  2  3  1  6  0  0  0
  2  5  1  0  0  0  0
  2 13  1  0  0  0  0
  4  7  1  0  0  0  0
  5 16  2  0  0  0  0
  6 17  2  0  0  0  0
  7  3  1  0  0  0  0
  8 12  1  0  0  0  0
  8 21  1  0  0  0  0
  9  1  1  0  0  0  0
 10 18  1  0  0  0  0
 11  4  2  0  0  0  0
 13 18  1  6  0  0  0
 13  8  1  0  0  0  0
 14  1  2  0  0  0  0
 14  5  1  0  0  0  0
 15 11  1  0  0  0  0
 15 20  2  0  0  0  0
 16 17  1  0  0  0  0
 16 12  1  0  0  0  0
 19  3  2  0  0  0  0
 19 10  1  0  0  0  0
 20 19  1  0  0  0  0
 21 23  1  0  0  0  0
 23 22  1  6  0  0  0
 23 30  1  0  0  0  0
 24 27  1  0  0  0  0
 25 28  1  0  0  0  0
 26 29  1  0  0  0  0
 28 24  2  0  0  0  0
 29 31  2  0  0  0  0
 30 25  2  0  0  0  0
 30 29  1  0  0  0  0
 31 24  1  0  0  0  0
M  END
>  <MODEL>
3

>  <REMARK>
 VINA RESULT:      -8.4      4.112      7.753
  Name = 
  3 active torsions:
  status: ('A' for Active; 'I' for Inactive)
    1  A    between atoms: C_9  and  C_22
    2  A    between atoms: C_9  and  C_23
    3  A    between atoms: N_15  and  C_23
                            x       y       z     vdW  Elec       q    Type
                         _______ _______ _______ _____ _____    ______ ____

>  <TORSDO>
F 3

$$$$
=
 OpenBabel11052413123D

 31 35  0  0  1  0  0  0  0  0999 V2000
  188.3120  178.2870  146.8000 C   0  0  0  0  0  0  0  0  0  0  0  0
  187.3460  177.0920  143.2820 C   0  0  1  0  0  3  0  0  0  0  0  0
  188.7340  176.9080  142.7010 C   0  0  0  0  0  0  0  0  0  0  0  0
  190.7740  176.1310  143.8360 C   0  0  0  0  0  3  0  0  0  0  0  0
  187.3080  177.6160  144.6960 C   0  0  0  0  0  0  0  0  0  0  0  0
  187.0430  178.5760  147.3150 C   0  0  0  0  0  3  0  0  0  0  0  0
  189.5090  175.7180  143.1690 C   0  0  0  0  0  2  0  0  0  0  0  0
  185.1280  178.3390  143.0130 N   0  0  0  0  0  0  0  0  0  0  0  0
  189.4110  178.4680  147.5690 F   0  0  0  0  0  0  0  0  0  0  0  0
  188.3170  178.6850  141.0070 C   0  0  0  0  0  2  0  0  0  0  0  0
  191.7410  176.7750  143.1870 C   0  0  0  0  0  3  0  0  0  0  0  0
  184.8680  177.7190  144.3220 C   0  0  0  0  0  2  0  0  0  0  0  0
  186.3870  177.8970  142.3660 C   0  0  1  0  0  3  0  0  0  0  0  0
  188.4460  177.8060  145.4930 C   0  0  0  0  0  3  0  0  0  0  0  0
  191.6450  177.1910  141.8170 N   0  0  0  0  0  0  0  0  0  0  0  0
  186.0460  177.9100  145.2170 C   0  0  0  0  0  0  0  0  0  0  0  0
  185.9060  178.3880  146.5230 C   0  0  0  0  0  3  0  0  0  0  0  0
  187.1190  179.1220  141.8350 C   0  0  0  0  0  2  0  0  0  0  0  0
  189.2190  177.7220  141.7350 C   0  0  0  0  0  0  0  0  0  0  0  0
  190.5840  177.5910  141.1740 C   0  0  0  0  0  3  0  0  0  0  0  0
  184.0430  177.9560  142.1210 C   0  0  0  0  0  2  0  0  0  0  0  0
  182.1230  179.0880  142.9970 O   0  0  0  0  0  1  0  0  0  0  0  0
  183.0550  179.1070  141.9590 C   0  0  2  0  0  3  0  0  0  0  0  0
  181.0410  178.9070  138.1610 C   0  0  0  0  0  0  0  0  0  0  0  0
  181.0000  178.6640  140.5700 C   0  0  0  0  0  3  0  0  0  0  0  0
  184.3560  179.6820  139.4950 F   0  0  0  0  0  0  0  0  0  0  0  0
  180.2230  178.8250  136.6150 Cl  0  0  0  0  0  0  0  0  0  0  0  0
  180.3460  178.6010  139.3360 C   0  0  0  0  0  3  0  0  0  0  0  0
  183.0460  179.3360  139.4560 C   0  0  0  0  0  0  0  0  0  0  0  0
  182.3540  179.0280  140.6370 C   0  0  0  0  0  0  0  0  0  0  0  0
  182.3900  179.2720  138.2220 C   0  0  0  0  0  3  0  0  0  0  0  0
  1  6  1  0  0  0  0
  1  9  1  0  0  0  0
  2  3  1  6  0  0  0
  2  5  1  0  0  0  0
  3  7  1  0  0  0  0
  5 16  2  0  0  0  0
  5 14  1  0  0  0  0
  7  4  1  0  0  0  0
  8 12  1  0  0  0  0
 10 19  1  0  0  0  0
 10 18  1  0  0  0  0
 11  4  2  0  0  0  0
 12 16  1  0  0  0  0
 13 18  1  1  0  0  0
 13  8  1  0  0  0  0
 13  2  1  0  0  0  0
 14  1  2  0  0  0  0
 15 11  1  0  0  0  0
 16 17  1  0  0  0  0
 17  6  2  0  0  0  0
 19  3  2  0  0  0  0
 20 19  1  0  0  0  0
 20 15  2  0  0  0  0
 21  8  1  0  0  0  0
 23 21  1  0  0  0  0
 23 22  1  1  0  0  0
 24 31  2  0  0  0  0
 24 28  1  0  0  0  0
 25 30  1  0  0  0  0
 27 24  1  0  0  0  0
 28 25  2  0  0  0  0
 29 26  1  0  0  0  0
 29 30  2  0  0  0  0
 30 23  1  0  0  0  0
 31 29  1  0  0  0  0
M  END
>  <MODEL>
4

>  <REMARK>
 VINA RESULT:      -8.4      2.003      2.133
  Name = 
  3 active torsions:
  status: ('A' for Active; 'I' for Inactive)
    1  A    between atoms: C_9  and  C_22
    2  A    between atoms: C_9  and  C_23
    3  A    between atoms: N_15  and  C_23
                            x       y       z     vdW  Elec       q    Type
                         _______ _______ _______ _____ _____    ______ ____

>  <TORSDO>
F 3

$$$$
=
 OpenBabel11052413123D

 31 35  0  0  1  0  0  0  0  0999 V2000
  186.6370  178.5170  146.5400 C   0  0  0  0  0  0  0  0  0  0  0  0
  187.0950  177.4150  142.8930 C   0  0  1  0  0  3  0  0  0  0  0  0
  188.5940  177.1850  142.8960 C   0  0  0  0  0  0  0  0  0  0  0  0
  190.0000  176.3120  144.7170 C   0  0  0  0  0  3  0  0  0  0  0  0
  186.5200  177.9180  144.1930 C   0  0  0  0  0  0  0  0  0  0  0  0
  185.2760  178.8480  146.5250 C   0  0  0  0  0  3  0  0  0  0  0  0
  189.0870  175.9590  143.5950 C   0  0  0  0  0  2  0  0  0  0  0  0
  185.1990  178.7500  141.8120 N   0  0  0  0  0  0  0  0  0  0  0  0
  187.3510  178.6440  147.6830 F   0  0  0  0  0  0  0  0  0  0  0  0
  188.9280  179.0020  141.2270 C   0  0  0  0  0  2  0  0  0  0  0  0
  191.1620  176.9280  144.5180 C   0  0  0  0  0  3  0  0  0  0  0  0
  184.4280  178.1220  142.8950 C   0  0  0  0  0  2  0  0  0  0  0  0
  186.5970  178.2700  141.6970 C   0  0  1  0  0  3  0  0  0  0  0  0
  187.2590  178.0520  145.3770 C   0  0  0  0  0  3  0  0  0  0  0  0
  191.6250  177.3680  143.2330 N   0  0  0  0  0  0  0  0  0  0  0  0
  185.1640  178.2530  144.1860 C   0  0  0  0  0  0  0  0  0  0  0  0
  184.5370  178.7160  145.3460 C   0  0  0  0  0  3  0  0  0  0  0  0
  187.5150  179.4730  141.5320 C   0  0  0  0  0  2  0  0  0  0  0  0
  189.4430  177.9940  142.2220 C   0  0  0  0  0  0  0  0  0  0  0  0
  190.9140  177.8190  142.2370 C   0  0  0  0  0  3  0  0  0  0  0  0
  184.5400  178.4230  140.5550 C   0  0  0  0  0  2  0  0  0  0  0  0
  182.8460  176.7790  140.1560 O   0  0  0  0  0  1  0  0  0  0  0  0
  183.1010  177.9870  140.8050 C   0  0  2  0  0  3  0  0  0  0  0  0
  180.3130  180.9770  139.4600 C   0  0  0  0  0  0  0  0  0  0  0  0
  182.3840  179.7580  139.1610 C   0  0  0  0  0  3  0  0  0  0  0  0
  180.7090  178.6080  142.2170 F   0  0  0  0  0  0  0  0  0  0  0  0
  179.1780  182.1940  138.9140 Cl  0  0  0  0  0  0  0  0  0  0  0  0
  181.4760  180.7270  138.7250 C   0  0  0  0  0  3  0  0  0  0  0  0
  180.9660  179.2880  141.0720 C   0  0  0  0  0  0  0  0  0  0  0  0
  182.1360  179.0350  140.3400 C   0  0  0  0  0  0  0  0  0  0  0  0
  180.0590  180.2590  140.6330 C   0  0  0  0  0  3  0  0  0  0  0  0
  1  9  1  0  0  0  0
  2  3  1  1  0  0  0
  2  5  1  0  0  0  0
  3  7  1  0  0  0  0
  5 14  1  0  0  0  0
  6  1  1  0  0  0  0
  7  4  1  0  0  0  0
  8 12  1  0  0  0  0
 10 18  1  0  0  0  0
 10 19  1  0  0  0  0
 11  4  2  0  0  0  0
 12 16  1  0  0  0  0
 13 18  1  1  0  0  0
 13  8  1  0  0  0  0
 13  2  1  0  0  0  0
 14  1  2  0  0  0  0
 15 11  1  0  0  0  0
 16  5  2  0  0  0  0
 16 17  1  0  0  0  0
 17  6  2  0  0  0  0
 19 20  1  0  0  0  0
 19  3  2  0  0  0  0
 20 15  2  0  0  0  0
 21 23  1  0  0  0  0
 21  8  1  0  0  0  0
 23 22  1  6  0  0  0
 24 31  1  0  0  0  0
 25 30  2  0  0  0  0
 27 24  1  0  0  0  0
 28 25  1  0  0  0  0
 28 24  2  0  0  0  0
 29 26  1  0  0  0  0
 30 23  1  0  0  0  0
 30 29  1  0  0  0  0
 31 29  2  0  0  0  0
M  END
>  <MODEL>
5

>  <REMARK>
 VINA RESULT:      -8.3      2.741      3.206
  Name = 
  3 active torsions:
  status: ('A' for Active; 'I' for Inactive)
    1  A    between atoms: C_9  and  C_22
    2  A    between atoms: C_9  and  C_23
    3  A    between atoms: N_15  and  C_23
                            x       y       z     vdW  Elec       q    Type
                         _______ _______ _______ _____ _____    ______ ____

>  <TORSDO>
F 3

$$$$
=
 OpenBabel11052413123D

 31 35  0  0  1  0  0  0  0  0999 V2000
  190.7530  176.7670  139.9650 C   0  0  0  0  0  0  0  0  0  0  0  0
  188.4560  178.5440  142.4740 C   0  0  1  0  0  3  0  0  0  0  0  0
  189.2350  178.2760  143.7460 C   0  0  0  0  0  0  0  0  0  0  0  0
  191.6750  178.1700  144.0480 C   0  0  0  0  0  3  0  0  0  0  0  0
  189.0430  177.9410  141.2220 C   0  0  0  0  0  0  0  0  0  0  0  0
  189.9890  176.9010  138.7990 C   0  0  0  0  0  3  0  0  0  0  0  0
  190.4890  179.0650  143.9480 C   0  0  0  0  0  2  0  0  0  0  0  0
  186.2090  178.1980  141.3000 N   0  0  0  0  0  0  0  0  0  0  0  0
  191.9510  176.1370  139.9200 F   0  0  0  0  0  0  0  0  0  0  0  0
  187.3590  176.9270  144.6730 C   0  0  0  0  0  2  0  0  0  0  0  0
  191.8150  177.2870  145.0340 C   0  0  0  0  0  3  0  0  0  0  0  0
  186.9620  178.7460  140.1620 C   0  0  0  0  0  2  0  0  0  0  0  0
  186.9420  178.2200  142.5880 C   0  0  1  0  0  3  0  0  0  0  0  0
  190.2830  177.2860  141.1760 C   0  0  0  0  0  3  0  0  0  0  0  0
  190.8290  177.0590  146.0510 N   0  0  0  0  0  0  0  0  0  0  0  0
  188.2870  178.0680  140.0560 C   0  0  0  0  0  0  0  0  0  0  0  0
  188.7540  177.5530  138.8430 C   0  0  0  0  0  3  0  0  0  0  0  0
  186.7740  176.8690  143.2700 C   0  0  0  0  0  2  0  0  0  0  0  0
  188.7770  177.4350  144.7030 C   0  0  0  0  0  0  0  0  0  0  0  0
  189.5320  177.1230  145.9380 C   0  0  0  0  0  3  0  0  0  0  0  0
  185.0210  179.0210  141.4800 C   0  0  0  0  0  2  0  0  0  0  0  0
  183.5420  178.5970  139.6450 O   0  0  0  0  0  1  0  0  0  0  0  0
  183.7820  178.2840  140.9830 C   0  0  2  0  0  3  0  0  0  0  0  0
  180.3410  179.2550  143.3780 C   0  0  0  0  0  0  0  0  0  0  0  0
  181.3680  178.9740  141.2030 C   0  0  0  0  0  3  0  0  0  0  0  0
  183.8350  178.2780  143.8280 F   0  0  0  0  0  0  0  0  0  0  0  0
  178.9410  179.6500  144.3530 Cl  0  0  0  0  0  0  0  0  0  0  0  0
  180.2500  179.2870  141.9830 C   0  0  0  0  0  3  0  0  0  0  0  0
  182.6690  178.5980  143.2160 C   0  0  0  0  0  0  0  0  0  0  0  0
  182.5850  178.6310  141.8150 C   0  0  0  0  0  0  0  0  0  0  0  0
  181.5490  178.9120  143.9930 C   0  0  0  0  0  3  0  0  0  0  0  0
  1 14  1  0  0  0  0
  2  5  1  6  0  0  0
  2 13  1  0  0  0  0
  2  3  1  0  0  0  0
  3  7  1  0  0  0  0
  3 19  2  0  0  0  0
  4 11  2  0  0  0  0
  6 17  1  0  0  0  0
  6  1  2  0  0  0  0
  7  4  1  0  0  0  0
  8 21  1  0  0  0  0
  8 13  1  0  0  0  0
  9  1  1  0  0  0  0
 10 19  1  0  0  0  0
 11 15  1  0  0  0  0
 12  8  1  0  0  0  0
 13 18  1  6  0  0  0
 14  5  2  0  0  0  0
 16 12  1  0  0  0  0
 16  5  1  0  0  0  0
 17 16  2  0  0  0  0
 18 10  1  0  0  0  0
 19 20  1  0  0  0  0
 20 15  2  0  0  0  0
 23 22  1  6  0  0  0
 23 21  1  0  0  0  0
 23 30  1  0  0  0  0
 24 31  1  0  0  0  0
 24 27  1  0  0  0  0
 25 30  2  0  0  0  0
 25 28  1  0  0  0  0
 28 24  2  0  0  0  0
 29 26  1  0  0  0  0
 29 31  2  0  0  0  0
 30 29  1  0  0  0  0
M  END
>  <MODEL>
6

>  <REMARK>
 VINA RESULT:      -8.2      3.332      5.268
  Name = 
  3 active torsions:
  status: ('A' for Active; 'I' for Inactive)
    1  A    between atoms: C_9  and  C_22
    2  A    between atoms: C_9  and  C_23
    3  A    between atoms: N_15  and  C_23
                            x       y       z     vdW  Elec       q    Type
                         _______ _______ _______ _____ _____    ______ ____

>  <TORSDO>
F 3

$$$$
=
 OpenBabel11052413123D

 31 35  0  0  1  0  0  0  0  0999 V2000
  187.5150  177.6830  136.3350 C   0  0  0  0  0  0  0  0  0  0  0  0
  184.6910  177.7220  138.9340 C   0  0  1  0  0  3  0  0  0  0  0  0
  183.5210  177.4080  138.0230 C   0  0  0  0  0  0  0  0  0  0  0  0
  183.4720  175.9330  136.0540 C   0  0  0  0  0  3  0  0  0  0  0  0
  186.0280  177.8390  138.2440 C   0  0  0  0  0  0  0  0  0  0  0  0
  188.5890  178.0880  137.1370 C   0  0  0  0  0  3  0  0  0  0  0  0
  183.4010  175.9980  137.5400 C   0  0  0  0  0  2  0  0  0  0  0  0
  185.6510  179.4420  140.5670 N   0  0  0  0  0  0  0  0  0  0  0  0
  187.7160  177.4080  135.0250 F   0  0  0  0  0  0  0  0  0  0  0  0
  182.4890  179.6230  138.4990 C   0  0  0  0  0  2  0  0  0  0  0  0
  182.5570  176.5040  135.2750 C   0  0  0  0  0  3  0  0  0  0  0  0
  186.8260  178.5630  140.4670 C   0  0  0  0  0  2  0  0  0  0  0  0
  184.4440  178.9320  139.8740 C   0  0  1  0  0  3  0  0  0  0  0  0
  186.2360  177.5570  136.8860 C   0  0  0  0  0  3  0  0  0  0  0  0
  181.4610  177.2860  135.7700 N   0  0  0  0  0  0  0  0  0  0  0  0
  187.1030  178.2450  139.0360 C   0  0  0  0  0  0  0  0  0  0  0  0
  188.3840  178.3700  138.4910 C   0  0  0  0  0  3  0  0  0  0  0  0
  183.8270  180.0680  139.0690 C   0  0  0  0  0  2  0  0  0  0  0  0
  182.5730  178.3290  137.7320 C   0  0  0  0  0  0  0  0  0  0  0  0
  181.4390  178.0640  136.8160 C   0  0  0  0  0  3  0  0  0  0  0  0
  185.3060  179.5580  141.9770 C   0  0  0  0  0  2  0  0  0  0  0  0
  183.7960  177.8470  142.7010 O   0  0  0  0  0  1  0  0  0  0  0  0
  185.1470  178.1760  142.6020 C   0  0  2  0  0  3  0  0  0  0  0  0
  186.9810  178.0030  146.4910 C   0  0  0  0  0  0  0  0  0  0  0  0
  185.2070  178.7930  145.0450 C   0  0  0  0  0  3  0  0  0  0  0  0
  187.5530  176.7430  143.1070 F   0  0  0  0  0  0  0  0  0  0  0  0
  187.7290  177.9330  148.0740 Cl  0  0  0  0  0  0  0  0  0  0  0  0
  185.8040  178.7340  146.3080 C   0  0  0  0  0  3  0  0  0  0  0  0
  186.9700  177.3900  144.1450 C   0  0  0  0  0  0  0  0  0  0  0  0
  185.7890  178.1250  143.9550 C   0  0  0  0  0  0  0  0  0  0  0  0
  187.5640  177.3330  145.4110 C   0  0  0  0  0  3  0  0  0  0  0  0
  1 14  2  0  0  0  0
  1  6  1  0  0  0  0
  2  3  1  6  0  0  0
  2 13  1  0  0  0  0
  4  7  1  0  0  0  0
  5  2  1  0  0  0  0
  5 16  2  0  0  0  0
  6 17  2  0  0  0  0
  7  3  1  0  0  0  0
  8 21  1  0  0  0  0
  9  1  1  0  0  0  0
 10 18  1  0  0  0  0
 11 15  1  0  0  0  0
 11  4  2  0  0  0  0
 12  8  1  0  0  0  0
 13 18  1  6  0  0  0
 13  8  1  0  0  0  0
 14  5  1  0  0  0  0
 15 20  2  0  0  0  0
 16 12  1  0  0  0  0
 17 16  1  0  0  0  0
 19  3  2  0  0  0  0
 19 10  1  0  0  0  0
 20 19  1  0  0  0  0
 21 23  1  0  0  0  0
 23 22  1  1  0  0  0
 23 30  1  0  0  0  0
 24 27  1  0  0  0  0
 25 28  2  0  0  0  0
 26 29  1  0  0  0  0
 28 24  1  0  0  0  0
 29 31  1  0  0  0  0
 30 29  2  0  0  0  0
 30 25  1  0  0  0  0
 31 24  2  0  0  0  0
M  END
>  <MODEL>
7

>  <REMARK>
 VINA RESULT:      -8.1      3.456      7.989
  Name = 
  3 active torsions:
  status: ('A' for Active; 'I' for Inactive)
    1  A    between atoms: C_9  and  C_22
    2  A    between atoms: C_9  and  C_23
    3  A    between atoms: N_15  and  C_23
                            x       y       z     vdW  Elec       q    Type
                         _______ _______ _______ _____ _____    ______ ____

>  <TORSDO>
F 3

$$$$
=
 OpenBabel11052413123D

 31 35  0  0  1  0  0  0  0  0999 V2000
  185.2090  178.9770  144.6950 C   0  0  0  0  0  0  0  0  0  0  0  0
  188.5180  177.0390  144.5300 C   0  0  1  0  0  3  0  0  0  0  0  0
  188.9520  177.1790  145.9760 C   0  0  0  0  0  0  0  0  0  0  0  0
  187.5460  177.2050  147.9950 C   0  0  0  0  0  3  0  0  0  0  0  0
  187.2280  177.7360  144.1770 C   0  0  0  0  0  0  0  0  0  0  0  0
  184.8510  178.9610  143.3410 C   0  0  0  0  0  3  0  0  0  0  0  0
  188.2220  176.3480  146.9820 C   0  0  0  0  0  2  0  0  0  0  0  0
  189.1720  177.5350  142.1060 N   0  0  0  0  0  0  0  0  0  0  0  0
  184.4050  179.5820  145.6000 F   0  0  0  0  0  0  0  0  0  0  0  0
  190.9620  178.4830  145.3020 C   0  0  0  0  0  2  0  0  0  0  0  0
  188.2250  177.9950  148.8220 C   0  0  0  0  0  3  0  0  0  0  0  0
  187.7970  177.0720  141.8660 C   0  0  0  0  0  2  0  0  0  0  0  0
  189.6330  177.3850  143.5070 C   0  0  1  0  0  3  0  0  0  0  0  0
  186.3950  178.3650  145.1140 C   0  0  0  0  0  3  0  0  0  0  0  0
  189.6510  178.1550  148.7850 N   0  0  0  0  0  0  0  0  0  0  0  0
  186.8640  177.7270  142.8290 C   0  0  0  0  0  0  0  0  0  0  0  0
  185.6790  178.3350  142.4050 C   0  0  0  0  0  3  0  0  0  0  0  0
  190.3180  178.6750  143.9370 C   0  0  0  0  0  2  0  0  0  0  0  0
  190.0090  177.9430  146.3360 C   0  0  0  0  0  0  0  0  0  0  0  0
  190.4330  178.1290  147.7430 C   0  0  0  0  0  3  0  0  0  0  0  0
  190.0600  176.7260  141.2840 C   0  0  0  0  0  2  0  0  0  0  0  0
  189.5250  178.2080  139.4820 O   0  0  0  0  0  1  0  0  0  0  0  0
  190.5790  177.5370  140.1020 C   0  0  2  0  0  3  0  0  0  0  0  0
  192.5920  175.0230  137.2480 C   0  0  0  0  0  0  0  0  0  0  0  0
  190.5450  175.7750  138.3010 C   0  0  0  0  0  3  0  0  0  0  0  0
  193.4040  177.5520  139.7610 F   0  0  0  0  0  0  0  0  0  0  0  0
  193.4120  174.0000  136.0870 Cl  0  0  0  0  0  0  0  0  0  0  0  0
  191.2010  174.9600  137.3730 C   0  0  0  0  0  3  0  0  0  0  0  0
  192.6740  176.7160  138.9820 C   0  0  0  0  0  0  0  0  0  0  0  0
  191.2780  176.6550  139.1130 C   0  0  0  0  0  0  0  0  0  0  0  0
  193.3280  175.8990  138.0520 C   0  0  0  0  0  3  0  0  0  0  0  0
  1 14  1  0  0  0  0
  1  9  1  0  0  0  0
  2  5  1  6  0  0  0
  2  3  1  0  0  0  0
  3 19  2  0  0  0  0
  3  7  1  0  0  0  0
  4 11  2  0  0  0  0
  5 14  2  0  0  0  0
  6  1  2  0  0  0  0
  7  4  1  0  0  0  0
  8 13  1  0  0  0  0
 10 19  1  0  0  0  0
 12  8  1  0  0  0  0
 12 16  1  0  0  0  0
 13 18  1  1  0  0  0
 13  2  1  0  0  0  0
 15 11  1  0  0  0  0
 16  5  1  0  0  0  0
 17 16  2  0  0  0  0
 17  6  1  0  0  0  0
 18 10  1  0  0  0  0
 19 20  1  0  0  0  0
 20 15  2  0  0  0  0
 21  8  1  0  0  0  0
 23 22  1  6  0  0  0
 23 21  1  0  0  0  0
 24 28  2  0  0  0  0
 24 31  1  0  0  0  0
 25 30  2  0  0  0  0
 27 24  1  0  0  0  0
 28 25  1  0  0  0  0
 29 30  1  0  0  0  0
 29 26  1  0  0  0  0
 30 23  1  0  0  0  0
 31 29  2  0  0  0  0
M  END
>  <MODEL>
8

>  <REMARK>
 VINA RESULT:      -8.0      3.787      5.781
  Name = 
  3 active torsions:
  status: ('A' for Active; 'I' for Inactive)
    1  A    between atoms: C_9  and  C_22
    2  A    between atoms: C_9  and  C_23
    3  A    between atoms: N_15  and  C_23
                            x       y       z     vdW  Elec       q    Type
                         _______ _______ _______ _____ _____    ______ ____

>  <TORSDO>
F 3

$$$$
=
 OpenBabel11052413123D

 31 35  0  0  1  0  0  0  0  0999 V2000
  185.2130  176.7410  137.0830 C   0  0  0  0  0  0  0  0  0  0  0  0
  187.2890  178.6670  139.6730 C   0  0  1  0  0  3  0  0  0  0  0  0
  188.6780  178.3260  139.1710 C   0  0  0  0  0  0  0  0  0  0  0  0
  189.4300  178.0250  136.8470 C   0  0  0  0  0  3  0  0  0  0  0  0
  186.1560  178.0330  138.9060 C   0  0  0  0  0  0  0  0  0  0  0  0
  183.9280  176.9460  137.6000 C   0  0  0  0  0  3  0  0  0  0  0  0
  189.1320  179.0120  137.9220 C   0  0  0  0  0  2  0  0  0  0  0  0
  185.7060  178.5100  141.6770 N   0  0  0  0  0  0  0  0  0  0  0  0
  185.3780  176.0190  135.9490 F   0  0  0  0  0  0  0  0  0  0  0  0
  189.2020  177.1190  141.2840 C   0  0  0  0  0  2  0  0  0  0  0  0
  190.4030  177.1250  136.9620 C   0  0  0  0  0  3  0  0  0  0  0  0
  184.7440  179.0090  140.6830 C   0  0  0  0  0  2  0  0  0  0  0  0
  187.1090  178.4630  141.2010 C   0  0  1  0  0  3  0  0  0  0  0  0
  186.3270  177.2830  137.7330 C   0  0  0  0  0  3  0  0  0  0  0  0
  191.2110  176.9650  138.1370 N   0  0  0  0  0  0  0  0  0  0  0  0
  184.8720  178.2300  139.4170 C   0  0  0  0  0  0  0  0  0  0  0  0
  183.7560  177.6930  138.7690 C   0  0  0  0  0  3  0  0  0  0  0  0
  187.7140  177.1220  141.5960 C   0  0  0  0  0  2  0  0  0  0  0  0
  189.5110  177.5150  139.8640 C   0  0  0  0  0  0  0  0  0  0  0  0
  190.8580  177.1320  139.3810 C   0  0  0  0  0  3  0  0  0  0  0  0
  185.6800  179.4230  142.8120 C   0  0  0  0  0  2  0  0  0  0  0  0
  183.8010  179.6750  144.2730 O   0  0  0  0  0  1  0  0  0  0  0  0
  184.8630  178.8290  143.9540 C   0  0  2  0  0  3  0  0  0  0  0  0
  187.3090  178.1540  147.4300 C   0  0  0  0  0  0  0  0  0  0  0  0
  185.5940  179.4280  146.2900 C   0  0  0  0  0  3  0  0  0  0  0  0
  186.7890  176.7400  144.0980 F   0  0  0  0  0  0  0  0  0  0  0  0
  188.3050  177.8790  148.8440 Cl  0  0  0  0  0  0  0  0  0  0  0  0
  186.3880  179.2060  147.4190 C   0  0  0  0  0  3  0  0  0  0  0  0
  186.6450  177.5460  145.1790 C   0  0  0  0  0  0  0  0  0  0  0  0
  185.7200  178.6020  145.1620 C   0  0  0  0  0  0  0  0  0  0  0  0
  187.4380  177.3260  146.3100 C   0  0  0  0  0  3  0  0  0  0  0  0
  1  6  2  0  0  0  0
  1 14  1  0  0  0  0
  2  5  1  6  0  0  0
  2 13  1  0  0  0  0
  3  2  1  0  0  0  0
  3 19  2  0  0  0  0
  4 11  2  0  0  0  0
  4  7  1  0  0  0  0
  5 16  1  0  0  0  0
  6 17  1  0  0  0  0
  7  3  1  0  0  0  0
  8 21  1  0  0  0  0
  9  1  1  0  0  0  0
 10 18  1  0  0  0  0
 11 15  1  0  0  0  0
 12  8  1  0  0  0  0
 13 18  1  6  0  0  0
 13  8  1  0  0  0  0
 14  5  2  0  0  0  0
 15 20  2  0  0  0  0
 16 12  1  0  0  0  0
 17 16  2  0  0  0  0
 19 10  1  0  0  0  0
 20 19  1  0  0  0  0
 21 23  1  0  0  0  0
 23 22  1  1  0  0  0
 23 30  1  0  0  0  0
 24 27  1  0  0  0  0
 25 28  2  0  0  0  0
 26 29  1  0  0  0  0
 28 24  1  0  0  0  0
 29 31  1  0  0  0  0
 30 29  2  0  0  0  0
 30 25  1  0  0  0  0
 31 24  2  0  0  0  0
M  END
>  <MODEL>
9

>  <REMARK>
 VINA RESULT:      -7.8      3.381      6.990
  Name = 
  3 active torsions:
  status: ('A' for Active; 'I' for Inactive)
    1  A    between atoms: C_9  and  C_22
    2  A    between atoms: C_9  and  C_23
    3  A    between atoms: N_15  and  C_23
                            x       y       z     vdW  Elec       q    Type
                         _______ _______ _______ _____ _____    ______ ____

>  <TORSDO>
F 3

$$$$
