=
 OpenBabel11052412193D

 30 32  0  0  1  0  0  0  0  0999 V2000
  187.7040  177.7300  141.7510 C   0  0  1  0  0  3  0  0  0  0  0  0
  189.2200  176.8840  140.0680 C   0  0  2  0  0  3  0  0  0  0  0  0
  187.7960  178.1310  143.1940 C   0  0  1  0  0  3  0  0  0  0  0  0
  186.8480  178.7810  141.0660 C   0  0  0  0  0  2  0  0  0  0  0  0
  184.0480  178.5550  143.6010 O   0  0  0  0  0  1  0  0  0  0  0  0
  185.3170  178.4650  143.0370 C   0  0  0  0  0  0  0  0  0  0  0  0
  185.4890  178.8560  141.7490 C   0  0  0  0  0  0  0  0  0  0  0  0
  186.4560  177.8650  143.8670 C   0  0  2  0  0  3  0  0  0  0  0  0
  190.6940  176.5150  139.7700 C   0  0  0  0  0  2  0  0  0  0  0  0
  188.7150  177.6120  138.9880 O   0  0  0  0  0  1  0  0  0  0  0  0
  191.8620  176.3170  143.1240 O   0  0  0  0  0  0  0  0  0  0  0  0
  191.8990  177.4830  140.7620 S   0  0  0  0  0  0  0  0  0  0  0  0
  189.0830  177.6680  141.3040 N   0  0  2  0  0  0  0  0  0  0  0  0
  189.0200  177.3960  143.7160 C   0  0  1  0  0  3  0  0  0  0  0  0
  191.1750  176.8860  142.2930 C   0  0  0  0  0  0  0  0  0  0  0  0
  189.6800  176.9190  142.4110 C   0  0  2  0  0  3  0  0  0  0  0  0
  185.1980  179.0600  145.7310 C   0  0  0  0  0  1  0  0  0  0  0  0
  186.4870  178.3550  145.3230 C   0  0  1  0  0  3  0  0  0  0  0  0
  186.8270  177.2200  146.2790 C   0  0  0  0  0  2  0  0  0  0  0  0
  187.3150  177.7570  147.6160 C   0  0  0  0  0  2  0  0  0  0  0  0
  188.1230  176.8120  148.2480 O   0  0  0  0  0  1  0  0  0  0  0  0
  184.3890  179.3690  141.0540 O   0  0  0  0  0  0  0  0  0  0  0  0
  183.9180  178.7970  139.8430 C   0  0  0  0  0  2  0  0  0  0  0  0
  183.1120  177.5540  140.1530 C   0  0  0  0  0  1  0  0  0  0  0  0
  189.8780  178.3060  144.4900 N   0  0  0  0  0  0  0  0  0  0  0  0
  190.6680  179.3050  143.8290 C   0  0  0  0  0  3  0  0  0  0  0  0
  191.8440  179.7060  144.2970 C   0  0  0  0  0  2  0  0  0  0  0  0
  190.1130  178.0730  145.8090 O   0  0  0  0  0  0  0  0  0  0  0  0
  191.9140  176.8250  146.4380 O   0  0  0  0  0  1  0  0  0  0  0  0
  190.6370  176.7780  145.8820 C   0  0  0  0  0  2  0  0  0  0  0  0
  1  4  1  6  0  0  0
  1  3  1  0  0  0  0
  2 10  1  6  0  0  0
  2 13  1  0  0  0  0
  3 14  1  0  0  0  0
  3  8  1  0  0  0  0
  4  7  1  0  0  0  0
  6  5  1  0  0  0  0
  6  8  1  0  0  0  0
  7  6  2  0  0  0  0
  8 18  1  0  0  0  0
  9  2  1  0  0  0  0
  9 12  1  0  0  0  0
 12 15  1  0  0  0  0
 13  1  1  0  0  0  0
 13 16  1  0  0  0  0
 14 25  1  0  0  0  0
 15 16  1  0  0  0  0
 15 11  2  0  0  0  0
 16 14  1  0  0  0  0
 18 17  1  0  0  0  0
 18 19  1  0  0  0  0
 19 20  1  0  0  0  0
 20 21  1  0  0  0  0
 22  7  1  0  0  0  0
 23 24  1  0  0  0  0
 23 22  1  0  0  0  0
 25 28  1  0  0  0  0
 26 27  2  0  0  0  0
 26 25  1  0  0  0  0
 28 30  1  0  0  0  0
 30 29  1  0  0  0  0
M  END
>  <MODEL>
1

>  <REMARK>
 VINA RESULT:      -7.3      0.000      0.000
  Name = 
  9 active torsions:
  status: ('A' for Active; 'I' for Inactive)
    1  A    between atoms: C_7  and  C_16
    2  A    between atoms: C_7  and  C_30
    3  A    between atoms: O_9  and  C_12
    4  A    between atoms: O_9  and  C_17
    5  A    between atoms: C_10  and  N_25
    6  A    between atoms: C_11  and  O_24
    7  A    between atoms: C_13  and  C_30
    8  A    between atoms: C_23  and  N_25
    9  A    between atoms: O_24  and  N_25
                            x       y       z     vdW  Elec       q    Type
                         _______ _______ _______ _____ _____    ______ ____

>  <TORSDO>
F 9

$$$$
=
 OpenBabel11052412193D

 30 32  0  0  1  0  0  0  0  0999 V2000
  187.0460  177.9570  142.3670 C   0  0  1  0  0  3  0  0  0  0  0  0
  186.9300  177.8970  139.9530 C   0  0  2  0  0  3  0  0  0  0  0  0
  188.1130  177.7840  143.4090 C   0  0  1  0  0  3  0  0  0  0  0  0
  186.2040  179.1420  142.8070 C   0  0  0  0  0  2  0  0  0  0  0  0
  185.6700  177.8190  146.3110 O   0  0  0  0  0  1  0  0  0  0  0  0
  186.2400  178.0180  145.0570 C   0  0  0  0  0  0  0  0  0  0  0  0
  185.6400  178.8790  144.1960 C   0  0  0  0  0  0  0  0  0  0  0  0
  187.4820  177.2100  144.6710 C   0  0  2  0  0  3  0  0  0  0  0  0
  187.7600  177.7490  138.6540 C   0  0  0  0  0  2  0  0  0  0  0  0
  186.0310  178.9530  139.7890 O   0  0  0  0  0  1  0  0  0  0  0  0
  190.7050  176.3540  140.0820 O   0  0  0  0  0  0  0  0  0  0  0  0
  189.4930  178.3300  138.8300 S   0  0  0  0  0  0  0  0  0  0  0  0
  187.7790  178.1440  141.1280 N   0  0  2  0  0  0  0  0  0  0  0  0
  189.1950  176.9730  142.7140 C   0  0  1  0  0  3  0  0  0  0  0  0
  189.7910  177.1590  140.1580 C   0  0  0  0  0  0  0  0  0  0  0  0
  188.7600  177.0630  141.2420 C   0  0  2  0  0  3  0  0  0  0  0  0
  189.2270  178.4410  146.0600 C   0  0  0  0  0  1  0  0  0  0  0  0
  188.5300  177.1110  145.7900 C   0  0  1  0  0  3  0  0  0  0  0  0
  187.9240  176.5340  147.0620 C   0  0  0  0  0  2  0  0  0  0  0  0
  188.5710  177.1360  148.3000 C   0  0  0  0  0  2  0  0  0  0  0  0
  187.6420  177.9030  149.0040 O   0  0  0  0  0  1  0  0  0  0  0  0
  184.4930  179.5570  144.6200 O   0  0  0  0  0  0  0  0  0  0  0  0
  183.2210  178.9310  144.6980 C   0  0  0  0  0  2  0  0  0  0  0  0
  182.5130  179.0600  143.3670 C   0  0  0  0  0  1  0  0  0  0  0  0
  190.5200  177.5650  142.9560 N   0  0  0  0  0  0  0  0  0  0  0  0
  190.6800  178.9880  143.0370 C   0  0  0  0  0  3  0  0  0  0  0  0
  191.4780  179.5650  143.9290 C   0  0  0  0  0  2  0  0  0  0  0  0
  191.6400  176.7970  142.8790 O   0  0  0  0  0  0  0  0  0  0  0  0
  191.8260  176.1630  145.0610 O   0  0  0  0  0  1  0  0  0  0  0  0
  191.4490  175.7490  143.7850 C   0  0  0  0  0  2  0  0  0  0  0  0
  1  4  1  1  0  0  0
  1  3  1  0  0  0  0
  2 10  1  6  0  0  0
  2 13  1  0  0  0  0
  3  8  1  0  0  0  0
  4  7  1  0  0  0  0
  6  5  1  0  0  0  0
  7 22  1  0  0  0  0
  7  6  2  0  0  0  0
  8  6  1  0  0  0  0
  8 18  1  0  0  0  0
  9 12  1  0  0  0  0
  9  2  1  0  0  0  0
 11 15  2  0  0  0  0
 12 15  1  0  0  0  0
 13 16  1  0  0  0  0
 13  1  1  0  0  0  0
 14 25  1  0  0  0  0
 14  3  1  0  0  0  0
 15 16  1  0  0  0  0
 16 14  1  0  0  0  0
 18 17  1  0  0  0  0
 18 19  1  0  0  0  0
 19 20  1  0  0  0  0
 20 21  1  0  0  0  0
 22 23  1  0  0  0  0
 24 23  1  0  0  0  0
 25 26  1  0  0  0  0
 26 27  2  0  0  0  0
 28 25  1  0  0  0  0
 28 30  1  0  0  0  0
 30 29  1  0  0  0  0
M  END
>  <MODEL>
2

>  <REMARK>
 VINA RESULT:      -7.0      1.741      2.537
  Name = 
  9 active torsions:
  status: ('A' for Active; 'I' for Inactive)
    1  A    between atoms: C_7  and  C_16
    2  A    between atoms: C_7  and  C_30
    3  A    between atoms: O_9  and  C_12
    4  A    between atoms: O_9  and  C_17
    5  A    between atoms: C_10  and  N_25
    6  A    between atoms: C_11  and  O_24
    7  A    between atoms: C_13  and  C_30
    8  A    between atoms: C_23  and  N_25
    9  A    between atoms: O_24  and  N_25
                            x       y       z     vdW  Elec       q    Type
                         _______ _______ _______ _____ _____    ______ ____

>  <TORSDO>
F 9

$$$$
=
 OpenBabel11052412193D

 30 32  0  0  1  0  0  0  0  0999 V2000
  187.6530  178.1500  143.6270 C   0  0  1  0  0  3  0  0  0  0  0  0
  187.8750  178.2350  146.0330 C   0  0  2  0  0  3  0  0  0  0  0  0
  188.5440  177.8220  142.4640 C   0  0  1  0  0  3  0  0  0  0  0  0
  186.3150  177.4910  143.3440 C   0  0  0  0  0  2  0  0  0  0  0  0
  186.0200  178.9430  139.8630 O   0  0  0  0  0  1  0  0  0  0  0  0
  186.5840  178.4920  141.0530 C   0  0  0  0  0  0  0  0  0  0  0  0
  185.7680  177.9970  142.0160 C   0  0  0  0  0  0  0  0  0  0  0  0
  188.0960  178.6340  141.2550 C   0  0  2  0  0  3  0  0  0  0  0  0
  188.8330  177.9720  147.2210 C   0  0  0  0  0  2  0  0  0  0  0  0
  186.6200  177.7110  146.3490 O   0  0  0  0  0  1  0  0  0  0  0  0
  191.8890  177.8660  145.4030 O   0  0  0  0  0  0  0  0  0  0  0  0
  190.0710  176.6590  146.8780 S   0  0  0  0  0  0  0  0  0  0  0  0
  188.3650  177.6360  144.7830 N   0  0  2  0  0  0  0  0  0  0  0  0
  189.9530  178.0370  142.9910 C   0  0  1  0  0  3  0  0  0  0  0  0
  190.7070  177.5730  145.4700 C   0  0  0  0  0  0  0  0  0  0  0  0
  189.7090  178.1430  144.5060 C   0  0  2  0  0  3  0  0  0  0  0  0
  188.5890  176.8560  139.4990 C   0  0  0  0  0  1  0  0  0  0  0  0
  188.9260  178.2490  140.0210 C   0  0  1  0  0  3  0  0  0  0  0  0
  188.8010  179.2980  138.9250 C   0  0  0  0  0  2  0  0  0  0  0  0
  188.6600  178.6480  137.5570 C   0  0  0  0  0  2  0  0  0  0  0  0
  187.6740  179.2990  136.8140 O   0  0  0  0  0  1  0  0  0  0  0  0
  184.3950  177.9280  141.7580 O   0  0  0  0  0  0  0  0  0  0  0  0
  183.4440  178.6950  142.4800 C   0  0  0  0  0  2  0  0  0  0  0  0
  182.1290  178.7040  141.7300 C   0  0  0  0  0  1  0  0  0  0  0  0
  190.8180  176.9030  142.6300 N   0  0  0  0  0  0  0  0  0  0  0  0
  190.4170  175.5570  142.9210 C   0  0  0  0  0  3  0  0  0  0  0  0
  191.1550  174.7400  143.6640 C   0  0  0  0  0  2  0  0  0  0  0  0
  192.0990  177.1180  142.2280 O   0  0  0  0  0  0  0  0  0  0  0  0
  193.2850  177.3110  140.2900 O   0  0  0  0  0  1  0  0  0  0  0  0
  192.0250  177.4470  140.8700 C   0  0  0  0  0  2  0  0  0  0  0  0
  1  4  1  6  0  0  0
  1 13  1  0  0  0  0
  2 10  1  1  0  0  0
  2  9  1  0  0  0  0
  3 14  1  0  0  0  0
  3  1  1  0  0  0  0
  5  6  1  0  0  0  0
  6  8  1  0  0  0  0
  6  7  2  0  0  0  0
  7  4  1  0  0  0  0
  8  3  1  0  0  0  0
 11 15  2  0  0  0  0
 12  9  1  0  0  0  0
 13  2  1  0  0  0  0
 14 16  1  0  0  0  0
 15 12  1  0  0  0  0
 16 13  1  0  0  0  0
 16 15  1  0  0  0  0
 17 18  1  0  0  0  0
 18  8  1  0  0  0  0
 19 18  1  0  0  0  0
 20 19  1  0  0  0  0
 21 20  1  0  0  0  0
 22  7  1  0  0  0  0
 22 23  1  0  0  0  0
 24 23  1  0  0  0  0
 25 26  1  0  0  0  0
 25 14  1  0  0  0  0
 26 27  2  0  0  0  0
 28 25  1  0  0  0  0
 29 30  1  0  0  0  0
 30 28  1  0  0  0  0
M  END
>  <MODEL>
3

>  <REMARK>
 VINA RESULT:      -6.6      2.160      5.242
  Name = 
  9 active torsions:
  status: ('A' for Active; 'I' for Inactive)
    1  A    between atoms: C_7  and  C_16
    2  A    between atoms: C_7  and  C_30
    3  A    between atoms: O_9  and  C_12
    4  A    between atoms: O_9  and  C_17
    5  A    between atoms: C_10  and  N_25
    6  A    between atoms: C_11  and  O_24
    7  A    between atoms: C_13  and  C_30
    8  A    between atoms: C_23  and  N_25
    9  A    between atoms: O_24  and  N_25
                            x       y       z     vdW  Elec       q    Type
                         _______ _______ _______ _____ _____    ______ ____

>  <TORSDO>
F 9

$$$$
=
 OpenBabel11052412193D

 30 32  0  0  1  0  0  0  0  0999 V2000
  185.1160  178.6490  140.9700 C   0  0  1  0  0  3  0  0  0  0  0  0
  187.4680  178.6460  140.4120 C   0  0  2  0  0  3  0  0  0  0  0  0
  183.8310  178.3180  140.2660 C   0  0  1  0  0  3  0  0  0  0  0  0
  185.0060  178.0600  142.3650 C   0  0  0  0  0  2  0  0  0  0  0  0
  181.6390  179.6360  143.0680 O   0  0  0  0  0  1  0  0  0  0  0  0
  182.7260  179.1220  142.3670 C   0  0  0  0  0  0  0  0  0  0  0  0
  183.7820  178.6340  143.0650 C   0  0  0  0  0  0  0  0  0  0  0  0
  182.7190  179.1880  140.8370 C   0  0  2  0  0  3  0  0  0  0  0  0
  188.5030  178.3020  139.3120 C   0  0  0  0  0  2  0  0  0  0  0  0
  187.9430  178.1700  141.6360 O   0  0  0  0  0  1  0  0  0  0  0  0
  186.2720  178.1160  136.5470 O   0  0  0  0  0  0  0  0  0  0  0  0
  187.9560  176.9460  138.2010 S   0  0  0  0  0  0  0  0  0  0  0  0
  186.1470  178.0660  140.1310 N   0  0  2  0  0  0  0  0  0  0  0  0
  184.1610  178.4520  138.7890 C   0  0  1  0  0  3  0  0  0  0  0  0
  186.4970  177.8750  137.7220 C   0  0  0  0  0  0  0  0  0  0  0  0
  185.6980  178.5210  138.8140 C   0  0  2  0  0  3  0  0  0  0  0  0
  180.7410  177.5820  140.8650 C   0  0  0  0  0  1  0  0  0  0  0  0
  181.3710  178.8060  140.2070 C   0  0  1  0  0  3  0  0  0  0  0  0
  180.4110  179.9880  140.2000 C   0  0  0  0  0  2  0  0  0  0  0  0
  180.7800  180.9870  139.1150 C   0  0  0  0  0  2  0  0  0  0  0  0
  179.8780  182.0520  139.1130 O   0  0  0  0  0  1  0  0  0  0  0  0
  183.7170  178.6350  144.4620 O   0  0  0  0  0  0  0  0  0  0  0  0
  184.7730  179.1270  145.2750 C   0  0  0  0  0  2  0  0  0  0  0  0
  184.8450  178.3210  146.5530 C   0  0  0  0  0  1  0  0  0  0  0  0
  183.6530  177.2930  138.0400 N   0  0  0  0  0  0  0  0  0  0  0  0
  182.9440  177.4740  136.8060 C   0  0  0  0  0  3  0  0  0  0  0  0
  181.8840  178.2680  136.7040 C   0  0  0  0  0  2  0  0  0  0  0  0
  183.6440  176.0570  138.6090 O   0  0  0  0  0  0  0  0  0  0  0  0
  185.0200  174.6640  137.4410 O   0  0  0  0  0  1  0  0  0  0  0  0
  183.7170  175.1470  137.5490 C   0  0  0  0  0  2  0  0  0  0  0  0
  1  4  1  1  0  0  0
  2 10  1  1  0  0  0
  3  8  1  0  0  0  0
  3  1  1  0  0  0  0
  4  7  1  0  0  0  0
  6  7  2  0  0  0  0
  6  5  1  0  0  0  0
  7 22  1  0  0  0  0
  8  6  1  0  0  0  0
  9  2  1  0  0  0  0
 11 15  2  0  0  0  0
 12  9  1  0  0  0  0
 13  2  1  0  0  0  0
 13  1  1  0  0  0  0
 14 16  1  0  0  0  0
 14  3  1  0  0  0  0
 15 12  1  0  0  0  0
 15 16  1  0  0  0  0
 16 13  1  0  0  0  0
 18  8  1  0  0  0  0
 18 17  1  0  0  0  0
 19 18  1  0  0  0  0
 20 19  1  0  0  0  0
 21 20  1  0  0  0  0
 22 23  1  0  0  0  0
 23 24  1  0  0  0  0
 25 28  1  0  0  0  0
 25 14  1  0  0  0  0
 26 25  1  0  0  0  0
 27 26  2  0  0  0  0
 29 30  1  0  0  0  0
 30 28  1  0  0  0  0
M  END
>  <MODEL>
4

>  <REMARK>
 VINA RESULT:      -6.2      3.618      7.345
  Name = 
  9 active torsions:
  status: ('A' for Active; 'I' for Inactive)
    1  A    between atoms: C_7  and  C_16
    2  A    between atoms: C_7  and  C_30
    3  A    between atoms: O_9  and  C_12
    4  A    between atoms: O_9  and  C_17
    5  A    between atoms: C_10  and  N_25
    6  A    between atoms: C_11  and  O_24
    7  A    between atoms: C_13  and  C_30
    8  A    between atoms: C_23  and  N_25
    9  A    between atoms: O_24  and  N_25
                            x       y       z     vdW  Elec       q    Type
                         _______ _______ _______ _____ _____    ______ ____

>  <TORSDO>
F 9

$$$$
=
 OpenBabel11052412193D

 30 32  0  0  1  0  0  0  0  0999 V2000
  188.3480  177.9310  140.6080 C   0  0  1  0  0  3  0  0  0  0  0  0
  190.7350  177.6030  140.4060 C   0  0  2  0  0  3  0  0  0  0  0  0
  187.1520  177.7970  139.7110 C   0  0  1  0  0  3  0  0  0  0  0  0
  187.9470  177.3410  141.9490 C   0  0  0  0  0  2  0  0  0  0  0  0
  184.7630  179.3680  142.2030 O   0  0  0  0  0  1  0  0  0  0  0  0
  185.8620  178.7160  141.6530 C   0  0  0  0  0  0  0  0  0  0  0  0
  186.7220  178.0720  142.4810 C   0  0  0  0  0  0  0  0  0  0  0  0
  186.0970  178.8070  140.1420 C   0  0  2  0  0  3  0  0  0  0  0  0
  191.8670  177.1320  139.4600 C   0  0  0  0  0  2  0  0  0  0  0  0
  190.9480  177.0440  141.6680 O   0  0  0  0  0  1  0  0  0  0  0  0
  190.0780  177.3100  136.3900 O   0  0  0  0  0  0  0  0  0  0  0  0
  191.3140  175.8860  138.2300 S   0  0  0  0  0  0  0  0  0  0  0  0
  189.4040  177.2210  139.9100 N   0  0  2  0  0  0  0  0  0  0  0  0
  187.7180  177.9070  138.3050 C   0  0  1  0  0  3  0  0  0  0  0  0
  190.0870  177.0210  137.5750 C   0  0  0  0  0  0  0  0  0  0  0  0
  189.2280  177.7560  138.5600 C   0  0  2  0  0  3  0  0  0  0  0  0
  183.8750  177.5870  139.8900 C   0  0  0  0  0  1  0  0  0  0  0  0
  184.8210  178.6300  139.3050 C   0  0  1  0  0  3  0  0  0  0  0  0
  184.1140  179.9620  139.0910 C   0  0  0  0  0  2  0  0  0  0  0  0
  182.6200  179.7640  138.8900 C   0  0  0  0  0  2  0  0  0  0  0  0
  182.0000  180.9890  138.6400 O   0  0  0  0  0  1  0  0  0  0  0  0
  186.4460  178.0590  143.8520 O   0  0  0  0  0  0  0  0  0  0  0  0
  187.0710  177.1520  144.7480 C   0  0  0  0  0  2  0  0  0  0  0  0
  186.8160  177.5930  146.1730 C   0  0  0  0  0  1  0  0  0  0  0  0
  187.1750  176.8430  137.4450 N   0  0  0  0  0  0  0  0  0  0  0  0
  186.4890  177.1670  136.2270 C   0  0  0  0  0  3  0  0  0  0  0  0
  186.8180  178.2170  135.4830 C   0  0  0  0  0  2  0  0  0  0  0  0
  187.1100  175.5620  137.8960 O   0  0  0  0  0  0  0  0  0  0  0  0
  188.4000  174.1840  136.6180 O   0  0  0  0  0  1  0  0  0  0  0  0
  187.1350  174.7530  136.7560 C   0  0  0  0  0  2  0  0  0  0  0  0
  1  4  1  1  0  0  0
  2 10  1  1  0  0  0
  3  8  1  0  0  0  0
  3  1  1  0  0  0  0
  4  7  1  0  0  0  0
  6  5  1  0  0  0  0
  6  7  2  0  0  0  0
  7 22  1  0  0  0  0
  8  6  1  0  0  0  0
  9  2  1  0  0  0  0
 11 15  2  0  0  0  0
 12  9  1  0  0  0  0
 13  2  1  0  0  0  0
 13  1  1  0  0  0  0
 14 16  1  0  0  0  0
 14  3  1  0  0  0  0
 15 12  1  0  0  0  0
 15 16  1  0  0  0  0
 16 13  1  0  0  0  0
 18 17  1  0  0  0  0
 18  8  1  0  0  0  0
 19 18  1  0  0  0  0
 20 19  1  0  0  0  0
 21 20  1  0  0  0  0
 22 23  1  0  0  0  0
 23 24  1  0  0  0  0
 25 28  1  0  0  0  0
 25 14  1  0  0  0  0
 26 25  1  0  0  0  0
 27 26  2  0  0  0  0
 29 30  1  0  0  0  0
 30 28  1  0  0  0  0
M  END
>  <MODEL>
5

>  <REMARK>
 VINA RESULT:      -6.2      2.569      6.380
  Name = 
  9 active torsions:
  status: ('A' for Active; 'I' for Inactive)
    1  A    between atoms: C_7  and  C_16
    2  A    between atoms: C_7  and  C_30
    3  A    between atoms: O_9  and  C_12
    4  A    between atoms: O_9  and  C_17
    5  A    between atoms: C_10  and  N_25
    6  A    between atoms: C_11  and  O_24
    7  A    between atoms: C_13  and  C_30
    8  A    between atoms: C_23  and  N_25
    9  A    between atoms: O_24  and  N_25
                            x       y       z     vdW  Elec       q    Type
                         _______ _______ _______ _____ _____    ______ ____

>  <TORSDO>
F 9

$$$$
=
 OpenBabel11052412193D

 30 32  0  0  1  0  0  0  0  0999 V2000
  186.0460  178.3580  138.5660 C   0  0  1  0  0  3  0  0  0  0  0  0
  188.3260  178.6420  137.8140 C   0  0  2  0  0  3  0  0  0  0  0  0
  184.8740  177.5010  138.1830 C   0  0  1  0  0  3  0  0  0  0  0  0
  186.0900  178.3720  140.0840 C   0  0  0  0  0  2  0  0  0  0  0  0
  182.4480  179.3240  140.4600 O   0  0  0  0  0  1  0  0  0  0  0  0
  183.6220  178.8210  139.9070 C   0  0  0  0  0  0  0  0  0  0  0  0
  184.7690  178.8980  140.6270 C   0  0  0  0  0  0  0  0  0  0  0  0
  183.5880  178.2620  138.4810 C   0  0  2  0  0  3  0  0  0  0  0  0
  189.4050  178.1180  136.8350 C   0  0  0  0  0  2  0  0  0  0  0  0
  188.9100  178.8150  139.0710 O   0  0  0  0  0  1  0  0  0  0  0  0
  187.2660  176.3540  134.6060 O   0  0  0  0  0  0  0  0  0  0  0  0
  189.1930  176.3460  136.4020 S   0  0  0  0  0  0  0  0  0  0  0  0
  187.1810  177.7260  137.9190 N   0  0  2  0  0  0  0  0  0  0  0  0
  185.1520  177.0970  136.7450 C   0  0  1  0  0  3  0  0  0  0  0  0
  187.5500  176.6620  135.7520 C   0  0  0  0  0  0  0  0  0  0  0  0
  186.6270  177.5020  136.5830 C   0  0  2  0  0  3  0  0  0  0  0  0
  182.1320  176.3300  139.2780 C   0  0  0  0  0  1  0  0  0  0  0  0
  182.3680  177.3750  138.1920 C   0  0  1  0  0  3  0  0  0  0  0  0
  181.1210  178.2150  137.9500 C   0  0  0  0  0  2  0  0  0  0  0  0
  181.3920  179.3180  136.9390 C   0  0  0  0  0  2  0  0  0  0  0  0
  181.0660  180.5610  137.4830 O   0  0  0  0  0  1  0  0  0  0  0  0
  184.7160  179.4470  141.9120 O   0  0  0  0  0  0  0  0  0  0  0  0
  184.7320  178.6470  143.0850 C   0  0  0  0  0  2  0  0  0  0  0  0
  183.7370  179.1970  144.0850 C   0  0  0  0  0  1  0  0  0  0  0  0
  184.9320  175.6530  136.5630 N   0  0  0  0  0  0  0  0  0  0  0  0
  184.2360  175.1600  135.4100 C   0  0  0  0  0  3  0  0  0  0  0  0
  182.9120  175.2010  135.3070 C   0  0  0  0  0  2  0  0  0  0  0  0
  185.1790  174.7870  137.5820 O   0  0  0  0  0  0  0  0  0  0  0  0
  186.0380  172.7100  137.9640 O   0  0  0  0  0  1  0  0  0  0  0  0
  185.8840  173.7200  137.0150 C   0  0  0  0  0  2  0  0  0  0  0  0
  1  4  1  1  0  0  0
  2 13  1  0  0  0  0
  2 10  1  1  0  0  0
  3  8  1  0  0  0  0
  3  1  1  0  0  0  0
  4  7  1  0  0  0  0
  6  5  1  0  0  0  0
  6  7  2  0  0  0  0
  7 22  1  0  0  0  0
  8  6  1  0  0  0  0
  9  2  1  0  0  0  0
 11 15  2  0  0  0  0
 12  9  1  0  0  0  0
 13  1  1  0  0  0  0
 14  3  1  0  0  0  0
 15 12  1  0  0  0  0
 15 16  1  0  0  0  0
 16 14  1  0  0  0  0
 16 13  1  0  0  0  0
 18  8  1  0  0  0  0
 18 17  1  0  0  0  0
 19 18  1  0  0  0  0
 20 21  1  0  0  0  0
 20 19  1  0  0  0  0
 22 23  1  0  0  0  0
 23 24  1  0  0  0  0
 25 14  1  0  0  0  0
 25 28  1  0  0  0  0
 26 25  1  0  0  0  0
 27 26  2  0  0  0  0
 30 28  1  0  0  0  0
 30 29  1  0  0  0  0
M  END
>  <MODEL>
6

>  <REMARK>
 VINA RESULT:      -5.8      4.526      7.682
  Name = 
  9 active torsions:
  status: ('A' for Active; 'I' for Inactive)
    1  A    between atoms: C_7  and  C_16
    2  A    between atoms: C_7  and  C_30
    3  A    between atoms: O_9  and  C_12
    4  A    between atoms: O_9  and  C_17
    5  A    between atoms: C_10  and  N_25
    6  A    between atoms: C_11  and  O_24
    7  A    between atoms: C_13  and  C_30
    8  A    between atoms: C_23  and  N_25
    9  A    between atoms: O_24  and  N_25
                            x       y       z     vdW  Elec       q    Type
                         _______ _______ _______ _____ _____    ______ ____

>  <TORSDO>
F 9

$$$$
=
 OpenBabel11052412193D

 30 32  0  0  1  0  0  0  0  0999 V2000
  183.4140  178.4080  142.9270 C   0  0  1  0  0  3  0  0  0  0  0  0
  181.0030  178.2900  142.7940 C   0  0  2  0  0  3  0  0  0  0  0  0
  184.5550  178.4660  141.9530 C   0  0  1  0  0  3  0  0  0  0  0  0
  183.7340  179.4060  144.0250 C   0  0  0  0  0  2  0  0  0  0  0  0
  187.2170  178.0550  144.6250 O   0  0  0  0  0  1  0  0  0  0  0  0
  186.0140  178.3460  143.9870 C   0  0  0  0  0  0  0  0  0  0  0  0
  185.0730  179.0560  144.6590 C   0  0  0  0  0  0  0  0  0  0  0  0
  185.7720  177.7970  142.5780 C   0  0  2  0  0  3  0  0  0  0  0  0
  179.7920  178.2910  141.8290 C   0  0  0  0  0  2  0  0  0  0  0  0
  180.7210  179.1420  143.8640 O   0  0  0  0  0  1  0  0  0  0  0  0
  181.5310  177.5350  138.8200 O   0  0  0  0  0  0  0  0  0  0  0  0
  180.1070  179.2100  140.2710 S   0  0  0  0  0  0  0  0  0  0  0  0
  182.2420  178.7180  142.1290 N   0  0  2  0  0  0  0  0  0  0  0  0
  183.9910  177.8780  140.6710 C   0  0  1  0  0  3  0  0  0  0  0  0
  181.4950  178.1420  139.8770 C   0  0  0  0  0  0  0  0  0  0  0  0
  182.4820  177.8580  140.9700 C   0  0  2  0  0  3  0  0  0  0  0  0
  187.3730  179.3780  141.3840 C   0  0  0  0  0  1  0  0  0  0  0  0
  186.9860  177.9260  141.6450 C   0  0  1  0  0  3  0  0  0  0  0  0
  188.1690  177.1210  142.1660 C   0  0  0  0  0  2  0  0  0  0  0  0
  189.4470  177.4860  141.4290 C   0  0  0  0  0  2  0  0  0  0  0  0
  190.5220  176.7570  141.9390 O   0  0  0  0  0  1  0  0  0  0  0  0
  185.3670  179.4980  145.9530 O   0  0  0  0  0  0  0  0  0  0  0  0
  185.3610  178.6280  147.0750 C   0  0  0  0  0  2  0  0  0  0  0  0
  186.7310  178.6250  147.7190 C   0  0  0  0  0  1  0  0  0  0  0  0
  184.3340  178.7260  139.5190 N   0  0  0  0  0  0  0  0  0  0  0  0
  184.9240  178.1570  138.3420 C   0  0  0  0  0  3  0  0  0  0  0  0
  186.2260  178.2340  138.0900 C   0  0  0  0  0  2  0  0  0  0  0  0
  184.3120  180.0810  139.6330 O   0  0  0  0  0  0  0  0  0  0  0  0
  182.6330  181.5270  139.0940 O   0  0  0  0  0  1  0  0  0  0  0  0
  183.4860  180.5400  138.6020 C   0  0  0  0  0  2  0  0  0  0  0  0
  1  4  1  1  0  0  0
  2 10  1  1  0  0  0
  3  8  1  0  0  0  0
  3  1  1  0  0  0  0
  4  7  1  0  0  0  0
  6  5  1  0  0  0  0
  6  7  2  0  0  0  0
  7 22  1  0  0  0  0
  8  6  1  0  0  0  0
  9  2  1  0  0  0  0
 11 15  2  0  0  0  0
 12  9  1  0  0  0  0
 13  2  1  0  0  0  0
 13  1  1  0  0  0  0
 14 16  1  0  0  0  0
 14  3  1  0  0  0  0
 15 12  1  0  0  0  0
 15 16  1  0  0  0  0
 16 13  1  0  0  0  0
 17 18  1  0  0  0  0
 18 19  1  0  0  0  0
 18  8  1  0  0  0  0
 20 21  1  0  0  0  0
 20 19  1  0  0  0  0
 22 23  1  0  0  0  0
 23 24  1  0  0  0  0
 25 28  1  0  0  0  0
 25 14  1  0  0  0  0
 26 25  1  0  0  0  0
 27 26  2  0  0  0  0
 30 29  1  0  0  0  0
 30 28  1  0  0  0  0
M  END
>  <MODEL>
7

>  <REMARK>
 VINA RESULT:      -5.8      3.566      7.573
  Name = 
  9 active torsions:
  status: ('A' for Active; 'I' for Inactive)
    1  A    between atoms: C_7  and  C_16
    2  A    between atoms: C_7  and  C_30
    3  A    between atoms: O_9  and  C_12
    4  A    between atoms: O_9  and  C_17
    5  A    between atoms: C_10  and  N_25
    6  A    between atoms: C_11  and  O_24
    7  A    between atoms: C_13  and  C_30
    8  A    between atoms: C_23  and  N_25
    9  A    between atoms: O_24  and  N_25
                            x       y       z     vdW  Elec       q    Type
                         _______ _______ _______ _____ _____    ______ ____

>  <TORSDO>
F 9

$$$$
=
 OpenBabel11052412193D

 30 32  0  0  1  0  0  0  0  0999 V2000
  183.4970  178.0700  140.0880 C   0  0  1  0  0  3  0  0  0  0  0  0
  183.1890  178.6260  142.4210 C   0  0  2  0  0  3  0  0  0  0  0  0
  182.6080  177.7930  138.9110 C   0  0  1  0  0  3  0  0  0  0  0  0
  184.6200  178.9580  139.5810 C   0  0  0  0  0  2  0  0  0  0  0  0
  185.4640  176.6990  136.6650 O   0  0  0  0  0  1  0  0  0  0  0  0
  184.7420  177.3030  137.6900 C   0  0  0  0  0  0  0  0  0  0  0  0
  185.3470  178.2580  138.4410 C   0  0  0  0  0  0  0  0  0  0  0  0
  183.3160  176.8210  137.9760 C   0  0  2  0  0  3  0  0  0  0  0  0
  182.1400  178.9500  143.5120 C   0  0  0  0  0  2  0  0  0  0  0  0
  184.2400  179.5400  142.5290 O   0  0  0  0  0  1  0  0  0  0  0  0
  179.2600  177.6910  141.8450 O   0  0  0  0  0  0  0  0  0  0  0  0
  180.6120  179.7200  142.8440 S   0  0  0  0  0  0  0  0  0  0  0  0
  182.6180  178.6820  141.0680 N   0  0  2  0  0  0  0  0  0  0  0  0
  181.2860  177.3650  139.5240 C   0  0  1  0  0  3  0  0  0  0  0  0
  180.3150  178.3010  141.7850 C   0  0  0  0  0  0  0  0  0  0  0  0
  181.4750  177.7710  140.9960 C   0  0  2  0  0  3  0  0  0  0  0  0
  182.6820  177.6810  135.6640 C   0  0  0  0  0  1  0  0  0  0  0  0
  182.4750  176.5920  136.7120 C   0  0  1  0  0  3  0  0  0  0  0  0
  182.7210  175.2070  136.1290 C   0  0  0  0  0  2  0  0  0  0  0  0
  182.7230  174.1460  137.2190 C   0  0  0  0  0  2  0  0  0  0  0  0
  183.9380  173.4610  137.2210 O   0  0  0  0  0  1  0  0  0  0  0  0
  186.6610  178.6210  138.1280 O   0  0  0  0  0  0  0  0  0  0  0  0
  187.7810  178.1130  138.8360 C   0  0  0  0  0  2  0  0  0  0  0  0
  189.0550  178.6280  138.2020 C   0  0  0  0  0  1  0  0  0  0  0  0
  180.1660  178.0660  138.8780 N   0  0  0  0  0  0  0  0  0  0  0  0
  179.0830  177.3290  138.2910 C   0  0  0  0  0  3  0  0  0  0  0  0
  179.0720  176.0020  138.2400 C   0  0  0  0  0  2  0  0  0  0  0  0
  180.2450  179.3990  138.6230 O   0  0  0  0  0  0  0  0  0  0  0  0
  180.7130  180.4290  136.6430 O   0  0  0  0  0  1  0  0  0  0  0  0
  179.8380  179.5610  137.2950 C   0  0  0  0  0  2  0  0  0  0  0  0
  1  4  1  6  0  0  0
  1 13  1  0  0  0  0
  2 10  1  6  0  0  0
  2  9  1  0  0  0  0
  3 14  1  0  0  0  0
  3  1  1  0  0  0  0
  5  6  1  0  0  0  0
  6  8  1  0  0  0  0
  6  7  2  0  0  0  0
  7  4  1  0  0  0  0
  8  3  1  0  0  0  0
 12  9  1  0  0  0  0
 13  2  1  0  0  0  0
 14 16  1  0  0  0  0
 15 11  2  0  0  0  0
 15 12  1  0  0  0  0
 16 13  1  0  0  0  0
 16 15  1  0  0  0  0
 17 18  1  0  0  0  0
 18  8  1  0  0  0  0
 19 18  1  0  0  0  0
 19 20  1  0  0  0  0
 20 21  1  0  0  0  0
 22  7  1  0  0  0  0
 22 23  1  0  0  0  0
 24 23  1  0  0  0  0
 25 14  1  0  0  0  0
 26 25  1  0  0  0  0
 27 26  2  0  0  0  0
 28 25  1  0  0  0  0
 29 30  1  0  0  0  0
 30 28  1  0  0  0  0
M  END
>  <MODEL>
8

>  <REMARK>
 VINA RESULT:      -5.6      5.435      9.626
  Name = 
  9 active torsions:
  status: ('A' for Active; 'I' for Inactive)
    1  A    between atoms: C_7  and  C_16
    2  A    between atoms: C_7  and  C_30
    3  A    between atoms: O_9  and  C_12
    4  A    between atoms: O_9  and  C_17
    5  A    between atoms: C_10  and  N_25
    6  A    between atoms: C_11  and  O_24
    7  A    between atoms: C_13  and  C_30
    8  A    between atoms: C_23  and  N_25
    9  A    between atoms: O_24  and  N_25
                            x       y       z     vdW  Elec       q    Type
                         _______ _______ _______ _____ _____    ______ ____

>  <TORSDO>
F 9

$$$$
=
 OpenBabel11052412193D

 30 32  0  0  1  0  0  0  0  0999 V2000
  187.7500  177.8820  138.8500 C   0  0  1  0  0  3  0  0  0  0  0  0
  190.0070  177.5090  138.0680 C   0  0  2  0  0  3  0  0  0  0  0  0
  186.3660  177.5270  138.3880 C   0  0  1  0  0  3  0  0  0  0  0  0
  187.7730  177.6550  140.3510 C   0  0  0  0  0  2  0  0  0  0  0  0
  184.6450  179.6860  140.9900 O   0  0  0  0  0  1  0  0  0  0  0  0
  185.5950  178.9130  140.3290 C   0  0  0  0  0  0  0  0  0  0  0  0
  186.6920  178.4990  141.0120 C   0  0  0  0  0  0  0  0  0  0  0  0
  185.4000  178.6150  138.8390 C   0  0  2  0  0  3  0  0  0  0  0  0
  190.8670  176.8110  136.9860 C   0  0  0  0  0  2  0  0  0  0  0  0
  190.5960  177.2900  139.3160 O   0  0  0  0  0  1  0  0  0  0  0  0
  188.2990  176.2050  134.6000 O   0  0  0  0  0  0  0  0  0  0  0  0
  190.0870  175.2940  136.3070 S   0  0  0  0  0  0  0  0  0  0  0  0
  188.6210  177.0160  138.0780 N   0  0  2  0  0  0  0  0  0  0  0  0
  186.5170  177.2740  136.8970 C   0  0  1  0  0  3  0  0  0  0  0  0
  188.6510  176.2270  135.7680 C   0  0  0  0  0  0  0  0  0  0  0  0
  188.0450  177.1900  136.7440 C   0  0  2  0  0  3  0  0  0  0  0  0
  183.4070  177.1100  139.3360 C   0  0  0  0  0  1  0  0  0  0  0  0
  183.9600  178.2340  138.4660 C   0  0  1  0  0  3  0  0  0  0  0  0
  183.0450  179.4520  138.4850 C   0  0  0  0  0  2  0  0  0  0  0  0
  181.7000  179.1170  139.1080 C   0  0  0  0  0  2  0  0  0  0  0  0
  181.0380  180.2870  139.4830 O   0  0  0  0  0  1  0  0  0  0  0  0
  186.8030  178.8360  142.3640 O   0  0  0  0  0  0  0  0  0  0  0  0
  186.7490  177.8660  143.4000 C   0  0  0  0  0  2  0  0  0  0  0  0
  185.6800  178.2540  144.3990 C   0  0  0  0  0  1  0  0  0  0  0  0
  185.8350  176.0280  136.5140 N   0  0  0  0  0  0  0  0  0  0  0  0
  184.8810  176.0170  135.4430 C   0  0  0  0  0  3  0  0  0  0  0  0
  184.3070  177.1260  134.9900 C   0  0  0  0  0  2  0  0  0  0  0  0
  185.9220  174.9250  137.3050 O   0  0  0  0  0  0  0  0  0  0  0  0
  184.7520  173.0190  137.7460 O   0  0  0  0  0  1  0  0  0  0  0  0
  184.6600  174.3250  137.2680 C   0  0  0  0  0  2  0  0  0  0  0  0
  1  4  1  1  0  0  0
  2 13  1  0  0  0  0
  2 10  1  1  0  0  0
  3  8  1  0  0  0  0
  3  1  1  0  0  0  0
  4  7  1  0  0  0  0
  6  5  1  0  0  0  0
  6  7  2  0  0  0  0
  7 22  1  0  0  0  0
  8  6  1  0  0  0  0
  9  2  1  0  0  0  0
 11 15  2  0  0  0  0
 12  9  1  0  0  0  0
 13  1  1  0  0  0  0
 14  3  1  0  0  0  0
 15 12  1  0  0  0  0
 15 16  1  0  0  0  0
 16 14  1  0  0  0  0
 16 13  1  0  0  0  0
 18 19  1  0  0  0  0
 18  8  1  0  0  0  0
 18 17  1  0  0  0  0
 19 20  1  0  0  0  0
 20 21  1  0  0  0  0
 22 23  1  0  0  0  0
 23 24  1  0  0  0  0
 25 14  1  0  0  0  0
 25 28  1  0  0  0  0
 26 25  1  0  0  0  0
 27 26  2  0  0  0  0
 30 28  1  0  0  0  0
 30 29  1  0  0  0  0
M  END
>  <MODEL>
9

>  <REMARK>
 VINA RESULT:      -5.6      3.487      7.182
  Name = 
  9 active torsions:
  status: ('A' for Active; 'I' for Inactive)
    1  A    between atoms: C_7  and  C_16
    2  A    between atoms: C_7  and  C_30
    3  A    between atoms: O_9  and  C_12
    4  A    between atoms: O_9  and  C_17
    5  A    between atoms: C_10  and  N_25
    6  A    between atoms: C_11  and  O_24
    7  A    between atoms: C_13  and  C_30
    8  A    between atoms: C_23  and  N_25
    9  A    between atoms: O_24  and  N_25
                            x       y       z     vdW  Elec       q    Type
                         _______ _______ _______ _____ _____    ______ ____

>  <TORSDO>
F 9

$$$$
