=
 OpenBabel11052417013D

 32 38  0  0  1  0  0  0  0  0999 V2000
  187.2520  177.9680  136.9400 C   0  0  1  0  0  3  0  0  0  0  0  0
  187.9840  178.0060  142.0570 C   0  0  0  0  0  0  0  0  0  0  0  0
  183.3940  178.4740  143.9050 C   0  0  0  0  0  2  0  0  0  0  0  0
  184.0110  179.0520  145.1640 C   0  0  0  0  0  2  0  0  0  0  0  0
  189.9300  177.5520  143.6450 C   0  0  0  0  0  0  0  0  0  0  0  0
  190.3370  177.1140  144.9890 C   0  0  0  0  0  0  0  0  0  0  0  0
  188.3170  178.0050  139.6350 C   0  0  0  0  0  0  0  0  0  0  0  0
  186.1160  178.4220  140.5460 C   0  0  0  0  0  3  0  0  0  0  0  0
  191.0790  176.2390  147.5460 C   0  0  0  0  0  3  0  0  0  0  0  0
  186.3760  178.5120  138.0690 C   0  0  0  0  0  2  0  0  0  0  0  0
  184.2940  178.7950  142.7200 C   0  0  0  0  0  2  0  0  0  0  0  0
  186.6070  178.2810  141.8550 C   0  0  0  0  0  0  0  0  0  0  0  0
  185.7400  178.4070  142.9530 C   0  0  0  0  0  0  0  0  0  0  0  0
  187.6120  177.9910  144.4730 C   0  0  0  0  0  0  0  0  0  0  0  0
  191.9740  176.1180  146.4800 C   0  0  0  0  0  3  0  0  0  0  0  0
  188.7180  178.3440  137.1730 C   0  0  0  0  0  2  0  0  0  0  0  0
  186.9500  178.2750  139.4390 C   0  0  0  0  0  0  0  0  0  0  0  0
  191.6050  176.5540  145.2050 C   0  0  0  0  0  3  0  0  0  0  0  0
  189.2450  177.7540  138.4810 C   0  0  0  0  0  2  0  0  0  0  0  0
  185.3150  178.3220  145.4560 C   0  0  0  0  0  2  0  0  0  0  0  0
  186.2470  178.2740  144.2650 C   0  0  0  0  0  0  0  0  0  0  0  0
  188.1220  177.9260  145.8970 C   0  0  0  0  0  2  0  0  0  0  0  0
  188.8110  177.8600  140.9300 C   0  0  0  0  0  3  0  0  0  0  0  0
  190.8060  177.6480  142.7420 O   0  0  0  0  0  0  0  0  0  0  0  0
  189.8170  176.8010  147.3360 C   0  0  0  0  0  3  0  0  0  0  0  0
  188.4960  177.8690  143.3730 C   0  0  0  0  0  0  0  0  0  0  0  0
  189.4380  177.2300  146.0610 C   0  0  0  0  0  0  0  0  0  0  0  0
  187.0560  176.4640  136.7840 C   0  0  0  0  0  2  0  0  0  0  0  0
  185.5850  176.1050  136.8850 C   0  0  0  0  0  2  0  0  0  0  0  0
  185.3730  174.6890  136.3920 C   0  0  0  0  0  3  0  0  0  0  0  0
  184.7570  173.8600  137.5000 C   0  0  0  0  0  2  0  0  0  0  0  0
  186.2370  173.7480  137.2030 C   0  0  0  0  0  2  0  0  0  0  0  0
  1 28  1  1  0  0  0
  1 16  1  0  0  0  0
  1 10  1  0  0  0  0
  2 26  1  0  0  0  0
  3  4  1  0  0  0  0
  4 20  1  0  0  0  0
  5  6  1  0  0  0  0
  6 18  2  0  0  0  0
  6 27  1  0  0  0  0
  7 23  1  0  0  0  0
  8 12  2  0  0  0  0
 10 17  1  0  0  0  0
 11 13  1  0  0  0  0
 11  3  1  0  0  0  0
 12  2  1  0  0  0  0
 12 13  1  0  0  0  0
 13 21  2  0  0  0  0
 14 22  1  0  0  0  0
 15  9  2  0  0  0  0
 16 19  1  0  0  0  0
 17  7  2  0  0  0  0
 17  8  1  0  0  0  0
 18 15  1  0  0  0  0
 19  7  1  0  0  0  0
 21 14  1  0  0  0  0
 21 20  1  0  0  0  0
 22 27  1  0  0  0  0
 23  2  2  0  0  0  0
 24  5  2  0  0  0  0
 25  9  1  0  0  0  0
 26  5  1  0  0  0  0
 26 14  2  0  0  0  0
 27 25  2  0  0  0  0
 28 29  1  0  0  0  0
 30 29  1  0  0  0  0
 30 32  1  0  0  0  0
 30 31  1  0  0  0  0
 32 31  1  0  0  0  0
M  END
>  <MODEL>
1

>  <REMARK>
 VINA RESULT:     -11.3      0.000      0.000
  Name = 
  3 active torsions:
  status: ('A' for Active; 'I' for Inactive)
    1  A    between atoms: C_1  and  C_10
    2  A    between atoms: C_2  and  C_24
    3  A    between atoms: C_10  and  C_24
                            x       y       z     vdW  Elec       q    Type
                         _______ _______ _______ _____ _____    ______ ____

>  <TORSDO>
F 3

$$$$
=
 OpenBabel11052417013D

 32 38  0  0  1  0  0  0  0  0999 V2000
  187.8350  177.7860  136.8560 C   0  0  1  0  0  3  0  0  0  0  0  0
  188.3420  177.8910  141.9990 C   0  0  0  0  0  0  0  0  0  0  0  0
  183.6920  178.5240  143.6340 C   0  0  0  0  0  2  0  0  0  0  0  0
  184.2700  179.1060  144.9100 C   0  0  0  0  0  2  0  0  0  0  0  0
  190.2030  177.4070  143.6790 C   0  0  0  0  0  0  0  0  0  0  0  0
  190.5370  176.9810  145.0470 C   0  0  0  0  0  0  0  0  0  0  0  0
  188.7820  177.8380  139.5940 C   0  0  0  0  0  0  0  0  0  0  0  0
  186.5560  178.3350  140.4000 C   0  0  0  0  0  3  0  0  0  0  0  0
  191.1390  176.1290  147.6470 C   0  0  0  0  0  3  0  0  0  0  0  0
  186.9270  178.3750  137.9370 C   0  0  0  0  0  2  0  0  0  0  0  0
  184.6530  178.7980  142.4860 C   0  0  0  0  0  2  0  0  0  0  0  0
  186.9850  178.2020  141.7320 C   0  0  0  0  0  0  0  0  0  0  0  0
  186.0750  178.3730  142.7880 C   0  0  0  0  0  0  0  0  0  0  0  0
  187.8650  177.9280  144.3960 C   0  0  0  0  0  0  0  0  0  0  0  0
  192.0760  175.9630  146.6240 C   0  0  0  0  0  3  0  0  0  0  0  0
  189.3000  178.1230  137.1480 C   0  0  0  0  0  2  0  0  0  0  0  0
  187.4330  178.1440  139.3340 C   0  0  0  0  0  0  0  0  0  0  0  0
  191.7770  176.3880  145.3280 C   0  0  0  0  0  3  0  0  0  0  0  0
  189.7510  177.5400  138.4870 C   0  0  0  0  0  2  0  0  0  0  0  0
  185.5370  178.3430  145.2710 C   0  0  0  0  0  2  0  0  0  0  0  0
  186.5190  178.2470  144.1240 C   0  0  0  0  0  0  0  0  0  0  0  0
  188.3100  177.8730  145.8420 C   0  0  0  0  0  2  0  0  0  0  0  0
  189.2140  177.7010  140.9120 C   0  0  0  0  0  3  0  0  0  0  0  0
  191.1200  177.4620  142.8140 O   0  0  0  0  0  0  0  0  0  0  0  0
  189.9050  176.7230  147.3730 C   0  0  0  0  0  3  0  0  0  0  0  0
  188.7920  177.7610  143.3380 C   0  0  0  0  0  0  0  0  0  0  0  0
  189.5960  177.1410  146.0760 C   0  0  0  0  0  0  0  0  0  0  0  0
  187.6000  176.2850  136.7160 C   0  0  0  0  0  2  0  0  0  0  0  0
  188.7770  175.6250  136.0230 C   0  0  0  0  0  2  0  0  0  0  0  0
  189.0120  174.2530  136.6190 C   0  0  0  0  0  3  0  0  0  0  0  0
  190.4560  174.1410  137.0620 C   0  0  0  0  0  2  0  0  0  0  0  0
  190.0120  173.5070  135.7610 C   0  0  0  0  0  2  0  0  0  0  0  0
  1 28  1  1  0  0  0
  1 16  1  0  0  0  0
  1 10  1  0  0  0  0
  2 26  1  0  0  0  0
  3  4  1  0  0  0  0
  4 20  1  0  0  0  0
  5  6  1  0  0  0  0
  6 18  2  0  0  0  0
  6 27  1  0  0  0  0
  7 23  1  0  0  0  0
  8 12  2  0  0  0  0
 10 17  1  0  0  0  0
 11 13  1  0  0  0  0
 11  3  1  0  0  0  0
 12  2  1  0  0  0  0
 12 13  1  0  0  0  0
 13 21  2  0  0  0  0
 14 22  1  0  0  0  0
 15  9  2  0  0  0  0
 16 19  1  0  0  0  0
 17  7  2  0  0  0  0
 17  8  1  0  0  0  0
 18 15  1  0  0  0  0
 19  7  1  0  0  0  0
 21 14  1  0  0  0  0
 21 20  1  0  0  0  0
 22 27  1  0  0  0  0
 23  2  2  0  0  0  0
 24  5  2  0  0  0  0
 25  9  1  0  0  0  0
 26  5  1  0  0  0  0
 26 14  2  0  0  0  0
 27 25  2  0  0  0  0
 29 30  1  0  0  0  0
 29 28  1  0  0  0  0
 30 31  1  0  0  0  0
 32 30  1  0  0  0  0
 32 31  1  0  0  0  0
M  END
>  <MODEL>
2

>  <REMARK>
 VINA RESULT:     -11.0      1.249      1.564
  Name = 
  3 active torsions:
  status: ('A' for Active; 'I' for Inactive)
    1  A    between atoms: C_1  and  C_10
    2  A    between atoms: C_2  and  C_24
    3  A    between atoms: C_10  and  C_24
                            x       y       z     vdW  Elec       q    Type
                         _______ _______ _______ _____ _____    ______ ____

>  <TORSDO>
F 3

$$$$
=
 OpenBabel11052417013D

 32 38  0  0  1  0  0  0  0  0999 V2000
  180.4530  178.8960  142.7810 C   0  0  1  0  0  3  0  0  0  0  0  0
  185.5920  178.4150  142.4990 C   0  0  0  0  0  0  0  0  0  0  0  0
  186.9480  177.4390  147.1800 C   0  0  0  0  0  2  0  0  0  0  0  0
  188.3250  177.9760  146.8430 C   0  0  0  0  0  2  0  0  0  0  0  0
  187.3300  178.2570  140.6360 C   0  0  0  0  0  0  0  0  0  0  0  0
  188.6540  177.7570  140.2370 C   0  0  0  0  0  0  0  0  0  0  0  0
  183.2380  178.8330  141.9840 C   0  0  0  0  0  0  0  0  0  0  0  0
  183.9340  178.5450  144.2830 C   0  0  0  0  0  3  0  0  0  0  0  0
  191.1650  176.7560  139.4950 C   0  0  0  0  0  3  0  0  0  0  0  0
  181.5290  179.0390  143.8590 C   0  0  0  0  0  2  0  0  0  0  0  0
  185.9160  178.1380  146.3060 C   0  0  0  0  0  2  0  0  0  0  0  0
  185.2670  178.3550  143.8780 C   0  0  0  0  0  0  0  0  0  0  0  0
  186.2660  178.1040  144.8330 C   0  0  0  0  0  0  0  0  0  0  0  0
  187.9330  177.9730  143.0460 C   0  0  0  0  0  0  0  0  0  0  0  0
  190.2010  177.0150  138.5180 C   0  0  0  0  0  3  0  0  0  0  0  0
  180.8920  179.5980  141.4930 C   0  0  0  0  0  2  0  0  0  0  0  0
  182.9200  178.7690  143.3530 C   0  0  0  0  0  0  0  0  0  0  0  0
  188.9490  177.5140  138.8870 C   0  0  0  0  0  3  0  0  0  0  0  0
  182.1760  178.9870  140.9340 C   0  0  0  0  0  2  0  0  0  0  0  0
  188.6800  177.5690  145.4200 C   0  0  0  0  0  2  0  0  0  0  0  0
  187.6050  177.9240  144.4160 C   0  0  0  0  0  0  0  0  0  0  0  0
  189.3890  177.8450  142.6530 C   0  0  0  0  0  2  0  0  0  0  0  0
  184.5570  178.6410  141.5750 C   0  0  0  0  0  3  0  0  0  0  0  0
  186.5480  178.6970  139.7480 O   0  0  0  0  0  0  0  0  0  0  0  0
  190.8770  177.0010  140.8400 C   0  0  0  0  0  3  0  0  0  0  0  0
  186.9340  178.2330  142.0760 C   0  0  0  0  0  0  0  0  0  0  0  0
  189.6230  177.4910  141.2160 C   0  0  0  0  0  0  0  0  0  0  0  0
  180.1090  177.4280  142.5560 C   0  0  0  0  0  2  0  0  0  0  0  0
  179.3210  177.2570  141.2710 C   0  0  0  0  0  2  0  0  0  0  0  0
  179.7230  175.9620  140.5970 C   0  0  0  0  0  3  0  0  0  0  0  0
  180.4130  176.2740  139.2850 C   0  0  0  0  0  2  0  0  0  0  0  0
  178.9670  175.8280  139.2930 C   0  0  0  0  0  2  0  0  0  0  0  0
  1 28  1  6  0  0  0
  1 10  1  0  0  0  0
  2 12  1  0  0  0  0
  4  3  1  0  0  0  0
  5 26  1  0  0  0  0
  6  5  1  0  0  0  0
  6 27  1  0  0  0  0
  7 17  1  0  0  0  0
  9 25  1  0  0  0  0
 11  3  1  0  0  0  0
 12  8  1  0  0  0  0
 12 13  2  0  0  0  0
 13 11  1  0  0  0  0
 14 21  2  0  0  0  0
 15 18  1  0  0  0  0
 15  9  2  0  0  0  0
 16  1  1  0  0  0  0
 17 10  1  0  0  0  0
 17  8  2  0  0  0  0
 18  6  2  0  0  0  0
 19 16  1  0  0  0  0
 19  7  1  0  0  0  0
 20  4  1  0  0  0  0
 21 13  1  0  0  0  0
 21 20  1  0  0  0  0
 22 14  1  0  0  0  0
 23  7  2  0  0  0  0
 23  2  1  0  0  0  0
 24  5  2  0  0  0  0
 25 27  2  0  0  0  0
 26  2  2  0  0  0  0
 26 14  1  0  0  0  0
 27 22  1  0  0  0  0
 29 28  1  0  0  0  0
 30 29  1  0  0  0  0
 31 32  1  0  0  0  0
 31 30  1  0  0  0  0
 32 30  1  0  0  0  0
M  END
>  <MODEL>
3

>  <REMARK>
 VINA RESULT:     -10.3      2.682      5.839
  Name = 
  3 active torsions:
  status: ('A' for Active; 'I' for Inactive)
    1  A    between atoms: C_1  and  C_10
    2  A    between atoms: C_2  and  C_24
    3  A    between atoms: C_10  and  C_24
                            x       y       z     vdW  Elec       q    Type
                         _______ _______ _______ _____ _____    ______ ____

>  <TORSDO>
F 3

$$$$
=
 OpenBabel11052417013D

 32 38  0  0  1  0  0  0  0  0999 V2000
  186.1010  177.7620  137.1010 C   0  0  1  0  0  3  0  0  0  0  0  0
  187.4270  177.9360  142.0950 C   0  0  0  0  0  0  0  0  0  0  0  0
  183.0890  178.5140  144.4510 C   0  0  0  0  0  2  0  0  0  0  0  0
  183.8550  179.1190  145.6120 C   0  0  0  0  0  2  0  0  0  0  0  0
  189.5410  177.5020  143.4580 C   0  0  0  0  0  0  0  0  0  0  0  0
  190.0980  177.0970  144.7580 C   0  0  0  0  0  0  0  0  0  0  0  0
  187.4750  177.8620  139.6510 C   0  0  0  0  0  0  0  0  0  0  0  0
  185.3990  178.3320  140.8000 C   0  0  0  0  0  3  0  0  0  0  0  0
  191.1260  176.2850  147.2350 C   0  0  0  0  0  3  0  0  0  0  0  0
  185.3680  178.3500  138.3090 C   0  0  0  0  0  2  0  0  0  0  0  0
  183.8480  178.7900  143.1610 C   0  0  0  0  0  2  0  0  0  0  0  0
  186.0390  178.2220  142.0460 C   0  0  0  0  0  0  0  0  0  0  0  0
  185.3070  178.3910  143.2340 C   0  0  0  0  0  0  0  0  0  0  0  0
  187.3400  177.9930  144.5370 C   0  0  0  0  0  0  0  0  0  0  0  0
  191.8890  176.1220  146.0760 C   0  0  0  0  0  3  0  0  0  0  0  0
  187.5880  178.1260  137.1510 C   0  0  0  0  0  2  0  0  0  0  0  0
  186.0970  178.1430  139.6090 C   0  0  0  0  0  0  0  0  0  0  0  0
  191.3770  176.5280  144.8410 C   0  0  0  0  0  3  0  0  0  0  0  0
  188.2590  177.5670  138.4050 C   0  0  0  0  0  2  0  0  0  0  0  0
  185.1760  178.3820  145.7710 C   0  0  0  0  0  2  0  0  0  0  0  0
  185.9620  178.2880  144.4820 C   0  0  0  0  0  0  0  0  0  0  0  0
  188.0120  177.9630  145.8930 C   0  0  0  0  0  2  0  0  0  0  0  0
  188.1150  177.7480  140.8840 C   0  0  0  0  0  3  0  0  0  0  0  0
  190.3060  177.5610  142.4560 O   0  0  0  0  0  0  0  0  0  0  0  0
  189.8530  176.8570  147.1580 C   0  0  0  0  0  3  0  0  0  0  0  0
  188.0880  177.8290  143.3450 C   0  0  0  0  0  0  0  0  0  0  0  0
  189.3320  177.2550  145.9230 C   0  0  0  0  0  0  0  0  0  0  0  0
  185.8740  176.2570  137.0140 C   0  0  0  0  0  2  0  0  0  0  0  0
  185.0240  175.9150  135.8050 C   0  0  0  0  0  2  0  0  0  0  0  0
  183.9020  174.9870  136.2190 C   0  0  0  0  0  3  0  0  0  0  0  0
  182.7110  175.8110  136.6650 C   0  0  0  0  0  2  0  0  0  0  0  0
  183.6230  175.1770  137.6940 C   0  0  0  0  0  2  0  0  0  0  0  0
  1 28  1  1  0  0  0
  1 16  1  0  0  0  0
  1 10  1  0  0  0  0
  2 26  1  0  0  0  0
  3  4  1  0  0  0  0
  4 20  1  0  0  0  0
  5  6  1  0  0  0  0
  6 18  2  0  0  0  0
  6 27  1  0  0  0  0
  7 23  1  0  0  0  0
  8 12  2  0  0  0  0
 10 17  1  0  0  0  0
 11 13  1  0  0  0  0
 11  3  1  0  0  0  0
 12  2  1  0  0  0  0
 12 13  1  0  0  0  0
 13 21  2  0  0  0  0
 14 22  1  0  0  0  0
 15  9  2  0  0  0  0
 16 19  1  0  0  0  0
 17  7  2  0  0  0  0
 17  8  1  0  0  0  0
 18 15  1  0  0  0  0
 19  7  1  0  0  0  0
 21 14  1  0  0  0  0
 21 20  1  0  0  0  0
 22 27  1  0  0  0  0
 23  2  2  0  0  0  0
 24  5  2  0  0  0  0
 25  9  1  0  0  0  0
 26  5  1  0  0  0  0
 26 14  2  0  0  0  0
 27 25  2  0  0  0  0
 29 30  1  0  0  0  0
 29 28  1  0  0  0  0
 30 31  1  0  0  0  0
 30 32  1  0  0  0  0
 31 32  1  0  0  0  0
M  END
>  <MODEL>
4

>  <REMARK>
 VINA RESULT:     -10.2      0.885      1.033
  Name = 
  3 active torsions:
  status: ('A' for Active; 'I' for Inactive)
    1  A    between atoms: C_1  and  C_10
    2  A    between atoms: C_2  and  C_24
    3  A    between atoms: C_10  and  C_24
                            x       y       z     vdW  Elec       q    Type
                         _______ _______ _______ _____ _____    ______ ____

>  <TORSDO>
F 3

$$$$
=
 OpenBabel11052417013D

 32 38  0  0  1  0  0  0  0  0999 V2000
  181.2120  179.7660  138.9340 C   0  0  1  0  0  3  0  0  0  0  0  0
  185.2670  178.3650  141.8180 C   0  0  0  0  0  0  0  0  0  0  0  0
  189.0900  178.5330  138.6470 C   0  0  0  0  0  2  0  0  0  0  0  0
  189.8170  177.5520  139.5450 C   0  0  0  0  0  2  0  0  0  0  0  0
  185.7190  177.9790  144.3010 C   0  0  0  0  0  0  0  0  0  0  0  0
  186.7210  177.9860  145.3780 C   0  0  0  0  0  0  0  0  0  0  0  0
  183.0090  178.8570  141.0180 C   0  0  0  0  0  0  0  0  0  0  0  0
  184.8460  178.7510  139.4480 C   0  0  0  0  0  3  0  0  0  0  0  0
  188.6460  178.0450  147.4140 C   0  0  0  0  0  3  0  0  0  0  0  0
  182.5700  179.1860  138.5330 C   0  0  0  0  0  2  0  0  0  0  0  0
  187.5900  178.3030  138.7730 C   0  0  0  0  0  2  0  0  0  0  0  0
  185.7470  178.4650  140.4880 C   0  0  0  0  0  0  0  0  0  0  0  0
  187.1120  178.2860  140.2110 C   0  0  0  0  0  0  0  0  0  0  0  0
  187.5390  177.8980  142.5890 C   0  0  0  0  0  0  0  0  0  0  0  0
  187.2940  178.2060  147.7270 C   0  0  0  0  0  3  0  0  0  0  0  0
  180.6530  179.0230  140.1500 C   0  0  0  0  0  2  0  0  0  0  0  0
  183.4910  178.9590  139.7000 C   0  0  0  0  0  0  0  0  0  0  0  0
  186.3330  178.1760  146.7130 C   0  0  0  0  0  3  0  0  0  0  0  0
  181.5780  179.1540  141.3600 C   0  0  0  0  0  2  0  0  0  0  0  0
  189.4940  177.8770  140.9970 C   0  0  0  0  0  2  0  0  0  0  0  0
  188.0090  177.9890  141.2630 C   0  0  0  0  0  0  0  0  0  0  0  0
  188.5230  177.5090  143.6720 C   0  0  0  0  0  2  0  0  0  0  0  0
  183.8980  178.5780  142.0550 C   0  0  0  0  0  3  0  0  0  0  0  0
  184.4960  177.9010  144.6030 O   0  0  0  0  0  0  0  0  0  0  0  0
  189.0350  177.8510  146.0870 C   0  0  0  0  0  3  0  0  0  0  0  0
  186.1630  178.0700  142.8780 C   0  0  0  0  0  0  0  0  0  0  0  0
  188.0800  177.8300  145.0660 C   0  0  0  0  0  0  0  0  0  0  0  0
  181.3180  181.2690  139.1700 C   0  0  0  0  0  2  0  0  0  0  0  0
  181.6840  181.9860  137.8840 C   0  0  0  0  0  2  0  0  0  0  0  0
  180.7400  183.1500  137.6650 C   0  0  0  0  0  3  0  0  0  0  0  0
  180.8120  183.5850  136.2160 C   0  0  0  0  0  2  0  0  0  0  0  0
  181.5450  184.3720  137.2800 C   0  0  0  0  0  2  0  0  0  0  0  0
  1 28  1  1  0  0  0
  1 16  1  0  0  0  0
  2 23  2  0  0  0  0
  2 26  1  0  0  0  0
  3 11  1  0  0  0  0
  3  4  1  0  0  0  0
  4 20  1  0  0  0  0
  5 24  2  0  0  0  0
  5  6  1  0  0  0  0
  6 18  1  0  0  0  0
  7 19  1  0  0  0  0
  7 23  1  0  0  0  0
  8 17  1  0  0  0  0
  8 12  2  0  0  0  0
  9 15  1  0  0  0  0
 10  1  1  0  0  0  0
 10 17  1  0  0  0  0
 11 13  1  0  0  0  0
 12  2  1  0  0  0  0
 13 12  1  0  0  0  0
 13 21  2  0  0  0  0
 14 26  2  0  0  0  0
 14 22  1  0  0  0  0
 16 19  1  0  0  0  0
 17  7  2  0  0  0  0
 18 15  2  0  0  0  0
 20 21  1  0  0  0  0
 21 14  1  0  0  0  0
 22 27  1  0  0  0  0
 25  9  2  0  0  0  0
 26  5  1  0  0  0  0
 27  6  2  0  0  0  0
 27 25  1  0  0  0  0
 29 28  1  0  0  0  0
 30 29  1  0  0  0  0
 31 32  1  0  0  0  0
 31 30  1  0  0  0  0
 32 30  1  0  0  0  0
M  END
>  <MODEL>
5

>  <REMARK>
 VINA RESULT:     -10.1      3.455      5.912
  Name = 
  3 active torsions:
  status: ('A' for Active; 'I' for Inactive)
    1  A    between atoms: C_1  and  C_10
    2  A    between atoms: C_2  and  C_24
    3  A    between atoms: C_10  and  C_24
                            x       y       z     vdW  Elec       q    Type
                         _______ _______ _______ _____ _____    ______ ____

>  <TORSDO>
F 3

$$$$
=
 OpenBabel11052417013D

 32 38  0  0  1  0  0  0  0  0999 V2000
  189.3110  177.5610  147.5600 C   0  0  1  0  0  3  0  0  0  0  0  0
  185.6720  178.4730  144.0030 C   0  0  0  0  0  0  0  0  0  0  0  0
  187.9880  177.6090  139.6920 C   0  0  0  0  0  2  0  0  0  0  0  0
  186.9710  178.5100  139.0190 C   0  0  0  0  0  2  0  0  0  0  0  0
  183.1540  178.8930  144.0070 C   0  0  0  0  0  0  0  0  0  0  0  0
  181.8940  178.7860  143.2550 C   0  0  0  0  0  0  0  0  0  0  0  0
  186.9130  178.2840  146.1020 C   0  0  0  0  0  0  0  0  0  0  0  0
  188.0730  178.0520  143.9920 C   0  0  0  0  0  3  0  0  0  0  0  0
  179.5050  178.5310  141.8120 C   0  0  0  0  0  3  0  0  0  0  0  0
  189.4310  177.9180  146.0770 C   0  0  0  0  0  2  0  0  0  0  0  0
  188.1750  178.0620  141.1330 C   0  0  0  0  0  2  0  0  0  0  0  0
  186.8740  178.2460  143.2860 C   0  0  0  0  0  0  0  0  0  0  0  0
  186.8670  178.2110  141.8820 C   0  0  0  0  0  0  0  0  0  0  0  0
  184.4560  178.6330  141.8880 C   0  0  0  0  0  0  0  0  0  0  0  0
  179.4750  178.5840  143.2070 C   0  0  0  0  0  3  0  0  0  0  0  0
  188.2440  178.4300  148.2330 C   0  0  0  0  0  2  0  0  0  0  0  0
  188.1020  178.0560  145.3860 C   0  0  0  0  0  0  0  0  0  0  0  0
  180.6650  178.7120  143.9280 C   0  0  0  0  0  3  0  0  0  0  0  0
  186.8690  178.2160  147.6010 C   0  0  0  0  0  2  0  0  0  0  0  0
  185.6130  178.2990  139.6740 C   0  0  0  0  0  2  0  0  0  0  0  0
  185.6570  178.4170  141.1810 C   0  0  0  0  0  0  0  0  0  0  0  0
  183.1990  178.9190  141.0950 C   0  0  0  0  0  2  0  0  0  0  0  0
  185.7180  178.4730  145.4080 C   0  0  0  0  0  3  0  0  0  0  0  0
  183.1110  179.1630  145.2390 O   0  0  0  0  0  0  0  0  0  0  0  0
  180.7260  178.6090  141.1380 C   0  0  0  0  0  3  0  0  0  0  0  0
  184.4540  178.6780  143.3040 C   0  0  0  0  0  0  0  0  0  0  0  0
  181.9210  178.7270  141.8530 C   0  0  0  0  0  0  0  0  0  0  0  0
  189.0410  176.0710  147.7340 C   0  0  0  0  0  2  0  0  0  0  0  0
  190.3430  175.2950  147.7820 C   0  0  0  0  0  2  0  0  0  0  0  0
  191.4970  176.2200  147.4530 C   0  0  0  0  0  3  0  0  0  0  0  0
  192.4860  175.4880  146.5690 C   0  0  0  0  0  2  0  0  0  0  0  0
  192.7680  175.6530  148.0470 C   0  0  0  0  0  2  0  0  0  0  0  0
  1 28  1  6  0  0  0
  1 16  1  0  0  0  0
  2 23  2  0  0  0  0
  3 11  1  0  0  0  0
  4 20  1  0  0  0  0
  4  3  1  0  0  0  0
  5 24  2  0  0  0  0
  6 18  1  0  0  0  0
  6  5  1  0  0  0  0
  7 19  1  0  0  0  0
  8 17  1  0  0  0  0
  9 15  1  0  0  0  0
 10  1  1  0  0  0  0
 11 13  1  0  0  0  0
 12  8  2  0  0  0  0
 12  2  1  0  0  0  0
 13 12  1  0  0  0  0
 14 26  2  0  0  0  0
 15 18  2  0  0  0  0
 17 10  1  0  0  0  0
 17  7  2  0  0  0  0
 19 16  1  0  0  0  0
 20 21  1  0  0  0  0
 21 13  2  0  0  0  0
 21 14  1  0  0  0  0
 22 27  1  0  0  0  0
 22 14  1  0  0  0  0
 23  7  1  0  0  0  0
 25  9  2  0  0  0  0
 25 27  1  0  0  0  0
 26  2  1  0  0  0  0
 26  5  1  0  0  0  0
 27  6  2  0  0  0  0
 28 29  1  0  0  0  0
 30 29  1  0  0  0  0
 30 32  1  0  0  0  0
 31 30  1  0  0  0  0
 31 32  1  0  0  0  0
M  END
>  <MODEL>
6

>  <REMARK>
 VINA RESULT:      -9.4      2.492      8.614
  Name = 
  3 active torsions:
  status: ('A' for Active; 'I' for Inactive)
    1  A    between atoms: C_1  and  C_10
    2  A    between atoms: C_2  and  C_24
    3  A    between atoms: C_10  and  C_24
                            x       y       z     vdW  Elec       q    Type
                         _______ _______ _______ _____ _____    ______ ____

>  <TORSDO>
F 3

$$$$
=
 OpenBabel11052417013D

 32 38  0  0  1  0  0  0  0  0999 V2000
  191.3060  176.0460  136.0700 C   0  0  1  0  0  3  0  0  0  0  0  0
  189.8590  177.3300  140.8630 C   0  0  0  0  0  0  0  0  0  0  0  0
  185.0610  178.5290  140.3700 C   0  0  0  0  0  2  0  0  0  0  0  0
  185.1900  179.3670  141.6270 C   0  0  0  0  0  2  0  0  0  0  0  0
  190.8730  177.1720  143.2010 C   0  0  0  0  0  0  0  0  0  0  0  0
  190.6110  177.0640  144.6440 C   0  0  0  0  0  0  0  0  0  0  0  0
  191.1560  176.6970  138.8900 C   0  0  0  0  0  0  0  0  0  0  0  0
  188.8770  177.4640  138.6360 C   0  0  0  0  0  3  0  0  0  0  0  0
  190.0780  176.8190  147.3840 C   0  0  0  0  0  3  0  0  0  0  0  0
  190.1450  176.9110  136.5640 C   0  0  0  0  0  2  0  0  0  0  0  0
  186.4090  178.4850  139.6640 C   0  0  0  0  0  2  0  0  0  0  0  0
  188.7540  177.6290  140.0260 C   0  0  0  0  0  0  0  0  0  0  0  0
  187.5450  178.0810  140.5810 C   0  0  0  0  0  0  0  0  0  0  0  0
  188.5270  177.9470  142.8180 C   0  0  0  0  0  0  0  0  0  0  0  0
  191.3000  176.3770  146.8690 C   0  0  0  0  0  3  0  0  0  0  0  0
  192.5860  176.3790  136.8430 C   0  0  0  0  0  2  0  0  0  0  0  0
  190.0560  176.9920  138.0640 C   0  0  0  0  0  0  0  0  0  0  0  0
  191.5660  176.5000  145.5030 C   0  0  0  0  0  3  0  0  0  0  0  0
  192.4220  176.1060  138.3380 C   0  0  0  0  0  2  0  0  0  0  0  0
  186.1180  178.6570  142.6020 C   0  0  0  0  0  2  0  0  0  0  0  0
  187.4360  178.2520  141.9790 C   0  0  0  0  0  0  0  0  0  0  0  0
  188.3870  178.2130  144.3010 C   0  0  0  0  0  2  0  0  0  0  0  0
  191.0410  176.8540  140.2700 C   0  0  0  0  0  3  0  0  0  0  0  0
  192.0460  176.9830  142.7750 O   0  0  0  0  0  0  0  0  0  0  0  0
  189.1260  177.3850  146.5330 C   0  0  0  0  0  3  0  0  0  0  0  0
  189.7530  177.4980  142.2680 C   0  0  0  0  0  0  0  0  0  0  0  0
  189.3830  177.5010  145.1640 C   0  0  0  0  0  0  0  0  0  0  0  0
  190.9470  174.5670  136.1490 C   0  0  0  0  0  2  0  0  0  0  0  0
  189.7920  174.2480  135.2190 C   0  0  0  0  0  2  0  0  0  0  0  0
  188.8380  173.2910  135.9030 C   0  0  0  0  0  3  0  0  0  0  0  0
  187.4170  173.6270  135.4980 C   0  0  0  0  0  2  0  0  0  0  0  0
  187.9460  174.0710  136.8440 C   0  0  0  0  0  2  0  0  0  0  0  0
  1 28  1  1  0  0  0
  1 10  1  0  0  0  0
  1 16  1  0  0  0  0
  2 26  1  0  0  0  0
  3  4  1  0  0  0  0
  4 20  1  0  0  0  0
  5  6  1  0  0  0  0
  6 27  2  0  0  0  0
  6 18  1  0  0  0  0
  7 23  1  0  0  0  0
  8 12  2  0  0  0  0
 10 17  1  0  0  0  0
 11  3  1  0  0  0  0
 11 13  1  0  0  0  0
 12 13  1  0  0  0  0
 12  2  1  0  0  0  0
 13 21  2  0  0  0  0
 14 22  1  0  0  0  0
 15  9  1  0  0  0  0
 16 19  1  0  0  0  0
 17  8  1  0  0  0  0
 17  7  2  0  0  0  0
 18 15  2  0  0  0  0
 19  7  1  0  0  0  0
 21 20  1  0  0  0  0
 21 14  1  0  0  0  0
 22 27  1  0  0  0  0
 23  2  2  0  0  0  0
 24  5  2  0  0  0  0
 25  9  2  0  0  0  0
 26 14  2  0  0  0  0
 26  5  1  0  0  0  0
 27 25  1  0  0  0  0
 29 30  1  0  0  0  0
 29 28  1  0  0  0  0
 30 32  1  0  0  0  0
 31 30  1  0  0  0  0
 31 32  1  0  0  0  0
M  END
>  <MODEL>
7

>  <REMARK>
 VINA RESULT:      -9.4      1.974      2.979
  Name = 
  3 active torsions:
  status: ('A' for Active; 'I' for Inactive)
    1  A    between atoms: C_1  and  C_10
    2  A    between atoms: C_2  and  C_24
    3  A    between atoms: C_10  and  C_24
                            x       y       z     vdW  Elec       q    Type
                         _______ _______ _______ _____ _____    ______ ____

>  <TORSDO>
F 3

$$$$
=
 OpenBabel11052417013D

 32 38  0  0  1  0  0  0  0  0999 V2000
  188.3640  177.5230  135.8530 C   0  0  1  0  0  3  0  0  0  0  0  0
  186.7000  178.2620  140.6910 C   0  0  0  0  0  0  0  0  0  0  0  0
  181.7500  178.3250  140.2430 C   0  0  0  0  0  2  0  0  0  0  0  0
  181.6910  179.1240  141.5290 C   0  0  0  0  0  2  0  0  0  0  0  0
  187.7430  178.2630  143.0210 C   0  0  0  0  0  0  0  0  0  0  0  0
  187.5270  178.0460  144.4590 C   0  0  0  0  0  0  0  0  0  0  0  0
  188.0910  178.0210  138.6950 C   0  0  0  0  0  0  0  0  0  0  0  0
  185.6940  178.2430  138.4700 C   0  0  0  0  0  3  0  0  0  0  0  0
  187.0900  177.5850  147.1890 C   0  0  0  0  0  3  0  0  0  0  0  0
  187.0380  178.0750  136.3790 C   0  0  0  0  0  2  0  0  0  0  0  0
  183.0650  178.6220  139.5350 C   0  0  0  0  0  2  0  0  0  0  0  0
  185.5480  178.3240  139.8650 C   0  0  0  0  0  0  0  0  0  0  0  0
  184.2720  178.4620  140.4370 C   0  0  0  0  0  0  0  0  0  0  0  0
  185.2780  178.4820  142.6680 C   0  0  0  0  0  0  0  0  0  0  0  0
  188.3760  177.4600  146.6580 C   0  0  0  0  0  3  0  0  0  0  0  0
  189.5380  178.1180  136.6380 C   0  0  0  0  0  2  0  0  0  0  0  0
  186.9460  178.0800  137.8810 C   0  0  0  0  0  0  0  0  0  0  0  0
  188.5940  177.6900  145.2970 C   0  0  0  0  0  3  0  0  0  0  0  0
  189.4550  177.7620  138.1220 C   0  0  0  0  0  2  0  0  0  0  0  0
  182.7680  178.6160  142.4780 C   0  0  0  0  0  2  0  0  0  0  0  0
  184.1380  178.5530  141.8410 C   0  0  0  0  0  0  0  0  0  0  0  0
  185.0920  178.6550  144.1600 C   0  0  0  0  0  2  0  0  0  0  0  0
  187.9550  178.0970  140.0800 C   0  0  0  0  0  3  0  0  0  0  0  0
  188.9240  178.3690  142.5890 O   0  0  0  0  0  0  0  0  0  0  0  0
  186.0240  177.9440  146.3590 C   0  0  0  0  0  3  0  0  0  0  0  0
  186.5700  178.3510  142.1010 C   0  0  0  0  0  0  0  0  0  0  0  0
  186.2350  178.1650  144.9950 C   0  0  0  0  0  0  0  0  0  0  0  0
  188.3610  175.9990  135.8790 C   0  0  0  0  0  2  0  0  0  0  0  0
  186.9410  175.4680  135.8380 C   0  0  0  0  0  2  0  0  0  0  0  0
  186.7150  174.5300  137.0050 C   0  0  0  0  0  3  0  0  0  0  0  0
  185.5730  173.5900  136.6770 C   0  0  0  0  0  2  0  0  0  0  0  0
  185.3390  174.7810  137.5810 C   0  0  0  0  0  2  0  0  0  0  0  0
  1 28  1  1  0  0  0
  1 10  1  0  0  0  0
  1 16  1  0  0  0  0
  2 26  1  0  0  0  0
  3  4  1  0  0  0  0
  4 20  1  0  0  0  0
  5  6  1  0  0  0  0
  6 27  2  0  0  0  0
  6 18  1  0  0  0  0
  7 23  1  0  0  0  0
  8 12  2  0  0  0  0
 10 17  1  0  0  0  0
 11  3  1  0  0  0  0
 11 13  1  0  0  0  0
 12 13  1  0  0  0  0
 12  2  1  0  0  0  0
 13 21  2  0  0  0  0
 14 22  1  0  0  0  0
 15  9  1  0  0  0  0
 16 19  1  0  0  0  0
 17  8  1  0  0  0  0
 17  7  2  0  0  0  0
 18 15  2  0  0  0  0
 19  7  1  0  0  0  0
 21 20  1  0  0  0  0
 21 14  1  0  0  0  0
 22 27  1  0  0  0  0
 23  2  2  0  0  0  0
 24  5  2  0  0  0  0
 25  9  2  0  0  0  0
 26 14  2  0  0  0  0
 26  5  1  0  0  0  0
 27 25  1  0  0  0  0
 29 28  1  0  0  0  0
 29 30  1  0  0  0  0
 30 32  1  0  0  0  0
 31 30  1  0  0  0  0
 31 32  1  0  0  0  0
M  END
>  <MODEL>
8

>  <REMARK>
 VINA RESULT:      -9.2      1.528      2.715
  Name = 
  3 active torsions:
  status: ('A' for Active; 'I' for Inactive)
    1  A    between atoms: C_1  and  C_10
    2  A    between atoms: C_2  and  C_24
    3  A    between atoms: C_10  and  C_24
                            x       y       z     vdW  Elec       q    Type
                         _______ _______ _______ _____ _____    ______ ____

>  <TORSDO>
F 3

$$$$
=
 OpenBabel11052417013D

 32 38  0  0  1  0  0  0  0  0999 V2000
  181.9630  179.2450  139.5850 C   0  0  1  0  0  3  0  0  0  0  0  0
  186.0140  178.0710  142.5730 C   0  0  0  0  0  0  0  0  0  0  0  0
  189.8630  178.1420  139.4300 C   0  0  0  0  0  2  0  0  0  0  0  0
  190.5980  177.2230  140.3850 C   0  0  0  0  0  2  0  0  0  0  0  0
  186.4490  177.8250  145.0770 C   0  0  0  0  0  0  0  0  0  0  0  0
  187.4400  177.9070  146.1600 C   0  0  0  0  0  0  0  0  0  0  0  0
  183.7550  178.4800  141.7290 C   0  0  0  0  0  0  0  0  0  0  0  0
  185.6080  178.3240  140.1820 C   0  0  0  0  0  3  0  0  0  0  0  0
  189.3440  178.1080  148.2070 C   0  0  0  0  0  3  0  0  0  0  0  0
  183.3330  178.6690  139.2270 C   0  0  0  0  0  2  0  0  0  0  0  0
  188.3670  177.8910  139.5560 C   0  0  0  0  0  2  0  0  0  0  0  0
  186.5040  178.1100  141.2440 C   0  0  0  0  0  0  0  0  0  0  0  0
  187.8750  177.9410  140.9880 C   0  0  0  0  0  0  0  0  0  0  0  0
  188.2860  177.6870  143.3870 C   0  0  0  0  0  0  0  0  0  0  0  0
  187.9870  178.2610  148.5000 C   0  0  0  0  0  3  0  0  0  0  0  0
  181.4050  178.5560  140.8340 C   0  0  0  0  0  2  0  0  0  0  0  0
  184.2480  178.5210  140.4120 C   0  0  0  0  0  0  0  0  0  0  0  0
  187.0370  178.1600  147.4800 C   0  0  0  0  0  3  0  0  0  0  0  0
  182.3150  178.7680  142.0420 C   0  0  0  0  0  2  0  0  0  0  0  0
  190.2560  177.6170  141.8150 C   0  0  0  0  0  2  0  0  0  0  0  0
  188.7670  177.7170  142.0620 C   0  0  0  0  0  0  0  0  0  0  0  0
  189.2670  177.3730  144.4970 C   0  0  0  0  0  2  0  0  0  0  0  0
  184.6390  178.2720  142.7870 C   0  0  0  0  0  3  0  0  0  0  0  0
  185.2250  177.7410  145.3710 O   0  0  0  0  0  0  0  0  0  0  0  0
  189.7500  177.8510  146.8950 C   0  0  0  0  0  3  0  0  0  0  0  0
  186.9050  177.8490  143.6540 C   0  0  0  0  0  0  0  0  0  0  0  0
  188.8050  177.7590  145.8690 C   0  0  0  0  0  0  0  0  0  0  0  0
  182.0390  180.7600  139.7420 C   0  0  0  0  0  2  0  0  0  0  0  0
  180.7360  181.4070  139.3130 C   0  0  0  0  0  2  0  0  0  0  0  0
  180.9910  182.3400  138.1490 C   0  0  0  0  0  3  0  0  0  0  0  0
  179.8640  182.2070  137.1450 C   0  0  0  0  0  2  0  0  0  0  0  0
  181.1890  181.5200  136.8930 C   0  0  0  0  0  2  0  0  0  0  0  0
  1 28  1  1  0  0  0
  1 16  1  0  0  0  0
  2 23  2  0  0  0  0
  2 26  1  0  0  0  0
  3 11  1  0  0  0  0
  3  4  1  0  0  0  0
  4 20  1  0  0  0  0
  5 24  2  0  0  0  0
  5  6  1  0  0  0  0
  6 18  1  0  0  0  0
  7 19  1  0  0  0  0
  7 23  1  0  0  0  0
  8 17  1  0  0  0  0
  8 12  2  0  0  0  0
  9 15  1  0  0  0  0
 10  1  1  0  0  0  0
 10 17  1  0  0  0  0
 11 13  1  0  0  0  0
 12  2  1  0  0  0  0
 13 12  1  0  0  0  0
 13 21  2  0  0  0  0
 14 26  2  0  0  0  0
 14 22  1  0  0  0  0
 16 19  1  0  0  0  0
 17  7  2  0  0  0  0
 18 15  2  0  0  0  0
 20 21  1  0  0  0  0
 21 14  1  0  0  0  0
 22 27  1  0  0  0  0
 25  9  2  0  0  0  0
 26  5  1  0  0  0  0
 27  6  2  0  0  0  0
 27 25  1  0  0  0  0
 29 28  1  0  0  0  0
 30 29  1  0  0  0  0
 31 30  1  0  0  0  0
 32 31  1  0  0  0  0
 32 30  1  0  0  0  0
M  END
>  <MODEL>
9

>  <REMARK>
 VINA RESULT:      -9.2      3.068      5.466
  Name = 
  3 active torsions:
  status: ('A' for Active; 'I' for Inactive)
    1  A    between atoms: C_1  and  C_10
    2  A    between atoms: C_2  and  C_24
    3  A    between atoms: C_10  and  C_24
                            x       y       z     vdW  Elec       q    Type
                         _______ _______ _______ _____ _____    ______ ____

>  <TORSDO>
F 3

$$$$
