=
 OpenBabel11052414143D

 34 37  0  0  1  0  0  0  0  0999 V2000
  190.6410  177.3030  139.8750 C   0  0  1  0  0  3  0  0  0  0  0  0
  188.6920  178.5450  141.0780 C   0  0  2  0  0  3  0  0  0  0  0  0
  186.5480  177.9230  142.3380 N   0  0  0  0  0  0  0  0  0  0  0  0
  186.4840  179.0080  140.2660 O   0  0  0  0  0  0  0  0  0  0  0  0
  189.1790  177.8000  139.8160 C   0  0  1  0  0  3  0  0  0  0  0  0
  189.4120  178.1040  142.3800 C   0  0  1  0  0  3  0  0  0  0  0  0
  191.1400  176.9860  141.2900 C   0  0  0  0  0  2  0  0  0  0  0  0
  187.3130  177.2880  143.3350 N   0  0  0  0  0  2  0  0  0  0  0  0
  188.4780  178.1230  143.5990 C   0  0  1  0  0  3  0  0  0  0  0  0
  187.1840  178.4910  141.1780 C   0  0  0  0  0  0  0  0  0  0  0  0
  190.0290  176.7930  142.2090 N   0  0  0  0  0  2  0  0  0  0  0  0
  189.1930  177.4740  147.2850 C   0  0  0  0  0  0  0  0  0  0  0  0
  190.4770  176.9260  147.2140 C   0  0  0  0  0  3  0  0  0  0  0  0
  189.1670  177.7280  144.8700 C   0  0  0  0  0  0  0  0  0  0  0  0
  191.1050  176.7740  145.9740 C   0  0  0  0  0  3  0  0  0  0  0  0
  188.5380  177.8720  146.1160 C   0  0  0  0  0  3  0  0  0  0  0  0
  190.4500  177.1720  144.8050 C   0  0  0  0  0  3  0  0  0  0  0  0
  188.4050  177.6600  148.8350 Cl  0  0  0  0  0  0  0  0  0  0  0  0
  191.7820  176.2960  138.0320 O   0  0  0  0  0  1  0  0  0  0  0  0
  190.8010  176.0710  138.9990 C   0  0  0  0  0  2  0  0  0  0  0  0
  188.9840  178.6970  138.5950 C   0  0  0  0  0  2  0  0  0  0  0  0
  187.2070  178.6260  136.8450 C   0  0  0  0  0  1  0  0  0  0  0  0
  188.4300  177.9270  137.4070 C   0  0  0  0  0  2  0  0  0  0  0  0
  185.1170  178.0970  142.5510 C   0  0  0  0  0  2  0  0  0  0  0  0
  184.8570  179.0060  143.7440 C   0  0  0  0  0  2  0  0  0  0  0  0
  183.5540  178.6470  144.4460 C   0  0  0  0  0  2  0  0  0  0  0  0
  182.4070  179.5070  143.9350 C   0  0  0  0  0  2  0  0  0  0  0  0
  181.0570  179.1020  141.9330 N   0  0  0  0  0  0  0  0  0  0  0  0
  181.3130  178.6550  143.3080 C   0  0  2  0  0  3  0  0  0  0  0  0
  182.0340  178.8130  140.8980 C   0  0  0  0  0  1  0  0  0  0  0  0
  178.9310  180.0690  142.4730 C   0  0  0  0  0  3  0  0  0  0  0  0
  178.9850  179.4000  143.7810 C   0  0  0  0  0  3  0  0  0  0  0  0
  180.0690  178.7190  144.1610 C   0  0  0  0  0  3  0  0  0  0  0  0
  179.9230  179.9120  141.6000 C   0  0  0  0  0  3  0  0  0  0  0  0
  1 20  1  6  0  0  0
  1  7  1  0  0  0  0
  2 10  1  1  0  0  0
  2  6  1  0  0  0  0
  3 24  1  0  0  0  0
  3  8  1  0  0  0  0
  4 10  2  0  0  0  0
  5 21  1  6  0  0  0
  5  1  1  0  0  0  0
  5  2  1  0  0  0  0
  6 11  1  6  0  0  0
  6  9  1  0  0  0  0
  7 11  1  0  0  0  0
  8  9  1  0  0  0  0
  9 14  1  1  0  0  0
 10  3  1  0  0  0  0
 12 18  1  0  0  0  0
 13 12  1  0  0  0  0
 14 16  1  0  0  0  0
 15 13  2  0  0  0  0
 16 12  2  0  0  0  0
 17 14  2  0  0  0  0
 17 15  1  0  0  0  0
 19 20  1  0  0  0  0
 22 23  1  0  0  0  0
 23 21  1  0  0  0  0
 24 25  1  0  0  0  0
 25 26  1  0  0  0  0
 27 26  1  0  0  0  0
 28 29  1  0  0  0  0
 29 27  1  1  0  0  0
 29 33  1  0  0  0  0
 30 28  1  0  0  0  0
 31 32  1  0  0  0  0
 32 33  2  0  0  0  0
 34 28  1  0  0  0  0
 34 31  2  0  0  0  0
M  END
>  <MODEL>
1

>  <REMARK>
 VINA RESULT:      -8.8      0.000      0.000
  Name = 
  9 active torsions:
  status: ('A' for Active; 'I' for Inactive)
    1  A    between atoms: C_1  and  C_19
    2  A    between atoms: C_2  and  C_15
    3  A    between atoms: C_2  and  C_25
    4  A    between atoms: C_3  and  C_13
    5  A    between atoms: C_3  and  C_17
    6  A    between atoms: N_5  and  C_18
    7  A    between atoms: C_12  and  C_28
    8  A    between atoms: C_17  and  C_29
    9  A    between atoms: C_18  and  C_29
                            x       y       z     vdW  Elec       q    Type
                         _______ _______ _______ _____ _____    ______ ____

>  <TORSDO>
F 9

$$$$
=
 OpenBabel11052414143D

 34 37  0  0  1  0  0  0  0  0999 V2000
  190.9020  177.2590  143.5950 C   0  0  1  0  0  3  0  0  0  0  0  0
  188.4150  177.0950  142.8360 C   0  0  2  0  0  3  0  0  0  0  0  0
  186.6340  178.6510  141.8480 N   0  0  0  0  0  0  0  0  0  0  0  0
  186.4420  177.7830  144.0130 O   0  0  0  0  0  0  0  0  0  0  0  0
  189.4190  177.5380  143.9240 C   0  0  1  0  0  3  0  0  0  0  0  0
  189.0070  177.1000  141.4020 C   0  0  1  0  0  3  0  0  0  0  0  0
  191.2240  177.2620  142.0960 C   0  0  0  0  0  2  0  0  0  0  0  0
  187.4120  178.8120  140.6860 N   0  0  0  0  0  2  0  0  0  0  0  0
  187.9720  177.5090  140.3450 C   0  0  1  0  0  3  0  0  0  0  0  0
  187.1240  177.8730  142.9550 C   0  0  0  0  0  0  0  0  0  0  0  0
  190.1910  177.9490  141.3360 N   0  0  0  0  0  2  0  0  0  0  0  0
  189.4170  176.3010  137.0320 C   0  0  0  0  0  0  0  0  0  0  0  0
  189.4900  177.5020  136.3210 C   0  0  0  0  0  3  0  0  0  0  0  0
  188.5210  177.4910  138.9500 C   0  0  0  0  0  0  0  0  0  0  0  0
  189.0770  178.6950  136.9190 C   0  0  0  0  0  3  0  0  0  0  0  0
  188.9310  176.2940  138.3430 C   0  0  0  0  0  3  0  0  0  0  0  0
  188.5910  178.6880  138.2300 C   0  0  0  0  0  3  0  0  0  0  0  0
  189.9290  174.8060  136.2820 Cl  0  0  0  0  0  0  0  0  0  0  0  0
  191.3150  179.5690  144.0500 O   0  0  0  0  0  1  0  0  0  0  0  0
  191.7840  178.2780  144.2990 C   0  0  0  0  0  2  0  0  0  0  0  0
  189.0470  176.8770  145.2510 C   0  0  0  0  0  2  0  0  0  0  0  0
  187.8410  177.5270  147.3360 C   0  0  0  0  0  1  0  0  0  0  0  0
  188.9670  177.8860  146.3850 C   0  0  0  0  0  2  0  0  0  0  0  0
  185.2800  179.1900  141.8710 C   0  0  0  0  0  2  0  0  0  0  0  0
  184.2680  178.1160  141.4980 C   0  0  0  0  0  2  0  0  0  0  0  0
  183.7610  178.2960  140.0730 C   0  0  0  0  0  2  0  0  0  0  0  0
  183.0710  177.0340  139.5790 C   0  0  0  0  0  2  0  0  0  0  0  0
  183.1290  175.4990  137.6710 N   0  0  0  0  0  0  0  0  0  0  0  0
  183.1540  176.9140  138.0630 C   0  0  2  0  0  3  0  0  0  0  0  0
  181.8880  174.7530  137.7770 C   0  0  0  0  0  1  0  0  0  0  0  0
  185.4400  175.4730  137.0300 C   0  0  0  0  0  3  0  0  0  0  0  0
  185.4570  176.9400  137.1190 C   0  0  0  0  0  3  0  0  0  0  0  0
  184.3950  177.6150  137.5660 C   0  0  0  0  0  3  0  0  0  0  0  0
  184.3210  174.8000  137.2890 C   0  0  0  0  0  3  0  0  0  0  0  0
  1  5  1  0  0  0  0
  1 20  1  1  0  0  0
  2 10  1  6  0  0  0
  2  5  1  0  0  0  0
  3 24  1  0  0  0  0
  3 10  1  0  0  0  0
  5 21  1  1  0  0  0
  6 11  1  1  0  0  0
  6  2  1  0  0  0  0
  7  1  1  0  0  0  0
  8  3  1  0  0  0  0
  9 14  1  6  0  0  0
  9  8  1  0  0  0  0
  9  6  1  0  0  0  0
 10  4  2  0  0  0  0
 11  7  1  0  0  0  0
 12 16  1  0  0  0  0
 13 15  1  0  0  0  0
 13 12  2  0  0  0  0
 15 17  2  0  0  0  0
 16 14  2  0  0  0  0
 17 14  1  0  0  0  0
 18 12  1  0  0  0  0
 19 20  1  0  0  0  0
 21 23  1  0  0  0  0
 23 22  1  0  0  0  0
 25 24  1  0  0  0  0
 26 25  1  0  0  0  0
 27 26  1  0  0  0  0
 28 30  1  0  0  0  0
 28 29  1  0  0  0  0
 29 27  1  1  0  0  0
 31 32  1  0  0  0  0
 31 34  2  0  0  0  0
 32 33  2  0  0  0  0
 33 29  1  0  0  0  0
 34 28  1  0  0  0  0
M  END
>  <MODEL>
2

>  <REMARK>
 VINA RESULT:      -8.5      3.679      6.633
  Name = 
  9 active torsions:
  status: ('A' for Active; 'I' for Inactive)
    1  A    between atoms: C_1  and  C_19
    2  A    between atoms: C_2  and  C_15
    3  A    between atoms: C_2  and  C_25
    4  A    between atoms: C_3  and  C_13
    5  A    between atoms: C_3  and  C_17
    6  A    between atoms: N_5  and  C_18
    7  A    between atoms: C_12  and  C_28
    8  A    between atoms: C_17  and  C_29
    9  A    between atoms: C_18  and  C_29
                            x       y       z     vdW  Elec       q    Type
                         _______ _______ _______ _____ _____    ______ ____

>  <TORSDO>
F 9

$$$$
=
 OpenBabel11052414143D

 34 37  0  0  1  0  0  0  0  0999 V2000
  190.8920  176.2430  137.3260 C   0  0  1  0  0  3  0  0  0  0  0  0
  189.3730  178.0340  138.4530 C   0  0  2  0  0  3  0  0  0  0  0  0
  187.3720  178.0790  140.0550 N   0  0  0  0  0  0  0  0  0  0  0  0
  187.1700  178.7430  137.8200 O   0  0  0  0  0  0  0  0  0  0  0  0
  189.5370  176.9850  137.3310 C   0  0  1  0  0  3  0  0  0  0  0  0
  190.2010  177.7200  139.7270 C   0  0  1  0  0  3  0  0  0  0  0  0
  191.5410  176.1110  138.7090 C   0  0  0  0  0  2  0  0  0  0  0  0
  188.1660  177.5110  141.0700 N   0  0  0  0  0  2  0  0  0  0  0  0
  189.4780  178.1460  141.0130 C   0  0  1  0  0  3  0  0  0  0  0  0
  187.9080  178.2860  138.7360 C   0  0  0  0  0  0  0  0  0  0  0  0
  190.5650  176.3090  139.7700 N   0  0  0  0  0  2  0  0  0  0  0  0
  191.4510  176.3560  143.7380 C   0  0  0  0  0  0  0  0  0  0  0  0
  191.8170  177.4330  144.5510 C   0  0  0  0  0  3  0  0  0  0  0  0
  190.2780  177.8770  142.2510 C   0  0  0  0  0  0  0  0  0  0  0  0
  191.4200  178.7300  144.2140 C   0  0  0  0  0  3  0  0  0  0  0  0
  190.6850  176.5770  142.5890 C   0  0  0  0  0  3  0  0  0  0  0  0
  190.6540  178.9510  143.0660 C   0  0  0  0  0  3  0  0  0  0  0  0
  191.9530  174.7340  144.1550 Cl  0  0  0  0  0  0  0  0  0  0  0  0
  191.4630  173.9240  137.4410 O   0  0  0  0  0  1  0  0  0  0  0  0
  190.7170  174.8590  136.7210 C   0  0  0  0  0  2  0  0  0  0  0  0
  189.3060  177.6550  135.9770 C   0  0  0  0  0  2  0  0  0  0  0  0
  187.4130  176.0350  135.8510 C   0  0  0  0  0  1  0  0  0  0  0  0
  188.4560  176.7960  135.0560 C   0  0  0  0  0  2  0  0  0  0  0  0
  186.0360  178.5560  140.3890 C   0  0  0  0  0  2  0  0  0  0  0  0
  186.0430  179.2760  141.7300 C   0  0  0  0  0  2  0  0  0  0  0  0
  185.0560  178.6500  142.7060 C   0  0  0  0  0  2  0  0  0  0  0  0
  185.4370  178.9680  144.1440 C   0  0  0  0  0  2  0  0  0  0  0  0
  185.8380  178.0060  146.3600 N   0  0  0  0  0  0  0  0  0  0  0  0
  185.7590  177.7020  144.9250 C   0  0  2  0  0  3  0  0  0  0  0  0
  184.6180  178.2870  147.0960 C   0  0  0  0  0  1  0  0  0  0  0  0
  188.2200  177.7450  146.4460 C   0  0  0  0  0  3  0  0  0  0  0  0
  188.1800  177.1490  145.1030 C   0  0  0  0  0  3  0  0  0  0  0  0
  187.0410  177.0980  144.4060 C   0  0  0  0  0  3  0  0  0  0  0  0
  187.0950  178.1420  147.0360 C   0  0  0  0  0  3  0  0  0  0  0  0
  1 20  1  1  0  0  0
  1  5  1  0  0  0  0
  1  7  1  0  0  0  0
  2 10  1  1  0  0  0
  2  6  1  0  0  0  0
  3 24  1  0  0  0  0
  3  8  1  0  0  0  0
  4 10  2  0  0  0  0
  5 21  1  6  0  0  0
  5  2  1  0  0  0  0
  6 11  1  1  0  0  0
  6  9  1  0  0  0  0
  7 11  1  0  0  0  0
  9  8  1  0  0  0  0
  9 14  1  1  0  0  0
 10  3  1  0  0  0  0
 12 18  1  0  0  0  0
 12 13  1  0  0  0  0
 14 16  1  0  0  0  0
 14 17  2  0  0  0  0
 15 13  2  0  0  0  0
 16 12  2  0  0  0  0
 17 15  1  0  0  0  0
 20 19  1  0  0  0  0
 23 22  1  0  0  0  0
 23 21  1  0  0  0  0
 24 25  1  0  0  0  0
 25 26  1  0  0  0  0
 26 27  1  0  0  0  0
 28 34  1  0  0  0  0
 28 30  1  0  0  0  0
 29 27  1  6  0  0  0
 29 28  1  0  0  0  0
 31 34  2  0  0  0  0
 32 31  1  0  0  0  0
 33 29  1  0  0  0  0
 33 32  2  0  0  0  0
M  END
>  <MODEL>
3

>  <REMARK>
 VINA RESULT:      -8.3      3.079      4.524
  Name = 
  9 active torsions:
  status: ('A' for Active; 'I' for Inactive)
    1  A    between atoms: C_1  and  C_19
    2  A    between atoms: C_2  and  C_15
    3  A    between atoms: C_2  and  C_25
    4  A    between atoms: C_3  and  C_13
    5  A    between atoms: C_3  and  C_17
    6  A    between atoms: N_5  and  C_18
    7  A    between atoms: C_12  and  C_28
    8  A    between atoms: C_17  and  C_29
    9  A    between atoms: C_18  and  C_29
                            x       y       z     vdW  Elec       q    Type
                         _______ _______ _______ _____ _____    ______ ____

>  <TORSDO>
F 9

$$$$
=
 OpenBabel11052414143D

 34 37  0  0  1  0  0  0  0  0999 V2000
  180.7820  176.8760  139.2470 C   0  0  1  0  0  3  0  0  0  0  0  0
  181.6640  178.7040  140.8800 C   0  0  2  0  0  3  0  0  0  0  0  0
  183.0000  178.8000  143.0660 N   0  0  0  0  0  0  0  0  0  0  0  0
  180.7420  179.4090  142.9780 O   0  0  0  0  0  0  0  0  0  0  0  0
  180.5980  177.6260  140.5850 C   0  0  1  0  0  3  0  0  0  0  0  0
  183.0400  178.4180  140.2220 C   0  0  1  0  0  3  0  0  0  0  0  0
  182.2380  176.7750  138.7790 C   0  0  0  0  0  2  0  0  0  0  0  0
  184.1190  178.2540  142.4110 N   0  0  0  0  0  2  0  0  0  0  0  0
  184.2130  178.8790  141.0970 C   0  0  1  0  0  3  0  0  0  0  0  0
  181.7530  178.9710  142.3660 C   0  0  0  0  0  0  0  0  0  0  0  0
  183.1630  177.0060  139.8780 N   0  0  0  0  0  2  0  0  0  0  0  0
  186.9580  178.3870  138.5000 C   0  0  0  0  0  0  0  0  0  0  0  0
  188.0770  178.2320  139.3230 C   0  0  0  0  0  3  0  0  0  0  0  0
  185.5490  178.6370  140.4620 C   0  0  0  0  0  0  0  0  0  0  0  0
  187.9360  178.2840  140.7120 C   0  0  0  0  0  3  0  0  0  0  0  0
  185.6960  178.5910  139.0670 C   0  0  0  0  0  3  0  0  0  0  0  0
  186.6750  178.4880  141.2800 C   0  0  0  0  0  3  0  0  0  0  0  0
  187.1340  178.3270  136.7610 Cl  0  0  0  0  0  0  0  0  0  0  0  0
  180.6580  174.6800  138.3100 O   0  0  0  0  0  1  0  0  0  0  0  0
  180.1930  175.4790  139.3570 C   0  0  0  0  0  2  0  0  0  0  0  0
  179.2100  178.2630  140.6370 C   0  0  0  0  0  2  0  0  0  0  0  0
  178.9310  180.7070  140.2180 C   0  0  0  0  0  1  0  0  0  0  0  0
  179.0370  179.3370  139.5760 C   0  0  0  0  0  2  0  0  0  0  0  0
  183.1500  179.2940  144.4290 C   0  0  0  0  0  2  0  0  0  0  0  0
  184.6220  179.4210  144.7940 C   0  0  0  0  0  2  0  0  0  0  0  0
  184.9500  178.6550  146.0690 C   0  0  0  0  0  2  0  0  0  0  0  0
  186.4310  178.7600  146.4000 C   0  0  0  0  0  2  0  0  0  0  0  0
  188.3740  177.4030  147.0150 N   0  0  0  0  0  0  0  0  0  0  0  0
  187.1340  177.4200  146.2290 C   0  0  2  0  0  3  0  0  0  0  0  0
  188.2980  177.3070  148.4620 C   0  0  0  0  0  1  0  0  0  0  0  0
  189.7880  177.5220  145.0820 C   0  0  0  0  0  3  0  0  0  0  0  0
  188.6170  177.2460  144.2380 C   0  0  0  0  0  3  0  0  0  0  0  0
  187.3930  177.1680  144.7640 C   0  0  0  0  0  3  0  0  0  0  0  0
  189.6590  177.5860  146.4050 C   0  0  0  0  0  3  0  0  0  0  0  0
  1 20  1  1  0  0  0
  1  5  1  0  0  0  0
  2 10  1  1  0  0  0
  3 24  1  0  0  0  0
  5 21  1  6  0  0  0
  5  2  1  0  0  0  0
  6 11  1  1  0  0  0
  6  2  1  0  0  0  0
  6  9  1  0  0  0  0
  7  1  1  0  0  0  0
  7 11  1  0  0  0  0
  8  3  1  0  0  0  0
  9 14  1  6  0  0  0
  9  8  1  0  0  0  0
 10  4  2  0  0  0  0
 10  3  1  0  0  0  0
 12 16  2  0  0  0  0
 12 13  1  0  0  0  0
 13 15  2  0  0  0  0
 14 17  2  0  0  0  0
 15 17  1  0  0  0  0
 16 14  1  0  0  0  0
 18 12  1  0  0  0  0
 19 20  1  0  0  0  0
 23 22  1  0  0  0  0
 23 21  1  0  0  0  0
 24 25  1  0  0  0  0
 25 26  1  0  0  0  0
 26 27  1  0  0  0  0
 28 30  1  0  0  0  0
 29 27  1  6  0  0  0
 29 28  1  0  0  0  0
 31 34  2  0  0  0  0
 32 33  2  0  0  0  0
 32 31  1  0  0  0  0
 33 29  1  0  0  0  0
 34 28  1  0  0  0  0
M  END
>  <MODEL>
4

>  <REMARK>
 VINA RESULT:      -8.3      3.654      8.003
  Name = 
  9 active torsions:
  status: ('A' for Active; 'I' for Inactive)
    1  A    between atoms: C_1  and  C_19
    2  A    between atoms: C_2  and  C_15
    3  A    between atoms: C_2  and  C_25
    4  A    between atoms: C_3  and  C_13
    5  A    between atoms: C_3  and  C_17
    6  A    between atoms: N_5  and  C_18
    7  A    between atoms: C_12  and  C_28
    8  A    between atoms: C_17  and  C_29
    9  A    between atoms: C_18  and  C_29
                            x       y       z     vdW  Elec       q    Type
                         _______ _______ _______ _____ _____    ______ ____

>  <TORSDO>
F 9

$$$$
=
 OpenBabel11052414143D

 34 37  0  0  1  0  0  0  0  0999 V2000
  190.6720  176.9520  144.2070 C   0  0  1  0  0  3  0  0  0  0  0  0
  188.3080  177.0180  143.1130 C   0  0  2  0  0  3  0  0  0  0  0  0
  186.8310  178.7300  141.9060 N   0  0  0  0  0  0  0  0  0  0  0  0
  186.2640  177.8890  144.0150 O   0  0  0  0  0  0  0  0  0  0  0  0
  189.1890  177.3680  144.3320 C   0  0  1  0  0  3  0  0  0  0  0  0
  189.0900  176.9650  141.7730 C   0  0  1  0  0  3  0  0  0  0  0  0
  191.1960  176.9220  142.7660 C   0  0  0  0  0  2  0  0  0  0  0  0
  187.7730  178.8150  140.8630 N   0  0  0  0  0  2  0  0  0  0  0  0
  188.2520  177.4660  140.5880 C   0  0  1  0  0  3  0  0  0  0  0  0
  187.0900  177.9130  143.0620 C   0  0  0  0  0  0  0  0  0  0  0  0
  190.3450  177.7000  141.8790 N   0  0  0  0  0  2  0  0  0  0  0  0
  190.5100  176.2780  137.7570 C   0  0  0  0  0  0  0  0  0  0  0  0
  190.2850  177.2750  136.8030 C   0  0  0  0  0  3  0  0  0  0  0  0
  188.9830  177.3930  139.2820 C   0  0  0  0  0  0  0  0  0  0  0  0
  189.4090  178.3270  137.0840 C   0  0  0  0  0  3  0  0  0  0  0  0
  189.8580  176.3350  138.9930 C   0  0  0  0  0  3  0  0  0  0  0  0
  188.7570  178.3830  138.3190 C   0  0  0  0  0  3  0  0  0  0  0  0
  191.6020  174.9590  137.4050 Cl  0  0  0  0  0  0  0  0  0  0  0  0
  191.9250  177.2560  146.2190 O   0  0  0  0  0  1  0  0  0  0  0  0
  191.5390  177.8870  145.0350 C   0  0  0  0  0  2  0  0  0  0  0  0
  188.5790  176.7480  145.5890 C   0  0  0  0  0  2  0  0  0  0  0  0
  188.8410  177.4490  147.9690 C   0  0  0  0  0  1  0  0  0  0  0  0
  188.2260  177.8000  146.6270 C   0  0  0  0  0  2  0  0  0  0  0  0
  185.5420  179.3930  141.7480 C   0  0  0  0  0  2  0  0  0  0  0  0
  184.7620  178.7820  140.5930 C   0  0  0  0  0  2  0  0  0  0  0  0
  183.6200  177.9060  141.0910 C   0  0  0  0  0  2  0  0  0  0  0  0
  182.3820  178.7410  141.3810 C   0  0  0  0  0  2  0  0  0  0  0  0
  180.0500  179.0540  140.7010 N   0  0  0  0  0  0  0  0  0  0  0  0
  181.3900  178.6800  140.2280 C   0  0  2  0  0  3  0  0  0  0  0  0
  179.7700  180.4430  141.0200 C   0  0  0  0  0  1  0  0  0  0  0  0
  179.1970  176.8180  140.5430 C   0  0  0  0  0  3  0  0  0  0  0  0
  180.4030  176.4370  139.7930 C   0  0  0  0  0  3  0  0  0  0  0  0
  181.4060  177.3000  139.6180 C   0  0  0  0  0  3  0  0  0  0  0  0
  179.0400  178.0710  140.9630 C   0  0  0  0  0  3  0  0  0  0  0  0
  1  5  1  0  0  0  0
  1 20  1  1  0  0  0
  2 10  1  6  0  0  0
  2  5  1  0  0  0  0
  3 10  1  0  0  0  0
  5 21  1  1  0  0  0
  6 11  1  1  0  0  0
  6  2  1  0  0  0  0
  7  1  1  0  0  0  0
  8  3  1  0  0  0  0
  9 14  1  6  0  0  0
  9  8  1  0  0  0  0
  9  6  1  0  0  0  0
 10  4  2  0  0  0  0
 11  7  1  0  0  0  0
 12 16  1  0  0  0  0
 13 15  1  0  0  0  0
 13 12  2  0  0  0  0
 15 17  2  0  0  0  0
 16 14  2  0  0  0  0
 17 14  1  0  0  0  0
 18 12  1  0  0  0  0
 20 19  1  0  0  0  0
 21 23  1  0  0  0  0
 23 22  1  0  0  0  0
 24  3  1  0  0  0  0
 25 26  1  0  0  0  0
 25 24  1  0  0  0  0
 26 27  1  0  0  0  0
 28 34  1  0  0  0  0
 28 30  1  0  0  0  0
 29 28  1  0  0  0  0
 29 27  1  1  0  0  0
 31 34  2  0  0  0  0
 32 31  1  0  0  0  0
 33 32  2  0  0  0  0
 33 29  1  0  0  0  0
M  END
>  <MODEL>
5

>  <REMARK>
 VINA RESULT:      -8.1      3.078      5.822
  Name = 
  9 active torsions:
  status: ('A' for Active; 'I' for Inactive)
    1  A    between atoms: C_1  and  C_19
    2  A    between atoms: C_2  and  C_15
    3  A    between atoms: C_2  and  C_25
    4  A    between atoms: C_3  and  C_13
    5  A    between atoms: C_3  and  C_17
    6  A    between atoms: N_5  and  C_18
    7  A    between atoms: C_12  and  C_28
    8  A    between atoms: C_17  and  C_29
    9  A    between atoms: C_18  and  C_29
                            x       y       z     vdW  Elec       q    Type
                         _______ _______ _______ _____ _____    ______ ____

>  <TORSDO>
F 9

$$$$
=
 OpenBabel11052414143D

 34 37  0  0  1  0  0  0  0  0999 V2000
  180.9990  178.9060  141.8750 C   0  0  1  0  0  3  0  0  0  0  0  0
  183.2730  177.8720  141.1360 C   0  0  2  0  0  3  0  0  0  0  0  0
  185.6600  178.6860  140.6770 N   0  0  0  0  0  0  0  0  0  0  0  0
  184.2860  177.8800  138.9620 O   0  0  0  0  0  0  0  0  0  0  0  0
  182.0130  178.6690  140.7340 C   0  0  1  0  0  3  0  0  0  0  0  0
  183.6620  178.0300  142.6300 C   0  0  1  0  0  3  0  0  0  0  0  0
  181.6290  178.9680  143.2710 C   0  0  0  0  0  2  0  0  0  0  0  0
  185.7950  179.0640  142.0260 N   0  0  0  0  0  2  0  0  0  0  0  0
  185.1820  178.0230  142.8410 C   0  0  1  0  0  3  0  0  0  0  0  0
  184.4130  178.1620  140.1850 C   0  0  0  0  0  0  0  0  0  0  0  0
  183.0570  179.2310  143.1940 N   0  0  0  0  0  2  0  0  0  0  0  0
  187.1770  177.8610  146.0840 C   0  0  0  0  0  0  0  0  0  0  0  0
  186.2760  178.4450  146.9790 C   0  0  0  0  0  3  0  0  0  0  0  0
  185.5730  178.1450  144.2830 C   0  0  0  0  0  0  0  0  0  0  0  0
  185.0280  178.8830  146.5290 C   0  0  0  0  0  3  0  0  0  0  0  0
  186.8280  177.7130  144.7390 C   0  0  0  0  0  3  0  0  0  0  0  0
  184.6790  178.7350  145.1830 C   0  0  0  0  0  3  0  0  0  0  0  0
  188.7420  177.3170  146.6460 Cl  0  0  0  0  0  0  0  0  0  0  0  0
  180.0190  180.8720  142.8170 O   0  0  0  0  0  1  0  0  0  0  0  0
  180.2260  180.1900  141.6170 C   0  0  0  0  0  2  0  0  0  0  0  0
  181.3250  177.9670  139.5640 C   0  0  0  0  0  2  0  0  0  0  0  0
  181.3600  175.6610  138.6110 C   0  0  0  0  0  1  0  0  0  0  0  0
  181.0830  176.4930  139.8480 C   0  0  0  0  0  2  0  0  0  0  0  0
  186.8320  178.7280  139.8110 C   0  0  0  0  0  2  0  0  0  0  0  0
  188.1100  178.7290  140.6370 C   0  0  0  0  0  2  0  0  0  0  0  0
  189.2190  177.9420  139.9520 C   0  0  0  0  0  2  0  0  0  0  0  0
  190.3500  177.6390  140.9240 C   0  0  0  0  0  2  0  0  0  0  0  0
  190.7480  177.9670  143.3180 N   0  0  0  0  0  0  0  0  0  0  0  0
  189.8210  177.3960  142.3310 C   0  0  2  0  0  3  0  0  0  0  0  0
  190.8240  179.4090  143.4720 C   0  0  0  0  0  1  0  0  0  0  0  0
  191.5200  175.8230  144.0670 C   0  0  0  0  0  3  0  0  0  0  0  0
  190.4180  175.1940  143.3260 C   0  0  0  0  0  3  0  0  0  0  0  0
  189.6110  175.9170  142.5460 C   0  0  0  0  0  3  0  0  0  0  0  0
  191.6600  177.1470  144.0600 C   0  0  0  0  0  3  0  0  0  0  0  0
  1 20  1  6  0  0  0
  1  7  1  0  0  0  0
  2 10  1  6  0  0  0
  2  6  1  0  0  0  0
  3  8  1  0  0  0  0
  4 10  2  0  0  0  0
  5 21  1  6  0  0  0
  5  2  1  0  0  0  0
  5  1  1  0  0  0  0
  6  9  1  0  0  0  0
  6 11  1  6  0  0  0
  8  9  1  0  0  0  0
  9 14  1  1  0  0  0
 10  3  1  0  0  0  0
 11  7  1  0  0  0  0
 12 18  1  0  0  0  0
 12 13  1  0  0  0  0
 14 16  1  0  0  0  0
 14 17  2  0  0  0  0
 15 13  2  0  0  0  0
 16 12  2  0  0  0  0
 17 15  1  0  0  0  0
 20 19  1  0  0  0  0
 21 23  1  0  0  0  0
 22 23  1  0  0  0  0
 24 25  1  0  0  0  0
 24  3  1  0  0  0  0
 26 25  1  0  0  0  0
 26 27  1  0  0  0  0
 28 30  1  0  0  0  0
 28 34  1  0  0  0  0
 29 27  1  6  0  0  0
 29 33  1  0  0  0  0
 29 28  1  0  0  0  0
 32 31  1  0  0  0  0
 33 32  2  0  0  0  0
 34 31  2  0  0  0  0
M  END
>  <MODEL>
6

>  <REMARK>
 VINA RESULT:      -8.0      2.251      7.704
  Name = 
  9 active torsions:
  status: ('A' for Active; 'I' for Inactive)
    1  A    between atoms: C_1  and  C_19
    2  A    between atoms: C_2  and  C_15
    3  A    between atoms: C_2  and  C_25
    4  A    between atoms: C_3  and  C_13
    5  A    between atoms: C_3  and  C_17
    6  A    between atoms: N_5  and  C_18
    7  A    between atoms: C_12  and  C_28
    8  A    between atoms: C_17  and  C_29
    9  A    between atoms: C_18  and  C_29
                            x       y       z     vdW  Elec       q    Type
                         _______ _______ _______ _____ _____    ______ ____

>  <TORSDO>
F 9

$$$$
=
 OpenBabel11052414143D

 34 37  0  0  1  0  0  0  0  0999 V2000
  189.9610  177.2070  139.9130 C   0  0  1  0  0  3  0  0  0  0  0  0
  188.1490  178.6330  141.1270 C   0  0  2  0  0  3  0  0  0  0  0  0
  185.9260  178.2300  142.3380 N   0  0  0  0  0  0  0  0  0  0  0  0
  186.0240  179.3750  140.2990 O   0  0  0  0  0  0  0  0  0  0  0  0
  188.5680  177.8730  139.8490 C   0  0  1  0  0  3  0  0  0  0  0  0
  188.7900  178.0720  142.4240 C   0  0  1  0  0  3  0  0  0  0  0  0
  190.3940  176.7920  141.3230 C   0  0  0  0  0  2  0  0  0  0  0  0
  186.5940  177.4800  143.3240 N   0  0  0  0  0  2  0  0  0  0  0  0
  187.8440  178.1650  143.6300 C   0  0  1  0  0  3  0  0  0  0  0  0
  186.6430  178.7530  141.2050 C   0  0  0  0  0  0  0  0  0  0  0  0
  189.2530  176.7050  142.2210 N   0  0  0  0  0  2  0  0  0  0  0  0
  190.3680  176.8370  146.1570 C   0  0  0  0  0  0  0  0  0  0  0  0
  189.5760  176.7570  147.3060 C   0  0  0  0  0  3  0  0  0  0  0  0
  188.4600  177.6550  144.8980 C   0  0  0  0  0  0  0  0  0  0  0  0
  188.2300  177.1280  147.2540 C   0  0  0  0  0  3  0  0  0  0  0  0
  189.8130  177.2870  144.9560 C   0  0  0  0  0  3  0  0  0  0  0  0
  187.6740  177.5790  146.0530 C   0  0  0  0  0  3  0  0  0  0  0  0
  192.0540  176.3770  146.2220 Cl  0  0  0  0  0  0  0  0  0  0  0  0
  191.3110  175.6050  138.7630 O   0  0  0  0  0  1  0  0  0  0  0  0
  189.9910  175.9910  139.0010 C   0  0  0  0  0  2  0  0  0  0  0  0
  188.4990  178.8230  138.6530 C   0  0  0  0  0  2  0  0  0  0  0  0
  188.4860  178.0410  136.2840 C   0  0  0  0  0  1  0  0  0  0  0  0
  187.6470  178.2590  137.5280 C   0  0  0  0  0  2  0  0  0  0  0  0
  184.5210  178.5640  142.5360 C   0  0  0  0  0  2  0  0  0  0  0  0
  183.6460  177.8260  141.5320 C   0  0  0  0  0  2  0  0  0  0  0  0
  182.6240  178.7560  140.8930 C   0  0  0  0  0  2  0  0  0  0  0  0
  181.2970  178.0410  140.6830 C   0  0  0  0  0  2  0  0  0  0  0  0
  181.4220  176.1310  139.1560 N   0  0  0  0  0  0  0  0  0  0  0  0
  181.1430  177.5700  139.2430 C   0  0  2  0  0  3  0  0  0  0  0  0
  180.4570  175.1850  139.6890 C   0  0  0  0  0  1  0  0  0  0  0  0
  183.5100  176.4440  138.0200 C   0  0  0  0  0  3  0  0  0  0  0  0
  183.1580  177.8550  137.8100 C   0  0  0  0  0  3  0  0  0  0  0  0
  182.0510  178.3750  138.3460 C   0  0  0  0  0  3  0  0  0  0  0  0
  182.6690  175.6320  138.6560 C   0  0  0  0  0  3  0  0  0  0  0  0
  1 20  1  6  0  0  0
  1  7  1  0  0  0  0
  2 10  1  1  0  0  0
  2  6  1  0  0  0  0
  3 24  1  0  0  0  0
  3  8  1  0  0  0  0
  4 10  2  0  0  0  0
  5 21  1  6  0  0  0
  5  1  1  0  0  0  0
  5  2  1  0  0  0  0
  6 11  1  6  0  0  0
  6  9  1  0  0  0  0
  7 11  1  0  0  0  0
  8  9  1  0  0  0  0
  9 14  1  1  0  0  0
 10  3  1  0  0  0  0
 12 18  1  0  0  0  0
 12 13  1  0  0  0  0
 14 16  1  0  0  0  0
 14 17  2  0  0  0  0
 15 13  2  0  0  0  0
 16 12  2  0  0  0  0
 17 15  1  0  0  0  0
 19 20  1  0  0  0  0
 22 23  1  0  0  0  0
 23 21  1  0  0  0  0
 25 24  1  0  0  0  0
 26 25  1  0  0  0  0
 27 26  1  0  0  0  0
 28 29  1  0  0  0  0
 28 30  1  0  0  0  0
 29 27  1  1  0  0  0
 31 34  2  0  0  0  0
 32 31  1  0  0  0  0
 32 33  2  0  0  0  0
 33 29  1  0  0  0  0
 34 28  1  0  0  0  0
M  END
>  <MODEL>
7

>  <REMARK>
 VINA RESULT:      -7.9      1.949      3.107
  Name = 
  9 active torsions:
  status: ('A' for Active; 'I' for Inactive)
    1  A    between atoms: C_1  and  C_19
    2  A    between atoms: C_2  and  C_15
    3  A    between atoms: C_2  and  C_25
    4  A    between atoms: C_3  and  C_13
    5  A    between atoms: C_3  and  C_17
    6  A    between atoms: N_5  and  C_18
    7  A    between atoms: C_12  and  C_28
    8  A    between atoms: C_17  and  C_29
    9  A    between atoms: C_18  and  C_29
                            x       y       z     vdW  Elec       q    Type
                         _______ _______ _______ _____ _____    ______ ____

>  <TORSDO>
F 9

$$$$
=
 OpenBabel11052414143D

 34 37  0  0  1  0  0  0  0  0999 V2000
  187.3040  176.1280  135.8140 C   0  0  1  0  0  3  0  0  0  0  0  0
  188.7600  177.4850  137.4950 C   0  0  2  0  0  3  0  0  0  0  0  0
  189.9000  177.0890  139.7570 N   0  0  0  0  0  0  0  0  0  0  0  0
  188.0890  178.5550  139.5340 O   0  0  0  0  0  0  0  0  0  0  0  0
  187.3670  176.9220  137.1370 C   0  0  1  0  0  3  0  0  0  0  0  0
  189.9370  176.6510  136.9200 C   0  0  1  0  0  3  0  0  0  0  0  0
  188.6190  175.4360  135.4330 C   0  0  0  0  0  2  0  0  0  0  0  0
  190.7370  176.1210  139.1700 N   0  0  0  0  0  2  0  0  0  0  0  0
  191.1470  176.6220  137.8640 C   0  0  1  0  0  3  0  0  0  0  0  0
  188.8690  177.7300  138.9830 C   0  0  0  0  0  0  0  0  0  0  0  0
  189.4960  175.3020  136.5860 N   0  0  0  0  0  2  0  0  0  0  0  0
  194.3650  175.7180  136.0340 C   0  0  0  0  0  0  0  0  0  0  0  0
  194.4720  174.3580  136.3420 C   0  0  0  0  0  3  0  0  0  0  0  0
  192.3030  175.8450  137.3100 C   0  0  0  0  0  0  0  0  0  0  0  0
  193.5000  173.7420  137.1350 C   0  0  0  0  0  3  0  0  0  0  0  0
  193.2840  176.4610  136.5190 C   0  0  0  0  0  3  0  0  0  0  0  0
  192.4200  174.4850  137.6200 C   0  0  0  0  0  3  0  0  0  0  0  0
  195.5830  176.4910  135.0460 Cl  0  0  0  0  0  0  0  0  0  0  0  0
  186.4480  174.0550  134.9880 O   0  0  0  0  0  1  0  0  0  0  0  0
  186.1960  175.0910  135.8890 C   0  0  0  0  0  2  0  0  0  0  0  0
  186.3550  178.0670  137.1060 C   0  0  0  0  0  2  0  0  0  0  0  0
  184.6730  178.9820  138.7060 C   0  0  0  0  0  1  0  0  0  0  0  0
  185.1190  177.7550  137.9350 C   0  0  0  0  0  2  0  0  0  0  0  0
  190.1630  177.5140  141.1260 C   0  0  0  0  0  2  0  0  0  0  0  0
  189.5270  176.5510  142.1190 C   0  0  0  0  0  2  0  0  0  0  0  0
  188.2570  177.1320  142.7240 C   0  0  0  0  0  2  0  0  0  0  0  0
  188.1080  176.7130  144.1800 C   0  0  0  0  0  2  0  0  0  0  0  0
  189.6260  177.4720  145.9450 N   0  0  0  0  0  0  0  0  0  0  0  0
  188.4700  177.8520  145.1240 C   0  0  2  0  0  3  0  0  0  0  0  0
  190.9420  177.4080  145.3340 C   0  0  0  0  0  1  0  0  0  0  0  0
  188.3300  177.2450  147.9490 C   0  0  0  0  0  3  0  0  0  0  0  0
  187.2040  177.8980  147.2670 C   0  0  0  0  0  3  0  0  0  0  0  0
  187.2720  178.2090  145.9700 C   0  0  0  0  0  3  0  0  0  0  0  0
  189.4810  177.0550  147.3090 C   0  0  0  0  0  3  0  0  0  0  0  0
  1 20  1  1  0  0  0
  1  5  1  0  0  0  0
  2 10  1  1  0  0  0
  3 24  1  0  0  0  0
  5 21  1  6  0  0  0
  5  2  1  0  0  0  0
  6 11  1  1  0  0  0
  6  2  1  0  0  0  0
  6  9  1  0  0  0  0
  7  1  1  0  0  0  0
  7 11  1  0  0  0  0
  8  3  1  0  0  0  0
  9 14  1  6  0  0  0
  9  8  1  0  0  0  0
 10  4  2  0  0  0  0
 10  3  1  0  0  0  0
 12 13  2  0  0  0  0
 12 16  1  0  0  0  0
 13 15  1  0  0  0  0
 14 17  1  0  0  0  0
 15 17  2  0  0  0  0
 16 14  2  0  0  0  0
 18 12  1  0  0  0  0
 19 20  1  0  0  0  0
 21 23  1  0  0  0  0
 23 22  1  0  0  0  0
 24 25  1  0  0  0  0
 25 26  1  0  0  0  0
 26 27  1  0  0  0  0
 28 34  1  0  0  0  0
 29 27  1  6  0  0  0
 29 28  1  0  0  0  0
 29 33  1  0  0  0  0
 30 28  1  0  0  0  0
 32 31  1  0  0  0  0
 33 32  2  0  0  0  0
 34 31  2  0  0  0  0
M  END
>  <MODEL>
8

>  <REMARK>
 VINA RESULT:      -7.8      4.596      7.718
  Name = 
  9 active torsions:
  status: ('A' for Active; 'I' for Inactive)
    1  A    between atoms: C_1  and  C_19
    2  A    between atoms: C_2  and  C_15
    3  A    between atoms: C_2  and  C_25
    4  A    between atoms: C_3  and  C_13
    5  A    between atoms: C_3  and  C_17
    6  A    between atoms: N_5  and  C_18
    7  A    between atoms: C_12  and  C_28
    8  A    between atoms: C_17  and  C_29
    9  A    between atoms: C_18  and  C_29
                            x       y       z     vdW  Elec       q    Type
                         _______ _______ _______ _____ _____    ______ ____

>  <TORSDO>
F 9

$$$$
=
 OpenBabel11052414143D

 34 37  0  0  1  0  0  0  0  0999 V2000
  190.4710  176.9460  144.3180 C   0  0  1  0  0  3  0  0  0  0  0  0
  188.1920  176.9860  143.0550 C   0  0  2  0  0  3  0  0  0  0  0  0
  186.8090  178.6690  141.7040 N   0  0  0  0  0  0  0  0  0  0  0  0
  186.0900  177.8800  143.7870 O   0  0  0  0  0  0  0  0  0  0  0  0
  188.9840  177.3650  144.3260 C   0  0  1  0  0  3  0  0  0  0  0  0
  189.0680  176.9000  141.7770 C   0  0  1  0  0  3  0  0  0  0  0  0
  191.0970  176.8790  142.9200 C   0  0  0  0  0  2  0  0  0  0  0  0
  187.8240  178.7280  140.7300 N   0  0  0  0  0  2  0  0  0  0  0  0
  188.3180  177.3720  140.5230 C   0  0  1  0  0  3  0  0  0  0  0  0
  186.9830  177.8800  142.8950 C   0  0  0  0  0  0  0  0  0  0  0  0
  190.3140  177.6360  141.9550 N   0  0  0  0  0  2  0  0  0  0  0  0
  190.9610  176.2830  138.0030 C   0  0  0  0  0  0  0  0  0  0  0  0
  190.6160  177.0700  136.9000 C   0  0  0  0  0  3  0  0  0  0  0  0
  189.1410  177.2670  139.2750 C   0  0  0  0  0  0  0  0  0  0  0  0
  189.5340  177.9510  136.9810 C   0  0  0  0  0  3  0  0  0  0  0  0
  190.2240  176.3790  139.1870 C   0  0  0  0  0  3  0  0  0  0  0  0
  188.7970  178.0460  138.1650 C   0  0  0  0  0  3  0  0  0  0  0  0
  192.3120  175.1770  137.9010 Cl  0  0  0  0  0  0  0  0  0  0  0  0
  191.7580  177.2310  146.3110 O   0  0  0  0  0  1  0  0  0  0  0  0
  191.2780  177.8990  145.1840 C   0  0  0  0  0  2  0  0  0  0  0  0
  188.2840  176.7760  145.5500 C   0  0  0  0  0  2  0  0  0  0  0  0
  188.6270  177.5300  147.9040 C   0  0  0  0  0  1  0  0  0  0  0  0
  187.9520  177.8420  146.5820 C   0  0  0  0  0  2  0  0  0  0  0  0
  185.5370  179.3290  141.4380 C   0  0  0  0  0  2  0  0  0  0  0  0
  184.8710  178.7330  140.2060 C   0  0  0  0  0  2  0  0  0  0  0  0
  183.7130  179.5960  139.7250 C   0  0  0  0  0  2  0  0  0  0  0  0
  182.9360  178.8960  138.6200 C   0  0  0  0  0  2  0  0  0  0  0  0
  180.8690  178.9700  137.3080 N   0  0  0  0  0  0  0  0  0  0  0  0
  181.4850  179.3580  138.5840 C   0  0  2  0  0  3  0  0  0  0  0  0
  180.5500  177.5740  137.0680 C   0  0  0  0  0  1  0  0  0  0  0  0
  180.8020  181.2180  136.4750 C   0  0  0  0  0  3  0  0  0  0  0  0
  181.1350  181.7020  137.8220 C   0  0  0  0  0  3  0  0  0  0  0  0
  181.4230  180.8490  138.8080 C   0  0  0  0  0  3  0  0  0  0  0  0
  180.6710  179.9130  136.2460 C   0  0  0  0  0  3  0  0  0  0  0  0
  1  5  1  0  0  0  0
  1 20  1  1  0  0  0
  2 10  1  6  0  0  0
  2  5  1  0  0  0  0
  3 10  1  0  0  0  0
  5 21  1  1  0  0  0
  6 11  1  1  0  0  0
  6  2  1  0  0  0  0
  7  1  1  0  0  0  0
  8  3  1  0  0  0  0
  9 14  1  6  0  0  0
  9  8  1  0  0  0  0
  9  6  1  0  0  0  0
 10  4  2  0  0  0  0
 11  7  1  0  0  0  0
 12 16  1  0  0  0  0
 13 15  1  0  0  0  0
 13 12  2  0  0  0  0
 15 17  2  0  0  0  0
 16 14  2  0  0  0  0
 17 14  1  0  0  0  0
 18 12  1  0  0  0  0
 20 19  1  0  0  0  0
 21 23  1  0  0  0  0
 23 22  1  0  0  0  0
 24  3  1  0  0  0  0
 25 24  1  0  0  0  0
 26 25  1  0  0  0  0
 27 26  1  0  0  0  0
 28 29  1  0  0  0  0
 29 27  1  6  0  0  0
 29 33  1  0  0  0  0
 30 28  1  0  0  0  0
 31 32  1  0  0  0  0
 32 33  2  0  0  0  0
 34 31  2  0  0  0  0
 34 28  1  0  0  0  0
M  END
>  <MODEL>
9

>  <REMARK>
 VINA RESULT:      -7.8      3.591      6.182
  Name = 
  9 active torsions:
  status: ('A' for Active; 'I' for Inactive)
    1  A    between atoms: C_1  and  C_19
    2  A    between atoms: C_2  and  C_15
    3  A    between atoms: C_2  and  C_25
    4  A    between atoms: C_3  and  C_13
    5  A    between atoms: C_3  and  C_17
    6  A    between atoms: N_5  and  C_18
    7  A    between atoms: C_12  and  C_28
    8  A    between atoms: C_17  and  C_29
    9  A    between atoms: C_18  and  C_29
                            x       y       z     vdW  Elec       q    Type
                         _______ _______ _______ _____ _____    ______ ____

>  <TORSDO>
F 9

$$$$
