=
 OpenBabel11052414283D

 32 35  0  0  1  0  0  0  0  0999 V2000
  181.6790  179.3440  138.7490 O   0  0  0  0  0  0  0  0  0  0  0  0
  182.3400  178.6390  139.7720 C   0  0  1  0  0  3  0  0  0  0  0  0
  179.4160  177.7560  139.3430 O   0  0  0  0  0  0  0  0  0  0  0  0
  183.0460  174.6470  137.8020 C   0  0  0  0  0  3  0  0  0  0  0  0
  181.6670  177.3090  140.1720 C   0  0  1  0  0  3  0  0  0  0  0  0
  180.7080  174.9960  137.2850 C   0  0  0  0  0  3  0  0  0  0  0  0
  180.6250  175.9550  138.2970 C   0  0  0  0  0  0  0  0  0  0  0  0
  180.1690  177.5190  140.5100 C   0  0  1  0  0  3  0  0  0  0  0  0
  181.3850  180.5630  139.2770 N   0  0  0  0  0  0  0  0  0  0  0  0
  179.2860  176.5210  138.6790 C   0  0  0  0  0  2  0  0  0  0  0  0
  180.0960  180.4850  139.9610 C   0  0  0  0  0  2  0  0  0  0  0  0
  181.2050  181.4680  138.1560 C   0  0  0  0  0  1  0  0  0  0  0  0
  179.8330  178.5420  141.6090 C   0  0  0  0  0  2  0  0  0  0  0  0
  181.7610  176.2700  139.0730 C   0  0  0  0  0  0  0  0  0  0  0  0
  180.3110  179.9820  141.3850 C   0  0  0  0  0  2  0  0  0  0  0  0
  181.9200  174.3530  137.0280 C   0  0  0  0  0  3  0  0  0  0  0  0
  182.9620  175.5960  138.8250 C   0  0  0  0  0  3  0  0  0  0  0  0
  184.2450  180.1210  139.4690 O   0  0  0  0  0  1  0  0  0  0  0  0
  183.8730  178.8510  139.9160 C   0  0  1  0  0  0  0  0  0  0  0  0
  186.0550  178.6030  143.0720 C   0  0  0  0  0  3  0  0  0  0  0  0
  183.7390  178.5660  143.7430 C   0  0  0  0  0  3  0  0  0  0  0  0
  184.3080  178.7050  141.3730 C   0  0  0  0  0  0  0  0  0  0  0  0
  185.0950  178.5360  144.0890 C   0  0  0  0  0  0  0  0  0  0  0  0
  183.3520  178.6540  142.4050 C   0  0  0  0  0  3  0  0  0  0  0  0
  185.6760  178.6930  141.7300 C   0  0  0  0  0  0  0  0  0  0  0  0
  186.6690  178.7800  140.7630 O   0  0  0  0  0  1  0  0  0  0  0  0
  186.7830  177.7750  145.8910 C   0  0  0  0  0  1  0  0  0  0  0  0
  184.7620  178.9410  146.4370 N   0  0  0  0  0  2  0  0  0  0  0  0
  185.5060  178.4420  145.5060 C   0  0  0  0  0  0  0  0  0  0  0  0
  184.5850  177.8090  139.0300 C   0  0  0  0  0  2  0  0  0  0  0  0
  185.1740  178.3850  137.7450 C   0  0  0  0  0  2  0  0  0  0  0  0
  185.7850  177.2860  136.8990 C   0  0  0  0  0  1  0  0  0  0  0  0
  1  9  1  0  0  0  0
  1  2  1  0  0  0  0
  2 19  1  6  0  0  0
  2  5  1  0  0  0  0
  3  8  1  0  0  0  0
  4 17  1  0  0  0  0
  5 14  1  6  0  0  0
  5  8  1  0  0  0  0
  6  7  2  0  0  0  0
  7 10  1  0  0  0  0
  7 14  1  0  0  0  0
  8 13  1  1  0  0  0
  9 11  1  0  0  0  0
 10  3  1  0  0  0  0
 11 15  1  0  0  0  0
 12  9  1  0  0  0  0
 15 13  1  0  0  0  0
 16  6  1  0  0  0  0
 16  4  2  0  0  0  0
 17 14  2  0  0  0  0
 19 18  1  6  0  0  0
 19 22  1  0  0  0  0
 20 23  1  0  0  0  0
 21 23  2  0  0  0  0
 22 25  1  0  0  0  0
 22 24  2  0  0  0  0
 23 29  1  0  0  0  0
 24 21  1  0  0  0  0
 25 20  2  0  0  0  0
 26 25  1  0  0  0  0
 29 27  1  0  0  0  0
 29 28  2  0  0  0  0
 30 19  1  0  0  0  0
 31 30  1  0  0  0  0
 32 31  1  0  0  0  0
M  END
>  <MODEL>
1

>  <REMARK>
 VINA RESULT:      -7.4      0.000      0.000
  Name = 
  5 active torsions:
  status: ('A' for Active; 'I' for Inactive)
    1  A    between atoms: C_1  and  C_4
    2  A    between atoms: C_1  and  C_27
    3  A    between atoms: C_5  and  C_27
    4  A    between atoms: C_16  and  C_27
    5  A    between atoms: C_19  and  C_26
                            x       y       z     vdW  Elec       q    Type
                         _______ _______ _______ _____ _____    ______ ____

>  <TORSDO>
F 5

$$$$
=
 OpenBabel11052414283D

 32 35  0  0  1  0  0  0  0  0999 V2000
  180.9900  177.8720  137.7850 O   0  0  0  0  0  0  0  0  0  0  0  0
  181.6750  177.8960  139.0140 C   0  0  1  0  0  3  0  0  0  0  0  0
  181.8500  175.1890  137.5460 O   0  0  0  0  0  0  0  0  0  0  0  0
  185.9670  178.0600  137.6490 C   0  0  0  0  0  3  0  0  0  0  0  0
  182.7160  176.7700  139.1900 C   0  0  1  0  0  3  0  0  0  0  0  0
  185.1250  176.2630  136.2650 C   0  0  0  0  0  3  0  0  0  0  0  0
  184.0330  176.1110  137.1250 C   0  0  0  0  0  0  0  0  0  0  0  0
  182.0880  175.3790  138.9210 C   0  0  1  0  0  3  0  0  0  0  0  0
  179.6710  177.7780  138.1040 N   0  0  0  0  0  0  0  0  0  0  0  0
  183.0980  174.9490  136.9410 C   0  0  0  0  0  2  0  0  0  0  0  0
  179.3170  176.3670  138.2490 C   0  0  0  0  0  2  0  0  0  0  0  0
  178.9310  178.2750  136.9580 C   0  0  0  0  0  1  0  0  0  0  0  0
  180.8600  174.9900  139.7610 C   0  0  0  0  0  2  0  0  0  0  0  0
  183.9000  176.9400  138.2580 C   0  0  0  0  0  0  0  0  0  0  0  0
  179.6370  175.9110  139.6690 C   0  0  0  0  0  2  0  0  0  0  0  0
  186.0830  177.2460  136.5190 C   0  0  0  0  0  3  0  0  0  0  0  0
  184.8840  177.9010  138.5180 C   0  0  0  0  0  3  0  0  0  0  0  0
  180.5900  179.8410  139.9900 O   0  0  0  0  0  1  0  0  0  0  0  0
  181.8360  179.2710  139.7210 C   0  0  1  0  0  0  0  0  0  0  0  0
  182.6310  178.6360  143.4280 C   0  0  0  0  0  3  0  0  0  0  0  0
  184.7050  179.0310  142.2610 C   0  0  0  0  0  3  0  0  0  0  0  0
  182.5940  179.1210  141.0390 C   0  0  0  0  0  0  0  0  0  0  0  0
  184.0270  178.7460  143.4520 C   0  0  0  0  0  0  0  0  0  0  0  0
  183.9980  179.2110  141.0710 C   0  0  0  0  0  3  0  0  0  0  0  0
  181.9170  178.8140  142.2400 C   0  0  0  0  0  0  0  0  0  0  0  0
  180.5360  178.6710  142.2680 O   0  0  0  0  0  1  0  0  0  0  0  0
  186.1310  177.9360  144.7160 C   0  0  0  0  0  1  0  0  0  0  0  0
  184.2600  178.9240  145.8400 N   0  0  0  0  0  2  0  0  0  0  0  0
  184.7740  178.5550  144.7140 C   0  0  0  0  0  0  0  0  0  0  0  0
  182.5920  180.2140  138.7640 C   0  0  0  0  0  2  0  0  0  0  0  0
  181.8540  181.5160  138.4630 C   0  0  0  0  0  2  0  0  0  0  0  0
  181.0620  181.3950  137.1770 C   0  0  0  0  0  1  0  0  0  0  0  0
  1  9  1  0  0  0  0
  1  2  1  0  0  0  0
  2  5  1  0  0  0  0
  2 19  1  6  0  0  0
  3  8  1  0  0  0  0
  4 17  1  0  0  0  0
  5 14  1  6  0  0  0
  6 16  1  0  0  0  0
  6  7  2  0  0  0  0
  7 14  1  0  0  0  0
  8  5  1  0  0  0  0
  8 13  1  1  0  0  0
  9 11  1  0  0  0  0
 10  7  1  0  0  0  0
 10  3  1  0  0  0  0
 11 15  1  0  0  0  0
 12  9  1  0  0  0  0
 14 17  2  0  0  0  0
 15 13  1  0  0  0  0
 16  4  2  0  0  0  0
 19 18  1  1  0  0  0
 19 22  1  0  0  0  0
 20 23  1  0  0  0  0
 21 23  2  0  0  0  0
 22 24  2  0  0  0  0
 22 25  1  0  0  0  0
 23 29  1  0  0  0  0
 24 21  1  0  0  0  0
 25 26  1  0  0  0  0
 25 20  2  0  0  0  0
 29 27  1  0  0  0  0
 29 28  2  0  0  0  0
 30 19  1  0  0  0  0
 31 30  1  0  0  0  0
 32 31  1  0  0  0  0
M  END
>  <MODEL>
2

>  <REMARK>
 VINA RESULT:      -6.6      1.913      3.560
  Name = 
  5 active torsions:
  status: ('A' for Active; 'I' for Inactive)
    1  A    between atoms: C_1  and  C_4
    2  A    between atoms: C_1  and  C_27
    3  A    between atoms: C_5  and  C_27
    4  A    between atoms: C_16  and  C_27
    5  A    between atoms: C_19  and  C_26
                            x       y       z     vdW  Elec       q    Type
                         _______ _______ _______ _____ _____    ______ ____

>  <TORSDO>
F 5

$$$$
=
 OpenBabel11052414283D

 32 35  0  0  1  0  0  0  0  0999 V2000
  182.7810  177.1170  138.1130 O   0  0  0  0  0  0  0  0  0  0  0  0
  181.7020  178.0100  138.2510 C   0  0  1  0  0  3  0  0  0  0  0  0
  180.9920  175.4280  136.7200 O   0  0  0  0  0  0  0  0  0  0  0  0
  179.2180  175.9390  141.3900 C   0  0  0  0  0  3  0  0  0  0  0  0
  180.3130  177.3770  138.0220 C   0  0  1  0  0  3  0  0  0  0  0  0
  179.6550  174.1010  139.8790 C   0  0  0  0  0  3  0  0  0  0  0  0
  179.9930  175.0080  138.8710 C   0  0  0  0  0  0  0  0  0  0  0  0
  180.2550  176.6270  136.6670 C   0  0  1  0  0  3  0  0  0  0  0  0
  183.5720  177.6480  137.1410 N   0  0  0  0  0  0  0  0  0  0  0  0
  180.2330  174.5110  137.4730 C   0  0  0  0  0  2  0  0  0  0  0  0
  183.1050  177.1750  135.8390 C   0  0  0  0  0  2  0  0  0  0  0  0
  184.8970  177.0880  137.3340 C   0  0  0  0  0  1  0  0  0  0  0  0
  180.5940  177.4350  135.4030 C   0  0  0  0  0  2  0  0  0  0  0  0
  179.9480  176.3960  139.1180 C   0  0  0  0  0  0  0  0  0  0  0  0
  181.9830  178.0840  135.3460 C   0  0  0  0  0  2  0  0  0  0  0  0
  179.2810  174.5650  141.1410 C   0  0  0  0  0  3  0  0  0  0  0  0
  179.5420  176.8490  140.3790 C   0  0  0  0  0  3  0  0  0  0  0  0
  180.6940  179.5750  139.8170 O   0  0  0  0  0  1  0  0  0  0  0  0
  181.8950  179.2310  139.1930 C   0  0  1  0  0  0  0  0  0  0  0  0
  185.1990  179.0930  141.1550 C   0  0  0  0  0  3  0  0  0  0  0  0
  183.4800  178.0420  142.4820 C   0  0  0  0  0  3  0  0  0  0  0  0
  182.9310  178.9260  140.2740 C   0  0  0  0  0  0  0  0  0  0  0  0
  184.8140  178.4400  142.3330 C   0  0  0  0  0  0  0  0  0  0  0  0
  182.5520  178.2860  141.4690 C   0  0  0  0  0  3  0  0  0  0  0  0
  184.2740  179.3420  140.1370 C   0  0  0  0  0  0  0  0  0  0  0  0
  184.7030  180.0140  139.0000 O   0  0  0  0  0  1  0  0  0  0  0  0
  185.5120  178.5630  144.8180 C   0  0  0  0  0  1  0  0  0  0  0  0
  186.9300  177.6200  143.1320 N   0  0  0  0  0  2  0  0  0  0  0  0
  185.7990  178.1830  143.4050 C   0  0  0  0  0  0  0  0  0  0  0  0
  182.3440  180.4300  138.3350 C   0  0  0  0  0  2  0  0  0  0  0  0
  181.2510  181.4700  138.1010 C   0  0  0  0  0  2  0  0  0  0  0  0
  180.6780  181.3360  136.7050 C   0  0  0  0  0  1  0  0  0  0  0  0
  1  2  1  0  0  0  0
  2 19  1  1  0  0  0
  3 10  1  0  0  0  0
  5  2  1  0  0  0  0
  5 14  1  1  0  0  0
  6 16  2  0  0  0  0
  7 14  2  0  0  0  0
  7  6  1  0  0  0  0
  8 13  1  6  0  0  0
  8  3  1  0  0  0  0
  8  5  1  0  0  0  0
  9 12  1  0  0  0  0
  9  1  1  0  0  0  0
 10  7  1  0  0  0  0
 11  9  1  0  0  0  0
 14 17  1  0  0  0  0
 15 13  1  0  0  0  0
 15 11  1  0  0  0  0
 16  4  1  0  0  0  0
 17  4  2  0  0  0  0
 19 18  1  1  0  0  0
 19 22  1  0  0  0  0
 20 23  1  0  0  0  0
 22 24  2  0  0  0  0
 23 21  2  0  0  0  0
 23 29  1  0  0  0  0
 24 21  1  0  0  0  0
 25 22  1  0  0  0  0
 25 20  2  0  0  0  0
 26 25  1  0  0  0  0
 28 29  2  0  0  0  0
 29 27  1  0  0  0  0
 30 19  1  0  0  0  0
 31 30  1  0  0  0  0
 32 31  1  0  0  0  0
M  END
>  <MODEL>
3

>  <REMARK>
 VINA RESULT:      -6.4      2.074      3.782
  Name = 
  5 active torsions:
  status: ('A' for Active; 'I' for Inactive)
    1  A    between atoms: C_1  and  C_4
    2  A    between atoms: C_1  and  C_27
    3  A    between atoms: C_5  and  C_27
    4  A    between atoms: C_16  and  C_27
    5  A    between atoms: C_19  and  C_26
                            x       y       z     vdW  Elec       q    Type
                         _______ _______ _______ _____ _____    ______ ____

>  <TORSDO>
F 5

$$$$
=
 OpenBabel11052414283D

 32 35  0  0  1  0  0  0  0  0999 V2000
  187.0970  175.6970  137.6480 O   0  0  0  0  0  0  0  0  0  0  0  0
  187.1200  177.0470  137.2510 C   0  0  1  0  0  3  0  0  0  0  0  0
  184.4890  175.5930  136.5580 O   0  0  0  0  0  0  0  0  0  0  0  0
  184.3980  178.9300  140.3090 C   0  0  0  0  0  3  0  0  0  0  0  0
  185.7310  177.6540  136.9620 C   0  0  1  0  0  3  0  0  0  0  0  0
  183.0600  177.0340  139.6250 C   0  0  0  0  0  3  0  0  0  0  0  0
  183.8310  176.9060  138.4670 C   0  0  0  0  0  0  0  0  0  0  0  0
  184.9370  176.7840  135.9540 C   0  0  1  0  0  3  0  0  0  0  0  0
  187.8690  175.0360  136.7420 N   0  0  0  0  0  0  0  0  0  0  0  0
  183.4120  175.9370  137.3970 C   0  0  0  0  0  2  0  0  0  0  0  0
  187.0370  174.6450  135.6060 C   0  0  0  0  0  2  0  0  0  0  0  0
  188.2990  173.8070  137.3830 C   0  0  0  0  0  1  0  0  0  0  0  0
  185.5980  176.5070  134.5940 C   0  0  0  0  0  2  0  0  0  0  0  0
  184.8990  177.7950  138.2210 C   0  0  0  0  0  0  0  0  0  0  0  0
  186.9600  175.8020  134.6150 C   0  0  0  0  0  2  0  0  0  0  0  0
  183.3520  178.0360  140.5520 C   0  0  0  0  0  3  0  0  0  0  0  0
  185.1610  178.8140  139.1440 C   0  0  0  0  0  3  0  0  0  0  0  0
  188.0300  179.2790  137.5730 O   0  0  0  0  0  1  0  0  0  0  0  0
  188.3040  177.9220  137.7500 C   0  0  1  0  0  0  0  0  0  0  0  0
  189.8920  176.6400  141.0080 C   0  0  0  0  0  3  0  0  0  0  0  0
  188.1090  178.1610  141.5770 C   0  0  0  0  0  3  0  0  0  0  0  0
  188.5790  177.6720  139.2320 C   0  0  0  0  0  0  0  0  0  0  0  0
  189.1370  177.3020  141.9840 C   0  0  0  0  0  0  0  0  0  0  0  0
  187.8370  178.3460  140.2210 C   0  0  0  0  0  3  0  0  0  0  0  0
  189.6270  176.8210  139.6480 C   0  0  0  0  0  0  0  0  0  0  0  0
  190.4220  176.1580  138.7220 O   0  0  0  0  0  1  0  0  0  0  0  0
  188.3620  177.2850  144.4490 C   0  0  0  0  0  1  0  0  0  0  0  0
  190.6120  176.7680  143.8080 N   0  0  0  0  0  2  0  0  0  0  0  0
  189.4260  177.1040  143.4200 C   0  0  0  0  0  0  0  0  0  0  0  0
  189.5450  177.5730  136.9030 C   0  0  0  0  0  2  0  0  0  0  0  0
  189.3640  177.8210  135.4070 C   0  0  0  0  0  2  0  0  0  0  0  0
  190.2300  176.8740  134.6020 C   0  0  0  0  0  1  0  0  0  0  0  0
  2  1  1  0  0  0  0
  2 19  1  1  0  0  0
  3 10  1  0  0  0  0
  4 16  1  0  0  0  0
  5  2  1  0  0  0  0
  5 14  1  1  0  0  0
  6 16  2  0  0  0  0
  7  6  1  0  0  0  0
  8 13  1  6  0  0  0
  8  3  1  0  0  0  0
  8  5  1  0  0  0  0
  9 12  1  0  0  0  0
  9  1  1  0  0  0  0
 10  7  1  0  0  0  0
 11  9  1  0  0  0  0
 13 15  1  0  0  0  0
 14  7  2  0  0  0  0
 14 17  1  0  0  0  0
 15 11  1  0  0  0  0
 17  4  2  0  0  0  0
 19 18  1  6  0  0  0
 19 22  1  0  0  0  0
 20 23  1  0  0  0  0
 21 23  2  0  0  0  0
 22 25  1  0  0  0  0
 22 24  2  0  0  0  0
 23 29  1  0  0  0  0
 24 21  1  0  0  0  0
 25 20  2  0  0  0  0
 26 25  1  0  0  0  0
 29 28  2  0  0  0  0
 29 27  1  0  0  0  0
 30 19  1  0  0  0  0
 31 30  1  0  0  0  0
 32 31  1  0  0  0  0
M  END
>  <MODEL>
4

>  <REMARK>
 VINA RESULT:      -6.4      3.668      6.013
  Name = 
  5 active torsions:
  status: ('A' for Active; 'I' for Inactive)
    1  A    between atoms: C_1  and  C_4
    2  A    between atoms: C_1  and  C_27
    3  A    between atoms: C_5  and  C_27
    4  A    between atoms: C_16  and  C_27
    5  A    between atoms: C_19  and  C_26
                            x       y       z     vdW  Elec       q    Type
                         _______ _______ _______ _____ _____    ______ ____

>  <TORSDO>
F 5

$$$$
=
 OpenBabel11052414283D

 32 35  0  0  1  0  0  0  0  0999 V2000
  189.8030  179.0050  144.2780 O   0  0  0  0  0  0  0  0  0  0  0  0
  189.0650  177.9890  143.6420 C   0  0  1  0  0  3  0  0  0  0  0  0
  189.8500  177.3210  146.5500 O   0  0  0  0  0  0  0  0  0  0  0  0
  185.0400  178.4260  145.6230 C   0  0  0  0  0  3  0  0  0  0  0  0
  188.4220  176.9660  144.6030 C   0  0  1  0  0  3  0  0  0  0  0  0
  186.4960  178.4430  147.5560 C   0  0  0  0  0  3  0  0  0  0  0  0
  187.5200  177.8780  146.7920 C   0  0  0  0  0  0  0  0  0  0  0  0
  189.4730  176.3750  145.5770 C   0  0  1  0  0  3  0  0  0  0  0  0
  191.0610  178.9180  143.7660 N   0  0  0  0  0  0  0  0  0  0  0  0
  188.7840  177.4200  147.4640 C   0  0  0  0  0  2  0  0  0  0  0  0
  191.8300  177.9590  144.5580 C   0  0  0  0  0  2  0  0  0  0  0  0
  191.6810  180.2150  143.9680 C   0  0  0  0  0  1  0  0  0  0  0  0
  190.7030  175.6930  144.9530 C   0  0  0  0  0  2  0  0  0  0  0  0
  187.3100  177.5820  145.4280 C   0  0  0  0  0  0  0  0  0  0  0  0
  191.5760  176.5510  144.0290 C   0  0  0  0  0  2  0  0  0  0  0  0
  185.2620  178.7300  146.9690 C   0  0  0  0  0  3  0  0  0  0  0  0
  186.0580  177.8470  144.8600 C   0  0  0  0  0  3  0  0  0  0  0  0
  188.4670  179.6900  142.0110 O   0  0  0  0  0  1  0  0  0  0  0  0
  188.4330  178.3170  142.2610 C   0  0  1  0  0  0  0  0  0  0  0  0
  189.5520  177.1730  138.7650 C   0  0  0  0  0  3  0  0  0  0  0  0
  191.0080  176.1610  140.4000 C   0  0  0  0  0  3  0  0  0  0  0  0
  189.1810  177.6020  141.1370 C   0  0  0  0  0  0  0  0  0  0  0  0
  190.6430  176.3470  139.0610 C   0  0  0  0  0  0  0  0  0  0  0  0
  190.2900  176.7840  141.4220 C   0  0  0  0  0  3  0  0  0  0  0  0
  188.8290  177.8010  139.7830 C   0  0  0  0  0  0  0  0  0  0  0  0
  187.7690  178.6280  139.4320 O   0  0  0  0  0  1  0  0  0  0  0  0
  192.5460  176.3780  137.3120 C   0  0  0  0  0  1  0  0  0  0  0  0
  191.0870  174.4970  137.5880 N   0  0  0  0  0  2  0  0  0  0  0  0
  191.4030  175.6880  137.9770 C   0  0  0  0  0  0  0  0  0  0  0  0
  186.9560  177.8770  142.2950 C   0  0  0  0  0  2  0  0  0  0  0  0
  185.9710  178.9800  141.9100 C   0  0  0  0  0  2  0  0  0  0  0  0
  184.6010  178.3960  141.6300 C   0  0  0  0  0  1  0  0  0  0  0  0
  2 19  1  1  0  0  0
  2  1  1  0  0  0  0
  2  5  1  0  0  0  0
  3 10  1  0  0  0  0
  4 16  1  0  0  0  0
  5 14  1  1  0  0  0
  5  8  1  0  0  0  0
  7 10  1  0  0  0  0
  7  6  1  0  0  0  0
  8 13  1  6  0  0  0
  8  3  1  0  0  0  0
  9 12  1  0  0  0  0
  9  1  1  0  0  0  0
  9 11  1  0  0  0  0
 14  7  2  0  0  0  0
 15 11  1  0  0  0  0
 15 13  1  0  0  0  0
 16  6  2  0  0  0  0
 17 14  1  0  0  0  0
 17  4  2  0  0  0  0
 19 18  1  6  0  0  0
 19 30  1  0  0  0  0
 20 23  2  0  0  0  0
 20 25  1  0  0  0  0
 21 24  2  0  0  0  0
 22 24  1  0  0  0  0
 22 19  1  0  0  0  0
 23 21  1  0  0  0  0
 25 22  2  0  0  0  0
 26 25  1  0  0  0  0
 27 29  1  0  0  0  0
 28 29  2  0  0  0  0
 29 23  1  0  0  0  0
 31 30  1  0  0  0  0
 32 31  1  0  0  0  0
M  END
>  <MODEL>
5

>  <REMARK>
 VINA RESULT:      -6.1      4.758      9.181
  Name = 
  5 active torsions:
  status: ('A' for Active; 'I' for Inactive)
    1  A    between atoms: C_1  and  C_4
    2  A    between atoms: C_1  and  C_27
    3  A    between atoms: C_5  and  C_27
    4  A    between atoms: C_16  and  C_27
    5  A    between atoms: C_19  and  C_26
                            x       y       z     vdW  Elec       q    Type
                         _______ _______ _______ _____ _____    ______ ____

>  <TORSDO>
F 5

$$$$
=
 OpenBabel11052414283D

 32 35  0  0  1  0  0  0  0  0999 V2000
  181.3530  176.7190  140.2070 O   0  0  0  0  0  0  0  0  0  0  0  0
  181.6500  177.8780  139.4650 C   0  0  1  0  0  3  0  0  0  0  0  0
  181.2670  178.3980  142.4810 O   0  0  0  0  0  0  0  0  0  0  0  0
  185.9340  178.6280  140.6430 C   0  0  0  0  0  3  0  0  0  0  0  0
  182.1530  179.0680  140.3080 C   0  0  1  0  0  3  0  0  0  0  0  0
  184.9270  178.2740  142.8140 C   0  0  0  0  0  3  0  0  0  0  0  0
  183.6630  178.5110  142.2690 C   0  0  0  0  0  0  0  0  0  0  0  0
  181.1800  179.3790  141.4750 C   0  0  1  0  0  3  0  0  0  0  0  0
  180.0470  176.4400  139.9430 N   0  0  0  0  0  0  0  0  0  0  0  0
  182.4700  178.6260  143.1760 C   0  0  0  0  0  2  0  0  0  0  0  0
  179.2050  177.1760  140.8840 C   0  0  0  0  0  2  0  0  0  0  0  0
  179.8580  175.0300  140.2320 C   0  0  0  0  0  1  0  0  0  0  0  0
  179.7160  179.6760  141.1070 C   0  0  0  0  0  2  0  0  0  0  0  0
  183.5250  178.8090  140.8970 C   0  0  0  0  0  0  0  0  0  0  0  0
  178.9570  178.5820  140.3470 C   0  0  0  0  0  2  0  0  0  0  0  0
  186.0600  178.3180  142.0000 C   0  0  0  0  0  3  0  0  0  0  0  0
  184.6720  178.8800  140.0980 C   0  0  0  0  0  3  0  0  0  0  0  0
  183.1490  178.5280  137.6640 O   0  0  0  0  0  1  0  0  0  0  0  0
  182.0780  177.6910  137.9830 C   0  0  1  0  0  0  0  0  0  0  0  0
  182.0280  174.0250  136.8230 C   0  0  0  0  0  3  0  0  0  0  0  0
  184.2120  174.5080  137.7270 C   0  0  0  0  0  3  0  0  0  0  0  0
  182.4970  176.2460  137.7150 C   0  0  0  0  0  0  0  0  0  0  0  0
  183.3260  173.6000  137.1350 C   0  0  0  0  0  0  0  0  0  0  0  0
  183.8040  175.8130  138.0090 C   0  0  0  0  0  3  0  0  0  0  0  0
  181.6130  175.3300  137.1000 C   0  0  0  0  0  0  0  0  0  0  0  0
  180.3230  175.7060  136.7490 O   0  0  0  0  0  1  0  0  0  0  0  0
  185.0210  171.9510  136.0940 C   0  0  0  0  0  1  0  0  0  0  0  0
  183.0380  171.2130  137.2180 N   0  0  0  0  0  2  0  0  0  0  0  0
  183.7560  172.2180  136.8370 C   0  0  0  0  0  0  0  0  0  0  0  0
  180.8860  178.0840  137.0880 C   0  0  0  0  0  2  0  0  0  0  0  0
  181.0390  179.4440  136.4120 C   0  0  0  0  0  2  0  0  0  0  0  0
  180.2770  180.5080  137.1770 C   0  0  0  0  0  1  0  0  0  0  0  0
  2 19  1  6  0  0  0
  2  1  1  0  0  0  0
  2  5  1  0  0  0  0
  3 10  1  0  0  0  0
  4 16  1  0  0  0  0
  5 14  1  1  0  0  0
  5  8  1  0  0  0  0
  7  6  1  0  0  0  0
  7 10  1  0  0  0  0
  8 13  1  6  0  0  0
  8  3  1  0  0  0  0
  9  1  1  0  0  0  0
  9 12  1  0  0  0  0
  9 11  1  0  0  0  0
 14  7  2  0  0  0  0
 15 11  1  0  0  0  0
 15 13  1  0  0  0  0
 16  6  2  0  0  0  0
 17  4  2  0  0  0  0
 17 14  1  0  0  0  0
 19 18  1  6  0  0  0
 20 25  2  0  0  0  0
 20 23  1  0  0  0  0
 21 24  1  0  0  0  0
 22 19  1  0  0  0  0
 22 24  2  0  0  0  0
 23 21  2  0  0  0  0
 25 22  1  0  0  0  0
 26 25  1  0  0  0  0
 27 29  1  0  0  0  0
 29 23  1  0  0  0  0
 29 28  2  0  0  0  0
 30 19  1  0  0  0  0
 31 30  1  0  0  0  0
 31 32  1  0  0  0  0
M  END
>  <MODEL>
6

>  <REMARK>
 VINA RESULT:      -5.7      2.588      6.184
  Name = 
  5 active torsions:
  status: ('A' for Active; 'I' for Inactive)
    1  A    between atoms: C_1  and  C_4
    2  A    between atoms: C_1  and  C_27
    3  A    between atoms: C_5  and  C_27
    4  A    between atoms: C_16  and  C_27
    5  A    between atoms: C_19  and  C_26
                            x       y       z     vdW  Elec       q    Type
                         _______ _______ _______ _____ _____    ______ ____

>  <TORSDO>
F 5

$$$$
=
 OpenBabel11052414283D

 32 35  0  0  1  0  0  0  0  0999 V2000
  189.3580  179.0040  143.5880 O   0  0  0  0  0  0  0  0  0  0  0  0
  188.6860  178.0300  142.8270 C   0  0  1  0  0  3  0  0  0  0  0  0
  188.9730  177.2980  145.8100 O   0  0  0  0  0  0  0  0  0  0  0  0
  184.4230  178.6310  144.1590 C   0  0  0  0  0  3  0  0  0  0  0  0
  187.8550  177.0280  143.6580 C   0  0  1  0  0  3  0  0  0  0  0  0
  185.5550  178.5630  146.2960 C   0  0  0  0  0  3  0  0  0  0  0  0
  186.6610  177.9580  145.6930 C   0  0  0  0  0  0  0  0  0  0  0  0
  188.7130  176.3790  144.7740 C   0  0  1  0  0  3  0  0  0  0  0  0
  190.6760  178.8650  143.2780 N   0  0  0  0  0  0  0  0  0  0  0  0
  187.7820  177.4360  146.5470 C   0  0  0  0  0  2  0  0  0  0  0  0
  191.2680  177.8640  144.1640 C   0  0  0  0  0  2  0  0  0  0  0  0
  191.3120  180.1300  143.5970 C   0  0  0  0  0  1  0  0  0  0  0  0
  189.9950  175.6490  144.3390 C   0  0  0  0  0  2  0  0  0  0  0  0
  186.6550  177.6860  144.3080 C   0  0  0  0  0  0  0  0  0  0  0  0
  191.0390  176.4740  143.5780 C   0  0  0  0  0  2  0  0  0  0  0  0
  184.4430  178.9120  145.5280 C   0  0  0  0  0  3  0  0  0  0  0  0
  185.5220  178.0140  143.5560 C   0  0  0  0  0  3  0  0  0  0  0  0
  188.2960  179.7850  141.1890 O   0  0  0  0  0  1  0  0  0  0  0  0
  188.2940  178.4000  141.3690 C   0  0  1  0  0  0  0  0  0  0  0  0
  190.1560  177.5810  138.1060 C   0  0  0  0  0  3  0  0  0  0  0  0
  191.2110  176.3740  139.9090 C   0  0  0  0  0  3  0  0  0  0  0  0
  189.2700  177.7810  140.3700 C   0  0  0  0  0  0  0  0  0  0  0  0
  191.1520  176.7020  138.5490 C   0  0  0  0  0  0  0  0  0  0  0  0
  190.2860  176.9100  140.8060 C   0  0  0  0  0  3  0  0  0  0  0  0
  189.2270  178.1230  138.9990 C   0  0  0  0  0  0  0  0  0  0  0  0
  188.2750  179.0080  138.5110 O   0  0  0  0  0  1  0  0  0  0  0  0
  191.6950  175.2210  136.5020 C   0  0  0  0  0  1  0  0  0  0  0  0
  193.3860  176.4260  137.6990 N   0  0  0  0  0  2  0  0  0  0  0  0
  192.1310  176.1350  137.5970 C   0  0  0  0  0  0  0  0  0  0  0  0
  186.8620  177.8900  141.1150 C   0  0  0  0  0  2  0  0  0  0  0  0
  185.8700  178.9880  140.7380 C   0  0  0  0  0  2  0  0  0  0  0  0
  185.1310  178.6250  139.4660 C   0  0  0  0  0  1  0  0  0  0  0  0
  2 19  1  6  0  0  0
  2  1  1  0  0  0  0
  2  5  1  0  0  0  0
  3 10  1  0  0  0  0
  4 16  1  0  0  0  0
  5 14  1  1  0  0  0
  5  8  1  0  0  0  0
  7  6  1  0  0  0  0
  7 10  1  0  0  0  0
  8 13  1  6  0  0  0
  8  3  1  0  0  0  0
  9  1  1  0  0  0  0
  9 12  1  0  0  0  0
  9 11  1  0  0  0  0
 14  7  2  0  0  0  0
 15 11  1  0  0  0  0
 15 13  1  0  0  0  0
 16  6  2  0  0  0  0
 17  4  2  0  0  0  0
 17 14  1  0  0  0  0
 19 18  1  6  0  0  0
 20 23  2  0  0  0  0
 20 25  1  0  0  0  0
 21 24  2  0  0  0  0
 22 24  1  0  0  0  0
 22 19  1  0  0  0  0
 23 21  1  0  0  0  0
 25 22  2  0  0  0  0
 26 25  1  0  0  0  0
 27 29  1  0  0  0  0
 29 28  2  0  0  0  0
 29 23  1  0  0  0  0
 30 19  1  0  0  0  0
 31 30  1  0  0  0  0
 32 31  1  0  0  0  0
M  END
>  <MODEL>
7

>  <REMARK>
 VINA RESULT:      -5.4      4.590      8.652
  Name = 
  5 active torsions:
  status: ('A' for Active; 'I' for Inactive)
    1  A    between atoms: C_1  and  C_4
    2  A    between atoms: C_1  and  C_27
    3  A    between atoms: C_5  and  C_27
    4  A    between atoms: C_16  and  C_27
    5  A    between atoms: C_19  and  C_26
                            x       y       z     vdW  Elec       q    Type
                         _______ _______ _______ _____ _____    ______ ____

>  <TORSDO>
F 5

$$$$
=
 OpenBabel11052414283D

 32 35  0  0  1  0  0  0  0  0999 V2000
  182.1430  176.7180  136.1260 O   0  0  0  0  0  0  0  0  0  0  0  0
  182.0490  176.2620  137.4540 C   0  0  1  0  0  3  0  0  0  0  0  0
  180.8920  174.2940  135.3800 O   0  0  0  0  0  0  0  0  0  0  0  0
  185.2610  173.1020  137.5490 C   0  0  0  0  0  3  0  0  0  0  0  0
  181.8100  174.7440  137.5950 C   0  0  1  0  0  3  0  0  0  0  0  0
  184.1000  172.5010  135.5140 C   0  0  0  0  0  3  0  0  0  0  0  0
  182.9930  173.2490  135.9220 C   0  0  0  0  0  0  0  0  0  0  0  0
  180.5900  174.2880  136.7560 C   0  0  1  0  0  3  0  0  0  0  0  0
  181.1670  177.6570  135.9920 N   0  0  0  0  0  0  0  0  0  0  0  0
  181.7150  173.1780  135.1340 C   0  0  0  0  0  2  0  0  0  0  0  0
  179.9230  176.9960  135.6040 C   0  0  0  0  0  2  0  0  0  0  0  0
  181.5540  178.5000  134.8750 C   0  0  0  0  0  1  0  0  0  0  0  0
  179.2460  174.9820  137.0350 C   0  0  0  0  0  2  0  0  0  0  0  0
  183.0140  173.9350  137.1550 C   0  0  0  0  0  0  0  0  0  0  0  0
  179.2020  176.5050  136.8560 C   0  0  0  0  0  2  0  0  0  0  0  0
  185.2380  172.4390  136.3200 C   0  0  0  0  0  3  0  0  0  0  0  0
  184.1500  173.8400  137.9670 C   0  0  0  0  0  3  0  0  0  0  0  0
  182.9190  176.3330  139.7240 O   0  0  0  0  0  1  0  0  0  0  0  0
  182.7990  177.0740  138.5470 C   0  0  1  0  0  0  0  0  0  0  0  0
  186.3480  178.5500  138.4500 C   0  0  0  0  0  3  0  0  0  0  0  0
  185.9940  177.2850  136.4270 C   0  0  0  0  0  3  0  0  0  0  0  0
  184.2000  177.4590  138.0730 C   0  0  0  0  0  0  0  0  0  0  0  0
  186.8300  178.0780  137.2220 C   0  0  0  0  0  0  0  0  0  0  0  0
  184.7000  176.9760  136.8490 C   0  0  0  0  0  3  0  0  0  0  0  0
  185.0540  178.2440  138.8800 C   0  0  0  0  0  0  0  0  0  0  0  0
  184.6350  178.7190  140.1160 O   0  0  0  0  0  1  0  0  0  0  0  0
  188.8630  177.6240  135.6940 C   0  0  0  0  0  1  0  0  0  0  0  0
  188.8490  179.3820  137.3220 N   0  0  0  0  0  2  0  0  0  0  0  0
  188.2010  178.4060  136.7770 C   0  0  0  0  0  0  0  0  0  0  0  0
  181.9680  178.3340  138.8610 C   0  0  0  0  0  2  0  0  0  0  0  0
  180.8700  178.1100  139.8980 C   0  0  0  0  0  2  0  0  0  0  0  0
  181.1360  178.9340  141.1410 C   0  0  0  0  0  1  0  0  0  0  0  0
  1  2  1  0  0  0  0
  2  5  1  0  0  0  0
  2 19  1  1  0  0  0
  3  8  1  0  0  0  0
  4 17  1  0  0  0  0
  5 14  1  6  0  0  0
  6  7  2  0  0  0  0
  6 16  1  0  0  0  0
  7 14  1  0  0  0  0
  8 13  1  6  0  0  0
  8  5  1  0  0  0  0
  9  1  1  0  0  0  0
 10  3  1  0  0  0  0
 10  7  1  0  0  0  0
 11  9  1  0  0  0  0
 11 15  1  0  0  0  0
 12  9  1  0  0  0  0
 14 17  2  0  0  0  0
 15 13  1  0  0  0  0
 16  4  2  0  0  0  0
 19 30  1  0  0  0  0
 19 18  1  1  0  0  0
 20 25  1  0  0  0  0
 21 24  2  0  0  0  0
 21 23  1  0  0  0  0
 22 19  1  0  0  0  0
 22 25  2  0  0  0  0
 23 20  2  0  0  0  0
 24 22  1  0  0  0  0
 25 26  1  0  0  0  0
 27 29  1  0  0  0  0
 29 23  1  0  0  0  0
 29 28  2  0  0  0  0
 30 31  1  0  0  0  0
 31 32  1  0  0  0  0
M  END
>  <MODEL>
8

>  <REMARK>
 VINA RESULT:      -5.3      3.366      5.358
  Name = 
  5 active torsions:
  status: ('A' for Active; 'I' for Inactive)
    1  A    between atoms: C_1  and  C_4
    2  A    between atoms: C_1  and  C_27
    3  A    between atoms: C_5  and  C_27
    4  A    between atoms: C_16  and  C_27
    5  A    between atoms: C_19  and  C_26
                            x       y       z     vdW  Elec       q    Type
                         _______ _______ _______ _____ _____    ______ ____

>  <TORSDO>
F 5

$$$$
=
 OpenBabel11052414283D

 32 35  0  0  1  0  0  0  0  0999 V2000
  183.6480  178.6410  137.7870 O   0  0  0  0  0  0  0  0  0  0  0  0
  182.5870  177.8310  137.3390 C   0  0  1  0  0  3  0  0  0  0  0  0
  181.7440  179.9440  139.4220 O   0  0  0  0  0  0  0  0  0  0  0  0
  180.3530  180.6770  134.6530 C   0  0  0  0  0  3  0  0  0  0  0  0
  181.1820  178.4060  137.6130 C   0  0  1  0  0  3  0  0  0  0  0  0
  180.6580  182.0590  136.6160 C   0  0  0  0  0  3  0  0  0  0  0  0
  180.9190  180.9180  137.3800 C   0  0  0  0  0  0  0  0  0  0  0  0
  181.0120  178.7830  139.1070 C   0  0  1  0  0  3  0  0  0  0  0  0
  184.3610  177.8660  138.6490 N   0  0  0  0  0  0  0  0  0  0  0  0
  181.0430  181.0350  138.8730 C   0  0  0  0  0  2  0  0  0  0  0  0
  183.7890  177.9960  139.9870 C   0  0  0  0  0  2  0  0  0  0  0  0
  185.6950  178.4350  138.7120 C   0  0  0  0  0  1  0  0  0  0  0  0
  181.2520  177.6720  140.1430 C   0  0  0  0  0  2  0  0  0  0  0  0
  180.9010  179.6410  136.7810 C   0  0  0  0  0  0  0  0  0  0  0  0
  182.6350  177.0090  140.1410 C   0  0  0  0  0  2  0  0  0  0  0  0
  180.3890  181.9400  135.2510 C   0  0  0  0  0  3  0  0  0  0  0  0
  180.6000  179.5340  135.4180 C   0  0  0  0  0  3  0  0  0  0  0  0
  182.9820  177.6200  134.9490 O   0  0  0  0  0  1  0  0  0  0  0  0
  182.8620  176.8900  136.1330 C   0  0  1  0  0  0  0  0  0  0  0  0
  185.3550  174.2200  137.3330 C   0  0  0  0  0  3  0  0  0  0  0  0
  186.4930  175.6890  135.7950 C   0  0  0  0  0  3  0  0  0  0  0  0
  184.1500  176.0960  136.3440 C   0  0  0  0  0  0  0  0  0  0  0  0
  186.5210  174.5760  136.6440 C   0  0  0  0  0  0  0  0  0  0  0  0
  185.3230  176.4340  135.6440 C   0  0  0  0  0  3  0  0  0  0  0  0
  184.1790  174.9610  137.1860 C   0  0  0  0  0  0  0  0  0  0  0  0
  183.0450  174.5500  137.8740 O   0  0  0  0  0  1  0  0  0  0  0  0
  187.7050  172.3170  137.0590 C   0  0  0  0  0  1  0  0  0  0  0  0
  188.9160  174.3580  136.7270 N   0  0  0  0  0  2  0  0  0  0  0  0
  187.7600  173.7850  136.8050 C   0  0  0  0  0  0  0  0  0  0  0  0
  181.6570  175.9390  135.9850 C   0  0  0  0  0  2  0  0  0  0  0  0
  181.5240  175.3170  134.5970 C   0  0  0  0  0  2  0  0  0  0  0  0
  181.6340  173.8080  134.6780 C   0  0  0  0  0  1  0  0  0  0  0  0
  1  9  1  0  0  0  0
  2 19  1  6  0  0  0
  2  5  1  0  0  0  0
  2  1  1  0  0  0  0
  4 16  2  0  0  0  0
  4 17  1  0  0  0  0
  5 14  1  6  0  0  0
  5  8  1  0  0  0  0
  6  7  2  0  0  0  0
  7 10  1  0  0  0  0
  8  3  1  0  0  0  0
  8 13  1  1  0  0  0
  9 12  1  0  0  0  0
  9 11  1  0  0  0  0
 10  3  1  0  0  0  0
 11 15  1  0  0  0  0
 14  7  1  0  0  0  0
 15 13  1  0  0  0  0
 16  6  1  0  0  0  0
 17 14  2  0  0  0  0
 19 18  1  6  0  0  0
 19 22  1  0  0  0  0
 21 23  1  0  0  0  0
 22 25  2  0  0  0  0
 23 29  1  0  0  0  0
 23 20  2  0  0  0  0
 24 21  2  0  0  0  0
 24 22  1  0  0  0  0
 25 20  1  0  0  0  0
 25 26  1  0  0  0  0
 28 29  2  0  0  0  0
 29 27  1  0  0  0  0
 30 19  1  0  0  0  0
 31 32  1  0  0  0  0
 31 30  1  0  0  0  0
M  END
>  <MODEL>
9

>  <REMARK>
 VINA RESULT:      -5.1      3.192      6.210
  Name = 
  5 active torsions:
  status: ('A' for Active; 'I' for Inactive)
    1  A    between atoms: C_1  and  C_4
    2  A    between atoms: C_1  and  C_27
    3  A    between atoms: C_5  and  C_27
    4  A    between atoms: C_16  and  C_27
    5  A    between atoms: C_19  and  C_26
                            x       y       z     vdW  Elec       q    Type
                         _______ _______ _______ _____ _____    ______ ____

>  <TORSDO>
F 5

$$$$
