=
 OpenBabel11052412233D

 30 32  0  0  1  0  0  0  0  0999 V2000
  184.7410  178.6180  144.7620 C   0  0  0  0  0  0  0  0  0  0  0  0
  184.5630  178.9710  146.0620 N   0  0  0  0  0  0  0  0  0  0  0  0
  183.4270  178.9050  143.6290 Cl  0  0  0  0  0  0  0  0  0  0  0  0
  186.9740  177.8130  145.3080 C   0  0  0  0  0  0  0  0  0  0  0  0
  185.5240  178.7720  146.9970 C   0  0  0  0  0  3  0  0  0  0  0  0
  185.9520  178.0290  144.3480 C   0  0  0  0  0  0  0  0  0  0  0  0
  186.7370  178.1910  146.6390 C   0  0  0  0  0  3  0  0  0  0  0  0
  190.8930  176.8130  143.4120 C   0  0  0  0  0  3  0  0  0  0  0  0
  191.3300  177.2590  144.5870 C   0  0  0  0  0  3  0  0  0  0  0  0
  189.6710  175.9710  143.2800 C   0  0  0  0  0  2  0  0  0  0  0  0
  189.3160  177.0690  146.0240 C   0  0  0  0  0  3  0  0  0  0  0  0
  188.4580  176.7150  143.7270 C   0  0  0  0  0  3  0  0  0  0  0  0
  190.6500  177.0560  145.8880 C   0  0  0  0  0  0  0  0  0  0  0  0
  188.2860  177.2030  144.9630 C   0  0  0  0  0  0  0  0  0  0  0  0
  192.4730  174.9310  146.8000 O   0  0  0  0  0  0  0  0  0  0  0  0
  192.3550  175.9900  147.4720 C   0  0  0  0  0  0  0  0  0  0  0  0
  191.4210  177.0080  147.0950 N   0  0  0  0  0  2  0  0  0  0  0  0
  193.1250  176.1610  148.6140 O   0  0  0  0  0  1  0  0  0  0  0  0
  186.1020  177.5780  142.9270 C   0  0  0  0  0  2  0  0  0  0  0  0
  186.1220  179.0140  141.8160 S   0  0  0  0  0  0  0  0  0  0  0  0
  187.7740  178.5750  141.1880 C   0  0  0  0  0  2  0  0  0  0  0  0
  187.8410  178.5200  139.6510 C   0  0  2  0  0  3  0  0  0  0  0  0
  186.5770  178.3680  139.0770 O   0  0  0  0  0  1  0  0  0  0  0  0
  190.9600  176.3980  139.3900 C   0  0  0  0  0  2  0  0  0  0  0  0
  188.7880  177.5380  139.1060 N   0  0  0  0  0  0  0  0  0  0  0  0
  190.1570  176.9980  137.0800 C   0  0  2  0  0  3  0  0  0  0  0  0
  189.0080  177.8240  137.6810 C   0  0  0  0  0  2  0  0  0  0  0  0
  190.0640  177.5620  139.8280 C   0  0  0  0  0  2  0  0  0  0  0  0
  189.7380  176.4380  135.7370 C   0  0  0  0  0  1  0  0  0  0  0  0
  190.5900  175.8630  138.0040 C   0  0  0  0  0  2  0  0  0  0  0  0
  1  2  1  0  0  0  0
  2  5  2  0  0  0  0
  3  1  1  0  0  0  0
  4  7  2  0  0  0  0
  6  1  2  0  0  0  0
  6  4  1  0  0  0  0
  7  5  1  0  0  0  0
  8  9  2  0  0  0  0
  9 13  1  0  0  0  0
 10  8  1  0  0  0  0
 10 12  1  0  0  0  0
 12 14  2  0  0  0  0
 13 11  2  0  0  0  0
 13 17  1  0  0  0  0
 14  4  1  0  0  0  0
 14 11  1  0  0  0  0
 15 16  2  0  0  0  0
 16 18  1  0  0  0  0
 17 16  1  0  0  0  0
 19  6  1  0  0  0  0
 20 19  1  0  0  0  0
 21 20  1  0  0  0  0
 22 23  1  6  0  0  0
 22 21  1  0  0  0  0
 24 28  1  0  0  0  0
 25 22  1  0  0  0  0
 25 28  1  0  0  0  0
 26 29  1  6  0  0  0
 26 27  1  0  0  0  0
 26 30  1  0  0  0  0
 27 25  1  0  0  0  0
 30 24  1  0  0  0  0
M  END
>  <MODEL>
1

>  <REMARK>
 VINA RESULT:      -9.6      0.000      0.000
  Name = 
  7 active torsions:
  status: ('A' for Active; 'I' for Inactive)
    1  A    between atoms: S_1  and  C_4
    2  A    between atoms: S_1  and  C_5
    3  A    between atoms: C_4  and  C_27
    4  A    between atoms: C_5  and  C_22
    5  A    between atoms: N_8  and  C_27
    6  A    between atoms: N_16  and  C_25
    7  A    between atoms: C_19  and  C_29
                            x       y       z     vdW  Elec       q    Type
                         _______ _______ _______ _____ _____    ______ ____

>  <TORSDO>
F 7

$$$$
=
 OpenBabel11052412233D

 30 32  0  0  1  0  0  0  0  0999 V2000
  184.3390  178.6810  144.8290 C   0  0  0  0  0  0  0  0  0  0  0  0
  184.1510  178.8850  146.1590 N   0  0  0  0  0  0  0  0  0  0  0  0
  183.0360  179.1040  143.7260 Cl  0  0  0  0  0  0  0  0  0  0  0  0
  186.5640  177.8070  145.2970 C   0  0  0  0  0  0  0  0  0  0  0  0
  185.1030  178.5740  147.0730 C   0  0  0  0  0  3  0  0  0  0  0  0
  185.5510  178.1370  144.3610 C   0  0  0  0  0  0  0  0  0  0  0  0
  186.3170  178.0310  146.6610 C   0  0  0  0  0  3  0  0  0  0  0  0
  190.4440  176.9420  143.2590 C   0  0  0  0  0  3  0  0  0  0  0  0
  190.9060  177.3570  144.4360 C   0  0  0  0  0  3  0  0  0  0  0  0
  189.2330  176.0820  143.1340 C   0  0  0  0  0  2  0  0  0  0  0  0
  188.9370  177.0830  145.9220 C   0  0  0  0  0  3  0  0  0  0  0  0
  188.0200  176.7890  143.6390 C   0  0  0  0  0  3  0  0  0  0  0  0
  190.2670  177.0980  145.7480 C   0  0  0  0  0  0  0  0  0  0  0  0
  187.8750  177.2320  144.8960 C   0  0  0  0  0  0  0  0  0  0  0  0
  192.2680  175.0600  146.4630 O   0  0  0  0  0  0  0  0  0  0  0  0
  192.0900  176.0560  147.2120 C   0  0  0  0  0  0  0  0  0  0  0  0
  191.0730  177.0240  146.9310 N   0  0  0  0  0  2  0  0  0  0  0  0
  192.8770  176.2050  148.3460 O   0  0  0  0  0  1  0  0  0  0  0  0
  185.7110  177.8510  142.8990 C   0  0  0  0  0  2  0  0  0  0  0  0
  185.8170  179.4060  141.9670 S   0  0  0  0  0  0  0  0  0  0  0  0
  186.1670  178.5170  140.4160 C   0  0  0  0  0  2  0  0  0  0  0  0
  187.6610  178.1950  140.2280 C   0  0  2  0  0  3  0  0  0  0  0  0
  188.4740  178.9840  141.0460 O   0  0  0  0  0  1  0  0  0  0  0  0
  187.5080  178.4580  136.4590 C   0  0  0  0  0  2  0  0  0  0  0  0
  188.1310  178.2210  138.8360 N   0  0  0  0  0  0  0  0  0  0  0  0
  189.3460  176.8670  137.1150 C   0  0  2  0  0  3  0  0  0  0  0  0
  188.9950  177.0550  138.6000 C   0  0  0  0  0  2  0  0  0  0  0  0
  187.0120  178.2200  137.8900 C   0  0  0  0  0  2  0  0  0  0  0  0
  190.8230  176.5650  136.9730 C   0  0  0  0  0  1  0  0  0  0  0  0
  188.9850  178.0950  136.2830 C   0  0  0  0  0  2  0  0  0  0  0  0
  1  2  1  0  0  0  0
  2  5  2  0  0  0  0
  3  1  1  0  0  0  0
  4  7  2  0  0  0  0
  6  1  2  0  0  0  0
  6  4  1  0  0  0  0
  7  5  1  0  0  0  0
  8  9  2  0  0  0  0
  9 13  1  0  0  0  0
 10  8  1  0  0  0  0
 10 12  1  0  0  0  0
 12 14  2  0  0  0  0
 13 11  2  0  0  0  0
 13 17  1  0  0  0  0
 14  4  1  0  0  0  0
 14 11  1  0  0  0  0
 15 16  2  0  0  0  0
 16 18  1  0  0  0  0
 17 16  1  0  0  0  0
 19  6  1  0  0  0  0
 20 19  1  0  0  0  0
 21 20  1  0  0  0  0
 22 21  1  0  0  0  0
 22 23  1  1  0  0  0
 24 28  1  0  0  0  0
 25 22  1  0  0  0  0
 26 29  1  1  0  0  0
 26 27  1  0  0  0  0
 27 25  1  0  0  0  0
 28 25  1  0  0  0  0
 30 24  1  0  0  0  0
 30 26  1  0  0  0  0
M  END
>  <MODEL>
2

>  <REMARK>
 VINA RESULT:      -9.6      0.985      1.526
  Name = 
  7 active torsions:
  status: ('A' for Active; 'I' for Inactive)
    1  A    between atoms: S_1  and  C_4
    2  A    between atoms: S_1  and  C_5
    3  A    between atoms: C_4  and  C_27
    4  A    between atoms: C_5  and  C_22
    5  A    between atoms: N_8  and  C_27
    6  A    between atoms: N_16  and  C_25
    7  A    between atoms: C_19  and  C_29
                            x       y       z     vdW  Elec       q    Type
                         _______ _______ _______ _____ _____    ______ ____

>  <TORSDO>
F 7

$$$$
=
 OpenBabel11052412233D

 30 32  0  0  1  0  0  0  0  0999 V2000
  184.3230  178.6590  144.7150 C   0  0  0  0  0  0  0  0  0  0  0  0
  184.1300  178.8630  146.0450 N   0  0  0  0  0  0  0  0  0  0  0  0
  183.0180  179.0650  143.6080 Cl  0  0  0  0  0  0  0  0  0  0  0  0
  186.5570  177.8130  145.1900 C   0  0  0  0  0  0  0  0  0  0  0  0
  185.0830  178.5650  146.9620 C   0  0  0  0  0  3  0  0  0  0  0  0
  185.5430  178.1290  144.2510 C   0  0  0  0  0  0  0  0  0  0  0  0
  186.3040  178.0370  146.5530 C   0  0  0  0  0  3  0  0  0  0  0  0
  190.4680  177.0130  143.1860 C   0  0  0  0  0  3  0  0  0  0  0  0
  190.9120  177.4010  144.3790 C   0  0  0  0  0  3  0  0  0  0  0  0
  189.2630  176.1510  143.0230 C   0  0  0  0  0  2  0  0  0  0  0  0
  188.9250  177.0830  145.8300 C   0  0  0  0  0  3  0  0  0  0  0  0
  188.0400  176.8410  143.5280 C   0  0  0  0  0  3  0  0  0  0  0  0
  190.2570  177.1080  145.6750 C   0  0  0  0  0  0  0  0  0  0  0  0
  187.8760  177.2530  144.7930 C   0  0  0  0  0  0  0  0  0  0  0  0
  192.2700  175.0720  146.3590 O   0  0  0  0  0  0  0  0  0  0  0  0
  192.0710  176.0440  147.1350 C   0  0  0  0  0  0  0  0  0  0  0  0
  191.0470  177.0090  146.8660 N   0  0  0  0  0  2  0  0  0  0  0  0
  192.8400  176.1690  148.2830 O   0  0  0  0  0  1  0  0  0  0  0  0
  185.7100  177.8420  142.7890 C   0  0  0  0  0  2  0  0  0  0  0  0
  185.8380  179.3970  141.8600 S   0  0  0  0  0  0  0  0  0  0  0  0
  185.8440  178.5090  140.2690 C   0  0  0  0  0  2  0  0  0  0  0  0
  184.6290  178.8440  139.3850 C   0  0  2  0  0  3  0  0  0  0  0  0
  184.5320  180.2140  139.1270 O   0  0  0  0  0  1  0  0  0  0  0  0
  181.7140  176.4610  139.7230 C   0  0  0  0  0  2  0  0  0  0  0  0
  183.3470  178.3060  139.8610 N   0  0  0  0  0  0  0  0  0  0  0  0
  180.9030  178.8260  140.0220 C   0  0  2  0  0  3  0  0  0  0  0  0
  182.3230  179.3570  139.7690 C   0  0  0  0  0  2  0  0  0  0  0  0
  182.9360  177.1320  139.0860 C   0  0  0  0  0  2  0  0  0  0  0  0
  180.1630  179.7660  140.9490 C   0  0  0  0  0  1  0  0  0  0  0  0
  180.9170  177.4180  140.6130 C   0  0  0  0  0  2  0  0  0  0  0  0
  1  2  1  0  0  0  0
  2  5  2  0  0  0  0
  3  1  1  0  0  0  0
  4  7  2  0  0  0  0
  6  1  2  0  0  0  0
  6  4  1  0  0  0  0
  7  5  1  0  0  0  0
  8  9  2  0  0  0  0
  9 13  1  0  0  0  0
 10  8  1  0  0  0  0
 10 12  1  0  0  0  0
 12 14  2  0  0  0  0
 13 11  2  0  0  0  0
 13 17  1  0  0  0  0
 14  4  1  0  0  0  0
 14 11  1  0  0  0  0
 15 16  2  0  0  0  0
 16 18  1  0  0  0  0
 17 16  1  0  0  0  0
 19  6  1  0  0  0  0
 20 19  1  0  0  0  0
 21 20  1  0  0  0  0
 22 23  1  1  0  0  0
 22 25  1  0  0  0  0
 22 21  1  0  0  0  0
 24 30  1  0  0  0  0
 26 30  1  0  0  0  0
 26 29  1  1  0  0  0
 27 25  1  0  0  0  0
 27 26  1  0  0  0  0
 28 24  1  0  0  0  0
 28 25  1  0  0  0  0
M  END
>  <MODEL>
3

>  <REMARK>
 VINA RESULT:      -9.5      2.868      4.384
  Name = 
  7 active torsions:
  status: ('A' for Active; 'I' for Inactive)
    1  A    between atoms: S_1  and  C_4
    2  A    between atoms: S_1  and  C_5
    3  A    between atoms: C_4  and  C_27
    4  A    between atoms: C_5  and  C_22
    5  A    between atoms: N_8  and  C_27
    6  A    between atoms: N_16  and  C_25
    7  A    between atoms: C_19  and  C_29
                            x       y       z     vdW  Elec       q    Type
                         _______ _______ _______ _____ _____    ______ ____

>  <TORSDO>
F 7

$$$$
=
 OpenBabel11052412233D

 30 32  0  0  1  0  0  0  0  0999 V2000
  189.9860  177.0290  146.4180 C   0  0  0  0  0  0  0  0  0  0  0  0
  189.9890  177.3740  147.7330 N   0  0  0  0  0  0  0  0  0  0  0  0
  191.4450  176.3230  145.7350 Cl  0  0  0  0  0  0  0  0  0  0  0  0
  187.6920  177.8250  146.2350 C   0  0  0  0  0  0  0  0  0  0  0  0
  188.9080  177.9330  148.3290 C   0  0  0  0  0  3  0  0  0  0  0  0
  188.8370  177.2450  145.6330 C   0  0  0  0  0  0  0  0  0  0  0  0
  187.7490  178.1680  147.5950 C   0  0  0  0  0  3  0  0  0  0  0  0
  183.8560  179.5490  144.7280 C   0  0  0  0  0  3  0  0  0  0  0  0
  184.6190  179.7490  143.6550 C   0  0  0  0  0  3  0  0  0  0  0  0
  183.9400  178.3080  145.5480 C   0  0  0  0  0  2  0  0  0  0  0  0
  186.4800  178.1450  144.0040 C   0  0  0  0  0  3  0  0  0  0  0  0
  185.2860  178.1710  146.1750 C   0  0  0  0  0  3  0  0  0  0  0  0
  185.6810  178.8340  143.1760 C   0  0  0  0  0  0  0  0  0  0  0  0
  186.4330  178.0860  145.4870 C   0  0  0  0  0  0  0  0  0  0  0  0
  183.8500  178.5270  140.8910 O   0  0  0  0  0  1  0  0  0  0  0  0
  185.0800  178.7110  140.6900 C   0  0  0  0  0  0  0  0  0  0  0  0
  186.0050  178.7880  141.7810 N   0  0  0  0  0  2  0  0  0  0  0  0
  185.5510  178.8140  139.3890 O   0  0  0  0  0  0  0  0  0  0  0  0
  188.8770  176.9270  144.1690 C   0  0  0  0  0  2  0  0  0  0  0  0
  189.9080  178.1400  143.2960 S   0  0  0  0  0  0  0  0  0  0  0  0
  189.3730  177.5100  141.6730 C   0  0  0  0  0  2  0  0  0  0  0  0
  190.5190  176.8790  140.8620 C   0  0  2  0  0  3  0  0  0  0  0  0
  191.7480  177.4860  141.1320 O   0  0  0  0  0  1  0  0  0  0  0  0
  191.2550  176.3250  137.1940 C   0  0  0  0  0  2  0  0  0  0  0  0
  190.2820  176.7950  139.4140 N   0  0  0  0  0  0  0  0  0  0  0  0
  189.5150  178.1290  137.4380 C   0  0  2  0  0  3  0  0  0  0  0  0
  189.5970  178.0190  138.9690 C   0  0  0  0  0  2  0  0  0  0  0  0
  191.5340  176.6200  138.6720 C   0  0  0  0  0  2  0  0  0  0  0  0
  188.1220  178.5590  137.0300 C   0  0  0  0  0  1  0  0  0  0  0  0
  189.8740  176.8140  136.7500 C   0  0  0  0  0  2  0  0  0  0  0  0
  1  2  1  0  0  0  0
  2  5  2  0  0  0  0
  3  1  1  0  0  0  0
  4  7  2  0  0  0  0
  6  4  1  0  0  0  0
  6  1  2  0  0  0  0
  7  5  1  0  0  0  0
  8 10  1  0  0  0  0
  9  8  2  0  0  0  0
 10 12  1  0  0  0  0
 11 14  1  0  0  0  0
 13  9  1  0  0  0  0
 13 11  2  0  0  0  0
 14 12  2  0  0  0  0
 14  4  1  0  0  0  0
 16 15  1  0  0  0  0
 16 17  1  0  0  0  0
 17 13  1  0  0  0  0
 18 16  2  0  0  0  0
 19  6  1  0  0  0  0
 20 19  1  0  0  0  0
 21 20  1  0  0  0  0
 22 23  1  6  0  0  0
 22 21  1  0  0  0  0
 24 28  1  0  0  0  0
 25 22  1  0  0  0  0
 26 29  1  1  0  0  0
 26 27  1  0  0  0  0
 27 25  1  0  0  0  0
 28 25  1  0  0  0  0
 30 24  1  0  0  0  0
 30 26  1  0  0  0  0
M  END
>  <MODEL>
4

>  <REMARK>
 VINA RESULT:      -9.3      2.944      5.588
  Name = 
  7 active torsions:
  status: ('A' for Active; 'I' for Inactive)
    1  A    between atoms: S_1  and  C_4
    2  A    between atoms: S_1  and  C_5
    3  A    between atoms: C_4  and  C_27
    4  A    between atoms: C_5  and  C_22
    5  A    between atoms: N_8  and  C_27
    6  A    between atoms: N_16  and  C_25
    7  A    between atoms: C_19  and  C_29
                            x       y       z     vdW  Elec       q    Type
                         _______ _______ _______ _____ _____    ______ ____

>  <TORSDO>
F 7

$$$$
=
 OpenBabel11052412233D

 30 32  0  0  1  0  0  0  0  0999 V2000
  184.4300  178.6590  144.8310 C   0  0  0  0  0  0  0  0  0  0  0  0
  184.2900  178.8850  146.1630 N   0  0  0  0  0  0  0  0  0  0  0  0
  183.0660  179.0050  143.7760 Cl  0  0  0  0  0  0  0  0  0  0  0  0
  186.7060  177.8840  145.2210 C   0  0  0  0  0  0  0  0  0  0  0  0
  185.2910  178.6320  147.0420 C   0  0  0  0  0  3  0  0  0  0  0  0
  185.6420  178.1520  144.3220 C   0  0  0  0  0  0  0  0  0  0  0  0
  186.5080  178.1290  146.5890 C   0  0  0  0  0  3  0  0  0  0  0  0
  190.5930  177.2140  143.1240 C   0  0  0  0  0  3  0  0  0  0  0  0
  191.0520  177.5350  144.3310 C   0  0  0  0  0  3  0  0  0  0  0  0
  189.3880  176.3590  142.9280 C   0  0  0  0  0  2  0  0  0  0  0  0
  189.0840  177.1280  145.7880 C   0  0  0  0  0  3  0  0  0  0  0  0
  188.1700  177.0130  143.4870 C   0  0  0  0  0  3  0  0  0  0  0  0
  190.4140  177.1670  145.6160 C   0  0  0  0  0  0  0  0  0  0  0  0
  188.0210  177.3530  144.7760 C   0  0  0  0  0  0  0  0  0  0  0  0
  192.2370  174.9510  146.2790 O   0  0  0  0  0  0  0  0  0  0  0  0
  192.1520  175.9460  147.0460 C   0  0  0  0  0  0  0  0  0  0  0  0
  191.2200  177.0030  146.7910 N   0  0  0  0  0  2  0  0  0  0  0  0
  192.9570  176.0070  148.1750 O   0  0  0  0  0  1  0  0  0  0  0  0
  185.7520  177.8400  142.8610 C   0  0  0  0  0  2  0  0  0  0  0  0
  185.7830  179.3770  141.8950 S   0  0  0  0  0  0  0  0  0  0  0  0
  184.5830  178.7140  140.6970 C   0  0  0  0  0  2  0  0  0  0  0  0
  184.7880  179.2570  139.2710 C   0  0  2  0  0  3  0  0  0  0  0  0
  184.1800  180.5020  139.0930 O   0  0  0  0  0  1  0  0  0  0  0  0
  182.9910  176.4290  137.5180 C   0  0  0  0  0  2  0  0  0  0  0  0
  184.4140  178.3310  138.1940 N   0  0  0  0  0  0  0  0  0  0  0  0
  185.3430  176.6050  136.6350 C   0  0  2  0  0  3  0  0  0  0  0  0
  185.6350  177.7580  137.6090 C   0  0  0  0  0  2  0  0  0  0  0  0
  183.5390  177.2610  138.6840 C   0  0  0  0  0  2  0  0  0  0  0  0
  186.1800  176.7660  135.3850 C   0  0  0  0  0  1  0  0  0  0  0  0
  183.8640  176.5310  136.2650 C   0  0  0  0  0  2  0  0  0  0  0  0
  1  2  1  0  0  0  0
  2  5  2  0  0  0  0
  3  1  1  0  0  0  0
  4  7  2  0  0  0  0
  6  1  2  0  0  0  0
  6  4  1  0  0  0  0
  7  5  1  0  0  0  0
  8  9  2  0  0  0  0
  9 13  1  0  0  0  0
 10  8  1  0  0  0  0
 10 12  1  0  0  0  0
 12 14  2  0  0  0  0
 13 11  2  0  0  0  0
 13 17  1  0  0  0  0
 14  4  1  0  0  0  0
 14 11  1  0  0  0  0
 15 16  2  0  0  0  0
 16 18  1  0  0  0  0
 17 16  1  0  0  0  0
 19  6  1  0  0  0  0
 20 19  1  0  0  0  0
 21 20  1  0  0  0  0
 22 23  1  1  0  0  0
 22 21  1  0  0  0  0
 24 28  1  0  0  0  0
 25 28  1  0  0  0  0
 25 22  1  0  0  0  0
 26 29  1  6  0  0  0
 26 27  1  0  0  0  0
 27 25  1  0  0  0  0
 30 26  1  0  0  0  0
 30 24  1  0  0  0  0
M  END
>  <MODEL>
5

>  <REMARK>
 VINA RESULT:      -9.2      2.417      2.958
  Name = 
  7 active torsions:
  status: ('A' for Active; 'I' for Inactive)
    1  A    between atoms: S_1  and  C_4
    2  A    between atoms: S_1  and  C_5
    3  A    between atoms: C_4  and  C_27
    4  A    between atoms: C_5  and  C_22
    5  A    between atoms: N_8  and  C_27
    6  A    between atoms: N_16  and  C_25
    7  A    between atoms: C_19  and  C_29
                            x       y       z     vdW  Elec       q    Type
                         _______ _______ _______ _____ _____    ______ ____

>  <TORSDO>
F 7

$$$$
=
 OpenBabel11052412233D

 30 32  0  0  1  0  0  0  0  0999 V2000
  184.7350  178.2570  143.3050 C   0  0  0  0  0  0  0  0  0  0  0  0
  183.7410  178.6240  144.1560 N   0  0  0  0  0  0  0  0  0  0  0  0
  184.3390  178.0290  141.6060 Cl  0  0  0  0  0  0  0  0  0  0  0  0
  186.3020  178.2520  145.1690 C   0  0  0  0  0  0  0  0  0  0  0  0
  183.9640  178.8080  145.4810 C   0  0  0  0  0  3  0  0  0  0  0  0
  186.0440  178.0610  143.7880 C   0  0  0  0  0  0  0  0  0  0  0  0
  185.2400  178.6240  146.0070 C   0  0  0  0  0  3  0  0  0  0  0  0
  189.8740  176.6820  147.3450 C   0  0  0  0  0  3  0  0  0  0  0  0
  190.3420  176.6350  146.1000 C   0  0  0  0  0  3  0  0  0  0  0  0
  189.0310  177.8070  147.8400 C   0  0  0  0  0  2  0  0  0  0  0  0
  188.8460  178.2070  144.8960 C   0  0  0  0  0  3  0  0  0  0  0  0
  187.7430  177.8810  147.0910 C   0  0  0  0  0  3  0  0  0  0  0  0
  190.0440  177.6200  145.0340 C   0  0  0  0  0  0  0  0  0  0  0  0
  187.6520  178.0720  145.7670 C   0  0  0  0  0  0  0  0  0  0  0  0
  190.5800  175.9690  142.6560 O   0  0  0  0  0  1  0  0  0  0  0  0
  191.1820  177.0640  142.8090 C   0  0  0  0  0  0  0  0  0  0  0  0
  191.0000  177.8520  143.9910 N   0  0  0  0  0  2  0  0  0  0  0  0
  192.0600  177.5020  141.8280 O   0  0  0  0  0  0  0  0  0  0  0  0
  187.1090  177.5850  142.8480 C   0  0  0  0  0  2  0  0  0  0  0  0
  187.5950  178.9270  141.7250 S   0  0  0  0  0  0  0  0  0  0  0  0
  188.3830  177.7540  140.5760 C   0  0  0  0  0  2  0  0  0  0  0  0
  188.3830  178.2440  139.1160 C   0  0  2  0  0  3  0  0  0  0  0  0
  187.0890  178.3660  138.6050 O   0  0  0  0  0  1  0  0  0  0  0  0
  189.3580  175.6590  136.5350 C   0  0  0  0  0  2  0  0  0  0  0  0
  189.2400  177.4750  138.2030 N   0  0  0  0  0  0  0  0  0  0  0  0
  191.2730  176.0160  138.1300 C   0  0  2  0  0  3  0  0  0  0  0  0
  190.4330  177.0220  138.9330 C   0  0  0  0  0  2  0  0  0  0  0  0
  188.5270  176.3250  137.6380 C   0  0  0  0  0  2  0  0  0  0  0  0
  192.7400  176.3770  138.2320 C   0  0  0  0  0  1  0  0  0  0  0  0
  190.8530  175.9620  136.6630 C   0  0  0  0  0  2  0  0  0  0  0  0
  1  6  2  0  0  0  0
  1  2  1  0  0  0  0
  2  5  2  0  0  0  0
  3  1  1  0  0  0  0
  4 14  1  0  0  0  0
  4  7  2  0  0  0  0
  5  7  1  0  0  0  0
  6  4  1  0  0  0  0
  8 10  1  0  0  0  0
  9  8  2  0  0  0  0
 11 13  2  0  0  0  0
 11 14  1  0  0  0  0
 12 10  1  0  0  0  0
 13  9  1  0  0  0  0
 14 12  2  0  0  0  0
 15 16  1  0  0  0  0
 16 17  1  0  0  0  0
 17 13  1  0  0  0  0
 18 16  2  0  0  0  0
 19  6  1  0  0  0  0
 20 19  1  0  0  0  0
 21 20  1  0  0  0  0
 22 23  1  6  0  0  0
 22 21  1  0  0  0  0
 24 30  1  0  0  0  0
 24 28  1  0  0  0  0
 25 27  1  0  0  0  0
 25 22  1  0  0  0  0
 26 29  1  6  0  0  0
 26 27  1  0  0  0  0
 28 25  1  0  0  0  0
 30 26  1  0  0  0  0
M  END
>  <MODEL>
6

>  <REMARK>
 VINA RESULT:      -9.2      2.023      2.840
  Name = 
  7 active torsions:
  status: ('A' for Active; 'I' for Inactive)
    1  A    between atoms: S_1  and  C_4
    2  A    between atoms: S_1  and  C_5
    3  A    between atoms: C_4  and  C_27
    4  A    between atoms: C_5  and  C_22
    5  A    between atoms: N_8  and  C_27
    6  A    between atoms: N_16  and  C_25
    7  A    between atoms: C_19  and  C_29
                            x       y       z     vdW  Elec       q    Type
                         _______ _______ _______ _____ _____    ______ ____

>  <TORSDO>
F 7

$$$$
=
 OpenBabel11052412233D

 30 32  0  0  1  0  0  0  0  0999 V2000
  191.0660  177.3950  144.1260 C   0  0  0  0  0  0  0  0  0  0  0  0
  191.6870  176.9400  145.2460 N   0  0  0  0  0  0  0  0  0  0  0  0
  192.0260  177.6220  142.6700 Cl  0  0  0  0  0  0  0  0  0  0  0  0
  188.9650  177.4880  145.3540 C   0  0  0  0  0  0  0  0  0  0  0  0
  191.0190  176.7510  146.4100 C   0  0  0  0  0  3  0  0  0  0  0  0
  189.6870  177.6810  144.1490 C   0  0  0  0  0  0  0  0  0  0  0  0
  189.6550  177.0220  146.4840 C   0  0  0  0  0  3  0  0  0  0  0  0
  184.9800  179.3500  146.1340 C   0  0  0  0  0  3  0  0  0  0  0  0
  184.9340  179.2920  144.8050 C   0  0  0  0  0  3  0  0  0  0  0  0
  185.5580  178.2550  146.9630 C   0  0  0  0  0  2  0  0  0  0  0  0
  186.6450  177.5740  144.2760 C   0  0  0  0  0  3  0  0  0  0  0  0
  187.0110  178.0770  146.6750 C   0  0  0  0  0  3  0  0  0  0  0  0
  185.4990  178.2020  143.9750 C   0  0  0  0  0  0  0  0  0  0  0  0
  187.5070  177.7590  145.4710 C   0  0  0  0  0  0  0  0  0  0  0  0
  185.6630  179.7530  141.4780 O   0  0  0  0  0  1  0  0  0  0  0  0
  185.0740  178.6400  141.4890 C   0  0  0  0  0  0  0  0  0  0  0  0
  184.9120  177.8980  142.7030 N   0  0  0  0  0  2  0  0  0  0  0  0
  184.5490  178.1340  140.3070 O   0  0  0  0  0  0  0  0  0  0  0  0
  189.0350  178.2520  142.9260 C   0  0  0  0  0  2  0  0  0  0  0  0
  188.9750  177.0020  141.6100 S   0  0  0  0  0  0  0  0  0  0  0  0
  188.5270  178.2540  140.3660 C   0  0  0  0  0  2  0  0  0  0  0  0
  189.4260  178.2140  139.1170 C   0  0  2  0  0  3  0  0  0  0  0  0
  189.0550  179.1760  138.1740 O   0  0  0  0  0  1  0  0  0  0  0  0
  191.0150  175.3650  137.2060 C   0  0  0  0  0  2  0  0  0  0  0  0
  189.5630  176.8910  138.4920 N   0  0  0  0  0  0  0  0  0  0  0  0
  188.5320  175.3750  136.7860 C   0  0  2  0  0  3  0  0  0  0  0  0
  188.3770  176.6280  137.6630 C   0  0  0  0  0  2  0  0  0  0  0  0
  190.7780  176.8040  137.6770 C   0  0  0  0  0  2  0  0  0  0  0  0
  187.2690  174.5440  136.8530 C   0  0  0  0  0  1  0  0  0  0  0  0
  189.7330  174.5290  137.2050 C   0  0  0  0  0  2  0  0  0  0  0  0
  1  6  2  0  0  0  0
  1  2  1  0  0  0  0
  2  5  2  0  0  0  0
  3  1  1  0  0  0  0
  4 14  1  0  0  0  0
  4  7  2  0  0  0  0
  5  7  1  0  0  0  0
  6  4  1  0  0  0  0
  8 10  1  0  0  0  0
  9  8  2  0  0  0  0
 11 14  1  0  0  0  0
 12 10  1  0  0  0  0
 13 11  2  0  0  0  0
 13  9  1  0  0  0  0
 14 12  2  0  0  0  0
 15 16  1  0  0  0  0
 16 17  1  0  0  0  0
 17 13  1  0  0  0  0
 18 16  2  0  0  0  0
 19  6  1  0  0  0  0
 20 19  1  0  0  0  0
 21 20  1  0  0  0  0
 22 23  1  6  0  0  0
 22 21  1  0  0  0  0
 24 28  1  0  0  0  0
 25 22  1  0  0  0  0
 26 29  1  1  0  0  0
 26 30  1  0  0  0  0
 26 27  1  0  0  0  0
 27 25  1  0  0  0  0
 28 25  1  0  0  0  0
 30 24  1  0  0  0  0
M  END
>  <MODEL>
7

>  <REMARK>
 VINA RESULT:      -9.1      3.461      5.453
  Name = 
  7 active torsions:
  status: ('A' for Active; 'I' for Inactive)
    1  A    between atoms: S_1  and  C_4
    2  A    between atoms: S_1  and  C_5
    3  A    between atoms: C_4  and  C_27
    4  A    between atoms: C_5  and  C_22
    5  A    between atoms: N_8  and  C_27
    6  A    between atoms: N_16  and  C_25
    7  A    between atoms: C_19  and  C_29
                            x       y       z     vdW  Elec       q    Type
                         _______ _______ _______ _____ _____    ______ ____

>  <TORSDO>
F 7

$$$$
=
 OpenBabel11052412233D

 30 32  0  0  1  0  0  0  0  0999 V2000
  184.6030  178.2530  143.0570 C   0  0  0  0  0  0  0  0  0  0  0  0
  183.5390  178.7060  143.7720 N   0  0  0  0  0  0  0  0  0  0  0  0
  184.3730  177.8980  141.3490 Cl  0  0  0  0  0  0  0  0  0  0  0  0
  185.9750  178.3650  145.0660 C   0  0  0  0  0  0  0  0  0  0  0  0
  183.6330  178.9900  145.0940 C   0  0  0  0  0  3  0  0  0  0  0  0
  185.8510  178.0710  143.6840 C   0  0  0  0  0  0  0  0  0  0  0  0
  184.8450  178.8240  145.7590 C   0  0  0  0  0  3  0  0  0  0  0  0
  189.2640  176.9100  147.7160 C   0  0  0  0  0  3  0  0  0  0  0  0
  189.8500  176.7430  146.5330 C   0  0  0  0  0  3  0  0  0  0  0  0
  188.4120  178.0930  148.0260 C   0  0  0  0  0  2  0  0  0  0  0  0
  188.5310  178.2380  145.0550 C   0  0  0  0  0  3  0  0  0  0  0  0
  187.2080  178.1310  147.1470 C   0  0  0  0  0  3  0  0  0  0  0  0
  189.6910  177.6380  145.3630 C   0  0  0  0  0  0  0  0  0  0  0  0
  187.2530  178.2070  145.8100 C   0  0  0  0  0  0  0  0  0  0  0  0
  190.5270  175.6860  143.3240 O   0  0  0  0  0  1  0  0  0  0  0  0
  191.0830  176.8150  143.3790 C   0  0  0  0  0  0  0  0  0  0  0  0
  190.7510  177.7560  144.4060 N   0  0  0  0  0  2  0  0  0  0  0  0
  192.0550  177.1420  142.4440 O   0  0  0  0  0  0  0  0  0  0  0  0
  186.9920  177.5010  142.8970 C   0  0  0  0  0  2  0  0  0  0  0  0
  187.4430  178.6290  141.5470 S   0  0  0  0  0  0  0  0  0  0  0  0
  188.7000  177.4680  140.9230 C   0  0  0  0  0  2  0  0  0  0  0  0
  189.0340  177.6800  139.4350 C   0  0  2  0  0  3  0  0  0  0  0  0
  188.9130  179.0190  139.0570 O   0  0  0  0  0  1  0  0  0  0  0  0
  188.4720  175.0020  136.8250 C   0  0  0  0  0  2  0  0  0  0  0  0
  188.3080  176.8030  138.5060 N   0  0  0  0  0  0  0  0  0  0  0  0
  186.7630  176.8280  136.5360 C   0  0  2  0  0  3  0  0  0  0  0  0
  187.3930  177.6190  137.6930 C   0  0  0  0  0  2  0  0  0  0  0  0
  189.2270  176.0600  137.6380 C   0  0  0  0  0  2  0  0  0  0  0  0
  185.2810  177.1270  136.4590 C   0  0  0  0  0  1  0  0  0  0  0  0
  186.9830  175.3240  136.6830 C   0  0  0  0  0  2  0  0  0  0  0  0
  1  6  2  0  0  0  0
  1  2  1  0  0  0  0
  2  5  2  0  0  0  0
  3  1  1  0  0  0  0
  4  7  2  0  0  0  0
  4 14  1  0  0  0  0
  5  7  1  0  0  0  0
  6  4  1  0  0  0  0
  8 10  1  0  0  0  0
  9  8  2  0  0  0  0
 11 13  2  0  0  0  0
 11 14  1  0  0  0  0
 12 10  1  0  0  0  0
 13  9  1  0  0  0  0
 14 12  2  0  0  0  0
 15 16  1  0  0  0  0
 16 17  1  0  0  0  0
 17 13  1  0  0  0  0
 18 16  2  0  0  0  0
 19  6  1  0  0  0  0
 20 19  1  0  0  0  0
 21 20  1  0  0  0  0
 22 23  1  6  0  0  0
 22 21  1  0  0  0  0
 24 28  1  0  0  0  0
 25 22  1  0  0  0  0
 26 29  1  1  0  0  0
 26 30  1  0  0  0  0
 26 27  1  0  0  0  0
 27 25  1  0  0  0  0
 28 25  1  0  0  0  0
 30 24  1  0  0  0  0
M  END
>  <MODEL>
8

>  <REMARK>
 VINA RESULT:      -9.1      2.125      3.054
  Name = 
  7 active torsions:
  status: ('A' for Active; 'I' for Inactive)
    1  A    between atoms: S_1  and  C_4
    2  A    between atoms: S_1  and  C_5
    3  A    between atoms: C_4  and  C_27
    4  A    between atoms: C_5  and  C_22
    5  A    between atoms: N_8  and  C_27
    6  A    between atoms: N_16  and  C_25
    7  A    between atoms: C_19  and  C_29
                            x       y       z     vdW  Elec       q    Type
                         _______ _______ _______ _____ _____    ______ ____

>  <TORSDO>
F 7

$$$$
=
 OpenBabel11052412233D

 30 32  0  0  1  0  0  0  0  0999 V2000
  190.6510  176.6420  144.6290 C   0  0  0  0  0  0  0  0  0  0  0  0
  191.2180  176.7680  145.8570 N   0  0  0  0  0  0  0  0  0  0  0  0
  191.6630  176.1150  143.2910 Cl  0  0  0  0  0  0  0  0  0  0  0  0
  188.5200  177.3660  145.5590 C   0  0  0  0  0  0  0  0  0  0  0  0
  190.5070  177.1810  146.9360 C   0  0  0  0  0  3  0  0  0  0  0  0
  189.2860  176.9370  144.4460 C   0  0  0  0  0  0  0  0  0  0  0  0
  189.1550  177.4860  146.8050 C   0  0  0  0  0  3  0  0  0  0  0  0
  184.5370  179.3790  145.7720 C   0  0  0  0  0  3  0  0  0  0  0  0
  184.6910  179.3430  144.4500 C   0  0  0  0  0  3  0  0  0  0  0  0
  184.9420  178.2500  146.6550 C   0  0  0  0  0  2  0  0  0  0  0  0
  186.3940  177.5640  144.1480 C   0  0  0  0  0  3  0  0  0  0  0  0
  186.4140  178.0150  146.5850 C   0  0  0  0  0  3  0  0  0  0  0  0
  185.3320  178.2430  143.6920 C   0  0  0  0  0  0  0  0  0  0  0  0
  187.0730  177.6950  145.4620 C   0  0  0  0  0  0  0  0  0  0  0  0
  186.0320  179.7530  141.2630 O   0  0  0  0  0  1  0  0  0  0  0  0
  185.3520  178.6970  141.1720 C   0  0  0  0  0  0  0  0  0  0  0  0
  184.9320  177.9820  142.3400 N   0  0  0  0  0  2  0  0  0  0  0  0
  184.9810  178.2310  139.9190 O   0  0  0  0  0  0  0  0  0  0  0  0
  188.6970  176.8630  143.0700 C   0  0  0  0  0  2  0  0  0  0  0  0
  189.2280  178.2940  142.0860 S   0  0  0  0  0  0  0  0  0  0  0  0
  188.7390  177.4780  140.5330 C   0  0  0  0  0  2  0  0  0  0  0  0
  189.2760  178.1920  139.2800 C   0  0  2  0  0  3  0  0  0  0  0  0
  188.3060  178.9980  138.6800 O   0  0  0  0  0  1  0  0  0  0  0  0
  189.6150  175.4480  136.7000 C   0  0  0  0  0  2  0  0  0  0  0  0
  189.9140  177.3120  138.2900 N   0  0  0  0  0  0  0  0  0  0  0  0
  191.7630  175.6490  137.9990 C   0  0  2  0  0  3  0  0  0  0  0  0
  191.1480  176.7590  138.8670 C   0  0  0  0  0  2  0  0  0  0  0  0
  189.0190  176.2270  137.8780 C   0  0  0  0  0  2  0  0  0  0  0  0
  193.2570  175.8580  137.8820 C   0  0  0  0  0  1  0  0  0  0  0  0
  191.1350  175.5970  136.6080 C   0  0  0  0  0  2  0  0  0  0  0  0
  1  2  1  0  0  0  0
  2  5  2  0  0  0  0
  3  1  1  0  0  0  0
  4  7  2  0  0  0  0
  6  1  2  0  0  0  0
  6  4  1  0  0  0  0
  7  5  1  0  0  0  0
  8 10  1  0  0  0  0
  9  8  2  0  0  0  0
 11 14  1  0  0  0  0
 12 10  1  0  0  0  0
 13 11  2  0  0  0  0
 13  9  1  0  0  0  0
 14  4  1  0  0  0  0
 14 12  2  0  0  0  0
 16 15  1  0  0  0  0
 16 17  1  0  0  0  0
 17 13  1  0  0  0  0
 18 16  2  0  0  0  0
 19  6  1  0  0  0  0
 20 19  1  0  0  0  0
 21 20  1  0  0  0  0
 22 23  1  6  0  0  0
 22 21  1  0  0  0  0
 24 28  1  0  0  0  0
 25 27  1  0  0  0  0
 25 22  1  0  0  0  0
 26 29  1  6  0  0  0
 26 27  1  0  0  0  0
 28 25  1  0  0  0  0
 30 24  1  0  0  0  0
 30 26  1  0  0  0  0
M  END
>  <MODEL>
9

>  <REMARK>
 VINA RESULT:      -9.1      3.422      5.462
  Name = 
  7 active torsions:
  status: ('A' for Active; 'I' for Inactive)
    1  A    between atoms: S_1  and  C_4
    2  A    between atoms: S_1  and  C_5
    3  A    between atoms: C_4  and  C_27
    4  A    between atoms: C_5  and  C_22
    5  A    between atoms: N_8  and  C_27
    6  A    between atoms: N_16  and  C_25
    7  A    between atoms: C_19  and  C_29
                            x       y       z     vdW  Elec       q    Type
                         _______ _______ _______ _____ _____    ______ ____

>  <TORSDO>
F 7

$$$$
