=
 OpenBabel11052413443D

 27 31  0  0  0  0  0  0  0  0999 V2000
  188.2240  176.9030  144.1140 N   0  0  0  0  0  0  0  0  0  0  0  0
  186.1620  178.1080  144.7270 C   0  0  0  0  0  0  0  0  0  0  0  0
  186.2460  178.1810  142.2950 N   0  0  0  0  0  0  0  0  0  0  0  0
  182.1940  179.0370  144.1340 N   0  0  0  0  0  0  0  0  0  0  0  0
  180.9130  179.2510  142.0590 C   0  0  0  0  0  1  0  0  0  0  0  0
  185.3120  178.4120  145.8350 C   0  0  0  0  0  3  0  0  0  0  0  0
  183.3310  178.6510  142.2880 C   0  0  0  0  0  0  0  0  0  0  0  0
  189.4990  178.4690  140.4370 C   0  0  0  0  0  3  0  0  0  0  0  0
  183.6260  178.5150  140.8310 C   0  0  0  0  0  1  0  0  0  0  0  0
  190.3230  177.4270  140.5350 C   0  0  0  0  0  3  0  0  0  0  0  0
  184.2130  178.4790  143.3390 C   0  0  0  0  0  0  0  0  0  0  0  0
  187.4360  177.7020  145.0080 C   0  0  0  0  0  0  0  0  0  0  0  0
  182.1260  178.9780  142.8090 N   0  0  0  0  0  0  0  0  0  0  0  0
  183.4650  178.7300  144.4490 C   0  0  0  0  0  0  0  0  0  0  0  0
  188.3720  176.9870  142.8330 C   0  0  0  0  0  0  0  0  0  0  0  0
  185.5830  178.1930  143.4130 C   0  0  0  0  0  0  0  0  0  0  0  0
  188.1460  178.5970  140.9920 C   0  0  0  0  0  3  0  0  0  0  0  0
  183.9930  178.7200  145.6890 N   0  0  0  0  0  0  0  0  0  0  0  0
  190.0550  176.1980  141.2230 N   0  0  0  0  0  0  0  0  0  0  0  0
  189.2380  175.9840  142.2060 C   0  0  0  0  0  3  0  0  0  0  0  0
  187.6290  177.9670  142.0450 C   0  0  0  0  0  0  0  0  0  0  0  0
  189.1210  178.1580  148.9350 C   0  0  0  0  0  3  0  0  0  0  0  0
  188.0040  177.8290  146.3790 C   0  0  0  0  0  0  0  0  0  0  0  0
  187.2110  178.2660  147.4520 C   0  0  0  0  0  3  0  0  0  0  0  0
  187.7660  178.4240  148.7260 C   0  0  0  0  0  3  0  0  0  0  0  0
  189.9230  177.7400  147.8700 C   0  0  0  0  0  3  0  0  0  0  0  0
  189.3680  177.5820  146.5960 C   0  0  0  0  0  3  0  0  0  0  0  0
  1 12  1  0  0  0  0
  2 12  2  0  0  0  0
  2  6  1  0  0  0  0
  3 16  2  0  0  0  0
  4 14  2  0  0  0  0
  5 13  1  0  0  0  0
  7 13  1  0  0  0  0
  7 11  2  0  0  0  0
  8 10  2  0  0  0  0
  8 17  1  0  0  0  0
  9  7  1  0  0  0  0
 10 19  1  0  0  0  0
 11 16  1  0  0  0  0
 11 14  1  0  0  0  0
 12 23  1  0  0  0  0
 13  4  1  0  0  0  0
 14 18  1  0  0  0  0
 15  1  2  0  0  0  0
 16  2  1  0  0  0  0
 17 21  2  0  0  0  0
 18  6  2  0  0  0  0
 19 20  2  0  0  0  0
 20 15  1  0  0  0  0
 21  3  1  0  0  0  0
 21 15  1  0  0  0  0
 23 27  2  0  0  0  0
 23 24  1  0  0  0  0
 24 25  2  0  0  0  0
 25 22  1  0  0  0  0
 26 22  2  0  0  0  0
 27 26  1  0  0  0  0
M  END
>  <MODEL>
1

>  <REMARK>
 VINA RESULT:     -10.3      0.000      0.000
  Name = 
  1 active torsions:
  status: ('A' for Active; 'I' for Inactive)
    1  A    between atoms: C_9  and  C_15
                            x       y       z     vdW  Elec       q    Type
                         _______ _______ _______ _____ _____    ______ ____

>  <TORSDO>
F 1

$$$$
=
 OpenBabel11052413443D

 27 31  0  0  0  0  0  0  0  0999 V2000
  187.1720  178.7710  141.3880 N   0  0  0  0  0  0  0  0  0  0  0  0
  187.2420  177.8280  143.6660 C   0  0  0  0  0  0  0  0  0  0  0  0
  189.3840  177.2420  142.6660 N   0  0  0  0  0  0  0  0  0  0  0  0
  189.2100  177.0000  147.1880 N   0  0  0  0  0  0  0  0  0  0  0  0
  191.5550  176.4210  147.5910 C   0  0  0  0  0  1  0  0  0  0  0  0
  186.5350  177.8070  144.9070 C   0  0  0  0  0  3  0  0  0  0  0  0
  190.4800  176.9320  145.3890 C   0  0  0  0  0  0  0  0  0  0  0  0
  189.6980  176.4040  139.0170 C   0  0  0  0  0  3  0  0  0  0  0  0
  191.6950  176.7440  144.5440 C   0  0  0  0  0  1  0  0  0  0  0  0
  189.4580  177.4000  138.1650 C   0  0  0  0  0  3  0  0  0  0  0  0
  189.2100  177.2750  144.9640 C   0  0  0  0  0  0  0  0  0  0  0  0
  186.5470  178.2180  142.5560 C   0  0  0  0  0  0  0  0  0  0  0  0
  190.4390  176.7840  146.7340 N   0  0  0  0  0  0  0  0  0  0  0  0
  188.4690  177.3010  146.1070 C   0  0  0  0  0  0  0  0  0  0  0  0
  188.2510  178.4120  140.7730 C   0  0  0  0  0  0  0  0  0  0  0  0
  188.6420  177.4990  143.7030 C   0  0  0  0  0  0  0  0  0  0  0  0
  189.7200  176.4650  140.4830 C   0  0  0  0  0  3  0  0  0  0  0  0
  187.1430  177.5430  146.0980 N   0  0  0  0  0  0  0  0  0  0  0  0
  189.1580  178.7580  138.5140 N   0  0  0  0  0  0  0  0  0  0  0  0
  188.6390  179.2160  139.6100 C   0  0  0  0  0  3  0  0  0  0  0  0
  189.0890  177.3280  141.2770 C   0  0  0  0  0  0  0  0  0  0  0  0
  182.2790  178.7120  142.6140 C   0  0  0  0  0  3  0  0  0  0  0  0
  185.0650  178.3520  142.5790 C   0  0  0  0  0  0  0  0  0  0  0  0
  184.2950  178.0700  141.4390 C   0  0  0  0  0  3  0  0  0  0  0  0
  182.9080  178.2430  141.4590 C   0  0  0  0  0  3  0  0  0  0  0  0
  183.0380  179.0130  143.7490 C   0  0  0  0  0  3  0  0  0  0  0  0
  184.4250  178.8400  143.7290 C   0  0  0  0  0  3  0  0  0  0  0  0
  1 12  1  0  0  0  0
  2 16  1  0  0  0  0
  2  6  1  0  0  0  0
  3 16  2  0  0  0  0
  6 18  2  0  0  0  0
  7 13  1  0  0  0  0
  8 17  1  0  0  0  0
  9  7  1  0  0  0  0
 10 19  1  0  0  0  0
 10  8  2  0  0  0  0
 11  7  2  0  0  0  0
 11 14  1  0  0  0  0
 12 23  1  0  0  0  0
 12  2  2  0  0  0  0
 13  4  1  0  0  0  0
 13  5  1  0  0  0  0
 14  4  2  0  0  0  0
 15 21  1  0  0  0  0
 15  1  2  0  0  0  0
 16 11  1  0  0  0  0
 17 21  2  0  0  0  0
 18 14  1  0  0  0  0
 19 20  2  0  0  0  0
 20 15  1  0  0  0  0
 21  3  1  0  0  0  0
 22 26  1  0  0  0  0
 23 27  1  0  0  0  0
 24 25  1  0  0  0  0
 24 23  2  0  0  0  0
 25 22  2  0  0  0  0
 27 26  2  0  0  0  0
M  END
>  <MODEL>
2

>  <REMARK>
 VINA RESULT:      -9.7      2.158      5.958
  Name = 
  1 active torsions:
  status: ('A' for Active; 'I' for Inactive)
    1  A    between atoms: C_9  and  C_15
                            x       y       z     vdW  Elec       q    Type
                         _______ _______ _______ _____ _____    ______ ____

>  <TORSDO>
F 1

$$$$
=
 OpenBabel11052413443D

 27 31  0  0  0  0  0  0  0  0999 V2000
  187.6780  177.3110  143.6900 N   0  0  0  0  0  0  0  0  0  0  0  0
  186.8950  178.2370  141.5420 C   0  0  0  0  0  0  0  0  0  0  0  0
  189.3090  178.0190  141.3030 N   0  0  0  0  0  0  0  0  0  0  0  0
  186.9940  178.4340  137.4300 N   0  0  0  0  0  0  0  0  0  0  0  0
  188.8720  178.1800  135.8780 C   0  0  0  0  0  1  0  0  0  0  0  0
  185.7120  178.5350  140.7990 C   0  0  0  0  0  3  0  0  0  0  0  0
  188.9380  178.0090  138.3740 C   0  0  0  0  0  0  0  0  0  0  0  0
  191.6410  178.5920  144.1920 C   0  0  0  0  0  3  0  0  0  0  0  0
  190.4010  177.7410  138.5010 C   0  0  0  0  0  1  0  0  0  0  0  0
  191.5590  177.7170  145.1930 C   0  0  0  0  0  3  0  0  0  0  0  0
  188.0150  178.1130  139.3990 C   0  0  0  0  0  0  0  0  0  0  0  0
  186.7640  178.0790  142.8930 C   0  0  0  0  0  0  0  0  0  0  0  0
  188.2820  178.2000  137.2060 N   0  0  0  0  0  0  0  0  0  0  0  0
  186.8380  178.3770  138.7640 C   0  0  0  0  0  0  0  0  0  0  0  0
  188.9680  177.2580  143.6570 C   0  0  0  0  0  0  0  0  0  0  0  0
  188.1130  178.0630  140.7950 C   0  0  0  0  0  0  0  0  0  0  0  0
  190.9100  178.5690  142.9200 C   0  0  0  0  0  3  0  0  0  0  0  0
  185.6940  178.6070  139.4390 N   0  0  0  0  0  0  0  0  0  0  0  0
  190.7190  176.5560  145.2350 N   0  0  0  0  0  0  0  0  0  0  0  0
  189.6100  176.3370  144.6010 C   0  0  0  0  0  3  0  0  0  0  0  0
  189.7350  178.0000  142.6600 C   0  0  0  0  0  0  0  0  0  0  0  0
  183.1110  179.0940  144.9150 C   0  0  0  0  0  3  0  0  0  0  0  0
  185.5100  178.4650  143.5980 C   0  0  0  0  0  0  0  0  0  0  0  0
  185.4730  178.5780  144.9980 C   0  0  0  0  0  3  0  0  0  0  0  0
  184.2800  178.8970  145.6520 C   0  0  0  0  0  3  0  0  0  0  0  0
  183.1320  178.9660  143.5230 C   0  0  0  0  0  3  0  0  0  0  0  0
  184.3250  178.6470  142.8690 C   0  0  0  0  0  3  0  0  0  0  0  0
  2 12  1  0  0  0  0
  3 21  2  0  0  0  0
  4 14  2  0  0  0  0
  5 13  1  0  0  0  0
  6  2  1  0  0  0  0
  7  9  1  0  0  0  0
  7 11  2  0  0  0  0
  8 10  1  0  0  0  0
 10 19  2  0  0  0  0
 11 16  1  0  0  0  0
 12 23  1  0  0  0  0
 12  1  2  0  0  0  0
 13  4  1  0  0  0  0
 13  7  1  0  0  0  0
 14 11  1  0  0  0  0
 14 18  1  0  0  0  0
 15  1  1  0  0  0  0
 15 20  2  0  0  0  0
 16  3  1  0  0  0  0
 16  2  2  0  0  0  0
 17  8  2  0  0  0  0
 18  6  2  0  0  0  0
 20 19  1  0  0  0  0
 21 17  1  0  0  0  0
 21 15  1  0  0  0  0
 22 25  1  0  0  0  0
 23 24  1  0  0  0  0
 24 25  2  0  0  0  0
 26 22  2  0  0  0  0
 27 26  1  0  0  0  0
 27 23  2  0  0  0  0
M  END
>  <MODEL>
3

>  <REMARK>
 VINA RESULT:      -9.2      2.655      5.474
  Name = 
  1 active torsions:
  status: ('A' for Active; 'I' for Inactive)
    1  A    between atoms: C_9  and  C_15
                            x       y       z     vdW  Elec       q    Type
                         _______ _______ _______ _____ _____    ______ ____

>  <TORSDO>
F 1

$$$$
=
 OpenBabel11052413443D

 27 31  0  0  0  0  0  0  0  0999 V2000
  189.7290  178.5640  141.9690 N   0  0  0  0  0  0  0  0  0  0  0  0
  187.3630  178.2190  141.3660 C   0  0  0  0  0  0  0  0  0  0  0  0
  187.4400  178.0190  143.7920 N   0  0  0  0  0  0  0  0  0  0  0  0
  183.3360  178.7760  142.0260 N   0  0  0  0  0  0  0  0  0  0  0  0
  182.0870  178.9550  144.1240 C   0  0  0  0  0  1  0  0  0  0  0  0
  186.4500  178.2930  140.2700 C   0  0  0  0  0  3  0  0  0  0  0  0
  184.5560  178.6430  143.8560 C   0  0  0  0  0  0  0  0  0  0  0  0
  190.3830  176.4880  145.5560 C   0  0  0  0  0  3  0  0  0  0  0  0
  184.8950  178.6010  145.3080 C   0  0  0  0  0  1  0  0  0  0  0  0
  191.5300  177.1610  145.4740 C   0  0  0  0  0  3  0  0  0  0  0  0
  185.4280  178.5260  142.7900 C   0  0  0  0  0  0  0  0  0  0  0  0
  188.6950  178.1450  141.0680 C   0  0  0  0  0  0  0  0  0  0  0  0
  183.3090  178.7990  143.3530 N   0  0  0  0  0  0  0  0  0  0  0  0
  184.6280  178.6120  141.6900 C   0  0  0  0  0  0  0  0  0  0  0  0
  189.8490  178.3780  143.2430 C   0  0  0  0  0  0  0  0  0  0  0  0
  186.8070  178.2960  142.6910 C   0  0  0  0  0  0  0  0  0  0  0  0
  189.0720  176.8850  145.0300 C   0  0  0  0  0  3  0  0  0  0  0  0
  185.1100  178.4800  140.4380 N   0  0  0  0  0  0  0  0  0  0  0  0
  191.7220  178.4310  144.8370 N   0  0  0  0  0  0  0  0  0  0  0  0
  191.0290  178.9700  143.8820 C   0  0  0  0  0  3  0  0  0  0  0  0
  188.8090  177.7040  144.0140 C   0  0  0  0  0  0  0  0  0  0  0  0
  189.9620  177.3090  137.0480 C   0  0  0  0  0  3  0  0  0  0  0  0
  189.1620  177.8780  139.6800 C   0  0  0  0  0  0  0  0  0  0  0  0
  188.9310  178.8030  138.6480 C   0  0  0  0  0  3  0  0  0  0  0  0
  189.3350  178.5230  137.3400 C   0  0  0  0  0  3  0  0  0  0  0  0
  190.1810  176.3740  138.0630 C   0  0  0  0  0  3  0  0  0  0  0  0
  189.7770  176.6550  139.3720 C   0  0  0  0  0  3  0  0  0  0  0  0
  1 15  1  0  0  0  0
  2 16  2  0  0  0  0
  3 21  2  0  0  0  0
  4 13  1  0  0  0  0
  6 18  2  0  0  0  0
  6  2  1  0  0  0  0
  7  9  1  0  0  0  0
 10  8  1  0  0  0  0
 11  7  2  0  0  0  0
 12  2  1  0  0  0  0
 12  1  2  0  0  0  0
 13  7  1  0  0  0  0
 13  5  1  0  0  0  0
 14  4  2  0  0  0  0
 14 11  1  0  0  0  0
 15 20  2  0  0  0  0
 15 21  1  0  0  0  0
 16 11  1  0  0  0  0
 16  3  1  0  0  0  0
 17  8  2  0  0  0  0
 18 14  1  0  0  0  0
 19 10  2  0  0  0  0
 20 19  1  0  0  0  0
 21 17  1  0  0  0  0
 22 25  2  0  0  0  0
 22 26  1  0  0  0  0
 23 12  1  0  0  0  0
 24 23  2  0  0  0  0
 25 24  1  0  0  0  0
 26 27  2  0  0  0  0
 27 23  1  0  0  0  0
M  END
>  <MODEL>
4

>  <REMARK>
 VINA RESULT:      -9.2      2.018      5.550
  Name = 
  1 active torsions:
  status: ('A' for Active; 'I' for Inactive)
    1  A    between atoms: C_9  and  C_15
                            x       y       z     vdW  Elec       q    Type
                         _______ _______ _______ _____ _____    ______ ____

>  <TORSDO>
F 1

$$$$
=
 OpenBabel11052413443D

 27 31  0  0  0  0  0  0  0  0999 V2000
  187.2210  178.8370  140.1140 N   0  0  0  0  0  0  0  0  0  0  0  0
  186.7670  178.1230  142.4310 C   0  0  0  0  0  0  0  0  0  0  0  0
  189.0240  177.3440  141.9520 N   0  0  0  0  0  0  0  0  0  0  0  0
  187.9240  177.5610  146.3430 N   0  0  0  0  0  0  0  0  0  0  0  0
  190.0950  176.9190  147.2730 C   0  0  0  0  0  1  0  0  0  0  0  0
  185.8230  178.2580  143.4950 C   0  0  0  0  0  3  0  0  0  0  0  0
  189.5240  177.2560  144.8600 C   0  0  0  0  0  0  0  0  0  0  0  0
  190.0160  176.1350  138.5360 C   0  0  0  0  0  3  0  0  0  0  0  0
  190.8710  176.9310  144.3060 C   0  0  0  0  0  1  0  0  0  0  0  0
  190.0180  177.0510  137.5690 C   0  0  0  0  0  3  0  0  0  0  0  0
  188.3920  177.6130  144.1520 C   0  0  0  0  0  0  0  0  0  0  0  0
  186.3380  178.4320  141.1700 C   0  0  0  0  0  0  0  0  0  0  0  0
  189.2020  177.2440  146.1750 N   0  0  0  0  0  0  0  0  0  0  0  0
  187.4370  177.7860  145.1100 C   0  0  0  0  0  0  0  0  0  0  0  0
  188.3760  178.3710  139.7700 C   0  0  0  0  0  0  0  0  0  0  0  0
  188.1060  177.7360  142.7860 C   0  0  0  0  0  0  0  0  0  0  0  0
  189.7440  176.3400  139.9640 C   0  0  0  0  0  3  0  0  0  0  0  0
  186.1590  178.0860  144.8040 N   0  0  0  0  0  0  0  0  0  0  0  0
  189.7430  178.4490  137.7270 N   0  0  0  0  0  0  0  0  0  0  0  0
  189.0430  179.0360  138.6470 C   0  0  0  0  0  3  0  0  0  0  0  0
  189.0230  177.3050  140.5310 C   0  0  0  0  0  0  0  0  0  0  0  0
  182.1740  178.9430  140.2410 C   0  0  0  0  0  3  0  0  0  0  0  0
  184.8930  178.6360  140.8740 C   0  0  0  0  0  0  0  0  0  0  0  0
  183.9010  178.1230  141.7250 C   0  0  0  0  0  3  0  0  0  0  0  0
  182.5470  178.2820  141.4130 C   0  0  0  0  0  3  0  0  0  0  0  0
  183.1540  179.4400  139.3770 C   0  0  0  0  0  3  0  0  0  0  0  0
  184.5070  179.2820  139.6890 C   0  0  0  0  0  3  0  0  0  0  0  0
  1 12  1  0  0  0  0
  2 16  1  0  0  0  0
  2  6  1  0  0  0  0
  3 16  2  0  0  0  0
  6 18  2  0  0  0  0
  7 13  1  0  0  0  0
  8 17  1  0  0  0  0
  9  7  1  0  0  0  0
 10 19  1  0  0  0  0
 10  8  2  0  0  0  0
 11  7  2  0  0  0  0
 11 14  1  0  0  0  0
 12  2  2  0  0  0  0
 13  4  1  0  0  0  0
 13  5  1  0  0  0  0
 14  4  2  0  0  0  0
 15  1  2  0  0  0  0
 15 21  1  0  0  0  0
 16 11  1  0  0  0  0
 17 21  2  0  0  0  0
 18 14  1  0  0  0  0
 19 20  2  0  0  0  0
 20 15  1  0  0  0  0
 21  3  1  0  0  0  0
 22 25  1  0  0  0  0
 23 12  1  0  0  0  0
 23 24  1  0  0  0  0
 25 24  2  0  0  0  0
 26 27  1  0  0  0  0
 26 22  2  0  0  0  0
 27 23  2  0  0  0  0
M  END
>  <MODEL>
5

>  <REMARK>
 VINA RESULT:      -9.0      2.082      6.111
  Name = 
  1 active torsions:
  status: ('A' for Active; 'I' for Inactive)
    1  A    between atoms: C_9  and  C_15
                            x       y       z     vdW  Elec       q    Type
                         _______ _______ _______ _____ _____    ______ ____

>  <TORSDO>
F 1

$$$$
=
 OpenBabel11052413443D

 27 31  0  0  0  0  0  0  0  0999 V2000
  185.0400  179.4350  140.7420 N   0  0  0  0  0  0  0  0  0  0  0  0
  187.1730  178.2120  140.9360 C   0  0  0  0  0  0  0  0  0  0  0  0
  186.5090  177.9740  138.6050 N   0  0  0  0  0  0  0  0  0  0  0  0
  190.8710  177.1230  139.4880 N   0  0  0  0  0  0  0  0  0  0  0  0
  191.6170  176.7270  137.1900 C   0  0  0  0  0  1  0  0  0  0  0  0
  188.2580  177.9590  141.8300 C   0  0  0  0  0  3  0  0  0  0  0  0
  189.3310  177.4160  137.9410 C   0  0  0  0  0  0  0  0  0  0  0  0
  182.9030  177.6590  137.5980 C   0  0  0  0  0  3  0  0  0  0  0  0
  188.6990  177.4600  136.5900 C   0  0  0  0  0  1  0  0  0  0  0  0
  182.1400  178.7300  137.8120 C   0  0  0  0  0  3  0  0  0  0  0  0
  188.7280  177.6870  139.1560 C   0  0  0  0  0  0  0  0  0  0  0  0
  186.0080  178.6750  141.4800 C   0  0  0  0  0  0  0  0  0  0  0  0
  190.6220  177.0880  138.1850 N   0  0  0  0  0  0  0  0  0  0  0  0
  189.7170  177.4900  140.0720 C   0  0  0  0  0  0  0  0  0  0  0  0
  184.5900  179.2670  139.5420 C   0  0  0  0  0  0  0  0  0  0  0  0
  187.4200  178.0190  139.5320 C   0  0  0  0  0  0  0  0  0  0  0  0
  184.3470  177.5280  137.8250 C   0  0  0  0  0  3  0  0  0  0  0  0
  189.5000  177.6010  141.3980 N   0  0  0  0  0  0  0  0  0  0  0  0
  182.5810  179.9940  138.3230 N   0  0  0  0  0  0  0  0  0  0  0  0
  183.6120  180.2510  139.0670 C   0  0  0  0  0  3  0  0  0  0  0  0
  185.1090  178.2130  138.6750 C   0  0  0  0  0  0  0  0  0  0  0  0
  185.2710  178.5730  145.7120 C   0  0  0  0  0  3  0  0  0  0  0  0
  185.7830  178.6600  142.9520 C   0  0  0  0  0  0  0  0  0  0  0  0
  186.5370  177.8230  143.7910 C   0  0  0  0  0  3  0  0  0  0  0  0
  186.2860  177.7850  145.1650 C   0  0  0  0  0  3  0  0  0  0  0  0
  184.5030  179.3960  144.8840 C   0  0  0  0  0  3  0  0  0  0  0  0
  184.7540  179.4350  143.5100 C   0  0  0  0  0  3  0  0  0  0  0  0
  1 12  1  0  0  0  0
  2 12  2  0  0  0  0
  2  6  1  0  0  0  0
  3 21  1  0  0  0  0
  3 16  2  0  0  0  0
  4 14  2  0  0  0  0
  5 13  1  0  0  0  0
  7 13  1  0  0  0  0
  7 11  2  0  0  0  0
  8 10  2  0  0  0  0
  8 17  1  0  0  0  0
  9  7  1  0  0  0  0
 10 19  1  0  0  0  0
 11 16  1  0  0  0  0
 11 14  1  0  0  0  0
 12 23  1  0  0  0  0
 13  4  1  0  0  0  0
 14 18  1  0  0  0  0
 15  1  2  0  0  0  0
 16  2  1  0  0  0  0
 17 21  2  0  0  0  0
 18  6  2  0  0  0  0
 19 20  2  0  0  0  0
 20 15  1  0  0  0  0
 21 15  1  0  0  0  0
 23 27  2  0  0  0  0
 23 24  1  0  0  0  0
 24 25  2  0  0  0  0
 25 22  1  0  0  0  0
 26 22  2  0  0  0  0
 27 26  1  0  0  0  0
M  END
>  <MODEL>
6

>  <REMARK>
 VINA RESULT:      -9.0      2.695      6.654
  Name = 
  1 active torsions:
  status: ('A' for Active; 'I' for Inactive)
    1  A    between atoms: C_9  and  C_15
                            x       y       z     vdW  Elec       q    Type
                         _______ _______ _______ _____ _____    ______ ____

>  <TORSDO>
F 1

$$$$
=
 OpenBabel11052413443D

 27 31  0  0  0  0  0  0  0  0999 V2000
  191.1420  177.5530  141.0880 N   0  0  0  0  0  0  0  0  0  0  0  0
  189.1850  177.3830  139.5970 C   0  0  0  0  0  0  0  0  0  0  0  0
  188.2660  177.8160  141.8110 N   0  0  0  0  0  0  0  0  0  0  0  0
  185.4640  178.6280  138.3440 N   0  0  0  0  0  0  0  0  0  0  0  0
  183.5780  179.5160  139.6270 C   0  0  0  0  0  1  0  0  0  0  0  0
  188.8110  177.2890  138.2210 C   0  0  0  0  0  3  0  0  0  0  0  0
  185.8130  178.8160  140.5100 C   0  0  0  0  0  0  0  0  0  0  0  0
  189.8540  176.4200  144.9170 C   0  0  0  0  0  3  0  0  0  0  0  0
  185.5420  179.1110  141.9480 C   0  0  0  0  0  1  0  0  0  0  0  0
  191.0650  176.8880  145.2160 C   0  0  0  0  0  3  0  0  0  0  0  0
  186.9770  178.3080  139.9650 C   0  0  0  0  0  0  0  0  0  0  0  0
  190.4710  177.0550  139.9210 C   0  0  0  0  0  0  0  0  0  0  0  0
  184.9310  179.0020  139.5000 N   0  0  0  0  0  0  0  0  0  0  0  0
  186.7090  178.2090  138.6330 C   0  0  0  0  0  0  0  0  0  0  0  0
  190.7120  177.6920  142.2990 C   0  0  0  0  0  0  0  0  0  0  0  0
  188.1920  177.8780  140.5140 C   0  0  0  0  0  0  0  0  0  0  0  0
  188.9790  176.8370  143.8150 C   0  0  0  0  0  3  0  0  0  0  0  0
  187.5940  177.6910  137.7590 N   0  0  0  0  0  0  0  0  0  0  0  0
  191.7770  177.9090  144.5050 N   0  0  0  0  0  0  0  0  0  0  0  0
  191.6540  178.2670  143.2650 C   0  0  0  0  0  3  0  0  0  0  0  0
  189.3290  177.3890  142.6550 C   0  0  0  0  0  0  0  0  0  0  0  0
  193.1000  175.0420  137.1830 C   0  0  0  0  0  3  0  0  0  0  0  0
  191.3650  176.3740  138.9440 C   0  0  0  0  0  0  0  0  0  0  0  0
  190.9240  175.2530  138.2210 C   0  0  0  0  0  3  0  0  0  0  0  0
  191.7860  174.5940  137.3390 C   0  0  0  0  0  3  0  0  0  0  0  0
  193.5540  176.1440  137.9110 C   0  0  0  0  0  3  0  0  0  0  0  0
  192.6920  176.8030  138.7930 C   0  0  0  0  0  3  0  0  0  0  0  0
  1 15  1  0  0  0  0
  2 12  1  0  0  0  0
  2 16  2  0  0  0  0
  3 21  2  0  0  0  0
  4 14  2  0  0  0  0
  4 13  1  0  0  0  0
  6  2  1  0  0  0  0
  7  9  1  0  0  0  0
  8 10  1  0  0  0  0
 11  7  2  0  0  0  0
 11 16  1  0  0  0  0
 12  1  2  0  0  0  0
 13  5  1  0  0  0  0
 13  7  1  0  0  0  0
 14 11  1  0  0  0  0
 15 21  1  0  0  0  0
 15 20  2  0  0  0  0
 16  3  1  0  0  0  0
 17  8  2  0  0  0  0
 18  6  2  0  0  0  0
 18 14  1  0  0  0  0
 19 10  2  0  0  0  0
 20 19  1  0  0  0  0
 21 17  1  0  0  0  0
 22 25  2  0  0  0  0
 22 26  1  0  0  0  0
 23 12  1  0  0  0  0
 24 23  2  0  0  0  0
 25 24  1  0  0  0  0
 26 27  2  0  0  0  0
 27 23  1  0  0  0  0
M  END
>  <MODEL>
7

>  <REMARK>
 VINA RESULT:      -8.6      3.059      6.662
  Name = 
  1 active torsions:
  status: ('A' for Active; 'I' for Inactive)
    1  A    between atoms: C_9  and  C_15
                            x       y       z     vdW  Elec       q    Type
                         _______ _______ _______ _____ _____    ______ ____

>  <TORSDO>
F 1

$$$$
=
 OpenBabel11052413443D

 27 31  0  0  0  0  0  0  0  0999 V2000
  183.6940  178.8080  142.2010 N   0  0  0  0  0  0  0  0  0  0  0  0
  186.0200  178.3370  141.5310 C   0  0  0  0  0  0  0  0  0  0  0  0
  184.6750  177.8380  139.5630 N   0  0  0  0  0  0  0  0  0  0  0  0
  189.0990  178.4510  138.7990 N   0  0  0  0  0  0  0  0  0  0  0  0
  189.0570  178.2530  136.3590 C   0  0  0  0  0  1  0  0  0  0  0  0
  187.3740  178.4690  141.9660 C   0  0  0  0  0  3  0  0  0  0  0  0
  187.0980  178.1940  137.9150 C   0  0  0  0  0  0  0  0  0  0  0  0
  181.2330  176.3590  139.8460 C   0  0  0  0  0  3  0  0  0  0  0  0
  186.0440  177.9980  136.8770 C   0  0  0  0  0  1  0  0  0  0  0  0
  180.3070  177.1350  140.4070 C   0  0  0  0  0  3  0  0  0  0  0  0
  186.9170  178.2900  139.2820 C   0  0  0  0  0  0  0  0  0  0  0  0
  185.0450  178.4180  142.4850 C   0  0  0  0  0  0  0  0  0  0  0  0
  188.4240  178.3040  137.6650 N   0  0  0  0  0  0  0  0  0  0  0  0
  188.1770  178.4440  139.7780 C   0  0  0  0  0  0  0  0  0  0  0  0
  182.9200  178.4740  141.2220 C   0  0  0  0  0  0  0  0  0  0  0  0
  185.7960  178.1960  140.1170 C   0  0  0  0  0  0  0  0  0  0  0  0
  182.6270  176.7030  139.5450 C   0  0  0  0  0  3  0  0  0  0  0  0
  188.4260  178.5150  141.1000 N   0  0  0  0  0  0  0  0  0  0  0  0
  180.4890  178.4870  140.8460 N   0  0  0  0  0  0  0  0  0  0  0  0
  181.5840  179.0800  141.2060 C   0  0  0  0  0  3  0  0  0  0  0  0
  183.3920  177.6180  140.1370 C   0  0  0  0  0  0  0  0  0  0  0  0
  185.9200  178.2190  146.6870 C   0  0  0  0  0  3  0  0  0  0  0  0
  185.3770  178.3710  143.9360 C   0  0  0  0  0  0  0  0  0  0  0  0
  186.4310  177.5740  144.4120 C   0  0  0  0  0  3  0  0  0  0  0  0
  186.7050  177.5030  145.7800 C   0  0  0  0  0  3  0  0  0  0  0  0
  184.8580  179.0010  146.2270 C   0  0  0  0  0  3  0  0  0  0  0  0
  184.5840  179.0720  144.8580 C   0  0  0  0  0  3  0  0  0  0  0  0
  1 12  1  0  0  0  0
  2  6  1  0  0  0  0
  2 12  2  0  0  0  0
  3 16  2  0  0  0  0
  3 21  1  0  0  0  0
  4 14  2  0  0  0  0
  5 13  1  0  0  0  0
  7 11  2  0  0  0  0
  8 10  2  0  0  0  0
  9  7  1  0  0  0  0
 10 19  1  0  0  0  0
 11 14  1  0  0  0  0
 11 16  1  0  0  0  0
 12 23  1  0  0  0  0
 13  7  1  0  0  0  0
 13  4  1  0  0  0  0
 14 18  1  0  0  0  0
 15  1  2  0  0  0  0
 16  2  1  0  0  0  0
 17  8  1  0  0  0  0
 17 21  2  0  0  0  0
 18  6  2  0  0  0  0
 19 20  2  0  0  0  0
 20 15  1  0  0  0  0
 21 15  1  0  0  0  0
 23 24  2  0  0  0  0
 23 27  1  0  0  0  0
 24 25  1  0  0  0  0
 25 22  2  0  0  0  0
 26 22  1  0  0  0  0
 27 26  2  0  0  0  0
M  END
>  <MODEL>
8

>  <REMARK>
 VINA RESULT:      -8.6      2.405      6.198
  Name = 
  1 active torsions:
  status: ('A' for Active; 'I' for Inactive)
    1  A    between atoms: C_9  and  C_15
                            x       y       z     vdW  Elec       q    Type
                         _______ _______ _______ _____ _____    ______ ____

>  <TORSDO>
F 1

$$$$
=
 OpenBabel11052413443D

 27 31  0  0  0  0  0  0  0  0999 V2000
  189.0650  177.0760  140.8690 N   0  0  0  0  0  0  0  0  0  0  0  0
  187.3330  178.0700  142.3150 C   0  0  0  0  0  0  0  0  0  0  0  0
  186.4960  178.3310  140.0430 N   0  0  0  0  0  0  0  0  0  0  0  0
  183.3950  178.7330  143.3230 N   0  0  0  0  0  0  0  0  0  0  0  0
  181.4220  179.0030  141.9000 C   0  0  0  0  0  1  0  0  0  0  0  0
  186.9480  178.2230  143.6820 C   0  0  0  0  0  3  0  0  0  0  0  0
  183.7740  178.5740  141.1590 C   0  0  0  0  0  0  0  0  0  0  0  0
  188.8000  179.0060  137.1530 C   0  0  0  0  0  3  0  0  0  0  0  0
  183.5060  178.5700  139.6910 C   0  0  0  0  0  1  0  0  0  0  0  0
  189.6450  178.0260  136.8370 C   0  0  0  0  0  3  0  0  0  0  0  0
  184.9920  178.3920  141.7880 C   0  0  0  0  0  0  0  0  0  0  0  0
  188.6360  177.7430  142.0640 C   0  0  0  0  0  0  0  0  0  0  0  0
  182.8390  178.7680  142.1180 N   0  0  0  0  0  0  0  0  0  0  0  0
  184.7040  178.5020  143.1150 C   0  0  0  0  0  0  0  0  0  0  0  0
  188.7180  177.2670  139.6380 C   0  0  0  0  0  0  0  0  0  0  0  0
  186.3000  178.2080  141.3230 C   0  0  0  0  0  0  0  0  0  0  0  0
  187.7500  178.9880  138.1780 C   0  0  0  0  0  3  0  0  0  0  0  0
  185.6580  178.4400  144.0650 N   0  0  0  0  0  0  0  0  0  0  0  0
  189.7080  176.7330  137.4510 N   0  0  0  0  0  0  0  0  0  0  0  0
  189.3290  176.3830  138.6410 C   0  0  0  0  0  3  0  0  0  0  0  0
  187.6930  178.2430  139.2800 C   0  0  0  0  0  0  0  0  0  0  0  0
  191.6800  177.8700  145.0940 C   0  0  0  0  0  3  0  0  0  0  0  0
  189.6700  177.8100  143.1330 C   0  0  0  0  0  0  0  0  0  0  0  0
  190.5230  178.9200  143.2460 C   0  0  0  0  0  3  0  0  0  0  0  0
  191.5190  178.9520  144.2260 C   0  0  0  0  0  3  0  0  0  0  0  0
  190.8480  176.7530  144.9790 C   0  0  0  0  0  3  0  0  0  0  0  0
  189.8520  176.7200  143.9990 C   0  0  0  0  0  3  0  0  0  0  0  0
  1 12  1  0  0  0  0
  2  6  1  0  0  0  0
  3 16  2  0  0  0  0
  5 13  1  0  0  0  0
  6 18  2  0  0  0  0
  7 11  2  0  0  0  0
  7 13  1  0  0  0  0
  8 17  1  0  0  0  0
  9  7  1  0  0  0  0
 10  8  2  0  0  0  0
 10 19  1  0  0  0  0
 11 14  1  0  0  0  0
 12  2  2  0  0  0  0
 12 23  1  0  0  0  0
 13  4  1  0  0  0  0
 14  4  2  0  0  0  0
 14 18  1  0  0  0  0
 15  1  2  0  0  0  0
 16 11  1  0  0  0  0
 16  2  1  0  0  0  0
 17 21  2  0  0  0  0
 19 20  2  0  0  0  0
 20 15  1  0  0  0  0
 21 15  1  0  0  0  0
 21  3  1  0  0  0  0
 23 24  2  0  0  0  0
 23 27  1  0  0  0  0
 24 25  1  0  0  0  0
 25 22  2  0  0  0  0
 26 22  1  0  0  0  0
 27 26  2  0  0  0  0
M  END
>  <MODEL>
9

>  <REMARK>
 VINA RESULT:      -8.4      2.272      3.106
  Name = 
  1 active torsions:
  status: ('A' for Active; 'I' for Inactive)
    1  A    between atoms: C_9  and  C_15
                            x       y       z     vdW  Elec       q    Type
                         _______ _______ _______ _____ _____    ______ ____

>  <TORSDO>
F 1

$$$$
