=
 OpenBabel11052413483D

 27 29  0  0  1  0  0  0  0  0999 V2000
  188.7400  177.9770  143.9550 C   0  0  2  0  0  3  0  0  0  0  0  0
  191.3940  176.4120  146.9580 C   0  0  0  0  0  3  0  0  0  0  0  0
  189.6540  177.4430  145.0160 C   0  0  0  0  0  0  0  0  0  0  0  0
  189.2990  177.4780  146.3750 C   0  0  0  0  0  3  0  0  0  0  0  0
  190.1710  176.9690  147.3420 C   0  0  0  0  0  3  0  0  0  0  0  0
  191.7470  176.3660  145.6060 C   0  0  0  0  0  3  0  0  0  0  0  0
  190.8790  176.8820  144.6380 C   0  0  0  0  0  3  0  0  0  0  0  0
  187.4660  177.1410  143.7490 C   0  0  0  0  0  2  0  0  0  0  0  0
  184.0950  178.9120  144.0360 C   0  0  0  0  0  3  0  0  0  0  0  0
  183.9340  178.9470  145.4240 C   0  0  0  0  0  3  0  0  0  0  0  0
  186.2220  177.7690  144.3110 C   0  0  0  0  0  0  0  0  0  0  0  0
  185.3830  178.3400  141.9900 C   0  0  0  0  0  1  0  0  0  0  0  0
  184.9140  178.4030  146.2570 C   0  0  0  0  0  3  0  0  0  0  0  0
  186.0560  177.8200  145.7010 C   0  0  0  0  0  3  0  0  0  0  0  0
  185.2350  178.3280  143.4740 C   0  0  0  0  0  0  0  0  0  0  0  0
  189.4560  178.2050  142.7090 N   0  0  0  0  0  2  0  0  0  0  0  0
  188.7110  177.5110  141.6680 C   0  0  0  0  0  2  0  0  0  0  0  0
  190.4570  176.3800  138.7710 C   0  0  0  0  0  0  0  0  0  0  0  0
  191.2320  175.0840  136.9350 O   0  0  0  0  0  1  0  0  0  0  0  0
  189.1690  176.6120  138.2260 N   0  0  0  0  0  0  0  0  0  0  0  0
  188.6440  175.9240  137.1850 O   0  0  0  0  0  1  0  0  0  0  0  0
  188.3530  177.3600  139.1620 C   0  0  1  0  0  3  0  0  0  0  0  0
  191.4190  175.6750  138.1780 C   0  0  0  0  0  3  0  0  0  0  0  0
  189.3090  177.7750  140.2920 C   0  0  2  0  0  3  0  0  0  0  0  0
  190.6310  177.0220  140.0910 C   0  0  0  0  0  2  0  0  0  0  0  0
  186.2050  178.1340  138.2010 S   0  0  0  0  0  1  0  0  0  0  0  0
  187.8500  178.5020  138.5370 O   0  0  0  0  0  0  0  0  0  0  0  0
  1  8  1  6  0  0  0
  1  3  1  0  0  0  0
  2  5  1  0  0  0  0
  3  4  1  0  0  0  0
  4  5  2  0  0  0  0
  6  2  2  0  0  0  0
  7  3  2  0  0  0  0
  7  6  1  0  0  0  0
  8 11  1  0  0  0  0
  9 10  1  0  0  0  0
 10 13  2  0  0  0  0
 11 14  2  0  0  0  0
 12 15  1  0  0  0  0
 14 13  1  0  0  0  0
 15  9  2  0  0  0  0
 15 11  1  0  0  0  0
 16  1  1  0  0  0  0
 17 16  1  0  0  0  0
 18 25  1  0  0  0  0
 19 23  1  0  0  0  0
 20 18  1  0  0  0  0
 20 22  1  0  0  0  0
 21 20  1  0  0  0  0
 22 27  1  6  0  0  0
 22 24  1  0  0  0  0
 23 18  2  0  0  0  0
 24 17  1  1  0  0  0
 25 24  1  0  0  0  0
 26 27  1  0  0  0  0
M  END
>  <MODEL>
1

>  <REMARK>
 VINA RESULT:      -9.1      0.000      0.000
  Name = 
  7 active torsions:
  status: ('A' for Active; 'I' for Inactive)
    1  A    between atoms: C_1  and  C_15
    2  A    between atoms: C_1  and  C_18
    3  A    between atoms: N_2  and  C_6
    4  A    between atoms: N_2  and  C_15
    5  A    between atoms: C_6  and  C_17
    6  A    between atoms: C_9  and  C_15
    7  A    between atoms: C_14  and  O_19
                            x       y       z     vdW  Elec       q    Type
                         _______ _______ _______ _____ _____    ______ ____

>  <TORSDO>
F 7

$$$$
=
 OpenBabel11052413483D

 27 29  0  0  1  0  0  0  0  0999 V2000
  187.8360  177.4690  143.3950 C   0  0  2  0  0  3  0  0  0  0  0  0
  183.8730  178.8220  144.3850 C   0  0  0  0  0  3  0  0  0  0  0  0
  186.4520  177.9450  143.7190 C   0  0  0  0  0  0  0  0  0  0  0  0
  185.4720  178.0820  142.7230 C   0  0  0  0  0  3  0  0  0  0  0  0
  184.1880  178.5240  143.0560 C   0  0  0  0  0  3  0  0  0  0  0  0
  184.8430  178.6790  145.3810 C   0  0  0  0  0  3  0  0  0  0  0  0
  186.1300  178.2430  145.0480 C   0  0  0  0  0  3  0  0  0  0  0  0
  188.9520  178.3310  144.0070 C   0  0  0  0  0  2  0  0  0  0  0  0
  191.7200  176.3850  145.7750 C   0  0  0  0  0  3  0  0  0  0  0  0
  191.2090  176.3210  147.0740 C   0  0  0  0  0  3  0  0  0  0  0  0
  189.7600  177.6330  145.0620 C   0  0  0  0  0  0  0  0  0  0  0  0
  191.5680  177.0520  143.3860 C   0  0  0  0  0  1  0  0  0  0  0  0
  189.9740  176.9030  147.3690 C   0  0  0  0  0  3  0  0  0  0  0  0
  189.2510  177.5530  146.3650 C   0  0  0  0  0  3  0  0  0  0  0  0
  191.0020  177.0350  144.7650 C   0  0  0  0  0  0  0  0  0  0  0  0
  188.0070  177.2810  141.9630 N   0  0  0  0  0  2  0  0  0  0  0  0
  188.6300  178.4960  141.4550 C   0  0  0  0  0  2  0  0  0  0  0  0
  189.8660  176.5840  138.7110 C   0  0  0  0  0  0  0  0  0  0  0  0
  190.3360  174.8230  137.1840 O   0  0  0  0  0  1  0  0  0  0  0  0
  188.4990  176.6970  138.3560 N   0  0  0  0  0  0  0  0  0  0  0  0
  187.8140  175.7700  137.6450 O   0  0  0  0  0  1  0  0  0  0  0  0
  187.8430  177.6900  139.1830 C   0  0  1  0  0  3  0  0  0  0  0  0
  190.7240  175.7200  138.1710 C   0  0  0  0  0  3  0  0  0  0  0  0
  188.9730  178.3660  139.9770 C   0  0  2  0  0  3  0  0  0  0  0  0
  190.2550  177.5510  139.7590 C   0  0  0  0  0  2  0  0  0  0  0  0
  185.5330  178.3730  138.6060 S   0  0  0  0  0  1  0  0  0  0  0  0
  187.2150  178.6370  138.3720 O   0  0  0  0  0  0  0  0  0  0  0  0
  1  3  1  0  0  0  0
  1  8  1  6  0  0  0
  2  6  1  0  0  0  0
  3  7  1  0  0  0  0
  4  5  1  0  0  0  0
  4  3  2  0  0  0  0
  5  2  2  0  0  0  0
  7  6  2  0  0  0  0
  8 11  1  0  0  0  0
  9 10  1  0  0  0  0
 10 13  2  0  0  0  0
 11 14  2  0  0  0  0
 12 15  1  0  0  0  0
 14 13  1  0  0  0  0
 15 11  1  0  0  0  0
 15  9  2  0  0  0  0
 16  1  1  0  0  0  0
 17 16  1  0  0  0  0
 18 25  1  0  0  0  0
 19 23  1  0  0  0  0
 20 18  1  0  0  0  0
 20 22  1  0  0  0  0
 21 20  1  0  0  0  0
 22 27  1  6  0  0  0
 22 24  1  0  0  0  0
 23 18  2  0  0  0  0
 24 17  1  1  0  0  0
 25 24  1  0  0  0  0
 27 26  1  0  0  0  0
M  END
>  <MODEL>
2

>  <REMARK>
 VINA RESULT:      -8.9      0.793      4.391
  Name = 
  7 active torsions:
  status: ('A' for Active; 'I' for Inactive)
    1  A    between atoms: C_1  and  C_15
    2  A    between atoms: C_1  and  C_18
    3  A    between atoms: N_2  and  C_6
    4  A    between atoms: N_2  and  C_15
    5  A    between atoms: C_6  and  C_17
    6  A    between atoms: C_9  and  C_15
    7  A    between atoms: C_14  and  O_19
                            x       y       z     vdW  Elec       q    Type
                         _______ _______ _______ _____ _____    ______ ____

>  <TORSDO>
F 7

$$$$
=
 OpenBabel11052413483D

 27 29  0  0  1  0  0  0  0  0999 V2000
  188.1640  177.5550  143.4860 C   0  0  2  0  0  3  0  0  0  0  0  0
  191.6280  176.6360  145.8680 C   0  0  0  0  0  3  0  0  0  0  0  0
  189.3620  177.2460  144.3320 C   0  0  0  0  0  0  0  0  0  0  0  0
  189.3220  177.3650  145.7310 C   0  0  0  0  0  3  0  0  0  0  0  0
  190.4540  177.0660  146.4940 C   0  0  0  0  0  3  0  0  0  0  0  0
  191.6690  176.5060  144.4760 C   0  0  0  0  0  3  0  0  0  0  0  0
  190.5390  176.8130  143.7110 C   0  0  0  0  0  3  0  0  0  0  0  0
  186.8650  176.8950  143.9770 C   0  0  0  0  0  2  0  0  0  0  0  0
  184.0830  179.2480  145.1150 C   0  0  0  0  0  3  0  0  0  0  0  0
  183.4240  179.4820  143.9040 C   0  0  0  0  0  3  0  0  0  0  0  0
  185.6720  177.8080  143.9740 C   0  0  0  0  0  0  0  0  0  0  0  0
  185.8570  178.1650  146.4750 C   0  0  0  0  0  1  0  0  0  0  0  0
  183.8790  178.8760  142.7320 C   0  0  0  0  0  3  0  0  0  0  0  0
  184.9970  178.0390  142.7680 C   0  0  0  0  0  3  0  0  0  0  0  0
  185.2030  178.4130  145.1580 C   0  0  0  0  0  0  0  0  0  0  0  0
  188.4260  177.2790  142.0820 N   0  0  0  0  0  2  0  0  0  0  0  0
  188.2940  178.5470  141.3770 C   0  0  0  0  0  2  0  0  0  0  0  0
  189.8180  176.6790  138.7490 C   0  0  0  0  0  0  0  0  0  0  0  0
  190.4770  174.9330  137.2760 O   0  0  0  0  0  1  0  0  0  0  0  0
  188.4780  176.7320  138.2890 N   0  0  0  0  0  0  0  0  0  0  0  0
  187.8890  175.7740  137.5350 O   0  0  0  0  0  1  0  0  0  0  0  0
  187.7190  177.6990  139.0570 C   0  0  1  0  0  3  0  0  0  0  0  0
  190.7500  175.8490  138.2830 C   0  0  0  0  0  3  0  0  0  0  0  0
  188.7550  178.4250  139.9300 C   0  0  2  0  0  3  0  0  0  0  0  0
  190.0830  177.6650  139.8170 C   0  0  0  0  0  2  0  0  0  0  0  0
  185.4300  178.3240  138.3490 S   0  0  0  0  0  1  0  0  0  0  0  0
  187.1160  178.6150  138.1930 O   0  0  0  0  0  0  0  0  0  0  0  0
  1  8  1  1  0  0  0
  1  3  1  0  0  0  0
  2  5  1  0  0  0  0
  3  4  1  0  0  0  0
  4  5  2  0  0  0  0
  6  2  2  0  0  0  0
  7  3  2  0  0  0  0
  7  6  1  0  0  0  0
  9 15  1  0  0  0  0
 10  9  2  0  0  0  0
 11  8  1  0  0  0  0
 11 15  2  0  0  0  0
 13 14  2  0  0  0  0
 13 10  1  0  0  0  0
 14 11  1  0  0  0  0
 15 12  1  0  0  0  0
 16  1  1  0  0  0  0
 17 16  1  0  0  0  0
 18 25  1  0  0  0  0
 19 23  1  0  0  0  0
 20 18  1  0  0  0  0
 20 22  1  0  0  0  0
 21 20  1  0  0  0  0
 22 27  1  6  0  0  0
 22 24  1  0  0  0  0
 23 18  2  0  0  0  0
 24 17  1  1  0  0  0
 25 24  1  0  0  0  0
 27 26  1  0  0  0  0
M  END
>  <MODEL>
3

>  <REMARK>
 VINA RESULT:      -8.8      0.879      1.586
  Name = 
  7 active torsions:
  status: ('A' for Active; 'I' for Inactive)
    1  A    between atoms: C_1  and  C_15
    2  A    between atoms: C_1  and  C_18
    3  A    between atoms: N_2  and  C_6
    4  A    between atoms: N_2  and  C_15
    5  A    between atoms: C_6  and  C_17
    6  A    between atoms: C_9  and  C_15
    7  A    between atoms: C_14  and  O_19
                            x       y       z     vdW  Elec       q    Type
                         _______ _______ _______ _____ _____    ______ ____

>  <TORSDO>
F 7

$$$$
=
 OpenBabel11052413483D

 27 29  0  0  1  0  0  0  0  0999 V2000
  187.7980  177.4000  143.6290 C   0  0  2  0  0  3  0  0  0  0  0  0
  183.8140  178.8120  144.4340 C   0  0  0  0  0  3  0  0  0  0  0  0
  186.4080  177.8970  143.8880 C   0  0  0  0  0  0  0  0  0  0  0  0
  185.4790  178.0530  142.8470 C   0  0  0  0  0  3  0  0  0  0  0  0
  184.1880  178.5150  143.1200 C   0  0  0  0  0  3  0  0  0  0  0  0
  184.7330  178.6500  145.4750 C   0  0  0  0  0  3  0  0  0  0  0  0
  186.0270  178.1950  145.2020 C   0  0  0  0  0  3  0  0  0  0  0  0
  188.8950  178.2260  144.3200 C   0  0  0  0  0  2  0  0  0  0  0  0
  190.8320  176.5240  147.1350 C   0  0  0  0  0  3  0  0  0  0  0  0
  191.8340  175.8720  146.4100 C   0  0  0  0  0  3  0  0  0  0  0  0
  189.9040  177.4040  145.0690 C   0  0  0  0  0  0  0  0  0  0  0  0
  188.8360  177.9950  147.2890 C   0  0  0  0  0  1  0  0  0  0  0  0
  191.8790  175.9900  145.0190 C   0  0  0  0  0  3  0  0  0  0  0  0
  190.9200  176.7570  144.3520 C   0  0  0  0  0  3  0  0  0  0  0  0
  189.8680  177.2910  146.4740 C   0  0  0  0  0  0  0  0  0  0  0  0
  188.0440  177.2410  142.2040 N   0  0  0  0  0  2  0  0  0  0  0  0
  188.6460  178.4850  141.7440 C   0  0  0  0  0  2  0  0  0  0  0  0
  189.9030  176.6890  138.9310 C   0  0  0  0  0  0  0  0  0  0  0  0
  190.3860  174.9920  137.3380 O   0  0  0  0  0  1  0  0  0  0  0  0
  188.5370  176.8110  138.5740 N   0  0  0  0  0  0  0  0  0  0  0  0
  187.8590  175.9110  137.8230 O   0  0  0  0  0  1  0  0  0  0  0  0
  187.8730  177.7670  139.4370 C   0  0  1  0  0  3  0  0  0  0  0  0
  190.7670  175.8490  138.3620 C   0  0  0  0  0  3  0  0  0  0  0  0
  188.9960  178.4150  140.2630 C   0  0  2  0  0  3  0  0  0  0  0  0
  190.2830  177.6140  140.0200 C   0  0  0  0  0  2  0  0  0  0  0  0
  185.5670  178.4010  138.7930 S   0  0  0  0  0  1  0  0  0  0  0  0
  187.2460  178.7430  138.6610 O   0  0  0  0  0  0  0  0  0  0  0  0
  1  3  1  0  0  0  0
  1  8  1  6  0  0  0
  2  6  1  0  0  0  0
  3  7  1  0  0  0  0
  4  5  1  0  0  0  0
  4  3  2  0  0  0  0
  5  2  2  0  0  0  0
  7  6  2  0  0  0  0
  8 11  1  0  0  0  0
 10  9  2  0  0  0  0
 11 15  2  0  0  0  0
 13 10  1  0  0  0  0
 14 13  2  0  0  0  0
 14 11  1  0  0  0  0
 15  9  1  0  0  0  0
 15 12  1  0  0  0  0
 16  1  1  0  0  0  0
 17 16  1  0  0  0  0
 18 25  1  0  0  0  0
 19 23  1  0  0  0  0
 20 18  1  0  0  0  0
 20 22  1  0  0  0  0
 21 20  1  0  0  0  0
 22 27  1  6  0  0  0
 22 24  1  0  0  0  0
 23 18  2  0  0  0  0
 24 17  1  1  0  0  0
 25 24  1  0  0  0  0
 27 26  1  0  0  0  0
M  END
>  <MODEL>
4

>  <REMARK>
 VINA RESULT:      -8.6      0.800      4.562
  Name = 
  7 active torsions:
  status: ('A' for Active; 'I' for Inactive)
    1  A    between atoms: C_1  and  C_15
    2  A    between atoms: C_1  and  C_18
    3  A    between atoms: N_2  and  C_6
    4  A    between atoms: N_2  and  C_15
    5  A    between atoms: C_6  and  C_17
    6  A    between atoms: C_9  and  C_15
    7  A    between atoms: C_14  and  O_19
                            x       y       z     vdW  Elec       q    Type
                         _______ _______ _______ _____ _____    ______ ____

>  <TORSDO>
F 7

$$$$
=
 OpenBabel11052413483D

 27 29  0  0  1  0  0  0  0  0999 V2000
  187.5080  178.0490  143.4590 C   0  0  2  0  0  3  0  0  0  0  0  0
  191.6220  176.9530  142.8340 C   0  0  0  0  0  3  0  0  0  0  0  0
  188.9470  177.6890  143.2410 C   0  0  0  0  0  0  0  0  0  0  0  0
  189.9760  178.6220  143.4450 C   0  0  0  0  0  3  0  0  0  0  0  0
  191.3090  178.2550  143.2370 C   0  0  0  0  0  3  0  0  0  0  0  0
  190.6010  176.0190  142.6390 C   0  0  0  0  0  3  0  0  0  0  0  0
  189.2670  176.3860  142.8400 C   0  0  0  0  0  3  0  0  0  0  0  0
  186.8370  177.2710  144.6030 C   0  0  0  0  0  2  0  0  0  0  0  0
  187.2400  178.5570  148.1750 C   0  0  0  0  0  3  0  0  0  0  0  0
  188.5270  178.1030  148.4750 C   0  0  0  0  0  3  0  0  0  0  0  0
  187.4030  177.5660  145.9630 C   0  0  0  0  0  0  0  0  0  0  0  0
  185.3090  178.8240  146.6340 C   0  0  0  0  0  1  0  0  0  0  0  0
  189.2570  177.3900  147.5220 C   0  0  0  0  0  3  0  0  0  0  0  0
  188.6970  177.1260  146.2680 C   0  0  0  0  0  3  0  0  0  0  0  0
  186.6730  178.2940  146.9240 C   0  0  0  0  0  0  0  0  0  0  0  0
  186.7510  177.9710  142.2200 N   0  0  0  0  0  2  0  0  0  0  0  0
  185.6650  178.9340  142.3340 C   0  0  0  0  0  2  0  0  0  0  0  0
  182.1350  178.9870  142.8370 C   0  0  0  0  0  0  0  0  0  0  0  0
  179.8510  179.6400  142.9130 O   0  0  0  0  0  1  0  0  0  0  0  0
  182.1970  178.9090  141.4230 N   0  0  0  0  0  0  0  0  0  0  0  0
  181.2700  179.4360  140.5870 O   0  0  0  0  0  1  0  0  0  0  0  0
  183.5410  178.5810  140.9930 C   0  0  1  0  0  3  0  0  0  0  0  0
  181.0520  179.3230  143.5350 C   0  0  0  0  0  3  0  0  0  0  0  0
  184.3070  178.2460  142.2830 C   0  0  2  0  0  3  0  0  0  0  0  0
  183.4240  178.6410  143.4740 C   0  0  0  0  0  2  0  0  0  0  0  0
  184.0700  178.0140  138.6410 S   0  0  0  0  0  1  0  0  0  0  0  0
  183.5090  177.4570  140.1670 O   0  0  0  0  0  0  0  0  0  0  0  0
  1  8  1  1  0  0  0
  2  5  1  0  0  0  0
  3  4  1  0  0  0  0
  3  1  1  0  0  0  0
  5  4  2  0  0  0  0
  6  2  2  0  0  0  0
  6  7  1  0  0  0  0
  7  3  2  0  0  0  0
  8 11  1  0  0  0  0
  9 10  1  0  0  0  0
 11 14  2  0  0  0  0
 11 15  1  0  0  0  0
 12 15  1  0  0  0  0
 13 10  2  0  0  0  0
 14 13  1  0  0  0  0
 15  9  2  0  0  0  0
 16 17  1  0  0  0  0
 16  1  1  0  0  0  0
 18 25  1  0  0  0  0
 18 23  2  0  0  0  0
 19 23  1  0  0  0  0
 20 18  1  0  0  0  0
 21 20  1  0  0  0  0
 22 27  1  6  0  0  0
 22 20  1  0  0  0  0
 22 24  1  0  0  0  0
 24 17  1  6  0  0  0
 24 25  1  0  0  0  0
 26 27  1  0  0  0  0
M  END
>  <MODEL>
5

>  <REMARK>
 VINA RESULT:      -8.4      3.244      5.895
  Name = 
  7 active torsions:
  status: ('A' for Active; 'I' for Inactive)
    1  A    between atoms: C_1  and  C_15
    2  A    between atoms: C_1  and  C_18
    3  A    between atoms: N_2  and  C_6
    4  A    between atoms: N_2  and  C_15
    5  A    between atoms: C_6  and  C_17
    6  A    between atoms: C_9  and  C_15
    7  A    between atoms: C_14  and  O_19
                            x       y       z     vdW  Elec       q    Type
                         _______ _______ _______ _____ _____    ______ ____

>  <TORSDO>
F 7

$$$$
=
 OpenBabel11052413483D

 27 29  0  0  1  0  0  0  0  0999 V2000
  190.0540  177.7010  141.2700 C   0  0  2  0  0  3  0  0  0  0  0  0
  189.7670  177.2220  137.0030 C   0  0  0  0  0  3  0  0  0  0  0  0
  189.9370  177.5490  139.7830 C   0  0  0  0  0  0  0  0  0  0  0  0
  189.2490  178.4900  139.0010 C   0  0  0  0  0  3  0  0  0  0  0  0
  189.1600  178.3230  137.6160 C   0  0  0  0  0  3  0  0  0  0  0  0
  190.4610  176.2880  137.7770 C   0  0  0  0  0  3  0  0  0  0  0  0
  190.5450  176.4500  139.1640 C   0  0  0  0  0  3  0  0  0  0  0  0
  191.4700  177.4520  141.8140 C   0  0  0  0  0  2  0  0  0  0  0  0
  191.4390  177.6870  145.6240 C   0  0  0  0  0  3  0  0  0  0  0  0
  191.6310  176.3470  145.9730 C   0  0  0  0  0  3  0  0  0  0  0  0
  191.5150  177.0890  143.2710 C   0  0  0  0  0  0  0  0  0  0  0  0
  191.2080  179.5090  143.9510 C   0  0  0  0  0  1  0  0  0  0  0  0
  191.7730  175.3790  144.9760 C   0  0  0  0  0  3  0  0  0  0  0  0
  191.7190  175.7500  143.6300 C   0  0  0  0  0  3  0  0  0  0  0  0
  191.3820  178.0650  144.2790 C   0  0  0  0  0  0  0  0  0  0  0  0
  189.0510  176.9070  141.9610 N   0  0  0  0  0  2  0  0  0  0  0  0
  187.9370  177.8010  142.2480 C   0  0  0  0  0  2  0  0  0  0  0  0
  187.3430  177.7060  145.7630 C   0  0  0  0  0  0  0  0  0  0  0  0
  187.0990  178.2970  148.0530 O   0  0  0  0  0  1  0  0  0  0  0  0
  186.2050  178.4280  145.3250 N   0  0  0  0  0  0  0  0  0  0  0  0
  185.5650  179.3680  146.0610 O   0  0  0  0  0  1  0  0  0  0  0  0
  186.0760  178.3420  143.8840 C   0  0  1  0  0  3  0  0  0  0  0  0
  187.7620  177.6380  147.0260 C   0  0  0  0  0  3  0  0  0  0  0  0
  187.1310  177.3130  143.4450 C   0  0  2  0  0  3  0  0  0  0  0  0
  188.0280  177.0120  144.6520 C   0  0  0  0  0  2  0  0  0  0  0  0
  184.3260  178.8090  142.1950 S   0  0  0  0  0  1  0  0  0  0  0  0
  184.8040  177.8720  143.5540 O   0  0  0  0  0  0  0  0  0  0  0  0
  1  8  1  1  0  0  0
  1 16  1  0  0  0  0
  2  5  2  0  0  0  0
  2  6  1  0  0  0  0
  3  1  1  0  0  0  0
  4  3  2  0  0  0  0
  5  4  1  0  0  0  0
  6  7  2  0  0  0  0
  7  3  1  0  0  0  0
  8 11  1  0  0  0  0
  9 10  1  0  0  0  0
 11 14  2  0  0  0  0
 11 15  1  0  0  0  0
 12 15  1  0  0  0  0
 13 10  2  0  0  0  0
 14 13  1  0  0  0  0
 15  9  2  0  0  0  0
 16 17  1  0  0  0  0
 18 23  2  0  0  0  0
 20 18  1  0  0  0  0
 20 21  1  0  0  0  0
 22 27  1  1  0  0  0
 22 20  1  0  0  0  0
 23 19  1  0  0  0  0
 24 17  1  6  0  0  0
 24 22  1  0  0  0  0
 24 25  1  0  0  0  0
 25 18  1  0  0  0  0
 26 27  1  0  0  0  0
M  END
>  <MODEL>
6

>  <REMARK>
 VINA RESULT:      -8.3      3.170      7.027
  Name = 
  7 active torsions:
  status: ('A' for Active; 'I' for Inactive)
    1  A    between atoms: C_1  and  C_15
    2  A    between atoms: C_1  and  C_18
    3  A    between atoms: N_2  and  C_6
    4  A    between atoms: N_2  and  C_15
    5  A    between atoms: C_6  and  C_17
    6  A    between atoms: C_9  and  C_15
    7  A    between atoms: C_14  and  O_19
                            x       y       z     vdW  Elec       q    Type
                         _______ _______ _______ _____ _____    ______ ____

>  <TORSDO>
F 7

$$$$
=
 OpenBabel11052413483D

 27 29  0  0  1  0  0  0  0  0999 V2000
  187.1160  177.4940  142.7630 C   0  0  2  0  0  3  0  0  0  0  0  0
  183.3680  179.1630  144.0620 C   0  0  0  0  0  3  0  0  0  0  0  0
  185.8040  178.0790  143.1950 C   0  0  0  0  0  0  0  0  0  0  0  0
  184.7310  178.2120  142.3000 C   0  0  0  0  0  3  0  0  0  0  0  0
  183.5180  178.7570  142.7320 C   0  0  0  0  0  3  0  0  0  0  0  0
  184.4320  179.0240  144.9580 C   0  0  0  0  0  3  0  0  0  0  0  0
  185.6470  178.4850  144.5250 C   0  0  0  0  0  3  0  0  0  0  0  0
  187.6170  176.3530  143.6630 C   0  0  0  0  0  2  0  0  0  0  0  0
  190.5810  177.2290  145.9050 C   0  0  0  0  0  3  0  0  0  0  0  0
  191.6510  176.9000  145.0670 C   0  0  0  0  0  3  0  0  0  0  0  0
  189.0150  176.5440  144.1770 C   0  0  0  0  0  0  0  0  0  0  0  0
  188.1520  177.4500  146.3800 C   0  0  0  0  0  1  0  0  0  0  0  0
  191.4080  176.4020  143.7860 C   0  0  0  0  0  3  0  0  0  0  0  0
  190.0940  176.2290  143.3410 C   0  0  0  0  0  3  0  0  0  0  0  0
  189.2640  177.0560  145.4670 C   0  0  0  0  0  0  0  0  0  0  0  0
  188.1190  178.5300  142.5770 N   0  0  0  0  0  2  0  0  0  0  0  0
  187.9290  179.0580  141.2330 C   0  0  0  0  0  2  0  0  0  0  0  0
  187.5450  177.9430  137.8680 C   0  0  0  0  0  0  0  0  0  0  0  0
  187.6080  177.7800  135.4970 O   0  0  0  0  0  1  0  0  0  0  0  0
  188.9410  177.7700  138.0430 N   0  0  0  0  0  0  0  0  0  0  0  0
  189.8550  177.8750  137.0490 O   0  0  0  0  0  1  0  0  0  0  0  0
  189.2920  177.8870  139.4440 C   0  0  1  0  0  3  0  0  0  0  0  0
  186.9200  177.9460  136.6920 C   0  0  0  0  0  3  0  0  0  0  0  0
  187.9510  177.9450  140.1940 C   0  0  2  0  0  3  0  0  0  0  0  0
  186.8360  178.1150  139.1540 C   0  0  0  0  0  2  0  0  0  0  0  0
  191.6100  177.3000  140.0890 S   0  0  0  0  0  1  0  0  0  0  0  0
  189.9990  176.7530  139.8460 O   0  0  0  0  0  0  0  0  0  0  0  0
  1  3  1  0  0  0  0
  1  8  1  1  0  0  0
  2  6  1  0  0  0  0
  3  7  1  0  0  0  0
  4  5  1  0  0  0  0
  4  3  2  0  0  0  0
  5  2  2  0  0  0  0
  7  6  2  0  0  0  0
  8 11  1  0  0  0  0
 10  9  2  0  0  0  0
 11 15  2  0  0  0  0
 13 10  1  0  0  0  0
 14 13  2  0  0  0  0
 14 11  1  0  0  0  0
 15  9  1  0  0  0  0
 15 12  1  0  0  0  0
 16  1  1  0  0  0  0
 17 16  1  0  0  0  0
 18 20  1  0  0  0  0
 18 25  1  0  0  0  0
 19 23  1  0  0  0  0
 20 22  1  0  0  0  0
 21 20  1  0  0  0  0
 22 27  1  1  0  0  0
 22 24  1  0  0  0  0
 23 18  2  0  0  0  0
 24 17  1  1  0  0  0
 25 24  1  0  0  0  0
 27 26  1  0  0  0  0
M  END
>  <MODEL>
7

>  <REMARK>
 VINA RESULT:      -8.0      1.916      5.039
  Name = 
  7 active torsions:
  status: ('A' for Active; 'I' for Inactive)
    1  A    between atoms: C_1  and  C_15
    2  A    between atoms: C_1  and  C_18
    3  A    between atoms: N_2  and  C_6
    4  A    between atoms: N_2  and  C_15
    5  A    between atoms: C_6  and  C_17
    6  A    between atoms: C_9  and  C_15
    7  A    between atoms: C_14  and  O_19
                            x       y       z     vdW  Elec       q    Type
                         _______ _______ _______ _____ _____    ______ ____

>  <TORSDO>
F 7

$$$$
=
 OpenBabel11052413483D

 27 29  0  0  1  0  0  0  0  0999 V2000
  187.6670  177.9950  142.6130 C   0  0  2  0  0  3  0  0  0  0  0  0
  191.4680  177.4890  140.6590 C   0  0  0  0  0  3  0  0  0  0  0  0
  189.0010  177.8270  141.9500 C   0  0  0  0  0  0  0  0  0  0  0  0
  190.1940  177.8280  142.6910 C   0  0  0  0  0  3  0  0  0  0  0  0
  191.4230  177.6650  142.0450 C   0  0  0  0  0  3  0  0  0  0  0  0
  190.2820  177.4780  139.9180 C   0  0  0  0  0  3  0  0  0  0  0  0
  189.0520  177.6480  140.5630 C   0  0  0  0  0  3  0  0  0  0  0  0
  187.3710  176.9440  143.6950 C   0  0  0  0  0  2  0  0  0  0  0  0
  188.4100  177.8920  147.2440 C   0  0  0  0  0  3  0  0  0  0  0  0
  187.2430  178.5080  147.7050 C   0  0  0  0  0  3  0  0  0  0  0  0
  187.3520  177.4900  145.0940 C   0  0  0  0  0  0  0  0  0  0  0  0
  189.7250  176.7030  145.5040 C   0  0  0  0  0  1  0  0  0  0  0  0
  186.1290  178.6090  146.8690 C   0  0  0  0  0  3  0  0  0  0  0  0
  186.1830  178.0970  145.5700 C   0  0  0  0  0  3  0  0  0  0  0  0
  188.4720  177.3800  145.9440 C   0  0  0  0  0  0  0  0  0  0  0  0
  186.5990  178.0910  141.6310 N   0  0  0  0  0  2  0  0  0  0  0  0
  185.5770  178.9520  142.2100 C   0  0  0  0  0  2  0  0  0  0  0  0
  182.0590  179.0170  142.7930 C   0  0  0  0  0  0  0  0  0  0  0  0
  179.7680  179.6480  142.8540 O   0  0  0  0  0  1  0  0  0  0  0  0
  182.0890  178.7850  141.3950 N   0  0  0  0  0  0  0  0  0  0  0  0
  181.1350  179.2050  140.5290 O   0  0  0  0  0  1  0  0  0  0  0  0
  183.4270  178.4270  140.9700 C   0  0  1  0  0  3  0  0  0  0  0  0
  180.9880  179.4150  143.4760 C   0  0  0  0  0  3  0  0  0  0  0  0
  184.2280  178.2450  142.2700 C   0  0  2  0  0  3  0  0  0  0  0  0
  183.3670  178.7590  143.4310 C   0  0  0  0  0  2  0  0  0  0  0  0
  183.5920  177.6530  138.6240 S   0  0  0  0  0  1  0  0  0  0  0  0
  183.3920  177.2190  140.2740 O   0  0  0  0  0  0  0  0  0  0  0  0
  1  8  1  1  0  0  0
  2  5  1  0  0  0  0
  3  1  1  0  0  0  0
  3  4  1  0  0  0  0
  5  4  2  0  0  0  0
  6  7  1  0  0  0  0
  6  2  2  0  0  0  0
  7  3  2  0  0  0  0
  8 11  1  0  0  0  0
  9 10  1  0  0  0  0
 11 14  2  0  0  0  0
 11 15  1  0  0  0  0
 12 15  1  0  0  0  0
 13 10  2  0  0  0  0
 14 13  1  0  0  0  0
 15  9  2  0  0  0  0
 16 17  1  0  0  0  0
 16  1  1  0  0  0  0
 18 25  1  0  0  0  0
 18 23  2  0  0  0  0
 19 23  1  0  0  0  0
 20 18  1  0  0  0  0
 21 20  1  0  0  0  0
 22 27  1  1  0  0  0
 22 20  1  0  0  0  0
 22 24  1  0  0  0  0
 24 17  1  6  0  0  0
 24 25  1  0  0  0  0
 26 27  1  0  0  0  0
M  END
>  <MODEL>
8

>  <REMARK>
 VINA RESULT:      -7.9      3.229      6.117
  Name = 
  7 active torsions:
  status: ('A' for Active; 'I' for Inactive)
    1  A    between atoms: C_1  and  C_15
    2  A    between atoms: C_1  and  C_18
    3  A    between atoms: N_2  and  C_6
    4  A    between atoms: N_2  and  C_15
    5  A    between atoms: C_6  and  C_17
    6  A    between atoms: C_9  and  C_15
    7  A    between atoms: C_14  and  O_19
                            x       y       z     vdW  Elec       q    Type
                         _______ _______ _______ _____ _____    ______ ____

>  <TORSDO>
F 7

$$$$
=
 OpenBabel11052413483D

 27 29  0  0  1  0  0  0  0  0999 V2000
  186.9810  178.6600  142.2430 C   0  0  2  0  0  3  0  0  0  0  0  0
  190.2620  176.9570  140.0410 C   0  0  0  0  0  3  0  0  0  0  0  0
  188.1350  178.0640  141.4950 C   0  0  0  0  0  0  0  0  0  0  0  0
  189.1190  177.3060  142.1480 C   0  0  0  0  0  3  0  0  0  0  0  0
  190.1820  176.7590  141.4230 C   0  0  0  0  0  3  0  0  0  0  0  0
  189.2790  177.7040  139.3850 C   0  0  0  0  0  3  0  0  0  0  0  0
  188.2190  178.2570  140.1110 C   0  0  0  0  0  3  0  0  0  0  0  0
  186.2260  177.6560  143.1290 C   0  0  0  0  0  2  0  0  0  0  0  0
  185.6750  178.6660  146.7690 C   0  0  0  0  0  3  0  0  0  0  0  0
  186.8760  178.2430  147.3450 C   0  0  0  0  0  3  0  0  0  0  0  0
  186.4270  177.8640  144.6030 C   0  0  0  0  0  0  0  0  0  0  0  0
  184.1630  178.9770  144.8230 C   0  0  0  0  0  1  0  0  0  0  0  0
  187.8560  177.6400  146.5540 C   0  0  0  0  0  3  0  0  0  0  0  0
  187.6330  177.4550  145.1870 C   0  0  0  0  0  3  0  0  0  0  0  0
  185.4440  178.4820  145.4020 C   0  0  0  0  0  0  0  0  0  0  0  0
  186.0910  179.3840  141.3490 N   0  0  0  0  0  2  0  0  0  0  0  0
  184.8180  178.6780  141.3670 C   0  0  0  0  0  2  0  0  0  0  0  0
  183.6150  177.7130  138.1510 C   0  0  0  0  0  0  0  0  0  0  0  0
  182.7430  176.4750  136.3180 O   0  0  0  0  0  1  0  0  0  0  0  0
  182.4090  177.7010  138.8960 N   0  0  0  0  0  0  0  0  0  0  0  0
  181.3590  176.8860  138.6380 O   0  0  0  0  0  1  0  0  0  0  0  0
  182.6010  178.3480  140.1790 C   0  0  1  0  0  3  0  0  0  0  0  0
  183.7770  177.1490  136.9560 C   0  0  0  0  0  3  0  0  0  0  0  0
  184.0060  178.9700  140.1120 C   0  0  2  0  0  3  0  0  0  0  0  0
  184.6980  178.4380  138.8490 C   0  0  0  0  0  2  0  0  0  0  0  0
  180.8330  178.9650  141.7990 S   0  0  0  0  0  1  0  0  0  0  0  0
  181.6530  179.3590  140.3420 O   0  0  0  0  0  0  0  0  0  0  0  0
  1  8  1  6  0  0  0
  2  5  1  0  0  0  0
  3  4  1  0  0  0  0
  3  1  1  0  0  0  0
  5  4  2  0  0  0  0
  6  2  2  0  0  0  0
  6  7  1  0  0  0  0
  7  3  2  0  0  0  0
  8 11  1  0  0  0  0
  9 10  1  0  0  0  0
 11 14  2  0  0  0  0
 11 15  1  0  0  0  0
 12 15  1  0  0  0  0
 13 10  2  0  0  0  0
 14 13  1  0  0  0  0
 15  9  2  0  0  0  0
 16 17  1  0  0  0  0
 16  1  1  0  0  0  0
 18 25  1  0  0  0  0
 18 20  1  0  0  0  0
 19 23  1  0  0  0  0
 20 22  1  0  0  0  0
 21 20  1  0  0  0  0
 22 27  1  6  0  0  0
 23 18  2  0  0  0  0
 24 22  1  0  0  0  0
 24 17  1  1  0  0  0
 25 24  1  0  0  0  0
 27 26  1  0  0  0  0
M  END
>  <MODEL>
9

>  <REMARK>
 VINA RESULT:      -7.9      3.436      5.304
  Name = 
  7 active torsions:
  status: ('A' for Active; 'I' for Inactive)
    1  A    between atoms: C_1  and  C_15
    2  A    between atoms: C_1  and  C_18
    3  A    between atoms: N_2  and  C_6
    4  A    between atoms: N_2  and  C_15
    5  A    between atoms: C_6  and  C_17
    6  A    between atoms: C_9  and  C_15
    7  A    between atoms: C_14  and  O_19
                            x       y       z     vdW  Elec       q    Type
                         _______ _______ _______ _____ _____    ______ ____

>  <TORSDO>
F 7

$$$$
