=
 OpenBabel11052414403D

 32 37  0  0  1  0  0  0  0  0999 V2000
  187.8290  177.7730  144.7460 C   0  0  0  0  0  0  0  0  0  0  0  0
  185.9170  178.3790  143.3230 C   0  0  0  0  0  0  0  0  0  0  0  0
  188.3510  177.5840  146.0350 C   0  0  0  0  0  3  0  0  0  0  0  0
  186.4690  178.1250  144.5970 C   0  0  0  0  0  0  0  0  0  0  0  0
  184.5730  178.8080  143.2130 C   0  0  0  0  0  0  0  0  0  0  0  0
  185.0890  179.4630  138.4670 N   0  0  0  0  0  2  0  0  0  0  0  0
  186.6750  178.1930  142.1490 C   0  0  0  0  0  0  0  0  0  0  0  0
  184.1080  179.2030  139.5220 C   0  0  0  0  0  2  0  0  0  0  0  0
  184.7770  178.9570  140.8460 C   0  0  0  0  0  0  0  0  0  0  0  0
  185.6520  178.2500  145.7460 C   0  0  0  0  0  0  0  0  0  0  0  0
  184.0520  179.0850  141.9870 N   0  0  0  0  0  0  0  0  0  0  0  0
  184.3170  178.6380  145.6190 C   0  0  0  0  0  3  0  0  0  0  0  0
  186.1860  178.0240  147.0170 C   0  0  0  0  0  3  0  0  0  0  0  0
  188.0280  177.5370  142.2260 C   0  0  0  0  0  2  0  0  0  0  0  0
  188.7560  177.8030  143.5530 C   0  0  2  0  0  3  0  0  0  0  0  0
  186.0970  178.4690  140.8990 C   0  0  0  0  0  0  0  0  0  0  0  0
  183.7750  178.9210  144.3640 C   0  0  0  0  0  0  0  0  0  0  0  0
  187.5340  177.6910  147.1610 C   0  0  0  0  0  3  0  0  0  0  0  0
  185.9940  178.3190  138.3960 C   0  0  0  0  0  2  0  0  0  0  0  0
  186.8940  178.3020  139.6280 C   0  0  0  0  0  2  0  0  0  0  0  0
  182.3480  179.3580  144.2730 C   0  0  0  0  0  2  0  0  0  0  0  0
  181.5170  178.2390  144.2070 O   0  0  0  0  0  1  0  0  0  0  0  0
  189.9350  176.9400  143.7430 N   0  0  0  0  0  0  0  0  0  0  0  0
  191.0940  177.7550  144.1510 C   0  0  1  0  0  3  0  0  0  0  0  0
  190.8480  179.2340  143.9070 C   0  0  0  0  0  1  0  0  0  0  0  0
  191.6560  177.4560  145.5570 C   0  0  0  0  0  2  0  0  0  0  0  0
  191.8050  175.9680  145.8410 C   0  0  0  0  0  1  0  0  0  0  0  0
  190.1880  176.0930  142.5710 C   0  0  0  0  0  2  0  0  0  0  0  0
  191.3480  176.6490  141.7630 C   0  0  0  0  0  2  0  0  0  0  0  0
  191.7680  176.7790  139.3520 C   0  0  0  0  0  2  0  0  0  0  0  0
  190.5640  176.0950  139.5890 O   0  0  0  0  0  0  0  0  0  0  0  0
  190.8480  177.1820  140.4360 C   0  0  1  0  0  3  0  0  0  0  0  0
  1  3  1  0  0  0  0
  2  4  1  0  0  0  0
  3 18  2  0  0  0  0
  4  1  2  0  0  0  0
  4 10  1  0  0  0  0
  5  2  1  0  0  0  0
  5 17  1  0  0  0  0
  6  8  1  0  0  0  0
  7 14  1  0  0  0  0
  7  2  2  0  0  0  0
  8  9  1  0  0  0  0
  9 16  2  0  0  0  0
  9 11  1  0  0  0  0
 10 13  2  0  0  0  0
 11  5  2  0  0  0  0
 12 10  1  0  0  0  0
 13 18  1  0  0  0  0
 14 15  1  0  0  0  0
 15 23  1  1  0  0  0
 15  1  1  0  0  0  0
 16  7  1  0  0  0  0
 17 12  2  0  0  0  0
 19  6  1  0  0  0  0
 19 20  1  0  0  0  0
 20 16  1  0  0  0  0
 21 17  1  0  0  0  0
 22 21  1  0  0  0  0
 23 24  1  0  0  0  0
 24 25  1  1  0  0  0
 24 26  1  0  0  0  0
 26 27  1  0  0  0  0
 28 23  1  0  0  0  0
 29 28  1  0  0  0  0
 30 31  1  0  0  0  0
 30 32  1  0  0  0  0
 31 32  1  0  0  0  0
 32 29  1  1  0  0  0
M  END
>  <MODEL>
1

>  <REMARK>
 VINA RESULT:      -9.1      0.000      0.000
  Name = 
  7 active torsions:
  status: ('A' for Active; 'I' for Inactive)
    1  A    between atoms: C_3  and  C_22
    2  A    between atoms: C_13  and  C_29
    3  A    between atoms: C_15  and  C_20
    4  A    between atoms: C_15  and  C_26
    5  A    between atoms: N_16  and  C_20
    6  A    between atoms: N_16  and  C_22
    7  A    between atoms: N_16  and  C_27
                            x       y       z     vdW  Elec       q    Type
                         _______ _______ _______ _____ _____    ______ ____

>  <TORSDO>
F 7

$$$$
=
 OpenBabel11052414403D

 32 37  0  0  1  0  0  0  0  0999 V2000
  184.3590  178.5640  142.7610 C   0  0  0  0  0  0  0  0  0  0  0  0
  186.7710  178.1020  142.9080 C   0  0  0  0  0  0  0  0  0  0  0  0
  183.1370  178.7720  143.4190 C   0  0  0  0  0  3  0  0  0  0  0  0
  185.5300  178.3700  143.5270 C   0  0  0  0  0  0  0  0  0  0  0  0
  187.9090  177.8310  143.7040 C   0  0  0  0  0  0  0  0  0  0  0  0
  190.5080  176.8110  139.7770 N   0  0  0  0  0  2  0  0  0  0  0  0
  186.9040  178.1180  141.5050 C   0  0  0  0  0  0  0  0  0  0  0  0
  190.5990  177.2550  141.1680 C   0  0  0  0  0  2  0  0  0  0  0  0
  189.2380  177.5040  141.7560 C   0  0  0  0  0  0  0  0  0  0  0  0
  185.4560  178.4190  144.9400 C   0  0  0  0  0  0  0  0  0  0  0  0
  189.0960  177.5400  143.1060 N   0  0  0  0  0  0  0  0  0  0  0  0
  186.5950  178.1870  145.7120 C   0  0  0  0  0  3  0  0  0  0  0  0
  184.2330  178.6610  145.5710 C   0  0  0  0  0  3  0  0  0  0  0  0
  185.7670  178.6090  140.6490 C   0  0  0  0  0  2  0  0  0  0  0  0
  184.3850  178.3450  141.2670 C   0  0  2  0  0  3  0  0  0  0  0  0
  188.1500  177.8330  140.9230 C   0  0  0  0  0  0  0  0  0  0  0  0
  187.8180  177.8900  145.1050 C   0  0  0  0  0  0  0  0  0  0  0  0
  183.0760  178.8380  144.8110 C   0  0  0  0  0  3  0  0  0  0  0  0
  189.7870  177.8300  139.0200 C   0  0  0  0  0  2  0  0  0  0  0  0
  188.3150  177.8180  139.4220 C   0  0  0  0  0  2  0  0  0  0  0  0
  189.0090  177.6240  145.9670 C   0  0  0  0  0  2  0  0  0  0  0  0
  188.5930  177.1570  147.2140 O   0  0  0  0  0  1  0  0  0  0  0  0
  183.3020  179.0700  140.5800 N   0  0  0  0  0  0  0  0  0  0  0  0
  182.2240  178.1330  140.2130 C   0  0  1  0  0  3  0  0  0  0  0  0
  182.7480  176.7160  140.0550 C   0  0  0  0  0  1  0  0  0  0  0  0
  180.9470  178.2170  141.0760 C   0  0  0  0  0  2  0  0  0  0  0  0
  179.9080  177.1650  140.7180 C   0  0  0  0  0  1  0  0  0  0  0  0
  183.8040  179.8660  139.4540 C   0  0  0  0  0  2  0  0  0  0  0  0
  182.6910  180.1190  138.4520 C   0  0  0  0  0  2  0  0  0  0  0  0
  180.9090  181.6740  137.8070 C   0  0  0  0  0  2  0  0  0  0  0  0
  180.7730  181.3280  139.1630 O   0  0  0  0  0  0  0  0  0  0  0  0
  182.0860  181.4890  138.6830 C   0  0  1  0  0  3  0  0  0  0  0  0
  1  3  2  0  0  0  0
  1  4  1  0  0  0  0
  2  4  2  0  0  0  0
  2  5  1  0  0  0  0
  3 18  1  0  0  0  0
  4 10  1  0  0  0  0
  5 17  2  0  0  0  0
  6  8  1  0  0  0  0
  7  2  1  0  0  0  0
  8  9  1  0  0  0  0
  9 11  2  0  0  0  0
 10 13  1  0  0  0  0
 10 12  2  0  0  0  0
 11  5  1  0  0  0  0
 14 15  1  0  0  0  0
 14  7  1  0  0  0  0
 15 23  1  6  0  0  0
 15  1  1  0  0  0  0
 16  7  2  0  0  0  0
 16  9  1  0  0  0  0
 17 12  1  0  0  0  0
 17 21  1  0  0  0  0
 18 13  2  0  0  0  0
 19 20  1  0  0  0  0
 19  6  1  0  0  0  0
 20 16  1  0  0  0  0
 21 22  1  0  0  0  0
 24 25  1  1  0  0  0
 24 23  1  0  0  0  0
 24 26  1  0  0  0  0
 27 26  1  0  0  0  0
 28 23  1  0  0  0  0
 29 28  1  0  0  0  0
 30 32  1  0  0  0  0
 30 31  1  0  0  0  0
 32 29  1  6  0  0  0
 32 31  1  0  0  0  0
M  END
>  <MODEL>
2

>  <REMARK>
 VINA RESULT:      -8.7      2.605      6.852
  Name = 
  7 active torsions:
  status: ('A' for Active; 'I' for Inactive)
    1  A    between atoms: C_3  and  C_22
    2  A    between atoms: C_13  and  C_29
    3  A    between atoms: C_15  and  C_20
    4  A    between atoms: C_15  and  C_26
    5  A    between atoms: N_16  and  C_20
    6  A    between atoms: N_16  and  C_22
    7  A    between atoms: N_16  and  C_27
                            x       y       z     vdW  Elec       q    Type
                         _______ _______ _______ _____ _____    ______ ____

>  <TORSDO>
F 7

$$$$
=
 OpenBabel11052414403D

 32 37  0  0  1  0  0  0  0  0999 V2000
  189.6710  177.7380  142.0060 C   0  0  0  0  0  0  0  0  0  0  0  0
  187.8400  177.8710  143.6440 C   0  0  0  0  0  0  0  0  0  0  0  0
  191.0340  177.5290  141.7490 C   0  0  0  0  0  3  0  0  0  0  0  0
  189.1930  177.6160  143.3300 C   0  0  0  0  0  0  0  0  0  0  0  0
  187.4090  177.8200  144.9900 C   0  0  0  0  0  0  0  0  0  0  0  0
  183.0330  179.3960  143.7320 N   0  0  0  0  0  2  0  0  0  0  0  0
  186.8990  178.1590  142.6340 C   0  0  0  0  0  0  0  0  0  0  0  0
  183.7670  178.6400  144.7480 C   0  0  0  0  0  2  0  0  0  0  0  0
  185.1990  178.4240  144.3440 C   0  0  0  0  0  0  0  0  0  0  0  0
  190.0890  177.2560  144.3650 C   0  0  0  0  0  0  0  0  0  0  0  0
  186.1120  178.1000  145.2950 N   0  0  0  0  0  0  0  0  0  0  0  0
  189.6420  177.1730  145.6850 C   0  0  0  0  0  3  0  0  0  0  0  0
  191.4360  177.0210  144.0780 C   0  0  0  0  0  3  0  0  0  0  0  0
  187.2830  178.0100  141.1860 C   0  0  0  0  0  2  0  0  0  0  0  0
  188.7720  178.2850  140.9230 C   0  0  2  0  0  3  0  0  0  0  0  0
  185.5640  178.4220  142.9840 C   0  0  0  0  0  0  0  0  0  0  0  0
  188.3120  177.4560  146.0040 C   0  0  0  0  0  0  0  0  0  0  0  0
  191.9070  177.1560  142.7710 C   0  0  0  0  0  3  0  0  0  0  0  0
  183.1190  178.6660  142.4710 C   0  0  0  0  0  2  0  0  0  0  0  0
  184.5420  178.7570  141.9250 C   0  0  0  0  0  2  0  0  0  0  0  0
  187.8780  177.3790  147.4320 C   0  0  0  0  0  2  0  0  0  0  0  0
  188.6130  178.2850  148.1960 O   0  0  0  0  0  1  0  0  0  0  0  0
  189.2040  177.8660  139.5780 N   0  0  0  0  0  0  0  0  0  0  0  0
  188.3180  178.4570  138.5590 C   0  0  1  0  0  3  0  0  0  0  0  0
  189.1050  179.2360  137.5200 C   0  0  0  0  0  1  0  0  0  0  0  0
  187.2810  177.4950  137.9410 C   0  0  0  0  0  2  0  0  0  0  0  0
  185.8870  178.0980  137.8380 C   0  0  0  0  0  1  0  0  0  0  0  0
  189.3360  176.4080  139.4760 C   0  0  0  0  0  2  0  0  0  0  0  0
  190.6040  176.0470  138.7210 C   0  0  0  0  0  2  0  0  0  0  0  0
  191.3980  174.4880  137.0040 C   0  0  0  0  0  2  0  0  0  0  0  0
  190.2960  173.9340  137.6780 O   0  0  0  0  0  0  0  0  0  0  0  0
  190.2570  175.3200  137.4380 C   0  0  1  0  0  3  0  0  0  0  0  0
  1  4  1  0  0  0  0
  2  5  1  0  0  0  0
  3  1  2  0  0  0  0
  3 18  1  0  0  0  0
  4  2  2  0  0  0  0
  4 10  1  0  0  0  0
  5 11  1  0  0  0  0
  5 17  2  0  0  0  0
  6  8  1  0  0  0  0
  7 16  2  0  0  0  0
  7  2  1  0  0  0  0
  9  8  1  0  0  0  0
  9 11  2  0  0  0  0
 10 12  2  0  0  0  0
 12 17  1  0  0  0  0
 13 10  1  0  0  0  0
 14  7  1  0  0  0  0
 15 23  1  6  0  0  0
 15 14  1  0  0  0  0
 15  1  1  0  0  0  0
 16  9  1  0  0  0  0
 17 21  1  0  0  0  0
 18 13  2  0  0  0  0
 19  6  1  0  0  0  0
 20 19  1  0  0  0  0
 20 16  1  0  0  0  0
 21 22  1  0  0  0  0
 24 25  1  6  0  0  0
 24 23  1  0  0  0  0
 26 24  1  0  0  0  0
 27 26  1  0  0  0  0
 28 23  1  0  0  0  0
 29 28  1  0  0  0  0
 30 32  1  0  0  0  0
 30 31  1  0  0  0  0
 32 31  1  0  0  0  0
 32 29  1  1  0  0  0
M  END
>  <MODEL>
3

>  <REMARK>
 VINA RESULT:      -8.5      2.348      5.003
  Name = 
  7 active torsions:
  status: ('A' for Active; 'I' for Inactive)
    1  A    between atoms: C_3  and  C_22
    2  A    between atoms: C_13  and  C_29
    3  A    between atoms: C_15  and  C_20
    4  A    between atoms: C_15  and  C_26
    5  A    between atoms: N_16  and  C_20
    6  A    between atoms: N_16  and  C_22
    7  A    between atoms: N_16  and  C_27
                            x       y       z     vdW  Elec       q    Type
                         _______ _______ _______ _____ _____    ______ ____

>  <TORSDO>
F 7

$$$$
=
 OpenBabel11052414403D

 32 37  0  0  1  0  0  0  0  0999 V2000
  184.6580  178.5780  142.9480 C   0  0  0  0  0  0  0  0  0  0  0  0
  186.9960  177.9580  143.3990 C   0  0  0  0  0  0  0  0  0  0  0  0
  183.3800  178.8730  143.4470 C   0  0  0  0  0  3  0  0  0  0  0  0
  185.7080  178.3140  143.8560 C   0  0  0  0  0  0  0  0  0  0  0  0
  188.0050  177.6210  144.3310 C   0  0  0  0  0  0  0  0  0  0  0  0
  191.0020  176.3920  140.7650 N   0  0  0  0  0  2  0  0  0  0  0  0
  187.3050  177.9520  142.0230 C   0  0  0  0  0  0  0  0  0  0  0  0
  190.9470  176.8430  142.1560 C   0  0  0  0  0  2  0  0  0  0  0  0
  189.5420  177.1880  142.5670 C   0  0  0  0  0  0  0  0  0  0  0  0
  185.4610  178.3820  145.2480 C   0  0  0  0  0  0  0  0  0  0  0  0
  189.2360  177.2460  143.8880 N   0  0  0  0  0  0  0  0  0  0  0  0
  186.4760  178.0830  146.1580 C   0  0  0  0  0  3  0  0  0  0  0  0
  184.1870  178.7110  145.7200 C   0  0  0  0  0  3  0  0  0  0  0  0
  186.3200  178.5090  141.0300 C   0  0  0  0  0  2  0  0  0  0  0  0
  184.8570  178.3430  141.4700 C   0  0  2  0  0  3  0  0  0  0  0  0
  188.5930  177.5790  141.6030 C   0  0  0  0  0  0  0  0  0  0  0  0
  187.7420  177.7000  145.7100 C   0  0  0  0  0  0  0  0  0  0  0  0
  183.1490  178.9570  144.8200 C   0  0  0  0  0  3  0  0  0  0  0  0
  190.4520  177.4490  139.9220 C   0  0  0  0  0  2  0  0  0  0  0  0
  188.9430  177.5390  140.1350 C   0  0  0  0  0  2  0  0  0  0  0  0
  188.7950  177.3640  146.7150 C   0  0  0  0  0  2  0  0  0  0  0  0
  188.4340  177.8730  147.9630 O   0  0  0  0  0  1  0  0  0  0  0  0
  183.9190  179.1310  140.6510 N   0  0  0  0  0  0  0  0  0  0  0  0
  182.6020  178.4680  140.6170 C   0  0  1  0  0  3  0  0  0  0  0  0
  181.5810  179.2960  139.8560 C   0  0  0  0  0  1  0  0  0  0  0  0
  182.6160  176.9830  140.1970 C   0  0  0  0  0  2  0  0  0  0  0  0
  181.2470  176.4600  139.7890 C   0  0  0  0  0  1  0  0  0  0  0  0
  184.4690  179.4270  139.3220 C   0  0  0  0  0  2  0  0  0  0  0  0
  184.6560  178.1430  138.5330 C   0  0  0  0  0  2  0  0  0  0  0  0
  186.4530  176.9540  137.3650 C   0  0  0  0  0  2  0  0  0  0  0  0
  185.5750  177.5290  136.4300 O   0  0  0  0  0  0  0  0  0  0  0  0
  185.8360  178.2780  137.5930 C   0  0  1  0  0  3  0  0  0  0  0  0
  1  3  2  0  0  0  0
  1  4  1  0  0  0  0
  2  4  2  0  0  0  0
  2  5  1  0  0  0  0
  3 18  1  0  0  0  0
  4 10  1  0  0  0  0
  5 17  2  0  0  0  0
  6  8  1  0  0  0  0
  7  2  1  0  0  0  0
  8  9  1  0  0  0  0
  9 11  2  0  0  0  0
 10 13  1  0  0  0  0
 10 12  2  0  0  0  0
 11  5  1  0  0  0  0
 14 15  1  0  0  0  0
 14  7  1  0  0  0  0
 15 23  1  6  0  0  0
 15  1  1  0  0  0  0
 16  7  2  0  0  0  0
 16  9  1  0  0  0  0
 17 12  1  0  0  0  0
 17 21  1  0  0  0  0
 18 13  2  0  0  0  0
 19 20  1  0  0  0  0
 19  6  1  0  0  0  0
 20 16  1  0  0  0  0
 21 22  1  0  0  0  0
 24 25  1  6  0  0  0
 24 23  1  0  0  0  0
 26 24  1  0  0  0  0
 27 26  1  0  0  0  0
 28 23  1  0  0  0  0
 29 28  1  0  0  0  0
 30 32  1  0  0  0  0
 31 30  1  0  0  0  0
 31 32  1  0  0  0  0
 32 29  1  1  0  0  0
M  END
>  <MODEL>
4

>  <REMARK>
 VINA RESULT:      -8.0      2.276      6.072
  Name = 
  7 active torsions:
  status: ('A' for Active; 'I' for Inactive)
    1  A    between atoms: C_3  and  C_22
    2  A    between atoms: C_13  and  C_29
    3  A    between atoms: C_15  and  C_20
    4  A    between atoms: C_15  and  C_26
    5  A    between atoms: N_16  and  C_20
    6  A    between atoms: N_16  and  C_22
    7  A    between atoms: N_16  and  C_27
                            x       y       z     vdW  Elec       q    Type
                         _______ _______ _______ _____ _____    ______ ____

>  <TORSDO>
F 7

$$$$
=
 OpenBabel11052414403D

 32 37  0  0  1  0  0  0  0  0999 V2000
  182.5630  178.6330  141.7520 C   0  0  0  0  0  0  0  0  0  0  0  0
  184.8030  178.4730  142.7540 C   0  0  0  0  0  0  0  0  0  0  0  0
  181.1740  178.7230  141.9310 C   0  0  0  0  0  3  0  0  0  0  0  0
  183.4050  178.6180  142.8860 C   0  0  0  0  0  0  0  0  0  0  0  0
  185.6120  178.3790  143.9110 C   0  0  0  0  0  0  0  0  0  0  0  0
  189.5060  177.4990  141.2140 N   0  0  0  0  0  2  0  0  0  0  0  0
  185.4170  178.4400  141.4860 C   0  0  0  0  0  0  0  0  0  0  0  0
  189.0610  178.0150  142.5080 C   0  0  0  0  0  2  0  0  0  0  0  0
  187.5630  178.1250  142.5710 C   0  0  0  0  0  0  0  0  0  0  0  0
  182.8370  178.7230  144.1780 C   0  0  0  0  0  0  0  0  0  0  0  0
  186.9560  178.2060  143.7830 N   0  0  0  0  0  0  0  0  0  0  0  0
  183.6510  178.6670  145.3110 C   0  0  0  0  0  3  0  0  0  0  0  0
  181.4530  178.8440  144.3300 C   0  0  0  0  0  3  0  0  0  0  0  0
  184.6090  178.7500  140.2530 C   0  0  0  0  0  2  0  0  0  0  0  0
  183.1300  178.3500  140.3810 C   0  0  2  0  0  3  0  0  0  0  0  0
  186.8090  178.2810  141.3910 C   0  0  0  0  0  0  0  0  0  0  0  0
  185.0310  178.4920  145.1860 C   0  0  0  0  0  0  0  0  0  0  0  0
  180.6230  178.8450  143.2070 C   0  0  0  0  0  3  0  0  0  0  0  0
  189.0000  178.3870  140.1720 C   0  0  0  0  0  2  0  0  0  0  0  0
  187.4880  178.2170  140.0450 C   0  0  0  0  0  2  0  0  0  0  0  0
  185.8660  178.4120  146.4230 C   0  0  0  0  0  2  0  0  0  0  0  0
  185.6820  179.5630  147.1890 O   0  0  0  0  0  1  0  0  0  0  0  0
  182.2910  178.9060  139.3060 N   0  0  0  0  0  0  0  0  0  0  0  0
  181.9110  177.8380  138.3620 C   0  0  1  0  0  3  0  0  0  0  0  0
  182.7870  177.8540  137.1220 C   0  0  0  0  0  1  0  0  0  0  0  0
  181.7520  176.4320  138.9780 C   0  0  0  0  0  2  0  0  0  0  0  0
  180.3210  176.1100  139.3830 C   0  0  0  0  0  1  0  0  0  0  0  0
  182.9200  180.0680  138.6660 C   0  0  0  0  0  2  0  0  0  0  0  0
  182.0160  181.2830  138.7800 C   0  0  0  0  0  2  0  0  0  0  0  0
  179.7700  181.6840  137.8850 C   0  0  0  0  0  2  0  0  0  0  0  0
  180.6310  182.7250  137.4960 O   0  0  0  0  0  0  0  0  0  0  0  0
  181.1810  181.4300  137.5250 C   0  0  1  0  0  3  0  0  0  0  0  0
  1  3  2  0  0  0  0
  1  4  1  0  0  0  0
  2  4  2  0  0  0  0
  2  5  1  0  0  0  0
  3 18  1  0  0  0  0
  4 10  1  0  0  0  0
  5 17  2  0  0  0  0
  6  8  1  0  0  0  0
  7  2  1  0  0  0  0
  8  9  1  0  0  0  0
  9 11  2  0  0  0  0
 10 13  1  0  0  0  0
 10 12  2  0  0  0  0
 11  5  1  0  0  0  0
 14 15  1  0  0  0  0
 14  7  1  0  0  0  0
 15 23  1  6  0  0  0
 15  1  1  0  0  0  0
 16  7  2  0  0  0  0
 16  9  1  0  0  0  0
 17 12  1  0  0  0  0
 17 21  1  0  0  0  0
 18 13  2  0  0  0  0
 19  6  1  0  0  0  0
 20 19  1  0  0  0  0
 20 16  1  0  0  0  0
 21 22  1  0  0  0  0
 24 25  1  6  0  0  0
 24 26  1  0  0  0  0
 24 23  1  0  0  0  0
 26 27  1  0  0  0  0
 28 29  1  0  0  0  0
 28 23  1  0  0  0  0
 31 32  1  0  0  0  0
 31 30  1  0  0  0  0
 32 30  1  0  0  0  0
 32 29  1  1  0  0  0
M  END
>  <MODEL>
5

>  <REMARK>
 VINA RESULT:      -7.9      2.889      7.308
  Name = 
  7 active torsions:
  status: ('A' for Active; 'I' for Inactive)
    1  A    between atoms: C_3  and  C_22
    2  A    between atoms: C_13  and  C_29
    3  A    between atoms: C_15  and  C_20
    4  A    between atoms: C_15  and  C_26
    5  A    between atoms: N_16  and  C_20
    6  A    between atoms: N_16  and  C_22
    7  A    between atoms: N_16  and  C_27
                            x       y       z     vdW  Elec       q    Type
                         _______ _______ _______ _____ _____    ______ ____

>  <TORSDO>
F 7

$$$$
=
 OpenBabel11052414403D

 32 37  0  0  1  0  0  0  0  0999 V2000
  183.5500  178.6290  142.0500 C   0  0  0  0  0  0  0  0  0  0  0  0
  185.5280  178.3130  143.4780 C   0  0  0  0  0  0  0  0  0  0  0  0
  182.1750  178.8920  141.9490 C   0  0  0  0  0  3  0  0  0  0  0  0
  184.1600  178.6270  143.3240 C   0  0  0  0  0  0  0  0  0  0  0  0
  186.0910  178.2400  144.7730 C   0  0  0  0  0  0  0  0  0  0  0  0
  190.2680  176.6710  142.9550 N   0  0  0  0  0  2  0  0  0  0  0  0
  186.3550  178.0900  142.3580 C   0  0  0  0  0  0  0  0  0  0  0  0
  189.6630  177.3560  144.0980 C   0  0  0  0  0  2  0  0  0  0  0  0
  188.2050  177.6400  143.8600 C   0  0  0  0  0  0  0  0  0  0  0  0
  183.3820  178.9190  144.4700 C   0  0  0  0  0  0  0  0  0  0  0  0
  187.4010  177.9040  144.9220 N   0  0  0  0  0  0  0  0  0  0  0  0
  183.9600  178.8790  145.7400 C   0  0  0  0  0  3  0  0  0  0  0  0
  182.0210  179.2100  144.3400 C   0  0  0  0  0  3  0  0  0  0  0  0
  185.8350  178.3700  140.9730 C   0  0  0  0  0  2  0  0  0  0  0  0
  184.3190  178.1530  140.8400 C   0  0  2  0  0  3  0  0  0  0  0  0
  187.7080  177.7660  142.5480 C   0  0  0  0  0  0  0  0  0  0  0  0
  185.3050  178.5380  145.8990 C   0  0  0  0  0  0  0  0  0  0  0  0
  181.4200  179.1970  143.0800 C   0  0  0  0  0  3  0  0  0  0  0  0
  190.0820  177.5070  141.7730 C   0  0  0  0  0  2  0  0  0  0  0  0
  188.6100  177.4970  141.3680 C   0  0  0  0  0  2  0  0  0  0  0  0
  185.8790  178.4830  147.2770 C   0  0  0  0  0  2  0  0  0  0  0  0
  186.0550  179.7780  147.7660 O   0  0  0  0  0  1  0  0  0  0  0  0
  183.7700  178.6950  139.5840 N   0  0  0  0  0  0  0  0  0  0  0  0
  182.9810  177.6600  138.8930 C   0  0  1  0  0  3  0  0  0  0  0  0
  183.0220  176.3370  139.6380 C   0  0  0  0  0  1  0  0  0  0  0  0
  181.5550  178.0790  138.4750 C   0  0  0  0  0  2  0  0  0  0  0  0
  181.5290  179.0030  137.2660 C   0  0  0  0  0  1  0  0  0  0  0  0
  184.8140  179.3030  138.7480 C   0  0  0  0  0  2  0  0  0  0  0  0
  185.2350  178.3400  137.6520 C   0  0  0  0  0  2  0  0  0  0  0  0
  187.1860  178.0950  136.1880 C   0  0  0  0  0  2  0  0  0  0  0  0
  187.2340  179.3380  136.8440 O   0  0  0  0  0  0  0  0  0  0  0  0
  186.7460  178.2500  137.5910 C   0  0  1  0  0  3  0  0  0  0  0  0
  1  4  1  0  0  0  0
  2  5  1  0  0  0  0
  3  1  2  0  0  0  0
  3 18  1  0  0  0  0
  4  2  2  0  0  0  0
  4 10  1  0  0  0  0
  5 11  1  0  0  0  0
  5 17  2  0  0  0  0
  6  8  1  0  0  0  0
  7 16  2  0  0  0  0
  7  2  1  0  0  0  0
  9  8  1  0  0  0  0
  9 11  2  0  0  0  0
 10 12  2  0  0  0  0
 12 17  1  0  0  0  0
 13 10  1  0  0  0  0
 14  7  1  0  0  0  0
 15 23  1  6  0  0  0
 15 14  1  0  0  0  0
 15  1  1  0  0  0  0
 16  9  1  0  0  0  0
 17 21  1  0  0  0  0
 18 13  2  0  0  0  0
 19  6  1  0  0  0  0
 20 19  1  0  0  0  0
 20 16  1  0  0  0  0
 21 22  1  0  0  0  0
 24 23  1  0  0  0  0
 24 25  1  1  0  0  0
 26 24  1  0  0  0  0
 27 26  1  0  0  0  0
 28 23  1  0  0  0  0
 29 28  1  0  0  0  0
 30 31  1  0  0  0  0
 30 32  1  0  0  0  0
 31 32  1  0  0  0  0
 32 29  1  6  0  0  0
M  END
>  <MODEL>
6

>  <REMARK>
 VINA RESULT:      -7.9      2.094      6.266
  Name = 
  7 active torsions:
  status: ('A' for Active; 'I' for Inactive)
    1  A    between atoms: C_3  and  C_22
    2  A    between atoms: C_13  and  C_29
    3  A    between atoms: C_15  and  C_20
    4  A    between atoms: C_15  and  C_26
    5  A    between atoms: N_16  and  C_20
    6  A    between atoms: N_16  and  C_22
    7  A    between atoms: N_16  and  C_27
                            x       y       z     vdW  Elec       q    Type
                         _______ _______ _______ _____ _____    ______ ____

>  <TORSDO>
F 7

$$$$
=
 OpenBabel11052414403D

 32 37  0  0  1  0  0  0  0  0999 V2000
  187.5530  178.2570  144.8340 C   0  0  0  0  0  0  0  0  0  0  0  0
  185.8810  178.4080  143.0360 C   0  0  0  0  0  0  0  0  0  0  0  0
  187.8380  178.2540  146.2080 C   0  0  0  0  0  3  0  0  0  0  0  0
  186.2090  178.3460  144.4080 C   0  0  0  0  0  0  0  0  0  0  0  0
  184.5330  178.5800  142.6430 C   0  0  0  0  0  0  0  0  0  0  0  0
  185.8500  178.9880  138.0260 N   0  0  0  0  0  2  0  0  0  0  0  0
  186.8740  178.2820  142.0430 C   0  0  0  0  0  0  0  0  0  0  0  0
  184.7380  178.6290  138.9080 C   0  0  0  0  0  2  0  0  0  0  0  0
  185.1670  178.6000  140.3490 C   0  0  0  0  0  0  0  0  0  0  0  0
  185.1740  178.4010  145.3720 C   0  0  0  0  0  0  0  0  0  0  0  0
  184.2220  178.6730  141.3210 N   0  0  0  0  0  0  0  0  0  0  0  0
  183.8440  178.5330  144.9690 C   0  0  0  0  0  3  0  0  0  0  0  0
  185.4800  178.3640  146.7350 C   0  0  0  0  0  3  0  0  0  0  0  0
  188.2750  177.8870  142.4280 C   0  0  0  0  0  2  0  0  0  0  0  0
  188.6760  178.3700  143.8310 C   0  0  2  0  0  3  0  0  0  0  0  0
  186.5130  178.3620  140.6870 C   0  0  0  0  0  0  0  0  0  0  0  0
  183.5180  178.6270  143.6140 C   0  0  0  0  0  0  0  0  0  0  0  0
  186.8110  178.2890  147.1520 C   0  0  0  0  0  3  0  0  0  0  0  0
  186.9260  178.0240  138.2350 C   0  0  0  0  0  2  0  0  0  0  0  0
  187.5590  178.2550  139.6040 C   0  0  0  0  0  2  0  0  0  0  0  0
  182.0850  178.7910  143.2240 C   0  0  0  0  0  2  0  0  0  0  0  0
  181.2710  178.6290  144.3440 O   0  0  0  0  0  1  0  0  0  0  0  0
  189.9210  177.7490  144.3160 N   0  0  0  0  0  0  0  0  0  0  0  0
  191.0630  178.2110  143.5060 C   0  0  1  0  0  3  0  0  0  0  0  0
  192.0560  179.0000  144.3410 C   0  0  0  0  0  1  0  0  0  0  0  0
  191.7290  177.1350  142.6220 C   0  0  0  0  0  2  0  0  0  0  0  0
  191.7560  177.5010  141.1450 C   0  0  0  0  0  1  0  0  0  0  0  0
  189.8070  176.2880  144.4020 C   0  0  0  0  0  2  0  0  0  0  0  0
  190.8910  175.7290  145.3060 C   0  0  0  0  0  2  0  0  0  0  0  0
  191.6930  175.6500  147.6210 C   0  0  0  0  0  2  0  0  0  0  0  0
  192.0570  176.8730  147.0320 O   0  0  0  0  0  0  0  0  0  0  0  0
  190.7960  176.3560  146.6820 C   0  0  1  0  0  3  0  0  0  0  0  0
  1  3  1  0  0  0  0
  2  4  1  0  0  0  0
  3 18  2  0  0  0  0
  4  1  2  0  0  0  0
  4 10  1  0  0  0  0
  5  2  1  0  0  0  0
  5 17  1  0  0  0  0
  6 19  1  0  0  0  0
  6  8  1  0  0  0  0
  7 14  1  0  0  0  0
  7  2  2  0  0  0  0
  8  9  1  0  0  0  0
  9 16  2  0  0  0  0
  9 11  1  0  0  0  0
 10 13  2  0  0  0  0
 11  5  2  0  0  0  0
 12 10  1  0  0  0  0
 13 18  1  0  0  0  0
 14 15  1  0  0  0  0
 15 23  1  1  0  0  0
 15  1  1  0  0  0  0
 16  7  1  0  0  0  0
 17 12  2  0  0  0  0
 19 20  1  0  0  0  0
 20 16  1  0  0  0  0
 21 17  1  0  0  0  0
 21 22  1  0  0  0  0
 23 28  1  0  0  0  0
 24 23  1  0  0  0  0
 24 25  1  1  0  0  0
 26 24  1  0  0  0  0
 27 26  1  0  0  0  0
 28 29  1  0  0  0  0
 31 30  1  0  0  0  0
 32 29  1  6  0  0  0
 32 31  1  0  0  0  0
 32 30  1  0  0  0  0
M  END
>  <MODEL>
7

>  <REMARK>
 VINA RESULT:      -7.9      1.651      2.701
  Name = 
  7 active torsions:
  status: ('A' for Active; 'I' for Inactive)
    1  A    between atoms: C_3  and  C_22
    2  A    between atoms: C_13  and  C_29
    3  A    between atoms: C_15  and  C_20
    4  A    between atoms: C_15  and  C_26
    5  A    between atoms: N_16  and  C_20
    6  A    between atoms: N_16  and  C_22
    7  A    between atoms: N_16  and  C_27
                            x       y       z     vdW  Elec       q    Type
                         _______ _______ _______ _____ _____    ______ ____

>  <TORSDO>
F 7

$$$$
=
 OpenBabel11052414403D

 32 37  0  0  1  0  0  0  0  0999 V2000
  186.4340  178.5080  144.3700 C   0  0  0  0  0  0  0  0  0  0  0  0
  185.5290  178.4560  142.0840 C   0  0  0  0  0  0  0  0  0  0  0  0
  186.1990  178.6230  145.7490 C   0  0  0  0  0  3  0  0  0  0  0  0
  185.3360  178.5130  143.4810 C   0  0  0  0  0  0  0  0  0  0  0  0
  184.4150  178.5450  141.2160 C   0  0  0  0  0  0  0  0  0  0  0  0
  187.3160  178.6460  137.3710 N   0  0  0  0  0  2  0  0  0  0  0  0
  186.8150  178.2920  141.5310 C   0  0  0  0  0  0  0  0  0  0  0  0
  185.9630  178.3140  137.8190 C   0  0  0  0  0  2  0  0  0  0  0  0
  185.8390  178.4120  139.3140 C   0  0  0  0  0  0  0  0  0  0  0  0
  184.0210  178.6020  143.9970 C   0  0  0  0  0  0  0  0  0  0  0  0
  184.6050  178.5240  139.8690 N   0  0  0  0  0  0  0  0  0  0  0  0
  182.9280  178.6510  143.1310 C   0  0  0  0  0  3  0  0  0  0  0  0
  183.8110  178.6820  145.3770 C   0  0  0  0  0  3  0  0  0  0  0  0
  187.9830  177.9820  142.4290 C   0  0  0  0  0  2  0  0  0  0  0  0
  187.8440  178.5870  143.8350 C   0  0  2  0  0  3  0  0  0  0  0  0
  186.9720  178.2530  140.1360 C   0  0  0  0  0  0  0  0  0  0  0  0
  183.1160  178.6270  141.7470 C   0  0  0  0  0  0  0  0  0  0  0  0
  184.9000  178.6910  146.2510 C   0  0  0  0  0  3  0  0  0  0  0  0
  188.2500  177.7430  138.0370 C   0  0  0  0  0  2  0  0  0  0  0  0
  188.3410  178.1030  139.5170 C   0  0  0  0  0  2  0  0  0  0  0  0
  181.9210  178.7060  140.8530 C   0  0  0  0  0  2  0  0  0  0  0  0
  181.4140  177.4260  140.6310 O   0  0  0  0  0  1  0  0  0  0  0  0
  188.8320  178.0540  144.7890 N   0  0  0  0  0  0  0  0  0  0  0  0
  190.1430  177.9150  144.1300 C   0  0  1  0  0  3  0  0  0  0  0  0
  191.0070  179.1460  144.3430 C   0  0  0  0  0  1  0  0  0  0  0  0
  190.8890  176.5930  144.4060 C   0  0  0  0  0  2  0  0  0  0  0  0
  190.8890  175.6410  143.2190 C   0  0  0  0  0  1  0  0  0  0  0  0
  188.3590  176.8240  145.4360 C   0  0  0  0  0  2  0  0  0  0  0  0
  188.8680  176.7530  146.8650 C   0  0  0  0  0  2  0  0  0  0  0  0
  188.2090  178.0420  148.8420 C   0  0  0  0  0  2  0  0  0  0  0  0
  189.6020  178.1090  148.6730 O   0  0  0  0  0  0  0  0  0  0  0  0
  188.8230  178.1270  147.5010 C   0  0  1  0  0  3  0  0  0  0  0  0
  1  3  1  0  0  0  0
  2  4  1  0  0  0  0
  3 18  2  0  0  0  0
  4 10  1  0  0  0  0
  4  1  2  0  0  0  0
  5 17  1  0  0  0  0
  5  2  2  0  0  0  0
  6  8  1  0  0  0  0
  6 19  1  0  0  0  0
  7  2  1  0  0  0  0
  7 14  1  0  0  0  0
  8  9  1  0  0  0  0
  9 11  2  0  0  0  0
  9 16  1  0  0  0  0
 10 13  2  0  0  0  0
 11  5  1  0  0  0  0
 12 10  1  0  0  0  0
 13 18  1  0  0  0  0
 14 15  1  0  0  0  0
 15  1  1  0  0  0  0
 15 23  1  1  0  0  0
 16  7  2  0  0  0  0
 17 12  2  0  0  0  0
 19 20  1  0  0  0  0
 20 16  1  0  0  0  0
 21 17  1  0  0  0  0
 22 21  1  0  0  0  0
 23 28  1  0  0  0  0
 24 25  1  1  0  0  0
 24 26  1  0  0  0  0
 24 23  1  0  0  0  0
 27 26  1  0  0  0  0
 28 29  1  0  0  0  0
 31 30  1  0  0  0  0
 32 29  1  6  0  0  0
 32 31  1  0  0  0  0
 32 30  1  0  0  0  0
M  END
>  <MODEL>
8

>  <REMARK>
 VINA RESULT:      -7.6      2.259      3.631
  Name = 
  7 active torsions:
  status: ('A' for Active; 'I' for Inactive)
    1  A    between atoms: C_3  and  C_22
    2  A    between atoms: C_13  and  C_29
    3  A    between atoms: C_15  and  C_20
    4  A    between atoms: C_15  and  C_26
    5  A    between atoms: N_16  and  C_20
    6  A    between atoms: N_16  and  C_22
    7  A    between atoms: N_16  and  C_27
                            x       y       z     vdW  Elec       q    Type
                         _______ _______ _______ _____ _____    ______ ____

>  <TORSDO>
F 7

$$$$
=
 OpenBabel11052414403D

 32 37  0  0  1  0  0  0  0  0999 V2000
  186.2760  178.4670  140.8630 C   0  0  0  0  0  0  0  0  0  0  0  0
  187.0150  178.1520  143.1880 C   0  0  0  0  0  0  0  0  0  0  0  0
  185.2270  178.7030  139.9610 C   0  0  0  0  0  3  0  0  0  0  0  0
  186.0010  178.4400  142.2480 C   0  0  0  0  0  0  0  0  0  0  0  0
  186.6920  178.0520  144.5620 C   0  0  0  0  0  0  0  0  0  0  0  0
  191.1790  176.6310  145.5930 N   0  0  0  0  0  2  0  0  0  0  0  0
  188.3550  177.9810  142.7850 C   0  0  0  0  0  0  0  0  0  0  0  0
  189.9860  177.2670  146.1530 C   0  0  0  0  0  2  0  0  0  0  0  0
  188.9520  177.5260  145.0920 C   0  0  0  0  0  0  0  0  0  0  0  0
  184.6820  178.6810  142.7030 C   0  0  0  0  0  0  0  0  0  0  0  0
  187.6640  177.7410  145.4620 N   0  0  0  0  0  0  0  0  0  0  0  0
  184.3850  178.6150  144.0650 C   0  0  0  0  0  3  0  0  0  0  0  0
  183.6600  178.9450  141.7870 C   0  0  0  0  0  3  0  0  0  0  0  0
  188.7580  178.2910  141.3680 C   0  0  0  0  0  2  0  0  0  0  0  0
  187.6320  178.0450  140.3500 C   0  0  2  0  0  3  0  0  0  0  0  0
  189.3350  177.6810  143.7450 C   0  0  0  0  0  0  0  0  0  0  0  0
  185.3780  178.2990  144.9950 C   0  0  0  0  0  0  0  0  0  0  0  0
  183.9340  178.9570  140.4180 C   0  0  0  0  0  3  0  0  0  0  0  0
  191.7080  177.4980  144.5440 C   0  0  0  0  0  2  0  0  0  0  0  0
  190.7730  177.4680  143.3380 C   0  0  0  0  0  2  0  0  0  0  0  0
  185.0150  178.2150  146.4420 C   0  0  0  0  0  2  0  0  0  0  0  0
  185.4080  179.3840  147.0950 O   0  0  0  0  0  1  0  0  0  0  0  0
  187.9260  178.6130  139.0230 N   0  0  0  0  0  0  0  0  0  0  0  0
  187.1180  177.9300  137.9950 C   0  0  1  0  0  3  0  0  0  0  0  0
  187.2580  178.6020  136.6400 C   0  0  0  0  0  1  0  0  0  0  0  0
  187.2780  176.3970  137.9340 C   0  0  0  0  0  2  0  0  0  0  0  0
  187.4020  175.8600  136.5150 C   0  0  0  0  0  1  0  0  0  0  0  0
  189.3660  178.6200  138.7370 C   0  0  0  0  0  2  0  0  0  0  0  0
  189.9870  177.2920  139.1350 C   0  0  0  0  0  2  0  0  0  0  0  0
  192.1370  176.3480  138.4320 C   0  0  0  0  0  2  0  0  0  0  0  0
  191.1210  175.3900  138.2730 O   0  0  0  0  0  0  0  0  0  0  0  0
  190.7820  176.7230  137.9770 C   0  0  1  0  0  3  0  0  0  0  0  0
  1  4  1  0  0  0  0
  2  5  1  0  0  0  0
  3 18  1  0  0  0  0
  3  1  2  0  0  0  0
  4 10  2  0  0  0  0
  4  2  1  0  0  0  0
  5 17  1  0  0  0  0
  5 11  2  0  0  0  0
  6  8  1  0  0  0  0
  7  2  2  0  0  0  0
  7 16  1  0  0  0  0
  9 11  1  0  0  0  0
  9  8  1  0  0  0  0
 10 12  1  0  0  0  0
 12 17  2  0  0  0  0
 13 10  1  0  0  0  0
 14  7  1  0  0  0  0
 15 23  1  6  0  0  0
 15  1  1  0  0  0  0
 15 14  1  0  0  0  0
 16  9  2  0  0  0  0
 17 21  1  0  0  0  0
 18 13  2  0  0  0  0
 19  6  1  0  0  0  0
 20 16  1  0  0  0  0
 20 19  1  0  0  0  0
 21 22  1  0  0  0  0
 24 25  1  6  0  0  0
 24 23  1  0  0  0  0
 26 24  1  0  0  0  0
 27 26  1  0  0  0  0
 28 23  1  0  0  0  0
 28 29  1  0  0  0  0
 31 30  1  0  0  0  0
 32 31  1  0  0  0  0
 32 30  1  0  0  0  0
 32 29  1  1  0  0  0
M  END
>  <MODEL>
9

>  <REMARK>
 VINA RESULT:      -7.6      1.855      5.540
  Name = 
  7 active torsions:
  status: ('A' for Active; 'I' for Inactive)
    1  A    between atoms: C_3  and  C_22
    2  A    between atoms: C_13  and  C_29
    3  A    between atoms: C_15  and  C_20
    4  A    between atoms: C_15  and  C_26
    5  A    between atoms: N_16  and  C_20
    6  A    between atoms: N_16  and  C_22
    7  A    between atoms: N_16  and  C_27
                            x       y       z     vdW  Elec       q    Type
                         _______ _______ _______ _____ _____    ______ ____

>  <TORSDO>
F 7

$$$$
