=
 OpenBabel11052416513D

 32 36  0  0  1  0  0  0  0  0999 V2000
  188.6270  177.8530  143.5250 C   0  0  1  0  0  3  0  0  0  0  0  0
  189.4930  176.6070  138.8180 C   0  0  0  0  0  2  0  0  0  0  0  0
  190.9750  176.9640  138.9810 C   0  0  0  0  0  2  0  0  0  0  0  0
  190.2150  176.7680  145.1480 C   0  0  0  0  0  0  0  0  0  0  0  0
  189.2460  176.9570  146.1560 C   0  0  0  0  0  0  0  0  0  0  0  0
  191.8460  176.2050  146.8640 C   0  0  0  0  0  0  0  0  0  0  0  0
  188.6690  177.4010  139.7260 N   0  0  0  0  0  2  0  0  0  0  0  0
  188.1420  177.8910  142.0670 C   0  0  0  0  0  2  0  0  0  0  0  0
  188.9040  176.9640  141.1060 C   0  0  2  0  0  3  0  0  0  0  0  0
  190.8190  177.1960  142.7810 N   0  0  0  0  0  2  0  0  0  0  0  0
  190.8850  176.4210  147.8540 C   0  0  0  0  0  3  0  0  0  0  0  0
  189.5860  176.7900  147.5010 C   0  0  0  0  0  3  0  0  0  0  0  0
  191.3100  177.4560  140.3930 C   0  0  0  0  0  2  0  0  0  0  0  0
  190.4260  176.7750  141.4320 C   0  0  2  0  0  3  0  0  0  0  0  0
  192.4520  176.0790  144.5710 F   0  0  0  0  0  0  0  0  0  0  0  0
  187.5260  177.6920  144.5570 C   0  0  0  0  0  0  0  0  0  0  0  0
  187.8640  177.3250  145.8030 C   0  0  0  0  0  3  0  0  0  0  0  0
  193.0990  175.8270  147.2200 F   0  0  0  0  0  0  0  0  0  0  0  0
  189.7560  176.8340  143.7070 C   0  0  2  0  0  3  0  0  0  0  0  0
  191.5140  176.3570  145.5130 C   0  0  0  0  0  0  0  0  0  0  0  0
  184.5960  180.2360  143.3220 C   0  0  0  0  0  2  0  0  0  0  0  0
  186.1750  178.1130  144.2930 N   0  0  0  0  0  0  0  0  0  0  0  0
  185.0170  178.0700  146.4520 C   0  0  0  0  0  1  0  0  0  0  0  0
  184.2210  179.5950  144.6570 C   0  0  0  0  0  2  0  0  0  0  0  0
  185.4490  178.9280  145.2770 C   0  0  2  0  0  3  0  0  0  0  0  0
  185.5880  177.8960  142.9700 C   0  0  0  0  0  2  0  0  0  0  0  0
  185.2120  179.2340  142.3270 C   0  0  1  0  0  3  0  0  0  0  0  0
  184.5340  179.4730  140.0180 N   0  0  0  0  0  0  0  0  0  0  0  0
  184.2800  178.9890  141.1920 C   0  0  0  0  0  3  0  0  0  0  0  0
  183.6660  179.2610  138.9030 C   0  0  0  0  0  0  0  0  0  0  0  0
  182.4720  180.1290  138.7290 C   0  0  0  0  0  1  0  0  0  0  0  0
  183.8970  178.3480  138.0640 O   0  0  0  0  0  0  0  0  0  0  0  0
  1  8  1  6  0  0  0
  1 19  1  0  0  0  0
  1 16  1  0  0  0  0
  2  3  1  0  0  0  0
  2  7  1  0  0  0  0
  3 13  1  0  0  0  0
  4 20  2  0  0  0  0
  4  5  1  0  0  0  0
  5 12  2  0  0  0  0
  6 18  1  0  0  0  0
  6 11  2  0  0  0  0
  7  9  1  0  0  0  0
  9 14  1  0  0  0  0
  9  8  1  1  0  0  0
 12 11  1  0  0  0  0
 14 13  1  6  0  0  0
 14 10  1  0  0  0  0
 15 20  1  0  0  0  0
 16 17  2  0  0  0  0
 17  5  1  0  0  0  0
 19 10  1  6  0  0  0
 19  4  1  0  0  0  0
 20  6  1  0  0  0  0
 21 24  1  0  0  0  0
 22 16  1  0  0  0  0
 22 25  1  0  0  0  0
 24 25  1  0  0  0  0
 25 23  1  1  0  0  0
 26 22  1  0  0  0  0
 27 29  1  6  0  0  0
 27 26  1  0  0  0  0
 27 21  1  0  0  0  0
 28 29  2  0  0  0  0
 30 28  1  0  0  0  0
 31 30  1  0  0  0  0
 32 30  2  0  0  0  0
M  END
>  <MODEL>
1

>  <REMARK>
 VINA RESULT:     -10.0      0.000      0.000
  Name = 
  3 active torsions:
  status: ('A' for Active; 'I' for Inactive)
    1  A    between atoms: C_1  and  N_10
    2  A    between atoms: N_8  and  C_28
    3  A    between atoms: C_19  and  C_24
                            x       y       z     vdW  Elec       q    Type
                         _______ _______ _______ _____ _____    ______ ____

>  <TORSDO>
F 3

$$$$
=
 OpenBabel11052416513D

 32 36  0  0  1  0  0  0  0  0999 V2000
  184.8830  179.0280  140.3790 C   0  0  1  0  0  3  0  0  0  0  0  0
  188.4840  177.2180  137.5150 C   0  0  0  0  0  2  0  0  0  0  0  0
  189.5440  177.8530  138.4220 C   0  0  0  0  0  2  0  0  0  0  0  0
  185.2030  178.5150  142.8220 C   0  0  0  0  0  0  0  0  0  0  0  0
  183.8140  178.6890  142.9980 C   0  0  0  0  0  0  0  0  0  0  0  0
  185.4790  178.5320  145.2400 C   0  0  0  0  0  0  0  0  0  0  0  0
  187.2430  177.9880  137.5540 N   0  0  0  0  0  2  0  0  0  0  0  0
  185.3810  178.7450  138.9540 C   0  0  0  0  0  2  0  0  0  0  0  0
  186.6110  177.8260  138.8680 C   0  0  2  0  0  3  0  0  0  0  0  0
  187.1010  178.6590  141.2320 N   0  0  0  0  0  2  0  0  0  0  0  0
  184.1060  178.7310  145.3990 C   0  0  0  0  0  3  0  0  0  0  0  0
  183.2740  178.8020  144.2810 C   0  0  0  0  0  3  0  0  0  0  0  0
  188.9300  178.6150  139.6000 C   0  0  0  0  0  2  0  0  0  0  0  0
  187.6280  177.9640  140.0530 C   0  0  2  0  0  3  0  0  0  0  0  0
  187.3580  178.1500  143.8390 F   0  0  0  0  0  0  0  0  0  0  0  0
  183.3890  178.8420  140.5780 C   0  0  0  0  0  0  0  0  0  0  0  0
  182.9160  178.7450  141.8300 C   0  0  0  0  0  3  0  0  0  0  0  0
  186.2730  178.4440  146.3350 F   0  0  0  0  0  0  0  0  0  0  0  0
  185.7110  178.2680  141.4180 C   0  0  2  0  0  3  0  0  0  0  0  0
  186.0300  178.4040  143.9590 C   0  0  0  0  0  0  0  0  0  0  0  0
  179.8080  179.6520  138.8170 C   0  0  0  0  0  2  0  0  0  0  0  0
  182.4590  178.9690  139.4860 N   0  0  0  0  0  0  0  0  0  0  0  0
  182.2710  176.7380  138.4920 C   0  0  0  0  0  1  0  0  0  0  0  0
  180.3860  178.3450  138.2770 C   0  0  0  0  0  2  0  0  0  0  0  0
  181.5310  177.8730  139.1750 C   0  0  2  0  0  3  0  0  0  0  0  0
  182.3020  180.2560  138.8080 C   0  0  0  0  0  2  0  0  0  0  0  0
  180.8650  180.7640  138.9540 C   0  0  1  0  0  3  0  0  0  0  0  0
  181.4560  182.8210  137.8270 N   0  0  0  0  0  0  0  0  0  0  0  0
  180.6200  181.8410  137.9540 C   0  0  0  0  0  3  0  0  0  0  0  0
  181.2570  183.8740  136.8810 C   0  0  0  0  0  0  0  0  0  0  0  0
  180.4540  183.6160  135.6580 C   0  0  0  0  0  1  0  0  0  0  0  0
  181.7540  185.0180  137.0680 O   0  0  0  0  0  0  0  0  0  0  0  0
  1  8  1  6  0  0  0
  1 16  1  0  0  0  0
  1 19  1  0  0  0  0
  2  7  1  0  0  0  0
  2  3  1  0  0  0  0
  3 13  1  0  0  0  0
  4  5  2  0  0  0  0
  4 20  1  0  0  0  0
  5 12  1  0  0  0  0
  6 11  1  0  0  0  0
  6 18  1  0  0  0  0
  7  9  1  0  0  0  0
  9  8  1  1  0  0  0
  9 14  1  0  0  0  0
 12 11  2  0  0  0  0
 14 13  1  6  0  0  0
 14 10  1  0  0  0  0
 15 20  1  0  0  0  0
 16 17  2  0  0  0  0
 17  5  1  0  0  0  0
 19 10  1  1  0  0  0
 19  4  1  0  0  0  0
 20  6  2  0  0  0  0
 21 27  1  0  0  0  0
 22 16  1  0  0  0  0
 24 21  1  0  0  0  0
 24 25  1  0  0  0  0
 25 23  1  6  0  0  0
 25 22  1  0  0  0  0
 26 27  1  0  0  0  0
 26 22  1  0  0  0  0
 27 29  1  6  0  0  0
 28 29  2  0  0  0  0
 30 32  2  0  0  0  0
 30 28  1  0  0  0  0
 31 30  1  0  0  0  0
M  END
>  <MODEL>
2

>  <REMARK>
 VINA RESULT:      -9.9      3.682      5.751
  Name = 
  3 active torsions:
  status: ('A' for Active; 'I' for Inactive)
    1  A    between atoms: C_1  and  N_10
    2  A    between atoms: N_8  and  C_28
    3  A    between atoms: C_19  and  C_24
                            x       y       z     vdW  Elec       q    Type
                         _______ _______ _______ _____ _____    ______ ____

>  <TORSDO>
F 3

$$$$
=
 OpenBabel11052416513D

 32 36  0  0  1  0  0  0  0  0999 V2000
  187.8630  178.1330  141.9400 C   0  0  1  0  0  3  0  0  0  0  0  0
  191.6780  175.6560  143.8790 C   0  0  0  0  0  2  0  0  0  0  0  0
  191.5880  176.4920  145.1610 C   0  0  0  0  0  2  0  0  0  0  0  0
  185.8680  178.2410  143.4690 C   0  0  0  0  0  0  0  0  0  0  0  0
  185.0610  178.4580  142.3330 C   0  0  0  0  0  0  0  0  0  0  0  0
  183.9850  178.8550  144.8840 C   0  0  0  0  0  0  0  0  0  0  0  0
  191.1890  176.4170  142.7320 N   0  0  0  0  0  2  0  0  0  0  0  0
  189.2460  177.5040  141.7120 C   0  0  0  0  0  2  0  0  0  0  0  0
  189.7370  176.5880  142.8440 C   0  0  2  0  0  3  0  0  0  0  0  0
  188.1830  177.9780  144.3190 N   0  0  0  0  0  2  0  0  0  0  0  0
  183.2060  179.0920  143.7500 C   0  0  0  0  0  3  0  0  0  0  0  0
  183.7400  178.8880  142.4770 C   0  0  0  0  0  3  0  0  0  0  0  0
  190.4590  177.5250  145.1110 C   0  0  0  0  0  2  0  0  0  0  0  0
  189.2850  177.0110  144.2840 C   0  0  2  0  0  3  0  0  0  0  0  0
  186.0190  178.1310  145.8730 F   0  0  0  0  0  0  0  0  0  0  0  0
  186.9070  178.0090  140.7680 C   0  0  0  0  0  0  0  0  0  0  0  0
  185.6000  178.2260  140.9800 C   0  0  0  0  0  3  0  0  0  0  0  0
  183.4470  179.0380  146.1150 F   0  0  0  0  0  0  0  0  0  0  0  0
  187.2450  177.6510  143.2550 C   0  0  2  0  0  3  0  0  0  0  0  0
  185.3060  178.4120  144.7520 C   0  0  0  0  0  0  0  0  0  0  0  0
  189.0560  179.0020  137.4550 C   0  0  0  0  0  2  0  0  0  0  0  0
  187.3830  177.8650  139.4160 N   0  0  0  0  0  0  0  0  0  0  0  0
  185.4000  177.9940  137.9830 C   0  0  0  0  0  1  0  0  0  0  0  0
  187.6210  178.6410  137.0740 C   0  0  0  0  0  2  0  0  0  0  0  0
  186.7420  178.6130  138.3240 C   0  0  2  0  0  3  0  0  0  0  0  0
  188.6190  177.1280  139.1520 C   0  0  0  0  0  2  0  0  0  0  0  0
  189.6580  178.0450  138.5010 C   0  0  1  0  0  3  0  0  0  0  0  0
  191.6970  176.7510  138.6180 N   0  0  0  0  0  0  0  0  0  0  0  0
  190.7330  177.2150  137.8900 C   0  0  0  0  0  3  0  0  0  0  0  0
  192.7470  175.9510  138.0700 C   0  0  0  0  0  0  0  0  0  0  0  0
  192.4420  174.5870  137.5670 C   0  0  0  0  0  1  0  0  0  0  0  0
  193.9300  176.3850  138.0080 O   0  0  0  0  0  0  0  0  0  0  0  0
  1  8  1  6  0  0  0
  1 19  1  0  0  0  0
  2  3  1  0  0  0  0
  4 20  1  0  0  0  0
  5 12  1  0  0  0  0
  5  4  2  0  0  0  0
  6 18  1  0  0  0  0
  7  9  1  0  0  0  0
  7  2  1  0  0  0  0
  9  8  1  6  0  0  0
  9 14  1  0  0  0  0
 11  6  1  0  0  0  0
 12 11  2  0  0  0  0
 13  3  1  0  0  0  0
 14 10  1  0  0  0  0
 14 13  1  6  0  0  0
 16 17  2  0  0  0  0
 16  1  1  0  0  0  0
 17  5  1  0  0  0  0
 19  4  1  1  0  0  0
 19 10  1  0  0  0  0
 20  6  2  0  0  0  0
 20 15  1  0  0  0  0
 21 27  1  0  0  0  0
 22 16  1  0  0  0  0
 24 21  1  0  0  0  0
 24 25  1  0  0  0  0
 25 23  1  6  0  0  0
 25 22  1  0  0  0  0
 26 22  1  0  0  0  0
 27 29  1  6  0  0  0
 27 26  1  0  0  0  0
 29 28  2  0  0  0  0
 30 28  1  0  0  0  0
 31 30  1  0  0  0  0
 32 30  2  0  0  0  0
M  END
>  <MODEL>
3

>  <REMARK>
 VINA RESULT:      -9.5      3.237      6.712
  Name = 
  3 active torsions:
  status: ('A' for Active; 'I' for Inactive)
    1  A    between atoms: C_1  and  N_10
    2  A    between atoms: N_8  and  C_28
    3  A    between atoms: C_19  and  C_24
                            x       y       z     vdW  Elec       q    Type
                         _______ _______ _______ _____ _____    ______ ____

>  <TORSDO>
F 3

$$$$
=
 OpenBabel11052416513D

 32 36  0  0  1  0  0  0  0  0999 V2000
  188.4810  176.9700  143.6020 C   0  0  1  0  0  3  0  0  0  0  0  0
  191.2510  176.9130  147.6980 C   0  0  0  0  0  2  0  0  0  0  0  0
  192.2330  175.9380  147.0370 C   0  0  0  0  0  2  0  0  0  0  0  0
  189.8050  177.4330  141.5130 C   0  0  0  0  0  0  0  0  0  0  0  0
  188.6120  177.8770  140.9050 C   0  0  0  0  0  0  0  0  0  0  0  0
  190.8810  177.4340  139.3300 C   0  0  0  0  0  0  0  0  0  0  0  0
  189.9090  176.7480  147.1440 N   0  0  0  0  0  2  0  0  0  0  0  0
  188.5170  176.9340  145.1370 C   0  0  0  0  0  2  0  0  0  0  0  0
  189.8890  177.2360  145.7610 C   0  0  2  0  0  3  0  0  0  0  0  0
  190.8180  176.4070  143.5310 N   0  0  0  0  0  2  0  0  0  0  0  0
  189.6860  177.8480  138.7370 C   0  0  0  0  0  3  0  0  0  0  0  0
  188.5560  178.0750  139.5230 C   0  0  0  0  0  3  0  0  0  0  0  0
  191.8290  175.5770  145.6050 C   0  0  0  0  0  2  0  0  0  0  0  0
  191.1210  176.7440  144.9260 C   0  0  2  0  0  3  0  0  0  0  0  0
  192.1440  176.9020  141.2690 F   0  0  0  0  0  0  0  0  0  0  0  0
  187.3440  177.7840  143.0120 C   0  0  0  0  0  0  0  0  0  0  0  0
  187.4140  178.1430  141.7210 C   0  0  0  0  0  3  0  0  0  0  0  0
  191.9770  177.2370  138.5570 F   0  0  0  0  0  0  0  0  0  0  0  0
  189.8430  177.3620  143.0240 C   0  0  2  0  0  3  0  0  0  0  0  0
  190.9530  177.2440  140.7150 C   0  0  0  0  0  0  0  0  0  0  0  0
  184.1490  179.9240  144.3520 C   0  0  0  0  0  2  0  0  0  0  0  0
  186.1170  178.0050  143.7350 N   0  0  0  0  0  0  0  0  0  0  0  0
  186.6350  177.5900  146.0930 C   0  0  0  0  0  1  0  0  0  0  0  0
  184.7680  179.1180  145.4920 C   0  0  0  0  0  2  0  0  0  0  0  0
  186.1470  178.6050  145.0760 C   0  0  2  0  0  3  0  0  0  0  0  0
  184.8310  177.8130  143.0640 C   0  0  0  0  0  2  0  0  0  0  0  0
  184.0400  179.1230  143.0400 C   0  0  1  0  0  3  0  0  0  0  0  0
  181.7140  178.8750  143.6530 N   0  0  0  0  0  0  0  0  0  0  0  0
  182.6150  178.8320  142.7240 C   0  0  0  0  0  3  0  0  0  0  0  0
  180.3360  178.6010  143.3910 C   0  0  0  0  0  0  0  0  0  0  0  0
  179.6450  179.3170  142.2870 C   0  0  0  0  0  1  0  0  0  0  0  0
  179.6970  177.7620  144.0830 O   0  0  0  0  0  0  0  0  0  0  0  0
  1  8  1  1  0  0  0
  3  2  1  0  0  0  0
  5  4  1  0  0  0  0
  5 17  1  0  0  0  0
  6 20  1  0  0  0  0
  7  2  1  0  0  0  0
  9  8  1  6  0  0  0
  9  7  1  0  0  0  0
 10 14  1  0  0  0  0
 11  6  2  0  0  0  0
 11 12  1  0  0  0  0
 12  5  2  0  0  0  0
 13  3  1  0  0  0  0
 14 13  1  1  0  0  0
 14  9  1  0  0  0  0
 16  1  1  0  0  0  0
 16 22  1  0  0  0  0
 17 16  2  0  0  0  0
 18  6  1  0  0  0  0
 19  4  1  6  0  0  0
 19 10  1  0  0  0  0
 19  1  1  0  0  0  0
 20 15  1  0  0  0  0
 20  4  2  0  0  0  0
 21 24  1  0  0  0  0
 22 25  1  0  0  0  0
 25 24  1  0  0  0  0
 25 23  1  1  0  0  0
 26 22  1  0  0  0  0
 27 29  1  1  0  0  0
 27 26  1  0  0  0  0
 27 21  1  0  0  0  0
 29 28  2  0  0  0  0
 30 28  1  0  0  0  0
 30 32  2  0  0  0  0
 31 30  1  0  0  0  0
M  END
>  <MODEL>
4

>  <REMARK>
 VINA RESULT:      -9.1      2.565      5.055
  Name = 
  3 active torsions:
  status: ('A' for Active; 'I' for Inactive)
    1  A    between atoms: C_1  and  N_10
    2  A    between atoms: N_8  and  C_28
    3  A    between atoms: C_19  and  C_24
                            x       y       z     vdW  Elec       q    Type
                         _______ _______ _______ _____ _____    ______ ____

>  <TORSDO>
F 3

$$$$
=
 OpenBabel11052416513D

 32 36  0  0  1  0  0  0  0  0999 V2000
  184.9130  178.0060  140.6540 C   0  0  1  0  0  3  0  0  0  0  0  0
  183.9510  179.3570  145.3120 C   0  0  0  0  0  2  0  0  0  0  0  0
  185.0960  178.4720  145.8210 C   0  0  0  0  0  2  0  0  0  0  0  0
  187.3360  178.2600  140.0260 C   0  0  0  0  0  0  0  0  0  0  0  0
  186.9350  178.3260  138.6750 C   0  0  0  0  0  0  0  0  0  0  0  0
  189.6440  178.0050  139.2960 C   0  0  0  0  0  0  0  0  0  0  0  0
  183.3980  178.8220  144.0710 N   0  0  0  0  0  2  0  0  0  0  0  0
  183.8470  178.3050  141.7190 C   0  0  0  0  0  2  0  0  0  0  0  0
  184.3740  178.9920  142.9900 C   0  0  2  0  0  3  0  0  0  0  0  0
  186.5990  177.9020  142.3670 N   0  0  0  0  0  2  0  0  0  0  0  0
  189.2310  178.0450  137.9630 C   0  0  0  0  0  3  0  0  0  0  0  0
  187.8810  178.2120  137.6520 C   0  0  0  0  0  3  0  0  0  0  0  0
  185.8230  177.7430  144.6870 C   0  0  0  0  0  2  0  0  0  0  0  0
  185.8270  178.5800  143.4130 C   0  0  2  0  0  3  0  0  0  0  0  0
  189.1470  178.1510  141.6140 F   0  0  0  0  0  0  0  0  0  0  0  0
  184.5450  178.4410  139.2470 C   0  0  0  0  0  0  0  0  0  0  0  0
  185.5170  178.5240  138.3260 C   0  0  0  0  0  3  0  0  0  0  0  0
  190.9610  177.8630  139.5830 F   0  0  0  0  0  0  0  0  0  0  0  0
  186.2880  178.5210  141.0860 C   0  0  2  0  0  3  0  0  0  0  0  0
  188.7080  178.1310  140.3290 C   0  0  0  0  0  0  0  0  0  0  0  0
  180.5440  179.0150  139.7430 C   0  0  0  0  0  2  0  0  0  0  0  0
  183.1720  178.5690  138.8300 N   0  0  0  0  0  0  0  0  0  0  0  0
  182.5820  176.4370  137.7780 C   0  0  0  0  0  1  0  0  0  0  0  0
  180.8030  177.8390  138.8040 C   0  0  0  0  0  2  0  0  0  0  0  0
  182.2680  177.4120  138.8970 C   0  0  2  0  0  3  0  0  0  0  0  0
  182.6240  179.8900  138.5220 C   0  0  0  0  0  2  0  0  0  0  0  0
  181.4630  180.2200  139.4640 C   0  0  1  0  0  3  0  0  0  0  0  0
  181.2530  182.2420  138.1550 N   0  0  0  0  0  0  0  0  0  0  0  0
  180.6790  181.3540  138.9010 C   0  0  0  0  0  3  0  0  0  0  0  0
  180.5360  183.3450  137.5970 C   0  0  0  0  0  0  0  0  0  0  0  0
  181.2620  184.3490  136.7750 C   0  0  0  0  0  1  0  0  0  0  0  0
  179.2980  183.4810  137.7910 O   0  0  0  0  0  0  0  0  0  0  0  0
  1 19  1  0  0  0  0
  1  8  1  1  0  0  0
  2  3  1  0  0  0  0
  4 20  1  0  0  0  0
  5  4  2  0  0  0  0
  6 18  1  0  0  0  0
  6 20  2  0  0  0  0
  7  2  1  0  0  0  0
  9  8  1  6  0  0  0
  9 14  1  0  0  0  0
  9  7  1  0  0  0  0
 10 14  1  0  0  0  0
 11  6  1  0  0  0  0
 12 11  2  0  0  0  0
 12  5  1  0  0  0  0
 13  3  1  0  0  0  0
 14 13  1  1  0  0  0
 16  1  1  0  0  0  0
 17  5  1  0  0  0  0
 17 16  2  0  0  0  0
 19  4  1  6  0  0  0
 19 10  1  0  0  0  0
 20 15  1  0  0  0  0
 22 25  1  0  0  0  0
 22 16  1  0  0  0  0
 24 25  1  0  0  0  0
 24 21  1  0  0  0  0
 25 23  1  6  0  0  0
 26 22  1  0  0  0  0
 26 27  1  0  0  0  0
 27 29  1  6  0  0  0
 27 21  1  0  0  0  0
 28 29  2  0  0  0  0
 30 32  2  0  0  0  0
 30 28  1  0  0  0  0
 31 30  1  0  0  0  0
M  END
>  <MODEL>
5

>  <REMARK>
 VINA RESULT:      -9.0      3.516      6.743
  Name = 
  3 active torsions:
  status: ('A' for Active; 'I' for Inactive)
    1  A    between atoms: C_1  and  N_10
    2  A    between atoms: N_8  and  C_28
    3  A    between atoms: C_19  and  C_24
                            x       y       z     vdW  Elec       q    Type
                         _______ _______ _______ _____ _____    ______ ____

>  <TORSDO>
F 3

$$$$
=
 OpenBabel11052416513D

 32 36  0  0  1  0  0  0  0  0999 V2000
  186.4360  178.6320  141.5110 C   0  0  1  0  0  3  0  0  0  0  0  0
  187.4930  177.9420  136.7300 C   0  0  0  0  0  2  0  0  0  0  0  0
  188.8320  178.6690  136.9060 C   0  0  0  0  0  2  0  0  0  0  0  0
  188.2900  177.9130  143.0530 C   0  0  0  0  0  0  0  0  0  0  0  0
  187.3290  177.7790  144.0770 C   0  0  0  0  0  0  0  0  0  0  0  0
  190.0500  177.7030  144.7200 C   0  0  0  0  0  0  0  0  0  0  0  0
  186.5090  178.4330  137.6910 N   0  0  0  0  0  2  0  0  0  0  0  0
  185.9250  178.6260  140.0620 C   0  0  0  0  0  2  0  0  0  0  0  0
  186.8830  177.9930  139.0390 C   0  0  2  0  0  3  0  0  0  0  0  0
  188.7050  178.6260  140.7140 N   0  0  0  0  0  2  0  0  0  0  0  0
  189.0890  177.5970  145.7270 C   0  0  0  0  0  3  0  0  0  0  0  0
  187.7310  177.6290  145.4060 C   0  0  0  0  0  3  0  0  0  0  0  0
  189.0560  179.1480  138.3440 C   0  0  0  0  0  2  0  0  0  0  0  0
  188.4070  178.1960  139.3440 C   0  0  2  0  0  3  0  0  0  0  0  0
  190.6160  177.8790  142.4200 F   0  0  0  0  0  0  0  0  0  0  0  0
  185.4400  178.1240  142.5370 C   0  0  0  0  0  0  0  0  0  0  0  0
  185.8900  177.7870  143.7560 C   0  0  0  0  0  3  0  0  0  0  0  0
  191.3660  177.6500  145.0430 F   0  0  0  0  0  0  0  0  0  0  0  0
  187.7970  177.9410  141.6220 C   0  0  2  0  0  3  0  0  0  0  0  0
  189.6590  177.8410  143.3830 C   0  0  0  0  0  0  0  0  0  0  0  0
  182.0140  179.3850  140.7330 C   0  0  0  0  0  2  0  0  0  0  0  0
  184.0190  178.1860  142.3090 N   0  0  0  0  0  0  0  0  0  0  0  0
  183.0290  178.9840  144.4030 C   0  0  0  0  0  1  0  0  0  0  0  0
  181.8500  179.3860  142.2520 C   0  0  0  0  0  2  0  0  0  0  0  0
  183.2180  179.2550  142.9220 C   0  0  2  0  0  3  0  0  0  0  0  0
  183.4010  177.3070  141.3160 C   0  0  0  0  0  2  0  0  0  0  0  0
  182.7410  178.1320  140.2090 C   0  0  1  0  0  3  0  0  0  0  0  0
  181.9720  175.9840  139.4080 N   0  0  0  0  0  0  0  0  0  0  0  0
  181.8020  177.2660  139.4430 C   0  0  0  0  0  3  0  0  0  0  0  0
  181.0940  175.1190  138.6850 C   0  0  0  0  0  0  0  0  0  0  0  0
  179.9490  174.4840  139.3890 C   0  0  0  0  0  1  0  0  0  0  0  0
  181.2760  174.8860  137.4590 O   0  0  0  0  0  0  0  0  0  0  0  0
  1  8  1  6  0  0  0
  1 19  1  0  0  0  0
  1 16  1  0  0  0  0
  2  3  1  0  0  0  0
  2  7  1  0  0  0  0
  3 13  1  0  0  0  0
  4 20  2  0  0  0  0
  4  5  1  0  0  0  0
  5 12  2  0  0  0  0
  6 18  1  0  0  0  0
  6 11  2  0  0  0  0
  7  9  1  0  0  0  0
  9 14  1  0  0  0  0
  9  8  1  1  0  0  0
 12 11  1  0  0  0  0
 14 13  1  6  0  0  0
 14 10  1  0  0  0  0
 15 20  1  0  0  0  0
 16 17  2  0  0  0  0
 17  5  1  0  0  0  0
 19 10  1  6  0  0  0
 19  4  1  0  0  0  0
 20  6  1  0  0  0  0
 21 24  1  0  0  0  0
 22 16  1  0  0  0  0
 22 25  1  0  0  0  0
 24 25  1  0  0  0  0
 25 23  1  1  0  0  0
 26 22  1  0  0  0  0
 27 29  1  1  0  0  0
 27 21  1  0  0  0  0
 27 26  1  0  0  0  0
 28 29  2  0  0  0  0
 30 31  1  0  0  0  0
 30 28  1  0  0  0  0
 32 30  2  0  0  0  0
M  END
>  <MODEL>
6

>  <REMARK>
 VINA RESULT:      -8.9      2.595      3.467
  Name = 
  3 active torsions:
  status: ('A' for Active; 'I' for Inactive)
    1  A    between atoms: C_1  and  N_10
    2  A    between atoms: N_8  and  C_28
    3  A    between atoms: C_19  and  C_24
                            x       y       z     vdW  Elec       q    Type
                         _______ _______ _______ _____ _____    ______ ____

>  <TORSDO>
F 3

$$$$
=
 OpenBabel11052416513D

 32 36  0  0  1  0  0  0  0  0999 V2000
  188.8550  177.1460  141.7530 C   0  0  1  0  0  3  0  0  0  0  0  0
  184.6910  179.4730  140.4490 C   0  0  0  0  0  2  0  0  0  0  0  0
  183.9370  178.8020  141.6040 C   0  0  0  0  0  2  0  0  0  0  0  0
  189.4110  177.3990  144.1940 C   0  0  0  0  0  0  0  0  0  0  0  0
  190.7580  177.1260  143.8720 C   0  0  0  0  0  0  0  0  0  0  0  0
  189.9530  177.1260  146.5510 C   0  0  0  0  0  0  0  0  0  0  0  0
  185.7970  178.6330  139.9980 N   0  0  0  0  0  2  0  0  0  0  0  0
  187.9400  177.6160  140.6120 C   0  0  0  0  0  2  0  0  0  0  0  0
  186.8420  178.6090  141.0280 C   0  0  2  0  0  3  0  0  0  0  0  0
  187.0890  177.5450  143.3370 N   0  0  0  0  0  2  0  0  0  0  0  0
  191.2770  176.8320  146.2170 C   0  0  0  0  0  3  0  0  0  0  0  0
  191.6800  176.8380  144.8810 C   0  0  0  0  0  3  0  0  0  0  0  0
  184.8340  177.8780  142.4330 C   0  0  0  0  0  2  0  0  0  0  0  0
  186.2670  178.3970  142.4710 C   0  0  2  0  0  3  0  0  0  0  0  0
  187.7600  177.7710  145.9100 F   0  0  0  0  0  0  0  0  0  0  0  0
  190.3400  177.2210  141.4480 C   0  0  0  0  0  0  0  0  0  0  0  0
  191.2080  177.1500  142.4690 C   0  0  0  0  0  3  0  0  0  0  0  0
  189.5800  177.1370  147.8540 F   0  0  0  0  0  0  0  0  0  0  0  0
  188.4910  177.8310  143.0730 C   0  0  2  0  0  3  0  0  0  0  0  0
  189.0230  177.4290  145.5490 C   0  0  0  0  0  0  0  0  0  0  0  0
  191.3130  175.4490  137.9140 C   0  0  0  0  0  2  0  0  0  0  0  0
  190.8390  177.1640  140.0980 N   0  0  0  0  0  0  0  0  0  0  0  0
  193.1800  177.8780  140.2110 C   0  0  0  0  0  1  0  0  0  0  0  0
  192.4370  176.3740  138.3750 C   0  0  0  0  0  2  0  0  0  0  0  0
  192.2270  176.7560  139.8410 C   0  0  2  0  0  3  0  0  0  0  0  0
  189.9180  177.3230  138.9730 C   0  0  0  0  0  2  0  0  0  0  0  0
  189.9130  176.0630  138.1040 C   0  0  1  0  0  3  0  0  0  0  0  0
  188.0120  176.4620  136.6640 N   0  0  0  0  0  0  0  0  0  0  0  0
  189.2980  176.3770  136.7850 C   0  0  0  0  0  3  0  0  0  0  0  0
  187.3830  176.7610  135.4150 C   0  0  0  0  0  0  0  0  0  0  0  0
  187.0530  178.1700  135.0810 C   0  0  0  0  0  1  0  0  0  0  0  0
  187.1040  175.8460  134.5940 O   0  0  0  0  0  0  0  0  0  0  0  0
  1  8  1  6  0  0  0
  1 19  1  0  0  0  0
  2  3  1  0  0  0  0
  3 13  1  0  0  0  0
  4 20  1  0  0  0  0
  5  4  2  0  0  0  0
  5 12  1  0  0  0  0
  6 18  1  0  0  0  0
  7  2  1  0  0  0  0
  7  9  1  0  0  0  0
  9  8  1  6  0  0  0
  9 14  1  0  0  0  0
 11  6  1  0  0  0  0
 12 11  2  0  0  0  0
 14 13  1  6  0  0  0
 14 10  1  0  0  0  0
 16  1  1  0  0  0  0
 16 17  2  0  0  0  0
 17  5  1  0  0  0  0
 19 10  1  1  0  0  0
 19  4  1  0  0  0  0
 20 15  1  0  0  0  0
 20  6  2  0  0  0  0
 21 27  1  0  0  0  0
 21 24  1  0  0  0  0
 22 16  1  0  0  0  0
 24 25  1  0  0  0  0
 25 22  1  0  0  0  0
 25 23  1  6  0  0  0
 26 22  1  0  0  0  0
 27 29  1  6  0  0  0
 27 26  1  0  0  0  0
 28 29  2  0  0  0  0
 30 28  1  0  0  0  0
 31 30  1  0  0  0  0
 32 30  2  0  0  0  0
M  END
>  <MODEL>
7

>  <REMARK>
 VINA RESULT:      -8.8      2.244      5.664
  Name = 
  3 active torsions:
  status: ('A' for Active; 'I' for Inactive)
    1  A    between atoms: C_1  and  N_10
    2  A    between atoms: N_8  and  C_28
    3  A    between atoms: C_19  and  C_24
                            x       y       z     vdW  Elec       q    Type
                         _______ _______ _______ _____ _____    ______ ____

>  <TORSDO>
F 3

$$$$
=
 OpenBabel11052416513D

 32 36  0  0  1  0  0  0  0  0999 V2000
  184.5940  178.9690  140.0600 C   0  0  1  0  0  3  0  0  0  0  0  0
  188.3340  177.2660  137.3110 C   0  0  0  0  0  2  0  0  0  0  0  0
  189.3380  178.0510  138.1640 C   0  0  0  0  0  2  0  0  0  0  0  0
  184.9560  178.6620  142.5310 C   0  0  0  0  0  0  0  0  0  0  0  0
  183.5580  178.7310  142.7020 C   0  0  0  0  0  0  0  0  0  0  0  0
  185.2300  178.8760  144.9400 C   0  0  0  0  0  0  0  0  0  0  0  0
  187.0340  177.9300  137.3030 N   0  0  0  0  0  2  0  0  0  0  0  0
  185.1150  178.6280  138.6560 C   0  0  0  0  0  2  0  0  0  0  0  0
  186.4170  177.8110  138.6280 C   0  0  2  0  0  3  0  0  0  0  0  0
  186.8360  178.8490  140.9240 N   0  0  0  0  0  2  0  0  0  0  0  0
  183.8450  178.9690  145.0930 C   0  0  0  0  0  3  0  0  0  0  0  0
  183.0100  178.8910  143.9780 C   0  0  0  0  0  3  0  0  0  0  0  0
  188.6620  178.8430  139.2880 C   0  0  0  0  0  2  0  0  0  0  0  0
  187.4190  178.1190  139.7940 C   0  0  2  0  0  3  0  0  0  0  0  0
  187.1340  178.5530  143.5590 F   0  0  0  0  0  0  0  0  0  0  0  0
  183.1220  178.6740  140.2810 C   0  0  0  0  0  0  0  0  0  0  0  0
  182.6580  178.6280  141.5390 C   0  0  0  0  0  3  0  0  0  0  0  0
  186.0280  178.9330  146.0340 F   0  0  0  0  0  0  0  0  0  0  0  0
  185.4840  178.3580  141.1450 C   0  0  2  0  0  3  0  0  0  0  0  0
  185.7890  178.7030  143.6690 C   0  0  0  0  0  0  0  0  0  0  0  0
  181.9340  178.2540  136.4080 C   0  0  0  0  0  2  0  0  0  0  0  0
  182.1840  178.6440  139.1880 N   0  0  0  0  0  0  0  0  0  0  0  0
  181.1810  180.8780  139.0940 C   0  0  0  0  0  1  0  0  0  0  0  0
  181.2860  179.4870  137.0360 C   0  0  0  0  0  2  0  0  0  0  0  0
  181.9910  179.8350  138.3470 C   0  0  2  0  0  3  0  0  0  0  0  0
  181.5660  177.3790  138.7910 C   0  0  0  0  0  2  0  0  0  0  0  0
  181.9360  177.0330  137.3470 C   0  0  1  0  0  3  0  0  0  0  0  0
  181.0180  174.7950  137.3510 N   0  0  0  0  0  0  0  0  0  0  0  0
  181.0080  175.9840  136.8390 C   0  0  0  0  0  3  0  0  0  0  0  0
  180.1450  173.7620  136.8920 C   0  0  0  0  0  0  0  0  0  0  0  0
  180.1280  172.4520  137.5930 C   0  0  0  0  0  1  0  0  0  0  0  0
  179.3880  173.9440  135.8990 O   0  0  0  0  0  0  0  0  0  0  0  0
  1  8  1  6  0  0  0
  1 16  1  0  0  0  0
  1 19  1  0  0  0  0
  2  3  1  0  0  0  0
  3 13  1  0  0  0  0
  4  5  2  0  0  0  0
  4 20  1  0  0  0  0
  5 12  1  0  0  0  0
  6 11  1  0  0  0  0
  6 18  1  0  0  0  0
  7  2  1  0  0  0  0
  7  9  1  0  0  0  0
  9  8  1  6  0  0  0
  9 14  1  0  0  0  0
 12 11  2  0  0  0  0
 14 13  1  6  0  0  0
 14 10  1  0  0  0  0
 15 20  1  0  0  0  0
 16 17  2  0  0  0  0
 17  5  1  0  0  0  0
 19 10  1  1  0  0  0
 19  4  1  0  0  0  0
 20  6  2  0  0  0  0
 21 24  1  0  0  0  0
 21 27  1  0  0  0  0
 22 16  1  0  0  0  0
 24 25  1  0  0  0  0
 25 23  1  1  0  0  0
 25 22  1  0  0  0  0
 26 22  1  0  0  0  0
 27 29  1  6  0  0  0
 27 26  1  0  0  0  0
 29 28  2  0  0  0  0
 30 28  1  0  0  0  0
 30 31  1  0  0  0  0
 32 30  2  0  0  0  0
M  END
>  <MODEL>
8

>  <REMARK>
 VINA RESULT:      -8.7      3.941      6.271
  Name = 
  3 active torsions:
  status: ('A' for Active; 'I' for Inactive)
    1  A    between atoms: C_1  and  N_10
    2  A    between atoms: N_8  and  C_28
    3  A    between atoms: C_19  and  C_24
                            x       y       z     vdW  Elec       q    Type
                         _______ _______ _______ _____ _____    ______ ____

>  <TORSDO>
F 3

$$$$
=
 OpenBabel11052416513D

 32 36  0  0  1  0  0  0  0  0999 V2000
  186.7370  177.9010  142.1500 C   0  0  1  0  0  3  0  0  0  0  0  0
  183.4370  179.9090  139.0650 C   0  0  0  0  0  2  0  0  0  0  0  0
  182.2920  179.2200  139.8170 C   0  0  0  0  0  2  0  0  0  0  0  0
  186.1720  178.2530  144.5770 C   0  0  0  0  0  0  0  0  0  0  0  0
  187.5370  178.0620  144.8790 C   0  0  0  0  0  0  0  0  0  0  0  0
  185.6550  178.0780  146.9490 C   0  0  0  0  0  0  0  0  0  0  0  0
  184.6690  179.1340  139.1780 N   0  0  0  0  0  2  0  0  0  0  0  0
  186.3830  178.2780  140.7040 C   0  0  0  0  0  2  0  0  0  0  0  0
  185.1660  179.2060  140.5560 C   0  0  2  0  0  3  0  0  0  0  0  0
  184.4430  178.2220  142.7990 N   0  0  0  0  0  2  0  0  0  0  0  0
  187.0060  177.8640  147.2310 C   0  0  0  0  0  3  0  0  0  0  0  0
  187.9460  177.8630  146.2000 C   0  0  0  0  0  3  0  0  0  0  0  0
  182.7870  178.3790  140.9980 C   0  0  0  0  0  2  0  0  0  0  0  0
  184.0360  178.9940  141.6210 C   0  0  2  0  0  3  0  0  0  0  0  0
  183.9250  178.5580  145.3950 F   0  0  0  0  0  0  0  0  0  0  0  0
  188.2030  178.0670  142.5100 C   0  0  0  0  0  0  0  0  0  0  0  0
  188.5480  178.0800  143.8060 C   0  0  0  0  0  3  0  0  0  0  0  0
  184.7550  178.0970  147.9620 F   0  0  0  0  0  0  0  0  0  0  0  0
  185.8060  178.5940  143.1480 C   0  0  2  0  0  3  0  0  0  0  0  0
  185.2350  178.2920  145.6300 C   0  0  0  0  0  0  0  0  0  0  0  0
  190.4940  176.3330  139.6250 C   0  0  0  0  0  2  0  0  0  0  0  0
  189.2380  178.0080  141.5100 N   0  0  0  0  0  0  0  0  0  0  0  0
  191.3380  178.4790  142.6810 C   0  0  0  0  0  1  0  0  0  0  0  0
  191.3670  177.1240  140.5970 C   0  0  0  0  0  2  0  0  0  0  0  0
  190.5640  177.4730  141.8510 C   0  0  2  0  0  3  0  0  0  0  0  0
  188.9200  178.2990  140.1120 C   0  0  0  0  0  2  0  0  0  0  0  0
  189.2030  177.0770  139.2350 C   0  0  1  0  0  3  0  0  0  0  0  0
  188.2220  177.3520  137.0420 N   0  0  0  0  0  0  0  0  0  0  0  0
  189.2550  177.4970  137.8070 C   0  0  0  0  0  3  0  0  0  0  0  0
  188.2320  177.7420  135.6670 C   0  0  0  0  0  0  0  0  0  0  0  0
  189.4470  177.5010  134.8460 C   0  0  0  0  0  1  0  0  0  0  0  0
  187.2250  178.2890  135.1400 O   0  0  0  0  0  0  0  0  0  0  0  0
  1  8  1  6  0  0  0
  1 16  1  0  0  0  0
  1 19  1  0  0  0  0
  2  7  1  0  0  0  0
  2  3  1  0  0  0  0
  3 13  1  0  0  0  0
  4  5  2  0  0  0  0
  4 20  1  0  0  0  0
  5 12  1  0  0  0  0
  6 11  1  0  0  0  0
  6 18  1  0  0  0  0
  7  9  1  0  0  0  0
  9  8  1  6  0  0  0
  9 14  1  0  0  0  0
 12 11  2  0  0  0  0
 14 13  1  6  0  0  0
 14 10  1  0  0  0  0
 15 20  1  0  0  0  0
 16 17  2  0  0  0  0
 17  5  1  0  0  0  0
 19 10  1  6  0  0  0
 19  4  1  0  0  0  0
 20  6  2  0  0  0  0
 21 24  1  0  0  0  0
 22 25  1  0  0  0  0
 22 16  1  0  0  0  0
 24 25  1  0  0  0  0
 25 23  1  6  0  0  0
 26 22  1  0  0  0  0
 27 29  1  6  0  0  0
 27 21  1  0  0  0  0
 27 26  1  0  0  0  0
 28 29  2  0  0  0  0
 30 28  1  0  0  0  0
 31 30  1  0  0  0  0
 32 30  2  0  0  0  0
M  END
>  <MODEL>
9

>  <REMARK>
 VINA RESULT:      -8.5      2.880      5.978
  Name = 
  3 active torsions:
  status: ('A' for Active; 'I' for Inactive)
    1  A    between atoms: C_1  and  N_10
    2  A    between atoms: N_8  and  C_28
    3  A    between atoms: C_19  and  C_24
                            x       y       z     vdW  Elec       q    Type
                         _______ _______ _______ _____ _____    ______ ____

>  <TORSDO>
F 3

$$$$
