=
 OpenBabel11052412303D

 30 32  0  0  1  0  0  0  0  0999 V2000
  186.8450  177.9350  143.0610 N   0  0  0  0  0  0  0  0  0  0  0  0
  184.6120  178.7050  142.3140 C   0  0  0  0  0  0  0  0  0  0  0  0
  185.9460  178.4930  147.0970 C   0  0  0  0  0  3  0  0  0  0  0  0
  187.8060  177.6690  143.9880 C   0  0  0  0  0  0  0  0  0  0  0  0
  186.9160  178.2380  148.0690 C   0  0  0  0  0  3  0  0  0  0  0  0
  183.2780  178.8570  142.8090 O   0  0  0  0  0  0  0  0  0  0  0  0
  184.6280  177.7360  141.3090 O   0  0  0  0  0  0  0  0  0  0  0  0
  186.2330  178.3050  145.7350 C   0  0  0  0  0  0  0  0  0  0  0  0
  182.9820  179.1440  144.1460 C   0  0  0  0  0  3  0  0  0  0  0  0
  185.5960  178.3500  143.3980 C   0  0  0  0  0  0  0  0  0  0  0  0
  187.5200  177.8520  145.3540 C   0  0  0  0  0  0  0  0  0  0  0  0
  188.1830  177.7910  147.6910 C   0  0  0  0  0  3  0  0  0  0  0  0
  188.4840  177.5990  146.3420 C   0  0  0  0  0  3  0  0  0  0  0  0
  183.9090  179.0200  145.0930 C   0  0  0  0  0  3  0  0  0  0  0  0
  185.2650  178.5580  144.7470 C   0  0  0  0  0  0  0  0  0  0  0  0
  189.1740  177.2220  143.5370 C   0  0  2  0  0  3  0  0  0  0  0  0
  190.2170  179.3580  143.4940 O   0  0  0  0  0  0  0  0  0  0  0  0
  190.2900  178.1660  143.8910 C   0  0  0  0  0  0  0  0  0  0  0  0
  191.3880  177.7800  144.7250 N   0  0  0  0  0  2  0  0  0  0  0  0
  191.7090  176.4800  144.9600 O   0  0  0  0  0  0  0  0  0  0  0  0
  191.7460  177.4500  147.0660 O   0  0  0  0  0  1  0  0  0  0  0  0
  191.5820  176.2610  146.3490 C   0  0  2  0  0  3  0  0  0  0  0  0
  192.5190  175.1830  146.8730 C   0  0  0  0  0  1  0  0  0  0  0  0
  189.2330  176.7230  142.1190 C   0  0  0  0  0  3  0  0  0  0  0  0
  190.0840  177.2200  141.2190 C   0  0  0  0  0  3  0  0  0  0  0  0
  190.1010  176.7040  139.8200 C   0  0  0  0  0  2  0  0  0  0  0  0
  190.1250  177.8140  138.8820 N   0  0  0  0  0  2  0  0  0  0  0  0
  187.7000  178.2340  139.1610 N   0  0  0  0  0  1  0  0  0  0  0  0
  188.9500  178.5590  138.5620 C   0  0  0  0  0  0  0  0  0  0  0  0
  189.0210  179.5110  137.7440 O   0  0  0  0  0  0  0  0  0  0  0  0
  1 10  2  0  0  0  0
  1  4  1  0  0  0  0
  2  6  1  0  0  0  0
  2 10  1  0  0  0  0
  3  5  2  0  0  0  0
  4 11  2  0  0  0  0
  6  9  1  0  0  0  0
  7  2  2  0  0  0  0
  8  3  1  0  0  0  0
  9 14  2  0  0  0  0
 10 15  1  0  0  0  0
 11  8  1  0  0  0  0
 11 13  1  0  0  0  0
 12  5  1  0  0  0  0
 13 12  2  0  0  0  0
 15 14  1  0  0  0  0
 15  8  2  0  0  0  0
 16 24  1  6  0  0  0
 16 18  1  0  0  0  0
 16  4  1  0  0  0  0
 17 18  2  0  0  0  0
 18 19  1  0  0  0  0
 19 20  1  0  0  0  0
 20 22  1  0  0  0  0
 22 23  1  1  0  0  0
 22 21  1  0  0  0  0
 25 24  2  0  0  0  0
 26 25  1  0  0  0  0
 27 26  1  0  0  0  0
 29 27  1  0  0  0  0
 29 28  1  0  0  0  0
 30 29  2  0  0  0  0
M  END
>  <MODEL>
1

>  <REMARK>
 VINA RESULT:      -9.4      0.000      0.000
  Name = 
  7 active torsions:
  status: ('A' for Active; 'I' for Inactive)
    1  A    between atoms: C_4  and  C_13
    2  A    between atoms: N_7  and  C_16
    3  A    between atoms: C_8  and  C_13
    4  A    between atoms: O_9  and  N_12
    5  A    between atoms: O_9  and  C_17
    6  A    between atoms: C_13  and  C_27
    7  A    between atoms: C_16  and  C_30
                            x       y       z     vdW  Elec       q    Type
                         _______ _______ _______ _____ _____    ______ ____

>  <TORSDO>
F 7

$$$$
=
 OpenBabel11052412303D

 30 32  0  0  1  0  0  0  0  0999 V2000
  188.9110  176.9580  144.9920 N   0  0  0  0  0  0  0  0  0  0  0  0
  189.2980  177.0320  147.4380 C   0  0  0  0  0  0  0  0  0  0  0  0
  185.1310  178.6990  145.3030 C   0  0  0  0  0  3  0  0  0  0  0  0
  188.1800  177.1410  143.8590 C   0  0  0  0  0  0  0  0  0  0  0  0
  184.3560  178.8890  144.1570 C   0  0  0  0  0  3  0  0  0  0  0  0
  188.8470  177.7300  148.6040 O   0  0  0  0  0  0  0  0  0  0  0  0
  190.6400  177.3380  147.2030 O   0  0  0  0  0  0  0  0  0  0  0  0
  186.4070  178.1190  145.2130 C   0  0  0  0  0  0  0  0  0  0  0  0
  187.5460  178.2260  148.7470 C   0  0  0  0  0  3  0  0  0  0  0  0
  188.4700  177.3430  146.2190 C   0  0  0  0  0  0  0  0  0  0  0  0
  186.9030  177.7270  143.9450 C   0  0  0  0  0  0  0  0  0  0  0  0
  184.8460  178.5030  142.9080 C   0  0  0  0  0  3  0  0  0  0  0  0
  186.1120  177.9250  142.8020 C   0  0  0  0  0  3  0  0  0  0  0  0
  186.7320  178.3220  147.6990 C   0  0  0  0  0  3  0  0  0  0  0  0
  187.1980  177.9220  146.3580 C   0  0  0  0  0  0  0  0  0  0  0  0
  188.7310  176.6770  142.5340 C   0  0  2  0  0  3  0  0  0  0  0  0
  190.1670  174.8130  142.8710 O   0  0  0  0  0  0  0  0  0  0  0  0
  190.0920  176.0410  142.6090 C   0  0  0  0  0  0  0  0  0  0  0  0
  191.2940  176.7620  142.3190 N   0  0  0  0  0  2  0  0  0  0  0  0
  191.3520  178.1210  142.3110 O   0  0  0  0  0  0  0  0  0  0  0  0
  191.9980  177.4380  144.4310 O   0  0  0  0  0  1  0  0  0  0  0  0
  191.8560  178.5270  143.5650 C   0  0  2  0  0  3  0  0  0  0  0  0
  191.0280  179.6260  144.2150 C   0  0  0  0  0  1  0  0  0  0  0  0
  188.5910  177.6730  141.4150 C   0  0  0  0  0  3  0  0  0  0  0  0
  188.7270  177.3330  140.1310 C   0  0  0  0  0  3  0  0  0  0  0  0
  188.5920  178.3550  139.0540 C   0  0  0  0  0  2  0  0  0  0  0  0
  187.7000  177.8650  138.0150 N   0  0  0  0  0  2  0  0  0  0  0  0
  185.7050  178.8070  139.1420 N   0  0  0  0  0  1  0  0  0  0  0  0
  186.2920  178.0870  138.0610 C   0  0  0  0  0  0  0  0  0  0  0  0
  185.5610  177.6430  137.1390 O   0  0  0  0  0  0  0  0  0  0  0  0
  1 10  1  0  0  0  0
  2  6  1  0  0  0  0
  4 11  1  0  0  0  0
  4  1  2  0  0  0  0
  5  3  2  0  0  0  0
  6  9  1  0  0  0  0
  7  2  2  0  0  0  0
  8  3  1  0  0  0  0
  8 15  1  0  0  0  0
 10 15  2  0  0  0  0
 10  2  1  0  0  0  0
 11  8  2  0  0  0  0
 12  5  1  0  0  0  0
 13 12  2  0  0  0  0
 13 11  1  0  0  0  0
 14  9  2  0  0  0  0
 15 14  1  0  0  0  0
 16 24  1  6  0  0  0
 16 18  1  0  0  0  0
 16  4  1  0  0  0  0
 18 17  2  0  0  0  0
 19 18  1  0  0  0  0
 20 19  1  0  0  0  0
 20 22  1  0  0  0  0
 22 23  1  1  0  0  0
 22 21  1  0  0  0  0
 25 24  2  0  0  0  0
 26 25  1  0  0  0  0
 27 29  1  0  0  0  0
 27 26  1  0  0  0  0
 29 28  1  0  0  0  0
 30 29  2  0  0  0  0
M  END
>  <MODEL>
2

>  <REMARK>
 VINA RESULT:      -9.1      2.188      4.083
  Name = 
  7 active torsions:
  status: ('A' for Active; 'I' for Inactive)
    1  A    between atoms: C_4  and  C_13
    2  A    between atoms: N_7  and  C_16
    3  A    between atoms: C_8  and  C_13
    4  A    between atoms: O_9  and  N_12
    5  A    between atoms: O_9  and  C_17
    6  A    between atoms: C_13  and  C_27
    7  A    between atoms: C_16  and  C_30
                            x       y       z     vdW  Elec       q    Type
                         _______ _______ _______ _____ _____    ______ ____

>  <TORSDO>
F 7

$$$$
=
 OpenBabel11052412303D

 30 32  0  0  1  0  0  0  0  0999 V2000
  188.1010  177.8020  145.0720 N   0  0  0  0  0  0  0  0  0  0  0  0
  186.3780  177.9260  146.8470 C   0  0  0  0  0  0  0  0  0  0  0  0
  185.3680  178.6530  142.0350 C   0  0  0  0  0  3  0  0  0  0  0  0
  188.5430  177.8330  143.7840 C   0  0  0  0  0  0  0  0  0  0  0  0
  185.7920  178.6820  140.7050 C   0  0  0  0  0  3  0  0  0  0  0  0
  185.0840  178.4890  147.0890 O   0  0  0  0  0  0  0  0  0  0  0  0
  187.3120  178.5260  147.6940 O   0  0  0  0  0  0  0  0  0  0  0  0
  186.2780  178.3730  143.0680 C   0  0  0  0  0  0  0  0  0  0  0  0
  184.1300  178.6820  146.0830 C   0  0  0  0  0  3  0  0  0  0  0  0
  186.8110  178.0620  145.4110 C   0  0  0  0  0  0  0  0  0  0  0  0
  187.6350  178.1190  142.7480 C   0  0  0  0  0  0  0  0  0  0  0  0
  187.1290  178.4320  140.3910 C   0  0  0  0  0  3  0  0  0  0  0  0
  188.0460  178.1520  141.4060 C   0  0  0  0  0  3  0  0  0  0  0  0
  184.4670  178.6090  144.7980 C   0  0  0  0  0  3  0  0  0  0  0  0
  185.8650  178.3410  144.4120 C   0  0  0  0  0  0  0  0  0  0  0  0
  189.9870  177.5220  143.4840 C   0  0  2  0  0  3  0  0  0  0  0  0
  191.1850  179.4890  144.0790 O   0  0  0  0  0  0  0  0  0  0  0  0
  190.9790  178.2730  144.3300 C   0  0  0  0  0  0  0  0  0  0  0  0
  191.6350  177.6790  145.4550 N   0  0  0  0  0  2  0  0  0  0  0  0
  191.7080  176.3330  145.6360 O   0  0  0  0  0  0  0  0  0  0  0  0
  190.6040  177.1230  147.5160 O   0  0  0  0  0  1  0  0  0  0  0  0
  191.3450  176.0690  146.9750 C   0  0  2  0  0  3  0  0  0  0  0  0
  192.5360  175.7370  147.8620 C   0  0  0  0  0  1  0  0  0  0  0  0
  190.3330  177.5070  142.0200 C   0  0  0  0  0  3  0  0  0  0  0  0
  191.5740  177.2920  141.5790 C   0  0  0  0  0  3  0  0  0  0  0  0
  191.8750  177.2970  140.1180 C   0  0  0  0  0  2  0  0  0  0  0  0
  190.6370  177.3540  139.3570 N   0  0  0  0  0  2  0  0  0  0  0  0
  191.0200  175.1140  138.3720 N   0  0  0  0  0  1  0  0  0  0  0  0
  190.2230  176.2870  138.5060 C   0  0  0  0  0  0  0  0  0  0  0  0
  189.1440  176.3840  137.8670 O   0  0  0  0  0  0  0  0  0  0  0  0
  1 10  1  0  0  0  0
  2  6  1  0  0  0  0
  2  7  2  0  0  0  0
  3  8  1  0  0  0  0
  4  1  2  0  0  0  0
  5  3  2  0  0  0  0
  8 15  1  0  0  0  0
  9  6  1  0  0  0  0
 10  2  1  0  0  0  0
 11  8  2  0  0  0  0
 11  4  1  0  0  0  0
 12  5  1  0  0  0  0
 12 13  2  0  0  0  0
 13 11  1  0  0  0  0
 14  9  2  0  0  0  0
 15 14  1  0  0  0  0
 15 10  2  0  0  0  0
 16 24  1  6  0  0  0
 16  4  1  0  0  0  0
 16 18  1  0  0  0  0
 17 18  2  0  0  0  0
 18 19  1  0  0  0  0
 19 20  1  0  0  0  0
 20 22  1  0  0  0  0
 22 21  1  0  0  0  0
 22 23  1  1  0  0  0
 25 24  2  0  0  0  0
 26 25  1  0  0  0  0
 27 26  1  0  0  0  0
 28 29  1  0  0  0  0
 29 27  1  0  0  0  0
 30 29  2  0  0  0  0
M  END
>  <MODEL>
3

>  <REMARK>
 VINA RESULT:      -8.6      1.975      3.376
  Name = 
  7 active torsions:
  status: ('A' for Active; 'I' for Inactive)
    1  A    between atoms: C_4  and  C_13
    2  A    between atoms: N_7  and  C_16
    3  A    between atoms: C_8  and  C_13
    4  A    between atoms: O_9  and  N_12
    5  A    between atoms: O_9  and  C_17
    6  A    between atoms: C_13  and  C_27
    7  A    between atoms: C_16  and  C_30
                            x       y       z     vdW  Elec       q    Type
                         _______ _______ _______ _____ _____    ______ ____

>  <TORSDO>
F 7

$$$$
=
 OpenBabel11052412303D

 30 32  0  0  1  0  0  0  0  0999 V2000
  188.0410  178.0460  141.8020 N   0  0  0  0  0  0  0  0  0  0  0  0
  185.9290  178.5000  140.5880 C   0  0  0  0  0  0  0  0  0  0  0  0
  190.1910  177.3830  138.2880 C   0  0  0  0  0  3  0  0  0  0  0  0
  189.3550  177.7050  141.8940 C   0  0  0  0  0  0  0  0  0  0  0  0
  191.5390  177.0220  138.3530 C   0  0  0  0  0  3  0  0  0  0  0  0
  185.4680  178.9070  139.2950 O   0  0  0  0  0  0  0  0  0  0  0  0
  185.6190  179.4890  141.5240 O   0  0  0  0  0  0  0  0  0  0  0  0
  189.4560  177.6140  139.4620 C   0  0  0  0  0  0  0  0  0  0  0  0
  186.1400  178.5960  138.1070 C   0  0  0  0  0  3  0  0  0  0  0  0
  187.4060  178.2040  140.6100 C   0  0  0  0  0  0  0  0  0  0  0  0
  190.0960  177.4780  140.7190 C   0  0  0  0  0  0  0  0  0  0  0  0
  192.1680  176.8890  139.5930 C   0  0  0  0  0  3  0  0  0  0  0  0
  191.4510  177.1150  140.7690 C   0  0  0  0  0  3  0  0  0  0  0  0
  187.3910  178.1440  138.1270 C   0  0  0  0  0  3  0  0  0  0  0  0
  188.0990  177.9780  139.4100 C   0  0  0  0  0  0  0  0  0  0  0  0
  189.9880  177.5360  143.2520 C   0  0  2  0  0  3  0  0  0  0  0  0
  190.2080  175.2140  142.7900 O   0  0  0  0  0  0  0  0  0  0  0  0
  190.5930  176.1810  143.4980 C   0  0  0  0  0  0  0  0  0  0  0  0
  191.6410  175.9670  144.4500 N   0  0  0  0  0  2  0  0  0  0  0  0
  191.9210  176.8520  145.4440 O   0  0  0  0  0  0  0  0  0  0  0  0
  190.8610  177.2100  147.4750 O   0  0  0  0  0  1  0  0  0  0  0  0
  191.4950  176.2700  146.6570 C   0  0  2  0  0  3  0  0  0  0  0  0
  192.6160  175.5700  147.4100 C   0  0  0  0  0  1  0  0  0  0  0  0
  189.1540  178.0410  144.3990 C   0  0  0  0  0  3  0  0  0  0  0  0
  188.3650  177.2400  145.1180 C   0  0  0  0  0  3  0  0  0  0  0  0
  187.5460  177.7850  146.2390 C   0  0  0  0  0  2  0  0  0  0  0  0
  186.1570  177.9050  145.8250 N   0  0  0  0  0  2  0  0  0  0  0  0
  185.7190  179.7080  147.4660 N   0  0  0  0  0  1  0  0  0  0  0  0
  185.2680  178.8450  146.4270 C   0  0  0  0  0  0  0  0  0  0  0  0
  184.0740  178.9110  146.0350 O   0  0  0  0  0  0  0  0  0  0  0  0
  1  4  1  0  0  0  0
  2 10  1  0  0  0  0
  2  7  2  0  0  0  0
  3  5  2  0  0  0  0
  3  8  1  0  0  0  0
  4 16  1  0  0  0  0
  5 12  1  0  0  0  0
  6  2  1  0  0  0  0
  8 11  1  0  0  0  0
  9 14  2  0  0  0  0
  9  6  1  0  0  0  0
 10  1  2  0  0  0  0
 11 13  1  0  0  0  0
 11  4  2  0  0  0  0
 12 13  2  0  0  0  0
 14 15  1  0  0  0  0
 15  8  2  0  0  0  0
 15 10  1  0  0  0  0
 16 18  1  0  0  0  0
 16 24  1  1  0  0  0
 17 18  2  0  0  0  0
 18 19  1  0  0  0  0
 19 20  1  0  0  0  0
 20 22  1  0  0  0  0
 22 23  1  1  0  0  0
 22 21  1  0  0  0  0
 24 25  2  0  0  0  0
 25 26  1  0  0  0  0
 27 26  1  0  0  0  0
 27 29  1  0  0  0  0
 29 28  1  0  0  0  0
 30 29  2  0  0  0  0
M  END
>  <MODEL>
4

>  <REMARK>
 VINA RESULT:      -8.4      1.991      5.823
  Name = 
  7 active torsions:
  status: ('A' for Active; 'I' for Inactive)
    1  A    between atoms: C_4  and  C_13
    2  A    between atoms: N_7  and  C_16
    3  A    between atoms: C_8  and  C_13
    4  A    between atoms: O_9  and  N_12
    5  A    between atoms: O_9  and  C_17
    6  A    between atoms: C_13  and  C_27
    7  A    between atoms: C_16  and  C_30
                            x       y       z     vdW  Elec       q    Type
                         _______ _______ _______ _____ _____    ______ ____

>  <TORSDO>
F 7

$$$$
=
 OpenBabel11052412303D

 30 32  0  0  1  0  0  0  0  0999 V2000
  186.1710  178.4000  142.2770 N   0  0  0  0  0  0  0  0  0  0  0  0
  183.9280  178.9440  141.3790 C   0  0  0  0  0  0  0  0  0  0  0  0
  184.8620  178.4770  146.2390 C   0  0  0  0  0  3  0  0  0  0  0  0
  187.0760  178.1760  143.2690 C   0  0  0  0  0  0  0  0  0  0  0  0
  185.7710  178.2610  147.2770 C   0  0  0  0  0  3  0  0  0  0  0  0
  182.5470  178.8810  141.7530 O   0  0  0  0  0  0  0  0  0  0  0  0
  184.1600  178.0790  140.3090 O   0  0  0  0  0  0  0  0  0  0  0  0
  185.2880  178.4490  144.9000 C   0  0  0  0  0  0  0  0  0  0  0  0
  182.1020  179.0070  143.0740 C   0  0  0  0  0  3  0  0  0  0  0  0
  184.8530  178.6220  142.5230 C   0  0  0  0  0  0  0  0  0  0  0  0
  186.6520  178.1980  144.6110 C   0  0  0  0  0  0  0  0  0  0  0  0
  187.1150  178.0130  146.9900 C   0  0  0  0  0  3  0  0  0  0  0  0
  187.5530  177.9830  145.6650 C   0  0  0  0  0  3  0  0  0  0  0  0
  182.9520  178.9180  144.0940 C   0  0  0  0  0  3  0  0  0  0  0  0
  184.3830  178.6640  143.8450 C   0  0  0  0  0  0  0  0  0  0  0  0
  188.5250  177.9490  142.9190 C   0  0  2  0  0  3  0  0  0  0  0  0
  188.6900  175.6140  142.5020 O   0  0  0  0  0  0  0  0  0  0  0  0
  188.7740  176.7710  142.0170 C   0  0  0  0  0  0  0  0  0  0  0  0
  189.0260  176.9170  140.6150 N   0  0  0  0  0  2  0  0  0  0  0  0
  189.4160  178.0950  140.0570 O   0  0  0  0  0  0  0  0  0  0  0  0
  189.0610  179.3840  138.1630 O   0  0  0  0  0  1  0  0  0  0  0  0
  188.9300  178.1140  138.7320 C   0  0  2  0  0  3  0  0  0  0  0  0
  187.4970  177.6170  138.6140 C   0  0  0  0  0  1  0  0  0  0  0  0
  189.4710  178.0240  144.0870 C   0  0  0  0  0  3  0  0  0  0  0  0
  190.7810  177.8030  143.9640 C   0  0  0  0  0  3  0  0  0  0  0  0
  191.6810  177.8770  145.1510 C   0  0  0  0  0  2  0  0  0  0  0  0
  191.7880  176.5670  145.7740 N   0  0  0  0  0  2  0  0  0  0  0  0
  191.3480  177.4920  148.0290 N   0  0  0  0  0  1  0  0  0  0  0  0
  191.6250  176.3830  147.1790 C   0  0  0  0  0  0  0  0  0  0  0  0
  191.7280  175.2310  147.6720 O   0  0  0  0  0  0  0  0  0  0  0  0
  1 10  2  0  0  0  0
  1  4  1  0  0  0  0
  2  6  1  0  0  0  0
  2 10  1  0  0  0  0
  3  5  2  0  0  0  0
  4 11  2  0  0  0  0
  6  9  1  0  0  0  0
  7  2  2  0  0  0  0
  8  3  1  0  0  0  0
  9 14  2  0  0  0  0
 10 15  1  0  0  0  0
 11  8  1  0  0  0  0
 11 13  1  0  0  0  0
 12  5  1  0  0  0  0
 13 12  2  0  0  0  0
 15 14  1  0  0  0  0
 15  8  2  0  0  0  0
 16  4  1  0  0  0  0
 16 24  1  1  0  0  0
 18 17  2  0  0  0  0
 18 16  1  0  0  0  0
 19 18  1  0  0  0  0
 20 19  1  0  0  0  0
 21 22  1  0  0  0  0
 22 23  1  1  0  0  0
 22 20  1  0  0  0  0
 25 24  2  0  0  0  0
 25 26  1  0  0  0  0
 26 27  1  0  0  0  0
 27 29  1  0  0  0  0
 29 30  2  0  0  0  0
 29 28  1  0  0  0  0
M  END
>  <MODEL>
5

>  <REMARK>
 VINA RESULT:      -8.3      1.564      5.048
  Name = 
  7 active torsions:
  status: ('A' for Active; 'I' for Inactive)
    1  A    between atoms: C_4  and  C_13
    2  A    between atoms: N_7  and  C_16
    3  A    between atoms: C_8  and  C_13
    4  A    between atoms: O_9  and  N_12
    5  A    between atoms: O_9  and  C_17
    6  A    between atoms: C_13  and  C_27
    7  A    between atoms: C_16  and  C_30
                            x       y       z     vdW  Elec       q    Type
                         _______ _______ _______ _____ _____    ______ ____

>  <TORSDO>
F 7

$$$$
=
 OpenBabel11052412303D

 30 32  0  0  1  0  0  0  0  0999 V2000
  188.5870  177.2950  143.3320 N   0  0  0  0  0  0  0  0  0  0  0  0
  190.8370  176.3070  143.6510 C   0  0  0  0  0  0  0  0  0  0  0  0
  187.9930  177.8490  147.4250 C   0  0  0  0  0  3  0  0  0  0  0  0
  187.4070  177.8230  143.7560 C   0  0  0  0  0  0  0  0  0  0  0  0
  186.7880  178.3800  147.8880 C   0  0  0  0  0  3  0  0  0  0  0  0
  191.8980  176.2710  144.6120 O   0  0  0  0  0  0  0  0  0  0  0  0
  191.2750  176.9620  142.5000 O   0  0  0  0  0  0  0  0  0  0  0  0
  188.2090  177.6620  146.0500 C   0  0  0  0  0  0  0  0  0  0  0  0
  191.6870  176.3570  145.9940 C   0  0  0  0  0  3  0  0  0  0  0  0
  189.5920  176.9640  144.1870 C   0  0  0  0  0  0  0  0  0  0  0  0
  187.1890  178.0170  145.1330 C   0  0  0  0  0  0  0  0  0  0  0  0
  185.7840  178.7310  146.9830 C   0  0  0  0  0  3  0  0  0  0  0  0
  185.9830  178.5500  145.6130 C   0  0  0  0  0  3  0  0  0  0  0  0
  190.5140  176.7540  146.4830 C   0  0  0  0  0  3  0  0  0  0  0  0
  189.4190  177.1290  145.5700 C   0  0  0  0  0  0  0  0  0  0  0  0
  186.3340  178.1540  142.7490 C   0  0  2  0  0  3  0  0  0  0  0  0
  188.0580  178.9740  141.3310 O   0  0  0  0  0  0  0  0  0  0  0  0
  186.8500  178.6330  141.4190 C   0  0  0  0  0  0  0  0  0  0  0  0
  186.0410  178.6410  140.2380 N   0  0  0  0  0  2  0  0  0  0  0  0
  184.6830  178.5730  140.2780 O   0  0  0  0  0  0  0  0  0  0  0  0
  184.1800  180.5020  139.0940 O   0  0  0  0  0  1  0  0  0  0  0  0
  184.2000  179.1050  139.0630 C   0  0  2  0  0  3  0  0  0  0  0  0
  182.8350  178.5570  138.6720 C   0  0  0  0  0  1  0  0  0  0  0  0
  185.2010  178.9830  143.2910 C   0  0  0  0  0  3  0  0  0  0  0  0
  183.9400  178.5480  143.3090 C   0  0  0  0  0  3  0  0  0  0  0  0
  182.8460  179.4070  143.8450 C   0  0  0  0  0  2  0  0  0  0  0  0
  181.6220  178.6300  143.9710 N   0  0  0  0  0  2  0  0  0  0  0  0
  180.7990  179.3810  141.7590 N   0  0  0  0  0  1  0  0  0  0  0  0
  180.6250  178.6200  142.9500 C   0  0  0  0  0  0  0  0  0  0  0  0
  179.5830  177.9330  143.1050 O   0  0  0  0  0  0  0  0  0  0  0  0
  1  4  2  0  0  0  0
  1 10  1  0  0  0  0
  2 10  1  0  0  0  0
  2  6  1  0  0  0  0
  3  5  1  0  0  0  0
  4 11  1  0  0  0  0
  6  9  1  0  0  0  0
  7  2  2  0  0  0  0
  8  3  2  0  0  0  0
  9 14  2  0  0  0  0
 10 15  2  0  0  0  0
 11 13  2  0  0  0  0
 11  8  1  0  0  0  0
 12  5  2  0  0  0  0
 13 12  1  0  0  0  0
 15  8  1  0  0  0  0
 15 14  1  0  0  0  0
 16 24  1  1  0  0  0
 16  4  1  0  0  0  0
 17 18  2  0  0  0  0
 18 16  1  0  0  0  0
 19 20  1  0  0  0  0
 19 18  1  0  0  0  0
 22 23  1  1  0  0  0
 22 21  1  0  0  0  0
 22 20  1  0  0  0  0
 24 25  2  0  0  0  0
 25 26  1  0  0  0  0
 26 27  1  0  0  0  0
 28 29  1  0  0  0  0
 29 30  2  0  0  0  0
 29 27  1  0  0  0  0
M  END
>  <MODEL>
6

>  <REMARK>
 VINA RESULT:      -8.2      2.406      6.994
  Name = 
  7 active torsions:
  status: ('A' for Active; 'I' for Inactive)
    1  A    between atoms: C_4  and  C_13
    2  A    between atoms: N_7  and  C_16
    3  A    between atoms: C_8  and  C_13
    4  A    between atoms: O_9  and  N_12
    5  A    between atoms: O_9  and  C_17
    6  A    between atoms: C_13  and  C_27
    7  A    between atoms: C_16  and  C_30
                            x       y       z     vdW  Elec       q    Type
                         _______ _______ _______ _____ _____    ______ ____

>  <TORSDO>
F 7

$$$$
=
 OpenBabel11052412303D

 30 32  0  0  1  0  0  0  0  0999 V2000
  186.0460  178.2660  144.7610 N   0  0  0  0  0  0  0  0  0  0  0  0
  186.2620  178.7190  147.1870 C   0  0  0  0  0  0  0  0  0  0  0  0
  189.9240  176.7520  144.4620 C   0  0  0  0  0  3  0  0  0  0  0  0
  186.4980  177.8610  143.5430 C   0  0  0  0  0  0  0  0  0  0  0  0
  190.4160  176.3380  143.2230 C   0  0  0  0  0  3  0  0  0  0  0  0
  187.0360  178.3090  148.3200 O   0  0  0  0  0  0  0  0  0  0  0  0
  184.9340  178.3280  147.3650 O   0  0  0  0  0  0  0  0  0  0  0  0
  188.6190  177.2590  144.5790 C   0  0  0  0  0  0  0  0  0  0  0  0
  188.3700  177.8960  148.2300 C   0  0  0  0  0  3  0  0  0  0  0  0
  186.7990  178.1730  145.8900 C   0  0  0  0  0  0  0  0  0  0  0  0
  187.8030  177.3470  143.4240 C   0  0  0  0  0  0  0  0  0  0  0  0
  189.6110  176.4250  142.0850 C   0  0  0  0  0  3  0  0  0  0  0  0
  188.3120  176.9270  142.1850 C   0  0  0  0  0  3  0  0  0  0  0  0
  188.9150  177.5960  147.0530 C   0  0  0  0  0  3  0  0  0  0  0  0
  188.1100  177.6780  145.8210 C   0  0  0  0  0  0  0  0  0  0  0  0
  185.6100  178.0050  142.3330 C   0  0  2  0  0  3  0  0  0  0  0  0
  186.5860  180.1200  141.8580 O   0  0  0  0  0  0  0  0  0  0  0  0
  186.0110  179.1040  141.3880 C   0  0  0  0  0  0  0  0  0  0  0  0
  185.8340  179.0030  139.9710 N   0  0  0  0  0  2  0  0  0  0  0  0
  184.9860  178.1070  139.3990 O   0  0  0  0  0  0  0  0  0  0  0  0
  183.9670  180.1680  139.0970 O   0  0  0  0  0  1  0  0  0  0  0  0
  184.0350  178.8420  138.6590 C   0  0  2  0  0  3  0  0  0  0  0  0
  182.6540  178.2040  138.6600 C   0  0  0  0  0  1  0  0  0  0  0  0
  184.1350  177.9740  142.6320 C   0  0  0  0  0  3  0  0  0  0  0  0
  183.3800  179.0740  142.6210 C   0  0  0  0  0  3  0  0  0  0  0  0
  181.9230  179.0000  142.9340 C   0  0  0  0  0  2  0  0  0  0  0  0
  181.1510  178.9960  141.7020 N   0  0  0  0  0  2  0  0  0  0  0  0
  179.7320  180.8770  142.4660 N   0  0  0  0  0  1  0  0  0  0  0  0
  180.0820  179.9130  141.4770 C   0  0  0  0  0  0  0  0  0  0  0  0
  179.4420  179.8700  140.3950 O   0  0  0  0  0  0  0  0  0  0  0  0
  1 10  1  0  0  0  0
  2  7  2  0  0  0  0
  2  6  1  0  0  0  0
  3  8  1  0  0  0  0
  4  1  2  0  0  0  0
  5  3  2  0  0  0  0
  8 15  1  0  0  0  0
  9  6  1  0  0  0  0
 10  2  1  0  0  0  0
 11  4  1  0  0  0  0
 11  8  2  0  0  0  0
 12 13  2  0  0  0  0
 12  5  1  0  0  0  0
 13 11  1  0  0  0  0
 14  9  2  0  0  0  0
 15 10  2  0  0  0  0
 15 14  1  0  0  0  0
 16 24  1  1  0  0  0
 16  4  1  0  0  0  0
 18 17  2  0  0  0  0
 18 16  1  0  0  0  0
 19 18  1  0  0  0  0
 20 19  1  0  0  0  0
 22 23  1  1  0  0  0
 22 21  1  0  0  0  0
 22 20  1  0  0  0  0
 25 24  2  0  0  0  0
 25 26  1  0  0  0  0
 27 26  1  0  0  0  0
 29 27  1  0  0  0  0
 29 28  1  0  0  0  0
 30 29  2  0  0  0  0
M  END
>  <MODEL>
7

>  <REMARK>
 VINA RESULT:      -8.2      2.971      7.019
  Name = 
  7 active torsions:
  status: ('A' for Active; 'I' for Inactive)
    1  A    between atoms: C_4  and  C_13
    2  A    between atoms: N_7  and  C_16
    3  A    between atoms: C_8  and  C_13
    4  A    between atoms: O_9  and  N_12
    5  A    between atoms: O_9  and  C_17
    6  A    between atoms: C_13  and  C_27
    7  A    between atoms: C_16  and  C_30
                            x       y       z     vdW  Elec       q    Type
                         _______ _______ _______ _____ _____    ______ ____

>  <TORSDO>
F 7

$$$$
=
 OpenBabel11052412303D

 30 32  0  0  1  0  0  0  0  0999 V2000
  189.6470  177.0840  143.9780 N   0  0  0  0  0  0  0  0  0  0  0  0
  190.4680  176.7840  146.2960 C   0  0  0  0  0  0  0  0  0  0  0  0
  185.8410  178.2550  145.2290 C   0  0  0  0  0  3  0  0  0  0  0  0
  188.7060  177.3660  143.0350 C   0  0  0  0  0  0  0  0  0  0  0  0
  184.8550  178.5400  144.2830 C   0  0  0  0  0  3  0  0  0  0  0  0
  190.1750  177.2080  147.6320 O   0  0  0  0  0  0  0  0  0  0  0  0
  191.7090  177.2930  145.9090 O   0  0  0  0  0  0  0  0  0  0  0  0
  187.1280  177.8650  144.8220 C   0  0  0  0  0  0  0  0  0  0  0  0
  188.8810  177.5040  148.0770 C   0  0  0  0  0  3  0  0  0  0  0  0
  189.4040  177.1940  145.3110 C   0  0  0  0  0  0  0  0  0  0  0  0
  187.4170  177.7630  143.4390 C   0  0  0  0  0  0  0  0  0  0  0  0
  185.1420  178.4400  142.9200 C   0  0  0  0  0  3  0  0  0  0  0  0
  186.4150  178.0530  142.5000 C   0  0  0  0  0  3  0  0  0  0  0  0
  187.8830  177.6760  147.2140 C   0  0  0  0  0  3  0  0  0  0  0  0
  188.1310  177.5750  145.7640 C   0  0  0  0  0  0  0  0  0  0  0  0
  189.0460  177.2110  141.5740 C   0  0  2  0  0  3  0  0  0  0  0  0
  191.2860  177.8900  141.9900 O   0  0  0  0  0  0  0  0  0  0  0  0
  190.5190  177.1980  141.2710 C   0  0  0  0  0  0  0  0  0  0  0  0
  191.0870  176.3720  140.2490 N   0  0  0  0  0  2  0  0  0  0  0  0
  190.3440  175.8240  139.2510 O   0  0  0  0  0  0  0  0  0  0  0  0
  191.3600  174.3550  137.7720 O   0  0  0  0  0  1  0  0  0  0  0  0
  191.1830  175.6970  138.1230 C   0  0  2  0  0  3  0  0  0  0  0  0
  192.5270  176.3890  138.2980 C   0  0  0  0  0  1  0  0  0  0  0  0
  188.2470  178.0880  140.6490 C   0  0  0  0  0  3  0  0  0  0  0  0
  187.9280  177.7170  139.4070 C   0  0  0  0  0  3  0  0  0  0  0  0
  187.1430  178.6230  138.5200 C   0  0  0  0  0  2  0  0  0  0  0  0
  185.8510  178.0270  138.2200 N   0  0  0  0  0  2  0  0  0  0  0  0
  184.6400  179.7490  139.5250 N   0  0  0  0  0  1  0  0  0  0  0  0
  184.6320  178.5790  138.7130 C   0  0  0  0  0  0  0  0  0  0  0  0
  183.5380  178.0270  138.4270 O   0  0  0  0  0  0  0  0  0  0  0  0
  1 10  1  0  0  0  0
  2  6  1  0  0  0  0
  4 11  1  0  0  0  0
  4  1  2  0  0  0  0
  5  3  2  0  0  0  0
  6  9  1  0  0  0  0
  7  2  2  0  0  0  0
  8  3  1  0  0  0  0
  8 15  1  0  0  0  0
 10 15  2  0  0  0  0
 10  2  1  0  0  0  0
 11  8  2  0  0  0  0
 12  5  1  0  0  0  0
 13 12  2  0  0  0  0
 13 11  1  0  0  0  0
 14  9  2  0  0  0  0
 15 14  1  0  0  0  0
 16 24  1  6  0  0  0
 16  4  1  0  0  0  0
 18 16  1  0  0  0  0
 18 17  2  0  0  0  0
 19 18  1  0  0  0  0
 20 19  1  0  0  0  0
 21 22  1  0  0  0  0
 22 23  1  1  0  0  0
 22 20  1  0  0  0  0
 25 24  2  0  0  0  0
 26 25  1  0  0  0  0
 27 26  1  0  0  0  0
 27 29  1  0  0  0  0
 29 28  1  0  0  0  0
 30 29  2  0  0  0  0
M  END
>  <MODEL>
8

>  <REMARK>
 VINA RESULT:      -8.2      2.166      5.219
  Name = 
  7 active torsions:
  status: ('A' for Active; 'I' for Inactive)
    1  A    between atoms: C_4  and  C_13
    2  A    between atoms: N_7  and  C_16
    3  A    between atoms: C_8  and  C_13
    4  A    between atoms: O_9  and  N_12
    5  A    between atoms: O_9  and  C_17
    6  A    between atoms: C_13  and  C_27
    7  A    between atoms: C_16  and  C_30
                            x       y       z     vdW  Elec       q    Type
                         _______ _______ _______ _____ _____    ______ ____

>  <TORSDO>
F 7

$$$$
=
 OpenBabel11052412303D

 30 32  0  0  1  0  0  0  0  0999 V2000
  186.3160  178.1640  144.2780 N   0  0  0  0  0  0  0  0  0  0  0  0
  184.1360  178.4600  145.4170 C   0  0  0  0  0  0  0  0  0  0  0  0
  184.6860  178.7920  140.4880 C   0  0  0  0  0  3  0  0  0  0  0  0
  187.1330  178.0800  143.1930 C   0  0  0  0  0  0  0  0  0  0  0  0
  185.5000  178.7020  139.3570 C   0  0  0  0  0  3  0  0  0  0  0  0
  182.8540  179.0600  145.2010 O   0  0  0  0  0  0  0  0  0  0  0  0
  184.7860  179.1170  146.4630 O   0  0  0  0  0  0  0  0  0  0  0  0
  185.2220  178.5880  141.7700 C   0  0  0  0  0  0  0  0  0  0  0  0
  182.2640  179.1790  143.9370 C   0  0  0  0  0  3  0  0  0  0  0  0
  184.9950  178.4690  144.1790 C   0  0  0  0  0  0  0  0  0  0  0  0
  186.6000  178.2890  141.9070 C   0  0  0  0  0  0  0  0  0  0  0  0
  186.8580  178.4090  139.4930 C   0  0  0  0  0  3  0  0  0  0  0  0
  187.4060  178.2030  140.7610 C   0  0  0  0  0  3  0  0  0  0  0  0
  182.9770  178.9930  142.8300 C   0  0  0  0  0  3  0  0  0  0  0  0
  184.4140  178.6750  142.9180 C   0  0  0  0  0  0  0  0  0  0  0  0
  188.5870  177.7260  143.3800 C   0  0  2  0  0  3  0  0  0  0  0  0
  188.2220  175.3830  143.1970 O   0  0  0  0  0  0  0  0  0  0  0  0
  188.9650  176.3530  142.8940 C   0  0  0  0  0  0  0  0  0  0  0  0
  190.0900  176.1230  142.0390 N   0  0  0  0  0  2  0  0  0  0  0  0
  191.0970  177.0240  141.8930 O   0  0  0  0  0  0  0  0  0  0  0  0
  190.6310  176.2480  139.7580 O   0  0  0  0  0  1  0  0  0  0  0  0
  191.2710  177.2390  140.5090 C   0  0  2  0  0  3  0  0  0  0  0  0
  192.7310  177.3640  140.1010 C   0  0  0  0  0  1  0  0  0  0  0  0
  189.1430  178.0590  144.7380 C   0  0  0  0  0  3  0  0  0  0  0  0
  188.9670  177.2690  145.7980 C   0  0  0  0  0  3  0  0  0  0  0  0
  189.5260  177.6430  147.1290 C   0  0  0  0  0  2  0  0  0  0  0  0
  190.4480  176.6160  147.5870 N   0  0  0  0  0  2  0  0  0  0  0  0
  192.0450  177.0900  145.7540 N   0  0  0  0  0  1  0  0  0  0  0  0
  191.6760  176.3480  146.9130 C   0  0  0  0  0  0  0  0  0  0  0  0
  192.4410  175.4480  147.3460 O   0  0  0  0  0  0  0  0  0  0  0  0
  2  7  2  0  0  0  0
  3  8  1  0  0  0  0
  4 16  1  0  0  0  0
  4  1  2  0  0  0  0
  5 12  1  0  0  0  0
  5  3  2  0  0  0  0
  6  2  1  0  0  0  0
  8 11  2  0  0  0  0
  8 15  1  0  0  0  0
  9  6  1  0  0  0  0
 10  1  1  0  0  0  0
 10  2  1  0  0  0  0
 11  4  1  0  0  0  0
 12 13  2  0  0  0  0
 13 11  1  0  0  0  0
 14 15  1  0  0  0  0
 14  9  2  0  0  0  0
 15 10  2  0  0  0  0
 16 24  1  1  0  0  0
 18 17  2  0  0  0  0
 18 16  1  0  0  0  0
 19 18  1  0  0  0  0
 20 19  1  0  0  0  0
 21 22  1  0  0  0  0
 22 23  1  1  0  0  0
 22 20  1  0  0  0  0
 24 25  2  0  0  0  0
 25 26  1  0  0  0  0
 26 27  1  0  0  0  0
 28 29  1  0  0  0  0
 29 30  2  0  0  0  0
 29 27  1  0  0  0  0
M  END
>  <MODEL>
9

>  <REMARK>
 VINA RESULT:      -8.2      2.194      5.578
  Name = 
  7 active torsions:
  status: ('A' for Active; 'I' for Inactive)
    1  A    between atoms: C_4  and  C_13
    2  A    between atoms: N_7  and  C_16
    3  A    between atoms: C_8  and  C_13
    4  A    between atoms: O_9  and  N_12
    5  A    between atoms: O_9  and  C_17
    6  A    between atoms: C_13  and  C_27
    7  A    between atoms: C_16  and  C_30
                            x       y       z     vdW  Elec       q    Type
                         _______ _______ _______ _____ _____    ______ ____

>  <TORSDO>
F 7

$$$$
