=
 OpenBabel11052415503D

 34 38  0  0  1  0  0  0  0  0999 V2000
  183.9770  178.3960  141.5670 C   0  0  0  0  0  0  0  0  0  0  0  0
  182.6990  177.2630  138.2990 C   0  0  0  0  0  3  0  0  0  0  0  0
  181.6380  178.1210  140.1280 N   0  0  0  0  0  2  0  0  0  0  0  0
  185.6790  179.9520  142.1180 F   0  0  0  0  0  0  0  0  0  0  0  0
  185.2420  178.6610  142.3580 C   0  0  1  0  0  3  0  0  0  0  0  0
  182.6820  178.9120  143.6450 C   0  0  0  0  0  0  0  0  0  0  0  0
  181.5150  179.2350  144.2560 F   0  0  0  0  0  0  0  0  0  0  0  0
  183.7800  178.8080  144.3900 C   0  0  0  0  0  3  0  0  0  0  0  0
  185.0460  178.4730  143.8000 N   0  0  0  0  0  0  0  0  0  0  0  0
  181.5620  178.5090  141.4220 C   0  0  0  0  0  0  0  0  0  0  0  0
  182.7300  178.6080  142.1930 C   0  0  0  0  0  0  0  0  0  0  0  0
  180.4310  178.7440  141.9250 O   0  0  0  0  0  0  0  0  0  0  0  0
  183.7950  176.5960  137.5410 C   0  0  0  0  0  2  0  0  0  0  0  0
  184.9010  177.5280  137.1980 C   0  0  0  0  0  0  0  0  0  0  0  0
  185.5890  178.1490  138.1480 C   0  0  0  0  0  3  0  0  0  0  0  0
  182.8090  177.8460  139.4990 C   0  0  0  0  0  0  0  0  0  0  0  0
  185.2410  178.2010  139.5780 C   0  0  0  0  0  3  0  0  0  0  0  0
  184.0370  178.0850  140.1830 C   0  0  0  0  0  0  0  0  0  0  0  0
  187.1230  177.8320  146.8650 C   0  0  0  0  0  3  0  0  0  0  0  0
  187.4020  177.7680  144.0790 C   0  0  0  0  0  3  0  0  0  0  0  0
  190.6610  176.7850  146.5460 C   0  0  0  0  0  0  0  0  0  0  0  0
  189.4310  177.1450  147.1150 C   0  0  0  0  0  3  0  0  0  0  0  0
  188.3460  177.4720  146.2990 C   0  0  0  0  0  0  0  0  0  0  0  0
  189.7120  177.0820  144.3260 C   0  0  0  0  0  3  0  0  0  0  0  0
  188.4870  177.4400  144.8940 C   0  0  0  0  0  0  0  0  0  0  0  0
  190.7940  176.7560  145.1500 C   0  0  0  0  0  3  0  0  0  0  0  0
  186.1660  178.1280  144.6410 C   0  0  0  0  0  0  0  0  0  0  0  0
  186.0400  178.1580  146.0420 C   0  0  0  0  0  3  0  0  0  0  0  0
  191.8010  176.4420  147.4120 C   0  0  0  0  0  0  0  0  0  0  0  0
  192.1230  177.1920  148.3720 O   0  0  0  0  0  1  0  0  0  0  0  0
  192.5360  175.2850  147.1780 O   0  0  0  0  0  0  0  0  0  0  0  0
  185.4040  177.6040  135.7940 C   0  0  2  0  0  3  0  0  0  0  0  0
  185.2480  176.2670  135.0910 C   0  0  0  0  0  1  0  0  0  0  0  0
  186.7450  177.9890  135.7830 O   0  0  0  0  0  1  0  0  0  0  0  0
  1 11  2  0  0  0  0
  1  5  1  0  0  0  0
  2 16  2  0  0  0  0
  3 10  1  0  0  0  0
  5  4  1  1  0  0  0
  5  9  1  0  0  0  0
  6  7  1  0  0  0  0
  6  8  2  0  0  0  0
  9  8  1  0  0  0  0
  9 27  1  0  0  0  0
 10 12  2  0  0  0  0
 10 11  1  0  0  0  0
 11  6  1  0  0  0  0
 13  2  1  0  0  0  0
 14 13  1  0  0  0  0
 14 15  2  0  0  0  0
 15 17  1  0  0  0  0
 16  3  1  0  0  0  0
 16 18  1  0  0  0  0
 17 18  2  0  0  0  0
 18  1  1  0  0  0  0
 20 27  2  0  0  0  0
 20 25  1  0  0  0  0
 21 22  1  0  0  0  0
 21 29  1  0  0  0  0
 23 19  1  0  0  0  0
 23 22  2  0  0  0  0
 24 25  2  0  0  0  0
 24 26  1  0  0  0  0
 25 23  1  0  0  0  0
 26 21  2  0  0  0  0
 27 28  1  0  0  0  0
 28 19  2  0  0  0  0
 29 30  1  0  0  0  0
 31 29  2  0  0  0  0
 32 33  1  1  0  0  0
 32 14  1  0  0  0  0
 34 32  1  0  0  0  0
M  END
>  <MODEL>
1

>  <REMARK>
 VINA RESULT:     -10.9      0.000      0.000
  Name = 
  3 active torsions:
  status: ('A' for Active; 'I' for Inactive)
    1  A    between atoms: C_3  and  C_25
    2  A    between atoms: C_7  and  C_11
    3  A    between atoms: N_18  and  C_30
                            x       y       z     vdW  Elec       q    Type
                         _______ _______ _______ _____ _____    ______ ____

>  <TORSDO>
F 3

$$$$
=
 OpenBabel11052415503D

 34 38  0  0  1  0  0  0  0  0999 V2000
  189.3330  177.1880  143.5430 C   0  0  0  0  0  0  0  0  0  0  0  0
  192.5450  177.5660  141.7740 C   0  0  0  0  0  3  0  0  0  0  0  0
  192.0560  177.2740  143.9830 N   0  0  0  0  0  2  0  0  0  0  0  0
  187.5270  175.6930  143.1880 F   0  0  0  0  0  0  0  0  0  0  0  0
  187.8390  177.0330  143.3410 C   0  0  1  0  0  3  0  0  0  0  0  0
  188.8930  177.3060  146.0030 C   0  0  0  0  0  0  0  0  0  0  0  0
  189.3350  177.2360  147.2830 F   0  0  0  0  0  0  0  0  0  0  0  0
  187.5950  177.5080  145.7910 C   0  0  0  0  0  3  0  0  0  0  0  0
  187.0650  177.5880  144.4580 N   0  0  0  0  0  0  0  0  0  0  0  0
  191.2260  177.2280  145.0510 C   0  0  0  0  0  0  0  0  0  0  0  0
  189.8360  177.2350  144.8590 C   0  0  0  0  0  0  0  0  0  0  0  0
  191.7220  177.2120  146.2100 O   0  0  0  0  0  0  0  0  0  0  0  0
  192.2890  177.9370  140.3540 C   0  0  0  0  0  2  0  0  0  0  0  0
  191.5820  176.8670  139.6010 C   0  0  0  0  0  0  0  0  0  0  0  0
  190.3790  176.4520  139.9770 C   0  0  0  0  0  3  0  0  0  0  0  0
  191.6170  177.2930  142.6980 C   0  0  0  0  0  0  0  0  0  0  0  0
  189.7010  176.7840  141.2430 C   0  0  0  0  0  3  0  0  0  0  0  0
  190.2230  177.1390  142.4390 C   0  0  0  0  0  0  0  0  0  0  0  0
  183.6380  178.9770  145.1190 C   0  0  0  0  0  3  0  0  0  0  0  0
  185.1330  177.9940  142.9650 C   0  0  0  0  0  3  0  0  0  0  0  0
  181.1870  179.3110  142.3620 C   0  0  0  0  0  0  0  0  0  0  0  0
  181.7580  179.3630  143.6420 C   0  0  0  0  0  3  0  0  0  0  0  0
  183.0690  178.9270  143.8460 C   0  0  0  0  0  0  0  0  0  0  0  0
  183.2550  178.3770  141.4860 C   0  0  0  0  0  3  0  0  0  0  0  0
  183.8230  178.4310  142.7600 C   0  0  0  0  0  0  0  0  0  0  0  0
  181.9420  178.8160  141.2880 C   0  0  0  0  0  3  0  0  0  0  0  0
  185.7140  178.0450  144.2440 C   0  0  0  0  0  0  0  0  0  0  0  0
  184.9500  178.5390  145.3170 C   0  0  0  0  0  3  0  0  0  0  0  0
  179.8040  179.7720  142.1540 C   0  0  0  0  0  0  0  0  0  0  0  0
  178.9320  178.9880  141.6930 O   0  0  0  0  0  0  0  0  0  0  0  0
  179.4480  181.0800  142.4630 O   0  0  0  0  0  1  0  0  0  0  0  0
  192.1120  176.4060  138.2840 C   0  0  2  0  0  3  0  0  0  0  0  0
  191.5460  175.0460  137.9200 C   0  0  0  0  0  1  0  0  0  0  0  0
  193.5050  176.3440  138.3210 O   0  0  0  0  0  1  0  0  0  0  0  0
  1 11  2  0  0  0  0
  2 16  2  0  0  0  0
  3 10  1  0  0  0  0
  5  4  1  1  0  0  0
  5  1  1  0  0  0  0
  5  9  1  0  0  0  0
  6  7  1  0  0  0  0
  8  6  2  0  0  0  0
  9  8  1  0  0  0  0
 10 12  2  0  0  0  0
 11 10  1  0  0  0  0
 11  6  1  0  0  0  0
 13  2  1  0  0  0  0
 14 15  2  0  0  0  0
 14 13  1  0  0  0  0
 15 17  1  0  0  0  0
 16  3  1  0  0  0  0
 17 18  2  0  0  0  0
 18 16  1  0  0  0  0
 18  1  1  0  0  0  0
 19 28  1  0  0  0  0
 20 27  1  0  0  0  0
 21 22  2  0  0  0  0
 22 23  1  0  0  0  0
 23 19  2  0  0  0  0
 24 25  1  0  0  0  0
 25 20  2  0  0  0  0
 25 23  1  0  0  0  0
 26 24  2  0  0  0  0
 26 21  1  0  0  0  0
 27  9  1  0  0  0  0
 27 28  2  0  0  0  0
 29 21  1  0  0  0  0
 29 31  1  0  0  0  0
 30 29  2  0  0  0  0
 32 33  1  1  0  0  0
 32 34  1  0  0  0  0
 32 14  1  0  0  0  0
M  END
>  <MODEL>
2

>  <REMARK>
 VINA RESULT:     -10.7      3.447      8.216
  Name = 
  3 active torsions:
  status: ('A' for Active; 'I' for Inactive)
    1  A    between atoms: C_3  and  C_25
    2  A    between atoms: C_7  and  C_11
    3  A    between atoms: N_18  and  C_30
                            x       y       z     vdW  Elec       q    Type
                         _______ _______ _______ _____ _____    ______ ____

>  <TORSDO>
F 3

$$$$
=
 OpenBabel11052415503D

 34 38  0  0  1  0  0  0  0  0999 V2000
  183.5060  178.2970  141.6280 C   0  0  0  0  0  0  0  0  0  0  0  0
  181.3440  177.1810  138.8570 C   0  0  0  0  0  3  0  0  0  0  0  0
  180.8560  178.1280  140.8740 N   0  0  0  0  0  2  0  0  0  0  0  0
  185.3680  179.7650  141.6560 F   0  0  0  0  0  0  0  0  0  0  0  0
  184.9480  178.5040  142.0440 C   0  0  1  0  0  3  0  0  0  0  0  0
  182.8420  178.9210  143.9590 C   0  0  0  0  0  0  0  0  0  0  0  0
  181.9000  179.3190  144.8480 F   0  0  0  0  0  0  0  0  0  0  0  0
  184.0930  178.7670  144.3860 C   0  0  0  0  0  3  0  0  0  0  0  0
  185.1380  178.3520  143.4910 N   0  0  0  0  0  0  0  0  0  0  0  0
  181.1500  178.5420  142.1290 C   0  0  0  0  0  0  0  0  0  0  0  0
  182.4850  178.5890  142.5570 C   0  0  0  0  0  0  0  0  0  0  0  0
  180.2070  178.8490  142.9080 O   0  0  0  0  0  0  0  0  0  0  0  0
  182.1630  176.4410  137.8560 C   0  0  0  0  0  2  0  0  0  0  0  0
  183.1810  177.3040  137.2000 C   0  0  0  0  0  0  0  0  0  0  0  0
  184.1280  177.9010  137.9120 C   0  0  0  0  0  3  0  0  0  0  0  0
  181.8010  177.7780  139.9650 C   0  0  0  0  0  0  0  0  0  0  0  0
  184.1800  177.9980  139.3820 C   0  0  0  0  0  3  0  0  0  0  0  0
  183.1780  177.9600  140.2890 C   0  0  0  0  0  0  0  0  0  0  0  0
  188.6740  177.0940  143.6530 C   0  0  0  0  0  3  0  0  0  0  0  0
  186.6890  178.0320  145.3920 C   0  0  0  0  0  3  0  0  0  0  0  0
  190.4350  176.8630  146.9030 C   0  0  0  0  0  0  0  0  0  0  0  0
  190.1760  176.7850  145.5270 C   0  0  0  0  0  3  0  0  0  0  0  0
  188.9330  177.1730  145.0210 C   0  0  0  0  0  0  0  0  0  0  0  0
  188.1890  177.7230  147.2690 C   0  0  0  0  0  3  0  0  0  0  0  0
  187.9320  177.6460  145.8990 C   0  0  0  0  0  0  0  0  0  0  0  0
  189.4350  177.3340  147.7680 C   0  0  0  0  0  3  0  0  0  0  0  0
  186.4230  177.9590  144.0140 C   0  0  0  0  0  0  0  0  0  0  0  0
  187.4280  177.4840  143.1530 C   0  0  0  0  0  3  0  0  0  0  0  0
  191.7470  176.4530  147.4300 C   0  0  0  0  0  0  0  0  0  0  0  0
  192.3570  175.4710  146.9300 O   0  0  0  0  0  0  0  0  0  0  0  0
  192.3250  177.1460  148.4870 O   0  0  0  0  0  1  0  0  0  0  0  0
  183.2920  177.3270  135.7110 C   0  0  2  0  0  3  0  0  0  0  0  0
  182.3620  176.3050  135.0840 C   0  0  0  0  0  1  0  0  0  0  0  0
  184.6080  177.0690  135.3220 O   0  0  0  0  0  1  0  0  0  0  0  0
  1  5  1  0  0  0  0
  1 11  2  0  0  0  0
  2 16  2  0  0  0  0
  3 10  1  0  0  0  0
  5  4  1  1  0  0  0
  5  9  1  0  0  0  0
  6  8  2  0  0  0  0
  6  7  1  0  0  0  0
  9 27  1  0  0  0  0
  9  8  1  0  0  0  0
 10 11  1  0  0  0  0
 10 12  2  0  0  0  0
 11  6  1  0  0  0  0
 13  2  1  0  0  0  0
 14 13  1  0  0  0  0
 14 15  2  0  0  0  0
 15 17  1  0  0  0  0
 16 18  1  0  0  0  0
 16  3  1  0  0  0  0
 17 18  2  0  0  0  0
 18  1  1  0  0  0  0
 19 23  1  0  0  0  0
 20 25  1  0  0  0  0
 21 29  1  0  0  0  0
 21 26  1  0  0  0  0
 22 21  2  0  0  0  0
 23 22  1  0  0  0  0
 23 25  2  0  0  0  0
 24 26  2  0  0  0  0
 25 24  1  0  0  0  0
 27 20  2  0  0  0  0
 28 19  2  0  0  0  0
 28 27  1  0  0  0  0
 29 31  1  0  0  0  0
 30 29  2  0  0  0  0
 32 33  1  6  0  0  0
 32 14  1  0  0  0  0
 34 32  1  0  0  0  0
M  END
>  <MODEL>
3

>  <REMARK>
 VINA RESULT:     -10.7      1.053      1.723
  Name = 
  3 active torsions:
  status: ('A' for Active; 'I' for Inactive)
    1  A    between atoms: C_3  and  C_25
    2  A    between atoms: C_7  and  C_11
    3  A    between atoms: N_18  and  C_30
                            x       y       z     vdW  Elec       q    Type
                         _______ _______ _______ _____ _____    ______ ____

>  <TORSDO>
F 3

$$$$
=
 OpenBabel11052415503D

 34 38  0  0  1  0  0  0  0  0999 V2000
  182.6620  178.0070  140.1390 C   0  0  0  0  0  0  0  0  0  0  0  0
  181.9450  176.1860  137.0140 C   0  0  0  0  0  3  0  0  0  0  0  0
  180.6010  177.3900  138.4090 N   0  0  0  0  0  2  0  0  0  0  0  0
  184.2720  179.6770  140.6330 F   0  0  0  0  0  0  0  0  0  0  0  0
  183.7760  178.4570  141.0620 C   0  0  1  0  0  3  0  0  0  0  0  0
  181.0380  178.9270  141.8060 C   0  0  0  0  0  0  0  0  0  0  0  0
  179.7900  179.3490  142.1250 F   0  0  0  0  0  0  0  0  0  0  0  0
  181.9890  179.0030  142.7340 C   0  0  0  0  0  3  0  0  0  0  0  0
  183.3320  178.5740  142.4550 N   0  0  0  0  0  0  0  0  0  0  0  0
  180.3110  178.0420  139.5600 C   0  0  0  0  0  0  0  0  0  0  0  0
  181.3300  178.3230  140.4820 C   0  0  0  0  0  0  0  0  0  0  0  0
  179.1140  178.3570  139.7990 O   0  0  0  0  0  0  0  0  0  0  0  0
  183.1430  175.3950  136.6150 C   0  0  0  0  0  2  0  0  0  0  0  0
  184.3090  176.2540  136.2780 C   0  0  0  0  0  0  0  0  0  0  0  0
  184.8340  177.0740  137.1790 C   0  0  0  0  0  3  0  0  0  0  0  0
  181.8580  177.0110  138.0640 C   0  0  0  0  0  0  0  0  0  0  0  0
  184.2460  177.4210  138.4850 C   0  0  0  0  0  3  0  0  0  0  0  0
  182.9540  177.4130  138.8840 C   0  0  0  0  0  0  0  0  0  0  0  0
  184.8610  178.7030  145.8850 C   0  0  0  0  0  3  0  0  0  0  0  0
  185.5680  177.9210  143.2900 C   0  0  0  0  0  3  0  0  0  0  0  0
  188.3360  177.5430  146.4320 C   0  0  0  0  0  0  0  0  0  0  0  0
  187.0570  178.0600  146.6800 C   0  0  0  0  0  3  0  0  0  0  0  0
  186.1340  178.1870  145.6390 C   0  0  0  0  0  0  0  0  0  0  0  0
  187.7650  177.2790  144.0820 C   0  0  0  0  0  3  0  0  0  0  0  0
  186.4910  177.7930  144.3300 C   0  0  0  0  0  0  0  0  0  0  0  0
  188.6830  177.1540  145.1290 C   0  0  0  0  0  3  0  0  0  0  0  0
  184.2830  178.4360  143.5310 C   0  0  0  0  0  0  0  0  0  0  0  0
  183.9430  178.8270  144.8380 C   0  0  0  0  0  3  0  0  0  0  0  0
  189.3040  177.4130  147.5330 C   0  0  0  0  0  0  0  0  0  0  0  0
  189.0560  177.9090  148.6640 O   0  0  0  0  0  1  0  0  0  0  0  0
  190.5040  176.7400  147.3350 O   0  0  0  0  0  0  0  0  0  0  0  0
  185.0470  176.0400  134.9980 C   0  0  2  0  0  3  0  0  0  0  0  0
  186.0890  174.9470  135.1500 C   0  0  0  0  0  1  0  0  0  0  0  0
  185.6630  177.2260  134.5940 O   0  0  0  0  0  1  0  0  0  0  0  0
  1 11  2  0  0  0  0
  1  5  1  0  0  0  0
  2 16  2  0  0  0  0
  3 10  1  0  0  0  0
  5  4  1  6  0  0  0
  5  9  1  0  0  0  0
  6  7  1  0  0  0  0
  6  8  2  0  0  0  0
  9  8  1  0  0  0  0
  9 27  1  0  0  0  0
 10 12  2  0  0  0  0
 10 11  1  0  0  0  0
 11  6  1  0  0  0  0
 13  2  1  0  0  0  0
 14 13  1  0  0  0  0
 14 15  2  0  0  0  0
 15 17  1  0  0  0  0
 16  3  1  0  0  0  0
 16 18  1  0  0  0  0
 17 18  2  0  0  0  0
 18  1  1  0  0  0  0
 20 27  2  0  0  0  0
 20 25  1  0  0  0  0
 21 22  1  0  0  0  0
 21 29  1  0  0  0  0
 23 19  1  0  0  0  0
 23 22  2  0  0  0  0
 24 25  2  0  0  0  0
 24 26  1  0  0  0  0
 25 23  1  0  0  0  0
 26 21  2  0  0  0  0
 27 28  1  0  0  0  0
 28 19  2  0  0  0  0
 29 30  1  0  0  0  0
 31 29  2  0  0  0  0
 32 33  1  1  0  0  0
 32 14  1  0  0  0  0
 34 32  1  0  0  0  0
M  END
>  <MODEL>
4

>  <REMARK>
 VINA RESULT:      -9.9      1.488      2.201
  Name = 
  3 active torsions:
  status: ('A' for Active; 'I' for Inactive)
    1  A    between atoms: C_3  and  C_25
    2  A    between atoms: C_7  and  C_11
    3  A    between atoms: N_18  and  C_30
                            x       y       z     vdW  Elec       q    Type
                         _______ _______ _______ _____ _____    ______ ____

>  <TORSDO>
F 3

$$$$
=
 OpenBabel11052415503D

 34 38  0  0  1  0  0  0  0  0999 V2000
  189.6400  176.4120  138.1940 C   0  0  0  0  0  0  0  0  0  0  0  0
  190.4160  173.9460  135.5660 C   0  0  0  0  0  3  0  0  0  0  0  0
  188.8400  175.5920  135.6830 N   0  0  0  0  0  2  0  0  0  0  0  0
  191.0220  177.9810  139.3140 F   0  0  0  0  0  0  0  0  0  0  0  0
  190.1060  176.9650  139.5260 C   0  0  1  0  0  3  0  0  0  0  0  0
  187.6240  177.8800  138.3980 C   0  0  0  0  0  0  0  0  0  0  0  0
  186.5510  178.4920  137.8390 F   0  0  0  0  0  0  0  0  0  0  0  0
  187.8710  178.0900  139.6890 C   0  0  0  0  0  3  0  0  0  0  0  0
  188.9950  177.4720  140.3380 N   0  0  0  0  0  0  0  0  0  0  0  0
  188.1110  176.5370  136.3210 C   0  0  0  0  0  0  0  0  0  0  0  0
  188.4640  176.9360  137.6190 C   0  0  0  0  0  0  0  0  0  0  0  0
  187.1000  177.0210  135.7450 O   0  0  0  0  0  0  0  0  0  0  0  0
  191.4090  172.9640  136.0840 C   0  0  0  0  0  2  0  0  0  0  0  0
  192.7210  173.5880  136.3980 C   0  0  0  0  0  0  0  0  0  0  0  0
  192.8180  174.5510  137.3050 C   0  0  0  0  0  3  0  0  0  0  0  0
  189.9440  175.0130  136.2220 C   0  0  0  0  0  0  0  0  0  0  0  0
  191.6950  175.2730  137.9290 C   0  0  0  0  0  3  0  0  0  0  0  0
  190.4430  175.4950  137.4680 C   0  0  0  0  0  0  0  0  0  0  0  0
  190.4950  177.5710  143.7810 C   0  0  0  0  0  3  0  0  0  0  0  0
  187.9620  177.5150  142.5870 C   0  0  0  0  0  3  0  0  0  0  0  0
  188.3150  177.6130  146.7760 C   0  0  0  0  0  0  0  0  0  0  0  0
  189.4650  177.6090  145.9730 C   0  0  0  0  0  3  0  0  0  0  0  0
  189.3520  177.5760  144.5810 C   0  0  0  0  0  0  0  0  0  0  0  0
  186.9290  177.5510  144.7770 C   0  0  0  0  0  3  0  0  0  0  0  0
  188.0740  177.5480  143.9790 C   0  0  0  0  0  0  0  0  0  0  0  0
  187.0500  177.5830  146.1700 C   0  0  0  0  0  3  0  0  0  0  0  0
  189.1100  177.5130  141.7750 C   0  0  0  0  0  0  0  0  0  0  0  0
  190.3750  177.5390  142.3890 C   0  0  0  0  0  3  0  0  0  0  0  0
  188.4410  177.6460  148.2420 C   0  0  0  0  0  0  0  0  0  0  0  0
  187.5540  177.1280  148.9710 O   0  0  0  0  0  1  0  0  0  0  0  0
  189.5420  178.2520  148.8370 O   0  0  0  0  0  0  0  0  0  0  0  0
  193.9800  172.9870  135.8650 C   0  0  2  0  0  3  0  0  0  0  0  0
  194.2240  171.6180  136.4730 C   0  0  0  0  0  1  0  0  0  0  0  0
  195.0650  173.8230  136.1350 O   0  0  0  0  0  1  0  0  0  0  0  0
  1  5  1  0  0  0  0
  2 13  1  0  0  0  0
  2 16  2  0  0  0  0
  3 16  1  0  0  0  0
  3 10  1  0  0  0  0
  5  4  1  6  0  0  0
  5  9  1  0  0  0  0
  6  8  2  0  0  0  0
  7  6  1  0  0  0  0
  8  9  1  0  0  0  0
  9 27  1  0  0  0  0
 10 11  1  0  0  0  0
 11  1  2  0  0  0  0
 11  6  1  0  0  0  0
 12 10  2  0  0  0  0
 13 14  1  0  0  0  0
 14 15  2  0  0  0  0
 15 17  1  0  0  0  0
 16 18  1  0  0  0  0
 18 17  2  0  0  0  0
 18  1  1  0  0  0  0
 19 23  1  0  0  0  0
 20 25  1  0  0  0  0
 21 29  1  0  0  0  0
 22 21  2  0  0  0  0
 23 22  1  0  0  0  0
 24 26  2  0  0  0  0
 25 23  2  0  0  0  0
 25 24  1  0  0  0  0
 26 21  1  0  0  0  0
 27 28  1  0  0  0  0
 27 20  2  0  0  0  0
 28 19  2  0  0  0  0
 29 31  2  0  0  0  0
 29 30  1  0  0  0  0
 32 34  1  0  0  0  0
 32 14  1  0  0  0  0
 32 33  1  1  0  0  0
M  END
>  <MODEL>
5

>  <REMARK>
 VINA RESULT:      -9.6      5.101      6.700
  Name = 
  3 active torsions:
  status: ('A' for Active; 'I' for Inactive)
    1  A    between atoms: C_3  and  C_25
    2  A    between atoms: C_7  and  C_11
    3  A    between atoms: N_18  and  C_30
                            x       y       z     vdW  Elec       q    Type
                         _______ _______ _______ _____ _____    ______ ____

>  <TORSDO>
F 3

$$$$
=
 OpenBabel11052415503D

 34 38  0  0  1  0  0  0  0  0999 V2000
  188.2730  177.3920  138.2530 C   0  0  0  0  0  0  0  0  0  0  0  0
  189.8200  175.4450  135.5310 C   0  0  0  0  0  3  0  0  0  0  0  0
  187.8590  176.6060  135.6390 N   0  0  0  0  0  2  0  0  0  0  0  0
  189.1240  179.1670  139.5750 F   0  0  0  0  0  0  0  0  0  0  0  0
  188.5020  177.9330  139.6500 C   0  0  1  0  0  3  0  0  0  0  0  0
  185.9310  178.2600  138.4020 C   0  0  0  0  0  0  0  0  0  0  0  0
  184.7670  178.6160  137.8060 F   0  0  0  0  0  0  0  0  0  0  0  0
  186.0430  178.4170  139.7190 C   0  0  0  0  0  3  0  0  0  0  0  0
  187.2520  178.0620  140.4080 N   0  0  0  0  0  0  0  0  0  0  0  0
  186.8710  177.2710  136.2830 C   0  0  0  0  0  0  0  0  0  0  0  0
  187.0330  177.6380  137.6270 C   0  0  0  0  0  0  0  0  0  0  0  0
  185.8000  177.5210  135.6660 O   0  0  0  0  0  0  0  0  0  0  0  0
  191.0090  174.7160  136.0560 C   0  0  0  0  0  2  0  0  0  0  0  0
  192.0880  175.6320  136.5080 C   0  0  0  0  0  0  0  0  0  0  0  0
  191.8750  176.5070  137.4830 C   0  0  0  0  0  3  0  0  0  0  0  0
  189.0460  176.2930  136.2190 C   0  0  0  0  0  0  0  0  0  0  0  0
  190.5680  176.8550  138.0670 C   0  0  0  0  0  3  0  0  0  0  0  0
  189.3300  176.7810  137.5290 C   0  0  0  0  0  0  0  0  0  0  0  0
  186.0920  178.0800  143.9820 C   0  0  0  0  0  3  0  0  0  0  0  0
  188.4860  177.8610  142.5440 C   0  0  0  0  0  3  0  0  0  0  0  0
  188.5320  177.7330  146.7460 C   0  0  0  0  0  0  0  0  0  0  0  0
  187.3190  177.8850  146.0600 C   0  0  0  0  0  3  0  0  0  0  0  0
  187.2990  177.9280  144.6640 C   0  0  0  0  0  0  0  0  0  0  0  0
  189.7150  177.6670  144.6220 C   0  0  0  0  0  3  0  0  0  0  0  0
  188.5060  177.8170  143.9400 C   0  0  0  0  0  0  0  0  0  0  0  0
  189.7280  177.6250  146.0190 C   0  0  0  0  0  3  0  0  0  0  0  0
  187.2730  178.0100  141.8490 C   0  0  0  0  0  0  0  0  0  0  0  0
  186.0790  178.1210  142.5840 C   0  0  0  0  0  3  0  0  0  0  0  0
  188.5460  177.6890  148.2180 C   0  0  0  0  0  0  0  0  0  0  0  0
  187.6490  177.0680  148.8470 O   0  0  0  0  0  0  0  0  0  0  0  0
  189.5520  178.3350  148.9280 O   0  0  0  0  0  1  0  0  0  0  0  0
  193.4890  175.4280  136.0330 C   0  0  2  0  0  3  0  0  0  0  0  0
  193.9370  173.9970  136.2730 C   0  0  0  0  0  1  0  0  0  0  0  0
  194.3520  176.3090  136.6850 O   0  0  0  0  0  1  0  0  0  0  0  0
  1  5  1  0  0  0  0
  2 13  1  0  0  0  0
  2 16  2  0  0  0  0
  3 16  1  0  0  0  0
  3 10  1  0  0  0  0
  5  4  1  6  0  0  0
  5  9  1  0  0  0  0
  6  8  2  0  0  0  0
  7  6  1  0  0  0  0
  8  9  1  0  0  0  0
  9 27  1  0  0  0  0
 10 11  1  0  0  0  0
 11  1  2  0  0  0  0
 11  6  1  0  0  0  0
 12 10  2  0  0  0  0
 13 14  1  0  0  0  0
 14 15  2  0  0  0  0
 15 17  1  0  0  0  0
 16 18  1  0  0  0  0
 18 17  2  0  0  0  0
 18  1  1  0  0  0  0
 19 23  1  0  0  0  0
 20 25  1  0  0  0  0
 21 29  1  0  0  0  0
 22 21  1  0  0  0  0
 23 22  2  0  0  0  0
 24 26  1  0  0  0  0
 25 24  2  0  0  0  0
 25 23  1  0  0  0  0
 26 21  2  0  0  0  0
 27 20  2  0  0  0  0
 27 28  1  0  0  0  0
 28 19  2  0  0  0  0
 29 30  2  0  0  0  0
 29 31  1  0  0  0  0
 32 33  1  1  0  0  0
 32 14  1  0  0  0  0
 32 34  1  0  0  0  0
M  END
>  <MODEL>
6

>  <REMARK>
 VINA RESULT:      -9.5      4.234      5.663
  Name = 
  3 active torsions:
  status: ('A' for Active; 'I' for Inactive)
    1  A    between atoms: C_3  and  C_25
    2  A    between atoms: C_7  and  C_11
    3  A    between atoms: N_18  and  C_30
                            x       y       z     vdW  Elec       q    Type
                         _______ _______ _______ _____ _____    ______ ____

>  <TORSDO>
F 3

$$$$
=
 OpenBabel11052415503D

 34 38  0  0  1  0  0  0  0  0999 V2000
  181.0250  179.8170  138.4940 C   0  0  0  0  0  0  0  0  0  0  0  0
  180.7680  182.0630  135.5820 C   0  0  0  0  0  3  0  0  0  0  0  0
  180.5630  179.7990  135.7730 N   0  0  0  0  0  2  0  0  0  0  0  0
  179.9220  179.8570  140.5930 F   0  0  0  0  0  0  0  0  0  0  0  0
  181.1710  179.7850  140.0020 C   0  0  1  0  0  3  0  0  0  0  0  0
  181.2090  177.3210  138.5170 C   0  0  0  0  0  0  0  0  0  0  0  0
  181.0430  176.1230  137.9070 F   0  0  0  0  0  0  0  0  0  0  0  0
  181.6680  177.3380  139.7670 C   0  0  0  0  0  3  0  0  0  0  0  0
  181.8620  178.5770  140.4690 N   0  0  0  0  0  0  0  0  0  0  0  0
  180.6750  178.6150  136.4210 C   0  0  0  0  0  0  0  0  0  0  0  0
  180.9600  178.5940  137.7940 C   0  0  0  0  0  0  0  0  0  0  0  0
  180.5520  177.5460  135.7660 O   0  0  0  0  0  0  0  0  0  0  0  0
  181.1930  183.4360  135.9740 C   0  0  0  0  0  2  0  0  0  0  0  0
  180.2920  184.0460  136.9870 C   0  0  0  0  0  0  0  0  0  0  0  0
  180.1220  183.4820  138.1750 C   0  0  0  0  0  3  0  0  0  0  0  0
  180.6790  181.0010  136.3920 C   0  0  0  0  0  0  0  0  0  0  0  0
  180.5730  182.1360  138.5710 C   0  0  0  0  0  3  0  0  0  0  0  0
  180.8070  181.0420  137.8120 C   0  0  0  0  0  0  0  0  0  0  0  0
  182.6290  179.0110  144.1210 C   0  0  0  0  0  3  0  0  0  0  0  0
  183.9370  178.2300  141.7710 C   0  0  0  0  0  3  0  0  0  0  0  0
  186.0240  178.3030  145.4200 C   0  0  0  0  0  0  0  0  0  0  0  0
  184.6710  178.6690  145.3760 C   0  0  0  0  0  3  0  0  0  0  0  0
  183.9740  178.6460  144.1660 C   0  0  0  0  0  0  0  0  0  0  0  0
  185.9820  177.8880  143.0240 C   0  0  0  0  0  3  0  0  0  0  0  0
  184.6340  178.2520  142.9810 C   0  0  0  0  0  0  0  0  0  0  0  0
  186.6730  177.9140  144.2390 C   0  0  0  0  0  3  0  0  0  0  0  0
  182.5800  178.5930  141.7190 C   0  0  0  0  0  0  0  0  0  0  0  0
  181.9370  178.9860  142.9060 C   0  0  0  0  0  3  0  0  0  0  0  0
  186.7530  178.3300  146.6990 C   0  0  0  0  0  0  0  0  0  0  0  0
  186.2870  178.9580  147.6870 O   0  0  0  0  0  1  0  0  0  0  0  0
  187.9660  177.6630  146.8280 O   0  0  0  0  0  0  0  0  0  0  0  0
  179.7440  185.4180  136.7680 C   0  0  2  0  0  3  0  0  0  0  0  0
  178.9520  185.8830  137.9760 C   0  0  0  0  0  1  0  0  0  0  0  0
  178.9310  185.4360  135.6340 O   0  0  0  0  0  1  0  0  0  0  0  0
  1  5  1  0  0  0  0
  2 13  1  0  0  0  0
  2 16  2  0  0  0  0
  3 16  1  0  0  0  0
  3 10  1  0  0  0  0
  5  9  1  0  0  0  0
  5  4  1  1  0  0  0
  6  8  2  0  0  0  0
  7  6  1  0  0  0  0
  8  9  1  0  0  0  0
  9 27  1  0  0  0  0
 10 11  1  0  0  0  0
 11  1  2  0  0  0  0
 11  6  1  0  0  0  0
 12 10  2  0  0  0  0
 13 14  1  0  0  0  0
 14 15  2  0  0  0  0
 15 17  1  0  0  0  0
 16 18  1  0  0  0  0
 18  1  1  0  0  0  0
 18 17  2  0  0  0  0
 19 23  1  0  0  0  0
 20 25  1  0  0  0  0
 21 29  1  0  0  0  0
 22 21  1  0  0  0  0
 23 22  2  0  0  0  0
 24 26  1  0  0  0  0
 25 24  2  0  0  0  0
 25 23  1  0  0  0  0
 26 21  2  0  0  0  0
 27 20  2  0  0  0  0
 27 28  1  0  0  0  0
 28 19  2  0  0  0  0
 29 31  2  0  0  0  0
 29 30  1  0  0  0  0
 32 14  1  0  0  0  0
 32 33  1  1  0  0  0
 34 32  1  0  0  0  0
M  END
>  <MODEL>
7

>  <REMARK>
 VINA RESULT:      -9.0      4.490      6.166
  Name = 
  3 active torsions:
  status: ('A' for Active; 'I' for Inactive)
    1  A    between atoms: C_3  and  C_25
    2  A    between atoms: C_7  and  C_11
    3  A    between atoms: N_18  and  C_30
                            x       y       z     vdW  Elec       q    Type
                         _______ _______ _______ _____ _____    ______ ____

>  <TORSDO>
F 3

$$$$
=
 OpenBabel11052415503D

 34 38  0  0  1  0  0  0  0  0999 V2000
  190.6100  176.5450  137.7750 C   0  0  0  0  0  0  0  0  0  0  0  0
  191.5610  174.0890  135.1950 C   0  0  0  0  0  3  0  0  0  0  0  0
  190.4360  176.0690  135.0610 N   0  0  0  0  0  2  0  0  0  0  0  0
  191.9100  177.6640  139.4130 F   0  0  0  0  0  0  0  0  0  0  0  0
  190.7680  176.9000  139.2390 C   0  0  1  0  0  3  0  0  0  0  0  0
  189.0110  178.4600  137.5800 C   0  0  0  0  0  0  0  0  0  0  0  0
  188.3230  179.3470  136.8190 F   0  0  0  0  0  0  0  0  0  0  0  0
  188.9020  178.5410  138.9040 C   0  0  0  0  0  3  0  0  0  0  0  0
  189.6090  177.6320  139.7630 N   0  0  0  0  0  0  0  0  0  0  0  0
  189.7820  177.1360  135.5780 C   0  0  0  0  0  0  0  0  0  0  0  0
  189.8110  177.3740  136.9600 C   0  0  0  0  0  0  0  0  0  0  0  0
  189.1270  177.8840  134.8030 O   0  0  0  0  0  0  0  0  0  0  0  0
  192.1040  172.8660  135.8500 C   0  0  0  0  0  2  0  0  0  0  0  0
  193.3670  173.1260  136.5890 C   0  0  0  0  0  0  0  0  0  0  0  0
  193.4020  173.9910  137.5950 C   0  0  0  0  0  3  0  0  0  0  0  0
  191.1680  175.2080  135.8140 C   0  0  0  0  0  0  0  0  0  0  0  0
  192.3370  174.9410  137.9610 C   0  0  0  0  0  3  0  0  0  0  0  0
  191.3660  175.4910  137.1980 C   0  0  0  0  0  0  0  0  0  0  0  0
  187.6420  177.5010  142.9620 C   0  0  0  0  0  3  0  0  0  0  0  0
  190.3170  177.5600  142.1330 C   0  0  0  0  0  3  0  0  0  0  0  0
  189.3820  177.4170  146.2300 C   0  0  0  0  0  0  0  0  0  0  0  0
  188.3560  177.4340  145.2740 C   0  0  0  0  0  3  0  0  0  0  0  0
  188.6620  177.4820  143.9120 C   0  0  0  0  0  0  0  0  0  0  0  0
  191.0340  177.4950  144.4460 C   0  0  0  0  0  3  0  0  0  0  0  0
  190.0110  177.5120  143.4950 C   0  0  0  0  0  0  0  0  0  0  0  0
  190.7200  177.4470  145.8070 C   0  0  0  0  0  3  0  0  0  0  0  0
  189.2940  177.5750  141.1690 C   0  0  0  0  0  0  0  0  0  0  0  0
  187.9550  177.5480  141.6000 C   0  0  0  0  0  3  0  0  0  0  0  0
  189.0530  177.3670  147.6640 C   0  0  0  0  0  0  0  0  0  0  0  0
  187.9740  176.8470  148.0540 O   0  0  0  0  0  0  0  0  0  0  0  0
  189.9300  177.8970  148.6030 O   0  0  0  0  0  1  0  0  0  0  0  0
  194.5580  172.2540  136.3620 C   0  0  2  0  0  3  0  0  0  0  0  0
  195.2490  172.6120  135.0590 C   0  0  0  0  0  1  0  0  0  0  0  0
  194.1750  170.9120  136.3400 O   0  0  0  0  0  1  0  0  0  0  0  0
  1  5  1  0  0  0  0
  2 16  2  0  0  0  0
  2 13  1  0  0  0  0
  3 10  1  0  0  0  0
  3 16  1  0  0  0  0
  5  4  1  6  0  0  0
  5  9  1  0  0  0  0
  6  8  2  0  0  0  0
  7  6  1  0  0  0  0
  8  9  1  0  0  0  0
  9 27  1  0  0  0  0
 10 11  1  0  0  0  0
 11  6  1  0  0  0  0
 11  1  2  0  0  0  0
 12 10  2  0  0  0  0
 13 14  1  0  0  0  0
 14 15  2  0  0  0  0
 15 17  1  0  0  0  0
 16 18  1  0  0  0  0
 18  1  1  0  0  0  0
 18 17  2  0  0  0  0
 19 23  1  0  0  0  0
 20 25  1  0  0  0  0
 21 29  1  0  0  0  0
 22 21  2  0  0  0  0
 23 22  1  0  0  0  0
 24 26  2  0  0  0  0
 25 23  2  0  0  0  0
 25 24  1  0  0  0  0
 26 21  1  0  0  0  0
 27 28  1  0  0  0  0
 27 20  2  0  0  0  0
 28 19  2  0  0  0  0
 29 30  2  0  0  0  0
 29 31  1  0  0  0  0
 32 33  1  6  0  0  0
 32 14  1  0  0  0  0
 34 32  1  0  0  0  0
M  END
>  <MODEL>
8

>  <REMARK>
 VINA RESULT:      -9.0      5.719      7.457
  Name = 
  3 active torsions:
  status: ('A' for Active; 'I' for Inactive)
    1  A    between atoms: C_3  and  C_25
    2  A    between atoms: C_7  and  C_11
    3  A    between atoms: N_18  and  C_30
                            x       y       z     vdW  Elec       q    Type
                         _______ _______ _______ _____ _____    ______ ____

>  <TORSDO>
F 3

$$$$
=
 OpenBabel11052415503D

 34 38  0  0  1  0  0  0  0  0999 V2000
  188.3640  176.1260  137.1410 C   0  0  0  0  0  0  0  0  0  0  0  0
  186.1980  174.0360  135.0130 C   0  0  0  0  0  3  0  0  0  0  0  0
  186.6810  176.2640  134.9580 N   0  0  0  0  0  2  0  0  0  0  0  0
  190.6430  175.8880  137.7530 F   0  0  0  0  0  0  0  0  0  0  0  0
  189.3740  176.0830  138.2710 C   0  0  1  0  0  3  0  0  0  0  0  0
  188.4830  178.6230  137.2560 C   0  0  0  0  0  0  0  0  0  0  0  0
  188.2550  179.8390  136.7020 F   0  0  0  0  0  0  0  0  0  0  0  0
  189.0880  178.5690  138.4400 C   0  0  0  0  0  3  0  0  0  0  0  0
  189.3600  177.3100  139.0760 N   0  0  0  0  0  0  0  0  0  0  0  0
  187.1890  177.4140  135.4620 C   0  0  0  0  0  0  0  0  0  0  0  0
  188.0050  177.3790  136.6020 C   0  0  0  0  0  0  0  0  0  0  0  0
  186.8880  178.5080  134.9120 O   0  0  0  0  0  0  0  0  0  0  0  0
  186.0750  172.6770  135.6110 C   0  0  0  0  0  2  0  0  0  0  0  0
  187.3700  171.9470  135.6440 C   0  0  0  0  0  0  0  0  0  0  0  0
  188.4070  172.4290  136.3160 C   0  0  0  0  0  3  0  0  0  0  0  0
  186.9490  175.0400  135.4800 C   0  0  0  0  0  0  0  0  0  0  0  0
  188.5150  173.7790  136.8950 C   0  0  0  0  0  3  0  0  0  0  0  0
  187.9000  174.9290  136.5370 C   0  0  0  0  0  0  0  0  0  0  0  0
  191.5870  177.2380  142.1020 C   0  0  0  0  0  3  0  0  0  0  0  0
  188.8520  177.2230  141.4970 C   0  0  0  0  0  3  0  0  0  0  0  0
  190.1240  177.1000  145.5020 C   0  0  0  0  0  0  0  0  0  0  0  0
  191.0670  177.1490  144.4650 C   0  0  0  0  0  3  0  0  0  0  0  0
  190.6490  177.1900  143.1340 C   0  0  0  0  0  0  0  0  0  0  0  0
  188.3300  177.1320  143.8600 C   0  0  0  0  0  3  0  0  0  0  0  0
  189.2700  177.1830  142.8290 C   0  0  0  0  0  0  0  0  0  0  0  0
  188.7560  177.0920  145.1910 C   0  0  0  0  0  3  0  0  0  0  0  0
  189.7910  177.2750  140.4520 C   0  0  0  0  0  0  0  0  0  0  0  0
  191.1610  177.2790  140.7710 C   0  0  0  0  0  3  0  0  0  0  0  0
  190.5720  177.0560  146.9040 C   0  0  0  0  0  0  0  0  0  0  0  0
  189.7500  177.2270  147.8430 O   0  0  0  0  0  1  0  0  0  0  0  0
  191.9100  176.8260  147.2050 O   0  0  0  0  0  0  0  0  0  0  0  0
  187.4550  170.5540  135.1130 C   0  0  2  0  0  3  0  0  0  0  0  0
  186.0710  169.9450  134.9710 C   0  0  0  0  0  1  0  0  0  0  0  0
  188.2340  169.7630  135.9590 O   0  0  0  0  0  1  0  0  0  0  0  0
  1  5  1  0  0  0  0
  2 16  2  0  0  0  0
  2 13  1  0  0  0  0
  3 10  1  0  0  0  0
  3 16  1  0  0  0  0
  5  4  1  6  0  0  0
  5  9  1  0  0  0  0
  6  8  2  0  0  0  0
  7  6  1  0  0  0  0
  8  9  1  0  0  0  0
  9 27  1  0  0  0  0
 10 11  1  0  0  0  0
 11  1  2  0  0  0  0
 11  6  1  0  0  0  0
 12 10  2  0  0  0  0
 13 14  1  0  0  0  0
 14 15  2  0  0  0  0
 15 17  1  0  0  0  0
 16 18  1  0  0  0  0
 18 17  2  0  0  0  0
 18  1  1  0  0  0  0
 19 23  1  0  0  0  0
 20 25  1  0  0  0  0
 21 29  1  0  0  0  0
 22 21  2  0  0  0  0
 23 22  1  0  0  0  0
 24 26  2  0  0  0  0
 25 23  2  0  0  0  0
 25 24  1  0  0  0  0
 26 21  1  0  0  0  0
 27 28  1  0  0  0  0
 27 20  2  0  0  0  0
 28 19  2  0  0  0  0
 29 31  2  0  0  0  0
 29 30  1  0  0  0  0
 32 33  1  1  0  0  0
 32 14  1  0  0  0  0
 32 34  1  0  0  0  0
M  END
>  <MODEL>
9

>  <REMARK>
 VINA RESULT:      -8.7      4.534      6.216
  Name = 
  3 active torsions:
  status: ('A' for Active; 'I' for Inactive)
    1  A    between atoms: C_3  and  C_25
    2  A    between atoms: C_7  and  C_11
    3  A    between atoms: N_18  and  C_30
                            x       y       z     vdW  Elec       q    Type
                         _______ _______ _______ _____ _____    ______ ____

>  <TORSDO>
F 3

$$$$
