=
 OpenBabel11052414053D

 34 39  0  0  1  0  0  0  0  0999 V2000
  188.9340  177.1900  145.7940 C   0  0  0  0  0  0  0  0  0  0  0  0
  190.8500  176.7240  144.2230 C   0  0  2  0  0  3  0  0  0  0  0  0
  188.5950  177.6390  143.4120 C   0  0  0  0  0  0  0  0  0  0  0  0
  188.1500  178.1020  141.0260 C   0  0  0  0  0  0  0  0  0  0  0  0
  191.1300  176.7720  146.6740 C   0  0  0  0  0  3  0  0  0  0  0  0
  191.6920  176.7180  145.4670 C   0  0  0  0  0  3  0  0  0  0  0  0
  190.2810  177.3540  141.5350 N   0  0  0  0  0  0  0  0  0  0  0  0
  189.4430  177.2310  144.4740 C   0  0  0  0  0  0  0  0  0  0  0  0
  191.4540  176.8560  139.5400 N   0  0  0  0  0  2  0  0  0  0  0  0
  188.8360  177.9650  139.3900 S   0  0  0  0  0  0  0  0  0  0  0  0
  189.7130  176.9400  146.8060 N   0  0  0  0  0  0  0  0  0  0  0  0
  187.2260  177.9250  143.6700 C   0  0  0  0  0  0  0  0  0  0  0  0
  187.5920  177.4730  146.0350 C   0  0  0  0  0  3  0  0  0  0  0  0
  190.7750  175.0540  143.5920 Cl  0  0  0  0  0  0  0  0  0  0  0  0
  186.8930  178.2750  141.2810 N   0  0  0  0  0  0  0  0  0  0  0  0
  186.3920  178.2490  142.6350 C   0  0  0  0  0  0  0  0  0  0  0  0
  190.3210  177.3720  140.2410 C   0  0  0  0  0  0  0  0  0  0  0  0
  189.0550  177.7730  142.0530 N   0  0  0  0  0  0  0  0  0  0  0  0
  186.7470  177.8230  144.9860 C   0  0  0  0  0  3  0  0  0  0  0  0
  182.6630  178.5810  141.9550 C   0  0  0  0  0  0  0  0  0  0  0  0
  182.1960  178.9490  143.2200 C   0  0  0  0  0  3  0  0  0  0  0  0
  184.9400  178.5030  142.8120 C   0  0  0  0  0  0  0  0  0  0  0  0
  183.0920  179.0690  144.2850 C   0  0  0  0  0  3  0  0  0  0  0  0
  184.0280  178.3590  141.7510 C   0  0  0  0  0  3  0  0  0  0  0  0
  184.4550  178.8420  144.0830 C   0  0  0  0  0  3  0  0  0  0  0  0
  181.7920  178.4480  140.9240 F   0  0  0  0  0  0  0  0  0  0  0  0
  191.4840  176.7900  138.1390 N   0  0  0  0  0  2  0  0  0  0  0  0
  194.1130  176.0530  137.2460 O   0  0  0  0  0  1  0  0  0  0  0  0
  191.8400  175.4240  137.7630 C   0  0  2  0  0  3  0  0  0  0  0  0
  192.9740  175.4300  136.7290 C   0  0  1  0  0  3  0  0  0  0  0  0
  191.0620  176.0380  135.1250 C   0  0  0  0  0  2  0  0  0  0  0  0
  190.4360  174.7680  135.6930 C   0  0  0  0  0  2  0  0  0  0  0  0
  190.5990  174.6890  137.2240 C   0  0  0  0  0  2  0  0  0  0  0  0
  192.5710  176.0890  135.4000 C   0  0  0  0  0  2  0  0  0  0  0  0
  1 13  1  0  0  0  0
  1 11  2  0  0  0  0
  2 14  1  1  0  0  0
  2  8  1  0  0  0  0
  2  6  1  0  0  0  0
  3 12  1  0  0  0  0
  3  8  2  0  0  0  0
  4 15  2  0  0  0  0
  4 18  1  0  0  0  0
  5 11  1  0  0  0  0
  6  5  2  0  0  0  0
  7 18  1  0  0  0  0
  8  1  1  0  0  0  0
  9 17  1  0  0  0  0
 10 17  1  0  0  0  0
 10  4  1  0  0  0  0
 12 19  1  0  0  0  0
 15 16  1  0  0  0  0
 16 22  1  0  0  0  0
 16 12  2  0  0  0  0
 17  7  2  0  0  0  0
 18  3  1  0  0  0  0
 19 13  2  0  0  0  0
 20 21  1  0  0  0  0
 21 23  2  0  0  0  0
 22 25  2  0  0  0  0
 24 20  2  0  0  0  0
 24 22  1  0  0  0  0
 25 23  1  0  0  0  0
 26 20  1  0  0  0  0
 27  9  1  0  0  0  0
 29 27  1  6  0  0  0
 30 28  1  1  0  0  0
 30 29  1  0  0  0  0
 31 34  1  0  0  0  0
 31 32  1  0  0  0  0
 32 33  1  0  0  0  0
 33 29  1  0  0  0  0
 34 30  1  0  0  0  0
M  END
>  <MODEL>
1

>  <REMARK>
 VINA RESULT:     -11.2      0.000      0.000
  Name = 
  3 active torsions:
  status: ('A' for Active; 'I' for Inactive)
    1  A    between atoms: N_3  and  C_13
    2  A    between atoms: N_3  and  N_17
    3  A    between atoms: C_12  and  C_28
                            x       y       z     vdW  Elec       q    Type
                         _______ _______ _______ _____ _____    ______ ____

>  <TORSDO>
F 3

$$$$
=
 OpenBabel11052414053D

 34 39  0  0  1  0  0  0  0  0999 V2000
  186.9930  177.9650  144.4590 C   0  0  0  0  0  0  0  0  0  0  0  0
  189.3020  177.3550  143.6520 C   0  0  2  0  0  3  0  0  0  0  0  0
  187.4500  178.1400  142.0610 C   0  0  0  0  0  0  0  0  0  0  0  0
  187.8080  178.3280  139.6230 C   0  0  0  0  0  0  0  0  0  0  0  0
  188.7780  177.6800  146.0410 C   0  0  0  0  0  3  0  0  0  0  0  0
  189.6990  177.5010  145.0930 C   0  0  0  0  0  3  0  0  0  0  0  0
  189.6450  177.6730  140.8720 N   0  0  0  0  0  0  0  0  0  0  0  0
  187.9020  177.8650  143.3780 C   0  0  0  0  0  0  0  0  0  0  0  0
  191.3880  176.9740  139.4300 N   0  0  0  0  0  2  0  0  0  0  0  0
  188.9830  178.0200  138.3210 S   0  0  0  0  0  0  0  0  0  0  0  0
  187.3990  177.8410  145.6890 N   0  0  0  0  0  0  0  0  0  0  0  0
  186.0770  178.4330  141.8300 C   0  0  0  0  0  0  0  0  0  0  0  0
  185.6520  178.2520  144.2210 C   0  0  0  0  0  3  0  0  0  0  0  0
  189.3990  175.6250  143.2180 Cl  0  0  0  0  0  0  0  0  0  0  0  0
  186.5400  178.5100  139.4380 N   0  0  0  0  0  0  0  0  0  0  0  0
  185.6290  178.6270  140.5520 C   0  0  0  0  0  0  0  0  0  0  0  0
  190.1010  177.5480  139.6660 C   0  0  0  0  0  0  0  0  0  0  0  0
  188.3270  178.1290  140.9170 N   0  0  0  0  0  0  0  0  0  0  0  0
  185.1980  178.4710  142.9230 C   0  0  0  0  0  3  0  0  0  0  0  0
  181.8260  178.5780  140.6460 C   0  0  0  0  0  0  0  0  0  0  0  0
  181.5240  179.4290  139.5790 C   0  0  0  0  0  3  0  0  0  0  0  0
  184.2030  178.8780  140.2210 C   0  0  0  0  0  0  0  0  0  0  0  0
  182.5570  180.0240  138.8490 C   0  0  0  0  0  3  0  0  0  0  0  0
  183.1590  178.3030  140.9670 C   0  0  0  0  0  3  0  0  0  0  0  0
  183.8890  179.7540  139.1720 C   0  0  0  0  0  3  0  0  0  0  0  0
  180.8240  178.0140  141.3650 F   0  0  0  0  0  0  0  0  0  0  0  0
  191.8660  176.7520  138.1300 N   0  0  0  0  0  2  0  0  0  0  0  0
  194.4980  175.6110  137.9840 O   0  0  0  0  0  1  0  0  0  0  0  0
  192.1010  175.3190  137.9780 C   0  0  2  0  0  3  0  0  0  0  0  0
  193.4330  175.0670  137.2590 C   0  0  1  0  0  3  0  0  0  0  0  0
  192.0560  175.6940  135.1850 C   0  0  0  0  0  2  0  0  0  0  0  0
  191.1390  174.5850  135.6920 C   0  0  0  0  0  2  0  0  0  0  0  0
  190.9280  174.6740  137.2160 C   0  0  0  0  0  2  0  0  0  0  0  0
  193.4500  175.6020  135.8180 C   0  0  0  0  0  2  0  0  0  0  0  0
  1 11  2  0  0  0  0
  2 14  1  1  0  0  0
  2  6  1  0  0  0  0
  3  8  2  0  0  0  0
  4 18  1  0  0  0  0
  6  5  2  0  0  0  0
  7 18  1  0  0  0  0
  8  2  1  0  0  0  0
  8  1  1  0  0  0  0
  9 17  1  0  0  0  0
 10  4  1  0  0  0  0
 10 17  1  0  0  0  0
 11  5  1  0  0  0  0
 12  3  1  0  0  0  0
 12 19  1  0  0  0  0
 13  1  1  0  0  0  0
 15  4  2  0  0  0  0
 15 16  1  0  0  0  0
 16 12  2  0  0  0  0
 17  7  2  0  0  0  0
 18  3  1  0  0  0  0
 19 13  2  0  0  0  0
 20 24  1  0  0  0  0
 20 26  1  0  0  0  0
 21 20  2  0  0  0  0
 22 16  1  0  0  0  0
 22 24  2  0  0  0  0
 23 25  2  0  0  0  0
 23 21  1  0  0  0  0
 25 22  1  0  0  0  0
 27  9  1  0  0  0  0
 29 27  1  6  0  0  0
 30 29  1  0  0  0  0
 30 28  1  1  0  0  0
 31 32  1  0  0  0  0
 31 34  1  0  0  0  0
 32 33  1  0  0  0  0
 33 29  1  0  0  0  0
 34 30  1  0  0  0  0
M  END
>  <MODEL>
2

>  <REMARK>
 VINA RESULT:     -10.2      1.437      2.170
  Name = 
  3 active torsions:
  status: ('A' for Active; 'I' for Inactive)
    1  A    between atoms: N_3  and  C_13
    2  A    between atoms: N_3  and  N_17
    3  A    between atoms: C_12  and  C_28
                            x       y       z     vdW  Elec       q    Type
                         _______ _______ _______ _____ _____    ______ ____

>  <TORSDO>
F 3

$$$$
=
 OpenBabel11052414053D

 34 39  0  0  1  0  0  0  0  0999 V2000
  189.5230  177.4710  137.9940 C   0  0  0  0  0  0  0  0  0  0  0  0
  187.1400  178.0730  137.4320 C   0  0  2  0  0  3  0  0  0  0  0  0
  188.0240  178.0530  139.8390 C   0  0  0  0  0  0  0  0  0  0  0  0
  186.5840  178.6040  141.7700 C   0  0  0  0  0  0  0  0  0  0  0  0
  188.9020  177.9020  135.7130 C   0  0  0  0  0  3  0  0  0  0  0  0
  187.6570  178.2540  136.0330 C   0  0  0  0  0  3  0  0  0  0  0  0
  185.5910  178.7620  139.6840 N   0  0  0  0  0  0  0  0  0  0  0  0
  188.2520  177.9010  138.4470 C   0  0  0  0  0  0  0  0  0  0  0  0
  183.2580  179.0810  139.9280 N   0  0  0  0  0  2  0  0  0  0  0  0
  184.9130  178.9930  142.2430 S   0  0  0  0  0  0  0  0  0  0  0  0
  189.8060  177.4380  136.7240 N   0  0  0  0  0  0  0  0  0  0  0  0
  189.0430  177.6970  140.7660 C   0  0  0  0  0  0  0  0  0  0  0  0
  190.5120  177.1260  138.9100 C   0  0  0  0  0  3  0  0  0  0  0  0
  186.0870  176.6300  137.4550 Cl  0  0  0  0  0  0  0  0  0  0  0  0
  187.5010  178.1950  142.5870 N   0  0  0  0  0  0  0  0  0  0  0  0
  188.7980  177.7770  142.1100 C   0  0  0  0  0  0  0  0  0  0  0  0
  184.5780  178.9710  140.4630 C   0  0  0  0  0  0  0  0  0  0  0  0
  186.7840  178.5510  140.3770 N   0  0  0  0  0  0  0  0  0  0  0  0
  190.2720  177.2260  140.2780 C   0  0  0  0  0  3  0  0  0  0  0  0
  191.4090  175.7950  144.0420 C   0  0  0  0  0  0  0  0  0  0  0  0
  191.6810  176.6740  145.0950 C   0  0  0  0  0  3  0  0  0  0  0  0
  189.7850  177.3690  143.1410 C   0  0  0  0  0  0  0  0  0  0  0  0
  191.0270  177.9070  145.1590 C   0  0  0  0  0  3  0  0  0  0  0  0
  190.4660  176.1400  143.0680 C   0  0  0  0  0  3  0  0  0  0  0  0
  190.0880  178.2540  144.1850 C   0  0  0  0  0  3  0  0  0  0  0  0
  192.0550  174.6050  143.9690 F   0  0  0  0  0  0  0  0  0  0  0  0
  182.1370  179.2240  140.7600 N   0  0  0  0  0  2  0  0  0  0  0  0
  179.9470  180.8780  141.6060 O   0  0  0  0  0  1  0  0  0  0  0  0
  180.9830  179.5070  139.9100 C   0  0  2  0  0  3  0  0  0  0  0  0
  179.7400  179.7790  140.7680 C   0  0  1  0  0  3  0  0  0  0  0  0
  179.7370  177.2200  140.9870 C   0  0  0  0  0  2  0  0  0  0  0  0
  179.7480  177.2800  139.4630 C   0  0  0  0  0  2  0  0  0  0  0  0
  180.7450  178.3340  138.9420 C   0  0  0  0  0  2  0  0  0  0  0  0
  179.3030  178.5600  141.5970 C   0  0  0  0  0  2  0  0  0  0  0  0
  1  8  1  0  0  0  0
  1 13  1  0  0  0  0
  2 14  1  6  0  0  0
  2  8  1  0  0  0  0
  3 18  1  0  0  0  0
  3 12  1  0  0  0  0
  4 10  1  0  0  0  0
  4 15  2  0  0  0  0
  5  6  2  0  0  0  0
  5 11  1  0  0  0  0
  6  2  1  0  0  0  0
  7 18  1  0  0  0  0
  7 17  2  0  0  0  0
  8  3  2  0  0  0  0
  9 17  1  0  0  0  0
  9 27  1  0  0  0  0
 11  1  2  0  0  0  0
 12 16  2  0  0  0  0
 13 19  2  0  0  0  0
 16 15  1  0  0  0  0
 16 22  1  0  0  0  0
 17 10  1  0  0  0  0
 18  4  1  0  0  0  0
 19 12  1  0  0  0  0
 20 21  1  0  0  0  0
 21 23  2  0  0  0  0
 22 25  2  0  0  0  0
 24 22  1  0  0  0  0
 24 20  2  0  0  0  0
 25 23  1  0  0  0  0
 26 20  1  0  0  0  0
 29 27  1  1  0  0  0
 29 30  1  0  0  0  0
 30 34  1  0  0  0  0
 30 28  1  1  0  0  0
 31 34  1  0  0  0  0
 32 31  1  0  0  0  0
 33 32  1  0  0  0  0
 33 29  1  0  0  0  0
M  END
>  <MODEL>
3

>  <REMARK>
 VINA RESULT:      -9.9      4.436      8.863
  Name = 
  3 active torsions:
  status: ('A' for Active; 'I' for Inactive)
    1  A    between atoms: N_3  and  C_13
    2  A    between atoms: N_3  and  N_17
    3  A    between atoms: C_12  and  C_28
                            x       y       z     vdW  Elec       q    Type
                         _______ _______ _______ _____ _____    ______ ____

>  <TORSDO>
F 3

$$$$
=
 OpenBabel11052414053D

 34 39  0  0  1  0  0  0  0  0999 V2000
  185.7070  178.2810  146.0800 C   0  0  0  0  0  0  0  0  0  0  0  0
  185.1210  178.7260  143.6680 C   0  0  2  0  0  3  0  0  0  0  0  0
  187.3700  177.7150  144.3760 C   0  0  0  0  0  0  0  0  0  0  0  0
  189.1200  177.1300  142.7320 C   0  0  0  0  0  0  0  0  0  0  0  0
  183.4410  178.7990  145.4730 C   0  0  0  0  0  3  0  0  0  0  0  0
  183.7070  178.8120  144.1670 C   0  0  0  0  0  3  0  0  0  0  0  0
  187.1420  177.9580  141.8580 N   0  0  0  0  0  0  0  0  0  0  0  0
  186.0780  178.1940  144.7170 C   0  0  0  0  0  0  0  0  0  0  0  0
  187.4060  178.3940  139.5470 N   0  0  0  0  0  2  0  0  0  0  0  0
  189.5450  177.2100  141.0050 S   0  0  0  0  0  0  0  0  0  0  0  0
  184.4930  178.5990  146.4250 N   0  0  0  0  0  0  0  0  0  0  0  0
  188.3030  177.4040  145.4030 C   0  0  0  0  0  0  0  0  0  0  0  0
  186.6290  177.9740  147.0760 C   0  0  0  0  0  3  0  0  0  0  0  0
  185.6380  180.3620  143.1700 Cl  0  0  0  0  0  0  0  0  0  0  0  0
  189.9700  176.9350  143.6880 N   0  0  0  0  0  0  0  0  0  0  0  0
  189.5710  177.0100  145.0730 C   0  0  0  0  0  0  0  0  0  0  0  0
  187.8760  177.8810  140.7950 C   0  0  0  0  0  0  0  0  0  0  0  0
  187.7990  177.5310  143.0130 N   0  0  0  0  0  0  0  0  0  0  0  0
  187.9130  177.5530  146.7430 C   0  0  0  0  0  3  0  0  0  0  0  0
  191.7270  177.1800  148.2040 C   0  0  0  0  0  0  0  0  0  0  0  0
  192.5970  176.1080  147.9840 C   0  0  0  0  0  3  0  0  0  0  0  0
  190.6210  176.7260  146.0840 C   0  0  0  0  0  0  0  0  0  0  0  0
  192.4650  175.3300  146.8300 C   0  0  0  0  0  3  0  0  0  0  0  0
  190.7430  177.4880  147.2600 C   0  0  0  0  0  3  0  0  0  0  0  0
  191.4800  175.6340  145.8890 C   0  0  0  0  0  3  0  0  0  0  0  0
  191.8430  177.9240  149.3320 F   0  0  0  0  0  0  0  0  0  0  0  0
  188.2160  178.3970  138.4010 N   0  0  0  0  0  2  0  0  0  0  0  0
  190.5310  177.1580  137.2350 O   0  0  0  0  0  1  0  0  0  0  0  0
  188.1940  177.0510  137.8350 C   0  0  2  0  0  3  0  0  0  0  0  0
  189.2500  176.9160  136.7290 C   0  0  1  0  0  3  0  0  0  0  0  0
  187.4980  178.1970  135.3560 C   0  0  0  0  0  2  0  0  0  0  0  0
  186.5890  177.0580  135.8070 C   0  0  0  0  0  2  0  0  0  0  0  0
  186.7860  176.7300  137.3000 C   0  0  0  0  0  2  0  0  0  0  0  0
  188.9790  177.8320  135.5240 C   0  0  0  0  0  2  0  0  0  0  0  0
  1 11  2  0  0  0  0
  1 13  1  0  0  0  0
  2 14  1  1  0  0  0
  2  6  1  0  0  0  0
  2  8  1  0  0  0  0
  3  8  2  0  0  0  0
  3 12  1  0  0  0  0
  4 18  1  0  0  0  0
  4 15  2  0  0  0  0
  5 11  1  0  0  0  0
  6  5  2  0  0  0  0
  7 18  1  0  0  0  0
  8  1  1  0  0  0  0
  9 17  1  0  0  0  0
 10  4  1  0  0  0  0
 12 19  1  0  0  0  0
 15 16  1  0  0  0  0
 16 12  2  0  0  0  0
 16 22  1  0  0  0  0
 17 10  1  0  0  0  0
 17  7  2  0  0  0  0
 18  3  1  0  0  0  0
 19 13  2  0  0  0  0
 20 26  1  0  0  0  0
 21 20  1  0  0  0  0
 22 24  1  0  0  0  0
 23 21  2  0  0  0  0
 24 20  2  0  0  0  0
 25 22  2  0  0  0  0
 25 23  1  0  0  0  0
 27  9  1  0  0  0  0
 29 27  1  6  0  0  0
 30 28  1  1  0  0  0
 30 29  1  0  0  0  0
 31 34  1  0  0  0  0
 31 32  1  0  0  0  0
 32 33  1  0  0  0  0
 33 29  1  0  0  0  0
 34 30  1  0  0  0  0
M  END
>  <MODEL>
4

>  <REMARK>
 VINA RESULT:      -9.6      3.433      6.026
  Name = 
  3 active torsions:
  status: ('A' for Active; 'I' for Inactive)
    1  A    between atoms: N_3  and  C_13
    2  A    between atoms: N_3  and  N_17
    3  A    between atoms: C_12  and  C_28
                            x       y       z     vdW  Elec       q    Type
                         _______ _______ _______ _____ _____    ______ ____

>  <TORSDO>
F 3

$$$$
=
 OpenBabel11052414053D

 34 39  0  0  1  0  0  0  0  0999 V2000
  185.9790  178.0960  145.6130 C   0  0  0  0  0  0  0  0  0  0  0  0
  188.0070  177.7580  144.1540 C   0  0  2  0  0  3  0  0  0  0  0  0
  185.7210  178.4240  143.2020 C   0  0  0  0  0  0  0  0  0  0  0  0
  185.3550  178.7570  140.7810 C   0  0  0  0  0  0  0  0  0  0  0  0
  188.1580  177.9200  146.6110 C   0  0  0  0  0  3  0  0  0  0  0  0
  188.7830  177.8780  145.4350 C   0  0  0  0  0  3  0  0  0  0  0  0
  187.5180  178.2340  141.4190 N   0  0  0  0  0  0  0  0  0  0  0  0
  186.5490  178.1370  144.3180 C   0  0  0  0  0  0  0  0  0  0  0  0
  188.8320  177.7800  139.5020 N   0  0  0  0  0  2  0  0  0  0  0  0
  186.1330  178.6280  139.1850 S   0  0  0  0  0  0  0  0  0  0  0  0
  186.7270  177.9570  146.6700 N   0  0  0  0  0  0  0  0  0  0  0  0
  184.3190  178.5870  143.3840 C   0  0  0  0  0  0  0  0  0  0  0  0
  184.6070  178.2570  145.7790 C   0  0  0  0  0  3  0  0  0  0  0  0
  188.1210  176.0680  143.5880 Cl  0  0  0  0  0  0  0  0  0  0  0  0
  184.0760  178.8180  140.9700 N   0  0  0  0  0  0  0  0  0  0  0  0
  183.5120  178.7940  142.2990 C   0  0  0  0  0  0  0  0  0  0  0  0
  187.6220  178.2100  140.1280 C   0  0  0  0  0  0  0  0  0  0  0  0
  186.2340  178.5520  141.8620 N   0  0  0  0  0  0  0  0  0  0  0  0
  183.7860  178.4880  144.6790 C   0  0  0  0  0  3  0  0  0  0  0  0
  179.9580  178.7750  143.6580 C   0  0  0  0  0  0  0  0  0  0  0  0
  179.2450  179.2090  142.5370 C   0  0  0  0  0  3  0  0  0  0  0  0
  182.0350  178.9140  142.3970 C   0  0  0  0  0  0  0  0  0  0  0  0
  179.9250  179.5190  141.3560 C   0  0  0  0  0  3  0  0  0  0  0  0
  181.3470  178.6280  143.5900 C   0  0  0  0  0  3  0  0  0  0  0  0
  181.3130  179.3780  141.2890 C   0  0  0  0  0  3  0  0  0  0  0  0
  179.3010  178.4900  144.8090 F   0  0  0  0  0  0  0  0  0  0  0  0
  188.9390  177.6670  138.1080 N   0  0  0  0  0  2  0  0  0  0  0  0
  191.4510  176.5060  137.3390 O   0  0  0  0  0  1  0  0  0  0  0  0
  189.0910  176.2510  137.7850 C   0  0  2  0  0  3  0  0  0  0  0  0
  190.2470  176.0480  136.7950 C   0  0  1  0  0  3  0  0  0  0  0  0
  188.5080  176.8870  135.1020 C   0  0  0  0  0  2  0  0  0  0  0  0
  187.6740  175.7490  135.6810 C   0  0  0  0  0  2  0  0  0  0  0  0
  187.7710  175.6970  137.2180 C   0  0  0  0  0  2  0  0  0  0  0  0
  189.9970  176.7160  135.4340 C   0  0  0  0  0  2  0  0  0  0  0  0
  1 13  1  0  0  0  0
  1 11  2  0  0  0  0
  2 14  1  1  0  0  0
  2  8  1  0  0  0  0
  2  6  1  0  0  0  0
  3 12  1  0  0  0  0
  3  8  2  0  0  0  0
  4 15  2  0  0  0  0
  4 18  1  0  0  0  0
  5 11  1  0  0  0  0
  6  5  2  0  0  0  0
  7 18  1  0  0  0  0
  8  1  1  0  0  0  0
  9 17  1  0  0  0  0
 10 17  1  0  0  0  0
 10  4  1  0  0  0  0
 12 19  1  0  0  0  0
 15 16  1  0  0  0  0
 16 22  1  0  0  0  0
 16 12  2  0  0  0  0
 17  7  2  0  0  0  0
 18  3  1  0  0  0  0
 19 13  2  0  0  0  0
 20 26  1  0  0  0  0
 21 20  2  0  0  0  0
 22 24  2  0  0  0  0
 23 21  1  0  0  0  0
 24 20  1  0  0  0  0
 25 23  2  0  0  0  0
 25 22  1  0  0  0  0
 27  9  1  0  0  0  0
 29 27  1  6  0  0  0
 30 28  1  1  0  0  0
 30 29  1  0  0  0  0
 31 34  1  0  0  0  0
 31 32  1  0  0  0  0
 32 33  1  0  0  0  0
 33 29  1  0  0  0  0
 34 30  1  0  0  0  0
M  END
>  <MODEL>
5

>  <REMARK>
 VINA RESULT:      -9.5      2.124      3.106
  Name = 
  3 active torsions:
  status: ('A' for Active; 'I' for Inactive)
    1  A    between atoms: N_3  and  C_13
    2  A    between atoms: N_3  and  N_17
    3  A    between atoms: C_12  and  C_28
                            x       y       z     vdW  Elec       q    Type
                         _______ _______ _______ _____ _____    ______ ____

>  <TORSDO>
F 3

$$$$
=
 OpenBabel11052414053D

 34 39  0  0  1  0  0  0  0  0999 V2000
  190.3340  176.9950  138.7530 C   0  0  0  0  0  0  0  0  0  0  0  0
  188.2210  177.4590  137.4590 C   0  0  2  0  0  3  0  0  0  0  0  0
  188.3930  177.8240  139.9920 C   0  0  0  0  0  0  0  0  0  0  0  0
  186.4830  178.6360  141.3320 C   0  0  0  0  0  0  0  0  0  0  0  0
  190.3900  177.0610  136.3520 C   0  0  0  0  0  3  0  0  0  0  0  0
  189.1140  177.4350  136.2520 C   0  0  0  0  0  3  0  0  0  0  0  0
  186.1200  178.4560  139.0530 N   0  0  0  0  0  0  0  0  0  0  0  0
  188.9990  177.4650  138.7600 C   0  0  0  0  0  0  0  0  0  0  0  0
  183.8210  178.7650  138.5790 N   0  0  0  0  0  2  0  0  0  0  0  0
  184.7560  179.0610  141.2520 S   0  0  0  0  0  0  0  0  0  0  0  0
  190.9610  176.7730  137.6350 N   0  0  0  0  0  0  0  0  0  0  0  0
  189.1010  177.6330  141.2110 C   0  0  0  0  0  0  0  0  0  0  0  0
  191.0170  176.8120  139.9520 C   0  0  0  0  0  3  0  0  0  0  0  0
  187.1680  176.0180  137.4040 Cl  0  0  0  0  0  0  0  0  0  0  0  0
  187.1230  178.3740  142.4260 N   0  0  0  0  0  0  0  0  0  0  0  0
  188.4900  177.9120  142.4030 C   0  0  0  0  0  0  0  0  0  0  0  0
  184.9350  178.7620  139.4740 C   0  0  0  0  0  0  0  0  0  0  0  0
  187.0640  178.3750  140.0770 N   0  0  0  0  0  0  0  0  0  0  0  0
  190.4050  177.1160  141.1650 C   0  0  0  0  0  3  0  0  0  0  0  0
  189.0330  177.1260  146.0860 C   0  0  0  0  0  0  0  0  0  0  0  0
  190.4250  177.2150  146.1730 C   0  0  0  0  0  3  0  0  0  0  0  0
  189.1380  177.6850  143.7200 C   0  0  0  0  0  0  0  0  0  0  0  0
  191.1760  177.5140  145.0320 C   0  0  0  0  0  3  0  0  0  0  0  0
  188.3910  177.3590  144.8660 C   0  0  0  0  0  3  0  0  0  0  0  0
  190.5360  177.7420  143.8120 C   0  0  0  0  0  3  0  0  0  0  0  0
  188.3050  176.8200  147.1880 F   0  0  0  0  0  0  0  0  0  0  0  0
  182.5160  179.0120  139.0300 N   0  0  0  0  0  2  0  0  0  0  0  0
  179.6680  179.0260  139.4030 O   0  0  0  0  0  1  0  0  0  0  0  0
  181.5920  178.3690  138.1000 C   0  0  2  0  0  3  0  0  0  0  0  0
  180.3160  177.9280  138.8300 C   0  0  1  0  0  3  0  0  0  0  0  0
  181.8300  176.0120  139.6270 C   0  0  0  0  0  2  0  0  0  0  0  0
  182.0610  175.8260  138.1310 C   0  0  0  0  0  2  0  0  0  0  0  0
  182.2830  177.1740  137.4170 C   0  0  0  0  0  2  0  0  0  0  0  0
  180.5760  176.8540  139.9000 C   0  0  0  0  0  2  0  0  0  0  0  0
  1  8  1  0  0  0  0
  1 13  1  0  0  0  0
  2 14  1  1  0  0  0
  2  8  1  0  0  0  0
  3 18  1  0  0  0  0
  3 12  1  0  0  0  0
  4 15  2  0  0  0  0
  5 11  1  0  0  0  0
  6  5  2  0  0  0  0
  6  2  1  0  0  0  0
  7 17  2  0  0  0  0
  7 18  1  0  0  0  0
  8  3  2  0  0  0  0
  9 27  1  0  0  0  0
  9 17  1  0  0  0  0
 10  4  1  0  0  0  0
 11  1  2  0  0  0  0
 12 16  2  0  0  0  0
 13 19  2  0  0  0  0
 16 15  1  0  0  0  0
 16 22  1  0  0  0  0
 17 10  1  0  0  0  0
 18  4  1  0  0  0  0
 19 12  1  0  0  0  0
 20 21  1  0  0  0  0
 20 26  1  0  0  0  0
 22 25  2  0  0  0  0
 22 24  1  0  0  0  0
 23 21  2  0  0  0  0
 24 20  2  0  0  0  0
 25 23  1  0  0  0  0
 29 30  1  0  0  0  0
 29 27  1  1  0  0  0
 30 28  1  1  0  0  0
 30 34  1  0  0  0  0
 31 34  1  0  0  0  0
 32 31  1  0  0  0  0
 33 29  1  0  0  0  0
 33 32  1  0  0  0  0
M  END
>  <MODEL>
6

>  <REMARK>
 VINA RESULT:      -9.4      4.126      7.908
  Name = 
  3 active torsions:
  status: ('A' for Active; 'I' for Inactive)
    1  A    between atoms: N_3  and  C_13
    2  A    between atoms: N_3  and  N_17
    3  A    between atoms: C_12  and  C_28
                            x       y       z     vdW  Elec       q    Type
                         _______ _______ _______ _____ _____    ______ ____

>  <TORSDO>
F 3

$$$$
=
 OpenBabel11052414053D

 34 39  0  0  1  0  0  0  0  0999 V2000
  190.4520  176.9960  140.2050 C   0  0  0  0  0  0  0  0  0  0  0  0
  188.6720  177.5590  138.5100 C   0  0  2  0  0  3  0  0  0  0  0  0
  188.3090  177.8410  141.0340 C   0  0  0  0  0  0  0  0  0  0  0  0
  186.1740  178.6640  141.9680 C   0  0  0  0  0  0  0  0  0  0  0  0
  191.0180  177.1350  137.8750 C   0  0  0  0  0  3  0  0  0  0  0  0
  189.8010  177.5470  137.5200 C   0  0  0  0  0  3  0  0  0  0  0  0
  186.3010  178.5640  139.6580 N   0  0  0  0  0  0  0  0  0  0  0  0
  189.1560  177.5030  139.9460 C   0  0  0  0  0  0  0  0  0  0  0  0
  184.1630  178.9510  138.7190 N   0  0  0  0  0  2  0  0  0  0  0  0
  184.5140  179.1390  141.5380 S   0  0  0  0  0  0  0  0  0  0  0  0
  191.2980  176.7920  139.2380 N   0  0  0  0  0  0  0  0  0  0  0  0
  188.7370  177.5930  142.3670 C   0  0  0  0  0  0  0  0  0  0  0  0
  190.8600  176.7580  141.5140 C   0  0  0  0  0  3  0  0  0  0  0  0
  187.6250  176.1500  138.1810 Cl  0  0  0  0  0  0  0  0  0  0  0  0
  186.5620  178.3500  143.1620 N   0  0  0  0  0  0  0  0  0  0  0  0
  187.8930  177.8520  143.4120 C   0  0  0  0  0  0  0  0  0  0  0  0
  185.0600  178.8910  139.8290 C   0  0  0  0  0  0  0  0  0  0  0  0
  187.0040  178.4250  140.8550 N   0  0  0  0  0  0  0  0  0  0  0  0
  190.0110  177.0410  142.5800 C   0  0  0  0  0  3  0  0  0  0  0  0
  189.8400  176.9330  146.5500 C   0  0  0  0  0  0  0  0  0  0  0  0
  188.8530  177.0870  147.5280 C   0  0  0  0  0  3  0  0  0  0  0  0
  188.2410  177.5660  144.8270 C   0  0  0  0  0  0  0  0  0  0  0  0
  187.5700  177.5030  147.1620 C   0  0  0  0  0  3  0  0  0  0  0  0
  189.5370  177.1710  145.2060 C   0  0  0  0  0  3  0  0  0  0  0  0
  187.2680  177.7470  145.8200 C   0  0  0  0  0  3  0  0  0  0  0  0
  191.0900  176.5450  146.9060 F   0  0  0  0  0  0  0  0  0  0  0  0
  182.7970  179.2210  138.8920 N   0  0  0  0  0  2  0  0  0  0  0  0
  181.7650  178.2730  136.3850 O   0  0  0  0  0  1  0  0  0  0  0  0
  182.0720  177.9600  138.7600 C   0  0  2  0  0  3  0  0  0  0  0  0
  181.0880  178.0280  137.5840 C   0  0  1  0  0  3  0  0  0  0  0  0
  179.6870  179.3760  139.2620 C   0  0  0  0  0  2  0  0  0  0  0  0
  179.8880  178.1400  140.1330 C   0  0  0  0  0  2  0  0  0  0  0  0
  181.3430  177.6340  140.0760 C   0  0  0  0  0  2  0  0  0  0  0  0
  179.9810  179.0750  137.7860 C   0  0  0  0  0  2  0  0  0  0  0  0
  1 13  1  0  0  0  0
  2 14  1  6  0  0  0
  2  8  1  0  0  0  0
  3 12  1  0  0  0  0
  4 15  2  0  0  0  0
  5 11  1  0  0  0  0
  6  5  2  0  0  0  0
  6  2  1  0  0  0  0
  7 17  2  0  0  0  0
  7 18  1  0  0  0  0
  8  1  1  0  0  0  0
  8  3  2  0  0  0  0
  9 27  1  0  0  0  0
  9 17  1  0  0  0  0
 10  4  1  0  0  0  0
 11  1  2  0  0  0  0
 12 19  1  0  0  0  0
 12 16  2  0  0  0  0
 13 19  2  0  0  0  0
 15 16  1  0  0  0  0
 16 22  1  0  0  0  0
 17 10  1  0  0  0  0
 18  3  1  0  0  0  0
 18  4  1  0  0  0  0
 20 26  1  0  0  0  0
 20 21  1  0  0  0  0
 22 24  1  0  0  0  0
 22 25  2  0  0  0  0
 23 21  2  0  0  0  0
 24 20  2  0  0  0  0
 25 23  1  0  0  0  0
 29 27  1  1  0  0  0
 29 33  1  0  0  0  0
 30 28  1  6  0  0  0
 30 34  1  0  0  0  0
 30 29  1  0  0  0  0
 31 32  1  0  0  0  0
 33 32  1  0  0  0  0
 34 31  1  0  0  0  0
M  END
>  <MODEL>
7

>  <REMARK>
 VINA RESULT:      -9.3      3.931      7.641
  Name = 
  3 active torsions:
  status: ('A' for Active; 'I' for Inactive)
    1  A    between atoms: N_3  and  C_13
    2  A    between atoms: N_3  and  N_17
    3  A    between atoms: C_12  and  C_28
                            x       y       z     vdW  Elec       q    Type
                         _______ _______ _______ _____ _____    ______ ____

>  <TORSDO>
F 3

$$$$
=
 OpenBabel11052414053D

 34 39  0  0  1  0  0  0  0  0999 V2000
  189.2150  177.3000  146.4470 C   0  0  0  0  0  0  0  0  0  0  0  0
  186.8200  177.9760  146.8500 C   0  0  0  0  0  0  0  0  0  0  0  0
  187.7800  177.6450  144.4950 C   0  0  0  0  0  0  0  0  0  0  0  0
  186.4170  177.9910  142.4630 C   0  0  0  0  0  0  0  0  0  0  0  0
  188.2820  177.1490  148.6560 C   0  0  0  0  0  3  0  0  0  0  0  0
  187.0600  177.4960  148.2530 C   0  0  0  0  0  3  0  0  0  0  0  0
  185.3190  178.2720  144.4810 N   0  0  0  0  0  0  0  0  0  0  0  0
  187.9420  177.5990  145.9040 C   0  0  0  0  0  0  0  0  0  0  0  0
  183.1740  179.2010  144.1060 N   0  0  0  0  0  2  0  0  0  0  0  0
  184.8230  178.5310  141.8840 S   0  0  0  0  0  0  0  0  0  0  0  0
  189.3740  177.1290  147.7270 N   0  0  0  0  0  0  0  0  0  0  0  0
  188.9080  177.4700  143.6460 C   0  0  0  0  0  0  0  0  0  0  0  0
  190.3110  177.1290  145.6070 C   0  0  0  0  0  3  0  0  0  0  0  0
  186.6490  179.7540  146.8900 Cl  0  0  0  0  0  0  0  0  0  0  0  0
  187.4760  177.9090  141.7230 N   0  0  0  0  0  0  0  0  0  0  0  0
  188.7630  177.5840  142.2910 C   0  0  0  0  0  0  0  0  0  0  0  0
  184.4060  178.6440  143.6430 C   0  0  0  0  0  0  0  0  0  0  0  0
  186.5050  177.8740  143.8630 N   0  0  0  0  0  0  0  0  0  0  0  0
  190.1630  177.2250  144.2260 C   0  0  0  0  0  2  0  0  0  0  0  0
  190.7880  177.2460  139.0870 C   0  0  0  0  0  0  0  0  0  0  0  0
  192.0910  177.3230  139.5890 C   0  0  0  0  0  3  0  0  0  0  0  0
  189.9000  177.4740  141.3410 C   0  0  0  0  0  0  0  0  0  0  0  0
  192.3000  177.5000  140.9590 C   0  0  0  0  0  3  0  0  0  0  0  0
  189.6970  177.3220  139.9580 C   0  0  0  0  0  3  0  0  0  0  0  0
  191.2100  177.5800  141.8290 C   0  0  0  0  0  3  0  0  0  0  0  0
  190.5840  177.0920  137.7550 F   0  0  0  0  0  0  0  0  0  0  0  0
  182.2060  179.6870  143.2150 N   0  0  0  0  0  2  0  0  0  0  0  0
  181.5740  178.8410  140.5440 O   0  0  0  0  0  1  0  0  0  0  0  0
  181.2760  178.5980  142.9280 C   0  0  2  0  0  3  0  0  0  0  0  0
  180.6140  178.8050  141.5590 C   0  0  1  0  0  3  0  0  0  0  0  0
  179.1980  180.5010  142.8690 C   0  0  0  0  0  2  0  0  0  0  0  0
  178.9330  179.2980  143.7680 C   0  0  0  0  0  2  0  0  0  0  0  0
  180.2220  178.5000  144.0460 C   0  0  0  0  0  2  0  0  0  0  0  0
  179.7390  180.0680  141.4990 C   0  0  0  0  0  2  0  0  0  0  0  0
  1 11  1  0  0  0  0
  2 14  1  0  0  0  0
  2  6  2  0  0  0  0
  3  8  2  0  0  0  0
  4 18  1  0  0  0  0
  6  5  1  0  0  0  0
  8  1  1  0  0  0  0
  8  2  1  0  0  0  0
 10  4  1  0  0  0  0
 10 17  1  0  0  0  0
 11  5  2  0  0  0  0
 12 19  1  0  0  0  0
 12  3  1  0  0  0  0
 13  1  2  0  0  0  0
 15 16  1  0  0  0  0
 15  4  2  0  0  0  0
 16 12  2  0  0  0  0
 17  9  1  0  0  0  0
 17  7  2  0  0  0  0
 18  7  1  0  0  0  0
 18  3  1  0  0  0  0
 19 13  1  0  0  0  0
 20 21  2  0  0  0  0
 20 24  1  0  0  0  0
 21 23  1  0  0  0  0
 22 25  1  0  0  0  0
 22 16  1  0  0  0  0
 23 25  2  0  0  0  0
 24 22  2  0  0  0  0
 26 20  1  0  0  0  0
 27  9  1  0  0  0  0
 29 27  1  1  0  0  0
 29 33  1  0  0  0  0
 30 28  1  6  0  0  0
 30 29  1  0  0  0  0
 31 32  1  0  0  0  0
 32 33  1  0  0  0  0
 34 30  1  0  0  0  0
 34 31  1  0  0  0  0
M  END
>  <MODEL>
8

>  <REMARK>
 VINA RESULT:      -9.2      3.860      8.261
  Name = 
  3 active torsions:
  status: ('A' for Active; 'I' for Inactive)
    1  A    between atoms: N_3  and  C_13
    2  A    between atoms: N_3  and  N_17
    3  A    between atoms: C_12  and  C_28
                            x       y       z     vdW  Elec       q    Type
                         _______ _______ _______ _____ _____    ______ ____

>  <TORSDO>
F 3

$$$$
=
 OpenBabel11052414053D

 34 39  0  0  1  0  0  0  0  0999 V2000
  185.4120  178.4130  145.7260 C   0  0  0  0  0  0  0  0  0  0  0  0
  185.1080  178.6040  143.2300 C   0  0  2  0  0  3  0  0  0  0  0  0
  187.2840  177.7570  144.2920 C   0  0  0  0  0  0  0  0  0  0  0  0
  189.2360  177.0930  142.9300 C   0  0  0  0  0  0  0  0  0  0  0  0
  183.2210  178.7770  144.8100 C   0  0  0  0  0  3  0  0  0  0  0  0
  183.6420  178.6770  143.5490 C   0  0  0  0  0  3  0  0  0  0  0  0
  187.3540  177.7520  141.7540 N   0  0  0  0  0  0  0  0  0  0  0  0
  185.9470  178.2130  144.4310 C   0  0  0  0  0  0  0  0  0  0  0  0
  187.8810  177.9780  139.4570 N   0  0  0  0  0  2  0  0  0  0  0  0
  189.8630  177.0260  141.2660 S   0  0  0  0  0  0  0  0  0  0  0  0
  184.1570  178.7120  145.8930 N   0  0  0  0  0  0  0  0  0  0  0  0
  188.0960  177.5840  145.4470 C   0  0  0  0  0  0  0  0  0  0  0  0
  186.2160  178.2400  146.8490 C   0  0  0  0  0  3  0  0  0  0  0  0
  185.6320  180.2050  142.6360 Cl  0  0  0  0  0  0  0  0  0  0  0  0
  189.9710  177.0250  143.9940 N   0  0  0  0  0  0  0  0  0  0  0  0
  189.4060  177.2130  145.3090 C   0  0  0  0  0  0  0  0  0  0  0  0
  188.2120  177.6050  140.7960 C   0  0  0  0  0  0  0  0  0  0  0  0
  187.8800  177.4630  143.0140 N   0  0  0  0  0  0  0  0  0  0  0  0
  187.5430  177.8430  146.7110 C   0  0  0  0  0  3  0  0  0  0  0  0
  192.3020  176.0950  147.5080 C   0  0  0  0  0  0  0  0  0  0  0  0
  192.0870  176.8780  148.6470 C   0  0  0  0  0  3  0  0  0  0  0  0
  190.3340  177.0700  146.4580 C   0  0  0  0  0  0  0  0  0  0  0  0
  191.0140  177.7730  148.6830 C   0  0  0  0  0  3  0  0  0  0  0  0
  191.4310  176.1900  146.4190 C   0  0  0  0  0  3  0  0  0  0  0  0
  190.1460  177.8720  147.5930 C   0  0  0  0  0  3  0  0  0  0  0  0
  193.3530  175.2390  147.4660 F   0  0  0  0  0  0  0  0  0  0  0  0
  188.8230  177.9060  138.4190 N   0  0  0  0  0  2  0  0  0  0  0  0
  190.9130  176.6750  136.8810 O   0  0  0  0  0  1  0  0  0  0  0  0
  188.6660  176.6110  137.7620 C   0  0  2  0  0  3  0  0  0  0  0  0
  189.5700  176.5240  136.5250 C   0  0  1  0  0  3  0  0  0  0  0  0
  187.7260  177.9780  135.4830 C   0  0  0  0  0  2  0  0  0  0  0  0
  186.8260  176.8430  135.9600 C   0  0  0  0  0  2  0  0  0  0  0  0
  187.1890  176.3900  137.3880 C   0  0  0  0  0  2  0  0  0  0  0  0
  189.1970  177.5430  135.4350 C   0  0  0  0  0  2  0  0  0  0  0  0
  1 11  2  0  0  0  0
  1 13  1  0  0  0  0
  2 14  1  1  0  0  0
  2  6  1  0  0  0  0
  2  8  1  0  0  0  0
  3  8  2  0  0  0  0
  3 12  1  0  0  0  0
  4 18  1  0  0  0  0
  4 15  2  0  0  0  0
  5 11  1  0  0  0  0
  6  5  2  0  0  0  0
  7 18  1  0  0  0  0
  8  1  1  0  0  0  0
  9 17  1  0  0  0  0
 10  4  1  0  0  0  0
 12 19  1  0  0  0  0
 15 16  1  0  0  0  0
 16 12  2  0  0  0  0
 16 22  1  0  0  0  0
 17 10  1  0  0  0  0
 17  7  2  0  0  0  0
 18  3  1  0  0  0  0
 19 13  2  0  0  0  0
 20 21  1  0  0  0  0
 21 23  2  0  0  0  0
 22 25  2  0  0  0  0
 24 22  1  0  0  0  0
 24 20  2  0  0  0  0
 25 23  1  0  0  0  0
 26 20  1  0  0  0  0
 27  9  1  0  0  0  0
 29 27  1  6  0  0  0
 30 28  1  1  0  0  0
 30 29  1  0  0  0  0
 31 32  1  0  0  0  0
 32 33  1  0  0  0  0
 33 29  1  0  0  0  0
 34 31  1  0  0  0  0
 34 30  1  0  0  0  0
M  END
>  <MODEL>
9

>  <REMARK>
 VINA RESULT:      -9.2      3.431      5.924
  Name = 
  3 active torsions:
  status: ('A' for Active; 'I' for Inactive)
    1  A    between atoms: N_3  and  C_13
    2  A    between atoms: N_3  and  N_17
    3  A    between atoms: C_12  and  C_28
                            x       y       z     vdW  Elec       q    Type
                         _______ _______ _______ _____ _____    ______ ____

>  <TORSDO>
F 3

$$$$
