=
 OpenBabel11052413453D

 27 31  0  0  0  0  0  0  0  0999 V2000
  188.8830  176.7000  142.6350 O   0  0  0  0  0  0  0  0  0  0  0  0
  187.1550  177.7790  143.9620 C   0  0  0  0  0  0  0  0  0  0  0  0
  186.6000  178.2240  141.5970 C   0  0  0  0  0  3  0  0  0  0  0  0
  183.1350  178.7850  144.8520 C   0  0  0  0  0  3  0  0  0  0  0  0
  180.9220  179.3030  144.1390 F   0  0  0  0  0  0  0  0  0  0  0  0
  186.6750  177.9280  145.2790 C   0  0  0  0  0  3  0  0  0  0  0  0
  183.9270  178.5970  142.1830 C   0  0  0  0  0  3  0  0  0  0  0  0
  189.1070  178.5360  138.9120 C   0  0  0  0  0  0  0  0  0  0  0  0
  182.6020  178.9070  142.4980 C   0  0  0  0  0  3  0  0  0  0  0  0
  189.1670  179.0910  137.7850 O   0  0  0  0  0  0  0  0  0  0  0  0
  184.8840  178.3680  143.1960 C   0  0  0  0  0  0  0  0  0  0  0  0
  188.4140  177.2710  143.8210 C   0  0  0  0  0  0  0  0  0  0  0  0
  182.2060  179.0000  143.8320 C   0  0  0  0  0  0  0  0  0  0  0  0
  184.4610  178.4700  144.5410 C   0  0  0  0  0  0  0  0  0  0  0  0
  188.9390  177.3380  141.4070 C   0  0  0  0  0  0  0  0  0  0  0  0
  186.2460  178.0720  142.8870 C   0  0  0  0  0  0  0  0  0  0  0  0
  187.9920  178.6710  139.6780 N   0  0  0  0  0  2  0  0  0  0  0  0
  185.3640  178.2740  145.5690 C   0  0  0  0  0  3  0  0  0  0  0  0
  190.1780  177.7730  139.3720 C   0  0  0  0  0  3  0  0  0  0  0  0
  190.0840  177.1680  140.6240 C   0  0  0  0  0  3  0  0  0  0  0  0
  187.8840  178.1030  140.9110 C   0  0  0  0  0  0  0  0  0  0  0  0
  191.0860  176.8040  147.1530 C   0  0  0  0  0  3  0  0  0  0  0  0
  189.3580  177.1490  144.9660 C   0  0  0  0  0  0  0  0  0  0  0  0
  190.7340  176.9560  144.7630 C   0  0  0  0  0  3  0  0  0  0  0  0
  191.5950  176.7910  145.8520 C   0  0  0  0  0  3  0  0  0  0  0  0
  189.7160  176.9740  147.3650 C   0  0  0  0  0  3  0  0  0  0  0  0
  188.8550  177.1400  146.2760 C   0  0  0  0  0  3  0  0  0  0  0  0
  1 12  1  0  0  0  0
  2  6  1  0  0  0  0
  3 16  2  0  0  0  0
  6 18  2  0  0  0  0
  7  9  2  0  0  0  0
  7 11  1  0  0  0  0
  8 19  1  0  0  0  0
  8 17  1  0  0  0  0
  9 13  1  0  0  0  0
 10  8  2  0  0  0  0
 11 14  2  0  0  0  0
 12  2  2  0  0  0  0
 12 23  1  0  0  0  0
 13  5  1  0  0  0  0
 13  4  2  0  0  0  0
 14  4  1  0  0  0  0
 14 18  1  0  0  0  0
 15  1  1  0  0  0  0
 16 11  1  0  0  0  0
 16  2  1  0  0  0  0
 17 21  1  0  0  0  0
 19 20  2  0  0  0  0
 20 15  1  0  0  0  0
 21 15  2  0  0  0  0
 21  3  1  0  0  0  0
 22 26  1  0  0  0  0
 23 27  1  0  0  0  0
 24 23  2  0  0  0  0
 24 25  1  0  0  0  0
 25 22  2  0  0  0  0
 27 26  2  0  0  0  0
M  END
>  <MODEL>
1

>  <REMARK>
 VINA RESULT:     -12.5      0.000      0.000
  Name = 
  1 active torsions:
  status: ('A' for Active; 'I' for Inactive)
    1  A    between atoms: C_9  and  C_15
                            x       y       z     vdW  Elec       q    Type
                         _______ _______ _______ _____ _____    ______ ____

>  <TORSDO>
F 1

$$$$
=
 OpenBabel11052413453D

 27 31  0  0  0  0  0  0  0  0999 V2000
  187.1840  178.7850  141.6330 O   0  0  0  0  0  0  0  0  0  0  0  0
  187.5060  177.7750  143.8210 C   0  0  0  0  0  0  0  0  0  0  0  0
  189.5170  177.2300  142.4970 C   0  0  0  0  0  3  0  0  0  0  0  0
  189.7980  176.8330  147.2590 C   0  0  0  0  0  3  0  0  0  0  0  0
  191.8850  176.2970  148.2760 F   0  0  0  0  0  0  0  0  0  0  0  0
  186.9500  177.6870  145.1130 C   0  0  0  0  0  3  0  0  0  0  0  0
  191.0540  176.8990  144.7690 C   0  0  0  0  0  3  0  0  0  0  0  0
  189.5230  176.7860  138.8370 C   0  0  0  0  0  0  0  0  0  0  0  0
  191.7950  176.6100  145.9170 C   0  0  0  0  0  3  0  0  0  0  0  0
  190.2360  176.1810  137.9960 O   0  0  0  0  0  0  0  0  0  0  0  0
  189.6690  177.1670  144.8410 C   0  0  0  0  0  0  0  0  0  0  0  0
  186.6980  178.2690  142.8370 C   0  0  0  0  0  0  0  0  0  0  0  0
  191.1670  176.5780  147.1620 C   0  0  0  0  0  0  0  0  0  0  0  0
  189.0540  177.1260  146.1130 C   0  0  0  0  0  0  0  0  0  0  0  0
  187.9670  178.0930  140.7240 C   0  0  0  0  0  0  0  0  0  0  0  0
  188.8960  177.4410  143.6730 C   0  0  0  0  0  0  0  0  0  0  0  0
  189.8070  176.6910  140.1630 N   0  0  0  0  0  2  0  0  0  0  0  0
  187.6960  177.3620  146.2350 C   0  0  0  0  0  3  0  0  0  0  0  0
  188.4470  177.5620  138.4110 C   0  0  0  0  0  3  0  0  0  0  0  0
  187.6740  178.2220  139.3640 C   0  0  0  0  0  3  0  0  0  0  0  0
  189.0550  177.3130  141.1140 C   0  0  0  0  0  0  0  0  0  0  0  0
  182.4790  178.8770  143.3730 C   0  0  0  0  0  3  0  0  0  0  0  0
  185.2300  178.4360  143.0200 C   0  0  0  0  0  0  0  0  0  0  0  0
  184.3320  178.2200  141.9610 C   0  0  0  0  0  3  0  0  0  0  0  0
  182.9620  178.4320  142.1390 C   0  0  0  0  0  3  0  0  0  0  0  0
  183.3660  179.1150  144.4250 C   0  0  0  0  0  3  0  0  0  0  0  0
  184.7360  178.9010  144.2470 C   0  0  0  0  0  3  0  0  0  0  0  0
  1 12  1  0  0  0  0
  2  6  1  0  0  0  0
  3 16  2  0  0  0  0
  6 18  2  0  0  0  0
  7 11  2  0  0  0  0
  7  9  1  0  0  0  0
  8 17  1  0  0  0  0
  9 13  2  0  0  0  0
 10  8  2  0  0  0  0
 11 14  1  0  0  0  0
 12 23  1  0  0  0  0
 12  2  2  0  0  0  0
 13  4  1  0  0  0  0
 13  5  1  0  0  0  0
 14 18  1  0  0  0  0
 14  4  2  0  0  0  0
 15 21  2  0  0  0  0
 15  1  1  0  0  0  0
 16  2  1  0  0  0  0
 16 11  1  0  0  0  0
 17 21  1  0  0  0  0
 19  8  1  0  0  0  0
 19 20  2  0  0  0  0
 20 15  1  0  0  0  0
 21  3  1  0  0  0  0
 22 26  1  0  0  0  0
 23 27  1  0  0  0  0
 24 25  1  0  0  0  0
 24 23  2  0  0  0  0
 25 22  2  0  0  0  0
 27 26  2  0  0  0  0
M  END
>  <MODEL>
2

>  <REMARK>
 VINA RESULT:     -12.3      2.609      5.842
  Name = 
  1 active torsions:
  status: ('A' for Active; 'I' for Inactive)
    1  A    between atoms: C_9  and  C_15
                            x       y       z     vdW  Elec       q    Type
                         _______ _______ _______ _____ _____    ______ ____

>  <TORSDO>
F 1

$$$$
=
 OpenBabel11052413453D

 27 31  0  0  0  0  0  0  0  0999 V2000
  187.0910  178.9880  140.5940 O   0  0  0  0  0  0  0  0  0  0  0  0
  186.3520  178.2870  142.8010 C   0  0  0  0  0  0  0  0  0  0  0  0
  188.7190  177.6120  142.6090 C   0  0  0  0  0  3  0  0  0  0  0  0
  186.8120  177.8610  146.9930 C   0  0  0  0  0  3  0  0  0  0  0  0
  188.1940  177.5090  148.9010 F   0  0  0  0  0  0  0  0  0  0  0  0
  185.2710  178.3600  143.7030 C   0  0  0  0  0  3  0  0  0  0  0  0
  189.0550  177.6190  145.3510 C   0  0  0  0  0  3  0  0  0  0  0  0
  190.3510  176.6840  139.4370 C   0  0  0  0  0  0  0  0  0  0  0  0
  189.1880  177.5030  146.7370 C   0  0  0  0  0  3  0  0  0  0  0  0
  191.3410  175.9870  139.0940 O   0  0  0  0  0  0  0  0  0  0  0  0
  187.7980  177.8660  144.7560 C   0  0  0  0  0  0  0  0  0  0  0  0
  186.0950  178.6280  141.5040 C   0  0  0  0  0  0  0  0  0  0  0  0
  188.0660  177.6240  147.5570 C   0  0  0  0  0  0  0  0  0  0  0  0
  186.6750  177.9830  145.6070 C   0  0  0  0  0  0  0  0  0  0  0  0
  188.1690  178.1980  140.2330 C   0  0  0  0  0  0  0  0  0  0  0  0
  187.6450  177.9650  143.3400 C   0  0  0  0  0  0  0  0  0  0  0  0
  190.0040  176.7720  140.7480 N   0  0  0  0  0  2  0  0  0  0  0  0
  185.4190  178.2040  145.0720 C   0  0  0  0  0  3  0  0  0  0  0  0
  189.6160  177.3730  138.4750 C   0  0  0  0  0  3  0  0  0  0  0  0
  188.5240  178.1380  138.8830 C   0  0  0  0  0  3  0  0  0  0  0  0
  188.9320  177.5000  141.1690 C   0  0  0  0  0  0  0  0  0  0  0  0
  182.1240  179.0020  139.9040 C   0  0  0  0  0  3  0  0  0  0  0  0
  184.7090  178.7870  140.9820 C   0  0  0  0  0  0  0  0  0  0  0  0
  183.6010  178.2790  141.6810 C   0  0  0  0  0  3  0  0  0  0  0  0
  182.3140  178.3920  141.1480 C   0  0  0  0  0  3  0  0  0  0  0  0
  183.2220  179.4900  139.1920 C   0  0  0  0  0  3  0  0  0  0  0  0
  184.5090  179.3780  139.7260 C   0  0  0  0  0  3  0  0  0  0  0  0
  1 12  1  0  0  0  0
  2 16  1  0  0  0  0
  2  6  1  0  0  0  0
  3 16  2  0  0  0  0
  4 13  1  0  0  0  0
  6 18  2  0  0  0  0
  7  9  1  0  0  0  0
  8 17  1  0  0  0  0
  9 13  2  0  0  0  0
 10  8  2  0  0  0  0
 11  7  2  0  0  0  0
 11 14  1  0  0  0  0
 12  2  2  0  0  0  0
 13  5  1  0  0  0  0
 14  4  2  0  0  0  0
 15  1  1  0  0  0  0
 15 21  2  0  0  0  0
 16 11  1  0  0  0  0
 17 21  1  0  0  0  0
 18 14  1  0  0  0  0
 19 20  2  0  0  0  0
 19  8  1  0  0  0  0
 20 15  1  0  0  0  0
 21  3  1  0  0  0  0
 22 25  1  0  0  0  0
 23 12  1  0  0  0  0
 23 24  1  0  0  0  0
 25 24  2  0  0  0  0
 26 27  1  0  0  0  0
 26 22  2  0  0  0  0
 27 23  2  0  0  0  0
M  END
>  <MODEL>
3

>  <REMARK>
 VINA RESULT:     -11.5      2.429      5.713
  Name = 
  1 active torsions:
  status: ('A' for Active; 'I' for Inactive)
    1  A    between atoms: C_9  and  C_15
                            x       y       z     vdW  Elec       q    Type
                         _______ _______ _______ _____ _____    ______ ____

>  <TORSDO>
F 1

$$$$
=
 OpenBabel11052413453D

 27 31  0  0  0  0  0  0  0  0999 V2000
  189.8040  178.4840  142.9140 O   0  0  0  0  0  0  0  0  0  0  0  0
  187.4680  178.1040  142.3560 C   0  0  0  0  0  0  0  0  0  0  0  0
  187.6370  177.9330  144.8140 C   0  0  0  0  0  3  0  0  0  0  0  0
  183.3030  178.6510  142.9130 C   0  0  0  0  0  3  0  0  0  0  0  0
  181.4320  179.0030  144.3460 F   0  0  0  0  0  0  0  0  0  0  0  0
  186.5480  178.1250  141.2890 C   0  0  0  0  0  3  0  0  0  0  0  0
  184.9700  178.5710  145.1490 C   0  0  0  0  0  3  0  0  0  0  0  0
  190.6380  176.7530  146.6000 C   0  0  0  0  0  0  0  0  0  0  0  0
  183.5970  178.7700  145.3090 C   0  0  0  0  0  3  0  0  0  0  0  0
  190.8840  176.2310  147.7180 O   0  0  0  0  0  0  0  0  0  0  0  0
  185.5410  178.4130  143.8660 C   0  0  0  0  0  0  0  0  0  0  0  0
  188.7930  178.1100  142.0260 C   0  0  0  0  0  0  0  0  0  0  0  0
  182.7640  178.8110  144.1910 C   0  0  0  0  0  0  0  0  0  0  0  0
  184.6770  178.4550  142.7480 C   0  0  0  0  0  0  0  0  0  0  0  0
  190.0520  177.8890  144.1390 C   0  0  0  0  0  0  0  0  0  0  0  0
  186.9400  178.1860  143.6900 C   0  0  0  0  0  0  0  0  0  0  0  0
  189.3550  177.0300  146.2470 N   0  0  0  0  0  2  0  0  0  0  0  0
  185.1830  178.2860  141.4730 C   0  0  0  0  0  3  0  0  0  0  0  0
  191.6810  177.0560  145.7270 C   0  0  0  0  0  3  0  0  0  0  0  0
  191.3800  177.6330  144.4950 C   0  0  0  0  0  3  0  0  0  0  0  0
  189.0360  177.5780  145.0420 C   0  0  0  0  0  0  0  0  0  0  0  0
  190.0990  177.2670  138.0200 C   0  0  0  0  0  3  0  0  0  0  0  0
  189.2690  177.8560  140.6380 C   0  0  0  0  0  0  0  0  0  0  0  0
  188.8150  178.6280  139.5560 C   0  0  0  0  0  3  0  0  0  0  0  0
  189.2330  178.3390  138.2540 C   0  0  0  0  0  3  0  0  0  0  0  0
  190.5390  176.4800  139.0870 C   0  0  0  0  0  3  0  0  0  0  0  0
  190.1210  176.7700  140.3890 C   0  0  0  0  0  3  0  0  0  0  0  0
  1 15  1  0  0  0  0
  2 16  1  0  0  0  0
  3 21  1  0  0  0  0
  4 13  1  0  0  0  0
  6 18  2  0  0  0  0
  6  2  1  0  0  0  0
  7  9  1  0  0  0  0
  8 10  2  0  0  0  0
 11  7  2  0  0  0  0
 12  2  2  0  0  0  0
 12  1  1  0  0  0  0
 13  5  1  0  0  0  0
 13  9  2  0  0  0  0
 14  4  2  0  0  0  0
 14 11  1  0  0  0  0
 15 20  1  0  0  0  0
 15 21  2  0  0  0  0
 16 11  1  0  0  0  0
 16  3  2  0  0  0  0
 17  8  1  0  0  0  0
 18 14  1  0  0  0  0
 19  8  1  0  0  0  0
 20 19  2  0  0  0  0
 21 17  1  0  0  0  0
 22 25  2  0  0  0  0
 22 26  1  0  0  0  0
 23 12  1  0  0  0  0
 24 23  2  0  0  0  0
 25 24  1  0  0  0  0
 26 27  2  0  0  0  0
 27 23  1  0  0  0  0
M  END
>  <MODEL>
4

>  <REMARK>
 VINA RESULT:     -11.3      1.933      5.102
  Name = 
  1 active torsions:
  status: ('A' for Active; 'I' for Inactive)
    1  A    between atoms: C_9  and  C_15
                            x       y       z     vdW  Elec       q    Type
                         _______ _______ _______ _____ _____    ______ ____

>  <TORSDO>
F 1

$$$$
=
 OpenBabel11052413453D

 27 31  0  0  0  0  0  0  0  0999 V2000
  187.2930  176.8340  144.5940 O   0  0  0  0  0  0  0  0  0  0  0  0
  187.6090  177.7600  142.3680 C   0  0  0  0  0  0  0  0  0  0  0  0
  189.8430  177.0670  143.1610 C   0  0  0  0  0  3  0  0  0  0  0  0
  189.2520  177.7550  138.4610 C   0  0  0  0  0  3  0  0  0  0  0  0
  191.0370  177.2590  136.9640 F   0  0  0  0  0  0  0  0  0  0  0  0
  186.9150  178.2510  141.2440 C   0  0  0  0  0  3  0  0  0  0  0  0
  190.7950  176.8040  140.5820 C   0  0  0  0  0  3  0  0  0  0  0  0
  190.8670  177.0660  146.7020 C   0  0  0  0  0  0  0  0  0  0  0  0
  191.3100  176.7930  139.2830 C   0  0  0  0  0  3  0  0  0  0  0  0
  191.9530  177.1340  147.3340 O   0  0  0  0  0  0  0  0  0  0  0  0
  189.4940  177.2860  140.8480 C   0  0  0  0  0  0  0  0  0  0  0  0
  186.8980  177.6460  143.5280 C   0  0  0  0  0  0  0  0  0  0  0  0
  190.5380  177.2680  138.2230 C   0  0  0  0  0  0  0  0  0  0  0  0
  188.7310  177.7650  139.7580 C   0  0  0  0  0  0  0  0  0  0  0  0
  188.4950  176.9340  145.2730 C   0  0  0  0  0  0  0  0  0  0  0  0
  188.9650  177.3240  142.1730 C   0  0  0  0  0  0  0  0  0  0  0  0
  190.8660  177.1400  145.3450 N   0  0  0  0  0  2  0  0  0  0  0  0
  187.4590  178.2650  139.9690 C   0  0  0  0  0  3  0  0  0  0  0  0
  189.6680  176.9050  147.3920 C   0  0  0  0  0  3  0  0  0  0  0  0
  188.4800  176.8320  146.6660 C   0  0  0  0  0  3  0  0  0  0  0  0
  189.7160  177.0880  144.6160 C   0  0  0  0  0  0  0  0  0  0  0  0
  182.9750  179.3260  144.0270 C   0  0  0  0  0  3  0  0  0  0  0  0
  185.5570  178.2680  143.7040 C   0  0  0  0  0  0  0  0  0  0  0  0
  185.1520  178.7960  144.9420 C   0  0  0  0  0  3  0  0  0  0  0  0
  183.8700  179.3280  145.1000 C   0  0  0  0  0  3  0  0  0  0  0  0
  183.3600  178.7840  142.7980 C   0  0  0  0  0  3  0  0  0  0  0  0
  184.6440  178.2520  142.6400 C   0  0  0  0  0  3  0  0  0  0  0  0
  1 15  1  0  0  0  0
  2 12  2  0  0  0  0
  3 21  1  0  0  0  0
  4 14  1  0  0  0  0
  5 13  1  0  0  0  0
  6  2  1  0  0  0  0
  7 11  1  0  0  0  0
  8 10  2  0  0  0  0
  8 19  1  0  0  0  0
  9  7  2  0  0  0  0
 11 16  1  0  0  0  0
 12 23  1  0  0  0  0
 12  1  1  0  0  0  0
 13  4  2  0  0  0  0
 13  9  1  0  0  0  0
 14 18  1  0  0  0  0
 14 11  2  0  0  0  0
 15 20  1  0  0  0  0
 16  2  1  0  0  0  0
 16  3  2  0  0  0  0
 17  8  1  0  0  0  0
 18  6  2  0  0  0  0
 20 19  2  0  0  0  0
 21 15  2  0  0  0  0
 21 17  1  0  0  0  0
 22 25  1  0  0  0  0
 23 24  1  0  0  0  0
 24 25  2  0  0  0  0
 26 22  2  0  0  0  0
 27 26  1  0  0  0  0
 27 23  2  0  0  0  0
M  END
>  <MODEL>
5

>  <REMARK>
 VINA RESULT:     -10.8      3.231      6.905
  Name = 
  1 active torsions:
  status: ('A' for Active; 'I' for Inactive)
    1  A    between atoms: C_9  and  C_15
                            x       y       z     vdW  Elec       q    Type
                         _______ _______ _______ _____ _____    ______ ____

>  <TORSDO>
F 1

$$$$
=
 OpenBabel11052413453D

 27 31  0  0  0  0  0  0  0  0999 V2000
  187.0660  177.1610  142.0510 O   0  0  0  0  0  0  0  0  0  0  0  0
  189.2510  177.3330  143.1020 C   0  0  0  0  0  0  0  0  0  0  0  0
  187.5860  177.6530  144.8970 C   0  0  0  0  0  3  0  0  0  0  0  0
  192.0560  176.5070  146.1710 C   0  0  0  0  0  3  0  0  0  0  0  0
  192.5590  176.0960  148.4630 F   0  0  0  0  0  0  0  0  0  0  0  0
  190.6320  177.1840  142.8600 C   0  0  0  0  0  3  0  0  0  0  0  0
  189.3680  176.8360  146.8430 C   0  0  0  0  0  3  0  0  0  0  0  0
  184.2580  179.1530  144.3810 C   0  0  0  0  0  0  0  0  0  0  0  0
  190.3060  176.5430  147.8360 C   0  0  0  0  0  3  0  0  0  0  0  0
  183.4110  179.7530  145.0930 O   0  0  0  0  0  0  0  0  0  0  0  0
  189.7530  176.9650  145.4900 C   0  0  0  0  0  0  0  0  0  0  0  0
  188.4400  177.4080  142.0060 C   0  0  0  0  0  0  0  0  0  0  0  0
  191.6490  176.3780  147.4990 C   0  0  0  0  0  0  0  0  0  0  0  0
  191.1200  176.7950  145.1730 C   0  0  0  0  0  0  0  0  0  0  0  0
  186.1560  177.8400  142.8440 C   0  0  0  0  0  0  0  0  0  0  0  0
  188.8090  177.2860  144.4680 C   0  0  0  0  0  0  0  0  0  0  0  0
  185.4430  178.7610  144.9200 N   0  0  0  0  0  2  0  0  0  0  0  0
  191.5510  176.9310  143.8660 C   0  0  0  0  0  3  0  0  0  0  0  0
  183.9780  178.8810  143.0440 C   0  0  0  0  0  3  0  0  0  0  0  0
  184.9340  178.2140  142.2790 C   0  0  0  0  0  3  0  0  0  0  0  0
  186.3990  178.1240  144.1880 C   0  0  0  0  0  0  0  0  0  0  0  0
  189.9240  177.9090  138.0050 C   0  0  0  0  0  3  0  0  0  0  0  0
  188.9730  177.6200  140.6330 C   0  0  0  0  0  0  0  0  0  0  0  0
  188.4650  178.6280  139.7970 C   0  0  0  0  0  3  0  0  0  0  0  0
  188.9420  178.7760  138.4930 C   0  0  0  0  0  3  0  0  0  0  0  0
  190.4220  176.8900  138.8210 C   0  0  0  0  0  3  0  0  0  0  0  0
  189.9440  176.7420  140.1270 C   0  0  0  0  0  3  0  0  0  0  0  0
  1 15  1  0  0  0  0
  2 16  1  0  0  0  0
  4 13  1  0  0  0  0
  6  2  1  0  0  0  0
  6 18  2  0  0  0  0
  7  9  1  0  0  0  0
  8 17  1  0  0  0  0
  8 10  2  0  0  0  0
 11  7  2  0  0  0  0
 12  1  1  0  0  0  0
 12  2  2  0  0  0  0
 13  9  2  0  0  0  0
 13  5  1  0  0  0  0
 14 11  1  0  0  0  0
 14  4  2  0  0  0  0
 15 21  2  0  0  0  0
 16  3  2  0  0  0  0
 16 11  1  0  0  0  0
 18 14  1  0  0  0  0
 19  8  1  0  0  0  0
 20 15  1  0  0  0  0
 20 19  2  0  0  0  0
 21  3  1  0  0  0  0
 21 17  1  0  0  0  0
 22 25  2  0  0  0  0
 22 26  1  0  0  0  0
 23 12  1  0  0  0  0
 24 23  2  0  0  0  0
 25 24  1  0  0  0  0
 26 27  2  0  0  0  0
 27 23  1  0  0  0  0
M  END
>  <MODEL>
6

>  <REMARK>
 VINA RESULT:     -10.5      3.149      6.894
  Name = 
  1 active torsions:
  status: ('A' for Active; 'I' for Inactive)
    1  A    between atoms: C_9  and  C_15
                            x       y       z     vdW  Elec       q    Type
                         _______ _______ _______ _____ _____    ______ ____

>  <TORSDO>
F 1

$$$$
=
 OpenBabel11052413453D

 27 31  0  0  0  0  0  0  0  0999 V2000
  187.7770  178.6410  144.8500 O   0  0  0  0  0  0  0  0  0  0  0  0
  188.8940  177.5090  143.0120 C   0  0  0  0  0  0  0  0  0  0  0  0
  186.6980  178.2380  142.1520 C   0  0  0  0  0  3  0  0  0  0  0  0
  190.0910  177.1270  138.9640 C   0  0  0  0  0  3  0  0  0  0  0  0
  189.6780  177.4560  136.6410 F   0  0  0  0  0  0  0  0  0  0  0  0
  190.1190  176.9260  142.6250 C   0  0  0  0  0  3  0  0  0  0  0  0
  187.6020  178.2470  139.5420 C   0  0  0  0  0  3  0  0  0  0  0  0
  183.6680  178.5510  144.2290 C   0  0  0  0  0  0  0  0  0  0  0  0
  188.0240  178.1300  138.2150 C   0  0  0  0  0  3  0  0  0  0  0  0
  182.4250  178.5250  144.0340 O   0  0  0  0  0  0  0  0  0  0  0  0
  188.4180  177.8110  140.6100 C   0  0  0  0  0  0  0  0  0  0  0  0
  188.7180  177.7400  144.3460 C   0  0  0  0  0  0  0  0  0  0  0  0
  189.2690  177.5710  137.9270 C   0  0  0  0  0  0  0  0  0  0  0  0
  189.6740  177.2450  140.2930 C   0  0  0  0  0  0  0  0  0  0  0  0
  186.4130  178.5860  144.6200 C   0  0  0  0  0  0  0  0  0  0  0  0
  187.9890  177.9040  141.9680 C   0  0  0  0  0  0  0  0  0  0  0  0
  184.5230  178.3520  143.1920 N   0  0  0  0  0  2  0  0  0  0  0  0
  190.5020  176.7860  141.3010 C   0  0  0  0  0  3  0  0  0  0  0  0
  184.1690  178.7930  145.5060 C   0  0  0  0  0  3  0  0  0  0  0  0
  185.5500  178.8170  145.6940 C   0  0  0  0  0  3  0  0  0  0  0  0
  185.8760  178.3540  143.3540 C   0  0  0  0  0  0  0  0  0  0  0  0
  191.3760  176.1660  147.3330 C   0  0  0  0  0  3  0  0  0  0  0  0
  189.6150  177.1570  145.3810 C   0  0  0  0  0  0  0  0  0  0  0  0
  189.1790  176.9640  146.7020 C   0  0  0  0  0  3  0  0  0  0  0  0
  190.0530  176.4640  147.6720 C   0  0  0  0  0  3  0  0  0  0  0  0
  191.8250  176.3750  146.0260 C   0  0  0  0  0  3  0  0  0  0  0  0
  190.9500  176.8740  145.0570 C   0  0  0  0  0  3  0  0  0  0  0  0
  2 12  2  0  0  0  0
  3 21  1  0  0  0  0
  4 14  1  0  0  0  0
  5 13  1  0  0  0  0
  6  2  1  0  0  0  0
  7 11  1  0  0  0  0
  8 19  1  0  0  0  0
  9  7  2  0  0  0  0
 10  8  2  0  0  0  0
 11 16  1  0  0  0  0
 12  1  1  0  0  0  0
 12 23  1  0  0  0  0
 13  9  1  0  0  0  0
 13  4  2  0  0  0  0
 14 11  2  0  0  0  0
 14 18  1  0  0  0  0
 15  1  1  0  0  0  0
 15 20  1  0  0  0  0
 16  3  2  0  0  0  0
 16  2  1  0  0  0  0
 17 21  1  0  0  0  0
 17  8  1  0  0  0  0
 18  6  2  0  0  0  0
 19 20  2  0  0  0  0
 21 15  2  0  0  0  0
 22 25  1  0  0  0  0
 23 24  1  0  0  0  0
 24 25  2  0  0  0  0
 26 22  2  0  0  0  0
 27 23  2  0  0  0  0
 27 26  1  0  0  0  0
M  END
>  <MODEL>
7

>  <REMARK>
 VINA RESULT:     -10.4      3.023      5.690
  Name = 
  1 active torsions:
  status: ('A' for Active; 'I' for Inactive)
    1  A    between atoms: C_9  and  C_15
                            x       y       z     vdW  Elec       q    Type
                         _______ _______ _______ _____ _____    ______ ____

>  <TORSDO>
F 1

$$$$
=
 OpenBabel11052413453D

 27 31  0  0  0  0  0  0  0  0999 V2000
  185.9910  179.1360  144.5020 O   0  0  0  0  0  0  0  0  0  0  0  0
  187.7550  177.9310  143.3420 C   0  0  0  0  0  0  0  0  0  0  0  0
  186.0010  178.3870  141.6650 C   0  0  0  0  0  3  0  0  0  0  0  0
  190.3760  177.2660  140.0780 C   0  0  0  0  0  3  0  0  0  0  0  0
  190.8350  177.3340  137.7420 F   0  0  0  0  0  0  0  0  0  0  0  0
  189.0600  177.4200  143.4970 C   0  0  0  0  0  3  0  0  0  0  0  0
  187.8030  178.2210  139.5780 C   0  0  0  0  0  3  0  0  0  0  0  0
  182.4090  178.6400  142.4520 C   0  0  0  0  0  0  0  0  0  0  0  0
  188.6890  178.0140  138.5180 C   0  0  0  0  0  3  0  0  0  0  0  0
  181.3280  178.4910  141.8250 O   0  0  0  0  0  0  0  0  0  0  0  0
  188.1860  177.9610  140.9120 C   0  0  0  0  0  0  0  0  0  0  0  0
  187.0900  178.2740  144.4840 C   0  0  0  0  0  0  0  0  0  0  0  0
  189.9760  177.5370  138.7690 C   0  0  0  0  0  0  0  0  0  0  0  0
  189.4940  177.4760  141.1420 C   0  0  0  0  0  0  0  0  0  0  0  0
  184.8120  178.9450  143.8020 C   0  0  0  0  0  0  0  0  0  0  0  0
  187.2830  178.1470  142.0020 C   0  0  0  0  0  0  0  0  0  0  0  0
  183.5940  178.4150  141.8260 N   0  0  0  0  0  2  0  0  0  0  0  0
  189.9110  177.1860  142.4280 C   0  0  0  0  0  3  0  0  0  0  0  0
  182.3920  179.0450  143.7850 C   0  0  0  0  0  3  0  0  0  0  0  0
  183.6040  179.2030  144.4550 C   0  0  0  0  0  3  0  0  0  0  0  0
  184.7900  178.5470  142.4650 C   0  0  0  0  0  0  0  0  0  0  0  0
  188.5650  177.1900  148.3710 C   0  0  0  0  0  3  0  0  0  0  0  0
  187.5660  177.8710  145.8350 C   0  0  0  0  0  0  0  0  0  0  0  0
  186.8860  178.2660  146.9990 C   0  0  0  0  0  3  0  0  0  0  0  0
  187.3790  177.9220  148.2600 C   0  0  0  0  0  3  0  0  0  0  0  0
  189.2600  176.8110  147.2200 C   0  0  0  0  0  3  0  0  0  0  0  0
  188.7660  177.1550  145.9590 C   0  0  0  0  0  3  0  0  0  0  0  0
  2  6  1  0  0  0  0
  2 12  2  0  0  0  0
  3 16  2  0  0  0  0
  3 21  1  0  0  0  0
  4 14  1  0  0  0  0
  5 13  1  0  0  0  0
  7 11  1  0  0  0  0
  8 19  1  0  0  0  0
  9 13  1  0  0  0  0
  9  7  2  0  0  0  0
 10  8  2  0  0  0  0
 11 14  2  0  0  0  0
 11 16  1  0  0  0  0
 12  1  1  0  0  0  0
 12 23  1  0  0  0  0
 13  4  2  0  0  0  0
 14 18  1  0  0  0  0
 15 20  1  0  0  0  0
 15  1  1  0  0  0  0
 16  2  1  0  0  0  0
 17  8  1  0  0  0  0
 17 21  1  0  0  0  0
 18  6  2  0  0  0  0
 19 20  2  0  0  0  0
 21 15  2  0  0  0  0
 23 27  2  0  0  0  0
 23 24  1  0  0  0  0
 24 25  2  0  0  0  0
 25 22  1  0  0  0  0
 26 22  2  0  0  0  0
 27 26  1  0  0  0  0
M  END
>  <MODEL>
8

>  <REMARK>
 VINA RESULT:     -10.2      3.163      5.781
  Name = 
  1 active torsions:
  status: ('A' for Active; 'I' for Inactive)
    1  A    between atoms: C_9  and  C_15
                            x       y       z     vdW  Elec       q    Type
                         _______ _______ _______ _____ _____    ______ ____

>  <TORSDO>
F 1

$$$$
=
 OpenBabel11052413453D

 27 31  0  0  0  0  0  0  0  0999 V2000
  188.3730  176.8750  139.8680 O   0  0  0  0  0  0  0  0  0  0  0  0
  189.3660  177.3530  142.0350 C   0  0  0  0  0  0  0  0  0  0  0  0
  187.0210  178.1170  142.1570 C   0  0  0  0  0  3  0  0  0  0  0  0
  189.3620  177.4170  146.2730 C   0  0  0  0  0  3  0  0  0  0  0  0
  188.2010  177.6410  148.3410 F   0  0  0  0  0  0  0  0  0  0  0  0
  190.5310  177.1640  142.8060 C   0  0  0  0  0  3  0  0  0  0  0  0
  186.9720  177.8760  144.9080 C   0  0  0  0  0  3  0  0  0  0  0  0
  185.1090  179.3780  139.2680 C   0  0  0  0  0  0  0  0  0  0  0  0
  186.9890  177.8720  146.3050 C   0  0  0  0  0  3  0  0  0  0  0  0
  184.1180  180.1340  139.0940 O   0  0  0  0  0  0  0  0  0  0  0  0
  188.1490  177.6430  144.1630 C   0  0  0  0  0  0  0  0  0  0  0  0
  189.4730  177.1210  140.6940 C   0  0  0  0  0  0  0  0  0  0  0  0
  188.1840  177.6420  146.9870 C   0  0  0  0  0  0  0  0  0  0  0  0
  189.3480  177.4150  144.8760 C   0  0  0  0  0  0  0  0  0  0  0  0
  187.2970  177.7290  139.6940 C   0  0  0  0  0  0  0  0  0  0  0  0
  188.1500  177.6660  142.7350 C   0  0  0  0  0  0  0  0  0  0  0  0
  185.5860  179.1610  140.5220 N   0  0  0  0  0  2  0  0  0  0  0  0
  190.5320  177.2020  144.1920 C   0  0  0  0  0  3  0  0  0  0  0  0
  185.7110  178.7540  138.1780 C   0  0  0  0  0  3  0  0  0  0  0  0
  186.8060  177.9210  138.4000 C   0  0  0  0  0  3  0  0  0  0  0  0
  186.6640  178.3650  140.7620 C   0  0  0  0  0  0  0  0  0  0  0  0
  193.2300  176.7520  138.6430 C   0  0  0  0  0  3  0  0  0  0  0  0
  190.7880  176.9650  140.0150 C   0  0  0  0  0  0  0  0  0  0  0  0
  191.9640  177.5030  140.5640 C   0  0  0  0  0  3  0  0  0  0  0  0
  193.1800  177.3910  139.8850 C   0  0  0  0  0  3  0  0  0  0  0  0
  192.0630  176.2330  138.0780 C   0  0  0  0  0  3  0  0  0  0  0  0
  190.8460  176.3440  138.7580 C   0  0  0  0  0  3  0  0  0  0  0  0
  1 12  1  0  0  0  0
  2 16  1  0  0  0  0
  2  6  1  0  0  0  0
  3 16  2  0  0  0  0
  4 13  1  0  0  0  0
  6 18  2  0  0  0  0
  7  9  1  0  0  0  0
  8 17  1  0  0  0  0
  9 13  2  0  0  0  0
 10  8  2  0  0  0  0
 11 14  1  0  0  0  0
 11  7  2  0  0  0  0
 12  2  2  0  0  0  0
 13  5  1  0  0  0  0
 14  4  2  0  0  0  0
 15  1  1  0  0  0  0
 15 21  2  0  0  0  0
 16 11  1  0  0  0  0
 17 21  1  0  0  0  0
 18 14  1  0  0  0  0
 19 20  2  0  0  0  0
 19  8  1  0  0  0  0
 20 15  1  0  0  0  0
 21  3  1  0  0  0  0
 22 25  1  0  0  0  0
 23 24  1  0  0  0  0
 23 12  1  0  0  0  0
 25 24  2  0  0  0  0
 26 22  2  0  0  0  0
 26 27  1  0  0  0  0
 27 23  2  0  0  0  0
M  END
>  <MODEL>
9

>  <REMARK>
 VINA RESULT:      -9.8      2.742      5.267
  Name = 
  1 active torsions:
  status: ('A' for Active; 'I' for Inactive)
    1  A    between atoms: C_9  and  C_15
                            x       y       z     vdW  Elec       q    Type
                         _______ _______ _______ _____ _____    ______ ____

>  <TORSDO>
F 1

$$$$
