=
 OpenBabel11052416593D

 32 35  0  0  1  0  0  0  0  0999 V2000
  181.5580  179.3950  142.8160 C   0  0  0  0  0  0  0  0  0  0  0  0
  186.3250  177.7880  143.5250 C   0  0  0  0  0  0  0  0  0  0  0  0
  187.2290  178.2020  148.3480 C   0  0  0  0  0  3  0  0  0  0  0  0
  188.4890  177.6340  148.1500 C   0  0  0  0  0  3  0  0  0  0  0  0
  184.1150  178.2730  142.6110 C   0  0  0  0  0  0  0  0  0  0  0  0
  184.4780  178.5340  145.0850 C   0  0  0  0  0  2  0  0  0  0  0  0
  182.3630  179.2820  143.9550 C   0  0  0  0  0  3  0  0  0  0  0  0
  186.4170  178.5020  147.2530 C   0  0  0  0  0  3  0  0  0  0  0  0
  185.9810  178.6010  144.7610 C   0  0  1  0  0  3  0  0  0  0  0  0
  186.8440  178.2190  145.9450 C   0  0  0  0  0  0  0  0  0  0  0  0
  188.6800  177.4330  144.3690 C   0  0  1  0  0  3  0  0  0  0  0  0
  182.0240  178.9270  141.5810 C   0  0  0  0  0  3  0  0  0  0  0  0
  183.6460  178.7360  143.8530 C   0  0  0  0  0  0  0  0  0  0  0  0
  183.3010  178.3670  141.4780 C   0  0  0  0  0  3  0  0  0  0  0  0
  188.9400  177.3730  146.8550 C   0  0  0  0  0  3  0  0  0  0  0  0
  188.1310  177.6660  145.7510 C   0  0  0  0  0  0  0  0  0  0  0  0
  185.4610  177.6910  142.5110 C   0  0  0  0  0  3  0  0  0  0  0  0
  187.6200  177.1990  143.3930 N   0  0  0  0  0  2  0  0  0  0  0  0
  180.1890  179.9650  142.9270 C   0  0  0  0  0  2  0  0  0  0  0  0
  179.5960  180.0820  141.6060 N   0  0  0  0  0  2  0  0  0  0  0  0
  179.2080  181.4190  141.4560 N   0  0  0  0  0  2  0  0  0  0  0  0
  179.2580  181.7120  140.0360 C   0  0  0  0  0  2  0  0  0  0  0  0
  180.5230  181.4020  139.5420 O   0  0  0  0  0  1  0  0  0  0  0  0
  189.6200  178.5500  143.9060 C   0  0  0  0  0  2  0  0  0  0  0  0
  191.0630  178.0830  143.6990 C   0  0  1  0  0  3  0  0  0  0  0  0
  191.7250  177.6890  145.0210 C   0  0  0  0  0  2  0  0  0  0  0  0
  191.7920  176.2040  145.2280 C   0  0  0  0  0  3  0  0  0  0  0  0
  192.1220  175.6910  146.4100 C   0  0  0  0  0  2  0  0  0  0  0  0
  191.1110  177.0030  142.7740 O   0  0  0  0  0  0  0  0  0  0  0  0
  192.1750  177.6290  140.8180 O   0  0  0  0  0  0  0  0  0  0  0  0
  189.9250  176.9030  140.5880 C   0  0  0  0  0  1  0  0  0  0  0  0
  191.1370  177.2040  141.3920 C   0  0  0  0  0  0  0  0  0  0  0  0
  1 19  1  0  0  0  0
  1  7  1  0  0  0  0
  2  9  1  0  0  0  0
  4  3  1  0  0  0  0
  5 13  1  0  0  0  0
  8  3  2  0  0  0  0
  9  6  1  1  0  0  0
  9 10  1  0  0  0  0
 10  8  1  0  0  0  0
 11 24  1  6  0  0  0
 11 16  1  0  0  0  0
 12  1  2  0  0  0  0
 13  7  2  0  0  0  0
 13  6  1  0  0  0  0
 14 12  1  0  0  0  0
 14  5  2  0  0  0  0
 15  4  2  0  0  0  0
 16 10  2  0  0  0  0
 16 15  1  0  0  0  0
 17  5  1  0  0  0  0
 17  2  2  0  0  0  0
 18  2  1  0  0  0  0
 18 11  1  0  0  0  0
 20 19  1  0  0  0  0
 21 20  1  0  0  0  0
 22 21  1  0  0  0  0
 23 22  1  0  0  0  0
 25 24  1  1  0  0  0
 25 26  1  0  0  0  0
 26 27  1  0  0  0  0
 27 28  2  0  0  0  0
 29 25  1  0  0  0  0
 30 32  2  0  0  0  0
 31 32  1  0  0  0  0
 32 29  1  0  0  0  0
M  END
>  <MODEL>
1

>  <REMARK>
 VINA RESULT:      -8.6      0.000      0.000
  Name = 
  10 active torsions:
  status: ('A' for Active; 'I' for Inactive)
    1  A    between atoms: N_1  and  N_10
    2  A    between atoms: N_1  and  C_17
    3  A    between atoms: C_2  and  C_24
    4  A    between atoms: C_6  and  C_7
    5  A    between atoms: C_7  and  C_32
    6  A    between atoms: N_10  and  C_24
    7  A    between atoms: C_16  and  C_27
    8  A    between atoms: O_22  and  C_30
    9  A    between atoms: O_22  and  C_32
   10  A    between atoms: C_27  and  C_32
                            x       y       z     vdW  Elec       q    Type
                         _______ _______ _______ _____ _____    ______ ____

>  <TORSDO>
F 10

$$$$
=
 OpenBabel11052416593D

 32 35  0  0  1  0  0  0  0  0999 V2000
  189.6250  177.5380  137.1080 C   0  0  0  0  0  0  0  0  0  0  0  0
  189.3100  176.8830  142.1350 C   0  0  0  0  0  0  0  0  0  0  0  0
  184.9200  178.6530  143.4960 C   0  0  0  0  0  3  0  0  0  0  0  0
  185.1730  178.2430  144.8060 C   0  0  0  0  0  3  0  0  0  0  0  0
  189.9560  176.7880  139.7840 C   0  0  0  0  0  0  0  0  0  0  0  0
  187.7000  177.7270  140.3750 C   0  0  0  0  0  2  0  0  0  0  0  0
  188.6300  177.8410  138.0450 C   0  0  0  0  0  3  0  0  0  0  0  0
  185.9150  178.5390  142.5230 C   0  0  0  0  0  3  0  0  0  0  0  0
  188.2610  177.9280  141.7940 C   0  0  1  0  0  3  0  0  0  0  0  0
  187.1700  177.9940  142.8420 C   0  0  0  0  0  0  0  0  0  0  0  0
  188.7840  177.1060  144.5970 C   0  0  1  0  0  3  0  0  0  0  0  0
  190.7730  176.8420  137.5050 C   0  0  0  0  0  3  0  0  0  0  0  0
  188.8000  177.4810  139.3850 C   0  0  0  0  0  0  0  0  0  0  0  0
  190.9390  176.4670  138.8430 C   0  0  0  0  0  3  0  0  0  0  0  0
  186.4250  177.7270  145.1460 C   0  0  0  0  0  3  0  0  0  0  0  0
  187.4270  177.6030  144.1770 C   0  0  0  0  0  0  0  0  0  0  0  0
  190.1260  176.4030  141.1930 C   0  0  0  0  0  3  0  0  0  0  0  0
  189.5000  176.4760  143.4910 N   0  0  0  0  0  2  0  0  0  0  0  0
  189.4390  177.9110  135.6800 C   0  0  0  0  0  2  0  0  0  0  0  0
  189.0930  176.7320  134.9040 N   0  0  0  0  0  2  0  0  0  0  0  0
  187.6950  176.6780  134.8560 N   0  0  0  0  0  2  0  0  0  0  0  0
  187.3230  175.2940  135.0850 C   0  0  0  0  0  2  0  0  0  0  0  0
  187.0430  175.1070  136.4370 O   0  0  0  0  0  1  0  0  0  0  0  0
  189.6370  178.1910  145.2600 C   0  0  0  0  0  2  0  0  0  0  0  0
  190.2620  177.7460  146.5850 C   0  0  1  0  0  3  0  0  0  0  0  0
  189.4720  176.6050  147.2290 C   0  0  0  0  0  2  0  0  0  0  0  0
  188.3340  177.0830  148.0820 C   0  0  0  0  0  3  0  0  0  0  0  0
  188.4240  178.2170  148.7730 C   0  0  0  0  0  2  0  0  0  0  0  0
  191.6200  177.3670  146.3950 O   0  0  0  0  0  0  0  0  0  0  0  0
  192.0820  175.2130  145.6890 O   0  0  0  0  0  0  0  0  0  0  0  0
  192.5490  175.6790  147.9710 C   0  0  0  0  0  1  0  0  0  0  0  0
  192.0700  176.0640  146.6190 C   0  0  0  0  0  0  0  0  0  0  0  0
  1 12  2  0  0  0  0
  1  7  1  0  0  0  0
  2 18  1  0  0  0  0
  3  4  1  0  0  0  0
  4 15  2  0  0  0  0
  5 17  1  0  0  0  0
  7 13  2  0  0  0  0
  8 10  1  0  0  0  0
  8  3  2  0  0  0  0
  9  6  1  6  0  0  0
  9  2  1  0  0  0  0
  9 10  1  0  0  0  0
 10 16  2  0  0  0  0
 11 24  1  6  0  0  0
 12 14  1  0  0  0  0
 13  5  1  0  0  0  0
 13  6  1  0  0  0  0
 14  5  2  0  0  0  0
 16 11  1  0  0  0  0
 16 15  1  0  0  0  0
 17  2  2  0  0  0  0
 18 11  1  0  0  0  0
 19  1  1  0  0  0  0
 20 19  1  0  0  0  0
 21 20  1  0  0  0  0
 21 22  1  0  0  0  0
 22 23  1  0  0  0  0
 25 24  1  6  0  0  0
 25 26  1  0  0  0  0
 26 27  1  0  0  0  0
 27 28  2  0  0  0  0
 29 25  1  0  0  0  0
 29 32  1  0  0  0  0
 30 32  2  0  0  0  0
 32 31  1  0  0  0  0
M  END
>  <MODEL>
2

>  <REMARK>
 VINA RESULT:      -8.0      4.097      6.789
  Name = 
  10 active torsions:
  status: ('A' for Active; 'I' for Inactive)
    1  A    between atoms: N_1  and  N_10
    2  A    between atoms: N_1  and  C_17
    3  A    between atoms: C_2  and  C_24
    4  A    between atoms: C_6  and  C_7
    5  A    between atoms: C_7  and  C_32
    6  A    between atoms: N_10  and  C_24
    7  A    between atoms: C_16  and  C_27
    8  A    between atoms: O_22  and  C_30
    9  A    between atoms: O_22  and  C_32
   10  A    between atoms: C_27  and  C_32
                            x       y       z     vdW  Elec       q    Type
                         _______ _______ _______ _____ _____    ______ ____

>  <TORSDO>
F 10

$$$$
=
 OpenBabel11052416593D

 32 35  0  0  1  0  0  0  0  0999 V2000
  189.1810  178.2450  138.1280 C   0  0  0  0  0  0  0  0  0  0  0  0
  188.1310  177.0660  142.9560 C   0  0  0  0  0  0  0  0  0  0  0  0
  183.9690  179.4410  144.0940 C   0  0  0  0  0  3  0  0  0  0  0  0
  183.9820  178.8390  145.3530 C   0  0  0  0  0  3  0  0  0  0  0  0
  189.0410  177.1330  140.6930 C   0  0  0  0  0  0  0  0  0  0  0  0
  186.9210  178.3960  141.1750 C   0  0  0  0  0  2  0  0  0  0  0  0
  188.1430  178.6130  138.9910 C   0  0  0  0  0  3  0  0  0  0  0  0
  185.0440  179.2610  143.2210 C   0  0  0  0  0  3  0  0  0  0  0  0
  187.3260  178.3190  142.6580 C   0  0  1  0  0  3  0  0  0  0  0  0
  186.1380  178.4600  143.5870 C   0  0  0  0  0  0  0  0  0  0  0  0
  187.3450  177.0880  145.3570 C   0  0  1  0  0  3  0  0  0  0  0  0
  190.1350  177.3070  138.5400 C   0  0  0  0  0  3  0  0  0  0  0  0
  188.0790  178.0710  140.2780 C   0  0  0  0  0  0  0  0  0  0  0  0
  190.0660  176.7510  139.8210 C   0  0  0  0  0  3  0  0  0  0  0  0
  185.0750  178.0630  145.7440 C   0  0  0  0  0  3  0  0  0  0  0  0
  186.1560  177.8740  144.8740 C   0  0  0  0  0  0  0  0  0  0  0  0
  188.9650  176.5600  142.0440 C   0  0  0  0  0  3  0  0  0  0  0  0
  188.0770  176.4730  144.2540 N   0  0  0  0  0  2  0  0  0  0  0  0
  189.2410  178.8130  136.7540 C   0  0  0  0  0  2  0  0  0  0  0  0
  189.0610  177.7540  135.7750 N   0  0  0  0  0  2  0  0  0  0  0  0
  187.6830  177.6430  135.5530 N   0  0  0  0  0  2  0  0  0  0  0  0
  187.3930  176.2270  135.4230 C   0  0  0  0  0  2  0  0  0  0  0  0
  187.4860  175.6190  136.6730 O   0  0  0  0  0  1  0  0  0  0  0  0
  188.2800  177.9100  146.2490 C   0  0  0  0  0  2  0  0  0  0  0  0
  189.7420  177.4640  146.1700 C   0  0  1  0  0  3  0  0  0  0  0  0
  190.6210  178.5210  145.4970 C   0  0  0  0  0  2  0  0  0  0  0  0
  191.4310  177.9760  144.3580 C   0  0  0  0  0  3  0  0  0  0  0  0
  191.5080  178.6250  143.1980 C   0  0  0  0  0  2  0  0  0  0  0  0
  190.2410  177.1520  147.4660 O   0  0  0  0  0  0  0  0  0  0  0  0
  192.3210  177.2280  148.4740 O   0  0  0  0  0  0  0  0  0  0  0  0
  191.9800  175.4520  146.9340 C   0  0  0  0  0  1  0  0  0  0  0  0
  191.5330  176.6630  147.6700 C   0  0  0  0  0  0  0  0  0  0  0  0
  1 12  2  0  0  0  0
  1  7  1  0  0  0  0
  2 18  1  0  0  0  0
  3  4  1  0  0  0  0
  4 15  2  0  0  0  0
  5 17  1  0  0  0  0
  7 13  2  0  0  0  0
  8 10  1  0  0  0  0
  8  3  2  0  0  0  0
  9  6  1  6  0  0  0
  9  2  1  0  0  0  0
  9 10  1  0  0  0  0
 10 16  2  0  0  0  0
 11 24  1  6  0  0  0
 12 14  1  0  0  0  0
 13  5  1  0  0  0  0
 13  6  1  0  0  0  0
 14  5  2  0  0  0  0
 16 11  1  0  0  0  0
 16 15  1  0  0  0  0
 17  2  2  0  0  0  0
 18 11  1  0  0  0  0
 19  1  1  0  0  0  0
 20 19  1  0  0  0  0
 21 20  1  0  0  0  0
 22 21  1  0  0  0  0
 22 23  1  0  0  0  0
 25 26  1  1  0  0  0
 25 24  1  0  0  0  0
 25 29  1  0  0  0  0
 27 26  1  0  0  0  0
 28 27  2  0  0  0  0
 29 32  1  0  0  0  0
 31 32  1  0  0  0  0
 32 30  2  0  0  0  0
M  END
>  <MODEL>
3

>  <REMARK>
 VINA RESULT:      -7.9      3.899      6.313
  Name = 
  10 active torsions:
  status: ('A' for Active; 'I' for Inactive)
    1  A    between atoms: N_1  and  N_10
    2  A    between atoms: N_1  and  C_17
    3  A    between atoms: C_2  and  C_24
    4  A    between atoms: C_6  and  C_7
    5  A    between atoms: C_7  and  C_32
    6  A    between atoms: N_10  and  C_24
    7  A    between atoms: C_16  and  C_27
    8  A    between atoms: O_22  and  C_30
    9  A    between atoms: O_22  and  C_32
   10  A    between atoms: C_27  and  C_32
                            x       y       z     vdW  Elec       q    Type
                         _______ _______ _______ _____ _____    ______ ____

>  <TORSDO>
F 10

$$$$
=
 OpenBabel11052416593D

 32 35  0  0  1  0  0  0  0  0999 V2000
  190.7890  176.9010  144.5900 C   0  0  0  0  0  0  0  0  0  0  0  0
  186.9250  178.4790  141.6950 C   0  0  0  0  0  0  0  0  0  0  0  0
  182.9800  178.6900  144.6360 C   0  0  0  0  0  3  0  0  0  0  0  0
  182.2290  179.1970  143.5740 C   0  0  0  0  0  3  0  0  0  0  0  0
  189.1300  177.9270  142.5830 C   0  0  0  0  0  0  0  0  0  0  0  0
  187.1770  177.9890  144.1650 C   0  0  0  0  0  2  0  0  0  0  0  0
  189.4380  177.1470  144.8600 C   0  0  0  0  0  3  0  0  0  0  0  0
  184.2930  178.2650  144.4230 C   0  0  0  0  0  3  0  0  0  0  0  0
  186.2850  177.8450  142.9180 C   0  0  1  0  0  3  0  0  0  0  0  0
  184.8810  178.3620  143.1510 C   0  0  0  0  0  0  0  0  0  0  0  0
  184.6500  178.8890  140.6730 C   0  0  1  0  0  3  0  0  0  0  0  0
  191.3130  177.1890  143.3240 C   0  0  0  0  0  3  0  0  0  0  0  0
  188.6040  177.6450  143.8560 C   0  0  0  0  0  0  0  0  0  0  0  0
  190.4840  177.7010  142.3200 C   0  0  0  0  0  3  0  0  0  0  0  0
  182.7880  179.2730  142.2970 C   0  0  0  0  0  3  0  0  0  0  0  0
  184.1060  178.8550  142.0750 C   0  0  0  0  0  0  0  0  0  0  0  0
  188.2500  178.4590  141.5320 C   0  0  0  0  0  3  0  0  0  0  0  0
  186.1040  179.0140  140.6560 N   0  0  0  0  0  2  0  0  0  0  0  0
  191.6790  176.3830  145.6630 C   0  0  0  0  0  2  0  0  0  0  0  0
  190.9680  176.3710  146.9300 N   0  0  0  0  0  2  0  0  0  0  0  0
  191.8100  176.9790  147.8690 N   0  0  0  0  0  2  0  0  0  0  0  0
  192.7420  175.9610  148.3160 C   0  0  0  0  0  2  0  0  0  0  0  0
  193.5910  176.5000  149.2800 O   0  0  0  0  0  1  0  0  0  0  0  0
  184.1890  177.6980  139.8270 C   0  0  0  0  0  2  0  0  0  0  0  0
  183.8650  178.0730  138.3780 C   0  0  1  0  0  3  0  0  0  0  0  0
  184.5840  177.1590  137.3820 C   0  0  0  0  0  2  0  0  0  0  0  0
  186.0780  177.2170  137.5000 C   0  0  0  0  0  3  0  0  0  0  0  0
  186.7560  178.2920  137.1060 C   0  0  0  0  0  2  0  0  0  0  0  0
  182.4600  178.0460  138.1560 O   0  0  0  0  0  0  0  0  0  0  0  0
  180.5770  178.6160  139.3720 O   0  0  0  0  0  0  0  0  0  0  0  0
  181.8890  180.4310  138.5810 C   0  0  0  0  0  1  0  0  0  0  0  0
  181.5960  178.9820  138.7280 C   0  0  0  0  0  0  0  0  0  0  0  0
  1  7  1  0  0  0  0
  1 19  1  0  0  0  0
  2  9  1  0  0  0  0
  4  3  2  0  0  0  0
  5 13  1  0  0  0  0
  8  3  1  0  0  0  0
  9 10  1  0  0  0  0
  9  6  1  1  0  0  0
 10  8  2  0  0  0  0
 11 24  1  1  0  0  0
 11 16  1  0  0  0  0
 12  1  2  0  0  0  0
 13  6  1  0  0  0  0
 13  7  2  0  0  0  0
 14  5  2  0  0  0  0
 14 12  1  0  0  0  0
 15  4  1  0  0  0  0
 16 15  2  0  0  0  0
 16 10  1  0  0  0  0
 17  2  2  0  0  0  0
 17  5  1  0  0  0  0
 18 11  1  0  0  0  0
 18  2  1  0  0  0  0
 19 20  1  0  0  0  0
 20 21  1  0  0  0  0
 21 22  1  0  0  0  0
 22 23  1  0  0  0  0
 25 26  1  6  0  0  0
 25 24  1  0  0  0  0
 26 27  1  0  0  0  0
 28 27  2  0  0  0  0
 29 25  1  0  0  0  0
 29 32  1  0  0  0  0
 31 32  1  0  0  0  0
 32 30  2  0  0  0  0
M  END
>  <MODEL>
4

>  <REMARK>
 VINA RESULT:      -7.7      3.212      9.040
  Name = 
  10 active torsions:
  status: ('A' for Active; 'I' for Inactive)
    1  A    between atoms: N_1  and  N_10
    2  A    between atoms: N_1  and  C_17
    3  A    between atoms: C_2  and  C_24
    4  A    between atoms: C_6  and  C_7
    5  A    between atoms: C_7  and  C_32
    6  A    between atoms: N_10  and  C_24
    7  A    between atoms: C_16  and  C_27
    8  A    between atoms: O_22  and  C_30
    9  A    between atoms: O_22  and  C_32
   10  A    between atoms: C_27  and  C_32
                            x       y       z     vdW  Elec       q    Type
                         _______ _______ _______ _____ _____    ______ ____

>  <TORSDO>
F 10

$$$$
=
 OpenBabel11052416593D

 32 35  0  0  1  0  0  0  0  0999 V2000
  188.4110  177.4460  145.6250 C   0  0  0  0  0  0  0  0  0  0  0  0
  190.8650  177.3060  141.1800 C   0  0  0  0  0  0  0  0  0  0  0  0
  187.4790  178.1170  137.6960 C   0  0  0  0  0  3  0  0  0  0  0  0
  188.4840  178.0850  136.7270 C   0  0  0  0  0  3  0  0  0  0  0  0
  190.2870  177.4160  143.5480 C   0  0  0  0  0  0  0  0  0  0  0  0
  188.4810  177.8270  141.8480 C   0  0  0  0  0  2  0  0  0  0  0  0
  187.9870  177.6030  144.3000 C   0  0  0  0  0  3  0  0  0  0  0  0
  187.7800  177.8140  139.0250 C   0  0  0  0  0  3  0  0  0  0  0  0
  189.3970  177.1090  140.8410 C   0  0  1  0  0  3  0  0  0  0  0  0
  189.0930  177.4940  139.4080 C   0  0  0  0  0  0  0  0  0  0  0  0
  191.5030  177.0070  138.7530 C   0  0  1  0  0  3  0  0  0  0  0  0
  189.7730  177.2960  145.9110 C   0  0  0  0  0  3  0  0  0  0  0  0
  188.9190  177.5740  143.2600 C   0  0  0  0  0  0  0  0  0  0  0  0
  190.7110  177.2800  144.8730 C   0  0  0  0  0  3  0  0  0  0  0  0
  189.7890  177.7410  137.0860 C   0  0  0  0  0  3  0  0  0  0  0  0
  190.1010  177.4400  138.4170 C   0  0  0  0  0  0  0  0  0  0  0  0
  191.2650  177.3940  142.4510 C   0  0  0  0  0  3  0  0  0  0  0  0
  191.8450  177.3000  140.1410 N   0  0  0  0  0  2  0  0  0  0  0  0
  187.4190  177.4900  146.7330 C   0  0  0  0  0  2  0  0  0  0  0  0
  186.6450  178.7180  146.6530 N   0  0  0  0  0  2  0  0  0  0  0  0
  185.2970  178.3430  146.6320 N   0  0  0  0  0  2  0  0  0  0  0  0
  184.7440  178.8390  145.3860 C   0  0  0  0  0  2  0  0  0  0  0  0
  183.3930  179.1320  145.5620 O   0  0  0  0  0  1  0  0  0  0  0  0
  191.7690  175.5370  138.4160 C   0  0  0  0  0  2  0  0  0  0  0  0
  193.0760  175.3170  137.6520 C   0  0  1  0  0  3  0  0  0  0  0  0
  193.1800  176.2340  136.4300 C   0  0  0  0  0  2  0  0  0  0  0  0
  192.8810  175.5320  135.1380 C   0  0  0  0  0  3  0  0  0  0  0  0
  193.0790  174.2230  135.0070 C   0  0  0  0  0  2  0  0  0  0  0  0
  194.1950  175.5010  138.5100 O   0  0  0  0  0  0  0  0  0  0  0  0
  196.3620  174.9020  139.0580 O   0  0  0  0  0  0  0  0  0  0  0  0
  195.0250  173.1900  138.0960 C   0  0  0  0  0  1  0  0  0  0  0  0
  195.2410  174.5770  138.5810 C   0  0  0  0  0  0  0  0  0  0  0  0
  1 12  1  0  0  0  0
  1 19  1  0  0  0  0
  2 17  2  0  0  0  0
  3  8  1  0  0  0  0
  4 15  1  0  0  0  0
  4  3  2  0  0  0  0
  5 14  1  0  0  0  0
  6 13  1  0  0  0  0
  7  1  2  0  0  0  0
  8 10  2  0  0  0  0
  9  2  1  0  0  0  0
  9  6  1  1  0  0  0
 10  9  1  0  0  0  0
 11 24  1  1  0  0  0
 11 18  1  0  0  0  0
 13  5  2  0  0  0  0
 13  7  1  0  0  0  0
 14 12  2  0  0  0  0
 15 16  2  0  0  0  0
 16 11  1  0  0  0  0
 16 10  1  0  0  0  0
 17  5  1  0  0  0  0
 18  2  1  0  0  0  0
 20 19  1  0  0  0  0
 21 20  1  0  0  0  0
 22 23  1  0  0  0  0
 22 21  1  0  0  0  0
 25 26  1  6  0  0  0
 25 24  1  0  0  0  0
 25 29  1  0  0  0  0
 27 26  1  0  0  0  0
 28 27  2  0  0  0  0
 29 32  1  0  0  0  0
 31 32  1  0  0  0  0
 32 30  2  0  0  0  0
M  END
>  <MODEL>
5

>  <REMARK>
 VINA RESULT:      -7.7      3.771      7.695
  Name = 
  10 active torsions:
  status: ('A' for Active; 'I' for Inactive)
    1  A    between atoms: N_1  and  N_10
    2  A    between atoms: N_1  and  C_17
    3  A    between atoms: C_2  and  C_24
    4  A    between atoms: C_6  and  C_7
    5  A    between atoms: C_7  and  C_32
    6  A    between atoms: N_10  and  C_24
    7  A    between atoms: C_16  and  C_27
    8  A    between atoms: O_22  and  C_30
    9  A    between atoms: O_22  and  C_32
   10  A    between atoms: C_27  and  C_32
                            x       y       z     vdW  Elec       q    Type
                         _______ _______ _______ _____ _____    ______ ____

>  <TORSDO>
F 10

$$$$
=
 OpenBabel11052416593D

 32 35  0  0  1  0  0  0  0  0999 V2000
  187.5930  177.4440  144.7110 C   0  0  0  0  0  0  0  0  0  0  0  0
  184.8390  178.9660  140.7230 C   0  0  0  0  0  0  0  0  0  0  0  0
  180.1900  179.3430  142.3050 C   0  0  0  0  0  3  0  0  0  0  0  0
  179.8130  179.8210  141.0490 C   0  0  0  0  0  3  0  0  0  0  0  0
  186.6520  178.4180  142.2600 C   0  0  0  0  0  0  0  0  0  0  0  0
  184.3120  178.5670  143.1650 C   0  0  0  0  0  2  0  0  0  0  0  0
  186.2300  177.7190  144.5460 C   0  0  0  0  0  3  0  0  0  0  0  0
  181.4940  178.8930  142.5190 C   0  0  0  0  0  3  0  0  0  0  0  0
  183.8400  178.3880  141.7110 C   0  0  1  0  0  3  0  0  0  0  0  0
  182.4450  178.9330  141.4860 C   0  0  0  0  0  0  0  0  0  0  0  0
  182.9970  179.3700  139.0410 C   0  0  1  0  0  3  0  0  0  0  0  0
  188.4860  177.6770  143.6580 C   0  0  0  0  0  3  0  0  0  0  0  0
  185.7550  178.1900  143.3190 C   0  0  0  0  0  0  0  0  0  0  0  0
  188.0170  178.1630  142.4330 C   0  0  0  0  0  3  0  0  0  0  0  0
  180.7370  179.8410  140.0040 C   0  0  0  0  0  3  0  0  0  0  0  0
  182.0490  179.3960  140.2100 C   0  0  0  0  0  0  0  0  0  0  0  0
  186.1500  178.9220  140.9740 C   0  0  0  0  0  3  0  0  0  0  0  0
  184.3890  179.4740  139.4660 N   0  0  0  0  0  2  0  0  0  0  0  0
  188.0990  176.9540  146.0210 C   0  0  0  0  0  2  0  0  0  0  0  0
  189.5300  177.1880  146.1140 N   0  0  0  0  0  2  0  0  0  0  0  0
  189.9370  176.6980  147.3610 N   0  0  0  0  0  2  0  0  0  0  0  0
  191.3460  176.3700  147.2410 C   0  0  0  0  0  2  0  0  0  0  0  0
  191.8940  177.0660  146.1650 O   0  0  0  0  0  1  0  0  0  0  0  0
  182.7870  178.1550  138.1320 C   0  0  0  0  0  2  0  0  0  0  0  0
  183.6160  176.9370  138.5460 C   0  0  1  0  0  3  0  0  0  0  0  0
  182.7630  175.8880  139.2640 C   0  0  0  0  0  2  0  0  0  0  0  0
  181.2940  176.0420  139.0020 C   0  0  0  0  0  3  0  0  0  0  0  0
  180.4150  176.0320  140.0010 C   0  0  0  0  0  2  0  0  0  0  0  0
  184.2640  176.3650  137.4160 O   0  0  0  0  0  0  0  0  0  0  0  0
  186.1690  177.6740  137.3250 O   0  0  0  0  0  0  0  0  0  0  0  0
  186.4450  175.3970  136.7060 C   0  0  0  0  0  1  0  0  0  0  0  0
  185.6250  176.5490  137.1630 C   0  0  0  0  0  0  0  0  0  0  0  0
  1 19  1  0  0  0  0
  2 17  2  0  0  0  0
  2  9  1  0  0  0  0
  3  8  1  0  0  0  0
  4  3  2  0  0  0  0
  5 14  2  0  0  0  0
  5 13  1  0  0  0  0
  6 13  1  0  0  0  0
  7  1  1  0  0  0  0
  9  6  1  1  0  0  0
 10  9  1  0  0  0  0
 10  8  2  0  0  0  0
 11 24  1  1  0  0  0
 11 18  1  0  0  0  0
 11 16  1  0  0  0  0
 12  1  2  0  0  0  0
 13  7  2  0  0  0  0
 14 12  1  0  0  0  0
 15 16  2  0  0  0  0
 15  4  1  0  0  0  0
 16 10  1  0  0  0  0
 17  5  1  0  0  0  0
 18  2  1  0  0  0  0
 19 20  1  0  0  0  0
 20 21  1  0  0  0  0
 22 21  1  0  0  0  0
 23 22  1  0  0  0  0
 25 24  1  6  0  0  0
 25 26  1  0  0  0  0
 27 26  1  0  0  0  0
 27 28  2  0  0  0  0
 29 25  1  0  0  0  0
 31 32  1  0  0  0  0
 32 30  2  0  0  0  0
 32 29  1  0  0  0  0
M  END
>  <MODEL>
6

>  <REMARK>
 VINA RESULT:      -7.6      3.179      8.620
  Name = 
  10 active torsions:
  status: ('A' for Active; 'I' for Inactive)
    1  A    between atoms: N_1  and  N_10
    2  A    between atoms: N_1  and  C_17
    3  A    between atoms: C_2  and  C_24
    4  A    between atoms: C_6  and  C_7
    5  A    between atoms: C_7  and  C_32
    6  A    between atoms: N_10  and  C_24
    7  A    between atoms: C_16  and  C_27
    8  A    between atoms: O_22  and  C_30
    9  A    between atoms: O_22  and  C_32
   10  A    between atoms: C_27  and  C_32
                            x       y       z     vdW  Elec       q    Type
                         _______ _______ _______ _____ _____    ______ ____

>  <TORSDO>
F 10

$$$$
=
 OpenBabel11052416593D

 32 35  0  0  1  0  0  0  0  0999 V2000
  190.7790  176.7680  144.1380 C   0  0  0  0  0  0  0  0  0  0  0  0
  186.7190  178.5170  141.6360 C   0  0  0  0  0  0  0  0  0  0  0  0
  183.0370  178.6820  144.9040 C   0  0  0  0  0  3  0  0  0  0  0  0
  182.2110  179.2420  143.9280 C   0  0  0  0  0  3  0  0  0  0  0  0
  188.9790  177.8960  142.3160 C   0  0  0  0  0  0  0  0  0  0  0  0
  187.1660  177.9310  144.0570 C   0  0  0  0  0  2  0  0  0  0  0  0
  189.4600  177.0250  144.5290 C   0  0  0  0  0  3  0  0  0  0  0  0
  184.3190  178.2450  144.5670 C   0  0  0  0  0  3  0  0  0  0  0  0
  186.1710  177.8490  142.8850 C   0  0  1  0  0  3  0  0  0  0  0  0
  184.8010  178.3800  143.2540 C   0  0  0  0  0  0  0  0  0  0  0  0
  184.3760  179.0040  140.8240 C   0  0  1  0  0  3  0  0  0  0  0  0
  191.2020  177.0950  142.8440 C   0  0  0  0  0  3  0  0  0  0  0  0
  188.5550  177.5750  143.6170 C   0  0  0  0  0  0  0  0  0  0  0  0
  190.3030  177.6580  141.9320 C   0  0  0  0  0  3  0  0  0  0  0  0
  182.6640  179.3570  142.6120 C   0  0  0  0  0  3  0  0  0  0  0  0
  183.9490  178.9250  142.2660 C   0  0  0  0  0  0  0  0  0  0  0  0
  188.0260  178.4820  141.3620 C   0  0  0  0  0  3  0  0  0  0  0  0
  185.8260  179.1060  140.6900 N   0  0  0  0  0  2  0  0  0  0  0  0
  191.7450  176.1940  145.1130 C   0  0  0  0  0  2  0  0  0  0  0  0
  191.7080  176.9570  146.3490 N   0  0  0  0  0  2  0  0  0  0  0  0
  191.2810  176.0780  147.3510 N   0  0  0  0  0  2  0  0  0  0  0  0
  192.4770  175.5280  147.9630 C   0  0  0  0  0  2  0  0  0  0  0  0
  193.1300  176.5260  148.6840 O   0  0  0  0  0  1  0  0  0  0  0  0
  183.8230  177.8540  139.9770 C   0  0  0  0  0  2  0  0  0  0  0  0
  182.9350  178.3240  138.8220 C   0  0  1  0  0  3  0  0  0  0  0  0
  182.9110  179.8500  138.7110 C   0  0  0  0  0  2  0  0  0  0  0  0
  181.5290  180.4270  138.7960 C   0  0  0  0  0  3  0  0  0  0  0  0
  180.5890  179.8480  139.5400 C   0  0  0  0  0  2  0  0  0  0  0  0
  183.3600  177.7420  137.5950 O   0  0  0  0  0  0  0  0  0  0  0  0
  182.3150  175.9430  136.5830 O   0  0  0  0  0  0  0  0  0  0  0  0
  181.6560  178.0920  135.8140 C   0  0  0  0  0  1  0  0  0  0  0  0
  182.4600  177.1910  136.6790 C   0  0  0  0  0  0  0  0  0  0  0  0
  1  7  1  0  0  0  0
  1 19  1  0  0  0  0
  2  9  1  0  0  0  0
  4  3  2  0  0  0  0
  5 13  1  0  0  0  0
  8  3  1  0  0  0  0
  9 10  1  0  0  0  0
  9  6  1  1  0  0  0
 10  8  2  0  0  0  0
 11 24  1  6  0  0  0
 11 16  1  0  0  0  0
 12  1  2  0  0  0  0
 13  6  1  0  0  0  0
 13  7  2  0  0  0  0
 14  5  2  0  0  0  0
 14 12  1  0  0  0  0
 15  4  1  0  0  0  0
 16 15  2  0  0  0  0
 16 10  1  0  0  0  0
 17  2  2  0  0  0  0
 17  5  1  0  0  0  0
 18 11  1  0  0  0  0
 18  2  1  0  0  0  0
 19 20  1  0  0  0  0
 20 21  1  0  0  0  0
 21 22  1  0  0  0  0
 22 23  1  0  0  0  0
 25 26  1  6  0  0  0
 25 24  1  0  0  0  0
 26 27  1  0  0  0  0
 27 28  2  0  0  0  0
 29 25  1  0  0  0  0
 30 32  2  0  0  0  0
 31 32  1  0  0  0  0
 32 29  1  0  0  0  0
M  END
>  <MODEL>
7

>  <REMARK>
 VINA RESULT:      -7.6      3.181      9.216
  Name = 
  10 active torsions:
  status: ('A' for Active; 'I' for Inactive)
    1  A    between atoms: N_1  and  N_10
    2  A    between atoms: N_1  and  C_17
    3  A    between atoms: C_2  and  C_24
    4  A    between atoms: C_6  and  C_7
    5  A    between atoms: C_7  and  C_32
    6  A    between atoms: N_10  and  C_24
    7  A    between atoms: C_16  and  C_27
    8  A    between atoms: O_22  and  C_30
    9  A    between atoms: O_22  and  C_32
   10  A    between atoms: C_27  and  C_32
                            x       y       z     vdW  Elec       q    Type
                         _______ _______ _______ _____ _____    ______ ____

>  <TORSDO>
F 10

$$$$
=
 OpenBabel11052416593D

 32 35  0  0  1  0  0  0  0  0999 V2000
  188.5540  177.5020  144.4950 C   0  0  0  0  0  0  0  0  0  0  0  0
  184.8360  178.7200  141.2550 C   0  0  0  0  0  0  0  0  0  0  0  0
  180.7050  179.0020  143.9210 C   0  0  0  0  0  3  0  0  0  0  0  0
  180.0080  179.4020  142.7790 C   0  0  0  0  0  3  0  0  0  0  0  0
  186.9960  178.3170  142.3170 C   0  0  0  0  0  0  0  0  0  0  0  0
  184.9440  178.4230  143.7650 C   0  0  0  0  0  2  0  0  0  0  0  0
  187.1810  177.7170  144.6620 C   0  0  0  0  0  3  0  0  0  0  0  0
  182.0420  178.6110  143.8230 C   0  0  0  0  0  3  0  0  0  0  0  0
  184.1390  178.1550  142.4800 C   0  0  1  0  0  3  0  0  0  0  0  0
  182.7070  178.6360  142.5860 C   0  0  0  0  0  0  0  0  0  0  0  0
  182.6210  178.9710  140.0650 C   0  0  1  0  0  3  0  0  0  0  0  0
  189.1490  177.7150  143.2450 C   0  0  0  0  0  3  0  0  0  0  0  0
  186.3980  178.1090  143.5720 C   0  0  0  0  0  0  0  0  0  0  0  0
  188.3710  178.1220  142.1570 C   0  0  0  0  0  3  0  0  0  0  0  0
  180.6470  179.4050  141.5380 C   0  0  0  0  0  3  0  0  0  0  0  0
  181.9880  179.0200  141.4300 C   0  0  0  0  0  0  0  0  0  0  0  0
  186.1700  178.7380  141.1760 C   0  0  0  0  0  3  0  0  0  0  0  0
  184.0680  179.1480  140.1290 N   0  0  0  0  0  2  0  0  0  0  0  0
  189.3890  177.0960  145.6570 C   0  0  0  0  0  2  0  0  0  0  0  0
  190.7590  177.5360  145.4560 N   0  0  0  0  0  2  0  0  0  0  0  0
  191.5850  176.5150  145.9410 N   0  0  0  0  0  2  0  0  0  0  0  0
  191.2980  176.3830  147.3570 C   0  0  0  0  0  2  0  0  0  0  0  0
  192.4920  176.3890  148.0760 O   0  0  0  0  0  1  0  0  0  0  0  0
  182.2540  177.7060  139.2840 C   0  0  0  0  0  2  0  0  0  0  0  0
  181.1460  177.9310  138.2510 C   0  0  1  0  0  3  0  0  0  0  0  0
  179.8390  177.2500  138.6650 C   0  0  0  0  0  2  0  0  0  0  0  0
  180.0380  176.1450  139.6600 C   0  0  0  0  0  3  0  0  0  0  0  0
  179.3120  176.0860  140.7730 C   0  0  0  0  0  2  0  0  0  0  0  0
  180.9380  179.3210  138.0350 O   0  0  0  0  0  0  0  0  0  0  0  0
  181.2250  179.1910  135.7430 O   0  0  0  0  0  0  0  0  0  0  0  0
  180.6730  181.3380  136.5990 C   0  0  0  0  0  1  0  0  0  0  0  0
  180.9650  179.8900  136.7590 C   0  0  0  0  0  0  0  0  0  0  0  0
  1  7  1  0  0  0  0
  1 19  1  0  0  0  0
  2  9  1  0  0  0  0
  4  3  2  0  0  0  0
  5 13  1  0  0  0  0
  8  3  1  0  0  0  0
  9 10  1  0  0  0  0
  9  6  1  1  0  0  0
 10  8  2  0  0  0  0
 11 24  1  1  0  0  0
 11 18  1  0  0  0  0
 11 16  1  0  0  0  0
 12  1  2  0  0  0  0
 13  6  1  0  0  0  0
 13  7  2  0  0  0  0
 14  5  2  0  0  0  0
 14 12  1  0  0  0  0
 15  4  1  0  0  0  0
 16 15  2  0  0  0  0
 16 10  1  0  0  0  0
 17  2  2  0  0  0  0
 17  5  1  0  0  0  0
 18  2  1  0  0  0  0
 20 19  1  0  0  0  0
 20 21  1  0  0  0  0
 21 22  1  0  0  0  0
 22 23  1  0  0  0  0
 25 26  1  1  0  0  0
 25 24  1  0  0  0  0
 26 27  1  0  0  0  0
 27 28  2  0  0  0  0
 29 25  1  0  0  0  0
 30 32  2  0  0  0  0
 31 32  1  0  0  0  0
 32 29  1  0  0  0  0
M  END
>  <MODEL>
8

>  <REMARK>
 VINA RESULT:      -7.4      2.780      9.467
  Name = 
  10 active torsions:
  status: ('A' for Active; 'I' for Inactive)
    1  A    between atoms: N_1  and  N_10
    2  A    between atoms: N_1  and  C_17
    3  A    between atoms: C_2  and  C_24
    4  A    between atoms: C_6  and  C_7
    5  A    between atoms: C_7  and  C_32
    6  A    between atoms: N_10  and  C_24
    7  A    between atoms: C_16  and  C_27
    8  A    between atoms: O_22  and  C_30
    9  A    between atoms: O_22  and  C_32
   10  A    between atoms: C_27  and  C_32
                            x       y       z     vdW  Elec       q    Type
                         _______ _______ _______ _____ _____    ______ ____

>  <TORSDO>
F 10

$$$$
=
 OpenBabel11052416593D

 32 35  0  0  1  0  0  0  0  0999 V2000
  186.3310  178.3960  146.4260 C   0  0  0  0  0  0  0  0  0  0  0  0
  184.0130  178.6300  141.9120 C   0  0  0  0  0  0  0  0  0  0  0  0
  187.5190  177.9860  138.5130 C   0  0  0  0  0  3  0  0  0  0  0  0
  186.5440  178.0310  137.5150 C   0  0  0  0  0  3  0  0  0  0  0  0
  184.5190  178.4580  144.2920 C   0  0  0  0  0  0  0  0  0  0  0  0
  186.3850  178.1310  142.6390 C   0  0  0  0  0  2  0  0  0  0  0  0
  186.7980  178.2870  145.1110 C   0  0  0  0  0  3  0  0  0  0  0  0
  187.1720  178.2430  139.8410 C   0  0  0  0  0  3  0  0  0  0  0  0
  185.4860  178.8630  141.6250 C   0  0  1  0  0  3  0  0  0  0  0  0
  185.8420  178.5280  140.1920 C   0  0  0  0  0  0  0  0  0  0  0  0
  183.4450  178.9930  139.4760 C   0  0  1  0  0  3  0  0  0  0  0  0
  184.9570  178.5140  146.6730 C   0  0  0  0  0  3  0  0  0  0  0  0
  185.8980  178.3330  144.0430 C   0  0  0  0  0  0  0  0  0  0  0  0
  184.0520  178.5450  145.6070 C   0  0  0  0  0  3  0  0  0  0  0  0
  185.2230  178.3410  137.8430 C   0  0  0  0  0  3  0  0  0  0  0  0
  184.8650  178.5960  139.1720 C   0  0  0  0  0  0  0  0  0  0  0  0
  183.5750  178.4970  143.1660 C   0  0  0  0  0  3  0  0  0  0  0  0
  183.0650  178.6520  140.8440 N   0  0  0  0  0  2  0  0  0  0  0  0
  187.2880  178.3350  147.5630 C   0  0  0  0  0  2  0  0  0  0  0  0
  188.1780  177.1990  147.3960 N   0  0  0  0  0  2  0  0  0  0  0  0
  189.4240  177.5850  147.9060 N   0  0  0  0  0  2  0  0  0  0  0  0
  190.4300  176.9090  147.1090 C   0  0  0  0  0  2  0  0  0  0  0  0
  191.6680  177.0120  147.7380 O   0  0  0  0  0  1  0  0  0  0  0  0
  183.1630  180.4680  139.1760 C   0  0  0  0  0  2  0  0  0  0  0  0
  182.0400  180.6760  138.1570 C   0  0  1  0  0  3  0  0  0  0  0  0
  181.1740  179.4230  138.0040 C   0  0  0  0  0  2  0  0  0  0  0  0
  181.1760  178.8700  136.6100 C   0  0  0  0  0  3  0  0  0  0  0  0
  181.7890  177.7230  136.3270 C   0  0  0  0  0  2  0  0  0  0  0  0
  181.2380  181.7950  138.5170 O   0  0  0  0  0  0  0  0  0  0  0  0
  179.7240  182.4670  136.9020 O   0  0  0  0  0  0  0  0  0  0  0  0
  181.4930  183.9860  137.3620 C   0  0  0  0  0  1  0  0  0  0  0  0
  180.7640  182.7080  137.5720 C   0  0  0  0  0  0  0  0  0  0  0  0
  1 12  1  0  0  0  0
  1 19  1  0  0  0  0
  2 17  2  0  0  0  0
  3  8  1  0  0  0  0
  4 15  1  0  0  0  0
  4  3  2  0  0  0  0
  5 14  1  0  0  0  0
  6 13  1  0  0  0  0
  7  1  2  0  0  0  0
  8 10  2  0  0  0  0
  9  2  1  0  0  0  0
  9  6  1  1  0  0  0
 10  9  1  0  0  0  0
 11 24  1  1  0  0  0
 11 18  1  0  0  0  0
 13  5  2  0  0  0  0
 13  7  1  0  0  0  0
 14 12  2  0  0  0  0
 15 16  2  0  0  0  0
 16 11  1  0  0  0  0
 16 10  1  0  0  0  0
 17  5  1  0  0  0  0
 18  2  1  0  0  0  0
 20 19  1  0  0  0  0
 20 21  1  0  0  0  0
 22 23  1  0  0  0  0
 22 21  1  0  0  0  0
 25 26  1  1  0  0  0
 25 29  1  0  0  0  0
 25 24  1  0  0  0  0
 27 26  1  0  0  0  0
 28 27  2  0  0  0  0
 30 32  2  0  0  0  0
 31 32  1  0  0  0  0
 32 29  1  0  0  0  0
M  END
>  <MODEL>
9

>  <REMARK>
 VINA RESULT:      -7.3      3.040      9.392
  Name = 
  10 active torsions:
  status: ('A' for Active; 'I' for Inactive)
    1  A    between atoms: N_1  and  N_10
    2  A    between atoms: N_1  and  C_17
    3  A    between atoms: C_2  and  C_24
    4  A    between atoms: C_6  and  C_7
    5  A    between atoms: C_7  and  C_32
    6  A    between atoms: N_10  and  C_24
    7  A    between atoms: C_16  and  C_27
    8  A    between atoms: O_22  and  C_30
    9  A    between atoms: O_22  and  C_32
   10  A    between atoms: C_27  and  C_32
                            x       y       z     vdW  Elec       q    Type
                         _______ _______ _______ _____ _____    ______ ____

>  <TORSDO>
F 10

$$$$
