=
 OpenBabel11052413143D

 31 34  0  0  1  0  0  0  0  0999 V2000
  188.3000  177.3330  147.7950 C   0  0  0  0  0  0  0  0  0  0  0  0
  187.1700  177.8670  144.2520 C   0  0  0  0  0  0  0  0  0  0  0  0
  185.7360  178.3130  144.3370 C   0  0  0  0  0  0  0  0  0  0  0  0
  183.7860  179.0610  145.5980 C   0  0  0  0  0  3  0  0  0  0  0  0
  187.9690  177.5540  145.3880 C   0  0  0  0  0  0  0  0  0  0  0  0
  189.6120  176.9050  147.5880 C   0  0  0  0  0  3  0  0  0  0  0  0
  185.1370  178.7090  145.5450 C   0  0  0  0  0  3  0  0  0  0  0  0
  189.0700  177.2610  142.8350 C   0  0  0  0  0  0  0  0  0  0  0  0
  187.8150  177.4400  149.0550 F   0  0  0  0  0  0  0  0  0  0  0  0
  185.5410  177.9600  141.9200 N   0  0  0  0  0  2  0  0  0  0  0  0
  183.0090  179.0180  144.4410 C   0  0  0  0  0  3  0  0  0  0  0  0
  189.8010  176.9810  143.9430 N   0  0  0  0  0  0  0  0  0  0  0  0
  187.7420  177.6960  142.9650 C   0  0  0  0  0  0  0  0  0  0  0  0
  187.4880  177.6530  146.7050 C   0  0  0  0  0  3  0  0  0  0  0  0
  182.8020  178.6030  142.0800 O   0  0  0  0  0  1  0  0  0  0  0  0
  189.2990  177.1110  145.1930 C   0  0  0  0  0  0  0  0  0  0  0  0
  190.1080  176.7930  146.2880 C   0  0  0  0  0  3  0  0  0  0  0  0
  186.9780  178.0740  141.7220 C   0  0  0  0  0  2  0  0  0  0  0  0
  184.9460  178.3070  143.1700 C   0  0  0  0  0  0  0  0  0  0  0  0
  183.5840  178.6370  143.2280 C   0  0  0  0  0  0  0  0  0  0  0  0
  191.9010  177.3480  142.1230 O   0  0  0  0  0  0  0  0  0  0  0  0
  191.0470  177.1590  141.2150 C   0  0  0  0  0  0  0  0  0  0  0  0
  189.6480  177.1140  141.5280 N   0  0  0  0  0  2  0  0  0  0  0  0
  192.7320  177.3290  139.4670 C   0  0  0  0  0  2  0  0  0  0  0  0
  191.4970  176.9790  139.8220 C   0  0  0  0  0  0  0  0  0  0  0  0
  191.0680  175.1890  138.3190 O   0  0  0  0  0  1  0  0  0  0  0  0
  190.5590  176.3940  138.8060 C   0  0  2  0  0  3  0  0  0  0  0  0
  190.2990  177.3510  137.6420 C   0  0  0  0  0  2  0  0  0  0  0  0
  188.9720  178.1020  137.7580 C   0  0  1  0  0  3  0  0  0  0  0  0
  187.8310  177.1660  138.1170 C   0  0  0  0  0  1  0  0  0  0  0  0
  189.0590  179.1340  138.6900 O   0  0  0  0  0  1  0  0  0  0  0  0
  1  9  1  0  0  0  0
  2  3  1  0  0  0  0
  2  5  1  0  0  0  0
  3  7  1  0  0  0  0
  5 14  1  0  0  0  0
  6  1  1  0  0  0  0
  7  4  2  0  0  0  0
  8 13  1  0  0  0  0
  8 12  2  0  0  0  0
 10 19  1  0  0  0  0
 11  4  1  0  0  0  0
 12 16  1  0  0  0  0
 13  2  2  0  0  0  0
 14  1  2  0  0  0  0
 15 20  1  0  0  0  0
 16  5  2  0  0  0  0
 16 17  1  0  0  0  0
 17  6  2  0  0  0  0
 18 10  1  0  0  0  0
 18 13  1  0  0  0  0
 19 20  1  0  0  0  0
 19  3  2  0  0  0  0
 20 11  2  0  0  0  0
 22 23  1  0  0  0  0
 22 21  2  0  0  0  0
 23  8  1  0  0  0  0
 24 25  2  0  0  0  0
 25 22  1  0  0  0  0
 27 26  1  6  0  0  0
 27 25  1  0  0  0  0
 28 29  1  0  0  0  0
 28 27  1  0  0  0  0
 29 30  1  1  0  0  0
 29 31  1  0  0  0  0
M  END
>  <MODEL>
1

>  <REMARK>
 VINA RESULT:     -10.4      0.000      0.000
  Name = 
  5 active torsions:
  status: ('A' for Active; 'I' for Inactive)
    1  A    between atoms: C_1  and  C_24
    2  A    between atoms: C_9  and  C_22
    3  A    between atoms: C_15  and  N_23
    4  A    between atoms: C_19  and  C_22
    5  A    between atoms: C_19  and  C_24
                            x       y       z     vdW  Elec       q    Type
                         _______ _______ _______ _____ _____    ______ ____

>  <TORSDO>
F 5

$$$$
=
 OpenBabel11052413143D

 31 34  0  0  1  0  0  0  0  0999 V2000
  184.2030  178.8750  144.7280 C   0  0  0  0  0  0  0  0  0  0  0  0
  187.7070  177.5940  144.2930 C   0  0  0  0  0  0  0  0  0  0  0  0
  188.2790  177.4710  145.6790 C   0  0  0  0  0  0  0  0  0  0  0  0
  188.0570  177.4920  148.1080 C   0  0  0  0  0  3  0  0  0  0  0  0
  186.3890  178.0540  144.0200 C   0  0  0  0  0  0  0  0  0  0  0  0
  183.7940  178.9700  143.3980 C   0  0  0  0  0  3  0  0  0  0  0  0
  187.4850  177.5510  146.8350 C   0  0  0  0  0  3  0  0  0  0  0  0
  188.0660  177.4040  141.8800 C   0  0  0  0  0  0  0  0  0  0  0  0
  183.3520  179.2210  145.7240 F   0  0  0  0  0  0  0  0  0  0  0  0
  190.4940  177.1620  144.6780 N   0  0  0  0  0  2  0  0  0  0  0  0
  189.4380  177.3560  148.2450 C   0  0  0  0  0  3  0  0  0  0  0  0
  186.7990  177.8390  141.6620 N   0  0  0  0  0  0  0  0  0  0  0  0
  188.5490  177.2840  143.1930 C   0  0  0  0  0  0  0  0  0  0  0  0
  185.4880  178.4230  145.0340 C   0  0  0  0  0  3  0  0  0  0  0  0
  191.6210  177.1230  147.2600 O   0  0  0  0  0  1  0  0  0  0  0  0
  185.9620  178.1640  142.6750 C   0  0  0  0  0  0  0  0  0  0  0  0
  184.6730  178.6160  142.3740 C   0  0  0  0  0  3  0  0  0  0  0  0
  189.9310  176.7250  143.4080 C   0  0  0  0  0  2  0  0  0  0  0  0
  189.6700  177.2990  145.8340 C   0  0  0  0  0  0  0  0  0  0  0  0
  190.2460  177.2640  147.1120 C   0  0  0  0  0  0  0  0  0  0  0  0
  188.6090  179.0060  139.4990 O   0  0  0  0  0  0  0  0  0  0  0  0
  189.1640  177.8800  139.6190 C   0  0  0  0  0  0  0  0  0  0  0  0
  188.9170  177.0650  140.7740 N   0  0  0  0  0  2  0  0  0  0  0  0
  189.8060  177.6550  137.2830 C   0  0  0  0  0  2  0  0  0  0  0  0
  190.0760  177.4040  138.5620 C   0  0  0  0  0  0  0  0  0  0  0  0
  192.0220  177.3250  139.9240 O   0  0  0  0  0  1  0  0  0  0  0  0
  191.3140  176.6410  138.9350 C   0  0  2  0  0  3  0  0  0  0  0  0
  192.2230  176.3910  137.7300 C   0  0  0  0  0  2  0  0  0  0  0  0
  192.2610  174.9270  137.2920 C   0  0  1  0  0  3  0  0  0  0  0  0
  193.5790  174.2690  137.6610 C   0  0  0  0  0  1  0  0  0  0  0  0
  191.1960  174.2110  137.8370 O   0  0  0  0  0  1  0  0  0  0  0  0
  1 14  1  0  0  0  0
  1  9  1  0  0  0  0
  2  3  1  0  0  0  0
  3 19  2  0  0  0  0
  3  7  1  0  0  0  0
  4 11  1  0  0  0  0
  5  2  1  0  0  0  0
  5 14  2  0  0  0  0
  6  1  2  0  0  0  0
  7  4  2  0  0  0  0
  8 13  1  0  0  0  0
 10 19  1  0  0  0  0
 12  8  2  0  0  0  0
 12 16  1  0  0  0  0
 13 18  1  0  0  0  0
 13  2  2  0  0  0  0
 16  5  1  0  0  0  0
 17 16  2  0  0  0  0
 17  6  1  0  0  0  0
 18 10  1  0  0  0  0
 19 20  1  0  0  0  0
 20 15  1  0  0  0  0
 20 11  2  0  0  0  0
 21 22  2  0  0  0  0
 22 23  1  0  0  0  0
 23  8  1  0  0  0  0
 24 25  2  0  0  0  0
 25 27  1  0  0  0  0
 25 22  1  0  0  0  0
 27 26  1  1  0  0  0
 28 27  1  0  0  0  0
 29 30  1  1  0  0  0
 29 28  1  0  0  0  0
 29 31  1  0  0  0  0
M  END
>  <MODEL>
2

>  <REMARK>
 VINA RESULT:     -10.2      1.899      4.800
  Name = 
  5 active torsions:
  status: ('A' for Active; 'I' for Inactive)
    1  A    between atoms: C_1  and  C_24
    2  A    between atoms: C_9  and  C_22
    3  A    between atoms: C_15  and  N_23
    4  A    between atoms: C_19  and  C_22
    5  A    between atoms: C_19  and  C_24
                            x       y       z     vdW  Elec       q    Type
                         _______ _______ _______ _____ _____    ______ ____

>  <TORSDO>
F 5

$$$$
=
 OpenBabel11052413143D

 31 34  0  0  1  0  0  0  0  0999 V2000
  184.2330  178.7060  145.0810 C   0  0  0  0  0  0  0  0  0  0  0  0
  187.6680  177.8220  143.8460 C   0  0  0  0  0  0  0  0  0  0  0  0
  188.4610  177.4380  145.0650 C   0  0  0  0  0  0  0  0  0  0  0  0
  188.6340  176.9020  147.4380 C   0  0  0  0  0  3  0  0  0  0  0  0
  186.3060  178.2300  143.8850 C   0  0  0  0  0  0  0  0  0  0  0  0
  183.6100  179.0630  143.8840 C   0  0  0  0  0  3  0  0  0  0  0  0
  187.8620  177.1990  146.3130 C   0  0  0  0  0  3  0  0  0  0  0  0
  187.6400  178.2000  141.4280 C   0  0  0  0  0  0  0  0  0  0  0  0
  183.5410  178.7570  146.2440 F   0  0  0  0  0  0  0  0  0  0  0  0
  190.4960  177.5270  143.7020 N   0  0  0  0  0  2  0  0  0  0  0  0
  190.0230  176.8430  147.3340 C   0  0  0  0  0  3  0  0  0  0  0  0
  186.3380  178.5760  141.5080 N   0  0  0  0  0  0  0  0  0  0  0  0
  188.3330  177.8290  142.5910 C   0  0  0  0  0  0  0  0  0  0  0  0
  185.5670  178.2960  145.0800 C   0  0  0  0  0  3  0  0  0  0  0  0
  192.0260  177.0000  146.0090 O   0  0  0  0  0  1  0  0  0  0  0  0
  185.6630  178.6040  142.6810 C   0  0  0  0  0  0  0  0  0  0  0  0
  184.3260  179.0130  142.6870 C   0  0  0  0  0  3  0  0  0  0  0  0
  189.7520  177.3410  142.4640 C   0  0  0  0  0  2  0  0  0  0  0  0
  189.8640  177.3410  144.9680 C   0  0  0  0  0  0  0  0  0  0  0  0
  190.6410  177.0660  146.1030 C   0  0  0  0  0  0  0  0  0  0  0  0
  186.4290  178.2570  138.7720 O   0  0  0  0  0  0  0  0  0  0  0  0
  187.6850  178.2140  138.8710 C   0  0  0  0  0  0  0  0  0  0  0  0
  188.3130  178.1810  140.1600 N   0  0  0  0  0  2  0  0  0  0  0  0
  189.0630  179.3260  137.2020 C   0  0  0  0  0  2  0  0  0  0  0  0
  188.5090  178.2010  137.6480 C   0  0  0  0  0  0  0  0  0  0  0  0
  187.5360  176.4880  136.3170 O   0  0  0  0  0  1  0  0  0  0  0  0
  188.7270  176.9100  136.9110 C   0  0  2  0  0  3  0  0  0  0  0  0
  189.2660  175.8080  137.8230 C   0  0  0  0  0  2  0  0  0  0  0  0
  190.7930  175.7380  137.8540 C   0  0  1  0  0  3  0  0  0  0  0  0
  191.3650  176.5450  139.0070 C   0  0  0  0  0  1  0  0  0  0  0  0
  191.2340  174.4170  137.9260 O   0  0  0  0  0  1  0  0  0  0  0  0
  1  9  1  0  0  0  0
  2  5  1  0  0  0  0
  2  3  1  0  0  0  0
  3  7  1  0  0  0  0
  5 14  2  0  0  0  0
  6  1  2  0  0  0  0
  7  4  2  0  0  0  0
  8 12  2  0  0  0  0
  8 13  1  0  0  0  0
 10 19  1  0  0  0  0
 11  4  1  0  0  0  0
 12 16  1  0  0  0  0
 13  2  2  0  0  0  0
 14  1  1  0  0  0  0
 15 20  1  0  0  0  0
 16 17  2  0  0  0  0
 16  5  1  0  0  0  0
 17  6  1  0  0  0  0
 18 13  1  0  0  0  0
 18 10  1  0  0  0  0
 19  3  2  0  0  0  0
 19 20  1  0  0  0  0
 20 11  2  0  0  0  0
 21 22  2  0  0  0  0
 22 23  1  0  0  0  0
 23  8  1  0  0  0  0
 24 25  2  0  0  0  0
 25 22  1  0  0  0  0
 27 26  1  1  0  0  0
 27 25  1  0  0  0  0
 27 28  1  0  0  0  0
 28 29  1  0  0  0  0
 29 31  1  0  0  0  0
 29 30  1  1  0  0  0
M  END
>  <MODEL>
3

>  <REMARK>
 VINA RESULT:     -10.0      1.825      4.895
  Name = 
  5 active torsions:
  status: ('A' for Active; 'I' for Inactive)
    1  A    between atoms: C_1  and  C_24
    2  A    between atoms: C_9  and  C_22
    3  A    between atoms: C_15  and  N_23
    4  A    between atoms: C_19  and  C_22
    5  A    between atoms: C_19  and  C_24
                            x       y       z     vdW  Elec       q    Type
                         _______ _______ _______ _____ _____    ______ ____

>  <TORSDO>
F 5

$$$$
=
 OpenBabel11052413143D

 31 34  0  0  1  0  0  0  0  0999 V2000
  190.6000  176.7560  146.7450 C   0  0  0  0  0  0  0  0  0  0  0  0
  188.1010  177.6360  144.0810 C   0  0  0  0  0  0  0  0  0  0  0  0
  186.8640  178.0890  144.8070 C   0  0  0  0  0  0  0  0  0  0  0  0
  185.6750  178.7380  146.8360 C   0  0  0  0  0  3  0  0  0  0  0  0
  189.2890  177.2080  144.7360 C   0  0  0  0  0  0  0  0  0  0  0  0
  191.6750  176.3340  145.9620 C   0  0  0  0  0  3  0  0  0  0  0  0
  186.8560  178.3770  146.1820 C   0  0  0  0  0  3  0  0  0  0  0  0
  189.1850  177.1440  141.9430 C   0  0  0  0  0  0  0  0  0  0  0  0
  190.7020  176.7490  148.0950 F   0  0  0  0  0  0  0  0  0  0  0  0
  185.6420  177.9690  142.6860 N   0  0  0  0  0  2  0  0  0  0  0  0
  184.4790  178.8140  146.1230 C   0  0  0  0  0  3  0  0  0  0  0  0
  190.3020  176.7520  142.6060 N   0  0  0  0  0  0  0  0  0  0  0  0
  188.0620  177.5810  142.6630 C   0  0  0  0  0  0  0  0  0  0  0  0
  189.4200  177.1870  146.1360 C   0  0  0  0  0  3  0  0  0  0  0  0
  183.2680  178.6270  144.0530 O   0  0  0  0  0  1  0  0  0  0  0  0
  190.3860  176.7690  143.9570 C   0  0  0  0  0  0  0  0  0  0  0  0
  191.5670  176.3390  144.5710 C   0  0  0  0  0  3  0  0  0  0  0  0
  186.8640  178.0840  141.9020 C   0  0  0  0  0  2  0  0  0  0  0  0
  185.6530  178.2040  144.0930 C   0  0  0  0  0  0  0  0  0  0  0  0
  184.4640  178.5430  144.7540 C   0  0  0  0  0  0  0  0  0  0  0  0
  191.4110  177.5350  140.0940 O   0  0  0  0  0  0  0  0  0  0  0  0
  190.2620  177.3070  139.6290 C   0  0  0  0  0  0  0  0  0  0  0  0
  189.1450  177.1140  140.5080 N   0  0  0  0  0  2  0  0  0  0  0  0
  190.5000  176.1760  137.4880 C   0  0  0  0  0  2  0  0  0  0  0  0
  190.0710  177.2370  138.1680 C   0  0  0  0  0  0  0  0  0  0  0  0
  189.0550  179.3780  138.3520 O   0  0  0  0  0  1  0  0  0  0  0  0
  189.3860  178.3650  137.4510 C   0  0  2  0  0  3  0  0  0  0  0  0
  188.1280  177.9000  136.7150 C   0  0  0  0  0  2  0  0  0  0  0  0
  187.0630  177.3130  137.6420 C   0  0  1  0  0  3  0  0  0  0  0  0
  185.8710  178.2430  137.7810 C   0  0  0  0  0  1  0  0  0  0  0  0
  186.6460  176.0600  137.1970 O   0  0  0  0  0  1  0  0  0  0  0  0
  1  9  1  0  0  0  0
  2  5  1  0  0  0  0
  2  3  1  0  0  0  0
  3  7  1  0  0  0  0
  5 14  2  0  0  0  0
  6  1  2  0  0  0  0
  7  4  2  0  0  0  0
  8 12  2  0  0  0  0
  8 13  1  0  0  0  0
 10 19  1  0  0  0  0
 11  4  1  0  0  0  0
 12 16  1  0  0  0  0
 13  2  2  0  0  0  0
 14  1  1  0  0  0  0
 15 20  1  0  0  0  0
 16 17  2  0  0  0  0
 16  5  1  0  0  0  0
 17  6  1  0  0  0  0
 18 13  1  0  0  0  0
 18 10  1  0  0  0  0
 19 20  1  0  0  0  0
 19  3  2  0  0  0  0
 20 11  2  0  0  0  0
 22 21  2  0  0  0  0
 22 23  1  0  0  0  0
 23  8  1  0  0  0  0
 24 25  2  0  0  0  0
 25 22  1  0  0  0  0
 27 25  1  0  0  0  0
 27 26  1  1  0  0  0
 28 27  1  0  0  0  0
 28 29  1  0  0  0  0
 29 30  1  6  0  0  0
 31 29  1  0  0  0  0
M  END
>  <MODEL>
4

>  <REMARK>
 VINA RESULT:     -10.0      1.512      2.216
  Name = 
  5 active torsions:
  status: ('A' for Active; 'I' for Inactive)
    1  A    between atoms: C_1  and  C_24
    2  A    between atoms: C_9  and  C_22
    3  A    between atoms: C_15  and  N_23
    4  A    between atoms: C_19  and  C_22
    5  A    between atoms: C_19  and  C_24
                            x       y       z     vdW  Elec       q    Type
                         _______ _______ _______ _____ _____    ______ ____

>  <TORSDO>
F 5

$$$$
=
 OpenBabel11052413143D

 31 34  0  0  1  0  0  0  0  0999 V2000
  190.6230  176.7720  146.7770 C   0  0  0  0  0  0  0  0  0  0  0  0
  188.1110  177.6230  144.1160 C   0  0  0  0  0  0  0  0  0  0  0  0
  186.8710  178.0670  144.8430 C   0  0  0  0  0  0  0  0  0  0  0  0
  185.6810  178.7100  146.8720 C   0  0  0  0  0  3  0  0  0  0  0  0
  189.3040  177.2070  144.7700 C   0  0  0  0  0  0  0  0  0  0  0  0
  191.7000  176.3580  145.9930 C   0  0  0  0  0  3  0  0  0  0  0  0
  186.8630  178.3570  146.2180 C   0  0  0  0  0  3  0  0  0  0  0  0
  189.1950  177.1360  141.9770 C   0  0  0  0  0  0  0  0  0  0  0  0
  190.7270  176.7700  148.1270 F   0  0  0  0  0  0  0  0  0  0  0  0
  185.6470  177.9300  142.7240 N   0  0  0  0  0  2  0  0  0  0  0  0
  184.4830  178.7730  146.1620 C   0  0  0  0  0  3  0  0  0  0  0  0
  190.3180  176.7550  142.6390 N   0  0  0  0  0  0  0  0  0  0  0  0
  188.0700  177.5640  142.6980 C   0  0  0  0  0  0  0  0  0  0  0  0
  189.4370  177.1910  146.1700 C   0  0  0  0  0  3  0  0  0  0  0  0
  183.2690  178.5700  144.0940 O   0  0  0  0  0  1  0  0  0  0  0  0
  190.4040  176.7760  143.9900 C   0  0  0  0  0  0  0  0  0  0  0  0
  191.5890  176.3590  144.6020 C   0  0  0  0  0  3  0  0  0  0  0  0
  186.8660  178.0540  141.9380 C   0  0  0  0  0  2  0  0  0  0  0  0
  185.6580  178.1680  144.1310 C   0  0  0  0  0  0  0  0  0  0  0  0
  184.4670  178.4990  144.7940 C   0  0  0  0  0  0  0  0  0  0  0  0
  191.4140  177.5420  140.1230 O   0  0  0  0  0  0  0  0  0  0  0  0
  190.2660  177.3030  139.6600 C   0  0  0  0  0  0  0  0  0  0  0  0
  189.1530  177.1020  140.5420 N   0  0  0  0  0  2  0  0  0  0  0  0
  189.4670  178.2190  137.5530 C   0  0  0  0  0  2  0  0  0  0  0  0
  190.0740  177.2280  138.2000 C   0  0  0  0  0  0  0  0  0  0  0  0
  190.6070  174.9120  138.2820 O   0  0  0  0  0  1  0  0  0  0  0  0
  190.5720  176.0290  137.4450 C   0  0  2  0  0  3  0  0  0  0  0  0
  191.9570  176.2620  136.8390 C   0  0  0  0  0  2  0  0  0  0  0  0
  193.0710  175.5050  137.5610 C   0  0  1  0  0  3  0  0  0  0  0  0
  193.9290  174.7140  136.5890 C   0  0  0  0  0  1  0  0  0  0  0  0
  193.8660  176.3730  138.3080 O   0  0  0  0  0  1  0  0  0  0  0  0
  1  9  1  0  0  0  0
  2  5  1  0  0  0  0
  2  3  1  0  0  0  0
  3  7  1  0  0  0  0
  5 14  2  0  0  0  0
  6  1  2  0  0  0  0
  7  4  2  0  0  0  0
  8 12  2  0  0  0  0
  8 13  1  0  0  0  0
 10 19  1  0  0  0  0
 11  4  1  0  0  0  0
 12 16  1  0  0  0  0
 13  2  2  0  0  0  0
 14  1  1  0  0  0  0
 15 20  1  0  0  0  0
 16 17  2  0  0  0  0
 16  5  1  0  0  0  0
 17  6  1  0  0  0  0
 18 13  1  0  0  0  0
 18 10  1  0  0  0  0
 19 20  1  0  0  0  0
 19  3  2  0  0  0  0
 20 11  2  0  0  0  0
 22 21  2  0  0  0  0
 22 23  1  0  0  0  0
 23  8  1  0  0  0  0
 24 25  2  0  0  0  0
 25 22  1  0  0  0  0
 27 25  1  0  0  0  0
 27 26  1  1  0  0  0
 28 27  1  0  0  0  0
 28 29  1  0  0  0  0
 29 30  1  6  0  0  0
 29 31  1  0  0  0  0
M  END
>  <MODEL>
5

>  <REMARK>
 VINA RESULT:     -10.0      1.643      2.558
  Name = 
  5 active torsions:
  status: ('A' for Active; 'I' for Inactive)
    1  A    between atoms: C_1  and  C_24
    2  A    between atoms: C_9  and  C_22
    3  A    between atoms: C_15  and  N_23
    4  A    between atoms: C_19  and  C_22
    5  A    between atoms: C_19  and  C_24
                            x       y       z     vdW  Elec       q    Type
                         _______ _______ _______ _____ _____    ______ ____

>  <TORSDO>
F 5

$$$$
=
 OpenBabel11052413143D

 31 34  0  0  1  0  0  0  0  0999 V2000
  184.3030  178.9100  144.7460 C   0  0  0  0  0  0  0  0  0  0  0  0
  187.8200  177.5940  144.6410 C   0  0  0  0  0  0  0  0  0  0  0  0
  188.3080  177.6020  146.0630 C   0  0  0  0  0  0  0  0  0  0  0  0
  187.9430  177.8500  148.4620 C   0  0  0  0  0  3  0  0  0  0  0  0
  186.5230  178.0270  144.2480 C   0  0  0  0  0  0  0  0  0  0  0  0
  183.9740  178.8800  143.3900 C   0  0  0  0  0  3  0  0  0  0  0  0
  187.4470  177.7900  147.1580 C   0  0  0  0  0  3  0  0  0  0  0  0
  188.3200  177.1800  142.2820 C   0  0  0  0  0  0  0  0  0  0  0  0
  183.3960  179.3470  145.6530 F   0  0  0  0  0  0  0  0  0  0  0  0
  190.5770  177.2010  145.2290 N   0  0  0  0  0  2  0  0  0  0  0  0
  189.3130  177.7270  148.6940 C   0  0  0  0  0  3  0  0  0  0  0  0
  187.0710  177.5930  141.9490 N   0  0  0  0  0  0  0  0  0  0  0  0
  188.7240  177.1840  143.6260 C   0  0  0  0  0  0  0  0  0  0  0  0
  185.5650  178.4890  145.1680 C   0  0  0  0  0  3  0  0  0  0  0  0
  191.5490  177.4040  147.8660 O   0  0  0  0  0  1  0  0  0  0  0  0
  186.1760  178.0110  142.8760 C   0  0  0  0  0  0  0  0  0  0  0  0
  184.9100  178.4320  142.4580 C   0  0  0  0  0  3  0  0  0  0  0  0
  190.0870  176.6470  143.9750 C   0  0  0  0  0  2  0  0  0  0  0  0
  189.6860  177.4450  146.3160 C   0  0  0  0  0  0  0  0  0  0  0  0
  190.1860  177.5300  147.6240 C   0  0  0  0  0  0  0  0  0  0  0  0
  189.0370  178.5680  139.8140 O   0  0  0  0  0  0  0  0  0  0  0  0
  189.5650  177.4500  140.0630 C   0  0  0  0  0  0  0  0  0  0  0  0
  189.2330  176.7400  141.2640 N   0  0  0  0  0  2  0  0  0  0  0  0
  191.8330  177.1370  139.2380 C   0  0  0  0  0  2  0  0  0  0  0  0
  190.5330  176.8770  139.1110 C   0  0  0  0  0  0  0  0  0  0  0  0
  190.6940  174.7570  138.0480 O   0  0  0  0  0  1  0  0  0  0  0  0
  190.0480  175.9930  137.9970 C   0  0  2  0  0  3  0  0  0  0  0  0
  190.2600  176.6280  136.6220 C   0  0  0  0  0  2  0  0  0  0  0  0
  189.0540  177.4310  136.1320 C   0  0  1  0  0  3  0  0  0  0  0  0
  187.7470  176.8120  136.5950 C   0  0  0  0  0  1  0  0  0  0  0  0
  189.1330  178.7590  136.5490 O   0  0  0  0  0  1  0  0  0  0  0  0
  1 14  1  0  0  0  0
  1  9  1  0  0  0  0
  2  3  1  0  0  0  0
  3 19  2  0  0  0  0
  3  7  1  0  0  0  0
  4 11  1  0  0  0  0
  5  2  1  0  0  0  0
  5 14  2  0  0  0  0
  6  1  2  0  0  0  0
  7  4  2  0  0  0  0
  8 13  1  0  0  0  0
 10 19  1  0  0  0  0
 12  8  2  0  0  0  0
 12 16  1  0  0  0  0
 13 18  1  0  0  0  0
 13  2  2  0  0  0  0
 16  5  1  0  0  0  0
 17 16  2  0  0  0  0
 17  6  1  0  0  0  0
 18 10  1  0  0  0  0
 19 20  1  0  0  0  0
 20 15  1  0  0  0  0
 20 11  2  0  0  0  0
 21 22  2  0  0  0  0
 22 23  1  0  0  0  0
 23  8  1  0  0  0  0
 25 24  2  0  0  0  0
 25 22  1  0  0  0  0
 27 26  1  6  0  0  0
 27 25  1  0  0  0  0
 28 27  1  0  0  0  0
 29 31  1  0  0  0  0
 29 30  1  1  0  0  0
 29 28  1  0  0  0  0
M  END
>  <MODEL>
6

>  <REMARK>
 VINA RESULT:     -10.0      2.022      4.413
  Name = 
  5 active torsions:
  status: ('A' for Active; 'I' for Inactive)
    1  A    between atoms: C_1  and  C_24
    2  A    between atoms: C_9  and  C_22
    3  A    between atoms: C_15  and  N_23
    4  A    between atoms: C_19  and  C_22
    5  A    between atoms: C_19  and  C_24
                            x       y       z     vdW  Elec       q    Type
                         _______ _______ _______ _____ _____    ______ ____

>  <TORSDO>
F 5

$$$$
=
 OpenBabel11052413143D

 31 34  0  0  1  0  0  0  0  0999 V2000
  188.2300  177.3650  147.3390 C   0  0  0  0  0  0  0  0  0  0  0  0
  186.9310  178.1560  143.9040 C   0  0  0  0  0  0  0  0  0  0  0  0
  185.4740  178.4890  144.0780 C   0  0  0  0  0  0  0  0  0  0  0  0
  183.5290  178.9730  145.4680 C   0  0  0  0  0  3  0  0  0  0  0  0
  187.7920  177.7930  144.9770 C   0  0  0  0  0  0  0  0  0  0  0  0
  189.5580  177.0530  147.0480 C   0  0  0  0  0  3  0  0  0  0  0  0
  184.8970  178.7240  145.3380 C   0  0  0  0  0  3  0  0  0  0  0  0
  188.8110  177.8240  142.3730 C   0  0  0  0  0  0  0  0  0  0  0  0
  187.7880  177.3160  148.6180 F   0  0  0  0  0  0  0  0  0  0  0  0
  185.2100  178.3570  141.6450 N   0  0  0  0  0  2  0  0  0  0  0  0
  182.7120  178.9870  144.3380 C   0  0  0  0  0  3  0  0  0  0  0  0
  189.6020  177.4910  143.4250 N   0  0  0  0  0  0  0  0  0  0  0  0
  187.4620  178.1490  142.5880 C   0  0  0  0  0  0  0  0  0  0  0  0
  187.3570  177.7300  146.3120 C   0  0  0  0  0  3  0  0  0  0  0  0
  182.4420  178.7870  141.9550 O   0  0  0  0  0  1  0  0  0  0  0  0
  189.1400  177.4650  144.6970 C   0  0  0  0  0  0  0  0  0  0  0  0
  190.0110  177.1010  145.7290 C   0  0  0  0  0  3  0  0  0  0  0  0
  186.6280  178.5910  141.4140 C   0  0  0  0  0  2  0  0  0  0  0  0
  184.6420  178.5390  142.9410 C   0  0  0  0  0  0  0  0  0  0  0  0
  183.2640  178.7660  143.0750 C   0  0  0  0  0  0  0  0  0  0  0  0
  190.7770  175.9990  141.2190 O   0  0  0  0  0  0  0  0  0  0  0  0
  190.3110  176.9280  140.5050 C   0  0  0  0  0  0  0  0  0  0  0  0
  189.3460  177.8440  141.0410 N   0  0  0  0  0  2  0  0  0  0  0  0
  190.0300  177.7490  138.2320 C   0  0  0  0  0  2  0  0  0  0  0  0
  190.7620  177.0650  139.1080 C   0  0  0  0  0  0  0  0  0  0  0  0
  193.1270  177.2710  138.9920 O   0  0  0  0  0  1  0  0  0  0  0  0
  192.0560  176.4340  138.6780 C   0  0  2  0  0  3  0  0  0  0  0  0
  192.0730  176.1140  137.1830 C   0  0  0  0  0  2  0  0  0  0  0  0
  192.0150  174.6160  136.8820 C   0  0  1  0  0  3  0  0  0  0  0  0
  193.3240  173.9270  137.2260 C   0  0  0  0  0  1  0  0  0  0  0  0
  190.9590  174.0080  137.5590 O   0  0  0  0  0  1  0  0  0  0  0  0
  1  9  1  0  0  0  0
  2  3  1  0  0  0  0
  2  5  1  0  0  0  0
  3  7  1  0  0  0  0
  5 14  1  0  0  0  0
  6  1  1  0  0  0  0
  7  4  2  0  0  0  0
  8 13  1  0  0  0  0
  8 12  2  0  0  0  0
 10 19  1  0  0  0  0
 11  4  1  0  0  0  0
 12 16  1  0  0  0  0
 13  2  2  0  0  0  0
 14  1  2  0  0  0  0
 15 20  1  0  0  0  0
 16  5  2  0  0  0  0
 16 17  1  0  0  0  0
 17  6  2  0  0  0  0
 18 10  1  0  0  0  0
 18 13  1  0  0  0  0
 19 20  1  0  0  0  0
 19  3  2  0  0  0  0
 20 11  2  0  0  0  0
 22 23  1  0  0  0  0
 22 21  2  0  0  0  0
 23  8  1  0  0  0  0
 24 25  2  0  0  0  0
 25 22  1  0  0  0  0
 27 26  1  6  0  0  0
 27 25  1  0  0  0  0
 28 27  1  0  0  0  0
 29 28  1  0  0  0  0
 29 30  1  1  0  0  0
 29 31  1  0  0  0  0
M  END
>  <MODEL>
7

>  <REMARK>
 VINA RESULT:      -9.7      1.340      2.068
  Name = 
  5 active torsions:
  status: ('A' for Active; 'I' for Inactive)
    1  A    between atoms: C_1  and  C_24
    2  A    between atoms: C_9  and  C_22
    3  A    between atoms: C_15  and  N_23
    4  A    between atoms: C_19  and  C_22
    5  A    between atoms: C_19  and  C_24
                            x       y       z     vdW  Elec       q    Type
                         _______ _______ _______ _____ _____    ______ ____

>  <TORSDO>
F 5

$$$$
=
 OpenBabel11052413143D

 31 34  0  0  1  0  0  0  0  0999 V2000
  189.9710  177.5870  147.7400 C   0  0  0  0  0  0  0  0  0  0  0  0
  188.4270  177.5180  144.3150 C   0  0  0  0  0  0  0  0  0  0  0  0
  189.5710  177.3880  143.3470 C   0  0  0  0  0  0  0  0  0  0  0  0
  191.9260  177.0040  142.8380 C   0  0  0  0  0  3  0  0  0  0  0  0
  188.5900  177.5840  145.7270 C   0  0  0  0  0  0  0  0  0  0  0  0
  188.8330  177.7340  148.5340 C   0  0  0  0  0  3  0  0  0  0  0  0
  190.8750  177.0590  143.7560 C   0  0  0  0  0  3  0  0  0  0  0  0
  186.0180  177.7830  144.6510 C   0  0  0  0  0  0  0  0  0  0  0  0
  191.1940  177.5130  148.3160 F   0  0  0  0  0  0  0  0  0  0  0  0
  188.0190  177.9150  141.5270 N   0  0  0  0  0  2  0  0  0  0  0  0
  191.6900  177.2810  141.4920 C   0  0  0  0  0  3  0  0  0  0  0  0
  186.2150  177.8330  145.9930 N   0  0  0  0  0  0  0  0  0  0  0  0
  187.1150  177.6370  143.7870 C   0  0  0  0  0  0  0  0  0  0  0  0
  189.8490  177.5140  146.3510 C   0  0  0  0  0  3  0  0  0  0  0  0
  190.1770  177.8690  139.7160 O   0  0  0  0  0  1  0  0  0  0  0  0
  187.4470  177.7410  146.5470 C   0  0  0  0  0  0  0  0  0  0  0  0
  187.5740  177.8120  147.9370 C   0  0  0  0  0  3  0  0  0  0  0  0
  186.8610  177.5060  142.3080 C   0  0  0  0  0  2  0  0  0  0  0  0
  189.3420  177.6320  141.9780 C   0  0  0  0  0  0  0  0  0  0  0  0
  190.4020  177.6000  141.0600 C   0  0  0  0  0  0  0  0  0  0  0  0
  184.6180  180.1970  143.7900 O   0  0  0  0  0  0  0  0  0  0  0  0
  184.0350  179.0830  143.6920 C   0  0  0  0  0  0  0  0  0  0  0  0
  184.6920  177.8780  144.1090 N   0  0  0  0  0  2  0  0  0  0  0  0
  181.6170  179.0040  143.9570 C   0  0  0  0  0  2  0  0  0  0  0  0
  182.6690  179.0260  143.1410 C   0  0  0  0  0  0  0  0  0  0  0  0
  181.1410  178.6830  141.3520 O   0  0  0  0  0  1  0  0  0  0  0  0
  182.4660  178.9990  141.6520 C   0  0  2  0  0  3  0  0  0  0  0  0
  183.4020  178.0060  140.9610 C   0  0  0  0  0  2  0  0  0  0  0  0
  184.2360  178.6340  139.8440 C   0  0  1  0  0  3  0  0  0  0  0  0
  183.3760  179.0080  138.6490 C   0  0  0  0  0  1  0  0  0  0  0  0
  184.9320  179.7510  140.3040 O   0  0  0  0  0  1  0  0  0  0  0  0
  1  9  1  0  0  0  0
  1  6  1  0  0  0  0
  2  5  1  0  0  0  0
  3  7  1  0  0  0  0
  3  2  1  0  0  0  0
  4  7  2  0  0  0  0
  5 14  1  0  0  0  0
  5 16  2  0  0  0  0
  8 12  2  0  0  0  0
 10 19  1  0  0  0  0
 10 18  1  0  0  0  0
 11  4  1  0  0  0  0
 12 16  1  0  0  0  0
 13  2  2  0  0  0  0
 13  8  1  0  0  0  0
 14  1  2  0  0  0  0
 15 20  1  0  0  0  0
 16 17  1  0  0  0  0
 17  6  2  0  0  0  0
 18 13  1  0  0  0  0
 19  3  2  0  0  0  0
 20 11  2  0  0  0  0
 20 19  1  0  0  0  0
 22 21  2  0  0  0  0
 22 23  1  0  0  0  0
 23  8  1  0  0  0  0
 25 22  1  0  0  0  0
 25 24  2  0  0  0  0
 27 26  1  1  0  0  0
 27 25  1  0  0  0  0
 28 27  1  0  0  0  0
 29 30  1  6  0  0  0
 29 31  1  0  0  0  0
 29 28  1  0  0  0  0
M  END
>  <MODEL>
8

>  <REMARK>
 VINA RESULT:      -9.7      2.040      6.113
  Name = 
  5 active torsions:
  status: ('A' for Active; 'I' for Inactive)
    1  A    between atoms: C_1  and  C_24
    2  A    between atoms: C_9  and  C_22
    3  A    between atoms: C_15  and  N_23
    4  A    between atoms: C_19  and  C_22
    5  A    between atoms: C_19  and  C_24
                            x       y       z     vdW  Elec       q    Type
                         _______ _______ _______ _____ _____    ______ ____

>  <TORSDO>
F 5

$$$$
=
 OpenBabel11052413143D

 31 34  0  0  1  0  0  0  0  0999 V2000
  190.4410  176.7530  146.0550 C   0  0  0  0  0  0  0  0  0  0  0  0
  187.7070  177.9100  143.7530 C   0  0  0  0  0  0  0  0  0  0  0  0
  186.5210  178.2000  144.6310 C   0  0  0  0  0  0  0  0  0  0  0  0
  185.4840  178.4970  146.8190 C   0  0  0  0  0  3  0  0  0  0  0  0
  188.9570  177.4400  144.2430 C   0  0  0  0  0  0  0  0  0  0  0  0
  191.4600  176.4940  145.1380 C   0  0  0  0  0  3  0  0  0  0  0  0
  186.6170  178.2830  146.0300 C   0  0  0  0  0  3  0  0  0  0  0  0
  188.6250  177.7800  141.4880 C   0  0  0  0  0  0  0  0  0  0  0  0
  190.6540  176.5530  147.3780 F   0  0  0  0  0  0  0  0  0  0  0  0
  185.1330  178.3410  142.6160 N   0  0  0  0  0  2  0  0  0  0  0  0
  184.2320  178.6270  146.2200 C   0  0  0  0  0  3  0  0  0  0  0  0
  189.8050  177.3410  141.9970 N   0  0  0  0  0  0  0  0  0  0  0  0
  187.5530  178.0600  142.3500 C   0  0  0  0  0  0  0  0  0  0  0  0
  189.2020  177.2200  145.6100 C   0  0  0  0  0  3  0  0  0  0  0  0
  182.8610  178.6940  144.2440 O   0  0  0  0  0  1  0  0  0  0  0  0
  189.9990  177.1640  143.3250 C   0  0  0  0  0  0  0  0  0  0  0  0
  191.2380  176.6980  143.7760 C   0  0  0  0  0  3  0  0  0  0  0  0
  186.2820  178.6200  141.7660 C   0  0  0  0  0  2  0  0  0  0  0  0
  185.2530  178.3680  144.0370 C   0  0  0  0  0  0  0  0  0  0  0  0
  184.1130  178.5580  144.8310 C   0  0  0  0  0  0  0  0  0  0  0  0
  190.5860  177.2190  139.3980 O   0  0  0  0  0  0  0  0  0  0  0  0
  189.4540  177.6690  139.0710 C   0  0  0  0  0  0  0  0  0  0  0  0
  188.4690  177.9590  140.0720 N   0  0  0  0  0  2  0  0  0  0  0  0
  189.0570  179.1310  137.1670 C   0  0  0  0  0  2  0  0  0  0  0  0
  189.1460  177.8920  137.6460 C   0  0  0  0  0  0  0  0  0  0  0  0
  188.0020  175.8400  137.2850 O   0  0  0  0  0  1  0  0  0  0  0  0
  188.9400  176.7160  136.7350 C   0  0  2  0  0  3  0  0  0  0  0  0
  190.2430  175.9660  136.4570 C   0  0  0  0  0  2  0  0  0  0  0  0
  190.3070  174.5900  137.1220 C   0  0  1  0  0  3  0  0  0  0  0  0
  190.3310  173.4740  136.0930 C   0  0  0  0  0  1  0  0  0  0  0  0
  191.4120  174.4910  137.9660 O   0  0  0  0  0  1  0  0  0  0  0  0
  1  9  1  0  0  0  0
  2  5  1  0  0  0  0
  2  3  1  0  0  0  0
  3  7  1  0  0  0  0
  5 14  2  0  0  0  0
  6  1  2  0  0  0  0
  7  4  2  0  0  0  0
  8 12  2  0  0  0  0
  8 13  1  0  0  0  0
 10 19  1  0  0  0  0
 11  4  1  0  0  0  0
 12 16  1  0  0  0  0
 13  2  2  0  0  0  0
 14  1  1  0  0  0  0
 15 20  1  0  0  0  0
 16 17  2  0  0  0  0
 16  5  1  0  0  0  0
 17  6  1  0  0  0  0
 18 13  1  0  0  0  0
 18 10  1  0  0  0  0
 19  3  2  0  0  0  0
 19 20  1  0  0  0  0
 20 11  2  0  0  0  0
 22 21  2  0  0  0  0
 22 23  1  0  0  0  0
 23  8  1  0  0  0  0
 24 25  2  0  0  0  0
 25 22  1  0  0  0  0
 27 26  1  1  0  0  0
 27 25  1  0  0  0  0
 28 27  1  0  0  0  0
 28 29  1  0  0  0  0
 29 30  1  6  0  0  0
 29 31  1  0  0  0  0
M  END
>  <MODEL>
9

>  <REMARK>
 VINA RESULT:      -9.5      1.731      2.656
  Name = 
  5 active torsions:
  status: ('A' for Active; 'I' for Inactive)
    1  A    between atoms: C_1  and  C_24
    2  A    between atoms: C_9  and  C_22
    3  A    between atoms: C_15  and  N_23
    4  A    between atoms: C_19  and  C_22
    5  A    between atoms: C_19  and  C_24
                            x       y       z     vdW  Elec       q    Type
                         _______ _______ _______ _____ _____    ______ ____

>  <TORSDO>
F 5

$$$$
