=
 OpenBabel11052415553D

 34 40  0  0  1  0  0  0  0  0999 V2000
  187.1020  178.0170  144.2300 C   0  0  0  0  0  0  0  0  0  0  0  0
  183.5210  178.7180  145.0460 C   0  0  0  0  0  3  0  0  0  0  0  0
  181.4740  179.0220  142.1490 C   0  0  0  0  0  0  0  0  0  0  0  0
  185.4380  178.3960  146.4810 C   0  0  0  0  0  3  0  0  0  0  0  0
  189.8460  177.5080  144.5790 N   0  0  0  0  0  0  0  0  0  0  0  0
  188.0040  177.8130  143.0720 C   0  0  0  0  0  3  0  0  0  0  0  0
  189.0020  177.7010  145.7200 C   0  0  0  0  0  0  0  0  0  0  0  0
  188.7040  177.8270  148.1200 C   0  0  0  0  0  3  0  0  0  0  0  0
  180.3430  179.2210  141.6360 O   0  0  0  0  0  0  0  0  0  0  0  0
  189.5340  177.6370  147.0100 C   0  0  0  0  0  3  0  0  0  0  0  0
  189.3130  177.5700  143.2460 C   0  0  0  0  0  0  0  0  0  0  0  0
  186.7980  178.1450  146.6570 C   0  0  0  0  0  0  0  0  0  0  0  0
  187.6320  177.9540  145.5340 C   0  0  1  0  0  3  0  0  0  0  0  0
  187.3390  178.0800  147.9440 C   0  0  0  0  0  3  0  0  0  0  0  0
  182.9890  178.7820  143.7600 C   0  0  0  0  0  0  0  0  0  0  0  0
  182.8790  178.7300  141.2540 S   0  0  0  0  0  0  0  0  0  0  0  0
  181.6810  179.0210  143.4870 N   0  0  0  0  0  2  0  0  0  0  0  0
  183.8000  178.5970  142.6510 C   0  0  0  0  0  0  0  0  0  0  0  0
  184.8940  178.4630  145.1970 C   0  0  0  0  0  0  0  0  0  0  0  0
  185.1630  178.3420  142.7630 C   0  0  0  0  0  3  0  0  0  0  0  0
  185.7280  178.2720  144.0530 C   0  0  0  0  0  0  0  0  0  0  0  0
  192.4350  177.3600  141.0970 C   0  0  0  0  0  3  0  0  0  0  0  0
  189.6680  176.9840  140.8490 C   0  0  0  0  0  3  0  0  0  0  0  0
  192.1800  176.3990  137.5280 C   0  0  0  0  0  0  0  0  0  0  0  0
  192.7230  176.7830  138.7630 C   0  0  0  0  0  3  0  0  0  0  0  0
  191.8930  176.9780  139.8690 C   0  0  0  0  0  0  0  0  0  0  0  0
  189.9560  176.4060  138.5150 C   0  0  0  0  0  3  0  0  0  0  0  0
  190.4980  176.7880  139.7440 C   0  0  0  0  0  0  0  0  0  0  0  0
  190.7940  176.2130  137.4120 C   0  0  0  0  0  3  0  0  0  0  0  0
  190.2080  177.3680  142.0870 C   0  0  0  0  0  0  0  0  0  0  0  0
  191.5970  177.5540  142.1990 C   0  0  0  0  0  3  0  0  0  0  0  0
  193.0600  176.1950  136.3670 C   0  0  0  0  0  0  0  0  0  0  0  0
  192.6620  175.5330  135.3710 O   0  0  0  0  0  0  0  0  0  0  0  0
  194.3430  176.7320  136.3570 O   0  0  0  0  0  1  0  0  0  0  0  0
  2 19  1  0  0  0  0
  3 17  1  0  0  0  0
  4 12  1  0  0  0  0
  5  7  2  0  0  0  0
  6 11  2  0  0  0  0
  6  1  1  0  0  0  0
  7 10  1  0  0  0  0
  9  3  2  0  0  0  0
 10  8  2  0  0  0  0
 11  5  1  0  0  0  0
 12 14  2  0  0  0  0
 13  1  1  6  0  0  0
 13  7  1  0  0  0  0
 13 12  1  0  0  0  0
 14  8  1  0  0  0  0
 15  2  2  0  0  0  0
 16  3  1  0  0  0  0
 16 18  1  0  0  0  0
 17 15  1  0  0  0  0
 18 20  2  0  0  0  0
 18 15  1  0  0  0  0
 19  4  2  0  0  0  0
 20 21  1  0  0  0  0
 21  1  2  0  0  0  0
 21 19  1  0  0  0  0
 22 31  1  0  0  0  0
 23 30  1  0  0  0  0
 24 25  2  0  0  0  0
 25 26  1  0  0  0  0
 26 22  2  0  0  0  0
 27 28  1  0  0  0  0
 28 26  1  0  0  0  0
 28 23  2  0  0  0  0
 29 24  1  0  0  0  0
 29 27  2  0  0  0  0
 30 31  2  0  0  0  0
 30 11  1  0  0  0  0
 32 24  1  0  0  0  0
 33 32  2  0  0  0  0
 34 32  1  0  0  0  0
M  END
>  <MODEL>
1

>  <REMARK>
 VINA RESULT:     -12.7      0.000      0.000
  Name = 
  2 active torsions:
  status: ('A' for Active; 'I' for Inactive)
    1  A    between atoms: C_7  and  C_11
    2  A    between atoms: C_18  and  C_30
                            x       y       z     vdW  Elec       q    Type
                         _______ _______ _______ _____ _____    ______ ____

>  <TORSDO>
F 2

$$$$
=
 OpenBabel11052415553D

 34 40  0  0  1  0  0  0  0  0999 V2000
  186.4870  178.0550  143.6090 C   0  0  0  0  0  0  0  0  0  0  0  0
  183.0320  178.8630  144.7910 C   0  0  0  0  0  3  0  0  0  0  0  0
  180.6990  179.2020  142.1230 C   0  0  0  0  0  0  0  0  0  0  0  0
  185.0810  178.4990  146.0190 C   0  0  0  0  0  3  0  0  0  0  0  0
  189.2380  177.4710  143.6720 N   0  0  0  0  0  0  0  0  0  0  0  0
  187.2550  177.8160  142.3640 C   0  0  0  0  0  3  0  0  0  0  0  0
  188.5250  177.6970  144.8930 C   0  0  0  0  0  0  0  0  0  0  0  0
  188.4860  177.8500  147.3100 C   0  0  0  0  0  3  0  0  0  0  0  0
  179.5260  179.4280  141.7300 O   0  0  0  0  0  0  0  0  0  0  0  0
  189.1880  177.6280  146.1200 C   0  0  0  0  0  3  0  0  0  0  0  0
  188.5680  177.5380  142.4020 C   0  0  0  0  0  0  0  0  0  0  0  0
  186.4450  178.2100  146.0530 C   0  0  0  0  0  0  0  0  0  0  0  0
  187.1500  177.9880  144.8500 C   0  0  2  0  0  3  0  0  0  0  0  0
  187.1180  178.1400  147.2760 C   0  0  0  0  0  3  0  0  0  0  0  0
  182.3690  178.9310  143.5680 C   0  0  0  0  0  0  0  0  0  0  0  0
  181.9940  178.8640  141.0880 S   0  0  0  0  0  0  0  0  0  0  0  0
  181.0470  179.2060  143.4310 N   0  0  0  0  0  2  0  0  0  0  0  0
  183.0530  178.7150  142.3810 C   0  0  0  0  0  0  0  0  0  0  0  0
  184.4060  178.5700  144.7980 C   0  0  0  0  0  0  0  0  0  0  0  0
  184.4130  178.4230  142.3520 C   0  0  0  0  0  3  0  0  0  0  0  0
  185.1090  178.3470  143.5750 C   0  0  0  0  0  0  0  0  0  0  0  0
  189.4030  176.8870  138.7560 C   0  0  0  0  0  3  0  0  0  0  0  0
  190.7320  177.2650  141.1950 C   0  0  0  0  0  3  0  0  0  0  0  0
  192.9350  176.5940  137.6770 C   0  0  0  0  0  0  0  0  0  0  0  0
  191.5330  176.6290  137.6340 C   0  0  0  0  0  3  0  0  0  0  0  0
  190.7980  176.8520  138.8000 C   0  0  0  0  0  0  0  0  0  0  0  0
  192.8630  177.0080  140.0730 C   0  0  0  0  0  3  0  0  0  0  0  0
  191.4680  177.0430  140.0290 C   0  0  0  0  0  0  0  0  0  0  0  0
  193.5930  176.7850  138.9020 C   0  0  0  0  0  3  0  0  0  0  0  0
  189.3290  177.3020  141.1570 C   0  0  0  0  0  0  0  0  0  0  0  0
  188.6730  177.1100  139.9280 C   0  0  0  0  0  3  0  0  0  0  0  0
  193.7040  176.3590  136.4450 C   0  0  0  0  0  0  0  0  0  0  0  0
  193.3780  175.4340  135.6540 O   0  0  0  0  0  0  0  0  0  0  0  0
  194.8020  177.1570  136.1420 O   0  0  0  0  0  1  0  0  0  0  0  0
  2 19  1  0  0  0  0
  3 17  1  0  0  0  0
  4 12  1  0  0  0  0
  5  7  2  0  0  0  0
  6 11  2  0  0  0  0
  6  1  1  0  0  0  0
  7 10  1  0  0  0  0
  9  3  2  0  0  0  0
 10  8  2  0  0  0  0
 11  5  1  0  0  0  0
 12 14  2  0  0  0  0
 13  1  1  1  0  0  0
 13  7  1  0  0  0  0
 13 12  1  0  0  0  0
 14  8  1  0  0  0  0
 15  2  2  0  0  0  0
 16  3  1  0  0  0  0
 16 18  1  0  0  0  0
 17 15  1  0  0  0  0
 18 15  1  0  0  0  0
 19  4  2  0  0  0  0
 20 18  2  0  0  0  0
 20 21  1  0  0  0  0
 21  1  2  0  0  0  0
 21 19  1  0  0  0  0
 22 26  2  0  0  0  0
 22 31  1  0  0  0  0
 24 29  1  0  0  0  0
 25 24  2  0  0  0  0
 25 26  1  0  0  0  0
 26 28  1  0  0  0  0
 28 27  1  0  0  0  0
 28 23  2  0  0  0  0
 29 27  2  0  0  0  0
 30 23  1  0  0  0  0
 30 11  1  0  0  0  0
 31 30  2  0  0  0  0
 32 24  1  0  0  0  0
 33 32  2  0  0  0  0
 34 32  1  0  0  0  0
M  END
>  <MODEL>
2

>  <REMARK>
 VINA RESULT:     -12.1      0.823      1.498
  Name = 
  2 active torsions:
  status: ('A' for Active; 'I' for Inactive)
    1  A    between atoms: C_7  and  C_11
    2  A    between atoms: C_18  and  C_30
                            x       y       z     vdW  Elec       q    Type
                         _______ _______ _______ _____ _____    ______ ____

>  <TORSDO>
F 2

$$$$
=
 OpenBabel11052415553D

 34 40  0  0  1  0  0  0  0  0999 V2000
  188.3840  177.7490  144.0980 C   0  0  0  0  0  0  0  0  0  0  0  0
  191.9680  177.1290  143.2300 C   0  0  0  0  0  3  0  0  0  0  0  0
  192.5570  177.1000  139.7180 C   0  0  0  0  0  0  0  0  0  0  0  0
  190.8610  177.2800  145.3720 C   0  0  0  0  0  3  0  0  0  0  0  0
  186.0610  178.1300  145.6370 N   0  0  0  0  0  0  0  0  0  0  0  0
  187.0680  177.9980  143.4630 C   0  0  0  0  0  3  0  0  0  0  0  0
  187.3160  177.8920  146.2820 C   0  0  0  0  0  0  0  0  0  0  0  0
  188.6260  177.6140  148.3000 C   0  0  0  0  0  3  0  0  0  0  0  0
  193.3550  176.9790  138.7530 O   0  0  0  0  0  0  0  0  0  0  0  0
  187.3970  177.8480  147.6760 C   0  0  0  0  0  3  0  0  0  0  0  0
  185.9630  178.1790  144.2040 C   0  0  0  0  0  0  0  0  0  0  0  0
  189.7110  177.4680  146.1370 C   0  0  0  0  0  0  0  0  0  0  0  0
  188.4710  177.7030  145.5040 C   0  0  1  0  0  3  0  0  0  0  0  0
  189.7810  177.4250  147.5330 C   0  0  0  0  0  3  0  0  0  0  0  0
  191.8900  177.1730  141.8390 C   0  0  0  0  0  0  0  0  0  0  0  0
  190.9010  177.3990  139.5440 S   0  0  0  0  0  0  0  0  0  0  0  0
  192.9500  177.0020  141.0100 N   0  0  0  0  0  2  0  0  0  0  0  0
  190.6770  177.4030  141.2080 C   0  0  0  0  0  0  0  0  0  0  0  0
  190.7950  177.3220  143.9780 C   0  0  0  0  0  0  0  0  0  0  0  0
  189.4960  177.5980  141.9170 C   0  0  0  0  0  3  0  0  0  0  0  0
  189.5470  177.5590  143.3250 C   0  0  0  0  0  0  0  0  0  0  0  0
  182.2880  178.9960  143.7160 C   0  0  0  0  0  3  0  0  0  0  0  0
  184.5280  178.3220  142.1710 C   0  0  0  0  0  3  0  0  0  0  0  0
  180.8190  179.0160  140.3150 C   0  0  0  0  0  0  0  0  0  0  0  0
  180.9390  179.1210  141.7080 C   0  0  0  0  0  3  0  0  0  0  0  0
  182.1700  178.8910  142.3290 C   0  0  0  0  0  0  0  0  0  0  0  0
  183.1800  178.4480  140.1630 C   0  0  0  0  0  3  0  0  0  0  0  0
  183.2990  178.5520  141.5500 C   0  0  0  0  0  0  0  0  0  0  0  0
  181.9450  178.6790  139.5490 C   0  0  0  0  0  3  0  0  0  0  0  0
  184.6530  178.4260  143.5650 C   0  0  0  0  0  0  0  0  0  0  0  0
  183.5230  178.7650  144.3300 C   0  0  0  0  0  3  0  0  0  0  0  0
  179.5210  179.2590  139.6670 C   0  0  0  0  0  0  0  0  0  0  0  0
  178.9310  178.3320  139.0500 O   0  0  0  0  0  0  0  0  0  0  0  0
  178.9310  180.5170  139.7300 O   0  0  0  0  0  1  0  0  0  0  0  0
  2 19  1  0  0  0  0
  3 17  1  0  0  0  0
  4 12  1  0  0  0  0
  5  7  2  0  0  0  0
  6  1  1  0  0  0  0
  6 11  2  0  0  0  0
  7 10  1  0  0  0  0
  9  3  2  0  0  0  0
 10  8  2  0  0  0  0
 11  5  1  0  0  0  0
 12 14  2  0  0  0  0
 13  1  1  6  0  0  0
 13 12  1  0  0  0  0
 13  7  1  0  0  0  0
 14  8  1  0  0  0  0
 15  2  2  0  0  0  0
 16  3  1  0  0  0  0
 16 18  1  0  0  0  0
 17 15  1  0  0  0  0
 18 15  1  0  0  0  0
 18 20  2  0  0  0  0
 19  4  2  0  0  0  0
 20 21  1  0  0  0  0
 21 19  1  0  0  0  0
 21  1  2  0  0  0  0
 22 31  1  0  0  0  0
 23 30  1  0  0  0  0
 24 25  2  0  0  0  0
 25 26  1  0  0  0  0
 26 22  2  0  0  0  0
 27 28  1  0  0  0  0
 28 23  2  0  0  0  0
 28 26  1  0  0  0  0
 29 27  2  0  0  0  0
 29 24  1  0  0  0  0
 30 11  1  0  0  0  0
 30 31  2  0  0  0  0
 32 34  1  0  0  0  0
 32 24  1  0  0  0  0
 33 32  2  0  0  0  0
M  END
>  <MODEL>
3

>  <REMARK>
 VINA RESULT:     -11.8      2.385      8.439
  Name = 
  2 active torsions:
  status: ('A' for Active; 'I' for Inactive)
    1  A    between atoms: C_7  and  C_11
    2  A    between atoms: C_18  and  C_30
                            x       y       z     vdW  Elec       q    Type
                         _______ _______ _______ _____ _____    ______ ____

>  <TORSDO>
F 2

$$$$
=
 OpenBabel11052415553D

 34 40  0  0  1  0  0  0  0  0999 V2000
  187.3600  177.7600  143.5350 C   0  0  0  0  0  0  0  0  0  0  0  0
  184.1580  178.6250  145.2620 C   0  0  0  0  0  3  0  0  0  0  0  0
  181.4650  179.1660  142.9970 C   0  0  0  0  0  0  0  0  0  0  0  0
  186.3530  178.1360  146.1470 C   0  0  0  0  0  3  0  0  0  0  0  0
  190.0630  177.0830  143.1540 N   0  0  0  0  0  0  0  0  0  0  0  0
  187.9220  177.5540  142.1790 C   0  0  0  0  0  3  0  0  0  0  0  0
  189.5520  177.2740  144.4770 C   0  0  0  0  0  0  0  0  0  0  0  0
  189.8840  177.3150  146.8760 C   0  0  0  0  0  3  0  0  0  0  0  0
  180.2560  179.4490  142.7970 O   0  0  0  0  0  0  0  0  0  0  0  0
  190.3900  177.1250  145.5850 C   0  0  0  0  0  3  0  0  0  0  0  0
  189.2130  177.2310  142.0040 C   0  0  0  0  0  0  0  0  0  0  0  0
  187.6930  177.8010  145.9610 C   0  0  0  0  0  0  0  0  0  0  0  0
  188.2000  177.6120  144.6560 C   0  0  2  0  0  3  0  0  0  0  0  0
  188.5390  177.6510  147.0630 C   0  0  0  0  0  3  0  0  0  0  0  0
  183.3210  178.7730  144.1580 C   0  0  0  0  0  0  0  0  0  0  0  0
  182.5740  178.8340  141.7630 S   0  0  0  0  0  0  0  0  0  0  0  0
  182.0060  179.0970  144.2360 N   0  0  0  0  0  2  0  0  0  0  0  0
  183.8090  178.5900  142.8730 C   0  0  0  0  0  0  0  0  0  0  0  0
  185.5040  178.2870  145.0480 C   0  0  0  0  0  0  0  0  0  0  0  0
  185.1360  178.2550  142.6250 C   0  0  0  0  0  3  0  0  0  0  0  0
  186.0050  178.0980  143.7230 C   0  0  0  0  0  0  0  0  0  0  0  0
  189.4620  176.7300  138.2490 C   0  0  0  0  0  3  0  0  0  0  0  0
  191.1580  176.9390  140.4720 C   0  0  0  0  0  3  0  0  0  0  0  0
  192.7760  176.3610  136.6340 C   0  0  0  0  0  0  0  0  0  0  0  0
  191.3870  176.4490  136.8060 C   0  0  0  0  0  3  0  0  0  0  0  0
  190.8450  176.6410  138.0800 C   0  0  0  0  0  0  0  0  0  0  0  0
  193.0820  176.6590  139.0290 C   0  0  0  0  0  3  0  0  0  0  0  0
  191.6990  176.7470  139.2000 C   0  0  0  0  0  0  0  0  0  0  0  0
  193.6180  176.4670  137.7520 C   0  0  0  0  0  3  0  0  0  0  0  0
  189.7680  177.0280  140.6490 C   0  0  0  0  0  0  0  0  0  0  0  0
  188.9270  176.9220  139.5270 C   0  0  0  0  0  3  0  0  0  0  0  0
  193.3410  176.1580  135.2910 C   0  0  0  0  0  0  0  0  0  0  0  0
  192.9950  175.1670  134.5950 O   0  0  0  0  0  0  0  0  0  0  0  0
  194.2640  177.0610  134.7760 O   0  0  0  0  0  1  0  0  0  0  0  0
  1 21  2  0  0  0  0
  3 17  1  0  0  0  0
  5  7  2  0  0  0  0
  6  1  1  0  0  0  0
  7 13  1  0  0  0  0
  7 10  1  0  0  0  0
  8 14  1  0  0  0  0
  9  3  2  0  0  0  0
 10  8  2  0  0  0  0
 11  6  2  0  0  0  0
 11  5  1  0  0  0  0
 12  4  1  0  0  0  0
 12 14  2  0  0  0  0
 13  1  1  1  0  0  0
 13 12  1  0  0  0  0
 15 17  1  0  0  0  0
 15  2  2  0  0  0  0
 16 18  1  0  0  0  0
 16  3  1  0  0  0  0
 18 15  1  0  0  0  0
 19  2  1  0  0  0  0
 19  4  2  0  0  0  0
 20 18  2  0  0  0  0
 20 21  1  0  0  0  0
 21 19  1  0  0  0  0
 22 31  1  0  0  0  0
 23 30  1  0  0  0  0
 24 25  2  0  0  0  0
 24 29  1  0  0  0  0
 25 26  1  0  0  0  0
 26 22  2  0  0  0  0
 26 28  1  0  0  0  0
 27 28  1  0  0  0  0
 28 23  2  0  0  0  0
 29 27  2  0  0  0  0
 30 11  1  0  0  0  0
 31 30  2  0  0  0  0
 32 24  1  0  0  0  0
 33 32  2  0  0  0  0
 34 32  1  0  0  0  0
M  END
>  <MODEL>
4

>  <REMARK>
 VINA RESULT:     -11.5      0.962      1.690
  Name = 
  2 active torsions:
  status: ('A' for Active; 'I' for Inactive)
    1  A    between atoms: C_7  and  C_11
    2  A    between atoms: C_18  and  C_30
                            x       y       z     vdW  Elec       q    Type
                         _______ _______ _______ _____ _____    ______ ____

>  <TORSDO>
F 2

$$$$
=
 OpenBabel11052415553D

 34 40  0  0  1  0  0  0  0  0999 V2000
  185.2110  178.3340  141.6640 C   0  0  0  0  0  0  0  0  0  0  0  0
  184.6430  178.5620  137.9750 C   0  0  0  0  0  3  0  0  0  0  0  0
  187.5970  177.9670  136.0790 C   0  0  0  0  0  0  0  0  0  0  0  0
  183.1220  178.8440  139.8320 C   0  0  0  0  0  3  0  0  0  0  0  0
  184.6970  178.3690  144.4290 N   0  0  0  0  0  0  0  0  0  0  0  0
  186.2830  178.0710  142.6530 C   0  0  0  0  0  3  0  0  0  0  0  0
  183.6390  178.6280  143.5000 C   0  0  0  0  0  0  0  0  0  0  0  0
  181.3180  179.1500  143.0450 C   0  0  0  0  0  3  0  0  0  0  0  0
  188.1680  177.8720  134.9620 O   0  0  0  0  0  0  0  0  0  0  0  0
  182.3470  178.8980  143.9580 C   0  0  0  0  0  3  0  0  0  0  0  0
  186.0300  178.0890  143.9710 C   0  0  0  0  0  0  0  0  0  0  0  0
  182.8650  178.8620  141.2020 C   0  0  0  0  0  0  0  0  0  0  0  0
  183.9070  178.6080  142.1200 C   0  0  2  0  0  3  0  0  0  0  0  0
  181.5760  179.1320  141.6700 C   0  0  0  0  0  3  0  0  0  0  0  0
  185.9300  178.2930  137.5160 C   0  0  0  0  0  0  0  0  0  0  0  0
  188.3800  177.7540  137.5630 S   0  0  0  0  0  0  0  0  0  0  0  0
  186.2790  178.2530  136.2050 N   0  0  0  0  0  2  0  0  0  0  0  0
  186.9600  178.0420  138.4100 C   0  0  0  0  0  0  0  0  0  0  0  0
  184.4090  178.5750  139.3600 C   0  0  0  0  0  0  0  0  0  0  0  0
  186.7640  178.0460  139.7870 C   0  0  0  0  0  3  0  0  0  0  0  0
  185.4710  178.3160  140.2790 C   0  0  0  0  0  0  0  0  0  0  0  0
  187.9030  177.7320  147.2540 C   0  0  0  0  0  3  0  0  0  0  0  0
  188.3700  177.4150  144.5080 C   0  0  0  0  0  3  0  0  0  0  0  0
  191.4490  176.6590  147.2700 C   0  0  0  0  0  0  0  0  0  0  0  0
  190.1860  177.0710  147.7190 C   0  0  0  0  0  3  0  0  0  0  0  0
  189.1600  177.3230  146.8050 C   0  0  0  0  0  0  0  0  0  0  0  0
  190.6520  176.7530  144.9730 C   0  0  0  0  0  3  0  0  0  0  0  0
  189.3950  177.1630  145.4210 C   0  0  0  0  0  0  0  0  0  0  0  0
  191.6740  176.5020  145.8930 C   0  0  0  0  0  3  0  0  0  0  0  0
  187.1040  177.8270  144.9530 C   0  0  0  0  0  0  0  0  0  0  0  0
  186.8810  177.9830  146.3330 C   0  0  0  0  0  3  0  0  0  0  0  0
  192.5250  176.3950  148.2370 C   0  0  0  0  0  0  0  0  0  0  0  0
  193.1810  175.3200  148.1870 O   0  0  0  0  0  0  0  0  0  0  0  0
  192.8310  177.3320  149.2190 O   0  0  0  0  0  1  0  0  0  0  0  0
  1 13  1  0  0  0  0
  1  6  1  0  0  0  0
  2 19  1  0  0  0  0
  3 17  1  0  0  0  0
  3 16  1  0  0  0  0
  4 12  1  0  0  0  0
  6 11  2  0  0  0  0
  7 10  1  0  0  0  0
  7  5  2  0  0  0  0
  8 10  2  0  0  0  0
  9  3  2  0  0  0  0
 11  5  1  0  0  0  0
 11 30  1  0  0  0  0
 12 14  2  0  0  0  0
 13 12  1  6  0  0  0
 13  7  1  0  0  0  0
 14  8  1  0  0  0  0
 15  2  2  0  0  0  0
 15 18  1  0  0  0  0
 16 18  1  0  0  0  0
 17 15  1  0  0  0  0
 18 20  2  0  0  0  0
 19  4  2  0  0  0  0
 19 21  1  0  0  0  0
 20 21  1  0  0  0  0
 21  1  2  0  0  0  0
 23 30  2  0  0  0  0
 23 28  1  0  0  0  0
 24 25  1  0  0  0  0
 24 32  1  0  0  0  0
 26 22  1  0  0  0  0
 26 25  2  0  0  0  0
 27 28  2  0  0  0  0
 27 29  1  0  0  0  0
 28 26  1  0  0  0  0
 29 24  2  0  0  0  0
 30 31  1  0  0  0  0
 31 22  2  0  0  0  0
 32 34  1  0  0  0  0
 33 32  2  0  0  0  0
M  END
>  <MODEL>
5

>  <REMARK>
 VINA RESULT:     -11.2      4.249      7.493
  Name = 
  2 active torsions:
  status: ('A' for Active; 'I' for Inactive)
    1  A    between atoms: C_7  and  C_11
    2  A    between atoms: C_18  and  C_30
                            x       y       z     vdW  Elec       q    Type
                         _______ _______ _______ _____ _____    ______ ____

>  <TORSDO>
F 2

$$$$
=
 OpenBabel11052415553D

 34 40  0  0  1  0  0  0  0  0999 V2000
  183.2930  178.3610  141.5290 C   0  0  0  0  0  0  0  0  0  0  0  0
  182.1860  178.1890  137.9610 C   0  0  0  0  0  3  0  0  0  0  0  0
  184.7740  177.1280  135.7580 C   0  0  0  0  0  0  0  0  0  0  0  0
  180.9860  178.8160  139.9630 C   0  0  0  0  0  3  0  0  0  0  0  0
  183.2080  178.7710  144.3100 N   0  0  0  0  0  0  0  0  0  0  0  0
  184.4830  178.1300  142.3810 C   0  0  0  0  0  3  0  0  0  0  0  0
  182.0390  179.0020  143.5160 C   0  0  0  0  0  0  0  0  0  0  0  0
  179.7140  179.6560  143.3320 C   0  0  0  0  0  3  0  0  0  0  0  0
  185.1620  176.8520  134.5940 O   0  0  0  0  0  0  0  0  0  0  0  0
  180.8520  179.4310  144.1150 C   0  0  0  0  0  3  0  0  0  0  0  0
  184.4350  178.3280  143.7080 C   0  0  0  0  0  0  0  0  0  0  0  0
  180.9420  179.0210  141.3410 C   0  0  0  0  0  0  0  0  0  0  0  0
  182.0930  178.7940  142.1270 C   0  0  2  0  0  3  0  0  0  0  0  0
  179.7590  179.4510  141.9490 C   0  0  0  0  0  3  0  0  0  0  0  0
  183.3690  177.7600  137.3630 C   0  0  0  0  0  0  0  0  0  0  0  0
  185.7580  177.0310  137.1300 S   0  0  0  0  0  0  0  0  0  0  0  0
  183.5120  177.5340  136.0320 N   0  0  0  0  0  2  0  0  0  0  0  0
  184.5040  177.5350  138.1260 C   0  0  0  0  0  0  0  0  0  0  0  0
  182.1670  178.3870  139.3510 C   0  0  0  0  0  0  0  0  0  0  0  0
  184.5210  177.7210  139.5040 C   0  0  0  0  0  3  0  0  0  0  0  0
  183.3370  178.1540  140.1360 C   0  0  0  0  0  0  0  0  0  0  0  0
  186.7210  178.1040  146.7300 C   0  0  0  0  0  3  0  0  0  0  0  0
  186.8190  177.6460  143.9670 C   0  0  0  0  0  3  0  0  0  0  0  0
  190.2290  176.9800  146.3360 C   0  0  0  0  0  0  0  0  0  0  0  0
  189.0400  177.4320  146.9250 C   0  0  0  0  0  3  0  0  0  0  0  0
  187.9040  177.6550  146.1420 C   0  0  0  0  0  0  0  0  0  0  0  0
  189.1370  176.9720  144.1610 C   0  0  0  0  0  3  0  0  0  0  0  0
  187.9540  177.4230  144.7490 C   0  0  0  0  0  0  0  0  0  0  0  0
  190.2700  176.7520  144.9510 C   0  0  0  0  0  3  0  0  0  0  0  0
  185.6270  178.0980  144.5530 C   0  0  0  0  0  0  0  0  0  0  0  0
  185.5890  178.3250  145.9400 C   0  0  0  0  0  3  0  0  0  0  0  0
  191.4210  176.7470  147.1650 C   0  0  0  0  0  0  0  0  0  0  0  0
  191.6790  177.5030  148.1400 O   0  0  0  0  0  1  0  0  0  0  0  0
  192.2780  175.6890  146.8810 O   0  0  0  0  0  0  0  0  0  0  0  0
  1 13  1  0  0  0  0
  1  6  1  0  0  0  0
  2 19  1  0  0  0  0
  3 17  1  0  0  0  0
  3 16  1  0  0  0  0
  4 12  1  0  0  0  0
  6 11  2  0  0  0  0
  7 10  1  0  0  0  0
  7  5  2  0  0  0  0
  8 10  2  0  0  0  0
  9  3  2  0  0  0  0
 11  5  1  0  0  0  0
 11 30  1  0  0  0  0
 12 14  2  0  0  0  0
 13 12  1  1  0  0  0
 13  7  1  0  0  0  0
 14  8  1  0  0  0  0
 15  2  2  0  0  0  0
 15 18  1  0  0  0  0
 16 18  1  0  0  0  0
 17 15  1  0  0  0  0
 18 20  2  0  0  0  0
 19  4  2  0  0  0  0
 19 21  1  0  0  0  0
 20 21  1  0  0  0  0
 21  1  2  0  0  0  0
 23 30  2  0  0  0  0
 23 28  1  0  0  0  0
 24 25  1  0  0  0  0
 24 32  1  0  0  0  0
 26 22  1  0  0  0  0
 26 25  2  0  0  0  0
 27 28  2  0  0  0  0
 27 29  1  0  0  0  0
 28 26  1  0  0  0  0
 29 24  2  0  0  0  0
 30 31  1  0  0  0  0
 31 22  2  0  0  0  0
 32 33  1  0  0  0  0
 34 32  2  0  0  0  0
M  END
>  <MODEL>
6

>  <REMARK>
 VINA RESULT:     -11.1      4.369      7.549
  Name = 
  2 active torsions:
  status: ('A' for Active; 'I' for Inactive)
    1  A    between atoms: C_7  and  C_11
    2  A    between atoms: C_18  and  C_30
                            x       y       z     vdW  Elec       q    Type
                         _______ _______ _______ _____ _____    ______ ____

>  <TORSDO>
F 2

$$$$
=
 OpenBabel11052415553D

 34 40  0  0  1  0  0  0  0  0999 V2000
  189.0950  177.4780  143.6630 C   0  0  0  0  0  0  0  0  0  0  0  0
  192.3630  176.7450  142.0010 C   0  0  0  0  0  3  0  0  0  0  0  0
  192.1670  176.8640  138.4480 C   0  0  0  0  0  0  0  0  0  0  0  0
  191.7620  176.8380  144.3400 C   0  0  0  0  0  3  0  0  0  0  0  0
  187.1890  177.8840  145.6920 N   0  0  0  0  0  0  0  0  0  0  0  0
  187.6870  177.8150  143.3450 C   0  0  0  0  0  3  0  0  0  0  0  0
  188.5400  177.5590  146.0330 C   0  0  0  0  0  0  0  0  0  0  0  0
  190.2440  177.1250  147.7000 C   0  0  0  0  0  3  0  0  0  0  0  0
  192.7270  176.7560  137.3270 O   0  0  0  0  0  0  0  0  0  0  0  0
  188.9210  177.4430  147.3730 C   0  0  0  0  0  3  0  0  0  0  0  0
  186.7830  178.0070  144.3180 C   0  0  0  0  0  0  0  0  0  0  0  0
  190.8190  177.0390  145.3470 C   0  0  0  0  0  0  0  0  0  0  0  0
  189.4850  177.3590  145.0120 C   0  0  1  0  0  3  0  0  0  0  0  0
  191.1900  176.9240  146.6890 C   0  0  0  0  0  3  0  0  0  0  0  0
  191.9850  176.8610  140.6650 C   0  0  0  0  0  0  0  0  0  0  0  0
  190.5320  177.2430  138.6560 S   0  0  0  0  0  0  0  0  0  0  0  0
  192.8280  176.6850  139.6160 N   0  0  0  0  0  2  0  0  0  0  0  0
  190.6780  177.1740  140.3270 C   0  0  0  0  0  0  0  0  0  0  0  0
  191.3950  176.9520  142.9970 C   0  0  0  0  0  0  0  0  0  0  0  0
  189.6930  177.3860  141.2860 C   0  0  0  0  0  3  0  0  0  0  0  0
  190.0480  177.2750  142.6460 C   0  0  0  0  0  0  0  0  0  0  0  0
  183.1350  178.9920  144.6870 C   0  0  0  0  0  3  0  0  0  0  0  0
  184.9510  178.3280  142.6580 C   0  0  0  0  0  3  0  0  0  0  0  0
  180.9690  179.2750  141.6960 C   0  0  0  0  0  0  0  0  0  0  0  0
  181.3920  179.2900  143.0330 C   0  0  0  0  0  3  0  0  0  0  0  0
  182.7150  178.9760  143.3570 C   0  0  0  0  0  0  0  0  0  0  0  0
  183.2090  178.6270  141.0030 C   0  0  0  0  0  3  0  0  0  0  0  0
  183.6300  178.6420  142.3340 C   0  0  0  0  0  0  0  0  0  0  0  0
  181.8840  178.9420  140.6850 C   0  0  0  0  0  3  0  0  0  0  0  0
  185.3800  178.3430  143.9940 C   0  0  0  0  0  0  0  0  0  0  0  0
  184.4600  178.6770  145.0040 C   0  0  0  0  0  3  0  0  0  0  0  0
  179.5750  179.6060  141.3610 C   0  0  0  0  0  0  0  0  0  0  0  0
  178.9310  180.4390  142.0540 O   0  0  0  0  0  1  0  0  0  0  0  0
  178.9530  179.0020  140.2740 O   0  0  0  0  0  0  0  0  0  0  0  0
  2 19  1  0  0  0  0
  3 16  1  0  0  0  0
  3 17  1  0  0  0  0
  4 12  1  0  0  0  0
  5  7  2  0  0  0  0
  6  1  1  0  0  0  0
  6 11  2  0  0  0  0
  7 10  1  0  0  0  0
  9  3  2  0  0  0  0
 10  8  2  0  0  0  0
 11  5  1  0  0  0  0
 12 14  2  0  0  0  0
 13  1  1  6  0  0  0
 13 12  1  0  0  0  0
 13  7  1  0  0  0  0
 14  8  1  0  0  0  0
 15  2  2  0  0  0  0
 16 18  1  0  0  0  0
 17 15  1  0  0  0  0
 18 15  1  0  0  0  0
 18 20  2  0  0  0  0
 19  4  2  0  0  0  0
 20 21  1  0  0  0  0
 21 19  1  0  0  0  0
 21  1  2  0  0  0  0
 22 31  1  0  0  0  0
 23 30  1  0  0  0  0
 24 25  2  0  0  0  0
 25 26  1  0  0  0  0
 26 22  2  0  0  0  0
 27 28  1  0  0  0  0
 28 23  2  0  0  0  0
 28 26  1  0  0  0  0
 29 27  2  0  0  0  0
 29 24  1  0  0  0  0
 30 11  1  0  0  0  0
 30 31  2  0  0  0  0
 32 24  1  0  0  0  0
 32 33  1  0  0  0  0
 34 32  2  0  0  0  0
M  END
>  <MODEL>
7

>  <REMARK>
 VINA RESULT:     -11.1      2.160      8.638
  Name = 
  2 active torsions:
  status: ('A' for Active; 'I' for Inactive)
    1  A    between atoms: C_7  and  C_11
    2  A    between atoms: C_18  and  C_30
                            x       y       z     vdW  Elec       q    Type
                         _______ _______ _______ _____ _____    ______ ____

>  <TORSDO>
F 2

$$$$
=
 OpenBabel11052415553D

 34 40  0  0  1  0  0  0  0  0999 V2000
  190.4100  176.6560  138.0800 C   0  0  0  0  0  0  0  0  0  0  0  0
  192.4020  175.4400  135.1590 C   0  0  0  0  0  3  0  0  0  0  0  0
  195.5330  174.0350  136.1070 C   0  0  0  0  0  0  0  0  0  0  0  0
  190.2260  176.4860  135.2670 C   0  0  0  0  0  3  0  0  0  0  0  0
  188.3050  177.7930  139.5610 N   0  0  0  0  0  0  0  0  0  0  0  0
  190.4710  176.7610  139.5580 C   0  0  0  0  0  3  0  0  0  0  0  0
  188.2130  177.7070  138.1350 C   0  0  0  0  0  0  0  0  0  0  0  0
  186.9980  178.0990  136.0760 C   0  0  0  0  0  3  0  0  0  0  0  0
  196.6180  173.4880  135.7840 O   0  0  0  0  0  0  0  0  0  0  0  0
  187.0810  178.1850  137.4700 C   0  0  0  0  0  3  0  0  0  0  0  0
  189.4640  177.3050  140.2570 C   0  0  0  0  0  0  0  0  0  0  0  0
  189.1820  177.0510  135.9980 C   0  0  0  0  0  0  0  0  0  0  0  0
  189.2710  177.1370  137.4050 C   0  0  2  0  0  3  0  0  0  0  0  0
  188.0460  177.5330  135.3420 C   0  0  0  0  0  3  0  0  0  0  0  0
  193.5310  174.9620  135.8200 C   0  0  0  0  0  0  0  0  0  0  0  0
  195.0920  174.3910  137.7000 S   0  0  0  0  0  0  0  0  0  0  0  0
  194.5970  174.3980  135.1980 N   0  0  0  0  0  2  0  0  0  0  0  0
  193.6270  175.0430  137.2010 C   0  0  0  0  0  0  0  0  0  0  0  0
  191.3640  176.0040  135.9180 C   0  0  0  0  0  0  0  0  0  0  0  0
  192.6190  175.5950  137.9840 C   0  0  0  0  0  3  0  0  0  0  0  0
  191.4640  176.0860  137.3410 C   0  0  0  0  0  0  0  0  0  0  0  0
  190.8190  177.6020  143.7910 C   0  0  0  0  0  3  0  0  0  0  0  0
  188.3470  177.4070  142.4840 C   0  0  0  0  0  3  0  0  0  0  0  0
  188.4980  177.6960  146.6760 C   0  0  0  0  0  0  0  0  0  0  0  0
  189.6840  177.6960  145.9280 C   0  0  0  0  0  3  0  0  0  0  0  0
  189.6380  177.6010  144.5350 C   0  0  0  0  0  0  0  0  0  0  0  0
  187.2110  177.5030  144.6210 C   0  0  0  0  0  3  0  0  0  0  0  0
  188.3920  177.5030  143.8760 C   0  0  0  0  0  0  0  0  0  0  0  0
  187.2640  177.5990  146.0140 C   0  0  0  0  0  3  0  0  0  0  0  0
  189.5320  177.4070  141.7310 C   0  0  0  0  0  0  0  0  0  0  0  0
  190.7660  177.5050  142.3970 C   0  0  0  0  0  3  0  0  0  0  0  0
  188.5520  177.7970  148.1430 C   0  0  0  0  0  0  0  0  0  0  0  0
  187.5560  177.4730  148.8430 O   0  0  0  0  0  1  0  0  0  0  0  0
  189.7050  178.2530  148.7720 O   0  0  0  0  0  0  0  0  0  0  0  0
  1  6  1  0  0  0  0
  2 15  2  0  0  0  0
  2 19  1  0  0  0  0
  3 16  1  0  0  0  0
  4 19  2  0  0  0  0
  4 12  1  0  0  0  0
  5 11  1  0  0  0  0
  6 11  2  0  0  0  0
  7  5  2  0  0  0  0
  8 10  2  0  0  0  0
  9  3  2  0  0  0  0
 10  7  1  0  0  0  0
 11 30  1  0  0  0  0
 13 12  1  1  0  0  0
 13  1  1  0  0  0  0
 13  7  1  0  0  0  0
 14 12  2  0  0  0  0
 14  8  1  0  0  0  0
 15 18  1  0  0  0  0
 17 15  1  0  0  0  0
 17  3  1  0  0  0  0
 18 16  1  0  0  0  0
 18 20  2  0  0  0  0
 19 21  1  0  0  0  0
 21 20  1  0  0  0  0
 21  1  2  0  0  0  0
 22 26  1  0  0  0  0
 23 28  1  0  0  0  0
 24 32  1  0  0  0  0
 25 24  2  0  0  0  0
 26 25  1  0  0  0  0
 27 29  2  0  0  0  0
 28 26  2  0  0  0  0
 28 27  1  0  0  0  0
 29 24  1  0  0  0  0
 30 31  1  0  0  0  0
 30 23  2  0  0  0  0
 31 22  2  0  0  0  0
 32 34  2  0  0  0  0
 32 33  1  0  0  0  0
M  END
>  <MODEL>
8

>  <REMARK>
 VINA RESULT:     -10.5      4.487     10.389
  Name = 
  2 active torsions:
  status: ('A' for Active; 'I' for Inactive)
    1  A    between atoms: C_7  and  C_11
    2  A    between atoms: C_18  and  C_30
                            x       y       z     vdW  Elec       q    Type
                         _______ _______ _______ _____ _____    ______ ____

>  <TORSDO>
F 2

$$$$
=
 OpenBabel11052415553D

 34 40  0  0  0  0  0  0  0  0999 V2000
  187.1410  178.1250  141.9210 C   0  0  0  0  0  0  0  0  0  0  0  0
  185.5190  178.5580  145.2620 C   0  0  0  0  0  3  0  0  0  0  0  0
  187.7250  177.8730  147.9720 C   0  0  0  0  0  0  0  0  0  0  0  0
  184.6440  178.8450  143.0280 C   0  0  0  0  0  3  0  0  0  0  0  0
  187.4760  178.0630  139.1290 N   0  0  0  0  0  2  0  0  0  0  0  0
  188.4370  177.7520  141.3050 C   0  0  0  0  0  3  0  0  0  0  0  0
  186.2110  178.4280  139.6910 C   0  0  0  0  0  0  0  0  0  0  0  0
  183.9030  179.1100  139.4150 C   0  0  0  0  0  3  0  0  0  0  0  0
  187.9310  177.7970  149.2100 O   0  0  0  0  0  0  0  0  0  0  0  0
  185.1370  178.7550  138.8590 C   0  0  0  0  0  3  0  0  0  0  0  0
  188.5890  177.7240  139.9720 C   0  0  0  0  0  0  0  0  0  0  0  0
  184.8070  178.8150  141.6440 C   0  0  0  0  0  0  0  0  0  0  0  0
  186.0540  178.4550  141.0870 C   0  0  0  0  0  0  0  0  0  0  0  0
  183.7390  179.1400  140.8040 C   0  0  0  0  0  3  0  0  0  0  0  0
  186.5890  178.2330  146.0930 C   0  0  0  0  0  0  0  0  0  0  0  0
  188.8970  177.5440  146.7970 S   0  0  0  0  0  0  0  0  0  0  0  0
  186.5290  178.2320  147.4490 N   0  0  0  0  0  2  0  0  0  0  0  0
  187.8170  177.8780  145.5560 C   0  0  0  0  0  0  0  0  0  0  0  0
  185.7090  178.5210  143.8710 C   0  0  0  0  0  0  0  0  0  0  0  0
  188.0400  177.8300  144.1840 C   0  0  0  0  0  3  0  0  0  0  0  0
  186.9750  178.1550  143.3200 C   0  0  0  0  0  0  0  0  0  0  0  0
  192.3080  177.1280  139.4930 C   0  0  0  0  0  3  0  0  0  0  0  0
  189.9200  176.8540  138.0520 C   0  0  0  0  0  3  0  0  0  0  0  0
  193.5820  175.7820  136.2860 C   0  0  0  0  0  0  0  0  0  0  0  0
  193.5510  176.2780  137.5970 C   0  0  0  0  0  3  0  0  0  0  0  0
  192.3370  176.6350  138.1880 C   0  0  0  0  0  0  0  0  0  0  0  0
  191.1620  176.0030  136.1560 C   0  0  0  0  0  3  0  0  0  0  0  0
  191.1330  176.4970  137.4620 C   0  0  0  0  0  0  0  0  0  0  0  0
  192.3810  175.6480  135.5710 C   0  0  0  0  0  3  0  0  0  0  0  0
  189.8840  177.3510  139.3640 C   0  0  0  0  0  0  0  0  0  0  0  0
  191.0880  177.4840  140.0780 C   0  0  0  0  0  3  0  0  0  0  0  0
  194.8640  175.4070  135.6690 C   0  0  0  0  0  0  0  0  0  0  0  0
  194.9040  174.5430  134.7520 O   0  0  0  0  0  0  0  0  0  0  0  0
  196.0460  176.0030  136.0930 O   0  0  0  0  0  1  0  0  0  0  0  0
  1 21  1  0  0  0  0
  2 15  1  0  0  0  0
  3  9  2  0  0  0  0
  4 19  1  0  0  0  0
  5  7  1  0  0  0  0
  5 11  1  0  0  0  0
  6  1  1  0  0  0  0
  7 13  1  0  0  0  0
  8 14  2  0  0  0  0
 10  8  1  0  0  0  0
 10  7  2  0  0  0  0
 11  6  2  0  0  0  0
 12  4  2  0  0  0  0
 13 12  1  0  0  0  0
 13  1  2  0  0  0  0
 14 12  1  0  0  0  0
 15 17  1  0  0  0  0
 16  3  1  0  0  0  0
 17  3  1  0  0  0  0
 18 15  2  0  0  0  0
 18 16  1  0  0  0  0
 19  2  2  0  0  0  0
 20 18  1  0  0  0  0
 21 19  1  0  0  0  0
 21 20  2  0  0  0  0
 22 31  1  0  0  0  0
 23 30  1  0  0  0  0
 24 25  2  0  0  0  0
 25 26  1  0  0  0  0
 26 22  2  0  0  0  0
 27 28  1  0  0  0  0
 28 23  2  0  0  0  0
 28 26  1  0  0  0  0
 29 27  2  0  0  0  0
 29 24  1  0  0  0  0
 30 11  1  0  0  0  0
 30 31  2  0  0  0  0
 32 34  1  0  0  0  0
 32 24  1  0  0  0  0
 33 32  2  0  0  0  0
M  END
>  <MODEL>
9

>  <REMARK>
 VINA RESULT:     -10.3      3.066      4.987
  Name = 
  2 active torsions:
  status: ('A' for Active; 'I' for Inactive)
    1  A    between atoms: C_7  and  C_11
    2  A    between atoms: C_18  and  C_30
                            x       y       z     vdW  Elec       q    Type
                         _______ _______ _______ _____ _____    ______ ____

>  <TORSDO>
F 2

$$$$
