=
 OpenBabel11052414073D

 34 39  0  0  1  0  0  0  0  0999 V2000
  185.8970  178.0020  144.1030 C   0  0  0  0  0  0  0  0  0  0  0  0
  185.9950  178.6250  141.6480 C   0  0  2  0  0  3  0  0  0  0  0  0
  188.0150  177.6990  142.9170 C   0  0  0  0  0  0  0  0  0  0  0  0
  190.1770  177.2940  141.8020 C   0  0  0  0  0  0  0  0  0  0  0  0
  183.8510  178.5860  142.8910 C   0  0  0  0  0  3  0  0  0  0  0  0
  184.4970  178.7250  141.7340 C   0  0  0  0  0  3  0  0  0  0  0  0
  188.4280  177.7570  140.3350 C   0  0  0  0  0  2  0  0  0  0  0  0
  186.6430  178.0640  142.9010 C   0  0  0  0  0  0  0  0  0  0  0  0
  190.8370  177.1860  140.4920 C   0  0  0  0  0  2  0  0  0  0  0  0
  184.5860  178.2590  144.1210 C   0  0  0  0  0  3  0  0  0  0  0  0
  188.6430  177.3500  144.1460 C   0  0  0  0  0  0  0  0  0  0  0  0
  186.5160  177.6360  145.2940 C   0  0  0  0  0  3  0  0  0  0  0  0
  186.5080  179.8840  141.3920 F   0  0  0  0  0  0  0  0  0  0  0  0
  190.7210  176.9760  142.9320 N   0  0  0  0  0  0  0  0  0  0  0  0
  189.9720  177.0240  144.1650 C   0  0  0  0  0  0  0  0  0  0  0  0
  189.7140  177.5480  139.5130 C   0  0  1  0  0  3  0  0  0  0  0  0
  188.8280  177.6760  141.7270 N   0  0  0  0  0  0  0  0  0  0  0  0
  187.8700  177.3220  145.3150 C   0  0  0  0  0  3  0  0  0  0  0  0
  191.2690  177.0560  147.7460 C   0  0  0  0  0  0  0  0  0  0  0  0
  192.2180  176.0320  147.6930 C   0  0  0  0  0  3  0  0  0  0  0  0
  190.7130  176.6740  145.4060 C   0  0  0  0  0  0  0  0  0  0  0  0
  192.4260  175.3360  146.5010 C   0  0  0  0  0  3  0  0  0  0  0  0
  190.5260  177.3800  146.6070 C   0  0  0  0  0  3  0  0  0  0  0  0
  191.6820  175.6600  145.3630 C   0  0  0  0  0  3  0  0  0  0  0  0
  191.0710  177.7370  148.9000 F   0  0  0  0  0  0  0  0  0  0  0  0
  189.5220  176.4620  138.5670 N   0  0  0  0  0  2  0  0  0  0  0  0
  188.7910  177.0040  137.4340 C   0  0  0  0  0  2  0  0  0  0  0  0
  186.0900  178.2260  137.6810 C   0  0  0  0  0  1  0  0  0  0  0  0
  187.5460  176.2110  137.2120 C   0  0  0  0  0  0  0  0  0  0  0  0
  186.2690  176.7910  137.3160 C   0  0  0  0  0  0  0  0  0  0  0  0
  185.2880  174.6660  136.7320 C   0  0  0  0  0  3  0  0  0  0  0  0
  186.5320  174.1250  136.6290 N   0  0  0  0  0  0  0  0  0  0  0  0
  187.6510  174.8630  136.8570 C   0  0  0  0  0  3  0  0  0  0  0  0
  185.1360  176.0100  137.0760 C   0  0  0  0  0  3  0  0  0  0  0  0
  1 10  2  0  0  0  0
  1 12  1  0  0  0  0
  2 13  1  1  0  0  0
  2  6  1  0  0  0  0
  2  8  1  0  0  0  0
  3 11  1  0  0  0  0
  4 14  2  0  0  0  0
  5 10  1  0  0  0  0
  6  5  2  0  0  0  0
  7 17  1  0  0  0  0
  8  3  2  0  0  0  0
  8  1  1  0  0  0  0
  9  4  1  0  0  0  0
 11 15  2  0  0  0  0
 11 18  1  0  0  0  0
 12 18  2  0  0  0  0
 14 15  1  0  0  0  0
 15 21  1  0  0  0  0
 16 26  1  6  0  0  0
 16  7  1  0  0  0  0
 16  9  1  0  0  0  0
 17  4  1  0  0  0  0
 17  3  1  0  0  0  0
 19 25  1  0  0  0  0
 20 19  1  0  0  0  0
 21 23  1  0  0  0  0
 22 20  2  0  0  0  0
 23 19  2  0  0  0  0
 24 21  2  0  0  0  0
 24 22  1  0  0  0  0
 27 26  1  0  0  0  0
 29 30  1  0  0  0  0
 29 27  1  0  0  0  0
 30 28  1  0  0  0  0
 31 34  1  0  0  0  0
 32 31  2  0  0  0  0
 32 33  1  0  0  0  0
 33 29  2  0  0  0  0
 34 30  2  0  0  0  0
M  END
>  <MODEL>
1

>  <REMARK>
 VINA RESULT:     -10.1      0.000      0.000
  Name = 
  4 active torsions:
  status: ('A' for Active; 'I' for Inactive)
    1  A    between atoms: C_3  and  C_13
    2  A    between atoms: C_3  and  N_17
    3  A    between atoms: C_12  and  C_28
    4  A    between atoms: N_17  and  C_29
                            x       y       z     vdW  Elec       q    Type
                         _______ _______ _______ _____ _____    ______ ____

>  <TORSDO>
F 4

$$$$
=
 OpenBabel11052414073D

 34 39  0  0  1  0  0  0  0  0999 V2000
  189.3490  177.2660  146.6300 C   0  0  0  0  0  0  0  0  0  0  0  0
  191.1530  176.3230  145.1200 C   0  0  2  0  0  3  0  0  0  0  0  0
  188.9160  177.1820  144.2230 C   0  0  0  0  0  0  0  0  0  0  0  0
  188.4040  177.2030  141.8120 C   0  0  0  0  0  0  0  0  0  0  0  0
  191.5690  176.7540  147.5260 C   0  0  0  0  0  3  0  0  0  0  0  0
  192.0410  176.3970  146.3330 C   0  0  0  0  0  3  0  0  0  0  0  0
  190.6340  176.7440  142.3010 C   0  0  0  0  0  2  0  0  0  0  0  0
  189.7940  176.9680  145.3190 C   0  0  0  0  0  0  0  0  0  0  0  0
  188.9930  177.0680  140.4690 C   0  0  0  0  0  2  0  0  0  0  0  0
  190.1640  177.1570  147.6820 C   0  0  0  0  0  3  0  0  0  0  0  0
  187.5810  177.6190  144.4560 C   0  0  0  0  0  0  0  0  0  0  0  0
  188.0490  177.7150  146.8440 C   0  0  0  0  0  3  0  0  0  0  0  0
  190.9810  174.9930  144.7790 F   0  0  0  0  0  0  0  0  0  0  0  0
  187.1980  177.6060  142.0510 N   0  0  0  0  0  0  0  0  0  0  0  0
  186.7280  177.7990  143.4020 C   0  0  0  0  0  0  0  0  0  0  0  0
  190.4510  176.7050  140.7720 C   0  0  1  0  0  3  0  0  0  0  0  0
  189.3120  176.9620  142.8550 N   0  0  0  0  0  0  0  0  0  0  0  0
  187.1780  177.8820  145.7730 C   0  0  0  0  0  3  0  0  0  0  0  0
  183.1250  178.7660  142.6290 C   0  0  0  0  0  0  0  0  0  0  0  0
  182.6730  179.1370  143.8980 C   0  0  0  0  0  3  0  0  0  0  0  0
  185.3110  178.2260  143.5570 C   0  0  0  0  0  0  0  0  0  0  0  0
  183.5350  179.0660  144.9930 C   0  0  0  0  0  3  0  0  0  0  0  0
  184.4390  178.3200  142.4590 C   0  0  0  0  0  3  0  0  0  0  0  0
  184.8480  178.6190  144.8220 C   0  0  0  0  0  3  0  0  0  0  0  0
  182.2920  178.8410  141.5640 F   0  0  0  0  0  0  0  0  0  0  0  0
  191.3350  177.6730  140.1450 N   0  0  0  0  0  2  0  0  0  0  0  0
  191.2160  177.4940  138.7080 C   0  0  0  0  0  2  0  0  0  0  0  0
  190.0860  175.0660  137.4110 C   0  0  0  0  0  1  0  0  0  0  0  0
  192.0830  176.3610  138.2670 C   0  0  0  0  0  0  0  0  0  0  0  0
  191.5510  175.2190  137.6430 C   0  0  0  0  0  0  0  0  0  0  0  0
  193.7830  174.3270  137.4370 C   0  0  0  0  0  3  0  0  0  0  0  0
  194.2800  175.4430  138.0370 N   0  0  0  0  0  0  0  0  0  0  0  0
  193.4660  176.4520  138.4480 C   0  0  0  0  0  3  0  0  0  0  0  0
  192.4090  174.1970  137.2300 C   0  0  0  0  0  3  0  0  0  0  0  0
  1 12  1  0  0  0  0
  1 10  2  0  0  0  0
  2 13  1  1  0  0  0
  2  8  1  0  0  0  0
  2  6  1  0  0  0  0
  3 11  1  0  0  0  0
  3  8  2  0  0  0  0
  4 14  2  0  0  0  0
  4 17  1  0  0  0  0
  5 10  1  0  0  0  0
  6  5  2  0  0  0  0
  7 17  1  0  0  0  0
  8  1  1  0  0  0  0
  9 16  1  0  0  0  0
  9  4  1  0  0  0  0
 11 18  1  0  0  0  0
 14 15  1  0  0  0  0
 15 21  1  0  0  0  0
 15 11  2  0  0  0  0
 16 26  1  6  0  0  0
 16  7  1  0  0  0  0
 17  3  1  0  0  0  0
 18 12  2  0  0  0  0
 19 20  1  0  0  0  0
 20 22  2  0  0  0  0
 21 24  2  0  0  0  0
 23 19  2  0  0  0  0
 23 21  1  0  0  0  0
 24 22  1  0  0  0  0
 25 19  1  0  0  0  0
 27 26  1  0  0  0  0
 28 30  1  0  0  0  0
 29 33  1  0  0  0  0
 29 27  1  0  0  0  0
 30 29  2  0  0  0  0
 31 32  1  0  0  0  0
 32 33  2  0  0  0  0
 34 31  2  0  0  0  0
 34 30  1  0  0  0  0
M  END
>  <MODEL>
2

>  <REMARK>
 VINA RESULT:     -10.0      2.542      6.214
  Name = 
  4 active torsions:
  status: ('A' for Active; 'I' for Inactive)
    1  A    between atoms: C_3  and  C_13
    2  A    between atoms: C_3  and  N_17
    3  A    between atoms: C_12  and  C_28
    4  A    between atoms: N_17  and  C_29
                            x       y       z     vdW  Elec       q    Type
                         _______ _______ _______ _____ _____    ______ ____

>  <TORSDO>
F 4

$$$$
=
 OpenBabel11052414073D

 34 39  0  0  1  0  0  0  0  0999 V2000
  185.3100  178.1710  144.0240 C   0  0  0  0  0  0  0  0  0  0  0  0
  185.3850  178.7360  141.5540 C   0  0  2  0  0  3  0  0  0  0  0  0
  187.4390  177.9190  142.8440 C   0  0  0  0  0  0  0  0  0  0  0  0
  189.6140  177.5680  141.7390 C   0  0  0  0  0  0  0  0  0  0  0  0
  183.2440  178.6480  142.7990 C   0  0  0  0  0  3  0  0  0  0  0  0
  183.8840  178.7820  141.6390 C   0  0  0  0  0  3  0  0  0  0  0  0
  187.8500  177.9280  140.2620 C   0  0  0  0  0  2  0  0  0  0  0  0
  186.0530  178.2320  142.8200 C   0  0  0  0  0  0  0  0  0  0  0  0
  190.2790  177.4520  140.4310 C   0  0  0  0  0  2  0  0  0  0  0  0
  183.9900  178.3790  144.0360 C   0  0  0  0  0  3  0  0  0  0  0  0
  188.0790  177.6230  144.0820 C   0  0  0  0  0  0  0  0  0  0  0  0
  185.9420  177.8580  145.2230 C   0  0  0  0  0  3  0  0  0  0  0  0
  185.8510  180.0070  141.2680 F   0  0  0  0  0  0  0  0  0  0  0  0
  190.1700  177.2980  142.8760 N   0  0  0  0  0  0  0  0  0  0  0  0
  189.4190  177.3480  144.1070 C   0  0  0  0  0  0  0  0  0  0  0  0
  189.1430  177.7480  139.4440 C   0  0  1  0  0  3  0  0  0  0  0  0
  188.2520  177.8970  141.6550 N   0  0  0  0  0  0  0  0  0  0  0  0
  187.3060  177.5950  145.2510 C   0  0  0  0  0  3  0  0  0  0  0  0
  190.5770  177.3800  147.7360 C   0  0  0  0  0  0  0  0  0  0  0  0
  191.6960  176.5480  147.6640 C   0  0  0  0  0  3  0  0  0  0  0  0
  190.1720  177.0570  145.3570 C   0  0  0  0  0  0  0  0  0  0  0  0
  192.0640  175.9780  146.4440 C   0  0  0  0  0  3  0  0  0  0  0  0
  189.8230  177.6390  146.5870 C   0  0  0  0  0  3  0  0  0  0  0  0
  191.3100  176.2370  145.2960 C   0  0  0  0  0  3  0  0  0  0  0  0
  190.2230  177.9400  148.9180 F   0  0  0  0  0  0  0  0  0  0  0  0
  188.9930  176.6320  138.5260 N   0  0  0  0  0  2  0  0  0  0  0  0
  189.8930  176.8710  137.4110 C   0  0  0  0  0  2  0  0  0  0  0  0
  192.7870  176.4960  137.9890 C   0  0  0  0  0  1  0  0  0  0  0  0
  190.6080  175.6080  137.0610 C   0  0  0  0  0  0  0  0  0  0  0  0
  191.9730  175.4250  137.3460 C   0  0  0  0  0  0  0  0  0  0  0  0
  191.8390  173.2020  136.4170 C   0  0  0  0  0  3  0  0  0  0  0  0
  190.5170  173.3950  136.1560 N   0  0  0  0  0  0  0  0  0  0  0  0
  189.8940  174.5630  136.4650 C   0  0  0  0  0  3  0  0  0  0  0  0
  192.5880  174.2140  137.0180 C   0  0  0  0  0  3  0  0  0  0  0  0
  1 10  2  0  0  0  0
  1 12  1  0  0  0  0
  2 13  1  1  0  0  0
  2  6  1  0  0  0  0
  2  8  1  0  0  0  0
  3 11  1  0  0  0  0
  4 14  2  0  0  0  0
  5 10  1  0  0  0  0
  6  5  2  0  0  0  0
  7 17  1  0  0  0  0
  8  3  2  0  0  0  0
  8  1  1  0  0  0  0
  9  4  1  0  0  0  0
 11 15  2  0  0  0  0
 11 18  1  0  0  0  0
 12 18  2  0  0  0  0
 14 15  1  0  0  0  0
 15 21  1  0  0  0  0
 16 26  1  6  0  0  0
 16  7  1  0  0  0  0
 16  9  1  0  0  0  0
 17  4  1  0  0  0  0
 17  3  1  0  0  0  0
 19 25  1  0  0  0  0
 20 19  1  0  0  0  0
 21 23  1  0  0  0  0
 22 20  2  0  0  0  0
 23 19  2  0  0  0  0
 24 21  2  0  0  0  0
 24 22  1  0  0  0  0
 27 26  1  0  0  0  0
 29 30  1  0  0  0  0
 29 27  1  0  0  0  0
 30 28  1  0  0  0  0
 31 34  1  0  0  0  0
 32 31  2  0  0  0  0
 32 33  1  0  0  0  0
 33 29  2  0  0  0  0
 34 30  2  0  0  0  0
M  END
>  <MODEL>
3

>  <REMARK>
 VINA RESULT:     -10.0      1.760      2.603
  Name = 
  4 active torsions:
  status: ('A' for Active; 'I' for Inactive)
    1  A    between atoms: C_3  and  C_13
    2  A    between atoms: C_3  and  N_17
    3  A    between atoms: C_12  and  C_28
    4  A    between atoms: N_17  and  C_29
                            x       y       z     vdW  Elec       q    Type
                         _______ _______ _______ _____ _____    ______ ____

>  <TORSDO>
F 4

$$$$
=
 OpenBabel11052414073D

 34 39  0  0  1  0  0  0  0  0999 V2000
  187.3600  178.3840  147.4070 C   0  0  0  0  0  0  0  0  0  0  0  0
  189.5520  177.2900  146.7560 C   0  0  2  0  0  3  0  0  0  0  0  0
  187.6760  177.7270  145.0720 C   0  0  0  0  0  0  0  0  0  0  0  0
  187.9150  177.1630  142.6840 C   0  0  0  0  0  0  0  0  0  0  0  0
  189.2150  178.2830  149.0030 C   0  0  0  0  0  3  0  0  0  0  0  0
  190.0310  177.7110  148.1190 C   0  0  0  0  0  3  0  0  0  0  0  0
  189.9010  177.0240  143.8930 C   0  0  0  0  0  2  0  0  0  0  0  0
  188.1850  177.8410  146.3920 C   0  0  0  0  0  0  0  0  0  0  0  0
  188.8840  176.7840  141.6420 C   0  0  0  0  0  2  0  0  0  0  0  0
  187.8220  178.5850  148.6450 C   0  0  0  0  0  3  0  0  0  0  0  0
  186.3250  178.0850  144.7970 C   0  0  0  0  0  0  0  0  0  0  0  0
  186.0490  178.7530  147.1220 C   0  0  0  0  0  3  0  0  0  0  0  0
  189.5140  175.9080  146.7090 F   0  0  0  0  0  0  0  0  0  0  0  0
  186.6870  177.5010  142.4610 N   0  0  0  0  0  0  0  0  0  0  0  0
  185.8270  177.9490  143.5300 C   0  0  0  0  0  0  0  0  0  0  0  0
  190.1890  176.6280  142.4320 C   0  0  1  0  0  3  0  0  0  0  0  0
  188.4700  177.2430  143.9710 N   0  0  0  0  0  0  0  0  0  0  0  0
  185.5390  178.5990  145.8380 C   0  0  0  0  0  3  0  0  0  0  0  0
  182.6740  178.6350  141.5070 C   0  0  0  0  0  0  0  0  0  0  0  0
  181.7810  178.9930  142.5200 C   0  0  0  0  0  3  0  0  0  0  0  0
  184.4230  178.2730  143.1620 C   0  0  0  0  0  0  0  0  0  0  0  0
  182.2050  179.0030  143.8500 C   0  0  0  0  0  3  0  0  0  0  0  0
  183.9890  178.2840  141.8250 C   0  0  0  0  0  3  0  0  0  0  0  0
  183.5200  178.6510  144.1680 C   0  0  0  0  0  3  0  0  0  0  0  0
  182.2660  178.6320  140.2150 F   0  0  0  0  0  0  0  0  0  0  0  0
  191.2040  177.5050  141.8740 N   0  0  0  0  0  2  0  0  0  0  0  0
  190.8000  177.8180  140.5140 C   0  0  0  0  0  2  0  0  0  0  0  0
  189.7570  176.4820  138.0680 C   0  0  0  0  0  1  0  0  0  0  0  0
  191.7050  177.1280  139.5480 C   0  0  0  0  0  0  0  0  0  0  0  0
  191.2140  176.5070  138.3850 C   0  0  0  0  0  0  0  0  0  0  0  0
  193.4740  175.9130  137.7840 C   0  0  0  0  0  3  0  0  0  0  0  0
  193.9300  176.5250  138.9100 N   0  0  0  0  0  0  0  0  0  0  0  0
  193.0830  177.1280  139.7860 C   0  0  0  0  0  3  0  0  0  0  0  0
  192.1070  175.8950  137.5020 C   0  0  0  0  0  3  0  0  0  0  0  0
  1 10  2  0  0  0  0
  2 13  1  1  0  0  0
  2  6  1  0  0  0  0
  3  8  2  0  0  0  0
  4 17  1  0  0  0  0
  6  5  2  0  0  0  0
  7 17  1  0  0  0  0
  8  2  1  0  0  0  0
  8  1  1  0  0  0  0
  9 16  1  0  0  0  0
  9  4  1  0  0  0  0
 10  5  1  0  0  0  0
 11  3  1  0  0  0  0
 11 18  1  0  0  0  0
 12  1  1  0  0  0  0
 14  4  2  0  0  0  0
 14 15  1  0  0  0  0
 15 11  2  0  0  0  0
 16 26  1  6  0  0  0
 16  7  1  0  0  0  0
 17  3  1  0  0  0  0
 18 12  2  0  0  0  0
 19 23  2  0  0  0  0
 19 20  1  0  0  0  0
 20 22  2  0  0  0  0
 21 15  1  0  0  0  0
 21 24  2  0  0  0  0
 22 24  1  0  0  0  0
 23 21  1  0  0  0  0
 25 19  1  0  0  0  0
 27 26  1  0  0  0  0
 28 30  1  0  0  0  0
 29 33  1  0  0  0  0
 29 27  1  0  0  0  0
 30 29  2  0  0  0  0
 31 32  1  0  0  0  0
 32 33  2  0  0  0  0
 34 31  2  0  0  0  0
 34 30  1  0  0  0  0
M  END
>  <MODEL>
4

>  <REMARK>
 VINA RESULT:     -10.0      2.665      6.513
  Name = 
  4 active torsions:
  status: ('A' for Active; 'I' for Inactive)
    1  A    between atoms: C_3  and  C_13
    2  A    between atoms: C_3  and  N_17
    3  A    between atoms: C_12  and  C_28
    4  A    between atoms: N_17  and  C_29
                            x       y       z     vdW  Elec       q    Type
                         _______ _______ _______ _____ _____    ______ ____

>  <TORSDO>
F 4

$$$$
=
 OpenBabel11052414073D

 34 39  0  0  1  0  0  0  0  0999 V2000
  185.4810  178.1430  143.8250 C   0  0  0  0  0  0  0  0  0  0  0  0
  185.6970  178.6060  141.3420 C   0  0  2  0  0  3  0  0  0  0  0  0
  187.6790  177.8700  142.7850 C   0  0  0  0  0  0  0  0  0  0  0  0
  189.9190  177.5020  141.8250 C   0  0  0  0  0  0  0  0  0  0  0  0
  183.4860  178.5420  142.4620 C   0  0  0  0  0  3  0  0  0  0  0  0
  184.1930  178.6360  141.3370 C   0  0  0  0  0  3  0  0  0  0  0  0
  188.2420  177.7770  140.2330 C   0  0  0  0  0  2  0  0  0  0  0  0
  186.2940  178.1630  142.6660 C   0  0  0  0  0  0  0  0  0  0  0  0
  190.6620  177.3400  140.5650 C   0  0  0  0  0  2  0  0  0  0  0  0
  184.1600  178.3340  143.7510 C   0  0  0  0  0  3  0  0  0  0  0  0
  188.2470  177.6340  144.0690 C   0  0  0  0  0  0  0  0  0  0  0  0
  186.0440  177.8890  145.0720 C   0  0  0  0  0  3  0  0  0  0  0  0
  186.1650  179.8700  141.0300 F   0  0  0  0  0  0  0  0  0  0  0  0
  190.4090  177.2860  143.0030 N   0  0  0  0  0  0  0  0  0  0  0  0
  189.5870  177.3780  144.1850 C   0  0  0  0  0  0  0  0  0  0  0  0
  189.5830  177.5800  139.5010 C   0  0  1  0  0  3  0  0  0  0  0  0
  188.5610  177.8090  141.6470 N   0  0  0  0  0  0  0  0  0  0  0  0
  187.4070  177.6450  145.1910 C   0  0  0  0  0  3  0  0  0  0  0  0
  191.9910  176.0910  146.8440 C   0  0  0  0  0  0  0  0  0  0  0  0
  191.4500  176.6720  147.9940 C   0  0  0  0  0  3  0  0  0  0  0  0
  190.2670  177.1490  145.4880 C   0  0  0  0  0  0  0  0  0  0  0  0
  190.3160  177.4810  147.8980 C   0  0  0  0  0  3  0  0  0  0  0  0
  191.3980  176.3220  145.5990 C   0  0  0  0  0  3  0  0  0  0  0  0
  189.7250  177.7120  146.6530 C   0  0  0  0  0  3  0  0  0  0  0  0
  193.0860  175.3000  146.9360 F   0  0  0  0  0  0  0  0  0  0  0  0
  189.5000  176.4250  138.6230 N   0  0  0  0  0  2  0  0  0  0  0  0
  190.3160  176.7140  137.4560 C   0  0  0  0  0  2  0  0  0  0  0  0
  190.3520  173.7940  136.8840 C   0  0  0  0  0  1  0  0  0  0  0  0
  191.5770  175.9170  137.5130 C   0  0  0  0  0  0  0  0  0  0  0  0
  191.5970  174.5390  137.2300 C   0  0  0  0  0  0  0  0  0  0  0  0
  193.9810  174.5290  137.5960 C   0  0  0  0  0  3  0  0  0  0  0  0
  193.9430  175.8630  137.8590 N   0  0  0  0  0  0  0  0  0  0  0  0
  192.7780  176.5630  137.8220 C   0  0  0  0  0  3  0  0  0  0  0  0
  192.8080  173.8450  137.2760 C   0  0  0  0  0  3  0  0  0  0  0  0
  1 12  1  0  0  0  0
  2 13  1  1  0  0  0
  2  8  1  0  0  0  0
  3 11  1  0  0  0  0
  4 14  2  0  0  0  0
  5 10  1  0  0  0  0
  6  2  1  0  0  0  0
  6  5  2  0  0  0  0
  7 17  1  0  0  0  0
  8  3  2  0  0  0  0
  8  1  1  0  0  0  0
  9  4  1  0  0  0  0
 10  1  2  0  0  0  0
 11 15  2  0  0  0  0
 11 18  1  0  0  0  0
 12 18  2  0  0  0  0
 14 15  1  0  0  0  0
 15 21  1  0  0  0  0
 16 26  1  6  0  0  0
 16  7  1  0  0  0  0
 16  9  1  0  0  0  0
 17  4  1  0  0  0  0
 17  3  1  0  0  0  0
 19 25  1  0  0  0  0
 19 20  1  0  0  0  0
 21 23  1  0  0  0  0
 21 24  2  0  0  0  0
 22 20  2  0  0  0  0
 23 19  2  0  0  0  0
 24 22  1  0  0  0  0
 27 29  1  0  0  0  0
 27 26  1  0  0  0  0
 28 30  1  0  0  0  0
 29 33  1  0  0  0  0
 30 34  1  0  0  0  0
 30 29  2  0  0  0  0
 31 32  1  0  0  0  0
 33 32  2  0  0  0  0
 34 31  2  0  0  0  0
M  END
>  <MODEL>
5

>  <REMARK>
 VINA RESULT:     -10.0      2.012      3.277
  Name = 
  4 active torsions:
  status: ('A' for Active; 'I' for Inactive)
    1  A    between atoms: C_3  and  C_13
    2  A    between atoms: C_3  and  N_17
    3  A    between atoms: C_12  and  C_28
    4  A    between atoms: N_17  and  C_29
                            x       y       z     vdW  Elec       q    Type
                         _______ _______ _______ _____ _____    ______ ____

>  <TORSDO>
F 4

$$$$
=
 OpenBabel11052414073D

 34 39  0  0  1  0  0  0  0  0999 V2000
  185.3180  178.2050  144.4170 C   0  0  0  0  0  0  0  0  0  0  0  0
  185.2490  178.8100  141.9560 C   0  0  2  0  0  3  0  0  0  0  0  0
  187.3720  177.9630  143.1090 C   0  0  0  0  0  0  0  0  0  0  0  0
  189.4760  177.6220  141.8710 C   0  0  0  0  0  0  0  0  0  0  0  0
  183.1850  178.7100  143.3250 C   0  0  0  0  0  3  0  0  0  0  0  0
  183.7560  178.8600  142.1310 C   0  0  0  0  0  3  0  0  0  0  0  0
  187.6290  178.0140  140.5070 C   0  0  0  0  0  2  0  0  0  0  0  0
  185.9890  178.2820  143.1720 C   0  0  0  0  0  0  0  0  0  0  0  0
  190.0620  177.5250  140.5240 C   0  0  0  0  0  2  0  0  0  0  0  0
  184.0020  178.4180  144.5110 C   0  0  0  0  0  3  0  0  0  0  0  0
  188.0830  177.6450  144.3010 C   0  0  0  0  0  0  0  0  0  0  0  0
  186.0180  177.8700  145.5710 C   0  0  0  0  0  3  0  0  0  0  0  0
  185.7040  180.0830  141.6630 F   0  0  0  0  0  0  0  0  0  0  0  0
  190.0970  177.3310  142.9680 N   0  0  0  0  0  0  0  0  0  0  0  0
  189.4210  177.3650  144.2430 C   0  0  0  0  0  0  0  0  0  0  0  0
  188.8700  177.8410  139.6120 C   0  0  1  0  0  3  0  0  0  0  0  0
  188.1130  177.9580  141.8730 N   0  0  0  0  0  0  0  0  0  0  0  0
  187.3810  177.6010  145.5140 C   0  0  0  0  0  3  0  0  0  0  0  0
  192.0430  175.8300  146.5400 C   0  0  0  0  0  0  0  0  0  0  0  0
  191.7030  176.4180  147.7600 C   0  0  0  0  0  3  0  0  0  0  0  0
  190.2450  177.0500  145.4400 C   0  0  0  0  0  0  0  0  0  0  0  0
  190.6320  177.3120  147.8290 C   0  0  0  0  0  3  0  0  0  0  0  0
  191.3140  176.1380  145.3880 C   0  0  0  0  0  3  0  0  0  0  0  0
  189.9040  177.6200  146.6760 C   0  0  0  0  0  3  0  0  0  0  0  0
  193.0770  174.9570  146.4730 F   0  0  0  0  0  0  0  0  0  0  0  0
  188.6610  176.7410  138.6860 N   0  0  0  0  0  2  0  0  0  0  0  0
  187.9610  177.2800  137.5310 C   0  0  0  0  0  2  0  0  0  0  0  0
  185.1730  178.2100  137.9940 C   0  0  0  0  0  1  0  0  0  0  0  0
  186.7820  176.4220  137.2110 C   0  0  0  0  0  0  0  0  0  0  0  0
  185.4640  176.8650  137.4170 C   0  0  0  0  0  0  0  0  0  0  0  0
  184.6520  174.7710  136.5370 C   0  0  0  0  0  3  0  0  0  0  0  0
  185.9350  174.3620  136.3380 N   0  0  0  0  0  0  0  0  0  0  0  0
  186.9920  175.1550  136.6580 C   0  0  0  0  0  3  0  0  0  0  0  0
  184.3960  176.0310  137.0790 C   0  0  0  0  0  3  0  0  0  0  0  0
  1 10  2  0  0  0  0
  1 12  1  0  0  0  0
  2 13  1  1  0  0  0
  2  6  1  0  0  0  0
  2  8  1  0  0  0  0
  3  8  2  0  0  0  0
  3 11  1  0  0  0  0
  4 17  1  0  0  0  0
  4 14  2  0  0  0  0
  5 10  1  0  0  0  0
  6  5  2  0  0  0  0
  7 17  1  0  0  0  0
  8  1  1  0  0  0  0
  9  4  1  0  0  0  0
 11 18  1  0  0  0  0
 14 15  1  0  0  0  0
 15 11  2  0  0  0  0
 15 21  1  0  0  0  0
 16 26  1  6  0  0  0
 16  7  1  0  0  0  0
 16  9  1  0  0  0  0
 17  3  1  0  0  0  0
 18 12  2  0  0  0  0
 19 20  1  0  0  0  0
 20 22  2  0  0  0  0
 21 24  2  0  0  0  0
 23 21  1  0  0  0  0
 23 19  2  0  0  0  0
 24 22  1  0  0  0  0
 25 19  1  0  0  0  0
 27 26  1  0  0  0  0
 29 30  1  0  0  0  0
 29 27  1  0  0  0  0
 30 28  1  0  0  0  0
 31 34  1  0  0  0  0
 32 31  2  0  0  0  0
 32 33  1  0  0  0  0
 33 29  2  0  0  0  0
 34 30  2  0  0  0  0
M  END
>  <MODEL>
6

>  <REMARK>
 VINA RESULT:      -9.8      1.030      1.324
  Name = 
  4 active torsions:
  status: ('A' for Active; 'I' for Inactive)
    1  A    between atoms: C_3  and  C_13
    2  A    between atoms: C_3  and  N_17
    3  A    between atoms: C_12  and  C_28
    4  A    between atoms: N_17  and  C_29
                            x       y       z     vdW  Elec       q    Type
                         _______ _______ _______ _____ _____    ______ ____

>  <TORSDO>
F 4

$$$$
=
 OpenBabel11052414073D

 34 39  0  0  1  0  0  0  0  0999 V2000
  187.3310  177.7240  144.5260 C   0  0  0  0  0  0  0  0  0  0  0  0
  185.1220  178.9140  144.1620 C   0  0  2  0  0  3  0  0  0  0  0  0
  186.6560  178.2340  142.2290 C   0  0  0  0  0  0  0  0  0  0  0  0
  186.0420  178.6420  139.8770 C   0  0  0  0  0  0  0  0  0  0  0  0
  185.7850  178.0630  146.3940 C   0  0  0  0  0  3  0  0  0  0  0  0
  184.8620  178.6240  145.6150 C   0  0  0  0  0  3  0  0  0  0  0  0
  184.3030  178.9990  141.3840 C   0  0  0  0  0  2  0  0  0  0  0  0
  186.3750  178.2480  143.6220 C   0  0  0  0  0  0  0  0  0  0  0  0
  184.9320  179.0100  138.9840 C   0  0  0  0  0  2  0  0  0  0  0  0
  187.0770  177.6430  145.8350 C   0  0  0  0  0  3  0  0  0  0  0  0
  187.9180  177.7670  141.7640 C   0  0  0  0  0  0  0  0  0  0  0  0
  188.5510  177.2490  144.0570 C   0  0  0  0  0  3  0  0  0  0  0  0
  185.2260  180.2840  143.9960 F   0  0  0  0  0  0  0  0  0  0  0  0
  187.1950  178.2080  139.4810 N   0  0  0  0  0  0  0  0  0  0  0  0
  188.1990  177.7800  140.4250 C   0  0  0  0  0  0  0  0  0  0  0  0
  183.7910  179.3100  139.9650 C   0  0  1  0  0  3  0  0  0  0  0  0
  185.7130  178.6910  141.2410 N   0  0  0  0  0  0  0  0  0  0  0  0
  188.8420  177.2770  142.6980 C   0  0  0  0  0  3  0  0  0  0  0  0
  191.9240  177.1280  139.9660 C   0  0  0  0  0  0  0  0  0  0  0  0
  191.9390  176.5720  138.6850 C   0  0  0  0  0  3  0  0  0  0  0  0
  189.5000  177.3370  139.8560 C   0  0  0  0  0  0  0  0  0  0  0  0
  190.7440  176.4070  137.9820 C   0  0  0  0  0  3  0  0  0  0  0  0
  190.7120  177.5150  140.5450 C   0  0  0  0  0  3  0  0  0  0  0  0
  189.5330  176.7940  138.5620 C   0  0  0  0  0  3  0  0  0  0  0  0
  193.0830  177.2950  140.6470 F   0  0  0  0  0  0  0  0  0  0  0  0
  182.6500  178.4650  139.6570 N   0  0  0  0  0  2  0  0  0  0  0  0
  182.0270  178.1090  140.9200 C   0  0  0  0  0  2  0  0  0  0  0  0
  181.4490  178.9560  143.7130 C   0  0  0  0  0  1  0  0  0  0  0  0
  180.9410  179.0840  141.2380 C   0  0  0  0  0  0  0  0  0  0  0  0
  180.6760  179.4940  142.5570 C   0  0  0  0  0  0  0  0  0  0  0  0
  178.9330  180.9400  141.7250 C   0  0  0  0  0  3  0  0  0  0  0  0
  179.2090  180.5360  140.4560 N   0  0  0  0  0  0  0  0  0  0  0  0
  180.1890  179.6310  140.1940 C   0  0  0  0  0  3  0  0  0  0  0  0
  179.6630  180.4260  142.7980 C   0  0  0  0  0  3  0  0  0  0  0  0
  1 10  2  0  0  0  0
  2 13  1  1  0  0  0
  2  6  1  0  0  0  0
  3  8  2  0  0  0  0
  4 17  1  0  0  0  0
  6  5  2  0  0  0  0
  8  2  1  0  0  0  0
  8  1  1  0  0  0  0
  9  4  1  0  0  0  0
  9 16  1  0  0  0  0
 10  5  1  0  0  0  0
 11  3  1  0  0  0  0
 11 18  1  0  0  0  0
 12  1  1  0  0  0  0
 14  4  2  0  0  0  0
 14 15  1  0  0  0  0
 15 11  2  0  0  0  0
 16 26  1  6  0  0  0
 16  7  1  0  0  0  0
 17  7  1  0  0  0  0
 17  3  1  0  0  0  0
 18 12  2  0  0  0  0
 19 23  1  0  0  0  0
 19 25  1  0  0  0  0
 20 19  2  0  0  0  0
 21 15  1  0  0  0  0
 21 23  2  0  0  0  0
 22 24  2  0  0  0  0
 22 20  1  0  0  0  0
 24 21  1  0  0  0  0
 26 27  1  0  0  0  0
 27 29  1  0  0  0  0
 29 30  1  0  0  0  0
 30 34  2  0  0  0  0
 30 28  1  0  0  0  0
 31 34  1  0  0  0  0
 32 31  2  0  0  0  0
 33 32  1  0  0  0  0
 33 29  2  0  0  0  0
M  END
>  <MODEL>
7

>  <REMARK>
 VINA RESULT:      -9.6      3.286      6.327
  Name = 
  4 active torsions:
  status: ('A' for Active; 'I' for Inactive)
    1  A    between atoms: C_3  and  C_13
    2  A    between atoms: C_3  and  N_17
    3  A    between atoms: C_12  and  C_28
    4  A    between atoms: N_17  and  C_29
                            x       y       z     vdW  Elec       q    Type
                         _______ _______ _______ _____ _____    ______ ____

>  <TORSDO>
F 4

$$$$
=
 OpenBabel11052414073D

 34 39  0  0  1  0  0  0  0  0999 V2000
  188.1880  178.3370  139.5580 C   0  0  0  0  0  0  0  0  0  0  0  0
  186.2580  178.2530  137.9170 C   0  0  2  0  0  3  0  0  0  0  0  0
  185.9090  178.4120  140.4470 C   0  0  0  0  0  0  0  0  0  0  0  0
  183.6590  178.5580  141.4430 C   0  0  0  0  0  0  0  0  0  0  0  0
  188.6030  178.4960  137.1500 C   0  0  0  0  0  3  0  0  0  0  0  0
  187.3030  178.4700  136.8580 C   0  0  0  0  0  3  0  0  0  0  0  0
  183.6880  178.8220  139.1290 C   0  0  0  0  0  2  0  0  0  0  0  0
  186.7900  178.3720  139.3340 C   0  0  0  0  0  0  0  0  0  0  0  0
  182.2380  178.7980  141.1430 C   0  0  0  0  0  2  0  0  0  0  0  0
  189.0560  178.3800  138.5430 C   0  0  0  0  0  3  0  0  0  0  0  0
  186.4320  178.3400  141.7700 C   0  0  0  0  0  0  0  0  0  0  0  0
  188.6880  178.2920  140.8560 C   0  0  0  0  0  3  0  0  0  0  0  0
  185.7050  176.9960  137.7420 F   0  0  0  0  0  0  0  0  0  0  0  0
  184.1610  178.4980  142.6340 N   0  0  0  0  0  0  0  0  0  0  0  0
  185.5810  178.3510  142.8420 C   0  0  0  0  0  0  0  0  0  0  0  0
  182.2290  178.9130  139.6130 C   0  0  1  0  0  3  0  0  0  0  0  0
  184.4790  178.5100  140.3050 N   0  0  0  0  0  0  0  0  0  0  0  0
  187.8230  178.2860  141.9430 C   0  0  0  0  0  3  0  0  0  0  0  0
  187.5810  177.4310  145.9500 C   0  0  0  0  0  0  0  0  0  0  0  0
  186.8000  178.0150  146.9500 C   0  0  0  0  0  3  0  0  0  0  0  0
  186.0400  178.2530  144.2530 C   0  0  0  0  0  0  0  0  0  0  0  0
  185.6360  178.7070  146.6100 C   0  0  0  0  0  3  0  0  0  0  0  0
  187.1990  177.5430  144.6100 C   0  0  0  0  0  3  0  0  0  0  0  0
  185.2560  178.8200  145.2700 C   0  0  0  0  0  3  0  0  0  0  0  0
  188.7070  176.7530  146.2790 F   0  0  0  0  0  0  0  0  0  0  0  0
  181.6600  180.1920  139.2240 N   0  0  0  0  0  2  0  0  0  0  0  0
  181.0950  180.0240  137.8960 C   0  0  0  0  0  2  0  0  0  0  0  0
  180.5010  180.2580  134.9900 C   0  0  0  0  0  1  0  0  0  0  0  0
  181.0040  181.3500  137.2160 C   0  0  0  0  0  0  0  0  0  0  0  0
  180.7100  181.4620  135.8450 C   0  0  0  0  0  0  0  0  0  0  0  0
  180.8060  183.8640  136.0510 C   0  0  0  0  0  3  0  0  0  0  0  0
  181.0820  183.7360  137.3770 N   0  0  0  0  0  0  0  0  0  0  0  0
  181.1800  182.5150  137.9680 C   0  0  0  0  0  3  0  0  0  0  0  0
  180.6140  182.7280  135.2630 C   0  0  0  0  0  3  0  0  0  0  0  0
  1 12  1  0  0  0  0
  2 13  1  1  0  0  0
  2  8  1  0  0  0  0
  3 11  1  0  0  0  0
  4 14  2  0  0  0  0
  5 10  1  0  0  0  0
  6  5  2  0  0  0  0
  6  2  1  0  0  0  0
  7 16  1  0  0  0  0
  7 17  1  0  0  0  0
  8  1  1  0  0  0  0
  8  3  2  0  0  0  0
  9  4  1  0  0  0  0
 10  1  2  0  0  0  0
 11 18  1  0  0  0  0
 11 15  2  0  0  0  0
 12 18  2  0  0  0  0
 14 15  1  0  0  0  0
 15 21  1  0  0  0  0
 16 26  1  1  0  0  0
 16  9  1  0  0  0  0
 17  3  1  0  0  0  0
 17  4  1  0  0  0  0
 19 25  1  0  0  0  0
 19 20  1  0  0  0  0
 21 23  1  0  0  0  0
 21 24  2  0  0  0  0
 22 20  2  0  0  0  0
 23 19  2  0  0  0  0
 24 22  1  0  0  0  0
 27 26  1  0  0  0  0
 28 30  1  0  0  0  0
 29 27  1  0  0  0  0
 29 33  1  0  0  0  0
 30 29  2  0  0  0  0
 31 32  1  0  0  0  0
 32 33  2  0  0  0  0
 34 30  1  0  0  0  0
 34 31  2  0  0  0  0
M  END
>  <MODEL>
8

>  <REMARK>
 VINA RESULT:      -9.4      4.260      6.622
  Name = 
  4 active torsions:
  status: ('A' for Active; 'I' for Inactive)
    1  A    between atoms: C_3  and  C_13
    2  A    between atoms: C_3  and  N_17
    3  A    between atoms: C_12  and  C_28
    4  A    between atoms: N_17  and  C_29
                            x       y       z     vdW  Elec       q    Type
                         _______ _______ _______ _____ _____    ______ ____

>  <TORSDO>
F 4

$$$$
=
 OpenBabel11052414073D

 34 39  0  0  1  0  0  0  0  0999 V2000
  186.3190  178.0990  145.7690 C   0  0  0  0  0  0  0  0  0  0  0  0
  188.3090  177.3580  144.3850 C   0  0  2  0  0  3  0  0  0  0  0  0
  186.1080  178.1280  143.3320 C   0  0  0  0  0  0  0  0  0  0  0  0
  185.8100  178.2570  140.8880 C   0  0  0  0  0  0  0  0  0  0  0  0
  188.4810  177.6740  146.8380 C   0  0  0  0  0  3  0  0  0  0  0  0
  189.0790  177.4170  145.6760 C   0  0  0  0  0  3  0  0  0  0  0  0
  188.0140  177.9100  141.5560 C   0  0  0  0  0  2  0  0  0  0  0  0
  186.8980  177.9060  144.4910 C   0  0  0  0  0  0  0  0  0  0  0  0
  186.5230  178.2370  139.6000 C   0  0  0  0  0  2  0  0  0  0  0  0
  187.0450  177.9800  146.8850 C   0  0  0  0  0  3  0  0  0  0  0  0
  184.7310  178.4670  143.4640 C   0  0  0  0  0  0  0  0  0  0  0  0
  184.9790  178.4540  145.8860 C   0  0  0  0  0  3  0  0  0  0  0  0
  188.2580  176.0430  143.9600 F   0  0  0  0  0  0  0  0  0  0  0  0
  184.5640  178.5690  141.0360 N   0  0  0  0  0  0  0  0  0  0  0  0
  183.9640  178.6550  142.3460 C   0  0  0  0  0  0  0  0  0  0  0  0
  187.9700  177.9470  140.0170 C   0  0  1  0  0  3  0  0  0  0  0  0
  186.6370  178.0130  141.9970 N   0  0  0  0  0  0  0  0  0  0  0  0
  184.1970  178.6280  144.7500 C   0  0  0  0  0  3  0  0  0  0  0  0
  180.3890  179.1250  143.5730 C   0  0  0  0  0  0  0  0  0  0  0  0
  179.7540  179.5220  142.3940 C   0  0  0  0  0  3  0  0  0  0  0  0
  182.5140  178.9830  142.3930 C   0  0  0  0  0  0  0  0  0  0  0  0
  180.4890  179.6400  141.2130 C   0  0  0  0  0  3  0  0  0  0  0  0
  181.7590  178.8500  143.5710 C   0  0  0  0  0  3  0  0  0  0  0  0
  181.8600  179.3660  141.2120 C   0  0  0  0  0  3  0  0  0  0  0  0
  179.6760  179.0030  144.7190 F   0  0  0  0  0  0  0  0  0  0  0  0
  188.8390  179.0030  139.5240 N   0  0  0  0  0  2  0  0  0  0  0  0
  189.0550  178.7550  138.1090 C   0  0  0  0  0  2  0  0  0  0  0  0
  187.7860  176.7010  136.3700 C   0  0  0  0  0  1  0  0  0  0  0  0
  189.6580  177.4020  137.9210 C   0  0  0  0  0  0  0  0  0  0  0  0
  189.0660  176.4350  137.0890 C   0  0  0  0  0  0  0  0  0  0  0  0
  190.8820  174.9300  137.5930 C   0  0  0  0  0  3  0  0  0  0  0  0
  191.4440  175.8810  138.3880 N   0  0  0  0  0  0  0  0  0  0  0  0
  190.8640  177.0990  138.5600 C   0  0  0  0  0  3  0  0  0  0  0  0
  189.6830  175.1930  136.9290 C   0  0  0  0  0  3  0  0  0  0  0  0
  1 12  1  0  0  0  0
  1 10  2  0  0  0  0
  2 13  1  1  0  0  0
  2  8  1  0  0  0  0
  2  6  1  0  0  0  0
  3 11  1  0  0  0  0
  3  8  2  0  0  0  0
  4 14  2  0  0  0  0
  4 17  1  0  0  0  0
  5 10  1  0  0  0  0
  6  5  2  0  0  0  0
  7 17  1  0  0  0  0
  8  1  1  0  0  0  0
  9 16  1  0  0  0  0
  9  4  1  0  0  0  0
 11 18  1  0  0  0  0
 14 15  1  0  0  0  0
 15 21  1  0  0  0  0
 15 11  2  0  0  0  0
 16 26  1  1  0  0  0
 16  7  1  0  0  0  0
 17  3  1  0  0  0  0
 18 12  2  0  0  0  0
 19 25  1  0  0  0  0
 20 19  2  0  0  0  0
 21 23  2  0  0  0  0
 22 20  1  0  0  0  0
 23 19  1  0  0  0  0
 24 22  2  0  0  0  0
 24 21  1  0  0  0  0
 27 26  1  0  0  0  0
 28 30  1  0  0  0  0
 29 27  1  0  0  0  0
 29 33  1  0  0  0  0
 30 29  2  0  0  0  0
 31 32  1  0  0  0  0
 32 33  2  0  0  0  0
 34 30  1  0  0  0  0
 34 31  2  0  0  0  0
M  END
>  <MODEL>
9

>  <REMARK>
 VINA RESULT:      -9.4      2.584      6.457
  Name = 
  4 active torsions:
  status: ('A' for Active; 'I' for Inactive)
    1  A    between atoms: C_3  and  C_13
    2  A    between atoms: C_3  and  N_17
    3  A    between atoms: C_12  and  C_28
    4  A    between atoms: N_17  and  C_29
                            x       y       z     vdW  Elec       q    Type
                         _______ _______ _______ _____ _____    ______ ____

>  <TORSDO>
F 4

$$$$
