=
 OpenBabel11052412483D

 25 29  0  0  0  0  0  0  0  0999 V2000
  187.2450  177.9820  145.4500 C   0  0  0  0  0  0  0  0  0  0  0  0
  188.5530  177.6580  145.0300 C   0  0  0  0  0  0  0  0  0  0  0  0
  187.9250  177.8970  147.7920 C   0  0  0  0  0  3  0  0  0  0  0  0
  186.1040  178.2240  144.6570 C   0  0  0  0  0  0  0  0  0  0  0  0
  183.6500  178.7630  143.4320 C   0  0  0  0  0  3  0  0  0  0  0  0
  189.2240  177.5770  147.3860 C   0  0  0  0  0  3  0  0  0  0  0  0
  184.9720  178.5170  145.4160 C   0  0  0  0  0  0  0  0  0  0  0  0
  183.7380  178.7900  144.8310 C   0  0  0  0  0  3  0  0  0  0  0  0
  190.9170  177.1280  145.6110 C   0  0  0  0  0  0  0  0  0  0  0  0
  191.8150  176.9210  146.4700 O   0  0  0  0  0  0  0  0  0  0  0  0
  188.8820  177.5030  143.5630 C   0  0  0  0  0  2  0  0  0  0  0  0
  184.7810  178.4700  142.6510 C   0  0  0  0  0  3  0  0  0  0  0  0
  186.9600  178.0950  146.8120 C   0  0  0  0  0  0  0  0  0  0  0  0
  185.3390  178.4860  147.0580 S   0  0  0  0  0  0  0  0  0  0  0  0
  191.2520  177.0530  144.1870 C   0  0  0  0  0  3  0  0  0  0  0  0
  186.0160  178.1990  143.2610 C   0  0  0  0  0  3  0  0  0  0  0  0
  190.3360  177.2360  143.2270 C   0  0  0  0  0  0  0  0  0  0  0  0
  189.5440  177.4550  146.0190 C   0  0  0  0  0  0  0  0  0  0  0  0
  192.4460  177.2520  140.0670 C   0  0  0  0  0  0  0  0  0  0  0  0
  190.7380  177.1520  141.8010 C   0  0  0  0  0  0  0  0  0  0  0  0
  192.0780  177.3320  141.4130 C   0  0  0  0  0  3  0  0  0  0  0  0
  193.7730  177.4320  139.7000 O   0  0  0  0  0  1  0  0  0  0  0  0
  189.7780  176.8920  140.8090 C   0  0  0  0  0  3  0  0  0  0  0  0
  191.4810  176.9930  139.0920 C   0  0  0  0  0  3  0  0  0  0  0  0
  190.1470  176.8120  139.4630 C   0  0  0  0  0  3  0  0  0  0  0  0
  1 13  1  0  0  0  0
  2  1  2  0  0  0  0
  2 18  1  0  0  0  0
  4  7  1  0  0  0  0
  4  1  1  0  0  0  0
  5  8  1  0  0  0  0
  6  3  1  0  0  0  0
  7 14  1  0  0  0  0
  8  7  2  0  0  0  0
  9 18  1  0  0  0  0
  9 10  2  0  0  0  0
 11  2  1  0  0  0  0
 12 16  1  0  0  0  0
 12  5  2  0  0  0  0
 13 14  1  0  0  0  0
 13  3  2  0  0  0  0
 15  9  1  0  0  0  0
 16  4  2  0  0  0  0
 17 11  1  0  0  0  0
 17 15  2  0  0  0  0
 18  6  2  0  0  0  0
 19 21  1  0  0  0  0
 20 17  1  0  0  0  0
 21 20  2  0  0  0  0
 22 19  1  0  0  0  0
 23 20  1  0  0  0  0
 24 25  1  0  0  0  0
 24 19  2  0  0  0  0
 25 23  2  0  0  0  0
M  END
>  <MODEL>
1

>  <REMARK>
 VINA RESULT:     -11.8      0.000      0.000
  Name = 
  1 active torsions:
  status: ('A' for Active; 'I' for Inactive)
    1  A    between atoms: C_6  and  C_23
                            x       y       z     vdW  Elec       q    Type
                         _______ _______ _______ _____ _____    ______ ____

>  <TORSDO>
F 1

$$$$
=
 OpenBabel11052412483D

 25 29  0  0  0  0  0  0  0  0999 V2000
  186.9620  177.9350  144.8850 C   0  0  0  0  0  0  0  0  0  0  0  0
  188.1460  177.6100  144.1890 C   0  0  0  0  0  0  0  0  0  0  0  0
  188.0680  177.5690  147.0300 C   0  0  0  0  0  3  0  0  0  0  0  0
  185.7080  178.3030  144.3580 C   0  0  0  0  0  0  0  0  0  0  0  0
  183.1000  179.0630  143.6940 C   0  0  0  0  0  3  0  0  0  0  0  0
  189.2460  177.2480  146.3490 C   0  0  0  0  0  3  0  0  0  0  0  0
  184.7590  178.5530  145.3480 C   0  0  0  0  0  0  0  0  0  0  0  0
  183.4530  178.9330  145.0450 C   0  0  0  0  0  3  0  0  0  0  0  0
  190.5430  176.9330  144.2420 C   0  0  0  0  0  0  0  0  0  0  0  0
  191.5750  176.6010  144.8840 O   0  0  0  0  0  0  0  0  0  0  0  0
  188.1820  177.6040  142.6780 C   0  0  0  0  0  2  0  0  0  0  0  0
  184.0450  178.8160  142.6830 C   0  0  0  0  0  3  0  0  0  0  0  0
  186.9480  177.9080  146.2810 C   0  0  0  0  0  0  0  0  0  0  0  0
  185.4270  178.3290  146.8760 S   0  0  0  0  0  0  0  0  0  0  0  0
  190.5970  177.0020  142.7810 C   0  0  0  0  0  3  0  0  0  0  0  0
  185.3550  178.4350  143.0110 C   0  0  0  0  0  3  0  0  0  0  0  0
  189.5280  177.3230  142.0400 C   0  0  0  0  0  0  0  0  0  0  0  0
  189.2930  177.2650  144.9400 C   0  0  0  0  0  0  0  0  0  0  0  0
  188.8980  178.2250  138.4030 C   0  0  0  0  0  0  0  0  0  0  0  0
  189.6470  177.3810  140.5620 C   0  0  0  0  0  0  0  0  0  0  0  0
  188.7780  178.1770  139.7950 C   0  0  0  0  0  3  0  0  0  0  0  0
  188.0320  179.0160  137.6600 O   0  0  0  0  0  1  0  0  0  0  0  0
  190.6370  176.6340  139.9010 C   0  0  0  0  0  3  0  0  0  0  0  0
  189.8860  177.4770  137.7600 C   0  0  0  0  0  3  0  0  0  0  0  0
  190.7570  176.6820  138.5090 C   0  0  0  0  0  3  0  0  0  0  0  0
  1 13  1  0  0  0  0
  2  1  2  0  0  0  0
  2 18  1  0  0  0  0
  4  1  1  0  0  0  0
  4  7  1  0  0  0  0
  5  8  1  0  0  0  0
  6  3  1  0  0  0  0
  7 14  1  0  0  0  0
  8  7  2  0  0  0  0
  9 10  2  0  0  0  0
  9 18  1  0  0  0  0
 11  2  1  0  0  0  0
 12 16  1  0  0  0  0
 12  5  2  0  0  0  0
 13 14  1  0  0  0  0
 13  3  2  0  0  0  0
 15  9  1  0  0  0  0
 16  4  2  0  0  0  0
 17 11  1  0  0  0  0
 17 15  2  0  0  0  0
 18  6  2  0  0  0  0
 19 21  1  0  0  0  0
 20 17  1  0  0  0  0
 21 20  2  0  0  0  0
 22 19  1  0  0  0  0
 23 20  1  0  0  0  0
 24 19  2  0  0  0  0
 24 25  1  0  0  0  0
 25 23  2  0  0  0  0
M  END
>  <MODEL>
2

>  <REMARK>
 VINA RESULT:     -11.5      1.610      1.978
  Name = 
  1 active torsions:
  status: ('A' for Active; 'I' for Inactive)
    1  A    between atoms: C_6  and  C_23
                            x       y       z     vdW  Elec       q    Type
                         _______ _______ _______ _____ _____    ______ ____

>  <TORSDO>
F 1

$$$$
=
 OpenBabel11052412483D

 25 29  0  0  0  0  0  0  0  0999 V2000
  187.9310  177.6420  145.2250 C   0  0  0  0  0  0  0  0  0  0  0  0
  186.6720  178.0080  144.7020 C   0  0  0  0  0  0  0  0  0  0  0  0
  187.1670  178.0860  147.5000 C   0  0  0  0  0  3  0  0  0  0  0  0
  189.0780  177.2110  144.5290 C   0  0  0  0  0  0  0  0  0  0  0  0
  191.5270  176.3280  143.5080 C   0  0  0  0  0  3  0  0  0  0  0  0
  185.9160  178.4490  146.9920 C   0  0  0  0  0  3  0  0  0  0  0  0
  190.1510  176.9340  145.3750 C   0  0  0  0  0  0  0  0  0  0  0  0
  191.3810  176.4930  144.8930 C   0  0  0  0  0  3  0  0  0  0  0  0
  184.3390  178.7900  145.0900 C   0  0  0  0  0  0  0  0  0  0  0  0
  183.4270  179.1760  145.8690 O   0  0  0  0  0  0  0  0  0  0  0  0
  186.4160  177.9940  143.2130 C   0  0  0  0  0  2  0  0  0  0  0  0
  190.4560  176.6020  142.6400 C   0  0  0  0  0  3  0  0  0  0  0  0
  188.1510  177.6870  146.6030 C   0  0  0  0  0  0  0  0  0  0  0  0
  189.7230  177.2090  146.9790 S   0  0  0  0  0  0  0  0  0  0  0  0
  184.0690  178.7030  143.6540 C   0  0  0  0  0  3  0  0  0  0  0  0
  189.2240  177.0460  143.1470 C   0  0  0  0  0  3  0  0  0  0  0  0
  185.0030  178.3250  142.7720 C   0  0  0  0  0  0  0  0  0  0  0  0
  185.6630  178.4140  145.6060 C   0  0  0  0  0  0  0  0  0  0  0  0
  185.2760  178.5490  138.9890 C   0  0  0  0  0  0  0  0  0  0  0  0
  184.6670  178.2510  141.3290 C   0  0  0  0  0  0  0  0  0  0  0  0
  185.6020  178.6220  140.3460 C   0  0  0  0  0  3  0  0  0  0  0  0
  186.2090  178.9200  138.0310 O   0  0  0  0  0  1  0  0  0  0  0  0
  183.3980  177.8070  140.9190 C   0  0  0  0  0  3  0  0  0  0  0  0
  184.0110  178.1060  138.5970 C   0  0  0  0  0  3  0  0  0  0  0  0
  183.0720  177.7340  139.5620 C   0  0  0  0  0  3  0  0  0  0  0  0
  1 13  1  0  0  0  0
  2  1  2  0  0  0  0
  2 18  1  0  0  0  0
  4  1  1  0  0  0  0
  4  7  1  0  0  0  0
  5  8  1  0  0  0  0
  6  3  1  0  0  0  0
  7 14  1  0  0  0  0
  8  7  2  0  0  0  0
  9 18  1  0  0  0  0
  9 10  2  0  0  0  0
 11  2  1  0  0  0  0
 12 16  1  0  0  0  0
 12  5  2  0  0  0  0
 13 14  1  0  0  0  0
 13  3  2  0  0  0  0
 15  9  1  0  0  0  0
 16  4  2  0  0  0  0
 17 11  1  0  0  0  0
 17 15  2  0  0  0  0
 18  6  2  0  0  0  0
 19 21  1  0  0  0  0
 20 17  1  0  0  0  0
 21 20  2  0  0  0  0
 22 19  1  0  0  0  0
 23 20  1  0  0  0  0
 24 19  2  0  0  0  0
 24 25  1  0  0  0  0
 25 23  2  0  0  0  0
M  END
>  <MODEL>
3

>  <REMARK>
 VINA RESULT:     -11.4      3.006      5.783
  Name = 
  1 active torsions:
  status: ('A' for Active; 'I' for Inactive)
    1  A    between atoms: C_6  and  C_23
                            x       y       z     vdW  Elec       q    Type
                         _______ _______ _______ _____ _____    ______ ____

>  <TORSDO>
F 1

$$$$
=
 OpenBabel11052412483D

 25 29  0  0  0  0  0  0  0  0999 V2000
  189.2170  177.5220  143.5220 C   0  0  0  0  0  0  0  0  0  0  0  0
  188.0230  177.7750  144.2310 C   0  0  0  0  0  0  0  0  0  0  0  0
  190.4520  177.2420  145.6080 C   0  0  0  0  0  3  0  0  0  0  0  0
  189.4190  177.4910  142.1270 C   0  0  0  0  0  0  0  0  0  0  0  0
  190.2010  177.3430  139.4460 C   0  0  0  0  0  3  0  0  0  0  0  0
  189.2740  177.4900  146.3190 C   0  0  0  0  0  3  0  0  0  0  0  0
  190.7390  177.2090  141.7780 C   0  0  0  0  0  0  0  0  0  0  0  0
  191.1550  177.1290  140.4510 C   0  0  0  0  0  3  0  0  0  0  0  0
  186.8360  178.0050  146.4090 C   0  0  0  0  0  0  0  0  0  0  0  0
  186.8480  178.0160  147.6680 O   0  0  0  0  0  0  0  0  0  0  0  0
  186.7370  178.0860  143.5000 C   0  0  0  0  0  2  0  0  0  0  0  0
  188.8650  177.6280  139.7790 C   0  0  0  0  0  3  0  0  0  0  0  0
  190.3980  177.2620  144.2190 C   0  0  0  0  0  0  0  0  0  0  0  0
  191.6800  176.9950  143.1570 S   0  0  0  0  0  0  0  0  0  0  0  0
  185.5750  178.2310  145.6990 C   0  0  0  0  0  3  0  0  0  0  0  0
  188.4670  177.7030  141.1240 C   0  0  0  0  0  3  0  0  0  0  0  0
  185.5020  178.2580  144.3620 C   0  0  0  0  0  0  0  0  0  0  0  0
  188.0660  177.7560  145.6440 C   0  0  0  0  0  0  0  0  0  0  0  0
  182.8270  178.6280  141.6890 C   0  0  0  0  0  0  0  0  0  0  0  0
  184.1930  178.4870  143.7010 C   0  0  0  0  0  0  0  0  0  0  0  0
  184.0630  178.4110  142.3030 C   0  0  0  0  0  3  0  0  0  0  0  0
  182.7150  178.5500  140.3080 O   0  0  0  0  0  1  0  0  0  0  0  0
  183.0550  178.7860  144.4690 C   0  0  0  0  0  3  0  0  0  0  0  0
  181.7040  178.9250  142.4650 C   0  0  0  0  0  3  0  0  0  0  0  0
  181.8180  179.0030  143.8550 C   0  0  0  0  0  3  0  0  0  0  0  0
  1 13  1  0  0  0  0
  1  2  2  0  0  0  0
  2 18  1  0  0  0  0
  3  6  1  0  0  0  0
  4  1  1  0  0  0  0
  5 12  2  0  0  0  0
  5  8  1  0  0  0  0
  7  4  1  0  0  0  0
  7 14  1  0  0  0  0
  8  7  2  0  0  0  0
  9 10  2  0  0  0  0
 11  2  1  0  0  0  0
 11 17  1  0  0  0  0
 12 16  1  0  0  0  0
 13  3  2  0  0  0  0
 14 13  1  0  0  0  0
 15  9  1  0  0  0  0
 16  4  2  0  0  0  0
 17 15  2  0  0  0  0
 18  6  2  0  0  0  0
 18  9  1  0  0  0  0
 19 21  2  0  0  0  0
 19 24  1  0  0  0  0
 20 17  1  0  0  0  0
 20 23  2  0  0  0  0
 21 20  1  0  0  0  0
 22 19  1  0  0  0  0
 24 25  2  0  0  0  0
 25 23  1  0  0  0  0
M  END
>  <MODEL>
4

>  <REMARK>
 VINA RESULT:     -11.1      3.071      6.495
  Name = 
  1 active torsions:
  status: ('A' for Active; 'I' for Inactive)
    1  A    between atoms: C_6  and  C_23
                            x       y       z     vdW  Elec       q    Type
                         _______ _______ _______ _____ _____    ______ ____

>  <TORSDO>
F 1

$$$$
=
 OpenBabel11052412483D

 25 29  0  0  0  0  0  0  0  0999 V2000
  188.5140  177.6430  144.6160 C   0  0  0  0  0  0  0  0  0  0  0  0
  187.1530  177.9530  144.8270 C   0  0  0  0  0  0  0  0  0  0  0  0
  188.9300  177.6260  147.0210 C   0  0  0  0  0  3  0  0  0  0  0  0
  189.1920  177.4570  143.3940 C   0  0  0  0  0  0  0  0  0  0  0  0
  190.8630  177.0190  141.1960 C   0  0  0  0  0  3  0  0  0  0  0  0
  187.5840  177.9320  147.2400 C   0  0  0  0  0  3  0  0  0  0  0  0
  190.5440  177.1620  143.5670 C   0  0  0  0  0  0  0  0  0  0  0  0
  191.3980  176.9390  142.4890 C   0  0  0  0  0  3  0  0  0  0  0  0
  185.2820  178.4080  146.4070 C   0  0  0  0  0  0  0  0  0  0  0  0
  184.8510  178.5620  147.5810 O   0  0  0  0  0  0  0  0  0  0  0  0
  186.2140  178.1560  143.6610 C   0  0  0  0  0  2  0  0  0  0  0  0
  189.5020  177.3150  141.0030 C   0  0  0  0  0  3  0  0  0  0  0  0
  189.3680  177.4860  145.7090 C   0  0  0  0  0  0  0  0  0  0  0  0
  190.9350  177.1230  145.2030 S   0  0  0  0  0  0  0  0  0  0  0  0
  184.3560  178.5280  145.2790 C   0  0  0  0  0  3  0  0  0  0  0  0
  188.6590  177.5360  142.1040 C   0  0  0  0  0  3  0  0  0  0  0  0
  184.7580  178.4020  144.0080 C   0  0  0  0  0  0  0  0  0  0  0  0
  186.6960  178.0970  146.1570 C   0  0  0  0  0  0  0  0  0  0  0  0
  181.5270  179.0530  142.1180 C   0  0  0  0  0  0  0  0  0  0  0  0
  183.7710  178.5290  142.9070 C   0  0  0  0  0  0  0  0  0  0  0  0
  182.4500  178.9370  143.1610 C   0  0  0  0  0  3  0  0  0  0  0  0
  180.2260  179.4570  142.3840 O   0  0  0  0  0  1  0  0  0  0  0  0
  184.1450  178.2400  141.5840 C   0  0  0  0  0  3  0  0  0  0  0  0
  181.9130  178.7620  140.8080 C   0  0  0  0  0  3  0  0  0  0  0  0
  183.2220  178.3560  140.5400 C   0  0  0  0  0  3  0  0  0  0  0  0
  1  2  2  0  0  0  0
  1 13  1  0  0  0  0
  2 18  1  0  0  0  0
  3  6  1  0  0  0  0
  4  7  1  0  0  0  0
  4  1  1  0  0  0  0
  5  8  1  0  0  0  0
  7 14  1  0  0  0  0
  8  7  2  0  0  0  0
  9 10  2  0  0  0  0
 11 17  1  0  0  0  0
 11  2  1  0  0  0  0
 12  5  2  0  0  0  0
 12 16  1  0  0  0  0
 13  3  2  0  0  0  0
 14 13  1  0  0  0  0
 15  9  1  0  0  0  0
 16  4  2  0  0  0  0
 17 15  2  0  0  0  0
 18  9  1  0  0  0  0
 18  6  2  0  0  0  0
 19 22  1  0  0  0  0
 19 21  1  0  0  0  0
 20 21  2  0  0  0  0
 20 17  1  0  0  0  0
 23 20  1  0  0  0  0
 24 19  2  0  0  0  0
 25 24  1  0  0  0  0
 25 23  2  0  0  0  0
M  END
>  <MODEL>
5

>  <REMARK>
 VINA RESULT:     -10.9      3.361      6.649
  Name = 
  1 active torsions:
  status: ('A' for Active; 'I' for Inactive)
    1  A    between atoms: C_6  and  C_23
                            x       y       z     vdW  Elec       q    Type
                         _______ _______ _______ _____ _____    ______ ____

>  <TORSDO>
F 1

$$$$
=
 OpenBabel11052412483D

 25 29  0  0  0  0  0  0  0  0999 V2000
  187.7490  177.7520  145.4730 C   0  0  0  0  0  0  0  0  0  0  0  0
  187.0700  178.0830  144.2810 C   0  0  0  0  0  0  0  0  0  0  0  0
  185.7480  178.2110  146.7940 C   0  0  0  0  0  3  0  0  0  0  0  0
  189.0860  177.3370  145.6350 C   0  0  0  0  0  0  0  0  0  0  0  0
  191.6550  176.4930  146.3470 C   0  0  0  0  0  3  0  0  0  0  0  0
  185.0670  178.5400  145.6180 C   0  0  0  0  0  3  0  0  0  0  0  0
  189.4190  177.0950  146.9670 C   0  0  0  0  0  0  0  0  0  0  0  0
  190.6910  176.6730  147.3490 C   0  0  0  0  0  3  0  0  0  0  0  0
  184.9810  178.8200  143.1420 C   0  0  0  0  0  0  0  0  0  0  0  0
  183.7800  179.1970  143.1900 O   0  0  0  0  0  0  0  0  0  0  0  0
  187.7790  178.0430  142.9470 C   0  0  0  0  0  2  0  0  0  0  0  0
  191.3360  176.7310  144.9980 C   0  0  0  0  0  3  0  0  0  0  0  0
  187.0790  177.8210  146.6960 C   0  0  0  0  0  0  0  0  0  0  0  0
  188.0960  177.3820  147.9670 S   0  0  0  0  0  0  0  0  0  0  0  0
  185.6470  178.7070  141.8430 C   0  0  0  0  0  3  0  0  0  0  0  0
  190.0480  177.1550  144.6360 C   0  0  0  0  0  3  0  0  0  0  0  0
  186.9290  178.3380  141.7260 C   0  0  0  0  0  0  0  0  0  0  0  0
  185.7160  178.4800  144.3680 C   0  0  0  0  0  0  0  0  0  0  0  0
  187.3480  178.1330  137.9550 C   0  0  0  0  0  0  0  0  0  0  0  0
  187.5470  178.2360  140.3810 C   0  0  0  0  0  0  0  0  0  0  0  0
  186.7570  178.2290  139.2180 C   0  0  0  0  0  3  0  0  0  0  0  0
  186.5540  178.1270  136.8170 O   0  0  0  0  0  1  0  0  0  0  0  0
  188.9430  178.1430  140.2490 C   0  0  0  0  0  3  0  0  0  0  0  0
  188.7370  178.0400  137.8390 C   0  0  0  0  0  3  0  0  0  0  0  0
  189.5340  178.0470  138.9860 C   0  0  0  0  0  3  0  0  0  0  0  0
  1  4  1  0  0  0  0
  1 13  2  0  0  0  0
  2 18  2  0  0  0  0
  2  1  1  0  0  0  0
  4  7  1  0  0  0  0
  5  8  1  0  0  0  0
  6  3  2  0  0  0  0
  7  8  2  0  0  0  0
  7 14  1  0  0  0  0
  9 10  2  0  0  0  0
  9 18  1  0  0  0  0
 11  2  1  0  0  0  0
 12  5  2  0  0  0  0
 13  3  1  0  0  0  0
 13 14  1  0  0  0  0
 15  9  1  0  0  0  0
 16 12  1  0  0  0  0
 16  4  2  0  0  0  0
 17 15  2  0  0  0  0
 17 11  1  0  0  0  0
 18  6  1  0  0  0  0
 19 21  1  0  0  0  0
 20 17  1  0  0  0  0
 21 20  2  0  0  0  0
 22 19  1  0  0  0  0
 23 20  1  0  0  0  0
 24 19  2  0  0  0  0
 24 25  1  0  0  0  0
 25 23  2  0  0  0  0
M  END
>  <MODEL>
6

>  <REMARK>
 VINA RESULT:     -10.9      2.913      5.047
  Name = 
  1 active torsions:
  status: ('A' for Active; 'I' for Inactive)
    1  A    between atoms: C_6  and  C_23
                            x       y       z     vdW  Elec       q    Type
                         _______ _______ _______ _____ _____    ______ ____

>  <TORSDO>
F 1

$$$$
=
 OpenBabel11052412483D

 25 29  0  0  0  0  0  0  0  0999 V2000
  187.3150  177.9170  145.4590 C   0  0  0  0  0  0  0  0  0  0  0  0
  186.4870  178.2340  144.3600 C   0  0  0  0  0  0  0  0  0  0  0  0
  185.4890  178.3520  147.0190 C   0  0  0  0  0  3  0  0  0  0  0  0
  188.6680  177.5220  145.4520 C   0  0  0  0  0  0  0  0  0  0  0  0
  191.3180  176.7180  145.8380 C   0  0  0  0  0  3  0  0  0  0  0  0
  184.6610  178.6670  145.9370 C   0  0  0  0  0  3  0  0  0  0  0  0
  189.1690  177.2900  146.7320 C   0  0  0  0  0  0  0  0  0  0  0  0
  190.4850  176.8890  146.9520 C   0  0  0  0  0  3  0  0  0  0  0  0
  184.2610  178.9350  143.4910 C   0  0  0  0  0  0  0  0  0  0  0  0
  183.0700  179.2950  143.6890 O   0  0  0  0  0  0  0  0  0  0  0  0
  187.0240  178.1980  142.9480 C   0  0  0  0  0  2  0  0  0  0  0  0
  190.8290  176.9470  144.5400 C   0  0  0  0  0  3  0  0  0  0  0  0
  186.8030  177.9820  146.7560 C   0  0  0  0  0  0  0  0  0  0  0  0
  187.9780  177.5630  147.8900 S   0  0  0  0  0  0  0  0  0  0  0  0
  184.7600  178.8270  142.1190 C   0  0  0  0  0  3  0  0  0  0  0  0
  189.5000  177.3500  144.3410 C   0  0  0  0  0  3  0  0  0  0  0  0
  186.0230  178.4750  141.8430 C   0  0  0  0  0  0  0  0  0  0  0  0
  185.1490  178.6110  144.6160 C   0  0  0  0  0  0  0  0  0  0  0  0
  188.2420  178.1720  138.7740 C   0  0  0  0  0  0  0  0  0  0  0  0
  186.4690  178.3770  140.4310 C   0  0  0  0  0  0  0  0  0  0  0  0
  187.8320  178.2640  140.1070 C   0  0  0  0  0  3  0  0  0  0  0  0
  189.5920  178.0610  138.4700 O   0  0  0  0  0  1  0  0  0  0  0  0
  185.5270  178.3980  139.3880 C   0  0  0  0  0  3  0  0  0  0  0  0
  187.2950  178.1950  137.7480 C   0  0  0  0  0  3  0  0  0  0  0  0
  185.9370  178.3070  138.0550 C   0  0  0  0  0  3  0  0  0  0  0  0
  1 13  2  0  0  0  0
  2 18  2  0  0  0  0
  2  1  1  0  0  0  0
  4  1  1  0  0  0  0
  4  7  1  0  0  0  0
  5  8  1  0  0  0  0
  6  3  2  0  0  0  0
  7  8  2  0  0  0  0
  7 14  1  0  0  0  0
  9 10  2  0  0  0  0
  9 18  1  0  0  0  0
 11  2  1  0  0  0  0
 12  5  2  0  0  0  0
 13  3  1  0  0  0  0
 13 14  1  0  0  0  0
 15  9  1  0  0  0  0
 16 12  1  0  0  0  0
 16  4  2  0  0  0  0
 17 15  2  0  0  0  0
 17 11  1  0  0  0  0
 18  6  1  0  0  0  0
 19 21  1  0  0  0  0
 20 17  1  0  0  0  0
 21 20  2  0  0  0  0
 22 19  1  0  0  0  0
 23 20  1  0  0  0  0
 24 25  1  0  0  0  0
 24 19  2  0  0  0  0
 25 23  2  0  0  0  0
M  END
>  <MODEL>
7

>  <REMARK>
 VINA RESULT:     -10.8      2.799      5.057
  Name = 
  1 active torsions:
  status: ('A' for Active; 'I' for Inactive)
    1  A    between atoms: C_6  and  C_23
                            x       y       z     vdW  Elec       q    Type
                         _______ _______ _______ _____ _____    ______ ____

>  <TORSDO>
F 1

$$$$
=
 OpenBabel11052412483D

 25 29  0  0  0  0  0  0  0  0999 V2000
  187.6810  177.8360  144.5100 C   0  0  0  0  0  0  0  0  0  0  0  0
  188.5050  177.6960  143.3720 C   0  0  0  0  0  0  0  0  0  0  0  0
  189.5350  177.2470  145.9830 C   0  0  0  0  0  3  0  0  0  0  0  0
  186.3170  178.1890  144.5670 C   0  0  0  0  0  0  0  0  0  0  0  0
  183.6500  178.8560  145.0780 C   0  0  0  0  0  3  0  0  0  0  0  0
  190.3590  177.1060  144.8620 C   0  0  0  0  0  3  0  0  0  0  0  0
  185.8240  178.2310  145.8710 C   0  0  0  0  0  0  0  0  0  0  0  0
  184.5010  178.5600  146.1530 C   0  0  0  0  0  3  0  0  0  0  0  0
  190.7400  177.1830  142.3990 C   0  0  0  0  0  0  0  0  0  0  0  0
  191.9420  176.8350  142.5380 O   0  0  0  0  0  0  0  0  0  0  0  0
  187.9510  177.9070  141.9820 C   0  0  0  0  0  2  0  0  0  0  0  0
  184.1300  178.8200  143.7570 C   0  0  0  0  0  3  0  0  0  0  0  0
  188.2090  177.6110  145.7820 C   0  0  0  0  0  0  0  0  0  0  0  0
  187.0350  177.8380  146.9720 S   0  0  0  0  0  0  0  0  0  0  0  0
  190.2220  177.4630  141.0580 C   0  0  0  0  0  3  0  0  0  0  0  0
  185.4690  178.4860  143.4950 C   0  0  0  0  0  3  0  0  0  0  0  0
  188.9470  177.8110  140.8430 C   0  0  0  0  0  0  0  0  0  0  0  0
  189.8560  177.3260  143.5650 C   0  0  0  0  0  0  0  0  0  0  0  0
  186.7130  178.1480  137.7880 C   0  0  0  0  0  0  0  0  0  0  0  0
  188.4830  178.0870  139.4600 C   0  0  0  0  0  0  0  0  0  0  0  0
  187.1410  177.8860  139.0920 C   0  0  0  0  0  3  0  0  0  0  0  0
  185.3850  177.9450  137.4390 O   0  0  0  0  0  1  0  0  0  0  0  0
  189.3850  178.5550  138.4900 C   0  0  0  0  0  3  0  0  0  0  0  0
  187.6210  178.6120  136.8340 C   0  0  0  0  0  3  0  0  0  0  0  0
  188.9570  178.8170  137.1860 C   0  0  0  0  0  3  0  0  0  0  0  0
  1  4  1  0  0  0  0
  1 13  2  0  0  0  0
  2 18  2  0  0  0  0
  2  1  1  0  0  0  0
  4  7  1  0  0  0  0
  5  8  1  0  0  0  0
  6  3  2  0  0  0  0
  7  8  2  0  0  0  0
  7 14  1  0  0  0  0
  9 10  2  0  0  0  0
  9 18  1  0  0  0  0
 11  2  1  0  0  0  0
 12  5  2  0  0  0  0
 13  3  1  0  0  0  0
 13 14  1  0  0  0  0
 15  9  1  0  0  0  0
 16 12  1  0  0  0  0
 16  4  2  0  0  0  0
 17 15  2  0  0  0  0
 17 11  1  0  0  0  0
 18  6  1  0  0  0  0
 19 21  1  0  0  0  0
 20 17  1  0  0  0  0
 21 20  2  0  0  0  0
 22 19  1  0  0  0  0
 23 20  1  0  0  0  0
 24 25  1  0  0  0  0
 24 19  2  0  0  0  0
 25 23  2  0  0  0  0
M  END
>  <MODEL>
8

>  <REMARK>
 VINA RESULT:     -10.8      2.573      3.374
  Name = 
  1 active torsions:
  status: ('A' for Active; 'I' for Inactive)
    1  A    between atoms: C_6  and  C_23
                            x       y       z     vdW  Elec       q    Type
                         _______ _______ _______ _____ _____    ______ ____

>  <TORSDO>
F 1

$$$$
=
 OpenBabel11052412483D

 25 29  0  0  0  0  0  0  0  0999 V2000
  184.8470  178.5670  142.4680 C   0  0  0  0  0  0  0  0  0  0  0  0
  185.4430  178.3600  143.7310 C   0  0  0  0  0  0  0  0  0  0  0  0
  182.6950  179.0540  143.5110 C   0  0  0  0  0  3  0  0  0  0  0  0
  185.4410  178.4750  141.1930 C   0  0  0  0  0  0  0  0  0  0  0  0
  186.2580  178.3930  138.5200 C   0  0  0  0  0  3  0  0  0  0  0  0
  183.2770  178.8520  144.7660 C   0  0  0  0  0  3  0  0  0  0  0  0
  184.5450  178.7460  140.1590 C   0  0  0  0  0  0  0  0  0  0  0  0
  184.9260  178.7120  138.8200 C   0  0  0  0  0  3  0  0  0  0  0  0
  185.2340  178.3090  146.2130 C   0  0  0  0  0  0  0  0  0  0  0  0
  184.5360  178.4120  147.2570 O   0  0  0  0  0  0  0  0  0  0  0  0
  186.8970  177.9640  143.8480 C   0  0  0  0  0  2  0  0  0  0  0  0
  187.1750  178.1190  139.5490 C   0  0  0  0  0  3  0  0  0  0  0  0
  183.4960  178.9080  142.3840 C   0  0  0  0  0  0  0  0  0  0  0  0
  183.0200  179.0980  140.7780 S   0  0  0  0  0  0  0  0  0  0  0  0
  186.6600  178.0000  146.3280 C   0  0  0  0  0  3  0  0  0  0  0  0
  186.7700  178.1590  140.8930 C   0  0  0  0  0  3  0  0  0  0  0  0
  187.4490  177.8510  145.2560 C   0  0  0  0  0  0  0  0  0  0  0  0
  184.6380  178.5070  144.8840 C   0  0  0  0  0  0  0  0  0  0  0  0
  191.1500  177.3620  144.5500 C   0  0  0  0  0  0  0  0  0  0  0  0
  188.8890  177.5430  145.4380 C   0  0  0  0  0  0  0  0  0  0  0  0
  189.7960  177.6540  144.3690 C   0  0  0  0  0  3  0  0  0  0  0  0
  192.0330  177.4750  143.4840 O   0  0  0  0  0  1  0  0  0  0  0  0
  189.3720  177.1320  146.6920 C   0  0  0  0  0  3  0  0  0  0  0  0
  191.6160  176.9540  145.8010 C   0  0  0  0  0  3  0  0  0  0  0  0
  190.7270  176.8400  146.8730 C   0  0  0  0  0  3  0  0  0  0  0  0
  1  2  2  0  0  0  0
  2 11  1  0  0  0  0
  2 18  1  0  0  0  0
  3  6  1  0  0  0  0
  4  1  1  0  0  0  0
  5  8  2  0  0  0  0
  5 12  1  0  0  0  0
  6 18  2  0  0  0  0
  7 14  1  0  0  0  0
  7  4  2  0  0  0  0
  8  7  1  0  0  0  0
  9 15  1  0  0  0  0
  9 10  2  0  0  0  0
 11 17  1  0  0  0  0
 12 16  2  0  0  0  0
 13  1  1  0  0  0  0
 13  3  2  0  0  0  0
 14 13  1  0  0  0  0
 16  4  1  0  0  0  0
 17 20  1  0  0  0  0
 17 15  2  0  0  0  0
 18  9  1  0  0  0  0
 19 24  1  0  0  0  0
 20 23  2  0  0  0  0
 21 19  2  0  0  0  0
 21 20  1  0  0  0  0
 22 19  1  0  0  0  0
 23 25  1  0  0  0  0
 24 25  2  0  0  0  0
M  END
>  <MODEL>
9

>  <REMARK>
 VINA RESULT:     -10.7      2.677      5.257
  Name = 
  1 active torsions:
  status: ('A' for Active; 'I' for Inactive)
    1  A    between atoms: C_6  and  C_23
                            x       y       z     vdW  Elec       q    Type
                         _______ _______ _______ _____ _____    ______ ____

>  <TORSDO>
F 1

$$$$
