=
 OpenBabel11052414513D

 55 61  0  0  1  0  0  0  0  0999 V2000
  185.6130  177.7180  140.3740 C   0  0  0  0  0  2  0  0  0  0  0  0
  187.5900  178.5000  136.5760 C   0  0  0  0  0  1  0  0  0  0  0  0
  186.7770  175.7700  135.4790 O   0  0  0  0  0  1  0  0  0  0  0  0
  183.7070  175.0150  135.2900 C   0  0  0  0  0  3  0  0  0  0  0  0
  182.4630  174.8450  134.6800 C   0  0  0  0  0  3  0  0  0  0  0  0
  182.6100  175.6990  137.3500 C   0  0  0  0  0  0  0  0  0  0  0  0
  181.3670  175.5150  136.7300 C   0  0  0  0  0  3  0  0  0  0  0  0
  185.7130  174.3610  137.5210 O   0  0  0  0  0  1  0  0  0  0  0  0
  181.2930  175.0950  135.4010 C   0  0  0  0  0  3  0  0  0  0  0  0
  186.9570  177.7710  142.4870 C   0  0  0  0  0  2  0  0  0  0  0  0
  183.7950  175.4490  136.6230 C   0  0  0  0  0  0  0  0  0  0  0  0
  188.9720  177.8800  140.6130 C   0  0  1  0  0  3  0  0  0  0  0  0
  184.5510  178.6410  139.8130 C   0  0  0  0  0  2  0  0  0  0  0  0
  187.8290  178.8530  140.3250 C   0  0  0  0  0  2  0  0  0  0  0  0
  182.7400  177.6390  139.0020 C   0  0  1  0  0  3  0  0  0  0  0  0
  188.0480  176.4220  138.0560 C   0  0  0  0  0  2  0  0  0  0  0  0
  182.6280  176.1210  138.7910 C   0  0  0  0  0  2  0  0  0  0  0  0
  187.0150  177.3050  137.3270 C   0  0  2  0  0  3  0  0  0  0  0  0
  186.0710  176.4990  136.4440 C   0  0  2  0  0  3  0  0  0  0  0  0
  188.2830  178.2700  143.0450 C   0  0  0  0  0  2  0  0  0  0  0  0
  189.5000  176.6620  137.6490 C   0  0  1  0  0  3  0  0  0  0  0  0
  186.6020  178.5250  141.1910 C   0  0  1  0  0  3  0  0  0  0  0  0
  185.1410  175.6040  137.2680 C   0  0  2  0  0  3  0  0  0  0  0  0
  184.0100  178.1050  138.6400 O   0  0  0  0  0  0  0  0  0  0  0  0
  190.3960  176.7990  138.8790 C   0  0  0  0  0  2  0  0  0  0  0  0
  190.1190  178.0890  139.6430 C   0  0  0  0  0  2  0  0  0  0  0  0
  189.4430  178.0040  142.0680 C   0  0  0  0  0  2  0  0  0  0  0  0
  181.7110  178.7540  136.8060 C   0  0  0  0  0  3  0  0  0  0  0  0
  180.8860  180.6280  138.0030 N   0  0  0  0  0  0  0  0  0  0  0  0
  180.2770  178.4560  138.9550 C   0  0  0  0  0  2  0  0  0  0  0  0
  181.2080  179.6670  139.0440 C   0  0  1  0  0  3  0  0  0  0  0  0
  181.1790  180.1680  136.6550 C   0  0  0  0  0  3  0  0  0  0  0  0
  181.6400  178.4290  138.2940 C   0  0  1  0  0  0  0  0  0  0  0  0
  180.3590  181.9310  138.2890 C   0  0  0  0  0  0  0  0  0  0  0  0
  180.9670  183.0240  137.8460 C   0  0  0  0  0  2  0  0  0  0  0  0
  179.1470  182.0890  139.1420 C   0  0  0  0  0  1  0  0  0  0  0  0
  189.9810  175.4900  136.8150 C   0  0  0  0  0  2  0  0  0  0  0  0
  191.3880  175.4250  136.8550 O   0  0  0  0  0  0  0  0  0  0  0  0
  192.6980  173.2110  137.0520 O   0  0  0  0  0  1  0  0  0  0  0  0
  192.9320  173.8380  135.8280 C   0  0  2  0  0  0  0  0  0  0  0  0
  190.8140  174.5240  134.7900 O   0  0  0  0  0  1  0  0  0  0  0  0
  193.9740  175.8490  135.1130 C   0  0  1  0  0  3  0  0  0  0  0  0
  194.2550  174.6300  135.9300 C   0  0  2  0  0  3  0  0  0  0  0  0
  191.8710  174.9610  135.6000 C   0  0  1  0  0  0  0  0  0  0  0  0
  192.6730  176.0420  134.9230 C   0  0  0  0  0  2  0  0  0  0  0  0
  196.0530  173.0840  136.6680 C   0  0  0  0  0  2  0  0  0  0  0  0
  196.7030  174.3850  136.2540 C   0  0  0  0  0  2  0  0  0  0  0  0
  195.5040  173.8640  135.4960 C   0  0  0  0  0  3  0  0  0  0  0  0
  195.0200  176.8010  134.6120 C   0  0  0  0  0  2  0  0  0  0  0  0
  196.1700  178.6540  134.9560 C   0  0  0  0  0  1  0  0  0  0  0  0
  195.2070  177.8340  135.5420 O   0  0  0  0  0  0  0  0  0  0  0  0
  192.9510  172.8210  134.8230 O   0  0  0  0  0  0  0  0  0  0  0  0
  191.3980  171.0030  134.5960 C   0  0  0  0  0  1  0  0  0  0  0  0
  193.7730  170.5990  135.0720 C   0  0  0  0  0  1  0  0  0  0  0  0
  192.6160  171.5450  135.3220 C   0  0  0  0  0  3  0  0  0  0  0  0
  1 22  1  0  0  0  0
  4 11  1  0  0  0  0
  5  4  2  0  0  0  0
  5  9  1  0  0  0  0
  6 17  1  0  0  0  0
  7  6  1  0  0  0  0
  9  7  2  0  0  0  0
 10 20  1  0  0  0  0
 11 23  1  0  0  0  0
 11  6  2  0  0  0  0
 12 26  1  6  0  0  0
 12 27  1  0  0  0  0
 13  1  1  0  0  0  0
 14 12  1  0  0  0  0
 15 17  1  6  0  0  0
 18  2  1  6  0  0  0
 18 16  1  0  0  0  0
 19  3  1  6  0  0  0
 19 23  1  0  0  0  0
 19 18  1  0  0  0  0
 21 37  1  6  0  0  0
 21 16  1  0  0  0  0
 21 25  1  0  0  0  0
 22 14  1  6  0  0  0
 22 10  1  0  0  0  0
 23  8  1  6  0  0  0
 24 15  1  0  0  0  0
 24 13  1  0  0  0  0
 25 26  1  0  0  0  0
 27 20  1  0  0  0  0
 29 34  1  0  0  0  0
 29 31  1  0  0  0  0
 31 30  1  6  0  0  0
 32 28  2  0  0  0  0
 32 29  1  0  0  0  0
 33 28  1  6  0  0  0
 33 30  1  0  0  0  0
 33 15  1  0  0  0  0
 33 31  1  0  0  0  0
 34 36  1  0  0  0  0
 35 34  2  0  0  0  0
 37 38  1  0  0  0  0
 40 43  1  0  0  0  0
 40 39  1  1  0  0  0
 42 49  1  1  0  0  0
 42 43  1  0  0  0  0
 43 48  1  6  0  0  0
 44 41  1  6  0  0  0
 44 40  1  0  0  0  0
 44 38  1  0  0  0  0
 45 42  1  0  0  0  0
 45 44  1  0  0  0  0
 47 46  1  0  0  0  0
 48 47  1  0  0  0  0
 48 46  1  0  0  0  0
 49 51  1  0  0  0  0
 50 51  1  0  0  0  0
 52 55  1  0  0  0  0
 52 40  1  0  0  0  0
 53 55  1  0  0  0  0
 54 55  1  0  0  0  0
M  END
>  <MODEL>
1

>  <REMARK>
 VINA RESULT:      -5.5      0.000      0.000
  Name = 
  10 active torsions:
  status: ('A' for Active; 'I' for Inactive)
    1  A    between atoms: C_6  and  O_46
    2  A    between atoms: C_8  and  O_22
    3  A    between atoms: C_8  and  C_43
    4  A    between atoms: C_10  and  N_32
    5  A    between atoms: C_12  and  C_30
    6  A    between atoms: C_14  and  C_38
    7  A    between atoms: C_20  and  O_22
    8  A    between atoms: C_30  and  O_50
    9  A    between atoms: C_33  and  C_52
   10  A    between atoms: O_46  and  C_53
                            x       y       z     vdW  Elec       q    Type
                         _______ _______ _______ _____ _____    ______ ____

>  <TORSDO>
F 10

$$$$
=
 OpenBabel11052414513D

 55 61  0  0  1  0  0  0  0  0999 V2000
  188.4180  173.4020  135.7720 C   0  0  0  0  0  2  0  0  0  0  0  0
  187.9950  177.6930  135.1790 C   0  0  0  0  0  1  0  0  0  0  0  0
  189.0340  178.2830  137.9880 O   0  0  0  0  0  1  0  0  0  0  0  0
  191.9270  177.2980  138.8200 C   0  0  0  0  0  3  0  0  0  0  0  0
  193.2990  177.4020  139.0540 C   0  0  0  0  0  3  0  0  0  0  0  0
  192.2270  175.0170  138.0360 C   0  0  0  0  0  0  0  0  0  0  0  0
  193.6020  175.1280  138.2850 C   0  0  0  0  0  3  0  0  0  0  0  0
  189.2210  175.9270  139.2930 O   0  0  0  0  0  1  0  0  0  0  0  0
  194.1360  176.3170  138.7860 C   0  0  0  0  0  3  0  0  0  0  0  0
  186.4010  171.9320  135.5620 C   0  0  0  0  0  2  0  0  0  0  0  0
  191.3780  176.1130  138.3030 C   0  0  0  0  0  0  0  0  0  0  0  0
  185.2120  174.4160  135.5230 C   0  0  1  0  0  3  0  0  0  0  0  0
  189.6500  173.5800  134.9080 C   0  0  0  0  0  2  0  0  0  0  0  0
  186.4220  174.3130  134.5940 C   0  0  0  0  0  2  0  0  0  0  0  0
  191.5870  173.6230  135.9970 C   0  0  1  0  0  3  0  0  0  0  0  0
  186.9420  176.3840  137.1530 C   0  0  0  0  0  2  0  0  0  0  0  0
  191.7040  173.7040  137.5270 C   0  0  0  0  0  2  0  0  0  0  0  0
  188.2050  176.7260  136.3390 C   0  0  2  0  0  3  0  0  0  0  0  0
  189.3710  177.1630  137.2170 C   0  0  2  0  0  3  0  0  0  0  0  0
  184.9850  171.9230  135.0010 C   0  0  0  0  0  2  0  0  0  0  0  0
  185.7490  177.3060  136.9060 C   0  0  1  0  0  3  0  0  0  0  0  0
  187.2350  173.0440  134.8960 C   0  0  1  0  0  3  0  0  0  0  0  0
  189.8980  176.0140  138.0810 C   0  0  2  0  0  3  0  0  0  0  0  0
  190.5580  174.4460  135.5260 O   0  0  0  0  0  0  0  0  0  0  0  0
  184.4730  176.4970  136.6760 C   0  0  0  0  0  2  0  0  0  0  0  0
  184.5080  175.7480  135.3480 C   0  0  0  0  0  2  0  0  0  0  0  0
  184.2500  173.2430  135.3000 C   0  0  0  0  0  2  0  0  0  0  0  0
  193.7120  172.8170  134.5960 C   0  0  0  0  0  3  0  0  0  0  0  0
  195.1680  174.3140  135.7200 N   0  0  0  0  0  0  0  0  0  0  0  0
  193.1350  175.3430  134.8220 C   0  0  0  0  0  2  0  0  0  0  0  0
  193.8410  174.7970  136.0650 C   0  0  1  0  0  3  0  0  0  0  0  0
  195.1710  173.1320  134.8740 C   0  0  0  0  0  3  0  0  0  0  0  0
  192.9020  173.9160  135.2760 C   0  0  1  0  0  0  0  0  0  0  0  0
  196.3660  174.9330  136.2070 C   0  0  0  0  0  0  0  0  0  0  0  0
  196.8980  174.5690  137.3670 C   0  0  0  0  0  2  0  0  0  0  0  0
  197.0110  176.0420  135.4470 C   0  0  0  0  0  1  0  0  0  0  0  0
  185.5550  178.1990  138.1160 C   0  0  0  0  0  2  0  0  0  0  0  0
  184.2050  178.1690  138.5170 O   0  0  0  0  0  0  0  0  0  0  0  0
  183.2930  177.3100  140.7730 O   0  0  0  0  0  1  0  0  0  0  0  0
  183.1030  178.6850  140.6330 C   0  0  2  0  0  0  0  0  0  0  0  0
  185.1770  179.7730  139.8900 O   0  0  0  0  0  1  0  0  0  0  0  0
  181.8170  180.0950  139.2190 C   0  0  1  0  0  3  0  0  0  0  0  0
  181.6580  178.9320  140.1440 C   0  0  2  0  0  3  0  0  0  0  0  0
  183.9690  179.2190  139.4470 C   0  0  1  0  0  0  0  0  0  0  0  0
  183.0760  180.2650  138.8310 C   0  0  0  0  0  2  0  0  0  0  0  0
  180.2860  177.8270  141.8940 C   0  0  0  0  0  2  0  0  0  0  0  0
  179.3420  178.4450  140.8880 C   0  0  0  0  0  2  0  0  0  0  0  0
  180.6280  179.1500  141.2500 C   0  0  0  0  0  3  0  0  0  0  0  0
  180.6880  180.9460  138.7170 C   0  0  0  0  0  2  0  0  0  0  0  0
  180.1510  182.7560  137.5730 C   0  0  0  0  0  1  0  0  0  0  0  0
  181.1740  182.2080  138.3450 O   0  0  0  0  0  0  0  0  0  0  0  0
  183.3880  179.2880  141.8980 O   0  0  0  0  0  0  0  0  0  0  0  0
  185.3290  178.2640  142.8750 C   0  0  0  0  0  1  0  0  0  0  0  0
  183.3650  178.8320  144.2370 C   0  0  0  0  0  1  0  0  0  0  0  0
  183.8130  178.3570  142.8700 C   0  0  0  0  0  3  0  0  0  0  0  0
  4  5  1  0  0  0  0
  6  7  2  0  0  0  0
  6 11  1  0  0  0  0
  7  9  1  0  0  0  0
  9  5  2  0  0  0  0
 11  4  2  0  0  0  0
 12 14  1  6  0  0  0
 13 24  1  0  0  0  0
 13  1  1  0  0  0  0
 15 17  1  1  0  0  0
 17  6  1  0  0  0  0
 18  2  1  6  0  0  0
 18 16  1  0  0  0  0
 18 19  1  0  0  0  0
 19  3  1  1  0  0  0
 19 23  1  0  0  0  0
 20 27  1  0  0  0  0
 20 10  1  0  0  0  0
 21 16  1  0  0  0  0
 21 37  1  1  0  0  0
 22 14  1  1  0  0  0
 22 10  1  0  0  0  0
 22  1  1  0  0  0  0
 23 11  1  0  0  0  0
 23  8  1  1  0  0  0
 24 15  1  0  0  0  0
 25 21  1  0  0  0  0
 26 12  1  0  0  0  0
 26 25  1  0  0  0  0
 27 12  1  0  0  0  0
 28 32  2  0  0  0  0
 29 31  1  0  0  0  0
 29 34  1  0  0  0  0
 30 33  1  0  0  0  0
 31 30  1  6  0  0  0
 32 29  1  0  0  0  0
 33 28  1  6  0  0  0
 33 15  1  0  0  0  0
 33 31  1  0  0  0  0
 34 35  2  0  0  0  0
 36 34  1  0  0  0  0
 37 38  1  0  0  0  0
 38 44  1  0  0  0  0
 40 39  1  1  0  0  0
 40 52  1  0  0  0  0
 42 49  1  6  0  0  0
 42 43  1  0  0  0  0
 43 40  1  0  0  0  0
 43 48  1  1  0  0  0
 44 41  1  1  0  0  0
 44 40  1  0  0  0  0
 45 42  1  0  0  0  0
 45 44  1  0  0  0  0
 47 48  1  0  0  0  0
 47 46  1  0  0  0  0
 48 46  1  0  0  0  0
 50 51  1  0  0  0  0
 51 49  1  0  0  0  0
 52 55  1  0  0  0  0
 55 53  1  0  0  0  0
 55 54  1  0  0  0  0
M  END
>  <MODEL>
2

>  <REMARK>
 VINA RESULT:      -3.5      3.096     11.650
  Name = 
  10 active torsions:
  status: ('A' for Active; 'I' for Inactive)
    1  A    between atoms: C_6  and  O_46
    2  A    between atoms: C_8  and  O_22
    3  A    between atoms: C_8  and  C_43
    4  A    between atoms: C_10  and  N_32
    5  A    between atoms: C_12  and  C_30
    6  A    between atoms: C_14  and  C_38
    7  A    between atoms: C_20  and  O_22
    8  A    between atoms: C_30  and  O_50
    9  A    between atoms: C_33  and  C_52
   10  A    between atoms: O_46  and  C_53
                            x       y       z     vdW  Elec       q    Type
                         _______ _______ _______ _____ _____    ______ ____

>  <TORSDO>
F 10

$$$$
=
 OpenBabel11052414513D

 55 61  0  0  1  0  0  0  0  0999 V2000
  185.0340  177.7520  139.8650 C   0  0  0  0  0  2  0  0  0  0  0  0
  186.9660  177.8920  135.9680 C   0  0  0  0  0  1  0  0  0  0  0  0
  185.9700  175.0940  135.2640 O   0  0  0  0  0  1  0  0  0  0  0  0
  182.8570  174.5100  135.2250 C   0  0  0  0  0  3  0  0  0  0  0  0
  181.5920  174.3360  134.6620 C   0  0  0  0  0  3  0  0  0  0  0  0
  181.8500  175.5320  137.1880 C   0  0  0  0  0  0  0  0  0  0  0  0
  180.5840  175.3420  136.6180 C   0  0  0  0  0  3  0  0  0  0  0  0
  184.8720  174.0410  137.4940 O   0  0  0  0  0  1  0  0  0  0  0  0
  180.4550  174.7520  135.3590 C   0  0  0  0  0  3  0  0  0  0  0  0
  186.4260  178.0070  141.9320 C   0  0  0  0  0  2  0  0  0  0  0  0
  183.0010  175.1140  136.4850 C   0  0  0  0  0  0  0  0  0  0  0  0
  188.4020  177.7390  140.0320 C   0  0  1  0  0  3  0  0  0  0  0  0
  184.0160  178.6550  139.2000 C   0  0  0  0  0  2  0  0  0  0  0  0
  187.3110  178.7320  139.6310 C   0  0  0  0  0  2  0  0  0  0  0  0
  182.1310  177.6650  138.5590 C   0  0  1  0  0  3  0  0  0  0  0  0
  187.3350  176.0090  137.7100 C   0  0  0  0  0  2  0  0  0  0  0  0
  181.9250  176.1420  138.5580 C   0  0  0  0  0  2  0  0  0  0  0  0
  186.3400  176.8470  136.8830 C   0  0  2  0  0  3  0  0  0  0  0  0
  185.3300  175.9890  136.1320 C   0  0  2  0  0  3  0  0  0  0  0  0
  187.7920  178.4950  142.3970 C   0  0  0  0  0  2  0  0  0  0  0  0
  188.7890  176.1030  137.2520 C   0  0  1  0  0  3  0  0  0  0  0  0
  186.0870  178.6000  140.5500 C   0  0  1  0  0  3  0  0  0  0  0  0
  184.3680  175.2720  137.0830 C   0  0  2  0  0  3  0  0  0  0  0  0
  183.4170  177.9990  138.1190 O   0  0  0  0  0  0  0  0  0  0  0  0
  189.7200  176.3490  138.4400 C   0  0  0  0  0  2  0  0  0  0  0  0
  189.5360  177.7450  139.0250 C   0  0  0  0  0  2  0  0  0  0  0  0
  188.9120  178.0290  141.4480 C   0  0  0  0  0  2  0  0  0  0  0  0
  181.2740  178.8230  136.3110 C   0  0  0  0  0  3  0  0  0  0  0  0
  180.1960  180.5770  137.4880 N   0  0  0  0  0  0  0  0  0  0  0  0
  179.6370  178.3240  138.2700 C   0  0  0  0  0  2  0  0  0  0  0  0
  180.4670  179.5870  138.5160 C   0  0  1  0  0  3  0  0  0  0  0  0
  180.6660  180.2060  136.1630 C   0  0  0  0  0  3  0  0  0  0  0  0
  181.0640  178.4180  137.7670 C   0  0  1  0  0  0  0  0  0  0  0  0
  179.5520  181.8270  137.7700 C   0  0  0  0  0  0  0  0  0  0  0  0
  179.2480  182.6720  136.7920 C   0  0  0  0  0  2  0  0  0  0  0  0
  179.2610  182.2320  139.1740 C   0  0  0  0  0  1  0  0  0  0  0  0
  189.1810  174.8020  136.5790 C   0  0  0  0  0  2  0  0  0  0  0  0
  190.4610  174.9310  136.0050 O   0  0  0  0  0  0  0  0  0  0  0  0
  192.3210  176.4450  136.9580 O   0  0  0  0  0  1  0  0  0  0  0  0
  192.6670  175.0960  137.0370 C   0  0  2  0  0  0  0  0  0  0  0  0
  190.8240  173.7840  137.9940 O   0  0  0  0  0  1  0  0  0  0  0  0
  193.1390  173.3630  135.4830 C   0  0  1  0  0  3  0  0  0  0  0  0
  193.5670  174.7520  135.8290 C   0  0  2  0  0  3  0  0  0  0  0  0
  191.4030  174.2120  136.7920 C   0  0  1  0  0  0  0  0  0  0  0  0
  191.9570  173.0520  136.0050 C   0  0  0  0  0  2  0  0  0  0  0  0
  195.5600  176.1870  135.4610 C   0  0  0  0  0  2  0  0  0  0  0  0
  195.8010  174.8720  134.7550 C   0  0  0  0  0  2  0  0  0  0  0  0
  195.0680  174.8980  136.0760 C   0  0  0  0  0  3  0  0  0  0  0  0
  193.9060  172.4290  134.5940 C   0  0  0  0  0  2  0  0  0  0  0  0
  194.7070  170.3810  134.7950 C   0  0  0  0  0  1  0  0  0  0  0  0
  193.5170  171.1050  134.8460 O   0  0  0  0  0  0  0  0  0  0  0  0
  193.3040  174.8900  138.3000 O   0  0  0  0  0  0  0  0  0  0  0  0
  192.9750  176.7650  139.7640 C   0  0  0  0  0  1  0  0  0  0  0  0
  195.1630  175.6660  139.5730 C   0  0  0  0  0  1  0  0  0  0  0  0
  193.9160  176.0570  138.8070 C   0  0  0  0  0  3  0  0  0  0  0  0
  1 22  1  0  0  0  0
  4 11  1  0  0  0  0
  5  4  2  0  0  0  0
  5  9  1  0  0  0  0
  6 17  1  0  0  0  0
  7  6  1  0  0  0  0
  9  7  2  0  0  0  0
 10 20  1  0  0  0  0
 11 23  1  0  0  0  0
 11  6  2  0  0  0  0
 12 26  1  6  0  0  0
 12 27  1  0  0  0  0
 13  1  1  0  0  0  0
 14 12  1  0  0  0  0
 15 17  1  6  0  0  0
 18  2  1  6  0  0  0
 18 16  1  0  0  0  0
 19  3  1  1  0  0  0
 19 18  1  0  0  0  0
 19 23  1  0  0  0  0
 21 37  1  1  0  0  0
 21 16  1  0  0  0  0
 21 25  1  0  0  0  0
 22 14  1  6  0  0  0
 22 10  1  0  0  0  0
 23  8  1  6  0  0  0
 24 15  1  0  0  0  0
 24 13  1  0  0  0  0
 25 26  1  0  0  0  0
 27 20  1  0  0  0  0
 29 34  1  0  0  0  0
 29 31  1  0  0  0  0
 31 30  1  6  0  0  0
 32 28  2  0  0  0  0
 32 29  1  0  0  0  0
 33 28  1  6  0  0  0
 33 30  1  0  0  0  0
 33 31  1  0  0  0  0
 33 15  1  0  0  0  0
 34 36  1  0  0  0  0
 35 34  2  0  0  0  0
 38 37  1  0  0  0  0
 38 44  1  0  0  0  0
 40 39  1  6  0  0  0
 40 52  1  0  0  0  0
 42 49  1  6  0  0  0
 42 43  1  0  0  0  0
 42 45  1  0  0  0  0
 43 48  1  1  0  0  0
 43 40  1  0  0  0  0
 44 40  1  0  0  0  0
 44 41  1  1  0  0  0
 45 44  1  0  0  0  0
 46 48  1  0  0  0  0
 47 46  1  0  0  0  0
 47 48  1  0  0  0  0
 49 51  1  0  0  0  0
 50 51  1  0  0  0  0
 52 55  1  0  0  0  0
 55 54  1  0  0  0  0
 55 53  1  0  0  0  0
M  END
>  <MODEL>
3

>  <REMARK>
 VINA RESULT:      -2.8      1.308      2.680
  Name = 
  10 active torsions:
  status: ('A' for Active; 'I' for Inactive)
    1  A    between atoms: C_6  and  O_46
    2  A    between atoms: C_8  and  O_22
    3  A    between atoms: C_8  and  C_43
    4  A    between atoms: C_10  and  N_32
    5  A    between atoms: C_12  and  C_30
    6  A    between atoms: C_14  and  C_38
    7  A    between atoms: C_20  and  O_22
    8  A    between atoms: C_30  and  O_50
    9  A    between atoms: C_33  and  C_52
   10  A    between atoms: O_46  and  C_53
                            x       y       z     vdW  Elec       q    Type
                         _______ _______ _______ _____ _____    ______ ____

>  <TORSDO>
F 10

$$$$
