=
 OpenBabel11052413253D

 28 33  0  0  1  0  0  0  0  0999 V2000
  186.9170  177.6730  145.4860 C   0  0  0  0  0  0  0  0  0  0  0  0
  188.3200  177.2080  145.7100 C   0  0  1  0  0  3  0  0  0  0  0  0
  188.3900  176.9410  143.1750 C   0  0  1  0  0  3  0  0  0  0  0  0
  186.8740  178.1430  139.3080 C   0  0  0  0  0  3  0  0  0  0  0  0
  182.9820  179.2960  145.0910 C   0  0  0  0  0  1  0  0  0  0  0  0
  190.5860  178.0210  145.3360 C   0  0  2  0  0  3  0  0  0  0  0  0
  188.9000  176.4550  144.5190 C   0  0  1  0  0  3  0  0  0  0  0  0
  189.4410  178.5600  147.4720 C   0  0  0  0  0  1  0  0  0  0  0  0
  189.8300  177.3430  139.8960 C   0  0  0  0  0  3  0  0  0  0  0  0
  186.7180  177.9660  141.7460 C   0  0  0  0  0  0  0  0  0  0  0  0
  189.2570  178.3750  145.9780 C   0  0  2  0  0  3  0  0  0  0  0  0
  188.9100  178.5560  137.8790 C   0  0  0  0  0  0  0  0  0  0  0  0
  187.4700  177.8100  140.6210 C   0  0  1  0  0  3  0  0  0  0  0  0
  189.0950  176.3960  141.9650 C   0  0  0  0  0  2  0  0  0  0  0  0
  189.8970  178.0630  138.6200 C   0  0  0  0  0  3  0  0  0  0  0  0
  185.1380  178.4740  144.0430 C   0  0  0  0  0  0  0  0  0  0  0  0
  187.2100  177.6040  143.0410 C   0  0  0  0  0  0  0  0  0  0  0  0
  188.8200  177.2150  140.7530 C   0  0  0  0  0  0  0  0  0  0  0  0
  184.8630  178.4560  146.4200 N   0  0  0  0  0  0  0  0  0  0  0  0
  184.6520  178.7690  142.7690 C   0  0  0  0  0  3  0  0  0  0  0  0
  184.3600  178.7270  145.1890 C   0  0  0  0  0  0  0  0  0  0  0  0
  190.9570  179.0850  144.3220 C   0  0  0  0  0  1  0  0  0  0  0  0
  189.2870  179.2070  136.5970 C   0  0  0  0  0  1  0  0  0  0  0  0
  187.4760  178.4460  138.1630 C   0  0  0  0  0  3  0  0  0  0  0  0
  185.4340  178.5310  141.6470 C   0  0  0  0  0  3  0  0  0  0  0  0
  186.1100  177.9490  146.5900 C   0  0  0  0  0  3  0  0  0  0  0  0
  186.4310  177.9180  144.1880 C   0  0  0  0  0  0  0  0  0  0  0  0
  190.3980  176.6880  144.6320 C   0  0  0  0  0  2  0  0  0  0  0  0
  1 26  1  0  0  0  0
  2  1  1  6  0  0  0
  2 11  1  0  0  0  0
  3 14  1  6  0  0  0
  3  7  1  0  0  0  0
  5 21  1  0  0  0  0
  6 22  1  6  0  0  0
  6 11  1  0  0  0  0
  7 28  1  6  0  0  0
  7  2  1  0  0  0  0
  9 18  2  0  0  0  0
 10 17  2  0  0  0  0
 11  8  1  1  0  0  0
 12 24  1  0  0  0  0
 12 15  2  0  0  0  0
 13  4  1  6  0  0  0
 13 18  1  0  0  0  0
 13 10  1  0  0  0  0
 15  9  1  0  0  0  0
 16 27  1  0  0  0  0
 16 21  2  0  0  0  0
 17  3  1  0  0  0  0
 17 27  1  0  0  0  0
 18 14  1  0  0  0  0
 19 26  2  0  0  0  0
 20 16  1  0  0  0  0
 21 19  1  0  0  0  0
 23 12  1  0  0  0  0
 24  4  2  0  0  0  0
 25 10  1  0  0  0  0
 25 20  2  0  0  0  0
 27  1  2  0  0  0  0
 28  6  1  0  0  0  0
M  END
>  <MODEL>
1

>  <REMARK>
 VINA RESULT:      -9.2      0.000      0.000
  Name = 
  0 active torsions:
  status: ('A' for Active; 'I' for Inactive)
                            x       y       z     vdW  Elec       q    Type
                         _______ _______ _______ _____ _____    ______ ____

>  <TORSDO>
F 0

$$$$
=
 OpenBabel11052413253D

 28 33  0  0  1  0  0  0  0  0999 V2000
  180.9680  178.9640  140.7450 C   0  0  0  0  0  0  0  0  0  0  0  0
  181.5980  178.8300  139.3950 C   0  0  1  0  0  3  0  0  0  0  0  0
  183.8030  179.0030  140.6650 C   0  0  1  0  0  3  0  0  0  0  0  0
  185.9680  178.4450  144.3660 C   0  0  0  0  0  3  0  0  0  0  0  0
  178.9310  179.0490  144.5010 C   0  0  0  0  0  1  0  0  0  0  0  0
  182.8590  177.1690  138.1340 C   0  0  2  0  0  3  0  0  0  0  0  0
  183.0570  179.2660  139.3700 C   0  0  1  0  0  3  0  0  0  0  0  0
  180.3800  177.1710  137.9980 C   0  0  0  0  0  1  0  0  0  0  0  0
  187.1580  178.0010  141.5180 C   0  0  0  0  0  3  0  0  0  0  0  0
  183.9060  178.7110  143.0710 C   0  0  0  0  0  0  0  0  0  0  0  0
  181.5720  177.3890  138.9090 C   0  0  2  0  0  3  0  0  0  0  0  0
  188.0840  177.2250  143.7380 C   0  0  0  0  0  0  0  0  0  0  0  0
  185.2570  178.5320  143.0720 C   0  0  0  0  0  0  0  0  0  0  0  0
  185.2920  179.1990  140.6220 C   0  0  0  0  0  2  0  0  0  0  0  0
  188.0810  177.2930  142.4100 C   0  0  0  0  0  3  0  0  0  0  0  0
  181.0810  178.9190  143.1680 C   0  0  0  0  0  0  0  0  0  0  0  0
  183.1630  178.8670  141.8580 C   0  0  0  0  0  0  0  0  0  0  0  0
  185.9670  178.5380  141.7720 C   0  0  0  0  0  0  0  0  0  0  0  0
  178.9720  179.0860  142.0500 N   0  0  0  0  0  0  0  0  0  0  0  0
  181.8250  178.8230  144.3440 C   0  0  0  0  0  3  0  0  0  0  0  0
  179.6770  179.0190  143.2080 C   0  0  0  0  0  0  0  0  0  0  0  0
  183.6360  176.0280  138.7610 C   0  0  0  0  0  1  0  0  0  0  0  0
  189.1850  176.4560  144.3730 C   0  0  0  0  0  1  0  0  0  0  0  0
  187.1510  177.9060  144.6400 C   0  0  0  0  0  2  0  0  0  0  0  0
  183.2070  178.7080  144.2920 C   0  0  0  0  0  3  0  0  0  0  0  0
  179.5780  179.0530  140.8370 C   0  0  0  0  0  3  0  0  0  0  0  0
  181.7440  178.9110  141.9170 C   0  0  0  0  0  0  0  0  0  0  0  0
  183.6630  178.4530  138.2360 C   0  0  0  0  0  2  0  0  0  0  0  0
  1 26  2  0  0  0  0
  1 27  1  0  0  0  0
  2  1  1  1  0  0  0
  3 14  1  1  0  0  0
  3 17  1  0  0  0  0
  4 24  1  0  0  0  0
  6 28  1  0  0  0  0
  6 22  1  1  0  0  0
  6 11  1  0  0  0  0
  7 28  1  6  0  0  0
  7  2  1  0  0  0  0
  7  3  1  0  0  0  0
  9 18  2  0  0  0  0
  9 15  1  0  0  0  0
 10 13  1  0  0  0  0
 10 25  1  0  0  0  0
 11  8  1  6  0  0  0
 11  2  1  0  0  0  0
 12 23  1  0  0  0  0
 12 24  1  0  0  0  0
 13  4  2  0  0  0  0
 14 18  1  0  0  0  0
 15 12  2  0  0  0  0
 16 21  1  0  0  0  0
 16 20  1  0  0  0  0
 17 27  1  0  0  0  0
 17 10  2  0  0  0  0
 18 13  1  0  0  0  0
 19 21  2  0  0  0  0
 21  5  1  0  0  0  0
 25 20  2  0  0  0  0
 26 19  1  0  0  0  0
 27 16  2  0  0  0  0
M  END
>  <MODEL>
2

>  <REMARK>
 VINA RESULT:      -8.8      3.308      6.936
  Name = 
  0 active torsions:
  status: ('A' for Active; 'I' for Inactive)
                            x       y       z     vdW  Elec       q    Type
                         _______ _______ _______ _____ _____    ______ ____

>  <TORSDO>
F 0

$$$$
=
 OpenBabel11052413253D

 28 33  0  0  1  0  0  0  0  0999 V2000
  182.9950  178.8110  142.0180 C   0  0  0  0  0  0  0  0  0  0  0  0
  182.3820  178.7750  140.6540 C   0  0  1  0  0  3  0  0  0  0  0  0
  184.7920  178.8220  139.8240 C   0  0  1  0  0  3  0  0  0  0  0  0
  188.9600  177.9510  140.5810 C   0  0  0  0  0  3  0  0  0  0  0  0
  184.4970  178.6280  146.0160 C   0  0  0  0  0  1  0  0  0  0  0  0
  182.1460  177.2030  138.8080 C   0  0  2  0  0  3  0  0  0  0  0  0
  183.3470  179.1940  139.5530 C   0  0  1  0  0  3  0  0  0  0  0  0
  180.4210  177.2450  140.5930 C   0  0  0  0  0  1  0  0  0  0  0  0
  187.5640  177.7170  137.8020 C   0  0  0  0  0  3  0  0  0  0  0  0
  186.6530  178.3420  141.3060 C   0  0  0  0  0  0  0  0  0  0  0  0
  181.9020  177.3770  140.2960 C   0  0  2  0  0  3  0  0  0  0  0  0
  189.7890  176.7590  138.5200 C   0  0  0  0  0  0  0  0  0  0  0  0
  187.5250  178.1480  140.2770 C   0  0  1  0  0  3  0  0  0  0  0  0
  185.7470  179.0030  138.6780 C   0  0  0  0  0  2  0  0  0  0  0  0
  188.7920  176.9300  137.6570 C   0  0  0  0  0  3  0  0  0  0  0  0
  184.8910  178.5760  143.5130 C   0  0  0  0  0  0  0  0  0  0  0  0
  185.2630  178.6010  141.0810 C   0  0  0  0  0  0  0  0  0  0  0  0
  187.0110  178.2460  138.8910 C   0  0  0  0  0  0  0  0  0  0  0  0
  182.6800  178.8560  144.3850 N   0  0  0  0  0  0  0  0  0  0  0  0
  186.2570  178.3800  143.7150 C   0  0  0  0  0  3  0  0  0  0  0  0
  184.0100  178.6900  144.6050 C   0  0  0  0  0  0  0  0  0  0  0  0
  183.0500  176.0070  138.5810 C   0  0  0  0  0  1  0  0  0  0  0  0
  190.9380  175.9300  138.0700 C   0  0  0  0  0  1  0  0  0  0  0  0
  189.9040  177.3790  139.8420 C   0  0  0  0  0  3  0  0  0  0  0  0
  187.1150  178.2520  142.6310 C   0  0  0  0  0  3  0  0  0  0  0  0
  182.1610  178.9090  143.1330 C   0  0  0  0  0  3  0  0  0  0  0  0
  184.3820  178.6580  142.1950 C   0  0  0  0  0  0  0  0  0  0  0  0
  182.8350  178.4650  138.3200 C   0  0  0  0  0  2  0  0  0  0  0  0
  1 27  2  0  0  0  0
  1 26  1  0  0  0  0
  2  1  1  1  0  0  0
  3 14  1  1  0  0  0
  3 17  1  0  0  0  0
  6 22  1  1  0  0  0
  6 11  1  0  0  0  0
  7 28  1  6  0  0  0
  7  3  1  0  0  0  0
  7  2  1  0  0  0  0
  9 18  2  0  0  0  0
 10 25  1  0  0  0  0
 11  8  1  6  0  0  0
 11  2  1  0  0  0  0
 12 24  1  0  0  0  0
 13  4  1  6  0  0  0
 13 10  1  0  0  0  0
 14 18  1  0  0  0  0
 15  9  1  0  0  0  0
 15 12  2  0  0  0  0
 16 20  1  0  0  0  0
 16 21  2  0  0  0  0
 17 10  2  0  0  0  0
 17 27  1  0  0  0  0
 18 13  1  0  0  0  0
 19 21  1  0  0  0  0
 21  5  1  0  0  0  0
 23 12  1  0  0  0  0
 24  4  2  0  0  0  0
 25 20  2  0  0  0  0
 26 19  2  0  0  0  0
 27 16  1  0  0  0  0
 28  6  1  0  0  0  0
M  END
>  <MODEL>
3

>  <REMARK>
 VINA RESULT:      -8.7      2.362      5.584
  Name = 
  0 active torsions:
  status: ('A' for Active; 'I' for Inactive)
                            x       y       z     vdW  Elec       q    Type
                         _______ _______ _______ _____ _____    ______ ____

>  <TORSDO>
F 0

$$$$
=
 OpenBabel11052413253D

 28 33  0  0  1  0  0  0  0  0999 V2000
  184.6720  178.4580  138.8060 C   0  0  0  0  0  0  0  0  0  0  0  0
  185.5880  178.2350  137.6440 C   0  0  1  0  0  3  0  0  0  0  0  0
  187.4470  178.3610  139.3850 C   0  0  1  0  0  3  0  0  0  0  0  0
  188.6680  177.8640  143.5040 C   0  0  0  0  0  3  0  0  0  0  0  0
  181.8330  178.8030  141.9820 C   0  0  0  0  0  1  0  0  0  0  0  0
  187.0110  176.4640  136.7640 C   0  0  2  0  0  3  0  0  0  0  0  0
  187.0360  178.6010  137.9450 C   0  0  1  0  0  3  0  0  0  0  0  0
  184.6330  176.5760  136.0560 C   0  0  0  0  0  1  0  0  0  0  0  0
  190.4550  177.2410  141.0250 C   0  0  0  0  0  3  0  0  0  0  0  0
  186.9770  178.1700  141.7580 C   0  0  0  0  0  0  0  0  0  0  0  0
  185.5950  176.7780  137.2110 C   0  0  2  0  0  3  0  0  0  0  0  0
  190.8000  176.5210  143.4230 C   0  0  0  0  0  0  0  0  0  0  0  0
  188.2790  177.9280  142.0770 C   0  0  0  0  0  0  0  0  0  0  0  0
  188.9150  178.4840  139.6830 C   0  0  0  0  0  2  0  0  0  0  0  0
  191.1070  176.5300  142.1300 C   0  0  0  0  0  3  0  0  0  0  0  0
  184.2220  178.5140  141.1890 C   0  0  0  0  0  0  0  0  0  0  0  0
  186.5430  178.3070  140.4010 C   0  0  0  0  0  0  0  0  0  0  0  0
  189.2690  177.8430  140.9790 C   0  0  0  0  0  0  0  0  0  0  0  0
  182.4390  178.7310  139.6070 N   0  0  0  0  0  0  0  0  0  0  0  0
  184.6690  178.4350  142.5080 C   0  0  0  0  0  3  0  0  0  0  0  0
  182.8540  178.6810  140.8990 C   0  0  0  0  0  0  0  0  0  0  0  0
  187.5580  175.3160  137.5900 C   0  0  0  0  0  1  0  0  0  0  0  0
  191.6810  175.7300  144.3210 C   0  0  0  0  0  1  0  0  0  0  0  0
  189.7240  177.2840  144.0620 C   0  0  0  0  0  2  0  0  0  0  0  0
  186.0170  178.2530  142.7830 C   0  0  0  0  0  3  0  0  0  0  0  0
  183.3060  178.6150  138.5700 C   0  0  0  0  0  3  0  0  0  0  0  0
  185.1530  178.4200  140.1280 C   0  0  0  0  0  0  0  0  0  0  0  0
  187.8400  177.7120  137.0090 C   0  0  0  0  0  2  0  0  0  0  0  0
  1 27  1  0  0  0  0
  2  7  1  0  0  0  0
  2  1  1  1  0  0  0
  3 14  1  1  0  0  0
  3 17  1  0  0  0  0
  4 24  1  0  0  0  0
  6 28  1  0  0  0  0
  6 11  1  0  0  0  0
  6 22  1  1  0  0  0
  7 28  1  6  0  0  0
  7  3  1  0  0  0  0
  9 15  1  0  0  0  0
 10 13  1  0  0  0  0
 10 25  1  0  0  0  0
 11  8  1  6  0  0  0
 11  2  1  0  0  0  0
 12 24  1  0  0  0  0
 12 23  1  0  0  0  0
 13  4  2  0  0  0  0
 14 18  1  0  0  0  0
 15 12  2  0  0  0  0
 16 20  1  0  0  0  0
 17 10  2  0  0  0  0
 18  9  2  0  0  0  0
 18 13  1  0  0  0  0
 19 21  2  0  0  0  0
 20 25  2  0  0  0  0
 21 16  1  0  0  0  0
 21  5  1  0  0  0  0
 26  1  2  0  0  0  0
 26 19  1  0  0  0  0
 27 17  1  0  0  0  0
 27 16  2  0  0  0  0
M  END
>  <MODEL>
4

>  <REMARK>
 VINA RESULT:      -8.0      2.366      6.185
  Name = 
  0 active torsions:
  status: ('A' for Active; 'I' for Inactive)
                            x       y       z     vdW  Elec       q    Type
                         _______ _______ _______ _____ _____    ______ ____

>  <TORSDO>
F 0

$$$$
=
 OpenBabel11052413253D

 28 33  0  0  1  0  0  0  0  0999 V2000
  185.6100  178.7950  144.4210 C   0  0  0  0  0  0  0  0  0  0  0  0
  184.6390  179.3000  143.4020 C   0  0  1  0  0  3  0  0  0  0  0  0
  186.5370  178.9120  141.7430 C   0  0  1  0  0  3  0  0  0  0  0  0
  190.1510  176.7660  140.7260 C   0  0  0  0  0  3  0  0  0  0  0  0
  188.0930  177.1280  147.4750 C   0  0  0  0  0  1  0  0  0  0  0  0
  183.3150  178.4160  141.5580 C   0  0  2  0  0  3  0  0  0  0  0  0
  185.3060  179.7230  142.0990 C   0  0  1  0  0  3  0  0  0  0  0  0
  182.3470  178.4400  143.8440 C   0  0  0  0  0  1  0  0  0  0  0  0
  187.9850  177.6860  138.6790 C   0  0  0  0  0  3  0  0  0  0  0  0
  188.4660  177.5580  142.3190 C   0  0  0  0  0  0  0  0  0  0  0  0
  183.6140  178.2380  143.0350 C   0  0  2  0  0  3  0  0  0  0  0  0
  189.8380  176.0000  138.3440 C   0  0  0  0  0  0  0  0  0  0  0  0
  188.8570  177.4210  141.0210 C   0  0  1  0  0  3  0  0  0  0  0  0
  187.0970  179.1300  140.3660 C   0  0  0  0  0  2  0  0  0  0  0  0
  188.7530  176.6640  137.9600 C   0  0  0  0  0  3  0  0  0  0  0  0
  187.6620  177.6540  145.0350 C   0  0  0  0  0  0  0  0  0  0  0  0
  187.2590  178.2370  142.6790 C   0  0  0  0  0  0  0  0  0  0  0  0
  188.0150  178.0290  139.9650 C   0  0  0  0  0  0  0  0  0  0  0  0
  186.0680  178.2770  146.7080 N   0  0  0  0  0  0  0  0  0  0  0  0
  188.8630  177.0450  144.6730 C   0  0  0  0  0  3  0  0  0  0  0  0
  187.2540  177.7020  146.3810 C   0  0  0  0  0  0  0  0  0  0  0  0
  183.6270  177.1280  140.8210 C   0  0  0  0  0  1  0  0  0  0  0  0
  190.4260  175.0440  137.3700 C   0  0  0  0  0  1  0  0  0  0  0  0
  190.5610  176.1810  139.6060 C   0  0  0  0  0  3  0  0  0  0  0  0
  189.2480  176.9890  143.3400 C   0  0  0  0  0  3  0  0  0  0  0  0
  185.2460  178.8090  145.7690 C   0  0  0  0  0  3  0  0  0  0  0  0
  186.8390  178.2270  144.0360 C   0  0  0  0  0  0  0  0  0  0  0  0
  184.2210  179.5260  141.0520 C   0  0  0  0  0  2  0  0  0  0  0  0
  1 26  1  0  0  0  0
  2  1  1  1  0  0  0
  3 14  1  1  0  0  0
  3  7  1  0  0  0  0
  3 17  1  0  0  0  0
  6 22  1  6  0  0  0
  6 11  1  0  0  0  0
  7 28  1  6  0  0  0
  7  2  1  0  0  0  0
  9 18  2  0  0  0  0
 10 17  2  0  0  0  0
 10 25  1  0  0  0  0
 11  2  1  0  0  0  0
 11  8  1  1  0  0  0
 12 24  1  0  0  0  0
 13  4  1  1  0  0  0
 13 10  1  0  0  0  0
 15 12  2  0  0  0  0
 15  9  1  0  0  0  0
 16 21  2  0  0  0  0
 17 27  1  0  0  0  0
 18 14  1  0  0  0  0
 18 13  1  0  0  0  0
 20 16  1  0  0  0  0
 21 19  1  0  0  0  0
 21  5  1  0  0  0  0
 23 12  1  0  0  0  0
 24  4  2  0  0  0  0
 25 20  2  0  0  0  0
 26 19  2  0  0  0  0
 27  1  2  0  0  0  0
 27 16  1  0  0  0  0
 28  6  1  0  0  0  0
M  END
>  <MODEL>
5

>  <REMARK>
 VINA RESULT:      -7.9      1.436      4.468
  Name = 
  0 active torsions:
  status: ('A' for Active; 'I' for Inactive)
                            x       y       z     vdW  Elec       q    Type
                         _______ _______ _______ _____ _____    ______ ____

>  <TORSDO>
F 0

$$$$
=
 OpenBabel11052413253D

 28 33  0  0  1  0  0  0  0  0999 V2000
  190.1430  177.4740  140.4090 C   0  0  0  0  0  0  0  0  0  0  0  0
  190.0470  177.6920  141.8850 C   0  0  1  0  0  3  0  0  0  0  0  0
  187.7350  178.6320  141.3610 C   0  0  1  0  0  3  0  0  0  0  0  0
  184.3140  178.7180  138.7180 C   0  0  0  0  0  3  0  0  0  0  0  0
  190.5550  176.4930  136.2690 C   0  0  0  0  0  1  0  0  0  0  0  0
  188.8500  176.7530  143.7880 C   0  0  2  0  0  3  0  0  0  0  0  0
  188.9450  178.6680  142.2760 C   0  0  1  0  0  3  0  0  0  0  0  0
  191.0440  175.7880  143.1380 C   0  0  0  0  0  1  0  0  0  0  0  0
  184.1770  178.9750  141.8240 C   0  0  0  0  0  3  0  0  0  0  0  0
  186.6630  178.2390  139.2210 C   0  0  0  0  0  0  0  0  0  0  0  0
  189.7530  176.3950  142.6220 C   0  0  2  0  0  3  0  0  0  0  0  0
  182.2960  178.4760  140.2120 C   0  0  0  0  0  0  0  0  0  0  0  0
  185.4340  178.6070  139.6790 C   0  0  1  0  0  3  0  0  0  0  0  0
  186.5310  179.4000  141.8270 C   0  0  0  0  0  2  0  0  0  0  0  0
  182.8090  178.6280  141.4290 C   0  0  0  0  0  3  0  0  0  0  0  0
  189.1410  177.3120  138.2050 C   0  0  0  0  0  0  0  0  0  0  0  0
  187.8040  178.1730  140.0820 C   0  0  0  0  0  0  0  0  0  0  0  0
  185.2980  178.9810  141.1060 C   0  0  0  0  0  0  0  0  0  0  0  0
  191.4320  176.7120  138.5480 N   0  0  0  0  0  0  0  0  0  0  0  0
  188.0330  177.4360  137.3670 C   0  0  0  0  0  3  0  0  0  0  0  0
  190.3740  176.8480  137.7080 C   0  0  0  0  0  0  0  0  0  0  0  0
  187.5560  175.9700  143.6820 C   0  0  0  0  0  1  0  0  0  0  0  0
  180.8470  178.1610  140.1230 C   0  0  0  0  0  1  0  0  0  0  0  0
  183.0050  178.6710  138.9440 C   0  0  0  0  0  3  0  0  0  0  0  0
  186.8180  177.8780  137.8700 C   0  0  0  0  0  3  0  0  0  0  0  0
  191.3410  177.0030  139.8700 C   0  0  0  0  0  3  0  0  0  0  0  0
  189.0240  177.6510  139.5740 C   0  0  0  0  0  0  0  0  0  0  0  0
  188.5580  178.2400  143.6830 C   0  0  0  0  0  2  0  0  0  0  0  0
  2  1  1  6  0  0  0
  2  7  1  0  0  0  0
  2 11  1  0  0  0  0
  3 14  1  6  0  0  0
  3  7  1  0  0  0  0
  4 24  2  0  0  0  0
  5 21  1  0  0  0  0
  6 22  1  6  0  0  0
  7 28  1  1  0  0  0
 10 13  1  0  0  0  0
 10 17  2  0  0  0  0
 11  8  1  1  0  0  0
 11  6  1  0  0  0  0
 12 15  2  0  0  0  0
 13  4  1  6  0  0  0
 13 18  1  0  0  0  0
 15  9  1  0  0  0  0
 16 27  1  0  0  0  0
 17  3  1  0  0  0  0
 18  9  2  0  0  0  0
 18 14  1  0  0  0  0
 19 26  2  0  0  0  0
 20 25  2  0  0  0  0
 20 16  1  0  0  0  0
 21 16  2  0  0  0  0
 21 19  1  0  0  0  0
 23 12  1  0  0  0  0
 24 12  1  0  0  0  0
 25 10  1  0  0  0  0
 26  1  1  0  0  0  0
 27 17  1  0  0  0  0
 27  1  2  0  0  0  0
 28  6  1  0  0  0  0
M  END
>  <MODEL>
6

>  <REMARK>
 VINA RESULT:      -7.9      2.837      6.038
  Name = 
  0 active torsions:
  status: ('A' for Active; 'I' for Inactive)
                            x       y       z     vdW  Elec       q    Type
                         _______ _______ _______ _____ _____    ______ ____

>  <TORSDO>
F 0

$$$$
=
 OpenBabel11052413253D

 28 33  0  0  1  0  0  0  0  0999 V2000
  186.5010  178.6470  140.8790 C   0  0  0  0  0  0  0  0  0  0  0  0
  187.7220  178.6460  140.0150 C   0  0  1  0  0  3  0  0  0  0  0  0
  188.9980  178.5580  142.2210 C   0  0  1  0  0  3  0  0  0  0  0  0
  189.0440  177.4550  146.4010 C   0  0  0  0  0  3  0  0  0  0  0  0
  182.8630  178.3780  143.1070 C   0  0  0  0  0  1  0  0  0  0  0  0
  189.4720  177.0900  139.3430 C   0  0  2  0  0  3  0  0  0  0  0  0
  188.9920  179.0110  140.7730 C   0  0  1  0  0  3  0  0  0  0  0  0
  187.3900  177.2280  137.9980 C   0  0  0  0  0  1  0  0  0  0  0  0
  191.5020  177.3000  144.4870 C   0  0  0  0  0  3  0  0  0  0  0  0
  187.8950  177.9740  144.3010 C   0  0  0  0  0  0  0  0  0  0  0  0
  187.9670  177.2770  139.3990 C   0  0  2  0  0  3  0  0  0  0  0  0
  191.2140  176.2180  146.7530 C   0  0  0  0  0  0  0  0  0  0  0  0
  189.0700  177.7310  144.9480 C   0  0  0  0  0  0  0  0  0  0  0  0
  190.3080  178.6850  142.9470 C   0  0  0  0  0  2  0  0  0  0  0  0
  191.8710  176.4450  145.6200 C   0  0  0  0  0  3  0  0  0  0  0  0
  185.3940  178.3050  143.0110 C   0  0  0  0  0  0  0  0  0  0  0  0
  187.8520  178.3110  142.9110 C   0  0  0  0  0  0  0  0  0  0  0  0
  190.3330  177.8590  144.1840 C   0  0  0  0  0  0  0  0  0  0  0  0
  184.1180  178.7080  141.0270 N   0  0  0  0  0  0  0  0  0  0  0  0
  185.4560  178.0320  144.3770 C   0  0  0  0  0  3  0  0  0  0  0  0
  184.1550  178.4670  142.3630 C   0  0  0  0  0  0  0  0  0  0  0  0
  189.8550  175.8460  140.1200 C   0  0  0  0  0  1  0  0  0  0  0  0
  191.8660  175.3260  147.7470 C   0  0  0  0  0  1  0  0  0  0  0  0
  189.9440  176.8310  147.1540 C   0  0  0  0  0  2  0  0  0  0  0  0
  186.6820  177.8580  145.0030 C   0  0  0  0  0  3  0  0  0  0  0  0
  185.2480  178.7910  140.2810 C   0  0  0  0  0  3  0  0  0  0  0  0
  186.5910  178.4160  142.2640 C   0  0  0  0  0  0  0  0  0  0  0  0
  190.0960  178.3120  139.9950 C   0  0  0  0  0  2  0  0  0  0  0  0
  1 27  1  0  0  0  0
  2  7  1  0  0  0  0
  2  1  1  1  0  0  0
  3 17  1  0  0  0  0
  3 14  1  1  0  0  0
  4 24  1  0  0  0  0
  6 11  1  0  0  0  0
  6 28  1  0  0  0  0
  6 22  1  1  0  0  0
  7 28  1  6  0  0  0
  7  3  1  0  0  0  0
  9 15  1  0  0  0  0
 10 13  1  0  0  0  0
 10 25  1  0  0  0  0
 11  8  1  6  0  0  0
 11  2  1  0  0  0  0
 12 24  1  0  0  0  0
 12 23  1  0  0  0  0
 13  4  2  0  0  0  0
 14 18  1  0  0  0  0
 15 12  2  0  0  0  0
 16 20  1  0  0  0  0
 17 10  2  0  0  0  0
 18  9  2  0  0  0  0
 18 13  1  0  0  0  0
 19 21  2  0  0  0  0
 20 25  2  0  0  0  0
 21 16  1  0  0  0  0
 21  5  1  0  0  0  0
 26  1  2  0  0  0  0
 26 19  1  0  0  0  0
 27 17  1  0  0  0  0
 27 16  2  0  0  0  0
M  END
>  <MODEL>
7

>  <REMARK>
 VINA RESULT:      -7.8      1.805      5.774
  Name = 
  0 active torsions:
  status: ('A' for Active; 'I' for Inactive)
                            x       y       z     vdW  Elec       q    Type
                         _______ _______ _______ _____ _____    ______ ____

>  <TORSDO>
F 0

$$$$
=
 OpenBabel11052413253D

 28 33  0  0  1  0  0  0  0  0999 V2000
  180.5670  178.1520  140.1180 C   0  0  0  0  0  0  0  0  0  0  0  0
  180.7020  177.8560  138.6580 C   0  0  1  0  0  3  0  0  0  0  0  0
  183.1390  178.5340  138.9850 C   0  0  1  0  0  3  0  0  0  0  0  0
  186.5180  178.9340  141.6530 C   0  0  0  0  0  3  0  0  0  0  0  0
  179.9820  178.6600  144.3220 C   0  0  0  0  0  1  0  0  0  0  0  0
  181.7280  176.1670  137.2330 C   0  0  2  0  0  3  0  0  0  0  0  0
  181.9550  178.4610  138.0390 C   0  0  1  0  0  3  0  0  0  0  0  0
  179.4000  175.8320  138.0300 C   0  0  0  0  0  1  0  0  0  0  0  0
  186.7050  178.1340  138.6440 C   0  0  0  0  0  3  0  0  0  0  0  0
  184.1230  178.6980  141.1960 C   0  0  0  0  0  0  0  0  0  0  0  0
  180.7730  176.3600  138.3980 C   0  0  2  0  0  3  0  0  0  0  0  0
  188.4690  177.8970  140.4380 C   0  0  0  0  0  0  0  0  0  0  0  0
  185.3980  178.6940  140.7160 C   0  0  0  0  0  0  0  0  0  0  0  0
  184.4570  178.9040  138.3670 C   0  0  0  0  0  2  0  0  0  0  0  0
  187.9930  177.7220  139.2090 C   0  0  0  0  0  3  0  0  0  0  0  0
  181.5210  178.5630  142.3110 C   0  0  0  0  0  0  0  0  0  0  0  0
  182.9890  178.5370  140.3370 C   0  0  0  0  0  0  0  0  0  0  0  0
  185.5990  178.5540  139.2560 C   0  0  0  0  0  0  0  0  0  0  0  0
  179.1620  178.2570  142.0470 N   0  0  0  0  0  0  0  0  0  0  0  0
  182.6310  178.7760  143.1280 C   0  0  0  0  0  3  0  0  0  0  0  0
  180.2250  178.4900  142.8580 C   0  0  0  0  0  0  0  0  0  0  0  0
  182.8700  175.2660  137.6610 C   0  0  0  0  0  1  0  0  0  0  0  0
  189.8440  177.4010  140.7080 C   0  0  0  0  0  1  0  0  0  0  0  0
  187.8000  178.6080  141.5310 C   0  0  0  0  0  2  0  0  0  0  0  0
  183.9050  178.8280  142.5800 C   0  0  0  0  0  3  0  0  0  0  0  0
  179.3040  178.0800  140.7090 C   0  0  0  0  0  3  0  0  0  0  0  0
  181.6970  178.4120  140.9150 C   0  0  0  0  0  0  0  0  0  0  0  0
  182.2670  177.5390  136.8700 C   0  0  0  0  0  2  0  0  0  0  0  0
  1 26  2  0  0  0  0
  1 27  1  0  0  0  0
  2  1  1  1  0  0  0
  3 14  1  6  0  0  0
  3 17  1  0  0  0  0
  6 22  1  1  0  0  0
  6 11  1  0  0  0  0
  7 28  1  6  0  0  0
  7  2  1  0  0  0  0
  7  3  1  0  0  0  0
  9 15  1  0  0  0  0
  9 18  2  0  0  0  0
 10 25  1  0  0  0  0
 11  8  1  6  0  0  0
 11  2  1  0  0  0  0
 12 23  1  0  0  0  0
 12 24  1  0  0  0  0
 13 10  1  0  0  0  0
 13  4  2  0  0  0  0
 14 18  1  0  0  0  0
 15 12  2  0  0  0  0
 16 21  1  0  0  0  0
 16 20  1  0  0  0  0
 17 27  1  0  0  0  0
 17 10  2  0  0  0  0
 18 13  1  0  0  0  0
 19 21  2  0  0  0  0
 21  5  1  0  0  0  0
 24  4  1  0  0  0  0
 25 20  2  0  0  0  0
 26 19  1  0  0  0  0
 27 16  2  0  0  0  0
 28  6  1  0  0  0  0
M  END
>  <MODEL>
8

>  <REMARK>
 VINA RESULT:      -7.6      3.952      7.138
  Name = 
  0 active torsions:
  status: ('A' for Active; 'I' for Inactive)
                            x       y       z     vdW  Elec       q    Type
                         _______ _______ _______ _____ _____    ______ ____

>  <TORSDO>
F 0

$$$$
=
 OpenBabel11052413253D

 28 33  0  0  1  0  0  0  0  0999 V2000
  182.6650  179.0570  143.5950 C   0  0  0  0  0  0  0  0  0  0  0  0
  181.2720  179.2030  143.0700 C   0  0  1  0  0  3  0  0  0  0  0  0
  182.3890  179.2400  140.7780 C   0  0  1  0  0  3  0  0  0  0  0  0
  185.7520  178.1080  138.3070 C   0  0  0  0  0  3  0  0  0  0  0  0
  186.5090  178.3530  145.3270 C   0  0  0  0  0  1  0  0  0  0  0  0
  179.6340  177.8640  141.8620 C   0  0  2  0  0  3  0  0  0  0  0  0
  181.2240  179.7030  141.6320 C   0  0  1  0  0  3  0  0  0  0  0  0
  179.6800  177.7770  144.3430 C   0  0  0  0  0  1  0  0  0  0  0  0
  182.7930  178.2530  137.3350 C   0  0  0  0  0  3  0  0  0  0  0  0
  184.6830  178.5140  140.4740 C   0  0  0  0  0  0  0  0  0  0  0  0
  180.5270  177.8780  143.0890 C   0  0  2  0  0  3  0  0  0  0  0  0
  184.7540  177.1240  136.2110 C   0  0  0  0  0  0  0  0  0  0  0  0
  184.5520  178.4000  139.1220 C   0  0  1  0  0  3  0  0  0  0  0  0
  182.2750  179.5080  139.3030 C   0  0  0  0  0  2  0  0  0  0  0  0
  183.4670  177.4350  136.3220 C   0  0  0  0  0  3  0  0  0  0  0  0
  185.0220  178.5700  143.2870 C   0  0  0  0  0  0  0  0  0  0  0  0
  183.5780  178.8570  141.3160 C   0  0  0  0  0  0  0  0  0  0  0  0
  183.2290  178.6780  138.5180 C   0  0  0  0  0  0  0  0  0  0  0  0
  184.1120  178.8440  145.4830 N   0  0  0  0  0  0  0  0  0  0  0  0
  186.1020  178.2930  142.4490 C   0  0  0  0  0  3  0  0  0  0  0  0
  185.1820  178.5960  144.6860 C   0  0  0  0  0  0  0  0  0  0  0  0
  179.9770  176.6640  141.0020 C   0  0  0  0  0  1  0  0  0  0  0  0
  185.1530  176.3020  135.0390 C   0  0  0  0  0  1  0  0  0  0  0  0
  185.8330  177.5830  137.0900 C   0  0  0  0  0  3  0  0  0  0  0  0
  185.9290  178.2530  141.0720 C   0  0  0  0  0  3  0  0  0  0  0  0
  182.8730  179.0630  144.9740 C   0  0  0  0  0  3  0  0  0  0  0  0
  183.7480  178.8240  142.7270 C   0  0  0  0  0  0  0  0  0  0  0  0
  179.9170  179.1430  141.0930 C   0  0  0  0  0  2  0  0  0  0  0  0
  1 26  1  0  0  0  0
  2 11  1  0  0  0  0
  2  1  1  6  0  0  0
  3 14  1  6  0  0  0
  3 17  1  0  0  0  0
  3  7  1  0  0  0  0
  6 22  1  6  0  0  0
  6 11  1  0  0  0  0
  7 28  1  6  0  0  0
  7  2  1  0  0  0  0
  9 18  2  0  0  0  0
 10 25  1  0  0  0  0
 10 17  2  0  0  0  0
 11  8  1  1  0  0  0
 12 15  2  0  0  0  0
 12 24  1  0  0  0  0
 13  4  1  6  0  0  0
 13 10  1  0  0  0  0
 15  9  1  0  0  0  0
 16 21  2  0  0  0  0
 17 27  1  0  0  0  0
 18 13  1  0  0  0  0
 18 14  1  0  0  0  0
 20 16  1  0  0  0  0
 21  5  1  0  0  0  0
 21 19  1  0  0  0  0
 23 12  1  0  0  0  0
 24  4  2  0  0  0  0
 25 20  2  0  0  0  0
 26 19  2  0  0  0  0
 27 16  1  0  0  0  0
 27  1  2  0  0  0  0
 28  6  1  0  0  0  0
M  END
>  <MODEL>
9

>  <REMARK>
 VINA RESULT:      -7.5      3.074      6.378
  Name = 
  0 active torsions:
  status: ('A' for Active; 'I' for Inactive)
                            x       y       z     vdW  Elec       q    Type
                         _______ _______ _______ _____ _____    ______ ____

>  <TORSDO>
F 0

$$$$
