=
 OpenBabel11052415413D

 34 38  0  0  1  0  0  0  0  0999 V2000
  181.2620  178.7430  138.7010 C   0  0  1  0  0  3  0  0  0  0  0  0
  179.8940  180.8290  135.6480 C   0  0  0  0  0  2  0  0  0  0  0  0
  181.0100  183.7690  136.4150 C   0  0  0  0  0  0  0  0  0  0  0  0
  181.2430  178.7240  135.7190 C   0  0  0  0  0  2  0  0  0  0  0  0
  180.7230  175.3250  138.1510 F   0  0  0  0  0  0  0  0  0  0  0  0
  181.6910  176.3040  138.0250 C   0  0  2  0  0  0  0  0  0  0  0  0
  180.7910  184.0170  135.0650 O   0  0  0  0  0  0  0  0  0  0  0  0
  182.6850  176.2570  139.1850 C   0  0  0  0  0  1  0  0  0  0  0  0
  181.9810  177.8840  136.7150 C   0  0  1  0  0  3  0  0  0  0  0  0
  181.0780  177.6130  137.7990 N   0  0  2  0  0  0  0  0  0  0  0  0
  182.5440  176.1890  136.4060 S   0  0  0  0  0  0  0  0  0  0  0  0
  179.2360  181.9860  136.4010 C   0  0  0  0  0  2  0  0  0  0  0  0
  181.9020  184.4170  137.0250 O   0  0  0  0  0  1  0  0  0  0  0  0
  180.2260  182.7880  137.1060 N   0  0  0  0  0  0  0  0  0  0  0  0
  180.4680  182.4810  138.5090 C   0  0  0  0  0  2  0  0  0  0  0  0
  180.9790  180.0740  136.4270 C   0  0  2  0  0  3  0  0  0  0  0  0
  181.3530  181.2480  138.6420 C   0  0  0  0  0  2  0  0  0  0  0  0
  180.7270  180.0190  137.9850 C   0  0  2  0  0  3  0  0  0  0  0  0
  181.0990  178.6860  141.1730 C   0  0  0  0  0  3  0  0  0  0  0  0
  180.5120  178.5260  139.9860 C   0  0  0  0  0  3  0  0  0  0  0  0
  180.3410  178.4150  142.4340 C   0  0  1  0  0  3  0  0  0  0  0  0
  181.0880  178.8160  143.7130 C   0  0  2  0  0  3  0  0  0  0  0  0
  180.0290  179.7260  143.1250 C   0  0  0  0  0  2  0  0  0  0  0  0
  182.4130  179.3640  143.4440 N   0  0  0  0  0  2  0  0  0  0  0  0
  184.7070  178.3610  141.7240 C   0  0  0  0  0  1  0  0  0  0  0  0
  186.0480  178.0600  145.2360 C   0  0  0  0  0  0  0  0  0  0  0  0
  185.9180  178.0140  143.8430 C   0  0  0  0  0  3  0  0  0  0  0  0
  184.7430  178.4330  143.2120 C   0  0  0  0  0  0  0  0  0  0  0  0
  183.7990  178.9590  145.3830 C   0  0  0  0  0  3  0  0  0  0  0  0
  183.6610  178.9130  143.9930 C   0  0  0  0  0  0  0  0  0  0  0  0
  184.9770  178.5380  146.0030 C   0  0  0  0  0  3  0  0  0  0  0  0
  187.2650  177.6240  145.8610 N   0  0  0  0  0  0  0  0  0  0  0  0
  188.4110  177.1940  145.0730 C   0  0  0  0  0  1  0  0  0  0  0  0
  187.3670  177.6040  147.2110 O   0  0  0  0  0  1  0  0  0  0  0  0
  1 20  1  1  0  0  0
  2 12  1  0  0  0  0
  2 16  1  0  0  0  0
  3 13  1  0  0  0  0
  3 14  1  0  0  0  0
  4 16  1  0  0  0  0
  6  5  1  0  0  0  0
  6  8  1  1  0  0  0
  7  3  2  0  0  0  0
  9  4  1  6  0  0  0
  9 10  1  0  0  0  0
 10  6  1  0  0  0  0
 10  1  1  0  0  0  0
 11  9  1  0  0  0  0
 11  6  1  0  0  0  0
 12 14  1  0  0  0  0
 14 15  1  0  0  0  0
 15 17  1  0  0  0  0
 16 18  1  0  0  0  0
 18 17  1  0  0  0  0
 18  1  1  0  0  0  0
 19 21  1  0  0  0  0
 20 19  2  0  0  0  0
 21 23  1  0  0  0  0
 21 22  1  0  0  0  0
 23 22  1  0  0  0  0
 24 22  1  0  0  0  0
 24 30  1  0  0  0  0
 25 28  1  0  0  0  0
 26 32  1  0  0  0  0
 26 31  1  0  0  0  0
 27 26  2  0  0  0  0
 28 27  1  0  0  0  0
 28 30  2  0  0  0  0
 29 31  2  0  0  0  0
 30 29  1  0  0  0  0
 32 34  1  0  0  0  0
 33 32  1  0  0  0  0
M  END
>  <MODEL>
1

>  <REMARK>
 VINA RESULT:      -8.4      0.000      0.000
  Name = 
  5 active torsions:
  status: ('A' for Active; 'I' for Inactive)
    1  A    between atoms: C_1  and  C_9
    2  A    between atoms: N_6  and  C_28
    3  A    between atoms: N_6  and  C_30
    4  A    between atoms: C_7  and  N_11
    5  A    between atoms: C_8  and  C_18
                            x       y       z     vdW  Elec       q    Type
                         _______ _______ _______ _____ _____    ______ ____

>  <TORSDO>
F 5

$$$$
=
 OpenBabel11052415413D

 34 38  0  0  1  0  0  0  0  0999 V2000
  185.1280  178.0560  139.6190 C   0  0  1  0  0  3  0  0  0  0  0  0
  187.9780  178.5750  136.9450 C   0  0  0  0  0  2  0  0  0  0  0  0
  190.4120  177.0020  138.3880 C   0  0  0  0  0  0  0  0  0  0  0  0
  185.6500  177.6940  136.7050 C   0  0  0  0  0  2  0  0  0  0  0  0
  182.0690  179.1910  138.3410 F   0  0  0  0  0  0  0  0  0  0  0  0
  182.8160  178.0390  138.5020 C   0  0  2  0  0  0  0  0  0  0  0  0
  190.9410  176.9910  137.1030 O   0  0  0  0  0  0  0  0  0  0  0  0
  182.3430  177.2320  139.7110 C   0  0  0  0  0  1  0  0  0  0  0  0
  184.5030  177.2730  137.5710 C   0  0  1  0  0  3  0  0  0  0  0  0
  184.2470  178.3440  138.4940 N   0  0  2  0  0  0  0  0  0  0  0  0
  182.8090  177.0250  136.9740 S   0  0  0  0  0  0  0  0  0  0  0  0
  189.0980  179.0800  137.8570 C   0  0  0  0  0  2  0  0  0  0  0  0
  190.7260  176.0850  139.1930 O   0  0  0  0  0  1  0  0  0  0  0  0
  189.5210  178.0490  138.7940 N   0  0  0  0  0  0  0  0  0  0  0  0
  188.9210  178.0550  140.1220 C   0  0  0  0  0  2  0  0  0  0  0  0
  186.8750  177.7710  137.6470 C   0  0  2  0  0  3  0  0  0  0  0  0
  187.5190  177.4590  140.0790 C   0  0  0  0  0  2  0  0  0  0  0  0
  186.5980  178.2280  139.1330 C   0  0  2  0  0  3  0  0  0  0  0  0
  184.5150  178.5400  141.9700 C   0  0  0  0  0  3  0  0  0  0  0  0
  184.8540  178.9930  140.7630 C   0  0  0  0  0  3  0  0  0  0  0  0
  184.2000  179.4980  143.0760 C   0  0  1  0  0  3  0  0  0  0  0  0
  184.7160  179.0570  144.4530 C   0  0  2  0  0  3  0  0  0  0  0  0
  185.4900  180.0670  143.6300 C   0  0  0  0  0  2  0  0  0  0  0  0
  185.3940  177.7660  144.4140 N   0  0  0  0  0  2  0  0  0  0  0  0
  186.7730  178.2180  147.0820 C   0  0  0  0  0  1  0  0  0  0  0  0
  189.5580  176.9920  144.8540 C   0  0  0  0  0  0  0  0  0  0  0  0
  188.8300  177.4650  145.9540 C   0  0  0  0  0  3  0  0  0  0  0  0
  187.4610  177.7320  145.8550 C   0  0  0  0  0  0  0  0  0  0  0  0
  187.5260  177.0460  143.5290 C   0  0  0  0  0  3  0  0  0  0  0  0
  186.7940  177.5220  144.6200 C   0  0  0  0  0  0  0  0  0  0  0  0
  188.8920  176.7830  143.6400 C   0  0  0  0  0  3  0  0  0  0  0  0
  190.9630  176.7260  144.9810 N   0  0  0  0  0  0  0  0  0  0  0  0
  191.6840  175.9550  143.9790 C   0  0  0  0  0  1  0  0  0  0  0  0
  191.6490  177.1930  146.0510 O   0  0  0  0  0  1  0  0  0  0  0  0
  1 20  1  1  0  0  0
  2 16  1  0  0  0  0
  2 12  1  0  0  0  0
  3 14  1  0  0  0  0
  3 13  1  0  0  0  0
  4 16  1  0  0  0  0
  5  6  1  0  0  0  0
  6  8  1  1  0  0  0
  7  3  2  0  0  0  0
  9  4  1  6  0  0  0
  9 10  1  0  0  0  0
 10  6  1  0  0  0  0
 10  1  1  0  0  0  0
 11  9  1  0  0  0  0
 11  6  1  0  0  0  0
 12 14  1  0  0  0  0
 14 15  1  0  0  0  0
 16 18  1  0  0  0  0
 17 15  1  0  0  0  0
 18  1  1  0  0  0  0
 18 17  1  0  0  0  0
 19 21  1  0  0  0  0
 20 19  2  0  0  0  0
 21 23  1  0  0  0  0
 21 22  1  0  0  0  0
 23 22  1  0  0  0  0
 24 22  1  0  0  0  0
 24 30  1  0  0  0  0
 26 32  1  0  0  0  0
 26 27  1  0  0  0  0
 28 27  2  0  0  0  0
 28 25  1  0  0  0  0
 29 31  1  0  0  0  0
 29 30  2  0  0  0  0
 30 28  1  0  0  0  0
 31 26  2  0  0  0  0
 32 34  1  0  0  0  0
 33 32  1  0  0  0  0
M  END
>  <MODEL>
2

>  <REMARK>
 VINA RESULT:      -8.2      4.338      6.259
  Name = 
  5 active torsions:
  status: ('A' for Active; 'I' for Inactive)
    1  A    between atoms: C_1  and  C_9
    2  A    between atoms: N_6  and  C_28
    3  A    between atoms: N_6  and  C_30
    4  A    between atoms: C_7  and  N_11
    5  A    between atoms: C_8  and  C_18
                            x       y       z     vdW  Elec       q    Type
                         _______ _______ _______ _____ _____    ______ ____

>  <TORSDO>
F 5

$$$$
=
 OpenBabel11052415413D

 34 38  0  0  1  0  0  0  0  0999 V2000
  185.8600  177.6720  137.3060 C   0  0  1  0  0  3  0  0  0  0  0  0
  182.9160  176.3860  139.5930 C   0  0  0  0  0  2  0  0  0  0  0  0
  181.2070  179.1160  139.9180 C   0  0  0  0  0  0  0  0  0  0  0  0
  183.8110  175.5090  137.4280 C   0  0  0  0  0  2  0  0  0  0  0  0
  187.8150  174.9670  136.2410 F   0  0  0  0  0  0  0  0  0  0  0  0
  186.7720  175.7770  135.8340 C   0  0  2  0  0  0  0  0  0  0  0  0
  180.1930  178.2370  140.2770 O   0  0  0  0  0  1  0  0  0  0  0  0
  187.2540  176.8740  134.8860 C   0  0  0  0  0  1  0  0  0  0  0  0
  184.7680  175.9140  136.3500 C   0  0  1  0  0  3  0  0  0  0  0  0
  186.0090  176.2580  136.9860 N   0  0  2  0  0  0  0  0  0  0  0  0
  185.4190  174.7890  135.0850 S   0  0  0  0  0  0  0  0  0  0  0  0
  182.9450  177.4630  140.6780 C   0  0  0  0  0  2  0  0  0  0  0  0
  180.9080  180.2240  139.3990 O   0  0  0  0  0  0  0  0  0  0  0  0
  182.5790  178.7660  140.1390 N   0  0  0  0  0  0  0  0  0  0  0  0
  183.6590  179.6530  139.7300 C   0  0  0  0  0  2  0  0  0  0  0  0
  183.5470  176.7910  138.2530 C   0  0  2  0  0  3  0  0  0  0  0  0
  184.2140  179.2330  138.3750 C   0  0  0  0  0  2  0  0  0  0  0  0
  184.7510  177.8020  138.3930 C   0  0  2  0  0  3  0  0  0  0  0  0
  187.8120  177.6680  138.8320 C   0  0  0  0  0  3  0  0  0  0  0  0
  187.1520  178.2400  137.8240 C   0  0  0  0  0  3  0  0  0  0  0  0
  189.0700  178.2840  139.3590 C   0  0  1  0  0  3  0  0  0  0  0  0
  189.3240  178.0160  140.8480 C   0  0  2  0  0  3  0  0  0  0  0  0
  190.0250  177.1900  139.7880 C   0  0  0  0  0  2  0  0  0  0  0  0
  188.2650  177.2270  141.4680 N   0  0  0  0  0  2  0  0  0  0  0  0
  189.2940  176.8230  144.2960 C   0  0  0  0  0  1  0  0  0  0  0  0
  185.8670  178.3080  144.8150 C   0  0  0  0  0  0  0  0  0  0  0  0
  187.1350  177.7560  145.0330 C   0  0  0  0  0  3  0  0  0  0  0  0
  187.9570  177.3870  143.9630 C   0  0  0  0  0  0  0  0  0  0  0  0
  186.2350  178.1280  142.4230 C   0  0  0  0  0  3  0  0  0  0  0  0
  187.5010  177.5730  142.6330 C   0  0  0  0  0  0  0  0  0  0  0  0
  185.4230  178.4920  143.4990 C   0  0  0  0  0  3  0  0  0  0  0  0
  185.0410  178.6780  145.9300 N   0  0  0  0  0  0  0  0  0  0  0  0
  185.5630  178.6970  147.2880 C   0  0  0  0  0  1  0  0  0  0  0  0
  183.7460  179.0190  145.7330 O   0  0  0  0  0  1  0  0  0  0  0  0
  1 20  1  1  0  0  0
  1 18  1  0  0  0  0
  2 12  1  0  0  0  0
  3 14  1  0  0  0  0
  3  7  1  0  0  0  0
  4 16  1  0  0  0  0
  6  8  1  6  0  0  0
  6  5  1  0  0  0  0
  6 10  1  0  0  0  0
  9 10  1  0  0  0  0
  9  4  1  1  0  0  0
 10  1  1  0  0  0  0
 11  6  1  0  0  0  0
 11  9  1  0  0  0  0
 13  3  2  0  0  0  0
 14 12  1  0  0  0  0
 15 14  1  0  0  0  0
 16 18  1  0  0  0  0
 16  2  1  0  0  0  0
 17 18  1  0  0  0  0
 17 15  1  0  0  0  0
 19 21  1  0  0  0  0
 20 19  2  0  0  0  0
 21 23  1  0  0  0  0
 21 22  1  0  0  0  0
 22 24  1  0  0  0  0
 23 22  1  0  0  0  0
 24 30  1  0  0  0  0
 26 27  1  0  0  0  0
 26 32  1  0  0  0  0
 28 25  1  0  0  0  0
 28 27  2  0  0  0  0
 29 30  2  0  0  0  0
 29 31  1  0  0  0  0
 30 28  1  0  0  0  0
 31 26  2  0  0  0  0
 32 33  1  0  0  0  0
 34 32  1  0  0  0  0
M  END
>  <MODEL>
3

>  <REMARK>
 VINA RESULT:      -8.2      3.724      5.655
  Name = 
  5 active torsions:
  status: ('A' for Active; 'I' for Inactive)
    1  A    between atoms: C_1  and  C_9
    2  A    between atoms: N_6  and  C_28
    3  A    between atoms: N_6  and  C_30
    4  A    between atoms: C_7  and  N_11
    5  A    between atoms: C_8  and  C_18
                            x       y       z     vdW  Elec       q    Type
                         _______ _______ _______ _____ _____    ______ ____

>  <TORSDO>
F 5

$$$$
=
 OpenBabel11052415413D

 34 38  0  0  1  0  0  0  0  0999 V2000
  188.1980  177.6400  145.3790 C   0  0  1  0  0  3  0  0  0  0  0  0
  184.8860  179.7350  144.9540 C   0  0  0  0  0  2  0  0  0  0  0  0
  183.6980  178.3900  142.2600 C   0  0  0  0  0  0  0  0  0  0  0  0
  185.7770  178.4620  146.9140 C   0  0  0  0  0  2  0  0  0  0  0  0
  189.6940  178.3800  148.4600 F   0  0  0  0  0  0  0  0  0  0  0  0
  188.8580  177.4610  147.8540 C   0  0  2  0  0  0  0  0  0  0  0  0
  182.5100  178.9600  142.7030 O   0  0  0  0  0  1  0  0  0  0  0  0
  189.6140  176.1920  147.4620 C   0  0  0  0  0  1  0  0  0  0  0  0
  186.8800  177.5010  147.2340 C   0  0  1  0  0  3  0  0  0  0  0  0
  188.1060  178.0840  146.7640 N   0  0  2  0  0  0  0  0  0  0  0  0
  187.4120  177.0790  148.9160 S   0  0  0  0  0  0  0  0  0  0  0  0
  185.0250  180.1410  143.4860 C   0  0  0  0  0  2  0  0  0  0  0  0
  183.6560  177.3530  141.5460 O   0  0  0  0  0  0  0  0  0  0  0  0
  184.9570  178.9800  142.6090 N   0  0  0  0  0  0  0  0  0  0  0  0
  186.2140  178.3750  142.1910 C   0  0  0  0  0  2  0  0  0  0  0  0
  185.6910  178.4960  145.3690 C   0  0  2  0  0  3  0  0  0  0  0  0
  186.7910  177.5140  143.3080 C   0  0  0  0  0  2  0  0  0  0  0  0
  187.0470  178.3200  144.5810 C   0  0  2  0  0  3  0  0  0  0  0  0
  190.3280  177.1100  144.2300 C   0  0  0  0  0  3  0  0  0  0  0  0
  189.5260  178.0190  144.7850 C   0  0  0  0  0  3  0  0  0  0  0  0
  191.6660  177.5100  143.6910 C   0  0  1  0  0  3  0  0  0  0  0  0
  191.8130  177.3220  142.1750 C   0  0  2  0  0  3  0  0  0  0  0  0
  191.4990  178.6870  142.7530 C   0  0  0  0  0  2  0  0  0  0  0  0
  190.6160  176.7600  141.5580 N   0  0  0  0  0  2  0  0  0  0  0  0
  191.8890  176.0580  138.8910 C   0  0  0  0  0  1  0  0  0  0  0  0
  188.7770  177.9480  137.9060 C   0  0  0  0  0  0  0  0  0  0  0  0
  189.9820  177.2350  137.8650 C   0  0  0  0  0  3  0  0  0  0  0  0
  190.6200  176.8240  139.0390 C   0  0  0  0  0  0  0  0  0  0  0  0
  188.8370  177.8430  140.3290 C   0  0  0  0  0  3  0  0  0  0  0  0
  190.0410  177.1340  140.2960 C   0  0  0  0  0  0  0  0  0  0  0  0
  188.2090  178.2480  139.1510 C   0  0  0  0  0  3  0  0  0  0  0  0
  188.1420  178.3590  136.6860 N   0  0  0  0  0  0  0  0  0  0  0  0
  188.3840  177.6630  135.4310 C   0  0  0  0  0  1  0  0  0  0  0  0
  187.2960  179.4160  136.6830 O   0  0  0  0  0  1  0  0  0  0  0  0
  1 20  1  6  0  0  0
  1 10  1  0  0  0  0
  2 16  1  0  0  0  0
  3 14  1  0  0  0  0
  3  7  1  0  0  0  0
  6  8  1  6  0  0  0
  6  5  1  0  0  0  0
  6 11  1  0  0  0  0
  9  4  1  1  0  0  0
  9 11  1  0  0  0  0
 10  9  1  0  0  0  0
 10  6  1  0  0  0  0
 12  2  1  0  0  0  0
 13  3  2  0  0  0  0
 14 12  1  0  0  0  0
 15 14  1  0  0  0  0
 15 17  1  0  0  0  0
 16  4  1  0  0  0  0
 17 18  1  0  0  0  0
 18 16  1  0  0  0  0
 18  1  1  0  0  0  0
 19 20  2  0  0  0  0
 21 19  1  0  0  0  0
 22 23  1  0  0  0  0
 22 21  1  0  0  0  0
 23 21  1  0  0  0  0
 24 22  1  0  0  0  0
 25 28  1  0  0  0  0
 26 31  1  0  0  0  0
 27 26  2  0  0  0  0
 27 28  1  0  0  0  0
 28 30  2  0  0  0  0
 30 29  1  0  0  0  0
 30 24  1  0  0  0  0
 31 29  2  0  0  0  0
 32 26  1  0  0  0  0
 33 32  1  0  0  0  0
 34 32  1  0  0  0  0
M  END
>  <MODEL>
4

>  <REMARK>
 VINA RESULT:      -7.9      5.983      9.883
  Name = 
  5 active torsions:
  status: ('A' for Active; 'I' for Inactive)
    1  A    between atoms: C_1  and  C_9
    2  A    between atoms: N_6  and  C_28
    3  A    between atoms: N_6  and  C_30
    4  A    between atoms: C_7  and  N_11
    5  A    between atoms: C_8  and  C_18
                            x       y       z     vdW  Elec       q    Type
                         _______ _______ _______ _____ _____    ______ ____

>  <TORSDO>
F 5

$$$$
=
 OpenBabel11052415413D

 34 38  0  0  1  0  0  0  0  0999 V2000
  185.5680  177.3070  137.2840 C   0  0  1  0  0  3  0  0  0  0  0  0
  182.6210  176.3680  139.7280 C   0  0  0  0  0  2  0  0  0  0  0  0
  180.7310  178.9720  139.3760 C   0  0  0  0  0  0  0  0  0  0  0  0
  183.6570  175.0880  137.8450 C   0  0  0  0  0  2  0  0  0  0  0  0
  187.7330  174.5770  136.9170 F   0  0  0  0  0  0  0  0  0  0  0  0
  186.6580  175.1970  136.3080 C   0  0  2  0  0  0  0  0  0  0  0  0
  179.7600  178.1280  139.9010 O   0  0  0  0  0  1  0  0  0  0  0  0
  187.1080  176.0820  135.1470 C   0  0  0  0  0  1  0  0  0  0  0  0
  184.6300  175.3050  136.7280 C   0  0  1  0  0  3  0  0  0  0  0  0
  185.8200  175.8720  137.3000 N   0  0  2  0  0  0  0  0  0  0  0  0
  185.4020  173.9720  135.7710 S   0  0  0  0  0  0  0  0  0  0  0  0
  182.5360  177.6620  140.5390 C   0  0  0  0  0  2  0  0  0  0  0  0
  180.3830  179.9100  138.6090 O   0  0  0  0  0  0  0  0  0  0  0  0
  182.1120  178.7800  139.7060 N   0  0  0  0  0  0  0  0  0  0  0  0
  183.1490  179.6260  139.1330 C   0  0  0  0  0  2  0  0  0  0  0  0
  183.2790  176.5020  138.3480 C   0  0  2  0  0  3  0  0  0  0  0  0
  183.7840  178.9490  137.9240 C   0  0  0  0  0  2  0  0  0  0  0  0
  184.4100  177.6020  138.2830 C   0  0  2  0  0  3  0  0  0  0  0  0
  187.5540  177.6770  138.7180 C   0  0  0  0  0  3  0  0  0  0  0  0
  186.8000  178.0680  137.6910 C   0  0  0  0  0  3  0  0  0  0  0  0
  188.7470  178.4830  139.1310 C   0  0  1  0  0  3  0  0  0  0  0  0
  189.1350  178.3180  140.6060 C   0  0  2  0  0  3  0  0  0  0  0  0
  189.8720  177.5500  139.5270 C   0  0  0  0  0  2  0  0  0  0  0  0
  188.2400  177.4190  141.3270 N   0  0  0  0  0  2  0  0  0  0  0  0
  185.4940  178.6490  141.7400 C   0  0  0  0  0  1  0  0  0  0  0  0
  186.6930  177.9830  145.2530 C   0  0  0  0  0  0  0  0  0  0  0  0
  185.9230  178.3790  144.1520 C   0  0  0  0  0  3  0  0  0  0  0  0
  186.3920  178.2110  142.8450 C   0  0  0  0  0  0  0  0  0  0  0  0
  188.4290  177.2380  143.7310 C   0  0  0  0  0  3  0  0  0  0  0  0
  187.6680  177.6330  142.6270 C   0  0  0  0  0  0  0  0  0  0  0  0
  187.9510  177.4090  145.0310 C   0  0  0  0  0  3  0  0  0  0  0  0
  186.1900  178.1660  146.5860 N   0  0  0  0  0  0  0  0  0  0  0  0
  187.0610  178.0640  147.7470 C   0  0  0  0  0  1  0  0  0  0  0  0
  184.8790  178.4400  146.7860 O   0  0  0  0  0  1  0  0  0  0  0  0
  1 10  1  0  0  0  0
  1 20  1  1  0  0  0
  1 18  1  0  0  0  0
  2 12  1  0  0  0  0
  3 14  1  0  0  0  0
  3  7  1  0  0  0  0
  4 16  1  0  0  0  0
  6  8  1  6  0  0  0
  6  5  1  0  0  0  0
  6 10  1  0  0  0  0
  9 10  1  0  0  0  0
  9  4  1  1  0  0  0
 11  6  1  0  0  0  0
 11  9  1  0  0  0  0
 13  3  2  0  0  0  0
 14 12  1  0  0  0  0
 15 14  1  0  0  0  0
 16  2  1  0  0  0  0
 17 18  1  0  0  0  0
 17 15  1  0  0  0  0
 18 16  1  0  0  0  0
 19 21  1  0  0  0  0
 20 19  2  0  0  0  0
 21 23  1  0  0  0  0
 21 22  1  0  0  0  0
 22 24  1  0  0  0  0
 23 22  1  0  0  0  0
 24 30  1  0  0  0  0
 25 28  1  0  0  0  0
 26 32  1  0  0  0  0
 27 26  2  0  0  0  0
 28 27  1  0  0  0  0
 29 31  2  0  0  0  0
 30 28  2  0  0  0  0
 30 29  1  0  0  0  0
 31 26  1  0  0  0  0
 32 34  1  0  0  0  0
 32 33  1  0  0  0  0
M  END
>  <MODEL>
5

>  <REMARK>
 VINA RESULT:      -7.9      3.607      5.435
  Name = 
  5 active torsions:
  status: ('A' for Active; 'I' for Inactive)
    1  A    between atoms: C_1  and  C_9
    2  A    between atoms: N_6  and  C_28
    3  A    between atoms: N_6  and  C_30
    4  A    between atoms: C_7  and  N_11
    5  A    between atoms: C_8  and  C_18
                            x       y       z     vdW  Elec       q    Type
                         _______ _______ _______ _____ _____    ______ ____

>  <TORSDO>
F 5

$$$$
=
 OpenBabel11052415413D

 34 38  0  0  1  0  0  0  0  0999 V2000
  184.2780  178.4430  141.7290 C   0  0  1  0  0  3  0  0  0  0  0  0
  180.7770  179.3250  140.1460 C   0  0  0  0  0  2  0  0  0  0  0  0
  180.4390  176.8510  138.0860 C   0  0  0  0  0  0  0  0  0  0  0  0
  181.4850  179.1090  142.5350 C   0  0  0  0  0  2  0  0  0  0  0  0
  184.9510  180.5910  144.4140 F   0  0  0  0  0  0  0  0  0  0  0  0
  184.4490  179.3350  144.1300 C   0  0  2  0  0  0  0  0  0  0  0  0
  179.0990  177.2160  138.1340 O   0  0  0  0  0  1  0  0  0  0  0  0
  185.5000  178.2490  144.3570 C   0  0  0  0  0  1  0  0  0  0  0  0
  182.6660  178.6420  143.3290 C   0  0  1  0  0  3  0  0  0  0  0  0
  183.8250  179.3130  142.8070 N   0  0  2  0  0  0  0  0  0  0  0  0
  182.9210  178.9990  145.0890 S   0  0  0  0  0  0  0  0  0  0  0  0
  181.1260  179.2010  138.6620 C   0  0  0  0  0  2  0  0  0  0  0  0
  180.7430  175.6540  137.8390 O   0  0  0  0  0  0  0  0  0  0  0  0
  181.4620  177.8280  138.3120 N   0  0  0  0  0  0  0  0  0  0  0  0
  182.8710  177.4580  138.3100 C   0  0  0  0  0  2  0  0  0  0  0  0
  181.7060  178.5660  141.1030 C   0  0  2  0  0  3  0  0  0  0  0  0
  183.3680  177.2300  139.7320 C   0  0  0  0  0  2  0  0  0  0  0  0
  183.2010  178.4740  140.6040 C   0  0  2  0  0  3  0  0  0  0  0  0
  186.6790  178.1310  141.2020 C   0  0  0  0  0  3  0  0  0  0  0  0
  185.5990  178.9130  141.1850 C   0  0  0  0  0  3  0  0  0  0  0  0
  187.9920  178.6430  140.6990 C   0  0  1  0  0  3  0  0  0  0  0  0
  189.1920  178.2590  141.5740 C   0  0  2  0  0  3  0  0  0  0  0  0
  188.8760  177.4740  140.3170 C   0  0  0  0  0  2  0  0  0  0  0  0
  188.8080  177.4840  142.7490 N   0  0  0  0  0  2  0  0  0  0  0  0
  191.7620  176.7920  142.6090 C   0  0  0  0  0  1  0  0  0  0  0  0
  191.0320  176.7700  146.3090 C   0  0  0  0  0  0  0  0  0  0  0  0
  191.6770  176.6750  145.0690 C   0  0  0  0  0  3  0  0  0  0  0  0
  190.9860  176.9020  143.8750 C   0  0  0  0  0  0  0  0  0  0  0  0
  188.9720  177.3300  145.1570 C   0  0  0  0  0  3  0  0  0  0  0  0
  189.6070  177.2340  143.9160 C   0  0  0  0  0  0  0  0  0  0  0  0
  189.6710  177.1020  146.3430 C   0  0  0  0  0  3  0  0  0  0  0  0
  191.7630  176.5320  147.5210 N   0  0  0  0  0  0  0  0  0  0  0  0
  192.4270  175.2600  147.7710 C   0  0  0  0  0  1  0  0  0  0  0  0
  191.8480  177.4980  148.4650 O   0  0  0  0  0  1  0  0  0  0  0  0
  1 20  1  6  0  0  0
  1 10  1  0  0  0  0
  2 16  1  0  0  0  0
  3  7  1  0  0  0  0
  3 14  1  0  0  0  0
  6  8  1  1  0  0  0
  6  5  1  0  0  0  0
  6 11  1  0  0  0  0
  9  4  1  6  0  0  0
  9 11  1  0  0  0  0
 10  9  1  0  0  0  0
 10  6  1  0  0  0  0
 12  2  1  0  0  0  0
 13  3  2  0  0  0  0
 14 12  1  0  0  0  0
 15 14  1  0  0  0  0
 15 17  1  0  0  0  0
 16  4  1  0  0  0  0
 17 18  1  0  0  0  0
 18 16  1  0  0  0  0
 18  1  1  0  0  0  0
 20 19  2  0  0  0  0
 21 19  1  0  0  0  0
 21 22  1  0  0  0  0
 22 24  1  0  0  0  0
 23 21  1  0  0  0  0
 23 22  1  0  0  0  0
 24 30  1  0  0  0  0
 25 28  1  0  0  0  0
 26 31  1  0  0  0  0
 26 32  1  0  0  0  0
 27 26  2  0  0  0  0
 28 30  2  0  0  0  0
 28 27  1  0  0  0  0
 29 31  2  0  0  0  0
 30 29  1  0  0  0  0
 32 33  1  0  0  0  0
 32 34  1  0  0  0  0
M  END
>  <MODEL>
6

>  <REMARK>
 VINA RESULT:      -7.6      3.876      6.429
  Name = 
  5 active torsions:
  status: ('A' for Active; 'I' for Inactive)
    1  A    between atoms: C_1  and  C_9
    2  A    between atoms: N_6  and  C_28
    3  A    between atoms: N_6  and  C_30
    4  A    between atoms: C_7  and  N_11
    5  A    between atoms: C_8  and  C_18
                            x       y       z     vdW  Elec       q    Type
                         _______ _______ _______ _____ _____    ______ ____

>  <TORSDO>
F 5

$$$$
=
 OpenBabel11052415413D

 34 38  0  0  1  0  0  0  0  0999 V2000
  181.8350  177.6310  140.5490 C   0  0  1  0  0  3  0  0  0  0  0  0
  179.3610  176.2580  137.8040 C   0  0  0  0  0  2  0  0  0  0  0  0
  180.7780  173.4300  137.1170 C   0  0  0  0  0  0  0  0  0  0  0  0
  178.9310  177.1170  140.1130 C   0  0  0  0  0  2  0  0  0  0  0  0
  180.5130  180.5290  142.0080 F   0  0  0  0  0  0  0  0  0  0  0  0
  180.6090  179.1640  142.2040 C   0  0  2  0  0  0  0  0  0  0  0  0
  179.5250  173.1210  136.6010 O   0  0  0  0  0  0  0  0  0  0  0  0
  181.7170  178.8190  143.1980 C   0  0  0  0  0  1  0  0  0  0  0  0
  179.6980  177.5160  141.3350 C   0  0  1  0  0  3  0  0  0  0  0  0
  180.6980  178.4620  140.9230 N   0  0  2  0  0  0  0  0  0  0  0  0
  178.9990  178.4540  142.7210 S   0  0  0  0  0  0  0  0  0  0  0  0
  180.3680  175.8790  136.7160 C   0  0  0  0  0  2  0  0  0  0  0  0
  181.5130  172.5020  137.5480 O   0  0  0  0  0  1  0  0  0  0  0  0
  181.2300  174.7890  137.1520 N   0  0  0  0  0  0  0  0  0  0  0  0
  182.5220  175.1400  137.7270 C   0  0  0  0  0  2  0  0  0  0  0  0
  179.9350  176.3450  139.2250 C   0  0  2  0  0  3  0  0  0  0  0  0
  182.3580  175.6040  139.1690 C   0  0  0  0  0  2  0  0  0  0  0  0
  181.4390  176.8200  139.2800 C   0  0  2  0  0  3  0  0  0  0  0  0
  184.1550  178.3830  140.9860 C   0  0  0  0  0  3  0  0  0  0  0  0
  183.0420  178.4790  140.2580 C   0  0  0  0  0  3  0  0  0  0  0  0
  185.3230  179.2750  140.7030 C   0  0  1  0  0  3  0  0  0  0  0  0
  186.5330  179.0320  141.6150 C   0  0  2  0  0  3  0  0  0  0  0  0
  186.4910  178.4390  140.2220 C   0  0  0  0  0  2  0  0  0  0  0  0
  186.2930  177.9870  142.6040 N   0  0  0  0  0  2  0  0  0  0  0  0
  184.9220  178.6470  145.2320 C   0  0  0  0  0  1  0  0  0  0  0  0
  188.3520  177.4980  146.2980 C   0  0  0  0  0  0  0  0  0  0  0  0
  187.0350  177.9750  146.3080 C   0  0  0  0  0  3  0  0  0  0  0  0
  186.3210  178.1500  145.1180 C   0  0  0  0  0  0  0  0  0  0  0  0
  188.2510  177.3620  143.8780 C   0  0  0  0  0  3  0  0  0  0  0  0
  186.9380  177.8410  143.8790 C   0  0  0  0  0  0  0  0  0  0  0  0
  188.9550  177.1920  145.0710 C   0  0  0  0  0  3  0  0  0  0  0  0
  189.0650  177.3280  147.5330 N   0  0  0  0  0  0  0  0  0  0  0  0
  188.6470  178.0060  148.7510 C   0  0  0  0  0  1  0  0  0  0  0  0
  190.1520  176.5230  147.5850 O   0  0  0  0  0  1  0  0  0  0  0  0
  1 20  1  6  0  0  0
  1 10  1  0  0  0  0
  2 16  1  0  0  0  0
  3 14  1  0  0  0  0
  3 13  1  0  0  0  0
  5  6  1  0  0  0  0
  6 11  1  0  0  0  0
  6  8  1  1  0  0  0
  7  3  2  0  0  0  0
  9  4  1  6  0  0  0
  9 11  1  0  0  0  0
 10  9  1  0  0  0  0
 10  6  1  0  0  0  0
 12 14  1  0  0  0  0
 12  2  1  0  0  0  0
 14 15  1  0  0  0  0
 15 17  1  0  0  0  0
 16 18  1  0  0  0  0
 16  4  1  0  0  0  0
 17 18  1  0  0  0  0
 18  1  1  0  0  0  0
 20 19  2  0  0  0  0
 21 19  1  0  0  0  0
 21 22  1  0  0  0  0
 22 24  1  0  0  0  0
 23 21  1  0  0  0  0
 23 22  1  0  0  0  0
 24 30  1  0  0  0  0
 26 27  1  0  0  0  0
 26 32  1  0  0  0  0
 28 25  1  0  0  0  0
 28 27  2  0  0  0  0
 29 30  2  0  0  0  0
 29 31  1  0  0  0  0
 30 28  1  0  0  0  0
 31 26  2  0  0  0  0
 32 34  1  0  0  0  0
 32 33  1  0  0  0  0
M  END
>  <MODEL>
7

>  <REMARK>
 VINA RESULT:      -7.6      4.341      5.724
  Name = 
  5 active torsions:
  status: ('A' for Active; 'I' for Inactive)
    1  A    between atoms: C_1  and  C_9
    2  A    between atoms: N_6  and  C_28
    3  A    between atoms: N_6  and  C_30
    4  A    between atoms: C_7  and  N_11
    5  A    between atoms: C_8  and  C_18
                            x       y       z     vdW  Elec       q    Type
                         _______ _______ _______ _____ _____    ______ ____

>  <TORSDO>
F 5

$$$$
=
 OpenBabel11052415413D

 34 38  0  0  1  0  0  0  0  0999 V2000
  185.0850  177.9060  139.4630 C   0  0  1  0  0  3  0  0  0  0  0  0
  188.0590  178.5460  136.9550 C   0  0  0  0  0  2  0  0  0  0  0  0
  190.4840  177.1340  138.5680 C   0  0  0  0  0  0  0  0  0  0  0  0
  185.8020  177.5320  136.5930 C   0  0  0  0  0  2  0  0  0  0  0  0
  182.0510  178.8490  137.9850 F   0  0  0  0  0  0  0  0  0  0  0  0
  182.8500  177.7430  138.2110 C   0  0  2  0  0  0  0  0  0  0  0  0
  191.0900  177.1340  137.3170 O   0  0  0  0  0  0  0  0  0  0  0  0
  182.3500  176.9280  139.4030 C   0  0  0  0  0  1  0  0  0  0  0  0
  184.6290  177.0600  137.3960 C   0  0  1  0  0  3  0  0  0  0  0  0
  184.2590  178.1280  138.2830 N   0  0  2  0  0  0  0  0  0  0  0  0
  182.9910  176.7080  136.7030 S   0  0  0  0  0  0  0  0  0  0  0  0
  189.0910  179.1270  137.9230 C   0  0  0  0  0  2  0  0  0  0  0  0
  190.8000  176.2470  139.4060 O   0  0  0  0  0  1  0  0  0  0  0  0
  189.5140  178.1340  138.9020 N   0  0  0  0  0  0  0  0  0  0  0  0
  188.8350  178.1270  140.1910 C   0  0  0  0  0  2  0  0  0  0  0  0
  186.9610  177.6920  137.6040 C   0  0  2  0  0  3  0  0  0  0  0  0
  187.4740  177.4520  140.0750 C   0  0  0  0  0  2  0  0  0  0  0  0
  186.5700  178.1540  139.0620 C   0  0  2  0  0  3  0  0  0  0  0  0
  184.4350  178.3980  141.8030 C   0  0  0  0  0  3  0  0  0  0  0  0
  184.6920  178.8430  140.5720 C   0  0  0  0  0  3  0  0  0  0  0  0
  183.9970  179.3480  142.8730 C   0  0  1  0  0  3  0  0  0  0  0  0
  184.6250  179.0770  144.2470 C   0  0  2  0  0  3  0  0  0  0  0  0
  185.1880  180.1570  143.3450 C   0  0  0  0  0  2  0  0  0  0  0  0
  185.5130  177.9190  144.2420 N   0  0  0  0  0  2  0  0  0  0  0  0
  188.0050  176.5160  143.2210 C   0  0  0  0  0  1  0  0  0  0  0  0
  188.9110  177.4410  146.7630 C   0  0  0  0  0  0  0  0  0  0  0  0
  188.9520  176.9370  145.4570 C   0  0  0  0  0  3  0  0  0  0  0  0
  187.8590  177.0720  144.5950 C   0  0  0  0  0  0  0  0  0  0  0  0
  186.6550  178.2340  146.3500 C   0  0  0  0  0  3  0  0  0  0  0  0
  186.6870  177.7300  145.0470 C   0  0  0  0  0  0  0  0  0  0  0  0
  187.7510  178.0940  147.2020 C   0  0  0  0  0  3  0  0  0  0  0  0
  190.0450  177.2890  147.6290 N   0  0  0  0  0  0  0  0  0  0  0  0
  191.1470  176.4010  147.2900 C   0  0  0  0  0  1  0  0  0  0  0  0
  190.1090  177.9790  148.7930 O   0  0  0  0  0  1  0  0  0  0  0  0
  1 20  1  1  0  0  0
  2 16  1  0  0  0  0
  2 12  1  0  0  0  0
  3 14  1  0  0  0  0
  3 13  1  0  0  0  0
  4 16  1  0  0  0  0
  5  6  1  0  0  0  0
  6 10  1  0  0  0  0
  6  8  1  1  0  0  0
  7  3  2  0  0  0  0
  9  4  1  6  0  0  0
  9 10  1  0  0  0  0
 10  1  1  0  0  0  0
 11  9  1  0  0  0  0
 11  6  1  0  0  0  0
 12 14  1  0  0  0  0
 14 15  1  0  0  0  0
 16 18  1  0  0  0  0
 17 15  1  0  0  0  0
 18  1  1  0  0  0  0
 18 17  1  0  0  0  0
 19 21  1  0  0  0  0
 20 19  2  0  0  0  0
 21 23  1  0  0  0  0
 21 22  1  0  0  0  0
 23 22  1  0  0  0  0
 24 22  1  0  0  0  0
 24 30  1  0  0  0  0
 25 28  1  0  0  0  0
 26 31  1  0  0  0  0
 26 32  1  0  0  0  0
 27 26  2  0  0  0  0
 28 30  2  0  0  0  0
 28 27  1  0  0  0  0
 29 31  2  0  0  0  0
 30 29  1  0  0  0  0
 32 34  1  0  0  0  0
 33 32  1  0  0  0  0
M  END
>  <MODEL>
8

>  <REMARK>
 VINA RESULT:      -7.5      4.340      6.086
  Name = 
  5 active torsions:
  status: ('A' for Active; 'I' for Inactive)
    1  A    between atoms: C_1  and  C_9
    2  A    between atoms: N_6  and  C_28
    3  A    between atoms: N_6  and  C_30
    4  A    between atoms: C_7  and  N_11
    5  A    between atoms: C_8  and  C_18
                            x       y       z     vdW  Elec       q    Type
                         _______ _______ _______ _____ _____    ______ ____

>  <TORSDO>
F 5

$$$$
=
 OpenBabel11052415413D

 34 38  0  0  1  0  0  0  0  0999 V2000
  189.6300  174.8030  136.8720 C   0  0  1  0  0  3  0  0  0  0  0  0
  192.9230  174.5550  134.7190 C   0  0  0  0  0  2  0  0  0  0  0  0
  195.1530  174.9140  137.0370 C   0  0  0  0  0  0  0  0  0  0  0  0
  190.9430  173.0330  134.8630 C   0  0  0  0  0  2  0  0  0  0  0  0
  186.8470  174.0110  134.8970 F   0  0  0  0  0  0  0  0  0  0  0  0
  187.7300  173.4500  135.8000 C   0  0  2  0  0  0  0  0  0  0  0  0
  195.9880  174.3390  136.0860 O   0  0  0  0  0  0  0  0  0  0  0  0
  187.1220  173.3740  137.2000 C   0  0  0  0  0  1  0  0  0  0  0  0
  189.7120  172.8510  135.6960 C   0  0  1  0  0  3  0  0  0  0  0  0
  189.0310  174.1160  135.7350 N   0  0  2  0  0  0  0  0  0  0  0  0
  188.3070  171.8050  135.2290 S   0  0  0  0  0  0  0  0  0  0  0  0
  193.6540  175.8010  135.2220 C   0  0  0  0  0  2  0  0  0  0  0  0
  195.4170  174.7650  138.2600 O   0  0  0  0  0  1  0  0  0  0  0  0
  194.0080  175.6730  136.6290 N   0  0  0  0  0  0  0  0  0  0  0  0
  193.0960  176.2470  137.6090 C   0  0  0  0  0  2  0  0  0  0  0  0
  191.8470  174.0010  135.6630 C   0  0  2  0  0  3  0  0  0  0  0  0
  191.8910  175.3380  137.8160 C   0  0  0  0  0  2  0  0  0  0  0  0
  191.1160  175.1080  136.5190 C   0  0  2  0  0  3  0  0  0  0  0  0
  188.8240  176.5770  138.4020 C   0  0  0  0  0  3  0  0  0  0  0  0
  188.9000  176.0850  137.1650 C   0  0  0  0  0  3  0  0  0  0  0  0
  188.0490  177.8300  138.6700 C   0  0  1  0  0  3  0  0  0  0  0  0
  187.9960  178.2290  140.1510 C   0  0  2  0  0  3  0  0  0  0  0  0
  188.9820  178.8930  139.2110 C   0  0  0  0  0  2  0  0  0  0  0  0
  188.6980  177.2860  141.0150 N   0  0  0  0  0  2  0  0  0  0  0  0
  191.2640  177.7770  142.5630 C   0  0  0  0  0  1  0  0  0  0  0  0
  188.6810  177.3130  145.2720 C   0  0  0  0  0  0  0  0  0  0  0  0
  189.8870  177.5260  144.5920 C   0  0  0  0  0  3  0  0  0  0  0  0
  189.9380  177.5260  143.1950 C   0  0  0  0  0  0  0  0  0  0  0  0
  187.5520  177.0980  143.1360 C   0  0  0  0  0  3  0  0  0  0  0  0
  188.7510  177.3060  142.4500 C   0  0  0  0  0  0  0  0  0  0  0  0
  187.5120  177.1000  144.5310 C   0  0  0  0  0  3  0  0  0  0  0  0
  188.6540  177.3170  146.7080 N   0  0  0  0  0  0  0  0  0  0  0  0
  187.5170  177.8480  147.4450 C   0  0  0  0  0  1  0  0  0  0  0  0
  189.7010  176.8210  147.4090 O   0  0  0  0  0  1  0  0  0  0  0  0
  1 20  1  6  0  0  0
  2 12  1  0  0  0  0
  2 16  1  0  0  0  0
  3 13  1  0  0  0  0
  4 16  1  0  0  0  0
  5  6  1  0  0  0  0
  6  8  1  1  0  0  0
  7  3  2  0  0  0  0
  9  4  1  6  0  0  0
  9 10  1  0  0  0  0
 10  6  1  0  0  0  0
 10  1  1  0  0  0  0
 11  9  1  0  0  0  0
 11  6  1  0  0  0  0
 12 14  1  0  0  0  0
 14  3  1  0  0  0  0
 14 15  1  0  0  0  0
 15 17  1  0  0  0  0
 16 18  1  0  0  0  0
 18  1  1  0  0  0  0
 18 17  1  0  0  0  0
 19 21  1  0  0  0  0
 20 19  2  0  0  0  0
 21 23  1  0  0  0  0
 21 22  1  0  0  0  0
 22 24  1  0  0  0  0
 23 22  1  0  0  0  0
 24 30  1  0  0  0  0
 25 28  1  0  0  0  0
 26 32  1  0  0  0  0
 27 26  1  0  0  0  0
 28 27  2  0  0  0  0
 29 31  1  0  0  0  0
 30 29  2  0  0  0  0
 30 28  1  0  0  0  0
 31 26  2  0  0  0  0
 32 34  1  0  0  0  0
 32 33  1  0  0  0  0
M  END
>  <MODEL>
9

>  <REMARK>
 VINA RESULT:      -7.4      7.552      9.993
  Name = 
  5 active torsions:
  status: ('A' for Active; 'I' for Inactive)
    1  A    between atoms: C_1  and  C_9
    2  A    between atoms: N_6  and  C_28
    3  A    between atoms: N_6  and  C_30
    4  A    between atoms: C_7  and  N_11
    5  A    between atoms: C_8  and  C_18
                            x       y       z     vdW  Elec       q    Type
                         _______ _______ _______ _____ _____    ______ ____

>  <TORSDO>
F 5

$$$$
