=
 OpenBabel11052414323D

 32 35  0  0  1  0  0  0  0  0999 V2000
  182.4470  179.4620  140.0030 C   0  0  2  0  0  3  0  0  0  0  0  0
  178.9320  181.7220  141.2000 C   0  0  0  0  0  1  0  0  0  0  0  0
  180.9950  178.9530  139.8340 C   0  0  1  0  0  3  0  0  0  0  0  0
  179.4140  179.6240  142.1910 C   0  0  2  0  0  3  0  0  0  0  0  0
  180.6380  177.8560  140.8480 C   0  0  1  0  0  3  0  0  0  0  0  0
  180.3880  178.4430  142.2420 C   0  0  0  0  0  2  0  0  0  0  0  0
  179.9150  180.6510  141.2660 N   0  0  0  0  0  0  0  0  0  0  0  0
  179.9630  180.0850  139.9190 C   0  0  0  0  0  2  0  0  0  0  0  0
  179.4430  177.0410  140.3670 C   0  0  0  0  0  3  0  0  0  0  0  0
  179.9200  175.6930  139.8610 C   0  0  0  0  0  2  0  0  0  0  0  0
  179.2860  175.8060  141.2310 C   0  0  0  0  0  2  0  0  0  0  0  0
  179.3020  180.1540  143.4800 O   0  0  0  0  0  0  0  0  0  0  0  0
  179.2060  179.0450  144.3230 C   0  0  0  0  0  1  0  0  0  0  0  0
  183.0260  180.1520  138.7520 C   0  0  0  0  0  0  0  0  0  0  0  0
  184.4060  180.0720  138.7370 F   0  0  0  0  0  0  0  0  0  0  0  0
  182.6540  181.4850  138.7150 F   0  0  0  0  0  0  0  0  0  0  0  0
  182.5310  179.5380  137.6170 F   0  0  0  0  0  0  0  0  0  0  0  0
  183.4290  178.4340  140.6160 C   0  0  2  0  0  3  0  0  0  0  0  0
  186.4800  177.7620  142.5520 C   0  0  0  0  0  2  0  0  0  0  0  0
  184.9490  178.8590  144.1720 C   0  0  0  0  0  2  0  0  0  0  0  0
  184.3490  178.9820  141.7270 C   0  0  1  0  0  3  0  0  0  0  0  0
  186.3150  178.3600  143.8910 N   0  0  1  0  0  0  0  0  0  0  0  0
  183.9060  178.4910  143.1070 C   0  0  0  0  0  2  0  0  0  0  0  0
  185.7850  178.5810  141.5070 C   0  0  0  0  0  0  0  0  0  0  0  0
  186.3980  178.9500  140.5180 O   0  0  0  0  0  0  0  0  0  0  0  0
  186.6030  177.3220  144.8710 C   0  0  0  0  0  3  0  0  0  0  0  0
  186.2190  177.8120  146.2570 C   0  0  0  0  0  2  0  0  0  0  0  0
  187.6730  177.7980  145.8410 C   0  0  0  0  0  2  0  0  0  0  0  0
  184.1870  177.8650  139.5870 O   0  0  0  0  0  0  0  0  0  0  0  0
  183.5240  176.6770  139.2640 C   0  0  0  0  0  2  0  0  0  0  0  0
  183.6570  176.4150  137.7800 C   0  0  0  0  0  2  0  0  0  0  0  0
  182.2810  176.3150  137.1580 C   0  0  0  0  0  1  0  0  0  0  0  0
  1 14  1  6  0  0  0
  1 18  1  0  0  0  0
  2  7  1  0  0  0  0
  3  8  1  0  0  0  0
  3  1  1  1  0  0  0
  3  5  1  0  0  0  0
  4  6  1  0  0  0  0
  4 12  1  1  0  0  0
  5  9  1  6  0  0  0
  5  6  1  0  0  0  0
  7  4  1  0  0  0  0
  8  7  1  0  0  0  0
  9 11  1  0  0  0  0
 10  9  1  0  0  0  0
 10 11  1  0  0  0  0
 12 13  1  0  0  0  0
 15 14  1  0  0  0  0
 16 14  1  0  0  0  0
 17 14  1  0  0  0  0
 18 29  1  6  0  0  0
 19 22  1  0  0  0  0
 21 18  1  6  0  0  0
 21 23  1  0  0  0  0
 22 20  1  0  0  0  0
 22 26  1  1  0  0  0
 23 20  1  0  0  0  0
 24 21  1  0  0  0  0
 24 19  1  0  0  0  0
 25 24  2  0  0  0  0
 26 28  1  0  0  0  0
 26 27  1  0  0  0  0
 28 27  1  0  0  0  0
 30 29  1  0  0  0  0
 31 30  1  0  0  0  0
 32 31  1  0  0  0  0
M  END
>  <MODEL>
1

>  <REMARK>
 VINA RESULT:      -5.6      0.000      0.000
  Name = 
  10 active torsions:
  status: ('A' for Active; 'I' for Inactive)
    1  A    between atoms: C_1  and  C_4
    2  A    between atoms: C_1  and  O_24
    3  A    between atoms: C_2  and  C_5
    4  A    between atoms: C_5  and  C_10
    5  A    between atoms: C_5  and  C_27
    6  A    between atoms: C_6  and  C_13
    7  A    between atoms: C_7  and  N_19
    8  A    between atoms: O_11  and  C_12
    9  A    between atoms: C_16  and  C_27
   10  A    between atoms: O_24  and  C_27
                            x       y       z     vdW  Elec       q    Type
                         _______ _______ _______ _____ _____    ______ ____

>  <TORSDO>
F 10

$$$$
=
 OpenBabel11052414323D

 32 35  0  0  1  0  0  0  0  0999 V2000
  188.3750  177.4060  137.4050 C   0  0  2  0  0  3  0  0  0  0  0  0
  184.9120  177.0660  134.7990 C   0  0  0  0  0  1  0  0  0  0  0  0
  188.1890  176.2800  136.3600 C   0  0  1  0  0  3  0  0  0  0  0  0
  185.4230  175.3560  136.3580 C   0  0  2  0  0  3  0  0  0  0  0  0
  187.8370  174.9320  137.0090 C   0  0  1  0  0  3  0  0  0  0  0  0
  186.3750  174.8990  137.4690 C   0  0  0  0  0  2  0  0  0  0  0  0
  185.8000  176.6980  135.8920 N   0  0  0  0  0  0  0  0  0  0  0  0
  187.1350  176.6300  135.3010 C   0  0  0  0  0  2  0  0  0  0  0  0
  188.1470  173.7780  136.0620 C   0  0  0  0  0  3  0  0  0  0  0  0
  189.3500  173.0110  136.5770 C   0  0  0  0  0  2  0  0  0  0  0  0
  187.9550  172.4600  136.7850 C   0  0  0  0  0  2  0  0  0  0  0  0
  184.1250  175.3770  136.8780 O   0  0  0  0  0  0  0  0  0  0  0  0
  183.9310  174.1080  137.4280 C   0  0  0  0  0  1  0  0  0  0  0  0
  188.6320  178.7990  136.7960 C   0  0  0  0  0  0  0  0  0  0  0  0
  189.2690  179.6250  137.7040 F   0  0  0  0  0  0  0  0  0  0  0  0
  187.4400  179.3900  136.4120 F   0  0  0  0  0  0  0  0  0  0  0  0
  189.4280  178.6710  135.6740 F   0  0  0  0  0  0  0  0  0  0  0  0
  189.3610  177.0730  138.5510 C   0  0  2  0  0  3  0  0  0  0  0  0
  188.9150  176.6890  142.1790 C   0  0  0  0  0  2  0  0  0  0  0  0
  187.4110  178.5690  141.5670 C   0  0  0  0  0  2  0  0  0  0  0  0
  189.1250  177.8410  139.8690 C   0  0  1  0  0  3  0  0  0  0  0  0
  188.0350  177.7750  142.6510 N   0  0  1  0  0  0  0  0  0  0  0  0
  187.6310  178.0020  140.1570 C   0  0  0  0  0  2  0  0  0  0  0  0
  189.7730  177.1480  141.0400 C   0  0  0  0  0  0  0  0  0  0  0  0
  190.9830  176.9960  141.0920 O   0  0  0  0  0  0  0  0  0  0  0  0
  186.9540  177.1620  143.4110 C   0  0  0  0  0  3  0  0  0  0  0  0
  185.9170  178.2170  143.7600 C   0  0  0  0  0  2  0  0  0  0  0  0
  186.8980  177.7510  144.8130 C   0  0  0  0  0  2  0  0  0  0  0  0
  190.6680  177.2720  138.0940 O   0  0  0  0  0  0  0  0  0  0  0  0
  191.1920  175.9880  137.9210 C   0  0  0  0  0  2  0  0  0  0  0  0
  192.3010  176.0300  136.8930 C   0  0  0  0  0  2  0  0  0  0  0  0
  191.7170  175.8350  135.5100 C   0  0  0  0  0  1  0  0  0  0  0  0
  1 14  1  6  0  0  0
  1 18  1  0  0  0  0
  2  7  1  0  0  0  0
  3  5  1  0  0  0  0
  3  1  1  1  0  0  0
  4 12  1  1  0  0  0
  4  6  1  0  0  0  0
  5  9  1  6  0  0  0
  5  6  1  0  0  0  0
  7  4  1  0  0  0  0
  8  7  1  0  0  0  0
  8  3  1  0  0  0  0
  9 10  1  0  0  0  0
  9 11  1  0  0  0  0
 10 11  1  0  0  0  0
 12 13  1  0  0  0  0
 14 15  1  0  0  0  0
 16 14  1  0  0  0  0
 17 14  1  0  0  0  0
 18 29  1  6  0  0  0
 19 22  1  0  0  0  0
 20 22  1  0  0  0  0
 21 18  1  6  0  0  0
 21 23  1  0  0  0  0
 21 24  1  0  0  0  0
 22 26  1  6  0  0  0
 23 20  1  0  0  0  0
 24 25  2  0  0  0  0
 24 19  1  0  0  0  0
 26 27  1  0  0  0  0
 26 28  1  0  0  0  0
 27 28  1  0  0  0  0
 30 29  1  0  0  0  0
 31 30  1  0  0  0  0
 32 31  1  0  0  0  0
M  END
>  <MODEL>
2

>  <REMARK>
 VINA RESULT:      -5.6      5.067      7.302
  Name = 
  10 active torsions:
  status: ('A' for Active; 'I' for Inactive)
    1  A    between atoms: C_1  and  C_4
    2  A    between atoms: C_1  and  O_24
    3  A    between atoms: C_2  and  C_5
    4  A    between atoms: C_5  and  C_10
    5  A    between atoms: C_5  and  C_27
    6  A    between atoms: C_6  and  C_13
    7  A    between atoms: C_7  and  N_19
    8  A    between atoms: O_11  and  C_12
    9  A    between atoms: C_16  and  C_27
   10  A    between atoms: O_24  and  C_27
                            x       y       z     vdW  Elec       q    Type
                         _______ _______ _______ _____ _____    ______ ____

>  <TORSDO>
F 10

$$$$
=
 OpenBabel11052414323D

 32 35  0  0  1  0  0  0  0  0999 V2000
  183.3020  178.4420  139.0520 C   0  0  2  0  0  3  0  0  0  0  0  0
  179.2040  177.1940  138.3120 C   0  0  0  0  0  1  0  0  0  0  0  0
  182.8980  177.3900  137.9900 C   0  0  1  0  0  3  0  0  0  0  0  0
  180.8260  175.6340  139.0530 C   0  0  2  0  0  3  0  0  0  0  0  0
  183.2590  175.9590  138.4190 C   0  0  1  0  0  3  0  0  0  0  0  0
  182.2850  175.4300  139.4770 C   0  0  0  0  0  2  0  0  0  0  0  0
  180.5780  177.0550  138.7700 N   0  0  0  0  0  0  0  0  0  0  0  0
  181.4070  177.4570  137.6350 C   0  0  0  0  0  2  0  0  0  0  0  0
  183.3240  175.0320  137.2110 C   0  0  0  0  0  3  0  0  0  0  0  0
  184.7740  174.7580  136.8600 C   0  0  0  0  0  2  0  0  0  0  0  0
  183.9670  173.7180  137.6090 C   0  0  0  0  0  2  0  0  0  0  0  0
  180.0040  175.2040  140.0990 O   0  0  0  0  0  0  0  0  0  0  0  0
  179.6320  173.9020  139.7600 C   0  0  0  0  0  1  0  0  0  0  0  0
  182.7450  179.8540  138.7860 C   0  0  0  0  0  0  0  0  0  0  0  0
  181.7470  180.1700  139.6900 F   0  0  0  0  0  0  0  0  0  0  0  0
  182.2310  179.9420  137.5030 F   0  0  0  0  0  0  0  0  0  0  0  0
  183.7630  180.7810  138.9040 F   0  0  0  0  0  0  0  0  0  0  0  0
  184.8080  178.4600  139.4080 C   0  0  2  0  0  3  0  0  0  0  0  0
  186.5920  177.9650  142.5840 C   0  0  0  0  0  2  0  0  0  0  0  0
  184.5710  179.2710  143.2060 C   0  0  0  0  0  2  0  0  0  0  0  0
  185.1580  179.1180  140.7600 C   0  0  1  0  0  3  0  0  0  0  0  0
  185.8780  178.7180  143.6330 N   0  0  1  0  0  0  0  0  0  0  0  0
  184.1040  178.7990  141.8220 C   0  0  0  0  0  2  0  0  0  0  0  0
  186.5060  178.6690  141.2640 C   0  0  0  0  0  0  0  0  0  0  0  0
  187.5250  178.9090  140.6370 O   0  0  0  0  0  0  0  0  0  0  0  0
  185.6160  177.7970  144.7310 C   0  0  0  0  0  3  0  0  0  0  0  0
  185.0680  178.5680  145.9210 C   0  0  0  0  0  2  0  0  0  0  0  0
  186.5140  178.1220  145.9150 C   0  0  0  0  0  2  0  0  0  0  0  0
  185.5110  179.0750  138.3660 O   0  0  0  0  0  0  0  0  0  0  0  0
  186.2440  178.0470  137.7670 C   0  0  0  0  0  2  0  0  0  0  0  0
  187.1490  178.6280  136.7030 C   0  0  0  0  0  2  0  0  0  0  0  0
  188.5810  178.6100  137.1910 C   0  0  0  0  0  1  0  0  0  0  0  0
  1 14  1  6  0  0  0
  1 18  1  0  0  0  0
  2  7  1  0  0  0  0
  3  5  1  0  0  0  0
  3  1  1  1  0  0  0
  4  6  1  0  0  0  0
  4 12  1  1  0  0  0
  5  9  1  6  0  0  0
  5  6  1  0  0  0  0
  7  4  1  0  0  0  0
  8  3  1  0  0  0  0
  8  7  1  0  0  0  0
  9 11  1  0  0  0  0
 10  9  1  0  0  0  0
 10 11  1  0  0  0  0
 13 12  1  0  0  0  0
 14 17  1  0  0  0  0
 14 15  1  0  0  0  0
 16 14  1  0  0  0  0
 18 29  1  6  0  0  0
 19 22  1  0  0  0  0
 20 22  1  0  0  0  0
 21 18  1  6  0  0  0
 21 24  1  0  0  0  0
 21 23  1  0  0  0  0
 22 26  1  1  0  0  0
 23 20  1  0  0  0  0
 24 19  1  0  0  0  0
 25 24  2  0  0  0  0
 26 28  1  0  0  0  0
 26 27  1  0  0  0  0
 28 27  1  0  0  0  0
 30 29  1  0  0  0  0
 31 32  1  0  0  0  0
 31 30  1  0  0  0  0
M  END
>  <MODEL>
3

>  <REMARK>
 VINA RESULT:      -5.2      2.516      3.693
  Name = 
  10 active torsions:
  status: ('A' for Active; 'I' for Inactive)
    1  A    between atoms: C_1  and  C_4
    2  A    between atoms: C_1  and  O_24
    3  A    between atoms: C_2  and  C_5
    4  A    between atoms: C_5  and  C_10
    5  A    between atoms: C_5  and  C_27
    6  A    between atoms: C_6  and  C_13
    7  A    between atoms: C_7  and  N_19
    8  A    between atoms: O_11  and  C_12
    9  A    between atoms: C_16  and  C_27
   10  A    between atoms: O_24  and  C_27
                            x       y       z     vdW  Elec       q    Type
                         _______ _______ _______ _____ _____    ______ ____

>  <TORSDO>
F 10

$$$$
=
 OpenBabel11052414323D

 32 35  0  0  1  0  0  0  0  0999 V2000
  183.6370  177.9450  138.6150 C   0  0  2  0  0  3  0  0  0  0  0  0
  182.9160  175.0320  135.4690 C   0  0  0  0  0  1  0  0  0  0  0  0
  182.8420  176.6320  138.8200 C   0  0  1  0  0  3  0  0  0  0  0  0
  181.1080  176.1400  136.5270 C   0  0  2  0  0  3  0  0  0  0  0  0
  181.3300  176.8780  138.9430 C   0  0  1  0  0  3  0  0  0  0  0  0
  180.7000  177.1780  137.5780 C   0  0  0  0  0  2  0  0  0  0  0  0
  182.5730  176.0710  136.4290 N   0  0  0  0  0  0  0  0  0  0  0  0
  183.1060  175.6070  137.7090 C   0  0  0  0  0  2  0  0  0  0  0  0
  180.6440  175.6990  139.6240 C   0  0  0  0  0  3  0  0  0  0  0  0
  179.7320  176.2110  140.7220 C   0  0  0  0  0  2  0  0  0  0  0  0
  179.1480  175.7770  139.3940 C   0  0  0  0  0  2  0  0  0  0  0  0
  180.5640  176.5260  135.2990 O   0  0  0  0  0  0  0  0  0  0  0  0
  179.1930  176.6600  135.5320 C   0  0  0  0  0  1  0  0  0  0  0  0
  185.0170  177.7530  137.9550 C   0  0  0  0  0  0  0  0  0  0  0  0
  185.4890  176.4700  138.1610 F   0  0  0  0  0  0  0  0  0  0  0  0
  185.9320  178.6560  138.4690 F   0  0  0  0  0  0  0  0  0  0  0  0
  184.9120  177.9760  136.5950 F   0  0  0  0  0  0  0  0  0  0  0  0
  183.7010  178.8660  139.8570 C   0  0  2  0  0  3  0  0  0  0  0  0
  183.4110  179.2560  143.5010 C   0  0  0  0  0  2  0  0  0  0  0  0
  185.3880  177.7820  143.1910 C   0  0  0  0  0  2  0  0  0  0  0  0
  183.8740  178.1410  141.2090 C   0  0  1  0  0  3  0  0  0  0  0  0
  184.4210  178.3880  144.1360 N   0  0  1  0  0  0  0  0  0  0  0  0
  185.2920  178.3170  141.7550 C   0  0  0  0  0  2  0  0  0  0  0  0
  182.8920  178.6400  142.2370 C   0  0  0  0  0  0  0  0  0  0  0  0
  181.6890  178.5110  142.0750 O   0  0  0  0  0  0  0  0  0  0  0  0
  185.1850  179.2120  145.0630 C   0  0  0  0  0  3  0  0  0  0  0  0
  186.3600  178.4130  145.6030 C   0  0  0  0  0  2  0  0  0  0  0  0
  185.1310  178.6180  146.4620 C   0  0  0  0  0  2  0  0  0  0  0  0
  182.5610  179.6760  139.8770 O   0  0  0  0  0  0  0  0  0  0  0  0
  182.5950  180.3800  138.6700 C   0  0  0  0  0  2  0  0  0  0  0  0
  181.2100  180.8960  138.3480 C   0  0  0  0  0  2  0  0  0  0  0  0
  180.2460  180.4710  139.4350 C   0  0  0  0  0  1  0  0  0  0  0  0
  1 14  1  1  0  0  0
  1 18  1  0  0  0  0
  2  7  1  0  0  0  0
  3  1  1  6  0  0  0
  3  5  1  0  0  0  0
  4 12  1  6  0  0  0
  4  6  1  0  0  0  0
  5  9  1  6  0  0  0
  6  5  1  0  0  0  0
  7  4  1  0  0  0  0
  7  8  1  0  0  0  0
  8  3  1  0  0  0  0
  9 10  1  0  0  0  0
 11  9  1  0  0  0  0
 11 10  1  0  0  0  0
 12 13  1  0  0  0  0
 14 15  1  0  0  0  0
 14 16  1  0  0  0  0
 17 14  1  0  0  0  0
 18 29  1  1  0  0  0
 19 22  1  0  0  0  0
 20 22  1  0  0  0  0
 21 18  1  6  0  0  0
 21 23  1  0  0  0  0
 21 24  1  0  0  0  0
 22 26  1  1  0  0  0
 23 20  1  0  0  0  0
 24 19  1  0  0  0  0
 25 24  2  0  0  0  0
 26 27  1  0  0  0  0
 26 28  1  0  0  0  0
 27 28  1  0  0  0  0
 30 29  1  0  0  0  0
 31 30  1  0  0  0  0
 31 32  1  0  0  0  0
M  END
>  <MODEL>
4

>  <REMARK>
 VINA RESULT:      -4.6      2.394      4.481
  Name = 
  10 active torsions:
  status: ('A' for Active; 'I' for Inactive)
    1  A    between atoms: C_1  and  C_4
    2  A    between atoms: C_1  and  O_24
    3  A    between atoms: C_2  and  C_5
    4  A    between atoms: C_5  and  C_10
    5  A    between atoms: C_5  and  C_27
    6  A    between atoms: C_6  and  C_13
    7  A    between atoms: C_7  and  N_19
    8  A    between atoms: O_11  and  C_12
    9  A    between atoms: C_16  and  C_27
   10  A    between atoms: O_24  and  C_27
                            x       y       z     vdW  Elec       q    Type
                         _______ _______ _______ _____ _____    ______ ____

>  <TORSDO>
F 10

$$$$
=
 OpenBabel11052414323D

 32 35  0  0  1  0  0  0  0  0999 V2000
  182.1470  177.8430  137.6680 C   0  0  2  0  0  3  0  0  0  0  0  0
  181.9860  174.3100  135.1400 C   0  0  0  0  0  1  0  0  0  0  0  0
  183.2030  177.5050  136.5880 C   0  0  1  0  0  3  0  0  0  0  0  0
  183.8010  174.6510  136.6240 C   0  0  2  0  0  3  0  0  0  0  0  0
  184.5250  177.0120  137.1970 C   0  0  1  0  0  3  0  0  0  0  0  0
  184.4070  175.5670  137.6930 C   0  0  0  0  0  2  0  0  0  0  0  0
  182.4950  175.1720  136.1960 N   0  0  0  0  0  0  0  0  0  0  0  0
  182.6940  176.4770  135.5690 C   0  0  0  0  0  2  0  0  0  0  0  0
  185.6710  177.1660  136.2030 C   0  0  0  0  0  3  0  0  0  0  0  0
  186.7290  178.0810  136.7880 C   0  0  0  0  0  2  0  0  0  0  0  0
  186.9390  176.5810  136.7900 C   0  0  0  0  0  2  0  0  0  0  0  0
  183.6510  173.3760  137.1770 O   0  0  0  0  0  0  0  0  0  0  0  0
  184.9310  173.0050  137.5930 C   0  0  0  0  0  1  0  0  0  0  0  0
  180.7690  178.2400  137.1030 C   0  0  0  0  0  0  0  0  0  0  0  0
  180.1690  177.1690  136.4660 F   0  0  0  0  0  0  0  0  0  0  0  0
  180.8950  179.2840  136.2010 F   0  0  0  0  0  0  0  0  0  0  0  0
  179.9520  178.6610  138.1350 F   0  0  0  0  0  0  0  0  0  0  0  0
  182.6330  178.8130  138.7710 C   0  0  2  0  0  3  0  0  0  0  0  0
  182.1840  179.0030  142.4140 C   0  0  0  0  0  2  0  0  0  0  0  0
  184.5340  178.2510  142.1190 C   0  0  0  0  0  2  0  0  0  0  0  0
  183.0120  178.1510  140.1130 C   0  0  1  0  0  3  0  0  0  0  0  0
  183.4110  178.4910  143.0550 N   0  0  1  0  0  0  0  0  0  0  0  0
  184.2910  178.7600  140.6910 C   0  0  0  0  0  2  0  0  0  0  0  0
  181.9080  178.2830  141.1300 C   0  0  0  0  0  0  0  0  0  0  0  0
  180.8130  177.7780  140.9410 O   0  0  0  0  0  0  0  0  0  0  0  0
  183.8560  179.4960  144.0110 C   0  0  0  0  0  3  0  0  0  0  0  0
  185.1300  179.0210  144.6900 C   0  0  0  0  0  2  0  0  0  0  0  0
  183.8100  178.9330  145.4240 C   0  0  0  0  0  2  0  0  0  0  0  0
  181.6580  179.7980  138.9680 O   0  0  0  0  0  0  0  0  0  0  0  0
  182.3100  181.0080  138.7150 C   0  0  0  0  0  2  0  0  0  0  0  0
  181.3190  182.0050  138.1550 C   0  0  0  0  0  2  0  0  0  0  0  0
  179.9980  181.8690  138.8820 C   0  0  0  0  0  1  0  0  0  0  0  0
  1 14  1  6  0  0  0
  1 18  1  0  0  0  0
  2  7  1  0  0  0  0
  3  5  1  0  0  0  0
  3  1  1  1  0  0  0
  4 12  1  1  0  0  0
  4  6  1  0  0  0  0
  5  9  1  6  0  0  0
  5  6  1  0  0  0  0
  7  4  1  0  0  0  0
  8  7  1  0  0  0  0
  8  3  1  0  0  0  0
  9 10  1  0  0  0  0
  9 11  1  0  0  0  0
 10 11  1  0  0  0  0
 12 13  1  0  0  0  0
 14 17  1  0  0  0  0
 15 14  1  0  0  0  0
 16 14  1  0  0  0  0
 18 29  1  1  0  0  0
 19 22  1  0  0  0  0
 20 22  1  0  0  0  0
 21 18  1  6  0  0  0
 21 23  1  0  0  0  0
 21 24  1  0  0  0  0
 22 26  1  1  0  0  0
 23 20  1  0  0  0  0
 24 19  1  0  0  0  0
 25 24  2  0  0  0  0
 26 27  1  0  0  0  0
 26 28  1  0  0  0  0
 27 28  1  0  0  0  0
 30 29  1  0  0  0  0
 31 30  1  0  0  0  0
 31 32  1  0  0  0  0
M  END
>  <MODEL>
5

>  <REMARK>
 VINA RESULT:      -4.5      2.782      5.855
  Name = 
  10 active torsions:
  status: ('A' for Active; 'I' for Inactive)
    1  A    between atoms: C_1  and  C_4
    2  A    between atoms: C_1  and  O_24
    3  A    between atoms: C_2  and  C_5
    4  A    between atoms: C_5  and  C_10
    5  A    between atoms: C_5  and  C_27
    6  A    between atoms: C_6  and  C_13
    7  A    between atoms: C_7  and  N_19
    8  A    between atoms: O_11  and  C_12
    9  A    between atoms: C_16  and  C_27
   10  A    between atoms: O_24  and  C_27
                            x       y       z     vdW  Elec       q    Type
                         _______ _______ _______ _____ _____    ______ ____

>  <TORSDO>
F 10

$$$$
=
 OpenBabel11052414323D

 32 35  0  0  1  0  0  0  0  0999 V2000
  185.9140  178.2940  143.6420 C   0  0  2  0  0  3  0  0  0  0  0  0
  189.4320  176.7530  145.6770 C   0  0  0  0  0  1  0  0  0  0  0  0
  186.9670  177.3790  142.9710 C   0  0  1  0  0  3  0  0  0  0  0  0
  189.6520  178.1690  143.7910 C   0  0  2  0  0  3  0  0  0  0  0  0
  187.8680  178.1460  141.9900 C   0  0  1  0  0  3  0  0  0  0  0  0
  188.9100  178.9910  142.7310 C   0  0  0  0  0  2  0  0  0  0  0  0
  188.6920  177.5720  144.7290 N   0  0  0  0  0  0  0  0  0  0  0  0
  187.8380  176.6390  143.9950 C   0  0  0  0  0  2  0  0  0  0  0  0
  188.5280  177.1910  141.0020 C   0  0  0  0  0  3  0  0  0  0  0  0
  188.2360  177.6470  139.5860 C   0  0  0  0  0  2  0  0  0  0  0  0
  189.5870  177.9290  140.2090 C   0  0  0  0  0  2  0  0  0  0  0  0
  190.5210  179.0250  144.4750 O   0  0  0  0  0  0  0  0  0  0  0  0
  191.7870  178.7540  143.9520 C   0  0  0  0  0  1  0  0  0  0  0  0
  185.8370  178.1540  145.1740 C   0  0  0  0  0  0  0  0  0  0  0  0
  186.7760  178.9600  145.7920 F   0  0  0  0  0  0  0  0  0  0  0  0
  186.0560  176.8400  145.5550 F   0  0  0  0  0  0  0  0  0  0  0  0
  184.5780  178.5220  145.6090 F   0  0  0  0  0  0  0  0  0  0  0  0
  184.5160  178.2710  142.9770 C   0  0  2  0  0  3  0  0  0  0  0  0
  183.5820  179.4050  139.6080 C   0  0  0  0  0  2  0  0  0  0  0  0
  183.1030  176.9670  139.5950 C   0  0  0  0  0  2  0  0  0  0  0  0
  184.5000  177.8750  141.4850 C   0  0  1  0  0  3  0  0  0  0  0  0
  183.2110  178.2190  138.8120 N   0  0  1  0  0  0  0  0  0  0  0  0
  183.2000  177.1580  141.1160 C   0  0  0  0  0  2  0  0  0  0  0  0
  184.6650  179.0760  140.5900 C   0  0  0  0  0  0  0  0  0  0  0  0
  185.6800  179.7530  140.6230 O   0  0  0  0  0  0  0  0  0  0  0  0
  181.9000  178.4760  138.2300 C   0  0  0  0  0  3  0  0  0  0  0  0
  181.3510  177.1930  137.6300 C   0  0  0  0  0  2  0  0  0  0  0  0
  181.9400  178.2530  136.7260 C   0  0  0  0  0  2  0  0  0  0  0  0
  183.9090  179.5190  143.1610 O   0  0  0  0  0  0  0  0  0  0  0  0
  182.8040  179.2670  143.9790 C   0  0  0  0  0  2  0  0  0  0  0  0
  181.5360  179.3780  143.1620 C   0  0  0  0  0  2  0  0  0  0  0  0
  180.4200  178.6280  143.8550 C   0  0  0  0  0  1  0  0  0  0  0  0
  1 14  1  1  0  0  0
  3  1  1  1  0  0  0
  3  8  1  0  0  0  0
  4 12  1  1  0  0  0
  4  7  1  0  0  0  0
  5  9  1  6  0  0  0
  5  6  1  0  0  0  0
  5  3  1  0  0  0  0
  6  4  1  0  0  0  0
  7  2  1  0  0  0  0
  8  7  1  0  0  0  0
 10 11  1  0  0  0  0
 10  9  1  0  0  0  0
 11  9  1  0  0  0  0
 13 12  1  0  0  0  0
 14 16  1  0  0  0  0
 14 17  1  0  0  0  0
 14 15  1  0  0  0  0
 18 29  1  6  0  0  0
 18  1  1  0  0  0  0
 19 24  1  0  0  0  0
 20 23  1  0  0  0  0
 21 18  1  1  0  0  0
 22 26  1  1  0  0  0
 22 20  1  0  0  0  0
 22 19  1  0  0  0  0
 23 21  1  0  0  0  0
 24 25  2  0  0  0  0
 24 21  1  0  0  0  0
 27 26  1  0  0  0  0
 28 27  1  0  0  0  0
 28 26  1  0  0  0  0
 29 30  1  0  0  0  0
 31 32  1  0  0  0  0
 31 30  1  0  0  0  0
M  END
>  <MODEL>
6

>  <REMARK>
 VINA RESULT:      -4.4      3.305      7.890
  Name = 
  10 active torsions:
  status: ('A' for Active; 'I' for Inactive)
    1  A    between atoms: C_1  and  C_4
    2  A    between atoms: C_1  and  O_24
    3  A    between atoms: C_2  and  C_5
    4  A    between atoms: C_5  and  C_10
    5  A    between atoms: C_5  and  C_27
    6  A    between atoms: C_6  and  C_13
    7  A    between atoms: C_7  and  N_19
    8  A    between atoms: O_11  and  C_12
    9  A    between atoms: C_16  and  C_27
   10  A    between atoms: O_24  and  C_27
                            x       y       z     vdW  Elec       q    Type
                         _______ _______ _______ _____ _____    ______ ____

>  <TORSDO>
F 10

$$$$
=
 OpenBabel11052414323D

 32 35  0  0  1  0  0  0  0  0999 V2000
  181.8010  178.0230  139.2420 C   0  0  2  0  0  3  0  0  0  0  0  0
  183.1850  175.1990  136.2400 C   0  0  0  0  0  1  0  0  0  0  0  0
  181.7940  176.4870  139.4330 C   0  0  1  0  0  3  0  0  0  0  0  0
  180.9330  175.1720  136.9760 C   0  0  2  0  0  3  0  0  0  0  0  0
  180.3790  175.8940  139.3440 C   0  0  1  0  0  3  0  0  0  0  0  0
  179.8920  175.8270  137.8910 C   0  0  0  0  0  2  0  0  0  0  0  0
  182.2120  175.8900  137.0730 N   0  0  0  0  0  0  0  0  0  0  0  0
  182.7160  175.7670  138.4400 C   0  0  0  0  0  2  0  0  0  0  0  0
  180.3230  174.5240  140.0110 C   0  0  0  0  0  3  0  0  0  0  0  0
  179.2870  174.5440  141.1190 C   0  0  0  0  0  2  0  0  0  0  0  0
  178.9590  173.9030  139.7870 C   0  0  0  0  0  2  0  0  0  0  0  0
  180.4530  175.2230  135.6650 O   0  0  0  0  0  0  0  0  0  0  0  0
  179.2030  174.6030  135.7090 C   0  0  0  0  0  1  0  0  0  0  0  0
  183.1640  178.6890  139.5180 C   0  0  0  0  0  0  0  0  0  0  0  0
  183.0060  180.0250  139.8370 F   0  0  0  0  0  0  0  0  0  0  0  0
  183.9880  178.5870  138.4090 F   0  0  0  0  0  0  0  0  0  0  0  0
  183.7840  178.0480  140.5730 F   0  0  0  0  0  0  0  0  0  0  0  0
  180.6320  178.7690  139.9280 C   0  0  2  0  0  3  0  0  0  0  0  0
  181.1690  181.1630  137.1910 C   0  0  0  0  0  2  0  0  0  0  0  0
  179.6410  182.3440  138.7540 C   0  0  0  0  0  2  0  0  0  0  0  0
  179.9560  179.8640  139.0750 C   0  0  1  0  0  3  0  0  0  0  0  0
  180.3040  182.3340  137.4300 N   0  0  1  0  0  0  0  0  0  0  0  0
  180.1210  181.2450  139.7130 C   0  0  0  0  0  2  0  0  0  0  0  0
  180.5160  179.9050  137.6770 C   0  0  0  0  0  0  0  0  0  0  0  0
  180.4080  178.9480  136.9260 O   0  0  0  0  0  0  0  0  0  0  0  0
  181.1470  183.5210  137.3630 C   0  0  0  0  0  3  0  0  0  0  0  0
  180.2850  184.7640  137.5090 C   0  0  0  0  0  2  0  0  0  0  0  0
  180.7860  184.3530  136.1420 C   0  0  0  0  0  2  0  0  0  0  0  0
  181.0850  179.3010  141.1400 O   0  0  0  0  0  0  0  0  0  0  0  0
  180.4080  178.5810  142.1280 C   0  0  0  0  0  2  0  0  0  0  0  0
  180.9220  178.9910  143.4910 C   0  0  0  0  0  2  0  0  0  0  0  0
  182.4360  178.9830  143.4840 C   0  0  0  0  0  1  0  0  0  0  0  0
  1 14  1  1  0  0  0
  1 18  1  0  0  0  0
  2  7  1  0  0  0  0
  3  1  1  6  0  0  0
  4 12  1  6  0  0  0
  4  7  1  0  0  0  0
  4  6  1  0  0  0  0
  5  3  1  0  0  0  0
  5  9  1  6  0  0  0
  6  5  1  0  0  0  0
  7  8  1  0  0  0  0
  8  3  1  0  0  0  0
  9 10  1  0  0  0  0
 11  9  1  0  0  0  0
 11 10  1  0  0  0  0
 12 13  1  0  0  0  0
 14 15  1  0  0  0  0
 14 17  1  0  0  0  0
 16 14  1  0  0  0  0
 18 29  1  1  0  0  0
 19 22  1  0  0  0  0
 19 24  1  0  0  0  0
 20 23  1  0  0  0  0
 21 23  1  0  0  0  0
 21 18  1  1  0  0  0
 22 26  1  1  0  0  0
 22 20  1  0  0  0  0
 24 21  1  0  0  0  0
 25 24  2  0  0  0  0
 26 27  1  0  0  0  0
 28 26  1  0  0  0  0
 28 27  1  0  0  0  0
 29 30  1  0  0  0  0
 30 31  1  0  0  0  0
 32 31  1  0  0  0  0
M  END
>  <MODEL>
7

>  <REMARK>
 VINA RESULT:      -4.3      3.078      6.775
  Name = 
  10 active torsions:
  status: ('A' for Active; 'I' for Inactive)
    1  A    between atoms: C_1  and  C_4
    2  A    between atoms: C_1  and  O_24
    3  A    between atoms: C_2  and  C_5
    4  A    between atoms: C_5  and  C_10
    5  A    between atoms: C_5  and  C_27
    6  A    between atoms: C_6  and  C_13
    7  A    between atoms: C_7  and  N_19
    8  A    between atoms: O_11  and  C_12
    9  A    between atoms: C_16  and  C_27
   10  A    between atoms: O_24  and  C_27
                            x       y       z     vdW  Elec       q    Type
                         _______ _______ _______ _____ _____    ______ ____

>  <TORSDO>
F 10

$$$$
=
 OpenBabel11052414323D

 32 35  0  0  1  0  0  0  0  0999 V2000
  182.2630  176.9710  137.1300 C   0  0  2  0  0  3  0  0  0  0  0  0
  178.9310  174.6220  135.6210 C   0  0  0  0  0  1  0  0  0  0  0  0
  182.4270  175.6830  136.2870 C   0  0  1  0  0  3  0  0  0  0  0  0
  180.4880  173.6750  137.1340 C   0  0  2  0  0  3  0  0  0  0  0  0
  182.8900  174.4860  137.1320 C   0  0  1  0  0  3  0  0  0  0  0  0
  181.7430  173.9210  137.9780 C   0  0  0  0  0  2  0  0  0  0  0  0
  180.0850  174.9150  136.4570 N   0  0  0  0  0  0  0  0  0  0  0  0
  181.1450  175.3090  135.5310 C   0  0  0  0  0  2  0  0  0  0  0  0
  183.5130  173.4090  136.2510 C   0  0  0  0  0  3  0  0  0  0  0  0
  184.9690  173.2220  136.6320 C   0  0  0  0  0  2  0  0  0  0  0  0
  183.9290  172.2280  137.1040 C   0  0  0  0  0  2  0  0  0  0  0  0
  179.4680  173.2410  137.9860 O   0  0  0  0  0  0  0  0  0  0  0  0
  179.5730  174.0470  139.1210 C   0  0  0  0  0  1  0  0  0  0  0  0
  181.7580  178.1890  136.3320 C   0  0  0  0  0  0  0  0  0  0  0  0
  181.9870  179.3630  137.0260 F   0  0  0  0  0  0  0  0  0  0  0  0
  180.4020  178.0760  136.0770 F   0  0  0  0  0  0  0  0  0  0  0  0
  182.4180  178.2510  135.1200 F   0  0  0  0  0  0  0  0  0  0  0  0
  183.4740  177.3160  138.0300 C   0  0  2  0  0  3  0  0  0  0  0  0
  184.8960  178.8420  141.0560 C   0  0  0  0  0  2  0  0  0  0  0  0
  182.5380  178.3450  141.6640 C   0  0  0  0  0  2  0  0  0  0  0  0
  183.1650  178.2430  139.2250 C   0  0  1  0  0  3  0  0  0  0  0  0
  183.8100  179.0050  142.0420 N   0  0  1  0  0  0  0  0  0  0  0  0
  182.6330  177.4500  140.4200 C   0  0  0  0  0  2  0  0  0  0  0  0
  184.3850  179.0160  139.6590 C   0  0  0  0  0  0  0  0  0  0  0  0
  184.9300  179.8070  138.9060 O   0  0  0  0  0  0  0  0  0  0  0  0
  184.2560  178.3960  143.2880 C   0  0  0  0  0  3  0  0  0  0  0  0
  183.2630  178.7170  144.3930 C   0  0  0  0  0  2  0  0  0  0  0  0
  184.5710  179.4720  144.3150 C   0  0  0  0  0  2  0  0  0  0  0  0
  184.4870  177.8620  137.2330 O   0  0  0  0  0  0  0  0  0  0  0  0
  185.5150  176.9150  137.2540 C   0  0  0  0  0  2  0  0  0  0  0  0
  186.3480  177.0500  135.9990 C   0  0  0  0  0  2  0  0  0  0  0  0
  185.4370  177.1270  134.7920 C   0  0  0  0  0  1  0  0  0  0  0  0
  1 14  1  6  0  0  0
  1 18  1  0  0  0  0
  2  7  1  0  0  0  0
  3  1  1  1  0  0  0
  3  5  1  0  0  0  0
  4  6  1  0  0  0  0
  4 12  1  1  0  0  0
  5  9  1  6  0  0  0
  5  6  1  0  0  0  0
  7  4  1  0  0  0  0
  8  3  1  0  0  0  0
  8  7  1  0  0  0  0
  9 10  1  0  0  0  0
  9 11  1  0  0  0  0
 10 11  1  0  0  0  0
 12 13  1  0  0  0  0
 14 15  1  0  0  0  0
 16 14  1  0  0  0  0
 17 14  1  0  0  0  0
 18 29  1  6  0  0  0
 19 22  1  0  0  0  0
 20 22  1  0  0  0  0
 21 18  1  6  0  0  0
 21 24  1  0  0  0  0
 21 23  1  0  0  0  0
 22 26  1  1  0  0  0
 23 20  1  0  0  0  0
 24 19  1  0  0  0  0
 25 24  2  0  0  0  0
 26 28  1  0  0  0  0
 26 27  1  0  0  0  0
 28 27  1  0  0  0  0
 29 30  1  0  0  0  0
 31 30  1  0  0  0  0
 32 31  1  0  0  0  0
M  END
>  <MODEL>
8

>  <REMARK>
 VINA RESULT:      -4.2      2.924      5.060
  Name = 
  10 active torsions:
  status: ('A' for Active; 'I' for Inactive)
    1  A    between atoms: C_1  and  C_4
    2  A    between atoms: C_1  and  O_24
    3  A    between atoms: C_2  and  C_5
    4  A    between atoms: C_5  and  C_10
    5  A    between atoms: C_5  and  C_27
    6  A    between atoms: C_6  and  C_13
    7  A    between atoms: C_7  and  N_19
    8  A    between atoms: O_11  and  C_12
    9  A    between atoms: C_16  and  C_27
   10  A    between atoms: O_24  and  C_27
                            x       y       z     vdW  Elec       q    Type
                         _______ _______ _______ _____ _____    ______ ____

>  <TORSDO>
F 10

$$$$
=
 OpenBabel11052414323D

 32 35  0  0  1  0  0  0  0  0999 V2000
  189.4500  177.7990  140.2150 C   0  0  2  0  0  3  0  0  0  0  0  0
  190.9380  174.9750  137.2640 C   0  0  0  0  0  1  0  0  0  0  0  0
  188.5380  176.9210  139.3240 C   0  0  1  0  0  3  0  0  0  0  0  0
  189.5930  176.8110  136.6070 C   0  0  2  0  0  3  0  0  0  0  0  0
  187.8560  177.7300  138.2100 C   0  0  1  0  0  3  0  0  0  0  0  0
  188.8350  178.0580  137.0770 C   0  0  0  0  0  2  0  0  0  0  0  0
  190.2860  176.1850  137.7410 N   0  0  0  0  0  0  0  0  0  0  0  0
  189.2880  175.7320  138.7080 C   0  0  0  0  0  2  0  0  0  0  0  0
  186.6260  176.9990  137.6850 C   0  0  0  0  0  3  0  0  0  0  0  0
  185.4010  177.8740  137.8670 C   0  0  0  0  0  2  0  0  0  0  0  0
  186.0490  177.7520  136.5030 C   0  0  0  0  0  2  0  0  0  0  0  0
  190.5190  177.2050  135.6370 O   0  0  0  0  0  0  0  0  0  0  0  0
  189.7560  177.7460  134.6000 C   0  0  0  0  0  1  0  0  0  0  0  0
  190.8540  177.2110  140.4570 C   0  0  0  0  0  0  0  0  0  0  0  0
  191.5160  177.9050  141.4530 F   0  0  0  0  0  0  0  0  0  0  0  0
  191.6100  177.2610  139.2970 F   0  0  0  0  0  0  0  0  0  0  0  0
  190.7400  175.8870  140.8360 F   0  0  0  0  0  0  0  0  0  0  0  0
  188.7900  178.3060  141.5200 C   0  0  2  0  0  3  0  0  0  0  0  0
  187.9710  176.9200  144.8250 C   0  0  0  0  0  2  0  0  0  0  0  0
  190.0230  178.2680  145.2100 C   0  0  0  0  0  2  0  0  0  0  0  0
  189.3950  177.7470  142.8260 C   0  0  1  0  0  3  0  0  0  0  0  0
  189.0490  177.2960  145.7600 N   0  0  1  0  0  0  0  0  0  0  0  0
  189.6300  178.8600  143.8490 C   0  0  0  0  0  2  0  0  0  0  0  0
  188.5090  176.6970  143.4440 C   0  0  0  0  0  0  0  0  0  0  0  0
  188.2620  175.6550  142.8580 O   0  0  0  0  0  0  0  0  0  0  0  0
  188.4250  177.9200  146.9180 C   0  0  0  0  0  3  0  0  0  0  0  0
  189.4250  177.9820  148.0610 C   0  0  0  0  0  2  0  0  0  0  0  0
  188.3410  176.9280  148.0680 C   0  0  0  0  0  2  0  0  0  0  0  0
  187.4170  178.0420  141.4630 O   0  0  0  0  0  0  0  0  0  0  0  0
  186.8050  179.2980  141.5000 C   0  0  0  0  0  2  0  0  0  0  0  0
  185.3090  179.1240  141.6470 C   0  0  0  0  0  2  0  0  0  0  0  0
  185.0180  178.2000  142.8090 C   0  0  0  0  0  1  0  0  0  0  0  0
  1 14  1  1  0  0  0
  1 18  1  0  0  0  0
  2  7  1  0  0  0  0
  3  1  1  6  0  0  0
  4 12  1  6  0  0  0
  4  6  1  0  0  0  0
  4  7  1  0  0  0  0
  5  9  1  6  0  0  0
  5  3  1  0  0  0  0
  6  5  1  0  0  0  0
  7  8  1  0  0  0  0
  8  3  1  0  0  0  0
  9 10  1  0  0  0  0
 11  9  1  0  0  0  0
 11 10  1  0  0  0  0
 13 12  1  0  0  0  0
 14 17  1  0  0  0  0
 14 15  1  0  0  0  0
 16 14  1  0  0  0  0
 18 29  1  6  0  0  0
 19 22  1  0  0  0  0
 20 22  1  0  0  0  0
 21 18  1  6  0  0  0
 21 24  1  0  0  0  0
 21 23  1  0  0  0  0
 22 26  1  1  0  0  0
 23 20  1  0  0  0  0
 24 19  1  0  0  0  0
 25 24  2  0  0  0  0
 26 27  1  0  0  0  0
 26 28  1  0  0  0  0
 27 28  1  0  0  0  0
 29 30  1  0  0  0  0
 30 31  1  0  0  0  0
 31 32  1  0  0  0  0
M  END
>  <MODEL>
9

>  <REMARK>
 VINA RESULT:      -4.1      5.220      8.041
  Name = 
  10 active torsions:
  status: ('A' for Active; 'I' for Inactive)
    1  A    between atoms: C_1  and  C_4
    2  A    between atoms: C_1  and  O_24
    3  A    between atoms: C_2  and  C_5
    4  A    between atoms: C_5  and  C_10
    5  A    between atoms: C_5  and  C_27
    6  A    between atoms: C_6  and  C_13
    7  A    between atoms: C_7  and  N_19
    8  A    between atoms: O_11  and  C_12
    9  A    between atoms: C_16  and  C_27
   10  A    between atoms: O_24  and  C_27
                            x       y       z     vdW  Elec       q    Type
                         _______ _______ _______ _____ _____    ______ ____

>  <TORSDO>
F 10

$$$$
