=
 OpenBabel11052413343D

 28 31  0  0  1  0  0  0  0  0999 V2000
  185.0630  178.4970  142.9410 C   0  0  1  0  0  3  0  0  0  0  0  0
  181.0210  178.8360  138.1610 C   0  0  1  0  0  3  0  0  0  0  0  0
  179.8310  178.6810  143.9680 S   0  0  0  0  0  1  0  0  0  0  0  0
  181.1740  176.7230  139.1970 C   0  0  2  0  0  3  0  0  0  0  0  0
  182.1000  178.7730  140.4600 C   0  0  2  0  0  3  0  0  0  0  0  0
  180.4320  177.7290  137.3060 C   0  0  1  0  0  3  0  0  0  0  0  0
  181.8820  178.0750  139.1110 C   0  0  2  0  0  3  0  0  0  0  0  0
  180.5820  177.0300  141.3810 C   0  0  0  0  0  2  0  0  0  0  0  0
  180.6660  176.4700  137.9090 O   0  0  0  0  0  0  0  0  0  0  0  0
  182.5630  178.5490  143.3810 C   0  0  2  0  0  3  0  0  0  0  0  0
  183.4150  178.2650  141.0520 C   0  0  0  0  0  2  0  0  0  0  0  0
  180.0880  176.7290  140.1040 O   0  0  0  0  0  0  0  0  0  0  0  0
  184.1710  178.6290  145.2880 C   0  0  0  0  0  2  0  0  0  0  0  0
  181.2170  179.0490  142.8360 C   0  0  1  0  0  3  0  0  0  0  0  0
  182.8500  179.1610  144.7520 C   0  0  0  0  0  2  0  0  0  0  0  0
  178.9410  177.9490  137.1250 C   0  0  0  0  0  1  0  0  0  0  0  0
  181.8760  179.7520  137.3070 C   0  0  0  0  0  1  0  0  0  0  0  0
  180.9290  178.5170  141.4210 C   0  0  1  0  0  3  0  0  0  0  0  0
  185.3040  179.0310  144.3530 C   0  0  0  0  0  2  0  0  0  0  0  0
  183.6860  178.9230  142.3990 C   0  0  2  0  0  3  0  0  0  0  0  0
  186.2170  178.9100  142.0160 C   0  0  0  0  0  2  0  0  0  0  0  0
  187.3520  177.9900  142.0920 N   0  0  0  0  0  0  0  0  0  0  0  0
  188.1270  178.6280  139.9790 O   0  0  0  0  0  0  0  0  0  0  0  0
  188.2760  177.8960  140.9970 C   0  0  0  0  0  0  0  0  0  0  0  0
  189.3360  176.9880  141.0560 O   0  0  0  0  0  0  0  0  0  0  0  0
  190.5340  177.1830  140.3210 C   0  0  0  0  0  1  0  0  0  0  0  0
  187.4360  177.0540  143.2070 C   0  0  0  0  0  2  0  0  0  0  0  0
  188.4960  177.5040  144.1960 C   0  0  0  0  0  1  0  0  0  0  0  0
  1 21  1  6  0  0  0
  1 19  1  0  0  0  0
  2 17  1  6  0  0  0
  2  7  1  0  0  0  0
  4  9  1  6  0  0  0
  4 12  1  0  0  0  0
  5 11  1  1  0  0  0
  5 18  1  0  0  0  0
  6 16  1  1  0  0  0
  6  9  1  0  0  0  0
  6  2  1  0  0  0  0
  7  4  1  0  0  0  0
  7  5  1  0  0  0  0
  8 18  1  0  0  0  0
 10 15  1  0  0  0  0
 11 20  1  0  0  0  0
 12  8  1  0  0  0  0
 14 10  1  0  0  0  0
 14  3  1  0  0  0  0
 15 13  1  0  0  0  0
 18 14  1  0  0  0  0
 19 13  1  0  0  0  0
 20  1  1  0  0  0  0
 20 10  1  0  0  0  0
 21 22  1  0  0  0  0
 22 27  1  0  0  0  0
 23 24  2  0  0  0  0
 24 25  1  0  0  0  0
 24 22  1  0  0  0  0
 26 25  1  0  0  0  0
 27 28  1  0  0  0  0
M  END
>  <MODEL>
1

>  <REMARK>
 VINA RESULT:      -6.7      0.000      0.000
  Name = 
  4 active torsions:
  status: ('A' for Active; 'I' for Inactive)
    1  A    between atoms: C_1  and  C_2
    2  A    between atoms: C_2  and  N_3
    3  A    between atoms: N_3  and  C_7
    4  A    between atoms: O_6  and  C_11
                            x       y       z     vdW  Elec       q    Type
                         _______ _______ _______ _____ _____    ______ ____

>  <TORSDO>
F 4

$$$$
=
 OpenBabel11052413343D

 28 31  0  0  1  0  0  0  0  0999 V2000
  184.5400  178.3980  142.9040 C   0  0  1  0  0  3  0  0  0  0  0  0
  183.2220  176.9630  136.9450 C   0  0  1  0  0  3  0  0  0  0  0  0
  179.4530  178.3850  141.2960 S   0  0  0  0  0  1  0  0  0  0  0  0
  182.7560  175.2640  138.5120 C   0  0  2  0  0  3  0  0  0  0  0  0
  183.0980  177.6680  139.3830 C   0  0  2  0  0  3  0  0  0  0  0  0
  183.0400  175.6070  136.2890 C   0  0  1  0  0  3  0  0  0  0  0  0
  183.4960  176.5930  138.3630 C   0  0  2  0  0  3  0  0  0  0  0  0
  181.2320  176.1330  139.9740 C   0  0  0  0  0  2  0  0  0  0  0  0
  182.8950  174.6030  137.2780 O   0  0  0  0  0  0  0  0  0  0  0  0
  182.1300  178.3430  142.1040 C   0  0  2  0  0  3  0  0  0  0  0  0
  183.9540  177.4780  140.6350 C   0  0  0  0  0  2  0  0  0  0  0  0
  181.3750  175.4310  138.7680 O   0  0  0  0  0  0  0  0  0  0  0  0
  182.6640  179.1190  144.4150 C   0  0  0  0  0  2  0  0  0  0  0  0
  181.2250  178.5370  140.8790 C   0  0  1  0  0  3  0  0  0  0  0  0
  181.7780  179.3490  143.1990 C   0  0  0  0  0  2  0  0  0  0  0  0
  181.8210  175.6250  135.3860 C   0  0  0  0  0  1  0  0  0  0  0  0
  184.4260  177.6680  136.3520 C   0  0  0  0  0  1  0  0  0  0  0  0
  181.6020  177.5930  139.7220 C   0  0  1  0  0  3  0  0  0  0  0  0
  184.1230  179.3380  144.0350 C   0  0  0  0  0  2  0  0  0  0  0  0
  183.6010  178.5200  141.6890 C   0  0  2  0  0  3  0  0  0  0  0  0
  186.0120  178.6310  142.5400 C   0  0  0  0  0  2  0  0  0  0  0  0
  186.9070  177.6670  143.1800 N   0  0  0  0  0  0  0  0  0  0  0  0
  188.2440  177.4980  141.2670 O   0  0  0  0  0  0  0  0  0  0  0  0
  188.0190  177.1230  142.4520 C   0  0  0  0  0  0  0  0  0  0  0  0
  188.8480  176.1730  143.0540 O   0  0  0  0  0  0  0  0  0  0  0  0
  190.2230  176.0580  142.7210 C   0  0  0  0  0  1  0  0  0  0  0  0
  186.5610  177.1390  144.4940 C   0  0  0  0  0  2  0  0  0  0  0  0
  187.2320  177.9550  145.5850 C   0  0  0  0  0  1  0  0  0  0  0  0
  1 21  1  6  0  0  0
  1 19  1  0  0  0  0
  2 17  1  6  0  0  0
  2  7  1  0  0  0  0
  4  9  1  6  0  0  0
  4 12  1  0  0  0  0
  5 18  1  0  0  0  0
  5 11  1  1  0  0  0
  6 16  1  6  0  0  0
  6  2  1  0  0  0  0
  6  9  1  0  0  0  0
  7  4  1  0  0  0  0
  7  5  1  0  0  0  0
 10 15  1  0  0  0  0
 11 20  1  0  0  0  0
 12  8  1  0  0  0  0
 14  3  1  0  0  0  0
 14 10  1  0  0  0  0
 15 13  1  0  0  0  0
 18  8  1  0  0  0  0
 18 14  1  0  0  0  0
 19 13  1  0  0  0  0
 20 10  1  0  0  0  0
 20  1  1  0  0  0  0
 21 22  1  0  0  0  0
 22 27  1  0  0  0  0
 23 24  2  0  0  0  0
 24 25  1  0  0  0  0
 24 22  1  0  0  0  0
 26 25  1  0  0  0  0
 27 28  1  0  0  0  0
M  END
>  <MODEL>
2

>  <REMARK>
 VINA RESULT:      -6.6      1.919      2.200
  Name = 
  4 active torsions:
  status: ('A' for Active; 'I' for Inactive)
    1  A    between atoms: C_1  and  C_2
    2  A    between atoms: C_2  and  N_3
    3  A    between atoms: N_3  and  C_7
    4  A    between atoms: O_6  and  C_11
                            x       y       z     vdW  Elec       q    Type
                         _______ _______ _______ _____ _____    ______ ____

>  <TORSDO>
F 4

$$$$
=
 OpenBabel11052413343D

 28 31  0  0  1  0  0  0  0  0999 V2000
  188.3080  177.9060  141.0950 C   0  0  1  0  0  3  0  0  0  0  0  0
  192.1820  175.8750  136.6050 C   0  0  1  0  0  3  0  0  0  0  0  0
  186.4300  177.2420  136.1450 S   0  0  0  0  0  1  0  0  0  0  0  0
  190.6640  174.2670  137.4210 C   0  0  2  0  0  3  0  0  0  0  0  0
  190.1880  176.7540  137.9090 C   0  0  2  0  0  3  0  0  0  0  0  0
  192.5870  174.4600  136.2370 C   0  0  1  0  0  3  0  0  0  0  0  0
  191.2360  175.6480  137.7350 C   0  0  2  0  0  3  0  0  0  0  0  0
  188.5720  175.0870  137.0150 C   0  0  0  0  0  2  0  0  0  0  0  0
  191.7210  173.5280  136.8600 O   0  0  0  0  0  0  0  0  0  0  0  0
  187.4490  177.5400  138.7330 C   0  0  2  0  0  3  0  0  0  0  0  0
  189.7310  176.7530  139.3680 C   0  0  0  0  0  2  0  0  0  0  0  0
  189.6090  174.3100  136.4800 O   0  0  0  0  0  0  0  0  0  0  0  0
  185.9600  178.5480  140.4640 C   0  0  0  0  0  2  0  0  0  0  0  0
  187.8530  177.5420  137.2520 C   0  0  1  0  0  3  0  0  0  0  0  0
  186.3690  178.5880  138.9990 C   0  0  0  0  0  2  0  0  0  0  0  0
  192.5450  174.2810  134.7300 C   0  0  0  0  0  1  0  0  0  0  0  0
  193.3910  176.6510  137.0890 C   0  0  0  0  0  1  0  0  0  0  0  0
  188.9960  176.5530  136.9600 C   0  0  1  0  0  3  0  0  0  0  0  0
  187.1590  178.8850  141.3410 C   0  0  0  0  0  2  0  0  0  0  0  0
  188.6830  177.8340  139.6030 C   0  0  2  0  0  3  0  0  0  0  0  0
  189.5030  178.2590  141.9900 C   0  0  0  0  0  2  0  0  0  0  0  0
  189.7380  177.2590  143.0310 N   0  0  0  0  0  0  0  0  0  0  0  0
  192.0480  177.6310  142.9950 O   0  0  0  0  0  0  0  0  0  0  0  0
  191.0760  176.9870  143.4780 C   0  0  0  0  0  0  0  0  0  0  0  0
  191.3000  176.0030  144.4450 O   0  0  0  0  0  0  0  0  0  0  0  0
  191.7150  176.3260  145.7630 C   0  0  0  0  0  1  0  0  0  0  0  0
  188.6300  176.4270  143.4820 C   0  0  0  0  0  2  0  0  0  0  0  0
  187.9080  177.0910  144.6410 C   0  0  0  0  0  1  0  0  0  0  0  0
  1 19  1  0  0  0  0
  1 21  1  1  0  0  0
  2 17  1  1  0  0  0
  2  7  1  0  0  0  0
  3 14  1  0  0  0  0
  4 12  1  6  0  0  0
  4  7  1  0  0  0  0
  5 11  1  1  0  0  0
  6 16  1  6  0  0  0
  6  2  1  0  0  0  0
  6  9  1  0  0  0  0
  7  5  1  0  0  0  0
  9  4  1  0  0  0  0
 10 15  1  0  0  0  0
 10 20  1  0  0  0  0
 11 20  1  0  0  0  0
 12  8  1  0  0  0  0
 13 19  1  0  0  0  0
 14 10  1  0  0  0  0
 15 13  1  0  0  0  0
 18  8  1  0  0  0  0
 18 14  1  0  0  0  0
 18  5  1  0  0  0  0
 20  1  1  0  0  0  0
 21 22  1  0  0  0  0
 22 24  1  0  0  0  0
 22 27  1  0  0  0  0
 23 24  2  0  0  0  0
 24 25  1  0  0  0  0
 25 26  1  0  0  0  0
 27 28  1  0  0  0  0
M  END
>  <MODEL>
3

>  <REMARK>
 VINA RESULT:      -6.6      5.181      8.123
  Name = 
  4 active torsions:
  status: ('A' for Active; 'I' for Inactive)
    1  A    between atoms: C_1  and  C_2
    2  A    between atoms: C_2  and  N_3
    3  A    between atoms: N_3  and  C_7
    4  A    between atoms: O_6  and  C_11
                            x       y       z     vdW  Elec       q    Type
                         _______ _______ _______ _____ _____    ______ ____

>  <TORSDO>
F 4

$$$$
=
 OpenBabel11052413343D

 28 31  0  0  1  0  0  0  0  0999 V2000
  190.9120  177.2410  138.2850 C   0  0  1  0  0  3  0  0  0  0  0  0
  191.1610  176.0250  144.4290 C   0  0  1  0  0  3  0  0  0  0  0  0
  186.7720  178.5820  141.3710 S   0  0  0  0  0  1  0  0  0  0  0  0
  191.4850  178.2850  143.8410 C   0  0  2  0  0  3  0  0  0  0  0  0
  190.4360  176.7060  142.0920 C   0  0  2  0  0  3  0  0  0  0  0  0
  191.7800  176.8330  145.5560 C   0  0  1  0  0  3  0  0  0  0  0  0
  191.4380  176.8810  143.2400 C   0  0  2  0  0  3  0  0  0  0  0  0
  189.5880  178.9490  142.7560 C   0  0  0  0  0  2  0  0  0  0  0  0
  192.0750  178.1440  145.1110 O   0  0  0  0  0  0  0  0  0  0  0  0
  188.9810  177.8960  139.7980 C   0  0  2  0  0  3  0  0  0  0  0  0
  191.1300  177.1020  140.7890 C   0  0  0  0  0  2  0  0  0  0  0  0
  190.2010  178.8520  144.0140 O   0  0  0  0  0  0  0  0  0  0  0  0
  188.7890  178.1880  137.3270 C   0  0  0  0  0  2  0  0  0  0  0  0
  188.2400  177.5310  141.0930 C   0  0  1  0  0  3  0  0  0  0  0  0
  188.0450  177.7910  138.5940 C   0  0  0  0  0  2  0  0  0  0  0  0
  190.8300  176.8880  146.7390 C   0  0  0  0  0  1  0  0  0  0  0  0
  191.8780  174.6970  144.2900 C   0  0  0  0  0  1  0  0  0  0  0  0
  189.1700  177.5470  142.3190 C   0  0  1  0  0  3  0  0  0  0  0  0
  189.9530  177.2320  137.0940 C   0  0  0  0  0  2  0  0  0  0  0  0
  190.1790  176.9510  139.6070 C   0  0  2  0  0  3  0  0  0  0  0  0
  192.0780  176.2760  138.0290 C   0  0  0  0  0  2  0  0  0  0  0  0
  191.9500  175.5670  136.7570 N   0  0  0  0  0  0  0  0  0  0  0  0
  190.6510  173.8780  137.7230 O   0  0  0  0  0  0  0  0  0  0  0  0
  191.2140  174.3360  136.6900 C   0  0  0  0  0  0  0  0  0  0  0  0
  191.1260  173.6410  135.4810 O   0  0  0  0  0  0  0  0  0  0  0  0
  191.6830  172.3450  135.3170 C   0  0  0  0  0  1  0  0  0  0  0  0
  192.7150  176.0280  135.6050 C   0  0  0  0  0  2  0  0  0  0  0  0
  194.1490  176.3250  136.0070 C   0  0  0  0  0  1  0  0  0  0  0  0
  1 21  1  6  0  0  0
  1 20  1  0  0  0  0
  2 17  1  6  0  0  0
  2  6  1  0  0  0  0
  4 12  1  1  0  0  0
  4  9  1  0  0  0  0
  5 11  1  6  0  0  0
  5 18  1  0  0  0  0
  5  7  1  0  0  0  0
  6 16  1  1  0  0  0
  7  4  1  0  0  0  0
  7  2  1  0  0  0  0
  8 12  1  0  0  0  0
  9  6  1  0  0  0  0
 10 14  1  0  0  0  0
 13 15  1  0  0  0  0
 14  3  1  0  0  0  0
 14 18  1  0  0  0  0
 15 10  1  0  0  0  0
 18  8  1  0  0  0  0
 19 13  1  0  0  0  0
 19  1  1  0  0  0  0
 20 10  1  0  0  0  0
 20 11  1  0  0  0  0
 22 21  1  0  0  0  0
 24 22  1  0  0  0  0
 24 23  2  0  0  0  0
 25 24  1  0  0  0  0
 26 25  1  0  0  0  0
 27 28  1  0  0  0  0
 27 22  1  0  0  0  0
M  END
>  <MODEL>
4

>  <REMARK>
 VINA RESULT:      -6.6      6.336      9.583
  Name = 
  4 active torsions:
  status: ('A' for Active; 'I' for Inactive)
    1  A    between atoms: C_1  and  C_2
    2  A    between atoms: C_2  and  N_3
    3  A    between atoms: N_3  and  C_7
    4  A    between atoms: O_6  and  C_11
                            x       y       z     vdW  Elec       q    Type
                         _______ _______ _______ _____ _____    ______ ____

>  <TORSDO>
F 4

$$$$
=
 OpenBabel11052413343D

 28 31  0  0  1  0  0  0  0  0999 V2000
  188.5840  177.6690  142.9880 C   0  0  1  0  0  3  0  0  0  0  0  0
  187.6630  176.1560  136.9750 C   0  0  1  0  0  3  0  0  0  0  0  0
  192.7660  177.4990  139.6800 S   0  0  0  0  0  1  0  0  0  0  0  0
  188.0500  178.4460  137.3850 C   0  0  2  0  0  3  0  0  0  0  0  0
  188.6790  176.7520  139.2260 C   0  0  2  0  0  3  0  0  0  0  0  0
  187.2510  177.0300  135.8050 C   0  0  1  0  0  3  0  0  0  0  0  0
  187.7140  177.1370  138.0970 C   0  0  2  0  0  3  0  0  0  0  0  0
  190.1130  178.5890  138.3540 C   0  0  0  0  0  2  0  0  0  0  0  0
  187.3780  178.3980  136.1490 O   0  0  0  0  0  0  0  0  0  0  0  0
  190.5400  177.6120  141.3700 C   0  0  2  0  0  3  0  0  0  0  0  0
  188.2030  177.4260  140.5120 C   0  0  0  0  0  2  0  0  0  0  0  0
  189.4330  178.5910  137.1270 O   0  0  0  0  0  0  0  0  0  0  0  0
  190.9400  178.0060  143.8010 C   0  0  0  0  0  2  0  0  0  0  0  0
  191.0700  176.9540  140.0870 C   0  0  1  0  0  3  0  0  0  0  0  0
  191.4650  177.3190  142.5500 C   0  0  0  0  0  2  0  0  0  0  0  0
  188.1100  176.7180  134.5940 C   0  0  0  0  0  1  0  0  0  0  0  0
  186.5960  175.1140  137.2450 C   0  0  0  0  0  1  0  0  0  0  0  0
  190.1230  177.1600  138.8920 C   0  0  1  0  0  3  0  0  0  0  0  0
  189.5600  177.4590  144.1460 C   0  0  0  0  0  2  0  0  0  0  0  0
  189.1280  177.0820  141.6730 C   0  0  2  0  0  3  0  0  0  0  0  0
  187.2010  177.1150  143.3570 C   0  0  0  0  0  2  0  0  0  0  0  0
  186.2460  178.1710  143.6920 N   0  0  0  0  0  0  0  0  0  0  0  0
  186.1540  177.5030  145.9330 O   0  0  0  0  0  0  0  0  0  0  0  0
  185.7470  178.2900  145.0340 C   0  0  0  0  0  0  0  0  0  0  0  0
  184.8050  179.2750  145.3410 O   0  0  0  0  0  0  0  0  0  0  0  0
  183.4120  179.0590  145.1800 C   0  0  0  0  0  1  0  0  0  0  0  0
  185.6790  178.9830  142.6230 C   0  0  0  0  0  2  0  0  0  0  0  0
  184.5810  178.2200  141.9040 C   0  0  0  0  0  1  0  0  0  0  0  0
  1 21  1  1  0  0  0
  1 19  1  0  0  0  0
  2 17  1  1  0  0  0
  2  7  1  0  0  0  0
  3 14  1  0  0  0  0
  4  9  1  6  0  0  0
  4  7  1  0  0  0  0
  5 11  1  1  0  0  0
  6 16  1  6  0  0  0
  6  9  1  0  0  0  0
  6  2  1  0  0  0  0
  7  5  1  0  0  0  0
  8 18  1  0  0  0  0
 10 20  1  0  0  0  0
 10 15  1  0  0  0  0
 11 20  1  0  0  0  0
 12  4  1  0  0  0  0
 12  8  1  0  0  0  0
 13 19  1  0  0  0  0
 14 10  1  0  0  0  0
 15 13  1  0  0  0  0
 18  5  1  0  0  0  0
 18 14  1  0  0  0  0
 20  1  1  0  0  0  0
 21 22  1  0  0  0  0
 22 24  1  0  0  0  0
 24 25  1  0  0  0  0
 24 23  2  0  0  0  0
 26 25  1  0  0  0  0
 27 22  1  0  0  0  0
 28 27  1  0  0  0  0
M  END
>  <MODEL>
5

>  <REMARK>
 VINA RESULT:      -6.6      4.544      7.399
  Name = 
  4 active torsions:
  status: ('A' for Active; 'I' for Inactive)
    1  A    between atoms: C_1  and  C_2
    2  A    between atoms: C_2  and  N_3
    3  A    between atoms: N_3  and  C_7
    4  A    between atoms: O_6  and  C_11
                            x       y       z     vdW  Elec       q    Type
                         _______ _______ _______ _____ _____    ______ ____

>  <TORSDO>
F 4

$$$$
=
 OpenBabel11052413343D

 28 31  0  0  1  0  0  0  0  0999 V2000
  184.4240  178.4900  142.0910 C   0  0  1  0  0  3  0  0  0  0  0  0
  187.7590  178.3420  136.7840 C   0  0  1  0  0  3  0  0  0  0  0  0
  181.8780  177.9460  137.4340 S   0  0  0  0  0  1  0  0  0  0  0  0
  186.9320  176.2560  137.5070 C   0  0  2  0  0  3  0  0  0  0  0  0
  185.8920  178.3940  138.5070 C   0  0  2  0  0  3  0  0  0  0  0  0
  188.4590  177.1780  136.1080 C   0  0  1  0  0  3  0  0  0  0  0  0
  187.1500  177.6920  137.9800 C   0  0  2  0  0  3  0  0  0  0  0  0
  184.6570  176.4490  137.5690 C   0  0  0  0  0  2  0  0  0  0  0  0
  188.0220  175.9540  136.6700 O   0  0  0  0  0  0  0  0  0  0  0  0
  183.2570  178.1960  139.8540 C   0  0  2  0  0  3  0  0  0  0  0  0
  185.7460  178.0630  139.9920 C   0  0  0  0  0  2  0  0  0  0  0  0
  185.7440  176.1010  136.7550 O   0  0  0  0  0  0  0  0  0  0  0  0
  181.9140  178.4660  141.9390 C   0  0  0  0  0  2  0  0  0  0  0  0
  183.3500  178.5150  138.3550 C   0  0  1  0  0  3  0  0  0  0  0  0
  182.0030  178.8220  140.4630 C   0  0  0  0  0  2  0  0  0  0  0  0
  188.1760  177.1950  134.6170 C   0  0  0  0  0  1  0  0  0  0  0  0
  188.7770  179.3780  137.2190 C   0  0  0  0  0  1  0  0  0  0  0  0
  184.6420  177.9680  137.7220 C   0  0  1  0  0  3  0  0  0  0  0  0
  183.1200  179.0330  142.6780 C   0  0  0  0  0  2  0  0  0  0  0  0
  184.5070  178.7330  140.5720 C   0  0  2  0  0  3  0  0  0  0  0  0
  185.6260  179.0690  142.8490 C   0  0  0  0  0  2  0  0  0  0  0  0
  186.1570  178.1410  143.8480 N   0  0  0  0  0  0  0  0  0  0  0  0
  185.1230  179.2920  145.6020 O   0  0  0  0  0  0  0  0  0  0  0  0
  185.8640  178.3360  145.2400 C   0  0  0  0  0  0  0  0  0  0  0  0
  186.4060  177.4710  146.1940 O   0  0  0  0  0  0  0  0  0  0  0  0
  187.4410  177.8780  147.0750 C   0  0  0  0  0  1  0  0  0  0  0  0
  187.1200  177.1270  143.4350 C   0  0  0  0  0  2  0  0  0  0  0  0
  188.2670  177.7670  142.6720 C   0  0  0  0  0  1  0  0  0  0  0  0
  1 19  1  0  0  0  0
  1 21  1  1  0  0  0
  2 17  1  1  0  0  0
  2  7  1  0  0  0  0
  3 14  1  0  0  0  0
  4  9  1  6  0  0  0
  4  7  1  0  0  0  0
  5 11  1  1  0  0  0
  6 16  1  6  0  0  0
  6  9  1  0  0  0  0
  6  2  1  0  0  0  0
  7  5  1  0  0  0  0
  8 18  1  0  0  0  0
 10 15  1  0  0  0  0
 10 20  1  0  0  0  0
 11 20  1  0  0  0  0
 12  4  1  0  0  0  0
 12  8  1  0  0  0  0
 13 19  1  0  0  0  0
 14 10  1  0  0  0  0
 15 13  1  0  0  0  0
 18 14  1  0  0  0  0
 18  5  1  0  0  0  0
 20  1  1  0  0  0  0
 21 22  1  0  0  0  0
 22 24  1  0  0  0  0
 24 23  2  0  0  0  0
 24 25  1  0  0  0  0
 25 26  1  0  0  0  0
 27 22  1  0  0  0  0
 28 27  1  0  0  0  0
M  END
>  <MODEL>
6

>  <REMARK>
 VINA RESULT:      -6.5      3.548      5.347
  Name = 
  4 active torsions:
  status: ('A' for Active; 'I' for Inactive)
    1  A    between atoms: C_1  and  C_2
    2  A    between atoms: C_2  and  N_3
    3  A    between atoms: N_3  and  C_7
    4  A    between atoms: O_6  and  C_11
                            x       y       z     vdW  Elec       q    Type
                         _______ _______ _______ _____ _____    ______ ____

>  <TORSDO>
F 4

$$$$
=
 OpenBabel11052413343D

 28 31  0  0  1  0  0  0  0  0999 V2000
  184.8860  178.9530  142.2380 C   0  0  1  0  0  3  0  0  0  0  0  0
  190.1390  176.0470  144.0460 C   0  0  1  0  0  3  0  0  0  0  0  0
  185.6170  177.8850  147.4140 S   0  0  0  0  0  1  0  0  0  0  0  0
  190.0610  178.3580  144.5100 C   0  0  2  0  0  3  0  0  0  0  0  0
  187.8510  177.1480  143.9590 C   0  0  2  0  0  3  0  0  0  0  0  0
  191.5090  176.6200  144.3570 C   0  0  1  0  0  3  0  0  0  0  0  0
  189.3580  177.2700  143.7000 C   0  0  2  0  0  3  0  0  0  0  0  0
  188.2590  178.6830  145.8740 C   0  0  0  0  0  2  0  0  0  0  0  0
  191.4290  178.0270  144.4970 O   0  0  0  0  0  0  0  0  0  0  0  0
  185.2940  178.4580  144.6960 C   0  0  2  0  0  3  0  0  0  0  0  0
  187.1260  178.1250  143.0340 C   0  0  0  0  0  2  0  0  0  0  0  0
  189.6330  178.4030  145.8570 O   0  0  0  0  0  0  0  0  0  0  0  0
  183.1130  179.4210  143.9590 C   0  0  0  0  0  2  0  0  0  0  0  0
  185.9910  177.4960  145.6680 C   0  0  1  0  0  3  0  0  0  0  0  0
  183.7800  178.4380  144.9080 C   0  0  0  0  0  2  0  0  0  0  0  0
  192.0550  176.0030  145.6320 C   0  0  0  0  0  1  0  0  0  0  0  0
  190.2220  175.1280  142.8440 C   0  0  0  0  0  1  0  0  0  0  0  0
  187.5100  177.4280  145.4310 C   0  0  1  0  0  3  0  0  0  0  0  0
  183.3840  179.0070  142.5180 C   0  0  0  0  0  2  0  0  0  0  0  0
  185.6200  178.0520  143.2490 C   0  0  2  0  0  3  0  0  0  0  0  0
  185.1380  178.5390  140.7830 C   0  0  0  0  0  2  0  0  0  0  0  0
  183.9000  178.4180  140.0130 N   0  0  0  0  0  0  0  0  0  0  0  0
  184.1810  180.5340  139.0540 O   0  0  0  0  0  0  0  0  0  0  0  0
  183.4740  179.4940  139.1620 C   0  0  0  0  0  0  0  0  0  0  0  0
  182.2710  179.3910  138.4580 O   0  0  0  0  0  0  0  0  0  0  0  0
  181.5050  180.5330  138.1090 C   0  0  0  0  0  1  0  0  0  0  0  0
  183.0240  177.2770  140.2490 C   0  0  0  0  0  2  0  0  0  0  0  0
  183.0840  176.3130  139.0760 C   0  0  0  0  0  1  0  0  0  0  0  0
  1 21  1  6  0  0  0
  1 19  1  0  0  0  0
  1 20  1  0  0  0  0
  2 17  1  6  0  0  0
  2  6  1  0  0  0  0
  4  9  1  1  0  0  0
  4 12  1  0  0  0  0
  5 11  1  6  0  0  0
  5 18  1  0  0  0  0
  6  9  1  0  0  0  0
  6 16  1  1  0  0  0
  7  5  1  0  0  0  0
  7  2  1  0  0  0  0
  7  4  1  0  0  0  0
 10 15  1  0  0  0  0
 10 14  1  0  0  0  0
 11 20  1  0  0  0  0
 12  8  1  0  0  0  0
 13 15  1  0  0  0  0
 14  3  1  0  0  0  0
 18 14  1  0  0  0  0
 18  8  1  0  0  0  0
 19 13  1  0  0  0  0
 20 10  1  0  0  0  0
 22 27  1  0  0  0  0
 22 21  1  0  0  0  0
 23 24  2  0  0  0  0
 24 22  1  0  0  0  0
 25 24  1  0  0  0  0
 26 25  1  0  0  0  0
 28 27  1  0  0  0  0
M  END
>  <MODEL>
7

>  <REMARK>
 VINA RESULT:      -6.5      2.757      7.958
  Name = 
  4 active torsions:
  status: ('A' for Active; 'I' for Inactive)
    1  A    between atoms: C_1  and  C_2
    2  A    between atoms: C_2  and  N_3
    3  A    between atoms: N_3  and  C_7
    4  A    between atoms: O_6  and  C_11
                            x       y       z     vdW  Elec       q    Type
                         _______ _______ _______ _____ _____    ______ ____

>  <TORSDO>
F 4

$$$$
=
 OpenBabel11052413343D

 28 31  0  0  1  0  0  0  0  0999 V2000
  184.3790  178.5020  141.7830 C   0  0  1  0  0  3  0  0  0  0  0  0
  188.1300  178.2660  136.7660 C   0  0  1  0  0  3  0  0  0  0  0  0
  182.2450  177.5750  136.9820 S   0  0  0  0  0  1  0  0  0  0  0  0
  187.3570  176.1770  137.5390 C   0  0  2  0  0  3  0  0  0  0  0  0
  186.1320  178.3030  138.3340 C   0  0  2  0  0  3  0  0  0  0  0  0
  188.9410  177.1090  136.2120 C   0  0  1  0  0  3  0  0  0  0  0  0
  187.4630  177.6460  137.9460 C   0  0  2  0  0  3  0  0  0  0  0  0
  185.0780  176.2450  137.4150 C   0  0  0  0  0  2  0  0  0  0  0  0
  188.5250  175.8930  136.8060 O   0  0  0  0  0  0  0  0  0  0  0  0
  183.4120  178.0270  139.4830 C   0  0  2  0  0  3  0  0  0  0  0  0
  185.8850  178.0410  139.8190 C   0  0  0  0  0  2  0  0  0  0  0  0
  186.2430  175.9160  136.7070 O   0  0  0  0  0  0  0  0  0  0  0  0
  181.8940  178.3300  141.4410 C   0  0  0  0  0  2  0  0  0  0  0  0
  183.6070  178.2730  137.9800 C   0  0  1  0  0  3  0  0  0  0  0  0
  182.0820  178.6130  139.9580 C   0  0  0  0  0  2  0  0  0  0  0  0
  188.7770  177.0320  134.7050 C   0  0  0  0  0  1  0  0  0  0  0  0
  189.0550  179.3780  137.2180 C   0  0  0  0  0  1  0  0  0  0  0  0
  184.9720  177.7670  137.4800 C   0  0  1  0  0  3  0  0  0  0  0  0
  183.0060  179.0000  142.2370 C   0  0  0  0  0  2  0  0  0  0  0  0
  184.5700  178.6700  140.2640 C   0  0  2  0  0  3  0  0  0  0  0  0
  185.4850  179.1860  142.5980 C   0  0  0  0  0  2  0  0  0  0  0  0
  186.0520  178.3070  143.6210 N   0  0  0  0  0  0  0  0  0  0  0  0
  187.9070  177.8010  142.2880 O   0  0  0  0  0  0  0  0  0  0  0  0
  187.2900  177.6230  143.3750 C   0  0  0  0  0  0  0  0  0  0  0  0
  187.8090  176.7530  144.3380 O   0  0  0  0  0  0  0  0  0  0  0  0
  188.8340  177.1510  145.2350 C   0  0  0  0  0  1  0  0  0  0  0  0
  185.2670  178.0000  144.8100 C   0  0  0  0  0  2  0  0  0  0  0  0
  185.5630  179.0030  145.9120 C   0  0  0  0  0  1  0  0  0  0  0  0
  1 19  1  0  0  0  0
  1 21  1  1  0  0  0
  2 17  1  1  0  0  0
  2  7  1  0  0  0  0
  3 14  1  0  0  0  0
  4 12  1  6  0  0  0
  4  7  1  0  0  0  0
  5 11  1  1  0  0  0
  6 16  1  6  0  0  0
  6  2  1  0  0  0  0
  6  9  1  0  0  0  0
  7  5  1  0  0  0  0
  8 18  1  0  0  0  0
  9  4  1  0  0  0  0
 10 15  1  0  0  0  0
 10 20  1  0  0  0  0
 11 20  1  0  0  0  0
 12  8  1  0  0  0  0
 13 19  1  0  0  0  0
 14 10  1  0  0  0  0
 15 13  1  0  0  0  0
 18 14  1  0  0  0  0
 18  5  1  0  0  0  0
 20  1  1  0  0  0  0
 21 22  1  0  0  0  0
 22 27  1  0  0  0  0
 23 24  2  0  0  0  0
 24 22  1  0  0  0  0
 24 25  1  0  0  0  0
 25 26  1  0  0  0  0
 27 28  1  0  0  0  0
M  END
>  <MODEL>
8

>  <REMARK>
 VINA RESULT:      -6.3      3.248      5.378
  Name = 
  4 active torsions:
  status: ('A' for Active; 'I' for Inactive)
    1  A    between atoms: C_1  and  C_2
    2  A    between atoms: C_2  and  N_3
    3  A    between atoms: N_3  and  C_7
    4  A    between atoms: O_6  and  C_11
                            x       y       z     vdW  Elec       q    Type
                         _______ _______ _______ _____ _____    ______ ____

>  <TORSDO>
F 4

$$$$
=
 OpenBabel11052413343D

 28 31  0  0  1  0  0  0  0  0999 V2000
  184.2450  178.5260  142.8050 C   0  0  1  0  0  3  0  0  0  0  0  0
  186.0600  178.1960  136.8140 C   0  0  1  0  0  3  0  0  0  0  0  0
  180.5480  178.6200  138.9600 S   0  0  0  0  0  1  0  0  0  0  0  0
  185.1320  176.2140  137.6910 C   0  0  2  0  0  3  0  0  0  0  0  0
  184.7230  178.4210  138.9620 C   0  0  2  0  0  3  0  0  0  0  0  0
  186.3770  176.9820  135.9600 C   0  0  1  0  0  3  0  0  0  0  0  0
  185.6820  177.5740  138.1160 C   0  0  2  0  0  3  0  0  0  0  0  0
  183.0050  176.7300  138.3450 C   0  0  0  0  0  2  0  0  0  0  0  0
  185.9130  175.8050  136.5950 O   0  0  0  0  0  0  0  0  0  0  0  0
  182.5180  178.5300  140.9440 C   0  0  2  0  0  3  0  0  0  0  0  0
  184.9090  178.0310  140.4290 C   0  0  0  0  0  2  0  0  0  0  0  0
  183.7830  176.2750  137.2700 O   0  0  0  0  0  0  0  0  0  0  0  0
  181.8060  178.8750  143.3100 C   0  0  0  0  0  2  0  0  0  0  0  0
  182.2750  178.9170  139.4770 C   0  0  1  0  0  3  0  0  0  0  0  0
  181.5720  179.2960  141.8670 C   0  0  0  0  0  2  0  0  0  0  0  0
  185.7310  177.1240  134.5940 C   0  0  0  0  0  1  0  0  0  0  0  0
  187.3020  179.0470  136.9870 C   0  0  0  0  0  1  0  0  0  0  0  0
  183.2640  178.2250  138.5220 C   0  0  1  0  0  3  0  0  0  0  0  0
  183.2330  179.2180  143.7200 C   0  0  0  0  0  2  0  0  0  0  0  0
  183.9760  178.8390  141.3220 C   0  0  2  0  0  3  0  0  0  0  0  0
  185.6740  178.8810  143.2360 C   0  0  0  0  0  2  0  0  0  0  0  0
  186.1950  177.9690  144.2540 N   0  0  0  0  0  0  0  0  0  0  0  0
  185.6130  179.4260  145.9900 O   0  0  0  0  0  0  0  0  0  0  0  0
  186.1390  178.3320  145.6420 C   0  0  0  0  0  0  0  0  0  0  0  0
  186.6730  177.4750  146.6090 O   0  0  0  0  0  0  0  0  0  0  0  0
  187.8090  177.8300  147.3810 C   0  0  0  0  0  1  0  0  0  0  0  0
  186.9220  176.7770  143.8360 C   0  0  0  0  0  2  0  0  0  0  0  0
  187.9790  177.1360  142.8060 C   0  0  0  0  0  1  0  0  0  0  0  0
  1 21  1  1  0  0  0
  1 19  1  0  0  0  0
  2 17  1  1  0  0  0
  2  7  1  0  0  0  0
  3 14  1  0  0  0  0
  4  9  1  6  0  0  0
  4  7  1  0  0  0  0
  5 11  1  1  0  0  0
  6 16  1  6  0  0  0
  6  9  1  0  0  0  0
  6  2  1  0  0  0  0
  7  5  1  0  0  0  0
  8 18  1  0  0  0  0
 10 20  1  0  0  0  0
 10 15  1  0  0  0  0
 11 20  1  0  0  0  0
 12  4  1  0  0  0  0
 12  8  1  0  0  0  0
 13 19  1  0  0  0  0
 14 10  1  0  0  0  0
 15 13  1  0  0  0  0
 18  5  1  0  0  0  0
 18 14  1  0  0  0  0
 20  1  1  0  0  0  0
 21 22  1  0  0  0  0
 22 24  1  0  0  0  0
 24 23  2  0  0  0  0
 24 25  1  0  0  0  0
 25 26  1  0  0  0  0
 27 22  1  0  0  0  0
 28 27  1  0  0  0  0
M  END
>  <MODEL>
9

>  <REMARK>
 VINA RESULT:      -6.1      3.331      4.315
  Name = 
  4 active torsions:
  status: ('A' for Active; 'I' for Inactive)
    1  A    between atoms: C_1  and  C_2
    2  A    between atoms: C_2  and  N_3
    3  A    between atoms: N_3  and  C_7
    4  A    between atoms: O_6  and  C_11
                            x       y       z     vdW  Elec       q    Type
                         _______ _______ _______ _____ _____    ______ ____

>  <TORSDO>
F 4

$$$$
