=
 OpenBabel11052413573D

 34 38  0  0  1  0  0  0  0  0999 V2000
  189.6890  177.2400  137.6510 C   0  0  0  0  0  0  0  0  0  0  0  0
  191.1180  177.1760  139.5810 C   0  0  0  0  0  0  0  0  0  0  0  0
  188.9650  178.1460  139.9530 C   0  0  0  0  0  2  0  0  0  0  0  0
  191.2620  177.5500  141.3080 S   0  0  0  0  0  0  0  0  0  0  0  0
  190.7010  176.5810  136.9140 C   0  0  0  0  0  0  0  0  0  0  0  0
  192.0730  176.5190  138.8800 N   0  0  0  0  0  0  0  0  0  0  0  0
  191.9100  176.2050  137.5660 C   0  0  0  0  0  0  0  0  0  0  0  0
  189.4490  177.7820  141.3580 C   0  0  2  0  0  3  0  0  0  0  0  0
  189.9250  177.5210  139.0050 C   0  0  0  0  0  0  0  0  0  0  0  0
  187.6820  178.6650  137.6570 N   0  0  0  0  0  2  0  0  0  0  0  0
  187.3650  176.4210  136.8310 C   0  0  1  0  0  3  0  0  0  0  0  0
  186.3200  178.3150  137.7550 C   0  0  0  0  0  0  0  0  0  0  0  0
  185.9980  176.9790  137.2130 C   0  0  0  0  0  2  0  0  0  0  0  0
  188.3740  177.5830  136.9860 C   0  0  2  0  0  3  0  0  0  0  0  0
  185.4640  179.0780  138.2720 O   0  0  0  0  0  0  0  0  0  0  0  0
  187.6670  175.3420  137.6620 O   0  0  0  0  0  1  0  0  0  0  0  0
  194.2640  173.4380  136.4270 C   0  0  0  0  0  0  0  0  0  0  0  0
  195.1790  174.1640  135.6670 C   0  0  0  0  0  3  0  0  0  0  0  0
  193.0150  175.4760  136.8890 C   0  0  0  0  0  0  0  0  0  0  0  0
  195.0230  175.5430  135.5200 C   0  0  0  0  0  3  0  0  0  0  0  0
  193.1920  174.0920  137.0400 C   0  0  0  0  0  3  0  0  0  0  0  0
  193.9500  176.1950  136.1320 C   0  0  0  0  0  3  0  0  0  0  0  0
  194.4240  172.0690  136.5830 O   0  0  0  0  0  1  0  0  0  0  0  0
  190.1450  174.9040  135.1880 C   0  0  0  0  0  1  0  0  0  0  0  0
  190.5050  176.3500  135.4450 C   0  0  0  0  0  2  0  0  0  0  0  0
  188.8500  176.5890  141.7570 O   0  0  0  0  0  0  0  0  0  0  0  0
  189.6010  176.1510  142.8500 C   0  0  0  0  0  2  0  0  0  0  0  0
  190.6670  176.6510  145.7500 O   0  0  0  0  0  1  0  0  0  0  0  0
  188.8830  176.4780  144.1530 C   0  0  1  0  0  3  0  0  0  0  0  0
  189.7330  177.4050  145.0360 C   0  0  1  0  0  3  0  0  0  0  0  0
  187.6060  177.5500  146.3970 C   0  0  0  0  0  2  0  0  0  0  0  0
  186.7160  177.2860  145.1730 C   0  0  0  0  0  2  0  0  0  0  0  0
  187.5040  177.0750  143.8750 C   0  0  0  0  0  2  0  0  0  0  0  0
  188.9020  178.2540  146.0070 C   0  0  0  0  0  2  0  0  0  0  0  0
  1  9  1  0  0  0  0
  2  4  1  0  0  0  0
  3  8  1  0  0  0  0
  4  8  1  0  0  0  0
  5  7  1  0  0  0  0
  5  1  2  0  0  0  0
  6  2  1  0  0  0  0
  7  6  2  0  0  0  0
  8 26  1  6  0  0  0
  9  2  2  0  0  0  0
  9  3  1  0  0  0  0
 10 12  1  0  0  0  0
 11 14  1  0  0  0  0
 11 13  1  0  0  0  0
 11 16  1  1  0  0  0
 12 15  2  0  0  0  0
 13 12  1  0  0  0  0
 14  1  1  1  0  0  0
 14 10  1  0  0  0  0
 17 23  1  0  0  0  0
 17 21  1  0  0  0  0
 18 17  2  0  0  0  0
 19 21  2  0  0  0  0
 19  7  1  0  0  0  0
 20 18  1  0  0  0  0
 20 22  2  0  0  0  0
 22 19  1  0  0  0  0
 24 25  1  0  0  0  0
 25  5  1  0  0  0  0
 26 27  1  0  0  0  0
 29 27  1  6  0  0  0
 29 30  1  0  0  0  0
 30 28  1  1  0  0  0
 30 34  1  0  0  0  0
 32 31  1  0  0  0  0
 33 29  1  0  0  0  0
 33 32  1  0  0  0  0
 34 31  1  0  0  0  0
M  END
>  <MODEL>
1

>  <REMARK>
 VINA RESULT:      -8.0      0.000      0.000
  Name = 
  6 active torsions:
  status: ('A' for Active; 'I' for Inactive)
    1  A    between atoms: C_3  and  C_13
    2  A    between atoms: C_3  and  O_17
    3  A    between atoms: C_4  and  C_15
    4  A    between atoms: C_12  and  C_28
    5  A    between atoms: O_17  and  C_29
    6  A    between atoms: C_21  and  C_32
                            x       y       z     vdW  Elec       q    Type
                         _______ _______ _______ _____ _____    ______ ____

>  <TORSDO>
F 6

$$$$
=
 OpenBabel11052413573D

 34 38  0  0  1  0  0  0  0  0999 V2000
  188.9730  176.9040  138.6810 C   0  0  0  0  0  0  0  0  0  0  0  0
  190.6170  177.2980  140.3860 C   0  0  0  0  0  0  0  0  0  0  0  0
  188.3960  177.9770  140.9520 C   0  0  0  0  0  2  0  0  0  0  0  0
  190.9070  177.9060  142.0270 S   0  0  0  0  0  0  0  0  0  0  0  0
  189.9830  176.3150  137.8820 C   0  0  0  0  0  0  0  0  0  0  0  0
  191.5750  176.7070  139.6320 N   0  0  0  0  0  0  0  0  0  0  0  0
  191.3070  176.2090  138.3940 C   0  0  0  0  0  0  0  0  0  0  0  0
  189.1010  177.8700  142.3060 C   0  0  2  0  0  3  0  0  0  0  0  0
  189.3230  177.3860  139.9510 C   0  0  0  0  0  0  0  0  0  0  0  0
  187.2450  175.8820  137.2560 N   0  0  0  0  0  2  0  0  0  0  0  0
  187.1200  178.2800  137.4900 C   0  0  1  0  0  3  0  0  0  0  0  0
  186.5240  176.4240  136.1720 C   0  0  0  0  0  0  0  0  0  0  0  0
  186.3280  177.8860  136.2480 C   0  0  0  0  0  2  0  0  0  0  0  0
  187.5480  176.9610  138.1750 C   0  0  2  0  0  3  0  0  0  0  0  0
  186.1000  175.7150  135.2240 O   0  0  0  0  0  0  0  0  0  0  0  0
  188.2130  179.0570  137.1070 O   0  0  0  0  0  1  0  0  0  0  0  0
  194.4690  175.7070  136.3350 C   0  0  0  0  0  0  0  0  0  0  0  0
  194.4620  174.3230  136.1710 C   0  0  0  0  0  3  0  0  0  0  0  0
  192.4250  175.5730  137.6510 C   0  0  0  0  0  0  0  0  0  0  0  0
  193.4400  173.5600  136.7370 C   0  0  0  0  0  3  0  0  0  0  0  0
  193.4530  176.3290  137.0650 C   0  0  0  0  0  3  0  0  0  0  0  0
  192.4250  174.1830  137.4670 C   0  0  0  0  0  3  0  0  0  0  0  0
  195.4790  176.4670  135.7650 O   0  0  0  0  0  1  0  0  0  0  0  0
  190.1520  176.8880  135.4860 C   0  0  0  0  0  1  0  0  0  0  0  0
  189.6490  175.8740  136.4880 C   0  0  0  0  0  2  0  0  0  0  0  0
  188.7600  176.6610  142.9090 O   0  0  0  0  0  0  0  0  0  0  0  0
  187.6790  176.9610  143.7420 C   0  0  0  0  0  2  0  0  0  0  0  0
  186.2820  178.7610  145.8860 O   0  0  0  0  0  1  0  0  0  0  0  0
  188.1720  177.5310  145.0660 C   0  0  1  0  0  3  0  0  0  0  0  0
  187.0340  177.6040  146.0950 C   0  0  1  0  0  3  0  0  0  0  0  0
  188.9230  178.1470  147.6880 C   0  0  0  0  0  2  0  0  0  0  0  0
  189.9490  177.3640  146.8560 C   0  0  0  0  0  2  0  0  0  0  0  0
  189.3570  176.7240  145.5940 C   0  0  0  0  0  2  0  0  0  0  0  0
  187.5210  177.5580  147.5490 C   0  0  0  0  0  2  0  0  0  0  0  0
  1  9  1  0  0  0  0
  2  4  1  0  0  0  0
  3  8  1  0  0  0  0
  4  8  1  0  0  0  0
  5  7  1  0  0  0  0
  5  1  2  0  0  0  0
  6  2  1  0  0  0  0
  7  6  2  0  0  0  0
  8 26  1  6  0  0  0
  9  2  2  0  0  0  0
  9  3  1  0  0  0  0
 10 14  1  0  0  0  0
 11 16  1  6  0  0  0
 11 14  1  0  0  0  0
 12 13  1  0  0  0  0
 12 10  1  0  0  0  0
 13 11  1  0  0  0  0
 14  1  1  6  0  0  0
 15 12  2  0  0  0  0
 17 21  1  0  0  0  0
 18 17  2  0  0  0  0
 18 20  1  0  0  0  0
 19  7  1  0  0  0  0
 20 22  2  0  0  0  0
 21 19  2  0  0  0  0
 22 19  1  0  0  0  0
 23 17  1  0  0  0  0
 24 25  1  0  0  0  0
 25  5  1  0  0  0  0
 26 27  1  0  0  0  0
 29 27  1  6  0  0  0
 29 33  1  0  0  0  0
 29 30  1  0  0  0  0
 30 28  1  1  0  0  0
 30 34  1  0  0  0  0
 32 31  1  0  0  0  0
 33 32  1  0  0  0  0
 34 31  1  0  0  0  0
M  END
>  <MODEL>
2

>  <REMARK>
 VINA RESULT:      -7.9      1.741      2.383
  Name = 
  6 active torsions:
  status: ('A' for Active; 'I' for Inactive)
    1  A    between atoms: C_3  and  C_13
    2  A    between atoms: C_3  and  O_17
    3  A    between atoms: C_4  and  C_15
    4  A    between atoms: C_12  and  C_28
    5  A    between atoms: O_17  and  C_29
    6  A    between atoms: C_21  and  C_32
                            x       y       z     vdW  Elec       q    Type
                         _______ _______ _______ _____ _____    ______ ____

>  <TORSDO>
F 6

$$$$
=
 OpenBabel11052413573D

 34 38  0  0  1  0  0  0  0  0999 V2000
  184.6200  178.1460  138.4620 C   0  0  0  0  0  0  0  0  0  0  0  0
  186.6650  178.3590  139.7040 C   0  0  0  0  0  0  0  0  0  0  0  0
  184.7220  179.2100  140.8070 C   0  0  0  0  0  2  0  0  0  0  0  0
  187.4050  178.9010  141.2220 S   0  0  0  0  0  0  0  0  0  0  0  0
  185.3440  177.4920  137.4360 C   0  0  0  0  0  0  0  0  0  0  0  0
  187.3490  177.7060  138.7340 N   0  0  0  0  0  0  0  0  0  0  0  0
  186.7400  177.2620  137.6020 C   0  0  0  0  0  0  0  0  0  0  0  0
  185.7290  179.0120  141.9420 C   0  0  2  0  0  3  0  0  0  0  0  0
  185.3160  178.5670  139.6060 C   0  0  0  0  0  0  0  0  0  0  0  0
  182.6770  179.5990  138.8760 N   0  0  0  0  0  2  0  0  0  0  0  0
  182.2400  177.2270  138.9430 C   0  0  1  0  0  3  0  0  0  0  0  0
  181.5050  179.3570  139.6220 C   0  0  0  0  0  0  0  0  0  0  0  0
  181.1030  177.9360  139.6720 C   0  0  0  0  0  2  0  0  0  0  0  0
  183.1250  178.3350  138.3270 C   0  0  2  0  0  3  0  0  0  0  0  0
  180.8720  180.2780  140.1980 O   0  0  0  0  0  0  0  0  0  0  0  0
  182.9400  176.4330  139.8510 O   0  0  0  0  0  1  0  0  0  0  0  0
  188.6710  174.5400  135.7710 C   0  0  0  0  0  0  0  0  0  0  0  0
  189.2510  175.2740  134.7390 C   0  0  0  0  0  3  0  0  0  0  0  0
  187.5780  176.5500  136.6020 C   0  0  0  0  0  0  0  0  0  0  0  0
  189.0050  176.6440  134.6360 C   0  0  0  0  0  3  0  0  0  0  0  0
  187.8450  175.1750  136.7010 C   0  0  0  0  0  3  0  0  0  0  0  0
  188.1780  177.2780  135.5650 C   0  0  0  0  0  3  0  0  0  0  0  0
  188.9230  173.1800  135.8800 O   0  0  0  0  0  1  0  0  0  0  0  0
  184.2040  175.6650  136.2260 C   0  0  0  0  0  1  0  0  0  0  0  0
  184.6380  177.1130  136.1690 C   0  0  0  0  0  2  0  0  0  0  0  0
  185.4420  177.8230  142.6100 O   0  0  0  0  0  0  0  0  0  0  0  0
  185.1120  178.2060  143.9120 C   0  0  0  0  0  2  0  0  0  0  0  0
  185.6620  179.4750  146.7190 O   0  0  0  0  0  1  0  0  0  0  0  0
  186.3540  178.2220  144.7920 C   0  0  1  0  0  3  0  0  0  0  0  0
  185.9780  178.1870  146.2810 C   0  0  1  0  0  3  0  0  0  0  0  0
  188.4630  177.8210  146.5840 C   0  0  0  0  0  2  0  0  0  0  0  0
  188.6080  177.1550  145.2080 C   0  0  0  0  0  2  0  0  0  0  0  0
  187.2930  177.0740  144.4230 C   0  0  0  0  0  2  0  0  0  0  0  0
  187.0740  177.5910  147.1750 C   0  0  0  0  0  2  0  0  0  0  0  0
  1  9  1  0  0  0  0
  2  4  1  0  0  0  0
  3  8  1  0  0  0  0
  4  8  1  0  0  0  0
  5  7  1  0  0  0  0
  5  1  2  0  0  0  0
  6  2  1  0  0  0  0
  7  6  2  0  0  0  0
  8 26  1  6  0  0  0
  9  2  2  0  0  0  0
  9  3  1  0  0  0  0
 10 12  1  0  0  0  0
 11 13  1  0  0  0  0
 11 16  1  1  0  0  0
 12 13  1  0  0  0  0
 12 15  2  0  0  0  0
 14  1  1  1  0  0  0
 14 10  1  0  0  0  0
 14 11  1  0  0  0  0
 17 23  1  0  0  0  0
 17 21  1  0  0  0  0
 18 17  2  0  0  0  0
 19 21  2  0  0  0  0
 19  7  1  0  0  0  0
 20 18  1  0  0  0  0
 20 22  2  0  0  0  0
 22 19  1  0  0  0  0
 25 24  1  0  0  0  0
 25  5  1  0  0  0  0
 26 27  1  0  0  0  0
 29 27  1  6  0  0  0
 29 30  1  0  0  0  0
 30 28  1  1  0  0  0
 30 34  1  0  0  0  0
 31 34  1  0  0  0  0
 32 31  1  0  0  0  0
 33 29  1  0  0  0  0
 33 32  1  0  0  0  0
M  END
>  <MODEL>
3

>  <REMARK>
 VINA RESULT:      -7.6      3.502      4.924
  Name = 
  6 active torsions:
  status: ('A' for Active; 'I' for Inactive)
    1  A    between atoms: C_3  and  C_13
    2  A    between atoms: C_3  and  O_17
    3  A    between atoms: C_4  and  C_15
    4  A    between atoms: C_12  and  C_28
    5  A    between atoms: O_17  and  C_29
    6  A    between atoms: C_21  and  C_32
                            x       y       z     vdW  Elec       q    Type
                         _______ _______ _______ _____ _____    ______ ____

>  <TORSDO>
F 6

$$$$
=
 OpenBabel11052413573D

 34 38  0  0  1  0  0  0  0  0999 V2000
  191.8000  175.6650  136.8310 C   0  0  0  0  0  0  0  0  0  0  0  0
  192.7690  176.5880  138.8250 C   0  0  0  0  0  0  0  0  0  0  0  0
  190.4560  177.0960  138.5000 C   0  0  0  0  0  2  0  0  0  0  0  0
  192.4720  177.5440  140.2900 S   0  0  0  0  0  0  0  0  0  0  0  0
  193.0430  175.0520  136.5440 C   0  0  0  0  0  0  0  0  0  0  0  0
  193.9490  175.9760  138.5630 N   0  0  0  0  0  0  0  0  0  0  0  0
  194.1280  175.2100  137.4520 C   0  0  0  0  0  0  0  0  0  0  0  0
  190.6790  177.3500  139.9930 C   0  0  2  0  0  3  0  0  0  0  0  0
  191.6880  176.4310  138.0010 C   0  0  0  0  0  0  0  0  0  0  0  0
  189.7520  176.6060  135.8410 N   0  0  0  0  0  2  0  0  0  0  0  0
  189.7290  174.2230  136.2180 C   0  0  1  0  0  3  0  0  0  0  0  0
  188.4180  176.1530  135.9100 C   0  0  0  0  0  0  0  0  0  0  0  0
  188.2840  174.6910  136.0730 C   0  0  0  0  0  2  0  0  0  0  0  0
  190.6210  175.4480  135.9080 C   0  0  2  0  0  3  0  0  0  0  0  0
  187.4370  176.9370  135.8490 O   0  0  0  0  0  0  0  0  0  0  0  0
  189.9250  173.7390  137.5110 O   0  0  0  0  0  1  0  0  0  0  0  0
  197.7090  174.5650  136.3360 C   0  0  0  0  0  0  0  0  0  0  0  0
  197.9190  173.2850  136.8440 C   0  0  0  0  0  3  0  0  0  0  0  0
  195.4570  174.5750  137.2610 C   0  0  0  0  0  0  0  0  0  0  0  0
  196.9040  172.6420  137.5540 C   0  0  0  0  0  3  0  0  0  0  0  0
  196.4830  175.2040  136.5380 C   0  0  0  0  0  3  0  0  0  0  0  0
  195.6790  173.2820  137.7550 C   0  0  0  0  0  3  0  0  0  0  0  0
  198.7150  175.2010  135.6230 O   0  0  0  0  0  1  0  0  0  0  0  0
  192.9690  172.8250  135.4770 C   0  0  0  0  0  1  0  0  0  0  0  0
  193.2090  174.3020  135.2560 C   0  0  0  0  0  2  0  0  0  0  0  0
  190.2150  176.2550  140.7200 O   0  0  0  0  0  0  0  0  0  0  0  0
  190.8950  176.3120  141.9390 C   0  0  0  0  0  2  0  0  0  0  0  0
  191.3190  176.7700  145.0050 O   0  0  0  0  0  1  0  0  0  0  0  0
  189.9090  176.4370  143.0920 C   0  0  1  0  0  3  0  0  0  0  0  0
  190.4210  177.4200  144.1560 C   0  0  1  0  0  3  0  0  0  0  0  0
  188.0870  177.1480  145.0910 C   0  0  0  0  0  2  0  0  0  0  0  0
  187.4900  176.8360  143.7110 C   0  0  0  0  0  2  0  0  0  0  0  0
  188.5250  176.8360  142.5800 C   0  0  0  0  0  2  0  0  0  0  0  0
  189.3020  178.0660  144.9820 C   0  0  0  0  0  2  0  0  0  0  0  0
  1  9  1  0  0  0  0
  2  4  1  0  0  0  0
  3  8  1  0  0  0  0
  5  1  2  0  0  0  0
  5  7  1  0  0  0  0
  6  2  1  0  0  0  0
  7  6  2  0  0  0  0
  8  4  1  0  0  0  0
  8 26  1  1  0  0  0
  9  3  1  0  0  0  0
  9  2  2  0  0  0  0
 10 14  1  0  0  0  0
 10 12  1  0  0  0  0
 11 16  1  1  0  0  0
 12 13  1  0  0  0  0
 13 11  1  0  0  0  0
 14 11  1  0  0  0  0
 14  1  1  1  0  0  0
 15 12  2  0  0  0  0
 17 21  2  0  0  0  0
 17 18  1  0  0  0  0
 18 20  2  0  0  0  0
 19  7  1  0  0  0  0
 19 22  2  0  0  0  0
 20 22  1  0  0  0  0
 21 19  1  0  0  0  0
 23 17  1  0  0  0  0
 25 24  1  0  0  0  0
 25  5  1  0  0  0  0
 26 27  1  0  0  0  0
 29 27  1  6  0  0  0
 29 30  1  0  0  0  0
 30 34  1  0  0  0  0
 30 28  1  1  0  0  0
 32 31  1  0  0  0  0
 33 29  1  0  0  0  0
 33 32  1  0  0  0  0
 34 31  1  0  0  0  0
M  END
>  <MODEL>
4

>  <REMARK>
 VINA RESULT:      -7.5      1.959      2.818
  Name = 
  6 active torsions:
  status: ('A' for Active; 'I' for Inactive)
    1  A    between atoms: C_3  and  C_13
    2  A    between atoms: C_3  and  O_17
    3  A    between atoms: C_4  and  C_15
    4  A    between atoms: C_12  and  C_28
    5  A    between atoms: O_17  and  C_29
    6  A    between atoms: C_21  and  C_32
                            x       y       z     vdW  Elec       q    Type
                         _______ _______ _______ _____ _____    ______ ____

>  <TORSDO>
F 6

$$$$
=
 OpenBabel11052413573D

 34 38  0  0  1  0  0  0  0  0999 V2000
  187.8890  178.1310  142.1080 C   0  0  0  0  0  0  0  0  0  0  0  0
  188.2160  178.2930  139.7330 C   0  0  0  0  0  0  0  0  0  0  0  0
  190.2020  177.8800  140.9990 C   0  0  0  0  0  2  0  0  0  0  0  0
  189.3920  178.2080  138.4090 S   0  0  0  0  0  0  0  0  0  0  0  0
  186.5000  178.3100  141.9000 C   0  0  0  0  0  0  0  0  0  0  0  0
  186.8830  178.4350  139.5360 N   0  0  0  0  0  0  0  0  0  0  0  0
  186.0020  178.4490  140.5740 C   0  0  0  0  0  0  0  0  0  0  0  0
  190.5790  177.4540  139.5780 C   0  0  2  0  0  3  0  0  0  0  0  0
  188.7340  178.1170  140.9880 C   0  0  0  0  0  0  0  0  0  0  0  0
  189.6660  178.6190  143.7390 N   0  0  0  0  0  2  0  0  0  0  0  0
  188.6390  176.4450  143.9340 C   0  0  1  0  0  3  0  0  0  0  0  0
  190.5390  177.7450  144.4200 C   0  0  0  0  0  0  0  0  0  0  0  0
  189.9820  176.3970  144.6560 C   0  0  0  0  0  2  0  0  0  0  0  0
  188.4210  177.9150  143.5070 C   0  0  2  0  0  3  0  0  0  0  0  0
  191.6930  178.0910  144.7800 O   0  0  0  0  0  0  0  0  0  0  0  0
  188.6750  175.5760  142.8430 O   0  0  0  0  0  1  0  0  0  0  0  0
  182.7240  179.7790  139.1690 C   0  0  0  0  0  0  0  0  0  0  0  0
  181.8100  178.9040  139.7530 C   0  0  0  0  0  3  0  0  0  0  0  0
  184.5600  178.6020  140.2510 C   0  0  0  0  0  0  0  0  0  0  0  0
  182.2620  177.8820  140.5900 C   0  0  0  0  0  3  0  0  0  0  0  0
  184.0900  179.6330  139.4220 C   0  0  0  0  0  3  0  0  0  0  0  0
  183.6280  177.7360  140.8410 C   0  0  0  0  0  3  0  0  0  0  0  0
  182.2750  180.8000  138.3450 O   0  0  0  0  0  1  0  0  0  0  0  0
  185.3050  179.8690  143.3980 C   0  0  0  0  0  1  0  0  0  0  0  0
  185.5910  178.4160  143.0880 C   0  0  0  0  0  2  0  0  0  0  0  0
  190.4970  176.0670  139.4760 O   0  0  0  0  0  0  0  0  0  0  0  0
  190.5750  175.7970  138.1080 C   0  0  0  0  0  2  0  0  0  0  0  0
  190.8830  173.1500  136.4680 O   0  0  0  0  0  1  0  0  0  0  0  0
  191.7860  174.9250  137.8070 C   0  0  1  0  0  3  0  0  0  0  0  0
  191.6820  174.2940  136.4100 C   0  0  1  0  0  3  0  0  0  0  0  0
  194.0780  173.6270  136.8690 C   0  0  0  0  0  2  0  0  0  0  0  0
  194.3120  174.8260  137.7990 C   0  0  0  0  0  2  0  0  0  0  0  0
  193.0800  175.7220  137.9680 C   0  0  0  0  0  2  0  0  0  0  0  0
  193.0420  173.9450  135.7940 C   0  0  0  0  0  2  0  0  0  0  0  0
  2  9  1  0  0  0  0
  4  8  1  0  0  0  0
  4  2  1  0  0  0  0
  5  1  1  0  0  0  0
  5 25  1  0  0  0  0
  6  2  2  0  0  0  0
  6  7  1  0  0  0  0
  7  5  2  0  0  0  0
  8 26  1  1  0  0  0
  8  3  1  0  0  0  0
  9  3  1  0  0  0  0
  9  1  2  0  0  0  0
 10 12  1  0  0  0  0
 11 16  1  6  0  0  0
 11 13  1  0  0  0  0
 12 13  1  0  0  0  0
 12 15  2  0  0  0  0
 14  1  1  6  0  0  0
 14 10  1  0  0  0  0
 14 11  1  0  0  0  0
 17 21  2  0  0  0  0
 17 18  1  0  0  0  0
 18 20  2  0  0  0  0
 19  7  1  0  0  0  0
 19 22  2  0  0  0  0
 20 22  1  0  0  0  0
 21 19  1  0  0  0  0
 23 17  1  0  0  0  0
 25 24  1  0  0  0  0
 27 26  1  0  0  0  0
 29 33  1  0  0  0  0
 29 27  1  6  0  0  0
 30 28  1  1  0  0  0
 30 29  1  0  0  0  0
 31 32  1  0  0  0  0
 32 33  1  0  0  0  0
 34 30  1  0  0  0  0
 34 31  1  0  0  0  0
M  END
>  <MODEL>
5

>  <REMARK>
 VINA RESULT:      -7.4      2.702      8.866
  Name = 
  6 active torsions:
  status: ('A' for Active; 'I' for Inactive)
    1  A    between atoms: C_3  and  C_13
    2  A    between atoms: C_3  and  O_17
    3  A    between atoms: C_4  and  C_15
    4  A    between atoms: C_12  and  C_28
    5  A    between atoms: O_17  and  C_29
    6  A    between atoms: C_21  and  C_32
                            x       y       z     vdW  Elec       q    Type
                         _______ _______ _______ _____ _____    ______ ____

>  <TORSDO>
F 6

$$$$
=
 OpenBabel11052413573D

 34 38  0  0  1  0  0  0  0  0999 V2000
  189.1930  177.6600  142.2750 C   0  0  0  0  0  0  0  0  0  0  0  0
  188.2690  178.2630  140.1420 C   0  0  0  0  0  0  0  0  0  0  0  0
  190.5340  177.5000  140.0800 C   0  0  0  0  0  2  0  0  0  0  0  0
  188.5650  178.3720  138.3970 S   0  0  0  0  0  0  0  0  0  0  0  0
  187.9430  177.9540  142.8690 C   0  0  0  0  0  0  0  0  0  0  0  0
  187.0650  178.5170  140.7090 N   0  0  0  0  0  0  0  0  0  0  0  0
  186.8590  178.3770  142.0470 C   0  0  0  0  0  0  0  0  0  0  0  0
  190.0540  177.3390  138.6350 C   0  0  2  0  0  3  0  0  0  0  0  0
  189.3270  177.8170  140.8870 C   0  0  0  0  0  0  0  0  0  0  0  0
  189.8640  176.4300  144.2990 N   0  0  0  0  0  2  0  0  0  0  0  0
  191.3510  178.2010  143.6130 C   0  0  1  0  0  3  0  0  0  0  0  0
  190.6380  176.8490  145.4010 C   0  0  0  0  0  0  0  0  0  0  0  0
  191.6360  177.8890  145.0790 C   0  0  0  0  0  2  0  0  0  0  0  0
  190.3310  177.1450  143.1290 C   0  0  2  0  0  3  0  0  0  0  0  0
  190.4760  176.3770  146.5560 O   0  0  0  0  0  0  0  0  0  0  0  0
  190.8570  179.5020  143.5110 O   0  0  0  0  0  1  0  0  0  0  0  0
  183.0740  178.6290  142.3650 C   0  0  0  0  0  0  0  0  0  0  0  0
  182.9540  179.3420  143.5560 C   0  0  0  0  0  3  0  0  0  0  0  0
  185.5000  178.6720  142.5700 C   0  0  0  0  0  0  0  0  0  0  0  0
  184.0990  179.7280  144.2540 C   0  0  0  0  0  3  0  0  0  0  0  0
  184.3400  178.3010  141.8710 C   0  0  0  0  0  3  0  0  0  0  0  0
  185.3640  179.3990  143.7600 C   0  0  0  0  0  3  0  0  0  0  0  0
  181.9370  178.2530  141.6650 O   0  0  0  0  0  1  0  0  0  0  0  0
  186.8720  176.7490  144.7410 C   0  0  0  0  0  1  0  0  0  0  0  0
  187.8050  177.8780  144.3610 C   0  0  0  0  0  2  0  0  0  0  0  0
  189.7220  176.0050  138.4060 O   0  0  0  0  0  0  0  0  0  0  0  0
  190.9440  175.3310  138.3440 C   0  0  0  0  0  2  0  0  0  0  0  0
  193.5560  177.0070  137.9520 O   0  0  0  0  0  1  0  0  0  0  0  0
  191.7110  175.7360  137.0930 C   0  0  1  0  0  3  0  0  0  0  0  0
  193.2230  175.7870  137.3620 C   0  0  1  0  0  3  0  0  0  0  0  0
  193.3510  176.0450  134.8490 C   0  0  0  0  0  2  0  0  0  0  0  0
  192.0390  175.2770  134.6290 C   0  0  0  0  0  2  0  0  0  0  0  0
  191.3790  174.8040  135.9290 C   0  0  0  0  0  2  0  0  0  0  0  0
  194.0750  175.5690  136.1060 C   0  0  0  0  0  2  0  0  0  0  0  0
  1  5  1  0  0  0  0
  2  6  2  0  0  0  0
  2  9  1  0  0  0  0
  3  9  1  0  0  0  0
  4  8  1  0  0  0  0
  4  2  1  0  0  0  0
  5 25  1  0  0  0  0
  6  7  1  0  0  0  0
  7 19  1  0  0  0  0
  7  5  2  0  0  0  0
  8 26  1  1  0  0  0
  8  3  1  0  0  0  0
  9  1  2  0  0  0  0
 10 12  1  0  0  0  0
 11 16  1  1  0  0  0
 11 13  1  0  0  0  0
 12 15  2  0  0  0  0
 13 12  1  0  0  0  0
 14  1  1  1  0  0  0
 14 11  1  0  0  0  0
 14 10  1  0  0  0  0
 17 18  1  0  0  0  0
 18 20  2  0  0  0  0
 19 22  2  0  0  0  0
 21 17  2  0  0  0  0
 21 19  1  0  0  0  0
 22 20  1  0  0  0  0
 23 17  1  0  0  0  0
 25 24  1  0  0  0  0
 27 26  1  0  0  0  0
 29 30  1  0  0  0  0
 29 27  1  1  0  0  0
 30 28  1  6  0  0  0
 31 34  1  0  0  0  0
 32 31  1  0  0  0  0
 32 33  1  0  0  0  0
 33 29  1  0  0  0  0
 34 30  1  0  0  0  0
M  END
>  <MODEL>
6

>  <REMARK>
 VINA RESULT:      -7.1      2.744      9.180
  Name = 
  6 active torsions:
  status: ('A' for Active; 'I' for Inactive)
    1  A    between atoms: C_3  and  C_13
    2  A    between atoms: C_3  and  O_17
    3  A    between atoms: C_4  and  C_15
    4  A    between atoms: C_12  and  C_28
    5  A    between atoms: O_17  and  C_29
    6  A    between atoms: C_21  and  C_32
                            x       y       z     vdW  Elec       q    Type
                         _______ _______ _______ _____ _____    ______ ____

>  <TORSDO>
F 6

$$$$
=
 OpenBabel11052413573D

 34 38  0  0  1  0  0  0  0  0999 V2000
  187.9040  177.8780  143.0340 C   0  0  0  0  0  0  0  0  0  0  0  0
  187.6600  178.4230  140.7080 C   0  0  0  0  0  0  0  0  0  0  0  0
  189.9000  177.9660  141.4060 C   0  0  0  0  0  2  0  0  0  0  0  0
  188.4950  178.6270  139.1570 S   0  0  0  0  0  0  0  0  0  0  0  0
  186.5000  177.9870  143.1790 C   0  0  0  0  0  0  0  0  0  0  0  0
  186.3140  178.4980  140.8430 N   0  0  0  0  0  0  0  0  0  0  0  0
  185.7010  178.2900  142.0400 C   0  0  0  0  0  0  0  0  0  0  0  0
  189.9480  177.7900  139.8860 C   0  0  2  0  0  3  0  0  0  0  0  0
  188.4640  178.0960  141.7660 C   0  0  0  0  0  0  0  0  0  0  0  0
  189.7990  178.4590  144.4940 N   0  0  0  0  0  2  0  0  0  0  0  0
  189.4310  176.1000  144.1510 C   0  0  1  0  0  3  0  0  0  0  0  0
  190.9900  177.7530  144.7600 C   0  0  0  0  0  0  0  0  0  0  0  0
  190.8620  176.2860  144.6460 C   0  0  0  0  0  2  0  0  0  0  0  0
  188.7570  177.4900  144.2220 C   0  0  2  0  0  3  0  0  0  0  0  0
  192.0650  178.3350  145.0570 O   0  0  0  0  0  0  0  0  0  0  0  0
  189.4600  175.5900  142.8530 O   0  0  0  0  0  1  0  0  0  0  0  0
  182.0340  178.2210  141.0190 C   0  0  0  0  0  0  0  0  0  0  0  0
  181.4250  178.6820  142.1840 C   0  0  0  0  0  3  0  0  0  0  0  0
  184.2190  178.3870  142.0810 C   0  0  0  0  0  0  0  0  0  0  0  0
  182.2050  179.0030  143.2960 C   0  0  0  0  0  3  0  0  0  0  0  0
  183.4230  178.0800  140.9650 C   0  0  0  0  0  3  0  0  0  0  0  0
  183.5930  178.8610  143.2420 C   0  0  0  0  0  3  0  0  0  0  0  0
  181.2620  177.9110  139.9090 O   0  0  0  0  0  1  0  0  0  0  0  0
  185.9870  179.1530  145.2940 C   0  0  0  0  0  1  0  0  0  0  0  0
  185.8920  177.8440  144.5420 C   0  0  0  0  0  2  0  0  0  0  0  0
  189.8920  176.4330  139.5780 O   0  0  0  0  0  0  0  0  0  0  0  0
  190.2300  176.3520  138.2250 C   0  0  0  0  0  2  0  0  0  0  0  0
  190.3830  173.3930  137.2180 O   0  0  0  0  0  1  0  0  0  0  0  0
  191.4070  175.4070  138.0270 C   0  0  1  0  0  3  0  0  0  0  0  0
  191.1750  174.4750  136.8280 C   0  0  1  0  0  3  0  0  0  0  0  0
  193.6020  173.8770  137.2140 C   0  0  0  0  0  2  0  0  0  0  0  0
  193.9220  175.2520  137.8180 C   0  0  0  0  0  2  0  0  0  0  0  0
  192.7110  176.1910  137.8840 C   0  0  0  0  0  2  0  0  0  0  0  0
  192.4730  173.9630  136.1910 C   0  0  0  0  0  2  0  0  0  0  0  0
  1  5  1  0  0  0  0
  2  6  2  0  0  0  0
  2  9  1  0  0  0  0
  3  9  1  0  0  0  0
  4  8  1  0  0  0  0
  4  2  1  0  0  0  0
  5 25  1  0  0  0  0
  6  7  1  0  0  0  0
  7 19  1  0  0  0  0
  7  5  2  0  0  0  0
  8 26  1  1  0  0  0
  8  3  1  0  0  0  0
  9  1  2  0  0  0  0
 10 12  1  0  0  0  0
 11 16  1  6  0  0  0
 11 14  1  0  0  0  0
 11 13  1  0  0  0  0
 12 15  2  0  0  0  0
 13 12  1  0  0  0  0
 14  1  1  6  0  0  0
 14 10  1  0  0  0  0
 17 18  1  0  0  0  0
 18 20  2  0  0  0  0
 19 22  2  0  0  0  0
 21 17  2  0  0  0  0
 21 19  1  0  0  0  0
 22 20  1  0  0  0  0
 23 17  1  0  0  0  0
 25 24  1  0  0  0  0
 27 26  1  0  0  0  0
 29 27  1  6  0  0  0
 30 28  1  1  0  0  0
 30 29  1  0  0  0  0
 31 32  1  0  0  0  0
 32 33  1  0  0  0  0
 33 29  1  0  0  0  0
 34 30  1  0  0  0  0
 34 31  1  0  0  0  0
M  END
>  <MODEL>
7

>  <REMARK>
 VINA RESULT:      -7.1      2.952      9.220
  Name = 
  6 active torsions:
  status: ('A' for Active; 'I' for Inactive)
    1  A    between atoms: C_3  and  C_13
    2  A    between atoms: C_3  and  O_17
    3  A    between atoms: C_4  and  C_15
    4  A    between atoms: C_12  and  C_28
    5  A    between atoms: O_17  and  C_29
    6  A    between atoms: C_21  and  C_32
                            x       y       z     vdW  Elec       q    Type
                         _______ _______ _______ _____ _____    ______ ____

>  <TORSDO>
F 6

$$$$
=
 OpenBabel11052413573D

 34 38  0  0  1  0  0  0  0  0999 V2000
  188.3940  177.4580  143.4060 C   0  0  0  0  0  0  0  0  0  0  0  0
  188.1490  178.2870  141.1650 C   0  0  0  0  0  0  0  0  0  0  0  0
  190.3470  177.5310  141.7250 C   0  0  0  0  0  2  0  0  0  0  0  0
  188.9620  178.5810  139.6160 S   0  0  0  0  0  0  0  0  0  0  0  0
  187.0130  177.6900  143.6130 C   0  0  0  0  0  0  0  0  0  0  0  0
  186.8220  178.4800  141.3570 N   0  0  0  0  0  0  0  0  0  0  0  0
  186.2210  178.2000  142.5450 C   0  0  0  0  0  0  0  0  0  0  0  0
  190.3380  177.5260  140.1950 C   0  0  2  0  0  3  0  0  0  0  0  0
  188.9410  177.7620  142.1500 C   0  0  0  0  0  0  0  0  0  0  0  0
  188.4530  176.5610  145.6970 N   0  0  0  0  0  2  0  0  0  0  0  0
  190.4620  177.6760  144.9610 C   0  0  1  0  0  3  0  0  0  0  0  0
  189.1950  176.9840  146.8190 C   0  0  0  0  0  0  0  0  0  0  0  0
  190.4850  177.6230  146.4860 C   0  0  0  0  0  2  0  0  0  0  0  0
  189.2320  176.8540  144.5110 C   0  0  2  0  0  3  0  0  0  0  0  0
  188.7800  176.8350  147.9970 O   0  0  0  0  0  0  0  0  0  0  0  0
  190.3890  179.0070  144.5510 O   0  0  0  0  0  1  0  0  0  0  0  0
  182.5330  178.5530  141.6700 C   0  0  0  0  0  0  0  0  0  0  0  0
  182.0140  179.0010  142.8830 C   0  0  0  0  0  3  0  0  0  0  0  0
  184.7580  178.4390  142.6510 C   0  0  0  0  0  0  0  0  0  0  0  0
  182.8590  179.1760  143.9790 C   0  0  0  0  0  3  0  0  0  0  0  0
  183.8990  178.2800  141.5530 C   0  0  0  0  0  3  0  0  0  0  0  0
  184.2240  178.9010  143.8620 C   0  0  0  0  0  3  0  0  0  0  0  0
  181.6960  178.3880  140.5770 O   0  0  0  0  0  1  0  0  0  0  0  0
  186.3770  178.7520  145.7510 C   0  0  0  0  0  1  0  0  0  0  0  0
  186.4280  177.4550  144.9740 C   0  0  0  0  0  2  0  0  0  0  0  0
  190.1340  176.2250  139.7400 O   0  0  0  0  0  0  0  0  0  0  0  0
  190.3740  176.2760  138.3650 C   0  0  0  0  0  2  0  0  0  0  0  0
  190.1880  173.3680  137.2270 O   0  0  0  0  0  1  0  0  0  0  0  0
  191.4470  175.2690  137.9760 C   0  0  1  0  0  3  0  0  0  0  0  0
  190.9970  174.4150  136.7810 C   0  0  1  0  0  3  0  0  0  0  0  0
  193.4060  173.6430  136.8190 C   0  0  0  0  0  2  0  0  0  0  0  0
  193.8970  174.9630  137.4320 C   0  0  0  0  0  2  0  0  0  0  0  0
  192.7740  175.9730  137.6950 C   0  0  0  0  0  2  0  0  0  0  0  0
  192.1640  173.8530  135.9570 C   0  0  0  0  0  2  0  0  0  0  0  0
  1  5  1  0  0  0  0
  2  6  2  0  0  0  0
  2  9  1  0  0  0  0
  3  9  1  0  0  0  0
  4  8  1  0  0  0  0
  4  2  1  0  0  0  0
  5 25  1  0  0  0  0
  6  7  1  0  0  0  0
  7 19  1  0  0  0  0
  7  5  2  0  0  0  0
  8 26  1  1  0  0  0
  8  3  1  0  0  0  0
  9  1  2  0  0  0  0
 10 12  1  0  0  0  0
 11 16  1  1  0  0  0
 11 13  1  0  0  0  0
 12 15  2  0  0  0  0
 13 12  1  0  0  0  0
 14  1  1  6  0  0  0
 14 11  1  0  0  0  0
 14 10  1  0  0  0  0
 17 18  1  0  0  0  0
 18 20  2  0  0  0  0
 19 22  2  0  0  0  0
 21 17  2  0  0  0  0
 21 19  1  0  0  0  0
 22 20  1  0  0  0  0
 23 17  1  0  0  0  0
 25 24  1  0  0  0  0
 27 26  1  0  0  0  0
 29 27  1  6  0  0  0
 30 28  1  1  0  0  0
 30 29  1  0  0  0  0
 31 32  1  0  0  0  0
 32 33  1  0  0  0  0
 33 29  1  0  0  0  0
 34 30  1  0  0  0  0
 34 31  1  0  0  0  0
M  END
>  <MODEL>
8

>  <REMARK>
 VINA RESULT:      -7.1      2.911      9.460
  Name = 
  6 active torsions:
  status: ('A' for Active; 'I' for Inactive)
    1  A    between atoms: C_3  and  C_13
    2  A    between atoms: C_3  and  O_17
    3  A    between atoms: C_4  and  C_15
    4  A    between atoms: C_12  and  C_28
    5  A    between atoms: O_17  and  C_29
    6  A    between atoms: C_21  and  C_32
                            x       y       z     vdW  Elec       q    Type
                         _______ _______ _______ _____ _____    ______ ____

>  <TORSDO>
F 6

$$$$
=
 OpenBabel11052413573D

 34 38  0  0  1  0  0  0  0  0999 V2000
  189.2950  177.6360  142.2590 C   0  0  0  0  0  0  0  0  0  0  0  0
  188.3650  178.1780  140.1120 C   0  0  0  0  0  0  0  0  0  0  0  0
  190.6490  177.4750  140.0730 C   0  0  0  0  0  2  0  0  0  0  0  0
  188.6660  178.2640  138.3660 S   0  0  0  0  0  0  0  0  0  0  0  0
  188.0340  177.9070  142.8430 C   0  0  0  0  0  0  0  0  0  0  0  0
  187.1510  178.4080  140.6700 N   0  0  0  0  0  0  0  0  0  0  0  0
  186.9430  178.2860  142.0090 C   0  0  0  0  0  0  0  0  0  0  0  0
  190.1810  177.2760  138.6290 C   0  0  2  0  0  3  0  0  0  0  0  0
  189.4300  177.7730  140.8690 C   0  0  0  0  0  0  0  0  0  0  0  0
  189.9910  176.4220  144.2840 N   0  0  0  0  0  2  0  0  0  0  0  0
  191.4050  178.2660  143.6350 C   0  0  1  0  0  3  0  0  0  0  0  0
  190.7280  176.8660  145.4010 C   0  0  0  0  0  0  0  0  0  0  0  0
  191.6810  177.9550  145.1030 C   0  0  0  0  0  2  0  0  0  0  0  0
  190.4420  177.1680  143.1270 C   0  0  2  0  0  3  0  0  0  0  0  0
  190.5700  176.3780  146.5490 O   0  0  0  0  0  0  0  0  0  0  0  0
  190.8520  179.5430  143.5350 O   0  0  0  0  0  1  0  0  0  0  0  0
  184.0290  179.0670  144.3310 C   0  0  0  0  0  0  0  0  0  0  0  0
  182.9530  178.9500  143.4540 C   0  0  0  0  0  3  0  0  0  0  0  0
  185.5740  178.5530  142.5200 C   0  0  0  0  0  0  0  0  0  0  0  0
  183.1770  178.6280  142.1150 C   0  0  0  0  0  3  0  0  0  0  0  0
  185.3320  178.8640  143.8680 C   0  0  0  0  0  3  0  0  0  0  0  0
  184.4800  178.4260  141.6530 C   0  0  0  0  0  3  0  0  0  0  0  0
  183.8070  179.3780  145.6640 O   0  0  0  0  0  1  0  0  0  0  0  0
  187.0730  176.6450  144.7360 C   0  0  0  0  0  1  0  0  0  0  0  0
  187.8910  177.8530  144.3350 C   0  0  0  0  0  2  0  0  0  0  0  0
  189.8860  175.9300  138.4220 O   0  0  0  0  0  0  0  0  0  0  0  0
  189.1970  175.8900  137.2080 C   0  0  0  0  0  2  0  0  0  0  0  0
  186.0720  175.9230  137.0520 O   0  0  0  0  0  1  0  0  0  0  0  0
  188.1680  174.7670  137.2190 C   0  0  1  0  0  3  0  0  0  0  0  0
  186.9590  175.1160  136.3380 C   0  0  1  0  0  3  0  0  0  0  0  0
  186.3520  172.6950  136.7470 C   0  0  0  0  0  2  0  0  0  0  0  0
  187.8190  172.2800  136.9310 C   0  0  0  0  0  2  0  0  0  0  0  0
  188.8070  173.4450  136.7980 C   0  0  0  0  0  2  0  0  0  0  0  0
  186.2190  173.8840  135.8000 C   0  0  0  0  0  2  0  0  0  0  0  0
  1  5  1  0  0  0  0
  2  6  2  0  0  0  0
  2  9  1  0  0  0  0
  3  9  1  0  0  0  0
  4  8  1  0  0  0  0
  4  2  1  0  0  0  0
  5 25  1  0  0  0  0
  6  7  1  0  0  0  0
  7 19  1  0  0  0  0
  7  5  2  0  0  0  0
  8 26  1  1  0  0  0
  8  3  1  0  0  0  0
  9  1  2  0  0  0  0
 10 12  1  0  0  0  0
 11 16  1  1  0  0  0
 11 13  1  0  0  0  0
 12 15  2  0  0  0  0
 13 12  1  0  0  0  0
 14  1  1  1  0  0  0
 14 11  1  0  0  0  0
 14 10  1  0  0  0  0
 17 23  1  0  0  0  0
 18 17  2  0  0  0  0
 19 21  2  0  0  0  0
 20 18  1  0  0  0  0
 21 17  1  0  0  0  0
 22 20  2  0  0  0  0
 22 19  1  0  0  0  0
 25 24  1  0  0  0  0
 27 26  1  0  0  0  0
 29 27  1  6  0  0  0
 30 28  1  1  0  0  0
 30 29  1  0  0  0  0
 31 32  1  0  0  0  0
 33 32  1  0  0  0  0
 33 29  1  0  0  0  0
 34 30  1  0  0  0  0
 34 31  1  0  0  0  0
M  END
>  <MODEL>
9

>  <REMARK>
 VINA RESULT:      -7.1      3.180      9.068
  Name = 
  6 active torsions:
  status: ('A' for Active; 'I' for Inactive)
    1  A    between atoms: C_3  and  C_13
    2  A    between atoms: C_3  and  O_17
    3  A    between atoms: C_4  and  C_15
    4  A    between atoms: C_12  and  C_28
    5  A    between atoms: O_17  and  C_29
    6  A    between atoms: C_21  and  C_32
                            x       y       z     vdW  Elec       q    Type
                         _______ _______ _______ _____ _____    ______ ____

>  <TORSDO>
F 6

$$$$
