=
 OpenBabel11052415313D

 37 37  0  0  1  0  0  0  0  0999 V2000
  184.4460  179.2180  142.7960 C   0  0  2  0  0  3  0  0  0  0  0  0
  184.5060  179.1650  144.3280 C   0  0  1  0  0  3  0  0  0  0  0  0
  183.1380  178.8220  144.8870 C   0  0  0  0  0  1  0  0  0  0  0  0
  185.5430  178.1680  144.8340 C   0  0  0  0  0  2  0  0  0  0  0  0
  185.5660  179.5190  146.7660 O   0  0  0  0  0  0  0  0  0  0  0  0
  186.0500  178.5610  146.1840 C   0  0  0  0  0  0  0  0  0  0  0  0
  187.1310  177.7470  146.8240 C   0  0  2  0  0  3  0  0  0  0  0  0
  187.4690  178.2960  148.0610 O   0  0  0  0  0  1  0  0  0  0  0  0
  189.4800  178.0880  146.6490 F   0  0  0  0  0  0  0  0  0  0  0  0
  188.3640  177.6860  145.9380 C   0  0  0  0  0  2  0  0  0  0  0  0
  183.7870  178.1140  142.2360 O   0  0  0  0  0  0  0  0  0  0  0  0
  182.8270  178.6630  141.3790 C   0  0  2  0  0  3  0  0  0  0  0  0
  180.8620  179.4100  142.0840 C   0  0  0  0  0  1  0  0  0  0  0  0
  181.5500  178.2380  141.7630 O   0  0  0  0  0  0  0  0  0  0  0  0
  183.1220  178.2760  139.9280 C   0  0  2  0  0  3  0  0  0  0  0  0
  183.0760  179.5220  139.0530 C   0  0  0  0  0  2  0  0  0  0  0  0
  181.6790  179.8350  138.6200 C   0  0  0  0  0  3  0  0  0  0  0  0
  181.3530  179.8710  137.3300 C   0  0  0  0  0  2  0  0  0  0  0  0
  182.0710  177.1430  139.3660 C   0  0  0  0  0  2  0  0  0  0  0  0
  182.7360  175.7810  139.0840 C   0  0  0  0  0  2  0  0  0  0  0  0
  181.7680  176.5850  139.0420 O   0  0  0  0  0  0  0  0  0  0  0  0
  183.4870  175.4770  137.9040 N   0  0  0  0  0  2  0  0  0  0  0  0
  183.4850  176.3090  136.7090 C   0  0  0  0  0  2  0  0  0  0  0  0
  184.7350  177.1670  136.6700 C   0  0  0  0  0  1  0  0  0  0  0  0
  185.8100  179.4560  142.1410 C   0  0  0  0  0  2  0  0  0  0  0  0
  186.4180  178.2270  141.4610 C   0  0  0  0  0  2  0  0  0  0  0  0
  187.7470  178.4990  140.7540 C   0  0  1  0  0  3  0  0  0  0  0  0
  188.7990  177.4700  141.1290 C   0  0  2  0  0  3  0  0  0  0  0  0
  188.5520  177.0090  142.4340 O   0  0  0  0  0  0  0  0  0  0  0  0
  189.5880  177.9490  142.2840 C   0  0  1  0  0  3  0  0  0  0  0  0
  190.9250  177.2230  142.3240 C   0  0  0  0  0  2  0  0  0  0  0  0
  191.7570  177.5970  143.5520 C   0  0  1  0  0  3  0  0  0  0  0  0
  191.4290  179.0000  144.0290 C   0  0  0  0  0  1  0  0  0  0  0  0
  191.9050  175.1950  144.2200 C   0  0  0  0  0  1  0  0  0  0  0  0
  191.5840  176.6010  144.6900 C   0  0  0  0  0  2  0  0  0  0  0  0
  187.5800  178.5490  139.3670 O   0  0  0  0  0  0  0  0  0  0  0  0
  188.8750  178.5190  138.8470 C   0  0  0  0  0  1  0  0  0  0  0  0
  1 25  1  6  0  0  0
  1  2  1  0  0  0  0
  2  4  1  0  0  0  0
  2  3  1  1  0  0  0
  4  6  1  0  0  0  0
  6  5  2  0  0  0  0
  6  7  1  0  0  0  0
  7  8  1  1  0  0  0
 10  9  1  0  0  0  0
 10  7  1  0  0  0  0
 11  1  1  0  0  0  0
 12 14  1  1  0  0  0
 12 11  1  0  0  0  0
 14 13  1  0  0  0  0
 15 16  1  6  0  0  0
 15 12  1  0  0  0  0
 17 16  1  0  0  0  0
 18 17  2  0  0  0  0
 19 15  1  0  0  0  0
 21 20  1  0  0  0  0
 21 19  1  0  0  0  0
 22 20  1  0  0  0  0
 23 22  1  0  0  0  0
 24 23  1  0  0  0  0
 26 25  1  0  0  0  0
 27 26  1  1  0  0  0
 28 27  1  1  0  0  0
 28 30  1  0  0  0  0
 28 29  1  0  0  0  0
 30 31  1  6  0  0  0
 30 29  1  0  0  0  0
 31 32  1  0  0  0  0
 32 33  1  1  0  0  0
 32 35  1  0  0  0  0
 34 35  1  0  0  0  0
 36 27  1  0  0  0  0
 37 36  1  0  0  0  0
M  END
>  <MODEL>
1

>  <REMARK>
 VINA RESULT:      -6.2      0.000      0.000
  Name = 
  22 active torsions:
  status: ('A' for Active; 'I' for Inactive)
    1  A    between atoms: C_1  and  C_5
    2  A    between atoms: C_1  and  C_36
    3  A    between atoms: C_2  and  C_19
    4  A    between atoms: C_2  and  C_35
    5  A    between atoms: C_3  and  N_32
    6  A    between atoms: C_4  and  O_10
    7  A    between atoms: C_4  and  C_13
    8  A    between atoms: C_4  and  O_28
    9  A    between atoms: C_5  and  C_23
   10  A    between atoms: C_6  and  C_31
   11  A    between atoms: C_6  and  C_35
   12  A    between atoms: C_7  and  C_14
   13  A    between atoms: C_7  and  C_27
   14  A    between atoms: C_9  and  C_13
   15  A    between atoms: C_9  and  C_16
   16  A    between atoms: O_10  and  C_14
   17  A    between atoms: O_11  and  C_33
   18  A    between atoms: C_13  and  C_20
   19  A    between atoms: C_14  and  C_31
   20  A    between atoms: C_20  and  C_21
   21  A    between atoms: C_26  and  C_33
   22  A    between atoms: C_27  and  C_33
                            x       y       z     vdW  Elec       q    Type
                         _______ _______ _______ _____ _____    ______ ____

>  <TORSDO>
F 22

$$$$
=
 OpenBabel11052415313D

 37 37  0  0  1  0  0  0  0  0999 V2000
  187.9570  177.8550  139.0140 C   0  0  2  0  0  3  0  0  0  0  0  0
  188.6950  177.5900  137.6950 C   0  0  1  0  0  3  0  0  0  0  0  0
  188.4450  178.7280  136.7250 C   0  0  0  0  0  1  0  0  0  0  0  0
  190.1950  177.3960  137.9000 C   0  0  0  0  0  2  0  0  0  0  0  0
  190.6400  175.2430  138.7520 O   0  0  0  0  0  0  0  0  0  0  0  0
  190.5720  175.9570  137.7630 C   0  0  0  0  0  0  0  0  0  0  0  0
  190.8320  175.3950  136.4010 C   0  0  2  0  0  3  0  0  0  0  0  0
  190.7950  176.4160  135.4510 O   0  0  0  0  0  1  0  0  0  0  0  0
  190.2490  173.5890  134.9650 F   0  0  0  0  0  0  0  0  0  0  0  0
  189.8080  174.3300  136.0460 C   0  0  0  0  0  2  0  0  0  0  0  0
  186.8910  178.7540  138.8730 O   0  0  0  0  0  0  0  0  0  0  0  0
  185.7410  177.9580  138.8940 C   0  0  2  0  0  3  0  0  0  0  0  0
  185.0050  176.5370  137.3600 C   0  0  0  0  0  1  0  0  0  0  0  0
  185.1810  177.8980  137.6130 O   0  0  0  0  0  0  0  0  0  0  0  0
  184.7330  178.5020  139.9100 C   0  0  2  0  0  3  0  0  0  0  0  0
  183.8760  179.5720  139.2480 C   0  0  0  0  0  2  0  0  0  0  0  0
  182.4180  179.2700  139.3860 C   0  0  0  0  0  3  0  0  0  0  0  0
  181.7500  178.6520  138.4160 C   0  0  0  0  0  2  0  0  0  0  0  0
  185.4720  179.1070  141.2480 C   0  0  0  0  0  2  0  0  0  0  0  0
  185.3960  178.1640  142.4660 C   0  0  0  0  0  2  0  0  0  0  0  0
  185.8100  179.1940  141.8700 O   0  0  0  0  0  0  0  0  0  0  0  0
  184.4180  178.2630  143.5040 N   0  0  0  0  0  2  0  0  0  0  0  0
  183.5510  179.4180  143.6910 C   0  0  0  0  0  2  0  0  0  0  0  0
  182.1150  179.0480  143.3690 C   0  0  0  0  0  1  0  0  0  0  0  0
  188.8870  178.2530  140.1640 C   0  0  0  0  0  2  0  0  0  0  0  0
  188.9360  177.2550  141.3230 C   0  0  0  0  0  2  0  0  0  0  0  0
  189.7390  177.7420  142.5310 C   0  0  1  0  0  3  0  0  0  0  0  0
  189.4790  176.8820  143.7560 C   0  0  2  0  0  3  0  0  0  0  0  0
  188.1190  176.5300  143.7960 O   0  0  0  0  0  0  0  0  0  0  0  0
  188.5290  177.5610  144.6610 C   0  0  1  0  0  3  0  0  0  0  0  0
  188.6740  176.9990  146.0670 C   0  0  0  0  0  2  0  0  0  0  0  0
  187.6020  177.5270  147.0220 C   0  0  1  0  0  3  0  0  0  0  0  0
  188.2270  178.2320  148.2120 C   0  0  0  0  0  1  0  0  0  0  0  0
  185.2880  178.4650  147.0630 C   0  0  0  0  0  1  0  0  0  0  0  0
  186.6130  178.4510  146.3250 C   0  0  0  0  0  2  0  0  0  0  0  0
  191.1060  177.7890  142.2440 O   0  0  0  0  0  0  0  0  0  0  0  0
  191.7250  178.0130  143.4740 C   0  0  0  0  0  1  0  0  0  0  0  0
  1 25  1  1  0  0  0
  2  3  1  6  0  0  0
  2  4  1  0  0  0  0
  2  1  1  0  0  0  0
  6  4  1  0  0  0  0
  6  5  2  0  0  0  0
  7  8  1  6  0  0  0
  7  6  1  0  0  0  0
  9 10  1  0  0  0  0
 10  7  1  0  0  0  0
 11 12  1  0  0  0  0
 11  1  1  0  0  0  0
 12 14  1  6  0  0  0
 12 15  1  0  0  0  0
 13 14  1  0  0  0  0
 15 16  1  6  0  0  0
 15 19  1  0  0  0  0
 16 17  1  0  0  0  0
 18 17  2  0  0  0  0
 19 21  1  0  0  0  0
 20 22  1  0  0  0  0
 21 20  1  0  0  0  0
 22 23  1  0  0  0  0
 24 23  1  0  0  0  0
 25 26  1  0  0  0  0
 27 26  1  6  0  0  0
 28 27  1  6  0  0  0
 28 29  1  0  0  0  0
 28 30  1  0  0  0  0
 29 30  1  0  0  0  0
 30 31  1  1  0  0  0
 31 32  1  0  0  0  0
 32 33  1  1  0  0  0
 35 32  1  0  0  0  0
 35 34  1  0  0  0  0
 36 27  1  0  0  0  0
 36 37  1  0  0  0  0
M  END
>  <MODEL>
2

>  <REMARK>
 VINA RESULT:      -6.1      3.185      6.683
  Name = 
  22 active torsions:
  status: ('A' for Active; 'I' for Inactive)
    1  A    between atoms: C_1  and  C_5
    2  A    between atoms: C_1  and  C_36
    3  A    between atoms: C_2  and  C_19
    4  A    between atoms: C_2  and  C_35
    5  A    between atoms: C_3  and  N_32
    6  A    between atoms: C_4  and  O_10
    7  A    between atoms: C_4  and  C_13
    8  A    between atoms: C_4  and  O_28
    9  A    between atoms: C_5  and  C_23
   10  A    between atoms: C_6  and  C_31
   11  A    between atoms: C_6  and  C_35
   12  A    between atoms: C_7  and  C_14
   13  A    between atoms: C_7  and  C_27
   14  A    between atoms: C_9  and  C_13
   15  A    between atoms: C_9  and  C_16
   16  A    between atoms: O_10  and  C_14
   17  A    between atoms: O_11  and  C_33
   18  A    between atoms: C_13  and  C_20
   19  A    between atoms: C_14  and  C_31
   20  A    between atoms: C_20  and  C_21
   21  A    between atoms: C_26  and  C_33
   22  A    between atoms: C_27  and  C_33
                            x       y       z     vdW  Elec       q    Type
                         _______ _______ _______ _____ _____    ______ ____

>  <TORSDO>
F 22

$$$$
=
 OpenBabel11052415313D

 37 37  0  0  1  0  0  0  0  0999 V2000
  187.1190  177.7080  143.3160 C   0  0  2  0  0  3  0  0  0  0  0  0
  188.1180  176.9260  144.1770 C   0  0  1  0  0  3  0  0  0  0  0  0
  188.7750  175.8390  143.3490 C   0  0  0  0  0  1  0  0  0  0  0  0
  189.1830  177.8290  144.7930 C   0  0  0  0  0  2  0  0  0  0  0  0
  189.0050  176.8790  146.9440 O   0  0  0  0  0  0  0  0  0  0  0  0
  189.7470  177.2210  146.0360 C   0  0  0  0  0  0  0  0  0  0  0  0
  191.2250  177.0070  146.1400 C   0  0  2  0  0  3  0  0  0  0  0  0
  191.7030  176.4190  144.9690 O   0  0  0  0  0  1  0  0  0  0  0  0
  192.7410  175.4370  147.0900 F   0  0  0  0  0  0  0  0  0  0  0  0
  191.5650  176.1250  147.3300 C   0  0  0  0  0  2  0  0  0  0  0  0
  185.7830  177.4020  143.6140 O   0  0  0  0  0  0  0  0  0  0  0  0
  185.2430  178.5900  144.1170 C   0  0  2  0  0  3  0  0  0  0  0  0
  185.7690  179.2200  146.1770 C   0  0  0  0  0  1  0  0  0  0  0  0
  184.8810  178.4170  145.4580 O   0  0  0  0  0  0  0  0  0  0  0  0
  184.0420  179.0300  143.2760 C   0  0  2  0  0  3  0  0  0  0  0  0
  182.7640  178.8370  144.0800 C   0  0  0  0  0  2  0  0  0  0  0  0
  181.5650  179.3240  143.3300 C   0  0  0  0  0  3  0  0  0  0  0  0
  180.5110  178.5360  143.1360 C   0  0  0  0  0  2  0  0  0  0  0  0
  183.9530  178.2100  141.8530 C   0  0  0  0  0  2  0  0  0  0  0  0
  184.4730  179.0210  140.6490 C   0  0  0  0  0  2  0  0  0  0  0  0
  184.0830  177.9570  141.2000 O   0  0  0  0  0  0  0  0  0  0  0  0
  183.6360  179.7130  139.7190 N   0  0  0  0  0  2  0  0  0  0  0  0
  182.1960  179.5160  139.6260 C   0  0  0  0  0  2  0  0  0  0  0  0
  181.6150  180.4170  138.5530 C   0  0  0  0  0  1  0  0  0  0  0  0
  187.4010  177.6110  141.8140 C   0  0  0  0  0  2  0  0  0  0  0  0
  188.3320  178.6960  141.2660 C   0  0  0  0  0  2  0  0  0  0  0  0
  188.7510  178.4810  139.8100 C   0  0  1  0  0  3  0  0  0  0  0  0
  189.3800  177.1140  139.6080 C   0  0  2  0  0  3  0  0  0  0  0  0
  190.4220  176.9410  140.5360 O   0  0  0  0  0  0  0  0  0  0  0  0
  190.7990  177.2600  139.2190 C   0  0  1  0  0  3  0  0  0  0  0  0
  191.2680  175.9950  138.5170 C   0  0  0  0  0  2  0  0  0  0  0  0
  192.0840  176.2920  137.2580 C   0  0  1  0  0  3  0  0  0  0  0  0
  193.5310  175.8670  137.4290 C   0  0  0  0  0  1  0  0  0  0  0  0
  190.3030  176.4420  135.5140 C   0  0  0  0  0  1  0  0  0  0  0  0
  191.4890  175.6410  136.0180 C   0  0  0  0  0  2  0  0  0  0  0  0
  187.6700  178.6590  138.9420 O   0  0  0  0  0  0  0  0  0  0  0  0
  187.6870  177.5370  138.1110 C   0  0  0  0  0  1  0  0  0  0  0  0
  1 25  1  6  0  0  0
  1 11  1  0  0  0  0
  1  2  1  0  0  0  0
  2  3  1  6  0  0  0
  2  4  1  0  0  0  0
  4  6  1  0  0  0  0
  6  7  1  0  0  0  0
  6  5  2  0  0  0  0
  7  8  1  6  0  0  0
  7 10  1  0  0  0  0
  9 10  1  0  0  0  0
 12 11  1  6  0  0  0
 12 14  1  0  0  0  0
 14 13  1  0  0  0  0
 15 19  1  6  0  0  0
 15 16  1  0  0  0  0
 15 12  1  0  0  0  0
 17 16  1  0  0  0  0
 18 17  2  0  0  0  0
 20 21  1  0  0  0  0
 21 19  1  0  0  0  0
 22 20  1  0  0  0  0
 23 22  1  0  0  0  0
 24 23  1  0  0  0  0
 26 25  1  0  0  0  0
 27 26  1  1  0  0  0
 28 27  1  1  0  0  0
 28 29  1  0  0  0  0
 30 31  1  6  0  0  0
 30 28  1  0  0  0  0
 30 29  1  0  0  0  0
 32 33  1  1  0  0  0
 32 31  1  0  0  0  0
 34 35  1  0  0  0  0
 35 32  1  0  0  0  0
 36 27  1  0  0  0  0
 37 36  1  0  0  0  0
M  END
>  <MODEL>
3

>  <REMARK>
 VINA RESULT:      -6.1      2.524      4.633
  Name = 
  22 active torsions:
  status: ('A' for Active; 'I' for Inactive)
    1  A    between atoms: C_1  and  C_5
    2  A    between atoms: C_1  and  C_36
    3  A    between atoms: C_2  and  C_19
    4  A    between atoms: C_2  and  C_35
    5  A    between atoms: C_3  and  N_32
    6  A    between atoms: C_4  and  O_10
    7  A    between atoms: C_4  and  C_13
    8  A    between atoms: C_4  and  O_28
    9  A    between atoms: C_5  and  C_23
   10  A    between atoms: C_6  and  C_31
   11  A    between atoms: C_6  and  C_35
   12  A    between atoms: C_7  and  C_14
   13  A    between atoms: C_7  and  C_27
   14  A    between atoms: C_9  and  C_13
   15  A    between atoms: C_9  and  C_16
   16  A    between atoms: O_10  and  C_14
   17  A    between atoms: O_11  and  C_33
   18  A    between atoms: C_13  and  C_20
   19  A    between atoms: C_14  and  C_31
   20  A    between atoms: C_20  and  C_21
   21  A    between atoms: C_26  and  C_33
   22  A    between atoms: C_27  and  C_33
                            x       y       z     vdW  Elec       q    Type
                         _______ _______ _______ _____ _____    ______ ____

>  <TORSDO>
F 22

$$$$
=
 OpenBabel11052415313D

 37 36  0  0  1  0  0  0  0  0999 V2000
  185.0970  178.6310  142.6160 C   0  0  2  0  0  3  0  0  0  0  0  0
  184.9100  179.0630  144.0760 C   0  0  1  0  0  3  0  0  0  0  0  0
  183.4540  179.3990  144.3340 C   0  0  0  0  0  1  0  0  0  0  0  0
  185.3840  177.9970  145.0600 C   0  0  0  0  0  2  0  0  0  0  0  0
  185.6240  179.4160  146.9290 O   0  0  0  0  0  0  0  0  0  0  0  0
  186.1580  178.6100  146.1820 C   0  0  0  0  0  0  0  0  0  0  0  0
  187.5810  178.2010  146.3970 C   0  0  2  0  0  3  0  0  0  0  0  0
  187.9530  177.2550  145.4420 O   0  0  0  0  0  1  0  0  0  0  0  0
  188.1290  178.6300  148.6730 F   0  0  0  0  0  0  0  0  0  0  0  0
  187.7780  177.6260  147.7900 C   0  0  0  0  0  2  0  0  0  0  0  0
  183.9770  177.9690  142.0930 O   0  0  0  0  0  0  0  0  0  0  0  0
  184.0350  178.1960  140.7140 C   0  0  2  0  0  3  0  0  0  0  0  0
  184.2000  179.6940  139.0890 C   0  0  0  0  0  1  0  0  0  0  0  0
  184.3640  179.5330  140.4650 O   0  0  0  0  0  0  0  0  0  0  0  0
  182.7040  177.8250  140.0550 C   0  0  0  0  0  2  0  0  0  0  0  0
  181.5670  178.0730  141.0380 C   0  0  0  0  0  2  0  0  0  0  0  0
  180.9010  179.3870  140.7850 C   0  0  0  0  0  3  0  0  0  0  0  0
  180.1110  179.9430  141.7000 C   0  0  0  0  0  2  0  0  0  0  0  0
  182.6850  176.2630  139.5400 C   0  0  0  0  0  1  0  0  0  0  0  0
  182.4050  176.1230  138.0310 C   0  0  0  0  0  2  0  0  0  0  0  0
  182.6380  176.7960  139.0690 O   0  0  0  0  0  0  0  0  0  0  0  0
  183.4150  175.9400  137.0350 N   0  0  0  0  0  2  0  0  0  0  0  0
  184.8370  176.1400  137.2800 C   0  0  0  0  0  2  0  0  0  0  0  0
  185.3450  177.3140  136.4650 C   0  0  0  0  0  1  0  0  0  0  0  0
  186.3870  177.8420  142.3740 C   0  0  0  0  0  2  0  0  0  0  0  0
  187.5280  178.6520  141.7550 C   0  0  0  0  0  2  0  0  0  0  0  0
  188.6180  177.7980  141.1030 C   0  0  1  0  0  3  0  0  0  0  0  0
  188.9030  178.2500  139.6820 C   0  0  2  0  0  3  0  0  0  0  0  0
  187.6890  178.4140  138.9940 O   0  0  0  0  0  0  0  0  0  0  0  0
  188.4150  177.2400  138.7200 C   0  0  1  0  0  3  0  0  0  0  0  0
  189.1420  177.4060  137.3930 C   0  0  0  0  0  2  0  0  0  0  0  0
  189.3700  176.0720  136.6800 C   0  0  1  0  0  3  0  0  0  0  0  0
  188.6840  176.0500  135.3260 C   0  0  0  0  0  1  0  0  0  0  0  0
  191.6710  176.5110  137.5450 C   0  0  0  0  0  1  0  0  0  0  0  0
  190.8490  175.7450  136.5260 C   0  0  0  0  0  2  0  0  0  0  0  0
  189.7880  177.8040  141.8660 O   0  0  0  0  0  0  0  0  0  0  0  0
  190.0490  176.4590  142.1350 C   0  0  0  0  0  1  0  0  0  0  0  0
  1 25  1  1  0  0  0
  1  2  1  0  0  0  0
  2  3  1  1  0  0  0
  2  4  1  0  0  0  0
  4  6  1  0  0  0  0
  6  7  1  0  0  0  0
  6  5  2  0  0  0  0
  7  8  1  6  0  0  0
  7 10  1  0  0  0  0
 10  9  1  0  0  0  0
 11  1  1  0  0  0  0
 12 15  1  6  0  0  0
 12 11  1  0  0  0  0
 13 14  1  0  0  0  0
 14 12  1  0  0  0  0
 15 16  1  0  0  0  0
 17 16  1  0  0  0  0
 17 18  2  0  0  0  0
 20 21  1  0  0  0  0
 21 19  1  0  0  0  0
 22 23  1  0  0  0  0
 22 20  1  0  0  0  0
 24 23  1  0  0  0  0
 26 25  1  0  0  0  0
 27 26  1  1  0  0  0
 27 36  1  0  0  0  0
 28 27  1  1  0  0  0
 29 28  1  0  0  0  0
 30 31  1  6  0  0  0
 30 29  1  0  0  0  0
 30 28  1  0  0  0  0
 32 33  1  6  0  0  0
 32 31  1  0  0  0  0
 35 32  1  0  0  0  0
 35 34  1  0  0  0  0
 36 37  1  0  0  0  0
M  END
>  <MODEL>
4

>  <REMARK>
 VINA RESULT:      -6.0      1.720      3.491
  Name = 
  22 active torsions:
  status: ('A' for Active; 'I' for Inactive)
    1  A    between atoms: C_1  and  C_5
    2  A    between atoms: C_1  and  C_36
    3  A    between atoms: C_2  and  C_19
    4  A    between atoms: C_2  and  C_35
    5  A    between atoms: C_3  and  N_32
    6  A    between atoms: C_4  and  O_10
    7  A    between atoms: C_4  and  C_13
    8  A    between atoms: C_4  and  O_28
    9  A    between atoms: C_5  and  C_23
   10  A    between atoms: C_6  and  C_31
   11  A    between atoms: C_6  and  C_35
   12  A    between atoms: C_7  and  C_14
   13  A    between atoms: C_7  and  C_27
   14  A    between atoms: C_9  and  C_13
   15  A    between atoms: C_9  and  C_16
   16  A    between atoms: O_10  and  C_14
   17  A    between atoms: O_11  and  C_33
   18  A    between atoms: C_13  and  C_20
   19  A    between atoms: C_14  and  C_31
   20  A    between atoms: C_20  and  C_21
   21  A    between atoms: C_26  and  C_33
   22  A    between atoms: C_27  and  C_33
                            x       y       z     vdW  Elec       q    Type
                         _______ _______ _______ _____ _____    ______ ____

>  <TORSDO>
F 22

$$$$
=
 OpenBabel11052415313D

 37 37  0  0  1  0  0  0  0  0999 V2000
  189.0910  177.8800  141.1070 C   0  0  2  0  0  3  0  0  0  0  0  0
  189.5350  177.5240  139.6830 C   0  0  1  0  0  3  0  0  0  0  0  0
  189.2560  178.6860  138.7490 C   0  0  0  0  0  1  0  0  0  0  0  0
  191.0110  177.1410  139.6150 C   0  0  0  0  0  2  0  0  0  0  0  0
  192.3740  176.6680  137.7500 O   0  0  0  0  0  0  0  0  0  0  0  0
  191.3240  176.4430  138.3310 C   0  0  0  0  0  0  0  0  0  0  0  0
  190.3520  175.4430  137.7870 C   0  0  2  0  0  3  0  0  0  0  0  0
  190.9260  174.1720  137.7930 O   0  0  0  0  0  1  0  0  0  0  0  0
  188.6170  175.4330  136.1580 F   0  0  0  0  0  0  0  0  0  0  0  0
  189.9310  175.8070  136.3730 C   0  0  0  0  0  2  0  0  0  0  0  0
  189.8140  177.1940  142.0930 O   0  0  0  0  0  0  0  0  0  0  0  0
  190.0090  178.1290  143.1150 C   0  0  2  0  0  3  0  0  0  0  0  0
  191.3300  179.6890  143.9720 C   0  0  0  0  0  1  0  0  0  0  0  0
  191.3060  178.6480  143.0430 O   0  0  0  0  0  0  0  0  0  0  0  0
  189.7480  177.4900  144.4810 C   0  0  2  0  0  3  0  0  0  0  0  0
  190.7320  176.3500  144.7030 C   0  0  0  0  0  2  0  0  0  0  0  0
  191.6360  176.6230  145.8620 C   0  0  0  0  0  3  0  0  0  0  0  0
  191.2440  176.3800  147.1100 C   0  0  0  0  0  2  0  0  0  0  0  0
  188.2010  176.9480  144.6220 C   0  0  0  0  0  2  0  0  0  0  0  0
  187.2510  177.9770  145.2650 C   0  0  0  0  0  2  0  0  0  0  0  0
  187.5270  176.8310  144.8220 O   0  0  0  0  0  0  0  0  0  0  0  0
  187.1460  178.2130  146.6720 N   0  0  0  0  0  2  0  0  0  0  0  0
  187.7120  177.3300  147.6830 C   0  0  0  0  0  2  0  0  0  0  0  0
  188.4030  178.1470  148.7580 C   0  0  0  0  0  1  0  0  0  0  0  0
  187.5800  177.7560  141.3230 C   0  0  0  0  0  2  0  0  0  0  0  0
  186.8740  179.0670  141.6790 C   0  0  0  0  0  2  0  0  0  0  0  0
  185.3470  178.9870  141.6260 C   0  0  1  0  0  3  0  0  0  0  0  0
  184.8560  178.6220  140.2370 C   0  0  2  0  0  3  0  0  0  0  0  0
  184.7060  179.7940  139.4750 O   0  0  0  0  0  0  0  0  0  0  0  0
  183.5280  179.2240  139.9930 C   0  0  1  0  0  3  0  0  0  0  0  0
  182.8180  178.4610  138.8840 C   0  0  0  0  0  2  0  0  0  0  0  0
  181.7410  177.5180  139.4210 C   0  0  1  0  0  3  0  0  0  0  0  0
  182.2470  176.0890  139.4890 C   0  0  0  0  0  1  0  0  0  0  0  0
  179.7600  177.5640  140.9410 C   0  0  0  0  0  1  0  0  0  0  0  0
  181.2170  177.9550  140.7820 C   0  0  0  0  0  2  0  0  0  0  0  0
  184.8550  178.0870  142.5750 O   0  0  0  0  0  0  0  0  0  0  0  0
  184.1480  178.8730  143.4860 C   0  0  0  0  0  1  0  0  0  0  0  0
  1 25  1  6  0  0  0
  1 11  1  0  0  0  0
  2  3  1  6  0  0  0
  2  1  1  0  0  0  0
  4  2  1  0  0  0  0
  5  6  2  0  0  0  0
  6  4  1  0  0  0  0
  7  8  1  6  0  0  0
  7  6  1  0  0  0  0
  9 10  1  0  0  0  0
 10  7  1  0  0  0  0
 12 11  1  6  0  0  0
 12 15  1  0  0  0  0
 14 12  1  0  0  0  0
 14 13  1  0  0  0  0
 15 19  1  6  0  0  0
 15 16  1  0  0  0  0
 16 17  1  0  0  0  0
 17 18  2  0  0  0  0
 19 21  1  0  0  0  0
 20 22  1  0  0  0  0
 21 20  1  0  0  0  0
 22 23  1  0  0  0  0
 23 24  1  0  0  0  0
 25 26  1  0  0  0  0
 27 26  1  6  0  0  0
 27 36  1  0  0  0  0
 28 27  1  1  0  0  0
 29 30  1  0  0  0  0
 29 28  1  0  0  0  0
 30 31  1  6  0  0  0
 30 28  1  0  0  0  0
 31 32  1  0  0  0  0
 32 33  1  1  0  0  0
 32 35  1  0  0  0  0
 35 34  1  0  0  0  0
 36 37  1  0  0  0  0
M  END
>  <MODEL>
5

>  <REMARK>
 VINA RESULT:      -6.0      3.282      9.126
  Name = 
  22 active torsions:
  status: ('A' for Active; 'I' for Inactive)
    1  A    between atoms: C_1  and  C_5
    2  A    between atoms: C_1  and  C_36
    3  A    between atoms: C_2  and  C_19
    4  A    between atoms: C_2  and  C_35
    5  A    between atoms: C_3  and  N_32
    6  A    between atoms: C_4  and  O_10
    7  A    between atoms: C_4  and  C_13
    8  A    between atoms: C_4  and  O_28
    9  A    between atoms: C_5  and  C_23
   10  A    between atoms: C_6  and  C_31
   11  A    between atoms: C_6  and  C_35
   12  A    between atoms: C_7  and  C_14
   13  A    between atoms: C_7  and  C_27
   14  A    between atoms: C_9  and  C_13
   15  A    between atoms: C_9  and  C_16
   16  A    between atoms: O_10  and  C_14
   17  A    between atoms: O_11  and  C_33
   18  A    between atoms: C_13  and  C_20
   19  A    between atoms: C_14  and  C_31
   20  A    between atoms: C_20  and  C_21
   21  A    between atoms: C_26  and  C_33
   22  A    between atoms: C_27  and  C_33
                            x       y       z     vdW  Elec       q    Type
                         _______ _______ _______ _____ _____    ______ ____

>  <TORSDO>
F 22

$$$$
=
 OpenBabel11052415313D

 37 37  0  0  1  0  0  0  0  0999 V2000
  188.2100  178.0640  140.8080 C   0  0  2  0  0  3  0  0  0  0  0  0
  188.5960  177.4570  139.4540 C   0  0  1  0  0  3  0  0  0  0  0  0
  187.6390  177.9360  138.3800 C   0  0  0  0  0  1  0  0  0  0  0  0
  190.0330  177.7880  139.0590 C   0  0  0  0  0  2  0  0  0  0  0  0
  190.6140  175.5050  139.1620 O   0  0  0  0  0  0  0  0  0  0  0  0
  190.7500  176.5690  138.5780 C   0  0  0  0  0  0  0  0  0  0  0  0
  191.6070  176.6600  137.3540 C   0  0  2  0  0  3  0  0  0  0  0  0
  191.2450  175.6660  136.4450 O   0  0  0  0  0  1  0  0  0  0  0  0
  193.3150  177.0330  138.9700 F   0  0  0  0  0  0  0  0  0  0  0  0
  193.0790  176.5180  137.7080 C   0  0  0  0  0  2  0  0  0  0  0  0
  188.1400  177.1120  141.8350 O   0  0  0  0  0  0  0  0  0  0  0  0
  189.0970  177.5180  142.7720 C   0  0  2  0  0  3  0  0  0  0  0  0
  190.3340  175.6790  142.8170 C   0  0  0  0  0  1  0  0  0  0  0  0
  190.3530  177.0150  142.4150 O   0  0  0  0  0  0  0  0  0  0  0  0
  188.6990  177.0590  144.1760 C   0  0  2  0  0  3  0  0  0  0  0  0
  187.1810  177.0660  144.2990 C   0  0  0  0  0  2  0  0  0  0  0  0
  186.7380  177.7040  145.5770 C   0  0  0  0  0  3  0  0  0  0  0  0
  185.5960  178.3840  145.6440 C   0  0  0  0  0  2  0  0  0  0  0  0
  189.3720  178.0000  145.3460 C   0  0  0  0  0  2  0  0  0  0  0  0
  190.2570  177.2090  146.3300 C   0  0  0  0  0  2  0  0  0  0  0  0
  189.9920  178.2170  145.6230 O   0  0  0  0  0  0  0  0  0  0  0  0
  190.1250  177.2580  147.7530 N   0  0  0  0  0  2  0  0  0  0  0  0
  189.3360  178.2580  148.4580 C   0  0  0  0  0  2  0  0  0  0  0  0
  187.9780  177.6880  148.8210 C   0  0  0  0  0  1  0  0  0  0  0  0
  186.9480  178.9300  140.7510 C   0  0  0  0  0  2  0  0  0  0  0  0
  185.8400  178.5130  141.7220 C   0  0  0  0  0  2  0  0  0  0  0  0
  184.4330  178.9070  141.2690 C   0  0  1  0  0  3  0  0  0  0  0  0
  184.2810  178.7950  139.7620 C   0  0  2  0  0  3  0  0  0  0  0  0
  184.3620  180.0770  139.1920 O   0  0  0  0  0  0  0  0  0  0  0  0
  183.0750  179.5240  139.3180 C   0  0  1  0  0  3  0  0  0  0  0  0
  182.6280  178.9940  137.9630 C   0  0  0  0  0  2  0  0  0  0  0  0
  181.1090  178.8520  137.8620 C   0  0  1  0  0  3  0  0  0  0  0  0
  180.4740  178.7620  139.2380 C   0  0  0  0  0  1  0  0  0  0  0  0
  180.8190  179.8550  135.5930 C   0  0  0  0  0  1  0  0  0  0  0  0
  180.4760  179.9840  137.0660 C   0  0  0  0  0  2  0  0  0  0  0  0
  183.4610  178.1420  141.9200 O   0  0  0  0  0  0  0  0  0  0  0  0
  183.0840  178.9040  143.0270 C   0  0  0  0  0  1  0  0  0  0  0  0
  1 25  1  6  0  0  0
  1 11  1  0  0  0  0
  2  3  1  6  0  0  0
  2  1  1  0  0  0  0
  4  2  1  0  0  0  0
  6  4  1  0  0  0  0
  6  5  2  0  0  0  0
  7  8  1  6  0  0  0
  7 10  1  0  0  0  0
  7  6  1  0  0  0  0
 10  9  1  0  0  0  0
 12 11  1  6  0  0  0
 12 15  1  0  0  0  0
 14 12  1  0  0  0  0
 14 13  1  0  0  0  0
 15 16  1  6  0  0  0
 15 19  1  0  0  0  0
 16 17  1  0  0  0  0
 17 18  2  0  0  0  0
 19 21  1  0  0  0  0
 20 22  1  0  0  0  0
 21 20  1  0  0  0  0
 22 23  1  0  0  0  0
 23 24  1  0  0  0  0
 25 26  1  0  0  0  0
 27 26  1  6  0  0  0
 27 36  1  0  0  0  0
 28 27  1  1  0  0  0
 29 30  1  0  0  0  0
 29 28  1  0  0  0  0
 30 31  1  6  0  0  0
 30 28  1  0  0  0  0
 32 31  1  0  0  0  0
 32 33  1  1  0  0  0
 34 35  1  0  0  0  0
 35 32  1  0  0  0  0
 36 37  1  0  0  0  0
M  END
>  <MODEL>
6

>  <REMARK>
 VINA RESULT:      -5.9      3.263      9.159
  Name = 
  22 active torsions:
  status: ('A' for Active; 'I' for Inactive)
    1  A    between atoms: C_1  and  C_5
    2  A    between atoms: C_1  and  C_36
    3  A    between atoms: C_2  and  C_19
    4  A    between atoms: C_2  and  C_35
    5  A    between atoms: C_3  and  N_32
    6  A    between atoms: C_4  and  O_10
    7  A    between atoms: C_4  and  C_13
    8  A    between atoms: C_4  and  O_28
    9  A    between atoms: C_5  and  C_23
   10  A    between atoms: C_6  and  C_31
   11  A    between atoms: C_6  and  C_35
   12  A    between atoms: C_7  and  C_14
   13  A    between atoms: C_7  and  C_27
   14  A    between atoms: C_9  and  C_13
   15  A    between atoms: C_9  and  C_16
   16  A    between atoms: O_10  and  C_14
   17  A    between atoms: O_11  and  C_33
   18  A    between atoms: C_13  and  C_20
   19  A    between atoms: C_14  and  C_31
   20  A    between atoms: C_20  and  C_21
   21  A    between atoms: C_26  and  C_33
   22  A    between atoms: C_27  and  C_33
                            x       y       z     vdW  Elec       q    Type
                         _______ _______ _______ _____ _____    ______ ____

>  <TORSDO>
F 22

$$$$
=
 OpenBabel11052415313D

 37 37  0  0  1  0  0  0  0  0999 V2000
  186.6910  178.1930  143.7210 C   0  0  2  0  0  3  0  0  0  0  0  0
  187.3930  178.0020  145.0710 C   0  0  1  0  0  3  0  0  0  0  0  0
  186.4150  177.4490  146.0890 C   0  0  0  0  0  1  0  0  0  0  0  0
  188.6110  177.0890  144.9660 C   0  0  0  0  0  2  0  0  0  0  0  0
  190.1660  178.7730  144.4090 O   0  0  0  0  0  0  0  0  0  0  0  0
  189.8760  177.8590  145.1670 C   0  0  0  0  0  0  0  0  0  0  0  0
  190.7630  177.5190  146.3230 C   0  0  2  0  0  3  0  0  0  0  0  0
  191.9650  176.9860  145.8590 O   0  0  0  0  0  1  0  0  0  0  0  0
  191.0110  175.6030  147.7130 F   0  0  0  0  0  0  0  0  0  0  0  0
  190.0880  176.5240  147.2540 C   0  0  0  0  0  2  0  0  0  0  0  0
  185.3040  177.9980  143.7930 O   0  0  0  0  0  0  0  0  0  0  0  0
  184.7500  179.0650  143.0780 C   0  0  2  0  0  3  0  0  0  0  0  0
  183.5690  178.9020  144.9470 C   0  0  0  0  0  1  0  0  0  0  0  0
  183.8580  179.7710  143.8930 O   0  0  0  0  0  0  0  0  0  0  0  0
  184.0560  178.5580  141.8120 C   0  0  2  0  0  3  0  0  0  0  0  0
  184.6960  179.2050  140.5910 C   0  0  0  0  0  2  0  0  0  0  0  0
  185.0470  178.1880  139.5530 C   0  0  0  0  0  3  0  0  0  0  0  0
  184.5630  178.2730  138.3170 C   0  0  0  0  0  2  0  0  0  0  0  0
  182.4380  178.8530  141.8360 C   0  0  0  0  0  2  0  0  0  0  0  0
  181.6600  178.0680  140.7610 C   0  0  0  0  0  2  0  0  0  0  0  0
  181.7450  178.6880  141.8540 O   0  0  0  0  0  0  0  0  0  0  0  0
  181.0210  178.6650  139.6290 N   0  0  0  0  0  2  0  0  0  0  0  0
  180.7870  180.0960  139.4940 C   0  0  0  0  0  2  0  0  0  0  0  0
  181.8380  180.7110  138.5900 C   0  0  0  0  0  1  0  0  0  0  0  0
  187.3200  177.3800  142.5860 C   0  0  0  0  0  2  0  0  0  0  0  0
  188.1750  178.1940  141.6120 C   0  0  0  0  0  2  0  0  0  0  0  0
  189.1510  177.3530  140.7860 C   0  0  1  0  0  3  0  0  0  0  0  0
  189.4370  177.9950  139.4400 C   0  0  2  0  0  3  0  0  0  0  0  0
  188.3400  178.7880  139.0610 O   0  0  0  0  0  0  0  0  0  0  0  0
  188.4560  177.5320  138.4370 C   0  0  1  0  0  3  0  0  0  0  0  0
  189.0250  177.7240  137.0390 C   0  0  0  0  0  2  0  0  0  0  0  0
  188.7370  176.5350  136.1220 C   0  0  1  0  0  3  0  0  0  0  0  0
  188.1500  175.3710  136.9010 C   0  0  0  0  0  1  0  0  0  0  0  0
  187.0100  178.1440  135.3060 C   0  0  0  0  0  1  0  0  0  0  0  0
  187.8200  176.9070  134.9650 C   0  0  0  0  0  2  0  0  0  0  0  0
  190.3390  177.1250  141.4860 O   0  0  0  0  0  0  0  0  0  0  0  0
  191.3530  177.3240  140.5480 C   0  0  0  0  0  1  0  0  0  0  0  0
  1 25  1  6  0  0  0
  1 11  1  0  0  0  0
  1  2  1  0  0  0  0
  2  3  1  1  0  0  0
  4  2  1  0  0  0  0
  4  6  1  0  0  0  0
  5  6  2  0  0  0  0
  6  7  1  0  0  0  0
  7  8  1  6  0  0  0
  7 10  1  0  0  0  0
 10  9  1  0  0  0  0
 12 11  1  1  0  0  0
 12 14  1  0  0  0  0
 14 13  1  0  0  0  0
 15 16  1  6  0  0  0
 15 19  1  0  0  0  0
 15 12  1  0  0  0  0
 17 16  1  0  0  0  0
 18 17  2  0  0  0  0
 19 21  1  0  0  0  0
 20 21  1  0  0  0  0
 22 20  1  0  0  0  0
 23 22  1  0  0  0  0
 24 23  1  0  0  0  0
 26 25  1  0  0  0  0
 27 36  1  0  0  0  0
 27 26  1  1  0  0  0
 28 27  1  1  0  0  0
 29 28  1  0  0  0  0
 30 31  1  6  0  0  0
 30 29  1  0  0  0  0
 30 28  1  0  0  0  0
 32 33  1  1  0  0  0
 32 31  1  0  0  0  0
 35 34  1  0  0  0  0
 35 32  1  0  0  0  0
 37 36  1  0  0  0  0
M  END
>  <MODEL>
7

>  <REMARK>
 VINA RESULT:      -5.8      2.176      4.615
  Name = 
  22 active torsions:
  status: ('A' for Active; 'I' for Inactive)
    1  A    between atoms: C_1  and  C_5
    2  A    between atoms: C_1  and  C_36
    3  A    between atoms: C_2  and  C_19
    4  A    between atoms: C_2  and  C_35
    5  A    between atoms: C_3  and  N_32
    6  A    between atoms: C_4  and  O_10
    7  A    between atoms: C_4  and  C_13
    8  A    between atoms: C_4  and  O_28
    9  A    between atoms: C_5  and  C_23
   10  A    between atoms: C_6  and  C_31
   11  A    between atoms: C_6  and  C_35
   12  A    between atoms: C_7  and  C_14
   13  A    between atoms: C_7  and  C_27
   14  A    between atoms: C_9  and  C_13
   15  A    between atoms: C_9  and  C_16
   16  A    between atoms: O_10  and  C_14
   17  A    between atoms: O_11  and  C_33
   18  A    between atoms: C_13  and  C_20
   19  A    between atoms: C_14  and  C_31
   20  A    between atoms: C_20  and  C_21
   21  A    between atoms: C_26  and  C_33
   22  A    between atoms: C_27  and  C_33
                            x       y       z     vdW  Elec       q    Type
                         _______ _______ _______ _____ _____    ______ ____

>  <TORSDO>
F 22

$$$$
=
 OpenBabel11052415313D

 37 37  0  0  1  0  0  0  0  0999 V2000
  187.7630  177.8490  142.8710 C   0  0  2  0  0  3  0  0  0  0  0  0
  188.3900  176.7140  143.6890 C   0  0  1  0  0  3  0  0  0  0  0  0
  189.6050  176.1650  142.9670 C   0  0  0  0  0  1  0  0  0  0  0  0
  188.7740  177.1580  145.0980 C   0  0  0  0  0  2  0  0  0  0  0  0
  190.3360  178.8310  144.5280 O   0  0  0  0  0  0  0  0  0  0  0  0
  190.1340  177.7770  145.1110 C   0  0  0  0  0  0  0  0  0  0  0  0
  191.2350  177.1060  145.8740 C   0  0  2  0  0  3  0  0  0  0  0  0
  191.7790  176.0730  145.1110 O   0  0  0  0  0  1  0  0  0  0  0  0
  191.6160  175.6240  147.6960 F   0  0  0  0  0  0  0  0  0  0  0  0
  190.7240  176.5530  147.1940 C   0  0  0  0  0  2  0  0  0  0  0  0
  186.4800  177.5390  142.3980 O   0  0  0  0  0  0  0  0  0  0  0  0
  185.6500  178.5360  142.9220 C   0  0  2  0  0  3  0  0  0  0  0  0
  185.0520  179.1970  144.9520 C   0  0  0  0  0  1  0  0  0  0  0  0
  185.0590  178.0850  144.1080 O   0  0  0  0  0  0  0  0  0  0  0  0
  184.5890  178.9420  141.8970 C   0  0  2  0  0  3  0  0  0  0  0  0
  183.3500  178.0760  142.0830 C   0  0  0  0  0  2  0  0  0  0  0  0
  182.1190  178.9090  142.2460 C   0  0  0  0  0  3  0  0  0  0  0  0
  181.5670  179.0900  143.4430 C   0  0  0  0  0  2  0  0  0  0  0  0
  185.1450  178.8230  140.3540 C   0  0  0  0  0  2  0  0  0  0  0  0
  184.2150  179.4860  139.3180 C   0  0  0  0  0  2  0  0  0  0  0  0
  185.3250  179.0260  139.6950 O   0  0  0  0  0  0  0  0  0  0  0  0
  183.4040  178.7690  138.3840 N   0  0  0  0  0  2  0  0  0  0  0  0
  183.5580  177.3480  138.1040 C   0  0  0  0  0  2  0  0  0  0  0  0
  184.1010  177.1490  136.7020 C   0  0  0  0  0  1  0  0  0  0  0  0
  188.6710  178.3670  141.7510 C   0  0  0  0  0  2  0  0  0  0  0  0
  188.5100  177.6470  140.4110 C   0  0  0  0  0  2  0  0  0  0  0  0
  189.4510  178.1500  139.3150 C   0  0  1  0  0  3  0  0  0  0  0  0
  189.9090  177.0200  138.4110 C   0  0  2  0  0  3  0  0  0  0  0  0
  190.4930  176.0080  139.1920 O   0  0  0  0  0  0  0  0  0  0  0  0
  191.3750  176.8590  138.5000 C   0  0  1  0  0  3  0  0  0  0  0  0
  191.8860  176.1410  137.2610 C   0  0  0  0  0  2  0  0  0  0  0  0
  192.6010  174.8310  137.5970 C   0  0  1  0  0  3  0  0  0  0  0  0
  192.1460  173.7080  136.6820 C   0  0  0  0  0  1  0  0  0  0  0  0
  194.7830  173.6750  137.9690 C   0  0  0  0  0  1  0  0  0  0  0  0
  194.1160  174.9690  137.5440 C   0  0  0  0  0  2  0  0  0  0  0  0
  188.8550  179.1690  138.5660 O   0  0  0  0  0  0  0  0  0  0  0  0
  188.5500  178.5820  137.3370 C   0  0  0  0  0  1  0  0  0  0  0  0
  1 25  1  6  0  0  0
  1  2  1  0  0  0  0
  2  3  1  6  0  0  0
  2  4  1  0  0  0  0
  4  6  1  0  0  0  0
  5  6  2  0  0  0  0
  6  7  1  0  0  0  0
  7  8  1  6  0  0  0
  7 10  1  0  0  0  0
 10  9  1  0  0  0  0
 11  1  1  0  0  0  0
 12 11  1  6  0  0  0
 12 14  1  0  0  0  0
 14 13  1  0  0  0  0
 15 19  1  6  0  0  0
 15 16  1  0  0  0  0
 15 12  1  0  0  0  0
 16 17  1  0  0  0  0
 17 18  2  0  0  0  0
 20 21  1  0  0  0  0
 21 19  1  0  0  0  0
 22 20  1  0  0  0  0
 23 22  1  0  0  0  0
 24 23  1  0  0  0  0
 26 25  1  0  0  0  0
 27 26  1  1  0  0  0
 28 30  1  0  0  0  0
 28 29  1  0  0  0  0
 28 27  1  1  0  0  0
 30 31  1  6  0  0  0
 30 29  1  0  0  0  0
 31 32  1  0  0  0  0
 32 33  1  6  0  0  0
 35 32  1  0  0  0  0
 35 34  1  0  0  0  0
 36 27  1  0  0  0  0
 37 36  1  0  0  0  0
M  END
>  <MODEL>
8

>  <REMARK>
 VINA RESULT:      -5.7      2.910      4.479
  Name = 
  22 active torsions:
  status: ('A' for Active; 'I' for Inactive)
    1  A    between atoms: C_1  and  C_5
    2  A    between atoms: C_1  and  C_36
    3  A    between atoms: C_2  and  C_19
    4  A    between atoms: C_2  and  C_35
    5  A    between atoms: C_3  and  N_32
    6  A    between atoms: C_4  and  O_10
    7  A    between atoms: C_4  and  C_13
    8  A    between atoms: C_4  and  O_28
    9  A    between atoms: C_5  and  C_23
   10  A    between atoms: C_6  and  C_31
   11  A    between atoms: C_6  and  C_35
   12  A    between atoms: C_7  and  C_14
   13  A    between atoms: C_7  and  C_27
   14  A    between atoms: C_9  and  C_13
   15  A    between atoms: C_9  and  C_16
   16  A    between atoms: O_10  and  C_14
   17  A    between atoms: O_11  and  C_33
   18  A    between atoms: C_13  and  C_20
   19  A    between atoms: C_14  and  C_31
   20  A    between atoms: C_20  and  C_21
   21  A    between atoms: C_26  and  C_33
   22  A    between atoms: C_27  and  C_33
                            x       y       z     vdW  Elec       q    Type
                         _______ _______ _______ _____ _____    ______ ____

>  <TORSDO>
F 22

$$$$
=
 OpenBabel11052415313D

 37 37  0  0  1  0  0  0  0  0999 V2000
  189.7160  177.8170  141.3750 C   0  0  2  0  0  3  0  0  0  0  0  0
  190.4450  177.5060  140.0620 C   0  0  1  0  0  3  0  0  0  0  0  0
  191.8860  177.1280  140.3470 C   0  0  0  0  0  1  0  0  0  0  0  0
  189.7600  176.3970  139.2690 C   0  0  0  0  0  2  0  0  0  0  0  0
  189.6510  177.5510  137.2150 O   0  0  0  0  0  0  0  0  0  0  0  0
  190.0210  176.5470  137.8050 C   0  0  0  0  0  0  0  0  0  0  0  0
  190.7660  175.4700  137.0810 C   0  0  2  0  0  3  0  0  0  0  0  0
  190.6790  174.2730  137.7900 O   0  0  0  0  0  1  0  0  0  0  0  0
  193.0220  175.1020  137.7440 F   0  0  0  0  0  0  0  0  0  0  0  0
  192.2270  175.8490  136.8950 C   0  0  0  0  0  2  0  0  0  0  0  0
  190.3240  177.2260  142.4920 O   0  0  0  0  0  0  0  0  0  0  0  0
  190.4030  178.2480  143.4450 C   0  0  2  0  0  3  0  0  0  0  0  0
  191.6600  179.7970  144.4120 C   0  0  0  0  0  1  0  0  0  0  0  0
  191.6470  178.8830  143.3580 O   0  0  0  0  0  0  0  0  0  0  0  0
  190.1680  177.6890  144.8500 C   0  0  2  0  0  3  0  0  0  0  0  0
  191.1300  176.5370  145.1030 C   0  0  0  0  0  2  0  0  0  0  0  0
  191.3950  176.3550  146.5630 C   0  0  0  0  0  3  0  0  0  0  0  0
  192.4280  175.6330  146.9890 C   0  0  0  0  0  2  0  0  0  0  0  0
  188.6140  177.1950  145.0640 C   0  0  0  0  0  2  0  0  0  0  0  0
  187.9820  177.7190  146.3690 C   0  0  0  0  0  2  0  0  0  0  0  0
  188.4670  177.8760  145.2180 O   0  0  0  0  0  0  0  0  0  0  0  0
  186.5750  177.8410  146.5940 N   0  0  0  0  0  2  0  0  0  0  0  0
  185.5770  177.7520  145.5370 C   0  0  0  0  0  2  0  0  0  0  0  0
  185.1530  179.1420  145.1030 C   0  0  0  0  0  1  0  0  0  0  0  0
  188.2140  177.5210  141.3240 C   0  0  0  0  0  2  0  0  0  0  0  0
  187.3370  178.7220  140.9610 C   0  0  0  0  0  2  0  0  0  0  0  0
  186.2300  178.4030  139.9540 C   0  0  1  0  0  3  0  0  0  0  0  0
  184.9750  179.2110  140.2320 C   0  0  2  0  0  3  0  0  0  0  0  0
  184.7720  179.2900  141.6200 O   0  0  0  0  0  0  0  0  0  0  0  0
  183.9710  178.3710  140.9170 C   0  0  1  0  0  3  0  0  0  0  0  0
  182.5860  178.9700  140.7220 C   0  0  0  0  0  2  0  0  0  0  0  0
  181.5950  178.5140  141.7940 C   0  0  1  0  0  3  0  0  0  0  0  0
  182.0110  179.0060  143.1690 C   0  0  0  0  0  1  0  0  0  0  0  0
  179.4960  179.4820  142.7410 C   0  0  0  0  0  1  0  0  0  0  0  0
  180.1700  178.9550  141.4880 C   0  0  0  0  0  2  0  0  0  0  0  0
  186.6660  178.6070  138.6420 O   0  0  0  0  0  0  0  0  0  0  0  0
  185.9570  177.6780  137.8790 C   0  0  0  0  0  1  0  0  0  0  0  0
  1 25  1  6  0  0  0
  1 11  1  0  0  0  0
  2  3  1  1  0  0  0
  2  1  1  0  0  0  0
  4  2  1  0  0  0  0
  5  6  2  0  0  0  0
  6  4  1  0  0  0  0
  7  8  1  1  0  0  0
  7  6  1  0  0  0  0
 10  7  1  0  0  0  0
 10  9  1  0  0  0  0
 12 11  1  6  0  0  0
 12 15  1  0  0  0  0
 14 12  1  0  0  0  0
 14 13  1  0  0  0  0
 15 19  1  6  0  0  0
 15 16  1  0  0  0  0
 16 17  1  0  0  0  0
 17 18  2  0  0  0  0
 19 21  1  0  0  0  0
 20 22  1  0  0  0  0
 21 20  1  0  0  0  0
 23 22  1  0  0  0  0
 24 23  1  0  0  0  0
 26 25  1  0  0  0  0
 27 26  1  1  0  0  0
 28 27  1  1  0  0  0
 28 30  1  0  0  0  0
 28 29  1  0  0  0  0
 30 31  1  6  0  0  0
 30 29  1  0  0  0  0
 31 32  1  0  0  0  0
 32 33  1  1  0  0  0
 35 32  1  0  0  0  0
 35 34  1  0  0  0  0
 36 27  1  0  0  0  0
 37 36  1  0  0  0  0
M  END
>  <MODEL>
9

>  <REMARK>
 VINA RESULT:      -5.6      3.124      8.995
  Name = 
  22 active torsions:
  status: ('A' for Active; 'I' for Inactive)
    1  A    between atoms: C_1  and  C_5
    2  A    between atoms: C_1  and  C_36
    3  A    between atoms: C_2  and  C_19
    4  A    between atoms: C_2  and  C_35
    5  A    between atoms: C_3  and  N_32
    6  A    between atoms: C_4  and  O_10
    7  A    between atoms: C_4  and  C_13
    8  A    between atoms: C_4  and  O_28
    9  A    between atoms: C_5  and  C_23
   10  A    between atoms: C_6  and  C_31
   11  A    between atoms: C_6  and  C_35
   12  A    between atoms: C_7  and  C_14
   13  A    between atoms: C_7  and  C_27
   14  A    between atoms: C_9  and  C_13
   15  A    between atoms: C_9  and  C_16
   16  A    between atoms: O_10  and  C_14
   17  A    between atoms: O_11  and  C_33
   18  A    between atoms: C_13  and  C_20
   19  A    between atoms: C_14  and  C_31
   20  A    between atoms: C_20  and  C_21
   21  A    between atoms: C_26  and  C_33
   22  A    between atoms: C_27  and  C_33
                            x       y       z     vdW  Elec       q    Type
                         _______ _______ _______ _____ _____    ______ ____

>  <TORSDO>
F 22

$$$$
