=
 OpenBabel11052416463D

 32 38  0  0  1  0  0  0  0  0999 V2000
  187.0180  177.2720  137.0470 C   0  0  0  0  0  3  0  0  0  0  0  0
  187.6550  178.0110  142.2810 C   0  0  0  0  0  0  0  0  0  0  0  0
  183.0540  179.0700  143.5310 C   0  0  0  0  0  3  0  0  0  0  0  0
  183.3860  178.9350  144.8780 C   0  0  0  0  0  3  0  0  0  0  0  0
  189.3800  177.5350  144.1180 C   0  0  0  0  0  0  0  0  0  0  0  0
  189.5890  177.4180  145.5590 C   0  0  0  0  0  0  0  0  0  0  0  0
  188.3360  178.2930  139.8550 C   0  0  2  0  0  3  0  0  0  0  0  0
  185.9580  178.5710  140.4580 C   0  0  0  0  0  2  0  0  0  0  0  0
  188.9870  177.4670  147.7880 C   0  0  0  0  0  0  0  0  0  0  0  0
  186.5750  178.2910  138.0670 C   0  0  0  0  0  2  0  0  0  0  0  0
  184.0260  178.8730  142.5510 C   0  0  0  0  0  3  0  0  0  0  0  0
  186.3230  178.3340  141.9100 C   0  0  0  0  0  0  0  0  0  0  0  0
  185.3460  178.5370  142.9010 C   0  0  0  0  0  0  0  0  0  0  0  0
  186.9890  178.0770  144.6490 C   0  0  0  0  0  0  0  0  0  0  0  0
  190.4410  177.1250  147.7180 C   0  0  0  0  0  2  0  0  0  0  0  0
  189.0930  176.4870  138.2570 C   0  0  0  0  0  2  0  0  0  0  0  0
  186.9080  177.8840  139.4930 C   0  0  1  0  0  3  0  0  0  0  0  0
  190.7030  177.1280  146.2260 C   0  0  0  0  0  3  0  0  0  0  0  0
  189.3780  177.8770  138.8110 C   0  0  0  0  0  2  0  0  0  0  0  0
  188.1290  176.5040  137.0900 C   0  0  0  0  0  0  0  0  0  0  0  0
  184.6910  178.6030  145.2450 C   0  0  0  0  0  3  0  0  0  0  0  0
  185.6800  178.4020  144.2680 C   0  0  0  0  0  0  0  0  0  0  0  0
  187.3000  177.9430  146.0560 N   0  0  0  0  0  0  0  0  0  0  0  0
  188.6810  177.6970  141.2120 C   0  0  0  0  0  2  0  0  0  0  0  0
  190.3440  177.3600  143.3250 O   0  0  0  0  0  0  0  0  0  0  0  0
  188.3090  177.5840  148.8430 O   0  0  0  0  0  0  0  0  0  0  0  0
  187.9960  177.8780  143.6530 C   0  0  0  0  0  0  0  0  0  0  0  0
  188.4970  177.6390  146.4490 C   0  0  0  0  0  0  0  0  0  0  0  0
  188.1940  174.1690  136.2040 C   0  0  0  0  0  0  0  0  0  0  0  0
  188.4510  175.6490  135.8920 C   0  0  1  0  0  3  0  0  0  0  0  0
  188.4890  173.1130  136.7380 O   0  0  0  0  0  0  0  0  0  0  0  0
  187.2740  175.0350  135.3520 C   0  0  0  0  0  2  0  0  0  0  0  0
  1 20  2  0  0  0  0
  1 10  1  0  0  0  0
  2 27  1  0  0  0  0
  3  4  1  0  0  0  0
  4 21  2  0  0  0  0
  5  6  1  0  0  0  0
  6 18  2  0  0  0  0
  6 28  1  0  0  0  0
  7 19  1  6  0  0  0
  7 24  1  0  0  0  0
  8 12  1  0  0  0  0
  9 26  2  0  0  0  0
 11 13  1  0  0  0  0
 11  3  2  0  0  0  0
 12  2  2  0  0  0  0
 12 13  1  0  0  0  0
 13 22  2  0  0  0  0
 14 23  1  0  0  0  0
 15  9  1  0  0  0  0
 16 19  1  0  0  0  0
 17 10  1  6  0  0  0
 17  7  1  0  0  0  0
 17  8  1  0  0  0  0
 18 15  1  0  0  0  0
 20 16  1  0  0  0  0
 22 14  1  0  0  0  0
 22 21  1  0  0  0  0
 23 28  2  0  0  0  0
 24  2  1  0  0  0  0
 25  5  2  0  0  0  0
 27  5  1  0  0  0  0
 27 14  2  0  0  0  0
 28  9  1  0  0  0  0
 29 31  2  0  0  0  0
 30 29  1  0  0  0  0
 30 20  1  1  0  0  0
 32 30  1  0  0  0  0
 32 29  1  0  0  0  0
M  END
>  <MODEL>
1

>  <REMARK>
 VINA RESULT:     -11.5      0.000      0.000
  Name = 
  1 active torsions:
  status: ('A' for Active; 'I' for Inactive)
    1  A    between atoms: C_10  and  C_24
                            x       y       z     vdW  Elec       q    Type
                         _______ _______ _______ _____ _____    ______ ____

>  <TORSDO>
F 1

$$$$
=
 OpenBabel11052416463D

 32 38  0  0  1  0  0  0  0  0999 V2000
  189.2310  176.6460  136.6060 C   0  0  0  0  0  3  0  0  0  0  0  0
  189.1510  177.5420  141.8540 C   0  0  0  0  0  0  0  0  0  0  0  0
  184.4860  178.8870  142.3910 C   0  0  0  0  0  3  0  0  0  0  0  0
  184.6140  178.7840  143.7760 C   0  0  0  0  0  3  0  0  0  0  0  0
  190.5650  177.0430  143.9350 C   0  0  0  0  0  0  0  0  0  0  0  0
  190.5570  176.9680  145.3930 C   0  0  0  0  0  0  0  0  0  0  0  0
  190.1890  177.6980  139.5460 C   0  0  2  0  0  3  0  0  0  0  0  0
  187.7680  178.1230  139.7890 C   0  0  0  0  0  2  0  0  0  0  0  0
  189.6460  177.1300  147.5100 C   0  0  0  0  0  0  0  0  0  0  0  0
  188.7050  177.7240  137.5210 C   0  0  0  0  0  2  0  0  0  0  0  0
  185.5770  178.6030  141.5680 C   0  0  0  0  0  3  0  0  0  0  0  0
  187.9070  177.9200  141.2840 C   0  0  0  0  0  0  0  0  0  0  0  0
  186.8110  178.2110  142.1160 C   0  0  0  0  0  0  0  0  0  0  0  0
  188.1570  177.7290  144.0970 C   0  0  0  0  0  0  0  0  0  0  0  0
  191.0720  176.7090  147.6610 C   0  0  0  0  0  2  0  0  0  0  0  0
  191.0610  175.7980  138.1260 C   0  0  0  0  0  2  0  0  0  0  0  0
  188.8060  177.3520  138.9920 C   0  0  1  0  0  3  0  0  0  0  0  0
  191.5460  176.6440  146.2230 C   0  0  0  0  0  3  0  0  0  0  0  0
  191.3430  177.1900  138.6760 C   0  0  0  0  0  2  0  0  0  0  0  0
  190.2780  175.8230  136.8320 C   0  0  0  0  0  0  0  0  0  0  0  0
  185.8320  178.3970  144.3370 C   0  0  0  0  0  3  0  0  0  0  0  0
  186.9370  178.1090  143.5210 C   0  0  0  0  0  0  0  0  0  0  0  0
  188.2550  177.6310  145.5380 N   0  0  0  0  0  0  0  0  0  0  0  0
  190.3000  177.1350  140.9550 C   0  0  0  0  0  2  0  0  0  0  0  0
  191.6200  176.7880  143.2950 O   0  0  0  0  0  0  0  0  0  0  0  0
  188.8310  177.3210  148.4500 O   0  0  0  0  0  0  0  0  0  0  0  0
  189.2830  177.4410  143.2640 C   0  0  0  0  0  0  0  0  0  0  0  0
  189.3640  177.2790  146.1090 C   0  0  0  0  0  0  0  0  0  0  0  0
  192.1180  175.3000  135.2260 C   0  0  0  0  0  0  0  0  0  0  0  0
  190.7190  174.9090  135.7180 C   0  0  1  0  0  3  0  0  0  0  0  0
  192.8800  176.0270  134.6100 O   0  0  0  0  0  0  0  0  0  0  0  0
  191.8310  174.0960  136.1140 C   0  0  0  0  0  2  0  0  0  0  0  0
  1 20  2  0  0  0  0
  1 10  1  0  0  0  0
  2 27  1  0  0  0  0
  3  4  1  0  0  0  0
  4 21  2  0  0  0  0
  5  6  1  0  0  0  0
  6 28  1  0  0  0  0
  6 18  2  0  0  0  0
  7 19  1  6  0  0  0
  7 24  1  0  0  0  0
  8 12  1  0  0  0  0
  9 15  1  0  0  0  0
  9 26  2  0  0  0  0
 11 13  1  0  0  0  0
 11  3  2  0  0  0  0
 12  2  2  0  0  0  0
 12 13  1  0  0  0  0
 13 22  2  0  0  0  0
 14 23  1  0  0  0  0
 16 19  1  0  0  0  0
 17 10  1  6  0  0  0
 17  7  1  0  0  0  0
 17  8  1  0  0  0  0
 18 15  1  0  0  0  0
 20 16  1  0  0  0  0
 22 14  1  0  0  0  0
 22 21  1  0  0  0  0
 23 28  2  0  0  0  0
 24  2  1  0  0  0  0
 25  5  2  0  0  0  0
 27  5  1  0  0  0  0
 27 14  2  0  0  0  0
 28  9  1  0  0  0  0
 29 30  1  0  0  0  0
 29 32  1  0  0  0  0
 30 32  1  0  0  0  0
 30 20  1  1  0  0  0
 31 29  2  0  0  0  0
M  END
>  <MODEL>
2

>  <REMARK>
 VINA RESULT:     -10.9      1.780      2.190
  Name = 
  1 active torsions:
  status: ('A' for Active; 'I' for Inactive)
    1  A    between atoms: C_10  and  C_24
                            x       y       z     vdW  Elec       q    Type
                         _______ _______ _______ _____ _____    ______ ____

>  <TORSDO>
F 1

$$$$
=
 OpenBabel11052416463D

 32 38  0  0  1  0  0  0  0  0999 V2000
  183.2380  178.7910  145.0620 C   0  0  0  0  0  3  0  0  0  0  0  0
  187.7150  178.0330  142.2830 C   0  0  0  0  0  0  0  0  0  0  0  0
  190.6800  176.5700  145.8770 C   0  0  0  0  0  3  0  0  0  0  0  0
  191.6290  176.1710  144.9360 C   0  0  0  0  0  3  0  0  0  0  0  0
  188.4750  177.7860  139.8460 C   0  0  0  0  0  0  0  0  0  0  0  0
  189.5470  177.3200  138.9710 C   0  0  0  0  0  0  0  0  0  0  0  0
  185.6260  179.3300  142.9010 C   0  0  2  0  0  3  0  0  0  0  0  0
  186.9980  178.3590  144.7100 C   0  0  0  0  0  2  0  0  0  0  0  0
  191.6030  176.3990  138.4600 C   0  0  0  0  0  0  0  0  0  0  0  0
  184.6960  179.1420  145.2250 C   0  0  0  0  0  2  0  0  0  0  0  0
  189.4730  177.1280  145.4570 C   0  0  0  0  0  3  0  0  0  0  0  0
  187.9740  177.8550  143.6670 C   0  0  0  0  0  0  0  0  0  0  0  0
  189.1950  177.2960  144.0880 C   0  0  0  0  0  0  0  0  0  0  0  0
  189.9130  177.0560  141.7660 C   0  0  0  0  0  0  0  0  0  0  0  0
  190.9320  176.7530  137.1710 C   0  0  0  0  0  2  0  0  0  0  0  0
  183.2250  178.6290  142.5410 C   0  0  0  0  0  2  0  0  0  0  0  0
  185.5820  178.4880  144.1770 C   0  0  1  0  0  3  0  0  0  0  0  0
  189.6160  177.3390  137.6420 C   0  0  0  0  0  3  0  0  0  0  0  0
  184.2430  179.7530  142.3960 C   0  0  0  0  0  2  0  0  0  0  0  0
  182.5680  178.6010  143.9040 C   0  0  0  0  0  0  0  0  0  0  0  0
  191.3700  176.3320  143.5740 C   0  0  0  0  0  3  0  0  0  0  0  0
  190.1590  176.8920  143.1370 C   0  0  0  0  0  0  0  0  0  0  0  0
  190.9180  176.6310  140.8160 N   0  0  0  0  0  0  0  0  0  0  0  0
  186.3640  178.5430  141.8280 C   0  0  0  0  0  2  0  0  0  0  0  0
  187.4360  178.3000  139.3510 O   0  0  0  0  0  0  0  0  0  0  0  0
  192.7420  175.8750  138.5760 O   0  0  0  0  0  0  0  0  0  0  0  0
  188.6820  177.6320  141.3230 C   0  0  0  0  0  0  0  0  0  0  0  0
  190.7280  176.7600  139.5410 C   0  0  0  0  0  0  0  0  0  0  0  0
  180.3460  179.5150  143.2190 C   0  0  0  0  0  0  0  0  0  0  0  0
  181.0770  178.3940  143.9690 C   0  0  1  0  0  3  0  0  0  0  0  0
  179.9430  180.6620  143.1220 O   0  0  0  0  0  0  0  0  0  0  0  0
  180.5300  178.1030  142.6760 C   0  0  0  0  0  2  0  0  0  0  0  0
  1 10  1  0  0  0  0
  2 12  1  0  0  0  0
  4  3  1  0  0  0  0
  5 27  1  0  0  0  0
  6 28  1  0  0  0  0
  6  5  1  0  0  0  0
  7 24  1  6  0  0  0
  7 17  1  0  0  0  0
  9 26  2  0  0  0  0
  9 28  1  0  0  0  0
 11  3  2  0  0  0  0
 12 13  2  0  0  0  0
 12  8  1  0  0  0  0
 13 11  1  0  0  0  0
 14 22  2  0  0  0  0
 15 18  1  0  0  0  0
 15  9  1  0  0  0  0
 16 20  1  0  0  0  0
 17  8  1  1  0  0  0
 17 10  1  0  0  0  0
 18  6  2  0  0  0  0
 19 16  1  0  0  0  0
 19  7  1  0  0  0  0
 20  1  2  0  0  0  0
 21  4  2  0  0  0  0
 22 21  1  0  0  0  0
 22 13  1  0  0  0  0
 23 14  1  0  0  0  0
 24  2  1  0  0  0  0
 25  5  2  0  0  0  0
 27 14  1  0  0  0  0
 27  2  2  0  0  0  0
 28 23  2  0  0  0  0
 29 30  1  0  0  0  0
 30 20  1  6  0  0  0
 31 29  2  0  0  0  0
 32 29  1  0  0  0  0
 32 30  1  0  0  0  0
M  END
>  <MODEL>
3

>  <REMARK>
 VINA RESULT:     -10.9      2.874      7.572
  Name = 
  1 active torsions:
  status: ('A' for Active; 'I' for Inactive)
    1  A    between atoms: C_10  and  C_24
                            x       y       z     vdW  Elec       q    Type
                         _______ _______ _______ _____ _____    ______ ____

>  <TORSDO>
F 1

$$$$
=
 OpenBabel11052416463D

 32 38  0  0  1  0  0  0  0  0999 V2000
  180.9360  178.3200  139.8610 C   0  0  0  0  0  3  0  0  0  0  0  0
  185.8480  178.3880  141.9130 C   0  0  0  0  0  0  0  0  0  0  0  0
  184.7550  178.3580  146.6730 C   0  0  0  0  0  3  0  0  0  0  0  0
  186.0880  178.0920  146.9810 C   0  0  0  0  0  3  0  0  0  0  0  0
  188.2710  177.9820  141.1760 C   0  0  0  0  0  0  0  0  0  0  0  0
  189.6270  177.6960  141.6360 C   0  0  0  0  0  0  0  0  0  0  0  0
  184.0680  179.1470  140.2760 C   0  0  2  0  0  3  0  0  0  0  0  0
  183.4550  178.8770  142.6520 C   0  0  0  0  0  2  0  0  0  0  0  0
  191.2870  177.3000  143.1930 C   0  0  0  0  0  0  0  0  0  0  0  0
  181.6520  179.0750  140.9530 C   0  0  0  0  0  2  0  0  0  0  0  0
  184.3600  178.4960  145.3420 C   0  0  0  0  0  3  0  0  0  0  0  0
  184.8920  178.5020  142.9550 C   0  0  0  0  0  0  0  0  0  0  0  0
  185.2930  178.3680  144.2970 C   0  0  0  0  0  0  0  0  0  0  0  0
  187.5980  177.9760  143.5920 C   0  0  0  0  0  0  0  0  0  0  0  0
  191.9160  177.2550  141.8380 C   0  0  0  0  0  2  0  0  0  0  0  0
  182.9670  177.7730  138.4620 C   0  0  0  0  0  2  0  0  0  0  0  0
  183.0440  178.5330  141.2310 C   0  0  1  0  0  3  0  0  0  0  0  0
  190.7380  177.5270  140.9240 C   0  0  0  0  0  3  0  0  0  0  0  0
  183.6430  179.0950  138.8040 C   0  0  0  0  0  2  0  0  0  0  0  0
  181.4810  177.7790  138.7500 C   0  0  0  0  0  0  0  0  0  0  0  0
  187.0280  177.9640  145.9560 C   0  0  0  0  0  3  0  0  0  0  0  0
  186.6450  178.1000  144.6130 C   0  0  0  0  0  0  0  0  0  0  0  0
  188.9740  177.6980  143.9460 N   0  0  0  0  0  0  0  0  0  0  0  0
  185.3980  178.4340  140.4680 C   0  0  0  0  0  2  0  0  0  0  0  0
  188.0370  178.1120  139.9440 O   0  0  0  0  0  0  0  0  0  0  0  0
  191.8850  177.1300  144.2880 O   0  0  0  0  0  0  0  0  0  0  0  0
  187.2080  178.1200  142.2250 C   0  0  0  0  0  0  0  0  0  0  0  0
  189.8850  177.5720  143.0330 C   0  0  0  0  0  0  0  0  0  0  0  0
  179.9500  178.2920  136.8440 C   0  0  0  0  0  0  0  0  0  0  0  0
  180.5570  177.1870  137.7180 C   0  0  1  0  0  3  0  0  0  0  0  0
  179.1760  179.2170  136.6600 O   0  0  0  0  0  0  0  0  0  0  0  0
  181.0690  177.3640  136.3900 C   0  0  0  0  0  2  0  0  0  0  0  0
  1 10  1  0  0  0  0
  2 27  2  0  0  0  0
  2 12  1  0  0  0  0
  3  4  1  0  0  0  0
  5  6  1  0  0  0  0
  5 27  1  0  0  0  0
  6 28  1  0  0  0  0
  7 19  1  6  0  0  0
  7 24  1  0  0  0  0
  7 17  1  0  0  0  0
  8 12  1  0  0  0  0
  9 26  2  0  0  0  0
 11  3  2  0  0  0  0
 12 13  2  0  0  0  0
 13 22  1  0  0  0  0
 13 11  1  0  0  0  0
 14 23  1  0  0  0  0
 14 22  2  0  0  0  0
 15  9  1  0  0  0  0
 16 20  1  0  0  0  0
 16 19  1  0  0  0  0
 17 10  1  6  0  0  0
 17  8  1  0  0  0  0
 18  6  2  0  0  0  0
 18 15  1  0  0  0  0
 20  1  2  0  0  0  0
 21  4  2  0  0  0  0
 22 21  1  0  0  0  0
 24  2  1  0  0  0  0
 25  5  2  0  0  0  0
 27 14  1  0  0  0  0
 28  9  1  0  0  0  0
 28 23  2  0  0  0  0
 29 30  1  0  0  0  0
 30 20  1  1  0  0  0
 31 29  2  0  0  0  0
 32 29  1  0  0  0  0
 32 30  1  0  0  0  0
M  END
>  <MODEL>
4

>  <REMARK>
 VINA RESULT:     -10.3      3.440      5.085
  Name = 
  1 active torsions:
  status: ('A' for Active; 'I' for Inactive)
    1  A    between atoms: C_10  and  C_24
                            x       y       z     vdW  Elec       q    Type
                         _______ _______ _______ _____ _____    ______ ____

>  <TORSDO>
F 1

$$$$
=
 OpenBabel11052416463D

 32 38  0  0  1  0  0  0  0  0999 V2000
  191.7980  176.8630  144.2460 C   0  0  0  0  0  3  0  0  0  0  0  0
  186.9200  178.3290  142.6950 C   0  0  0  0  0  0  0  0  0  0  0  0
  187.5120  178.1680  137.8490 C   0  0  0  0  0  3  0  0  0  0  0  0
  186.1340  178.2840  137.6740 C   0  0  0  0  0  3  0  0  0  0  0  0
  184.5590  178.5700  143.6670 C   0  0  0  0  0  0  0  0  0  0  0  0
  183.1400  178.6770  143.3420 C   0  0  0  0  0  0  0  0  0  0  0  0
  188.9860  178.5210  144.1520 C   0  0  2  0  0  3  0  0  0  0  0  0
  189.2760  178.1770  141.7240 C   0  0  0  0  0  2  0  0  0  0  0  0
  181.2960  178.8000  141.9550 C   0  0  0  0  0  0  0  0  0  0  0  0
  191.2160  177.8210  143.2360 C   0  0  0  0  0  2  0  0  0  0  0  0
  188.0520  178.1480  139.1350 C   0  0  0  0  0  3  0  0  0  0  0  0
  187.7700  178.2160  141.5630 C   0  0  0  0  0  0  0  0  0  0  0  0
  187.2230  178.2420  140.2670 C   0  0  0  0  0  0  0  0  0  0  0  0
  184.9750  178.4650  141.1950 C   0  0  0  0  0  0  0  0  0  0  0  0
  180.8080  178.8790  143.3670 C   0  0  0  0  0  2  0  0  0  0  0  0
  189.8350  176.8390  145.8360 C   0  0  0  0  0  2  0  0  0  0  0  0
  189.7090  177.6860  143.0940 C   0  0  1  0  0  3  0  0  0  0  0  0
  182.0970  178.7910  144.1600 C   0  0  0  0  0  3  0  0  0  0  0  0
  189.5170  178.3050  145.5730 C   0  0  0  0  0  2  0  0  0  0  0  0
  191.2330  176.4520  145.4020 C   0  0  0  0  0  0  0  0  0  0  0  0
  185.2960  178.3790  138.7860 C   0  0  0  0  0  3  0  0  0  0  0  0
  185.8260  178.3600  140.0860 C   0  0  0  0  0  0  0  0  0  0  0  0
  183.5480  178.5820  140.9790 N   0  0  0  0  0  0  0  0  0  0  0  0
  187.5000  178.2020  144.0880 C   0  0  0  0  0  2  0  0  0  0  0  0
  184.9340  178.5880  144.8700 O   0  0  0  0  0  0  0  0  0  0  0  0
  180.5740  178.8350  140.9250 O   0  0  0  0  0  0  0  0  0  0  0  0
  185.5170  178.4510  142.5180 C   0  0  0  0  0  0  0  0  0  0  0  0
  182.7270  178.6760  141.9770 C   0  0  0  0  0  0  0  0  0  0  0  0
  192.1050  176.2240  147.7320 C   0  0  0  0  0  0  0  0  0  0  0  0
  192.0530  175.5970  146.3320 C   0  0  1  0  0  3  0  0  0  0  0  0
  192.5110  177.0580  148.5240 O   0  0  0  0  0  0  0  0  0  0  0  0
  191.2450  175.0210  147.3670 C   0  0  0  0  0  2  0  0  0  0  0  0
  1 20  2  0  0  0  0
  2 24  1  0  0  0  0
  3 11  1  0  0  0  0
  4  3  2  0  0  0  0
  4 21  1  0  0  0  0
  5 25  2  0  0  0  0
  6  5  1  0  0  0  0
  6 18  2  0  0  0  0
  7 24  1  1  0  0  0
  7 19  1  0  0  0  0
  9 28  1  0  0  0  0
  9 15  1  0  0  0  0
 10  1  1  0  0  0  0
 11 13  2  0  0  0  0
 12  8  1  0  0  0  0
 12  2  2  0  0  0  0
 13 12  1  0  0  0  0
 14 27  2  0  0  0  0
 15 18  1  0  0  0  0
 17  8  1  6  0  0  0
 17 10  1  0  0  0  0
 17  7  1  0  0  0  0
 19 16  1  0  0  0  0
 20 16  1  0  0  0  0
 21 22  2  0  0  0  0
 22 13  1  0  0  0  0
 22 14  1  0  0  0  0
 23 14  1  0  0  0  0
 23 28  2  0  0  0  0
 26  9  2  0  0  0  0
 27  2  1  0  0  0  0
 27  5  1  0  0  0  0
 28  6  1  0  0  0  0
 29 31  2  0  0  0  0
 30 20  1  6  0  0  0
 30 32  1  0  0  0  0
 30 29  1  0  0  0  0
 32 29  1  0  0  0  0
M  END
>  <MODEL>
5

>  <REMARK>
 VINA RESULT:      -9.8      2.980      7.557
  Name = 
  1 active torsions:
  status: ('A' for Active; 'I' for Inactive)
    1  A    between atoms: C_10  and  C_24
                            x       y       z     vdW  Elec       q    Type
                         _______ _______ _______ _____ _____    ______ ____

>  <TORSDO>
F 1

$$$$
=
 OpenBabel11052416463D

 32 38  0  0  1  0  0  0  0  0999 V2000
  191.1110  176.3640  136.7130 C   0  0  0  0  0  3  0  0  0  0  0  0
  189.4330  177.5690  141.6200 C   0  0  0  0  0  0  0  0  0  0  0  0
  184.8580  178.9510  140.6120 C   0  0  0  0  0  3  0  0  0  0  0  0
  184.5500  178.9300  141.9710 C   0  0  0  0  0  3  0  0  0  0  0  0
  190.1250  177.1930  144.0600 C   0  0  0  0  0  0  0  0  0  0  0  0
  189.6670  177.2040  145.4460 C   0  0  0  0  0  0  0  0  0  0  0  0
  191.1350  177.5870  139.7410 C   0  0  2  0  0  3  0  0  0  0  0  0
  188.7670  178.0290  139.1990 C   0  0  0  0  0  2  0  0  0  0  0  0
  188.1500  177.4930  147.1650 C   0  0  0  0  0  0  0  0  0  0  0  0
  190.3500  177.4950  137.3580 C   0  0  0  0  0  2  0  0  0  0  0  0
  186.1430  178.6170  140.1840 C   0  0  0  0  0  3  0  0  0  0  0  0
  188.4340  177.9150  140.6730 C   0  0  0  0  0  0  0  0  0  0  0  0
  187.1400  178.2560  141.1080 C   0  0  0  0  0  0  0  0  0  0  0  0
  187.8000  177.8910  143.4310 C   0  0  0  0  0  0  0  0  0  0  0  0
  189.4520  177.0800  147.7740 C   0  0  0  0  0  2  0  0  0  0  0  0
  192.3660  175.6040  138.7690 C   0  0  0  0  0  2  0  0  0  0  0  0
  189.9850  177.2110  138.8060 C   0  0  1  0  0  3  0  0  0  0  0  0
  190.3440  176.9290  146.5580 C   0  0  0  0  0  3  0  0  0  0  0  0
  192.4920  177.0260  139.3010 C   0  0  0  0  0  2  0  0  0  0  0  0
  192.0210  175.5530  137.2970 C   0  0  0  0  0  0  0  0  0  0  0  0
  185.5270  178.5760  142.9030 C   0  0  0  0  0  3  0  0  0  0  0  0
  186.8240  178.2380  142.4860 C   0  0  0  0  0  0  0  0  0  0  0  0
  187.4460  177.8780  144.8350 N   0  0  0  0  0  0  0  0  0  0  0  0
  190.7950  177.1080  141.1440 C   0  0  0  0  0  2  0  0  0  0  0  0
  191.3220  176.8990  143.7940 O   0  0  0  0  0  0  0  0  0  0  0  0
  187.0890  177.7410  147.7950 O   0  0  0  0  0  0  0  0  0  0  0  0
  189.1210  177.5520  143.0050 C   0  0  0  0  0  0  0  0  0  0  0  0
  188.3170  177.5590  145.7390 C   0  0  0  0  0  0  0  0  0  0  0  0
  194.1940  175.0690  136.1650 C   0  0  0  0  0  0  0  0  0  0  0  0
  192.7660  174.5750  136.4270 C   0  0  1  0  0  3  0  0  0  0  0  0
  194.9960  175.8050  135.6130 O   0  0  0  0  0  0  0  0  0  0  0  0
  193.8430  173.9520  137.1400 C   0  0  0  0  0  2  0  0  0  0  0  0
  1 20  2  0  0  0  0
  1 10  1  0  0  0  0
  2 27  1  0  0  0  0
  3  4  1  0  0  0  0
  4 21  2  0  0  0  0
  5  6  1  0  0  0  0
  6 28  1  0  0  0  0
  6 18  2  0  0  0  0
  7 19  1  6  0  0  0
  7 24  1  0  0  0  0
  8 12  1  0  0  0  0
  9 15  1  0  0  0  0
  9 26  2  0  0  0  0
 11  3  2  0  0  0  0
 11 13  1  0  0  0  0
 12 13  1  0  0  0  0
 12  2  2  0  0  0  0
 13 22  2  0  0  0  0
 14 23  1  0  0  0  0
 16 19  1  0  0  0  0
 17 10  1  6  0  0  0
 17  8  1  0  0  0  0
 17  7  1  0  0  0  0
 18 15  1  0  0  0  0
 20 16  1  0  0  0  0
 22 21  1  0  0  0  0
 22 14  1  0  0  0  0
 23 28  2  0  0  0  0
 24  2  1  0  0  0  0
 25  5  2  0  0  0  0
 27 14  2  0  0  0  0
 27  5  1  0  0  0  0
 28  9  1  0  0  0  0
 29 30  1  0  0  0  0
 29 32  1  0  0  0  0
 30 32  1  0  0  0  0
 30 20  1  1  0  0  0
 31 29  2  0  0  0  0
M  END
>  <MODEL>
6

>  <REMARK>
 VINA RESULT:      -9.7      2.506      3.222
  Name = 
  1 active torsions:
  status: ('A' for Active; 'I' for Inactive)
    1  A    between atoms: C_10  and  C_24
                            x       y       z     vdW  Elec       q    Type
                         _______ _______ _______ _____ _____    ______ ____

>  <TORSDO>
F 1

$$$$
=
 OpenBabel11052416463D

 32 38  0  0  1  0  0  0  0  0999 V2000
  181.5350  178.3800  141.8610 C   0  0  0  0  0  3  0  0  0  0  0  0
  186.8490  178.2500  141.5630 C   0  0  0  0  0  0  0  0  0  0  0  0
  187.9250  177.6060  146.2830 C   0  0  0  0  0  3  0  0  0  0  0  0
  189.2470  177.3210  145.9460 C   0  0  0  0  0  3  0  0  0  0  0  0
  188.6930  177.9720  139.8030 C   0  0  0  0  0  0  0  0  0  0  0  0
  190.1000  177.6470  139.5890 C   0  0  0  0  0  0  0  0  0  0  0  0
  184.5700  179.1880  140.9670 C   0  0  2  0  0  3  0  0  0  0  0  0
  185.0350  178.6120  143.3230 C   0  0  0  0  0  2  0  0  0  0  0  0
  192.2520  177.0790  140.2090 C   0  0  0  0  0  0  0  0  0  0  0  0
  182.6850  179.0010  142.6140 C   0  0  0  0  0  2  0  0  0  0  0  0
  186.9990  177.9060  145.2840 C   0  0  0  0  0  3  0  0  0  0  0  0
  186.4440  178.2210  142.9230 C   0  0  0  0  0  0  0  0  0  0  0  0
  187.3810  177.9230  143.9300 C   0  0  0  0  0  0  0  0  0  0  0  0
  189.1340  177.6530  142.2510 C   0  0  0  0  0  0  0  0  0  0  0  0
  192.2300  177.2130  138.7200 C   0  0  0  0  0  2  0  0  0  0  0  0
  182.7340  178.0410  139.6630 C   0  0  0  0  0  2  0  0  0  0  0  0
  184.0360  178.4450  142.1920 C   0  0  1  0  0  3  0  0  0  0  0  0
  190.7850  177.5840  138.4500 C   0  0  0  0  0  3  0  0  0  0  0  0
  183.5480  179.3170  139.8320 C   0  0  0  0  0  2  0  0  0  0  0  0
  181.5210  177.9910  140.5670 C   0  0  0  0  0  0  0  0  0  0  0  0
  189.6430  177.3340  144.6070 C   0  0  0  0  0  3  0  0  0  0  0  0
  188.7220  177.6340  143.5910 C   0  0  0  0  0  0  0  0  0  0  0  0
  190.5140  177.3500  141.9350 N   0  0  0  0  0  0  0  0  0  0  0  0
  185.8200  178.4740  140.4750 C   0  0  0  0  0  2  0  0  0  0  0  0
  187.9550  178.2530  138.8210 O   0  0  0  0  0  0  0  0  0  0  0  0
  193.2570  176.7800  140.9060 O   0  0  0  0  0  0  0  0  0  0  0  0
  188.1960  177.9630  141.2180 C   0  0  0  0  0  0  0  0  0  0  0  0
  190.9330  177.3510  140.7090 C   0  0  0  0  0  0  0  0  0  0  0  0
  179.5500  178.6530  139.1830 C   0  0  0  0  0  0  0  0  0  0  0  0
  180.2160  177.5220  139.9780 C   0  0  1  0  0  3  0  0  0  0  0  0
  178.9310  179.7010  139.1130 O   0  0  0  0  0  0  0  0  0  0  0  0
  180.2730  177.4730  138.5460 C   0  0  0  0  0  2  0  0  0  0  0  0
  1 10  1  0  0  0  0
  2 12  1  0  0  0  0
  4  3  1  0  0  0  0
  5 27  1  0  0  0  0
  6  5  1  0  0  0  0
  6 28  1  0  0  0  0
  7 19  1  6  0  0  0
  7 17  1  0  0  0  0
  9 28  1  0  0  0  0
  9 26  2  0  0  0  0
 11  3  2  0  0  0  0
 12  8  1  0  0  0  0
 12 13  2  0  0  0  0
 13 11  1  0  0  0  0
 14 22  2  0  0  0  0
 15  9  1  0  0  0  0
 16 19  1  0  0  0  0
 16 20  1  0  0  0  0
 17 10  1  1  0  0  0
 17  8  1  0  0  0  0
 18 15  1  0  0  0  0
 18  6  2  0  0  0  0
 20  1  2  0  0  0  0
 21  4  2  0  0  0  0
 22 13  1  0  0  0  0
 22 21  1  0  0  0  0
 23 14  1  0  0  0  0
 24  7  1  0  0  0  0
 24  2  1  0  0  0  0
 25  5  2  0  0  0  0
 27  2  2  0  0  0  0
 27 14  1  0  0  0  0
 28 23  2  0  0  0  0
 29 30  1  0  0  0  0
 30 20  1  1  0  0  0
 31 29  2  0  0  0  0
 32 29  1  0  0  0  0
 32 30  1  0  0  0  0
M  END
>  <MODEL>
7

>  <REMARK>
 VINA RESULT:      -9.4      3.392      6.320
  Name = 
  1 active torsions:
  status: ('A' for Active; 'I' for Inactive)
    1  A    between atoms: C_10  and  C_24
                            x       y       z     vdW  Elec       q    Type
                         _______ _______ _______ _____ _____    ______ ____

>  <TORSDO>
F 1

$$$$
=
 OpenBabel11052416463D

 32 38  0  0  1  0  0  0  0  0999 V2000
  191.1510  177.2630  145.6280 C   0  0  0  0  0  3  0  0  0  0  0  0
  189.4240  177.6210  140.6040 C   0  0  0  0  0  0  0  0  0  0  0  0
  193.4570  176.2050  138.2420 C   0  0  0  0  0  3  0  0  0  0  0  0
  192.7280  176.0940  137.0580 C   0  0  0  0  0  3  0  0  0  0  0  0
  187.2160  177.8240  139.3160 C   0  0  0  0  0  0  0  0  0  0  0  0
  186.5740  177.6590  138.0150 C   0  0  0  0  0  0  0  0  0  0  0  0
  189.6590  178.4660  142.9840 C   0  0  2  0  0  3  0  0  0  0  0  0
  191.6400  177.5040  141.8660 C   0  0  0  0  0  2  0  0  0  0  0  0
  186.4690  177.1620  135.7610 C   0  0  0  0  0  0  0  0  0  0  0  0
  191.6780  177.8250  144.3300 C   0  0  0  0  0  2  0  0  0  0  0  0
  192.8220  176.6080  139.4160 C   0  0  0  0  0  3  0  0  0  0  0  0
  190.8080  177.3080  140.6140 C   0  0  0  0  0  0  0  0  0  0  0  0
  191.4470  176.9060  139.4270 C   0  0  0  0  0  0  0  0  0  0  0  0
  189.3420  177.0940  138.2030 C   0  0  0  0  0  0  0  0  0  0  0  0
  185.0980  177.5670  136.2000 C   0  0  0  0  0  2  0  0  0  0  0  0
  188.6920  177.4340  145.0780 C   0  0  0  0  0  2  0  0  0  0  0  0
  190.8080  177.4680  143.1360 C   0  0  1  0  0  3  0  0  0  0  0  0
  185.3040  177.8630  137.6720 C   0  0  0  0  0  3  0  0  0  0  0  0
  188.8890  178.7180  144.2840 C   0  0  0  0  0  2  0  0  0  0  0  0
  189.8580  177.1200  145.9900 C   0  0  0  0  0  0  0  0  0  0  0  0
  191.3630  176.3870  137.0500 C   0  0  0  0  0  3  0  0  0  0  0  0
  190.7120  176.7940  138.2250 C   0  0  0  0  0  0  0  0  0  0  0  0
  188.6140  176.9670  136.9580 N   0  0  0  0  0  0  0  0  0  0  0  0
  188.7180  177.9580  141.9010 C   0  0  0  0  0  2  0  0  0  0  0  0
  186.5440  178.2210  140.3050 O   0  0  0  0  0  0  0  0  0  0  0  0
  186.7970  176.8220  134.5940 O   0  0  0  0  0  0  0  0  0  0  0  0
  188.6810  177.5130  139.3990 C   0  0  0  0  0  0  0  0  0  0  0  0
  187.3470  177.2300  136.8970 C   0  0  0  0  0  0  0  0  0  0  0  0
  189.2230  177.8660  148.2880 C   0  0  0  0  0  0  0  0  0  0  0  0
  189.5570  176.6640  147.3940 C   0  0  1  0  0  3  0  0  0  0  0  0
  189.5410  178.8520  148.9310 O   0  0  0  0  0  0  0  0  0  0  0  0
  188.1850  176.8950  147.7400 C   0  0  0  0  0  2  0  0  0  0  0  0
  1 20  2  0  0  0  0
  2 12  1  0  0  0  0
  2 24  1  0  0  0  0
  3 11  2  0  0  0  0
  4  3  1  0  0  0  0
  5 27  1  0  0  0  0
  5 25  2  0  0  0  0
  6  5  1  0  0  0  0
  7 24  1  6  0  0  0
  7 17  1  0  0  0  0
  7 19  1  0  0  0  0
  9 15  1  0  0  0  0
  9 28  1  0  0  0  0
 10  1  1  0  0  0  0
 11 13  1  0  0  0  0
 12  8  1  0  0  0  0
 13 12  2  0  0  0  0
 14 22  2  0  0  0  0
 14 27  1  0  0  0  0
 15 18  1  0  0  0  0
 16 20  1  0  0  0  0
 17  8  1  6  0  0  0
 17 10  1  0  0  0  0
 18  6  2  0  0  0  0
 19 16  1  0  0  0  0
 21  4  2  0  0  0  0
 21 22  1  0  0  0  0
 22 13  1  0  0  0  0
 23 14  1  0  0  0  0
 26  9  2  0  0  0  0
 27  2  2  0  0  0  0
 28 23  2  0  0  0  0
 28  6  1  0  0  0  0
 29 31  2  0  0  0  0
 30 20  1  6  0  0  0
 30 32  1  0  0  0  0
 30 29  1  0  0  0  0
 32 29  1  0  0  0  0
M  END
>  <MODEL>
8

>  <REMARK>
 VINA RESULT:      -8.9      3.106      9.132
  Name = 
  1 active torsions:
  status: ('A' for Active; 'I' for Inactive)
    1  A    between atoms: C_10  and  C_24
                            x       y       z     vdW  Elec       q    Type
                         _______ _______ _______ _____ _____    ______ ____

>  <TORSDO>
F 1

$$$$
