=
 OpenBabel11052413093D

 31 34  0  0  1  0  0  0  0  0999 V2000
  190.9680  177.2240  146.3170 C   0  0  2  0  0  3  0  0  0  0  0  0
  189.1710  177.2100  144.5980 C   0  0  1  0  0  3  0  0  0  0  0  0
  191.8170  176.6400  145.3660 O   0  0  0  0  0  0  0  0  0  0  0  0
  191.3640  176.7600  147.7030 C   0  0  0  0  0  1  0  0  0  0  0  0
  189.5280  176.8160  146.0380 C   0  0  0  0  0  2  0  0  0  0  0  0
  190.2160  176.7910  143.6490 N   0  0  0  0  0  0  0  0  0  0  0  0
  191.5120  177.2640  144.1460 C   0  0  0  0  0  2  0  0  0  0  0  0
  187.7840  176.6690  144.1960 C   0  0  2  0  0  3  0  0  0  0  0  0
  187.8980  175.6590  143.2370 O   0  0  0  0  0  1  0  0  0  0  0  0
  186.8010  177.7220  143.7500 C   0  0  0  0  0  0  0  0  0  0  0  0
  185.7820  179.0150  141.9600 C   0  0  0  0  0  3  0  0  0  0  0  0
  186.7080  178.0630  142.3910 C   0  0  0  0  0  3  0  0  0  0  0  0
  184.9300  179.6260  142.8790 C   0  0  0  0  0  3  0  0  0  0  0  0
  185.0020  179.2850  144.2310 C   0  0  0  0  0  3  0  0  0  0  0  0
  185.9370  178.3380  144.6800 C   0  0  0  0  0  0  0  0  0  0  0  0
  184.5750  177.9760  146.7280 C   0  0  0  0  0  1  0  0  0  0  0  0
  186.8980  178.8410  146.9360 C   0  0  0  0  0  1  0  0  0  0  0  0
  185.9700  177.9470  146.1320 C   0  0  0  0  0  3  0  0  0  0  0  0
  189.9870  177.4950  142.3940 C   0  0  0  0  0  2  0  0  0  0  0  0
  190.6690  176.7610  141.2500 C   0  0  0  0  0  2  0  0  0  0  0  0
  190.5100  177.5340  139.9520 C   0  0  0  0  0  2  0  0  0  0  0  0
  186.0940  177.1540  137.1170 C   0  0  0  0  0  0  0  0  0  0  0  0
  187.7070  177.9780  138.7610 C   0  0  0  0  0  3  0  0  0  0  0  0
  189.4610  174.9950  137.2160 S   0  0  0  0  0  0  0  0  0  0  0  0
  190.5090  175.6220  138.3540 N   0  0  0  0  0  0  0  0  0  0  0  0
  184.8590  177.2680  136.4950 O   0  0  0  0  0  1  0  0  0  0  0  0
  189.8620  176.6880  138.9040 C   0  0  0  0  0  0  0  0  0  0  0  0
  186.4600  178.0750  138.1190 C   0  0  0  0  0  3  0  0  0  0  0  0
  188.1970  176.0560  137.3990 C   0  0  0  0  0  0  0  0  0  0  0  0
  188.5760  176.9500  138.3850 C   0  0  0  0  0  0  0  0  0  0  0  0
  186.9720  176.1230  136.7440 C   0  0  0  0  0  3  0  0  0  0  0  0
  1  4  1  1  0  0  0
  2  8  1  6  0  0  0
  2  5  1  0  0  0  0
  3  1  1  0  0  0  0
  5  1  1  0  0  0  0
  6  7  1  0  0  0  0
  6  2  1  0  0  0  0
  7  3  1  0  0  0  0
  8  9  1  6  0  0  0
 10  8  1  0  0  0  0
 10 15  1  0  0  0  0
 11 12  1  0  0  0  0
 11 13  2  0  0  0  0
 12 10  2  0  0  0  0
 13 14  1  0  0  0  0
 14 15  2  0  0  0  0
 15 18  1  0  0  0  0
 18 16  1  0  0  0  0
 18 17  1  0  0  0  0
 19  6  1  0  0  0  0
 20 19  1  0  0  0  0
 21 20  1  0  0  0  0
 22 28  1  0  0  0  0
 24 29  1  0  0  0  0
 24 25  1  0  0  0  0
 25 27  2  0  0  0  0
 26 22  1  0  0  0  0
 27 21  1  0  0  0  0
 28 23  2  0  0  0  0
 29 30  2  0  0  0  0
 30 23  1  0  0  0  0
 30 27  1  0  0  0  0
 31 22  2  0  0  0  0
 31 29  1  0  0  0  0
M  END
>  <MODEL>
1

>  <REMARK>
 VINA RESULT:      -8.4      0.000      0.000
  Name = 
  7 active torsions:
  status: ('A' for Active; 'I' for Inactive)
    1  A    between atoms: C_4  and  C_5
    2  A    between atoms: C_4  and  C_12
    3  A    between atoms: C_9  and  C_23
    4  A    between atoms: C_15  and  C_20
    5  A    between atoms: C_15  and  C_23
    6  A    between atoms: C_20  and  N_27
    7  A    between atoms: C_30  and  C_31
                            x       y       z     vdW  Elec       q    Type
                         _______ _______ _______ _____ _____    ______ ____

>  <TORSDO>
F 7

$$$$
=
 OpenBabel11052413093D

 31 34  0  0  1  0  0  0  0  0999 V2000
  191.2980  177.4210  140.8820 C   0  0  2  0  0  3  0  0  0  0  0  0
  190.0150  178.2340  142.8530 C   0  0  1  0  0  3  0  0  0  0  0  0
  190.5700  176.2240  140.9630 O   0  0  0  0  0  0  0  0  0  0  0  0
  192.6800  177.1380  140.3310 C   0  0  0  0  0  1  0  0  0  0  0  0
  191.4220  178.0390  142.2690 C   0  0  0  0  0  2  0  0  0  0  0  0
  189.1930  177.0220  142.6950 N   0  0  0  0  0  0  0  0  0  0  0  0
  189.2580  176.5950  141.2940 C   0  0  0  0  0  2  0  0  0  0  0  0
  190.0770  178.6950  144.3230 C   0  0  2  0  0  3  0  0  0  0  0  0
  190.8990  179.8160  144.4640 O   0  0  0  0  0  1  0  0  0  0  0  0
  190.4650  177.6200  145.3050 C   0  0  0  0  0  0  0  0  0  0  0  0
  192.0390  175.9140  146.0340 C   0  0  0  0  0  3  0  0  0  0  0  0
  191.6520  176.8930  145.1170 C   0  0  0  0  0  3  0  0  0  0  0  0
  191.2530  175.6610  147.1570 C   0  0  0  0  0  3  0  0  0  0  0  0
  190.0790  176.3870  147.3650 C   0  0  0  0  0  3  0  0  0  0  0  0
  189.6710  177.3660  146.4430 C   0  0  0  0  0  0  0  0  0  0  0  0
  188.2570  178.4260  148.1920 C   0  0  0  0  0  1  0  0  0  0  0  0
  187.1890  177.4950  146.1480 C   0  0  0  0  0  1  0  0  0  0  0  0
  188.4290  178.1710  146.7060 C   0  0  0  0  0  3  0  0  0  0  0  0
  187.8050  177.3900  142.9380 C   0  0  0  0  0  2  0  0  0  0  0  0
  187.1930  177.9840  141.6790 C   0  0  0  0  0  2  0  0  0  0  0  0
  186.3000  179.1630  142.0260 C   0  0  0  0  0  2  0  0  0  0  0  0
  181.3120  178.6940  143.6320 C   0  0  0  0  0  0  0  0  0  0  0  0
  183.7440  178.9470  143.7250 C   0  0  0  0  0  3  0  0  0  0  0  0
  183.0200  178.6920  140.0140 S   0  0  0  0  0  0  0  0  0  0  0  0
  184.6720  178.8730  140.1620 N   0  0  0  0  0  0  0  0  0  0  0  0
  180.0950  178.6040  144.2920 O   0  0  0  0  0  1  0  0  0  0  0  0
  184.9160  178.9580  141.4990 C   0  0  0  0  0  0  0  0  0  0  0  0
  182.5000  178.8530  144.3750 C   0  0  0  0  0  3  0  0  0  0  0  0
  182.6000  178.7230  141.6210 C   0  0  0  0  0  0  0  0  0  0  0  0
  183.7770  178.8800  142.3300 C   0  0  0  0  0  0  0  0  0  0  0  0
  181.3540  178.6270  142.2300 C   0  0  0  0  0  3  0  0  0  0  0  0
  1  4  1  1  0  0  0
  1  3  1  0  0  0  0
  1  5  1  0  0  0  0
  2  8  1  1  0  0  0
  3  7  1  0  0  0  0
  5  2  1  0  0  0  0
  6  2  1  0  0  0  0
  6 19  1  0  0  0  0
  7  6  1  0  0  0  0
  8  9  1  6  0  0  0
  8 10  1  0  0  0  0
 10 15  1  0  0  0  0
 11 13  2  0  0  0  0
 12 10  2  0  0  0  0
 12 11  1  0  0  0  0
 13 14  1  0  0  0  0
 15 18  1  0  0  0  0
 15 14  2  0  0  0  0
 17 18  1  0  0  0  0
 18 16  1  0  0  0  0
 20 21  1  0  0  0  0
 20 19  1  0  0  0  0
 22 26  1  0  0  0  0
 22 28  1  0  0  0  0
 23 28  2  0  0  0  0
 24 25  1  0  0  0  0
 24 29  1  0  0  0  0
 25 27  2  0  0  0  0
 27 21  1  0  0  0  0
 27 30  1  0  0  0  0
 29 31  1  0  0  0  0
 29 30  2  0  0  0  0
 30 23  1  0  0  0  0
 31 22  2  0  0  0  0
M  END
>  <MODEL>
2

>  <REMARK>
 VINA RESULT:      -8.2      3.128      5.865
  Name = 
  7 active torsions:
  status: ('A' for Active; 'I' for Inactive)
    1  A    between atoms: C_4  and  C_5
    2  A    between atoms: C_4  and  C_12
    3  A    between atoms: C_9  and  C_23
    4  A    between atoms: C_15  and  C_20
    5  A    between atoms: C_15  and  C_23
    6  A    between atoms: C_20  and  N_27
    7  A    between atoms: C_30  and  C_31
                            x       y       z     vdW  Elec       q    Type
                         _______ _______ _______ _____ _____    ______ ____

>  <TORSDO>
F 7

$$$$
=
 OpenBabel11052413093D

 31 34  0  0  1  0  0  0  0  0999 V2000
  190.4380  177.7010  140.3590 C   0  0  2  0  0  3  0  0  0  0  0  0
  189.0800  177.3250  142.4090 C   0  0  1  0  0  3  0  0  0  0  0  0
  189.2400  177.7560  139.6330 O   0  0  0  0  0  0  0  0  0  0  0  0
  191.5400  177.1460  139.4800 C   0  0  0  0  0  1  0  0  0  0  0  0
  190.2600  176.8030  141.5760 C   0  0  0  0  0  2  0  0  0  0  0  0
  187.9060  177.6060  141.5650 N   0  0  0  0  0  0  0  0  0  0  0  0
  188.3310  178.4520  140.4450 C   0  0  0  0  0  2  0  0  0  0  0  0
  188.7370  176.3600  143.5610 C   0  0  2  0  0  3  0  0  0  0  0  0
  187.6570  175.5390  143.2240 O   0  0  0  0  0  1  0  0  0  0  0  0
  188.5070  177.0250  144.8940 C   0  0  0  0  0  0  0  0  0  0  0  0
  186.9740  177.9620  146.5340 C   0  0  0  0  0  3  0  0  0  0  0  0
  187.2060  177.3710  145.2900 C   0  0  0  0  0  3  0  0  0  0  0  0
  188.0390  178.2000  147.4020 C   0  0  0  0  0  3  0  0  0  0  0  0
  189.3370  177.8470  147.0270 C   0  0  0  0  0  3  0  0  0  0  0  0
  189.5850  177.2640  145.7730 C   0  0  0  0  0  0  0  0  0  0  0  0
  191.7360  176.3510  146.6250 C   0  0  0  0  0  1  0  0  0  0  0  0
  191.7510  177.9750  144.7400 C   0  0  0  0  0  1  0  0  0  0  0  0
  190.9820  176.8460  145.4040 C   0  0  0  0  0  3  0  0  0  0  0  0
  186.9780  178.4130  142.3460 C   0  0  0  0  0  2  0  0  0  0  0  0
  185.5450  178.0010  142.0450 C   0  0  0  0  0  2  0  0  0  0  0  0
  184.8080  179.1220  141.3340 C   0  0  0  0  0  2  0  0  0  0  0  0
  180.0710  178.5010  143.5370 C   0  0  0  0  0  0  0  0  0  0  0  0
  182.4610  178.9740  143.3190 C   0  0  0  0  0  3  0  0  0  0  0  0
  181.4160  178.0430  139.7970 S   0  0  0  0  0  0  0  0  0  0  0  0
  183.0480  178.3880  139.7300 N   0  0  0  0  0  0  0  0  0  0  0  0
  178.9370  178.4180  144.3330 O   0  0  0  0  0  1  0  0  0  0  0  0
  183.4080  178.7140  141.0030 C   0  0  0  0  0  0  0  0  0  0  0  0
  181.3010  178.8830  144.1090 C   0  0  0  0  0  3  0  0  0  0  0  0
  181.1500  178.3060  141.4150 C   0  0  0  0  0  0  0  0  0  0  0  0
  182.3670  178.6790  141.9560 C   0  0  0  0  0  0  0  0  0  0  0  0
  179.9840  178.2060  142.1660 C   0  0  0  0  0  3  0  0  0  0  0  0
  1  4  1  6  0  0  0
  1  5  1  0  0  0  0
  2  8  1  1  0  0  0
  3  1  1  0  0  0  0
  3  7  1  0  0  0  0
  5  2  1  0  0  0  0
  6 19  1  0  0  0  0
  6  2  1  0  0  0  0
  7  6  1  0  0  0  0
  8  9  1  6  0  0  0
  8 10  1  0  0  0  0
 10 12  2  0  0  0  0
 10 15  1  0  0  0  0
 11 13  2  0  0  0  0
 12 11  1  0  0  0  0
 14 13  1  0  0  0  0
 15 14  2  0  0  0  0
 17 18  1  0  0  0  0
 18 15  1  0  0  0  0
 18 16  1  0  0  0  0
 20 19  1  0  0  0  0
 21 20  1  0  0  0  0
 22 28  1  0  0  0  0
 22 26  1  0  0  0  0
 23 28  2  0  0  0  0
 24 29  1  0  0  0  0
 25 24  1  0  0  0  0
 25 27  2  0  0  0  0
 27 21  1  0  0  0  0
 27 30  1  0  0  0  0
 29 30  2  0  0  0  0
 29 31  1  0  0  0  0
 30 23  1  0  0  0  0
 31 22  2  0  0  0  0
M  END
>  <MODEL>
3

>  <REMARK>
 VINA RESULT:      -8.2      3.556      6.220
  Name = 
  7 active torsions:
  status: ('A' for Active; 'I' for Inactive)
    1  A    between atoms: C_4  and  C_5
    2  A    between atoms: C_4  and  C_12
    3  A    between atoms: C_9  and  C_23
    4  A    between atoms: C_15  and  C_20
    5  A    between atoms: C_15  and  C_23
    6  A    between atoms: C_20  and  N_27
    7  A    between atoms: C_30  and  C_31
                            x       y       z     vdW  Elec       q    Type
                         _______ _______ _______ _____ _____    ______ ____

>  <TORSDO>
F 7

$$$$
=
 OpenBabel11052413093D

 31 34  0  0  1  0  0  0  0  0999 V2000
  184.7390  178.5650  142.6880 C   0  0  2  0  0  3  0  0  0  0  0  0
  186.9780  177.4840  142.6180 C   0  0  1  0  0  3  0  0  0  0  0  0
  185.2970  179.6570  142.0080 O   0  0  0  0  0  0  0  0  0  0  0  0
  183.6200  179.0460  143.5890 C   0  0  0  0  0  1  0  0  0  0  0  0
  185.8090  177.8820  143.5290 C   0  0  0  0  0  2  0  0  0  0  0  0
  187.3780  178.5940  141.7360 N   0  0  0  0  0  0  0  0  0  0  0  0
  186.1810  179.1100  141.0650 C   0  0  0  0  0  2  0  0  0  0  0  0
  188.1690  176.9450  143.4350 C   0  0  2  0  0  3  0  0  0  0  0  0
  188.2980  175.5620  143.2830 O   0  0  0  0  0  1  0  0  0  0  0  0
  188.1560  177.3240  144.8930 C   0  0  0  0  0  0  0  0  0  0  0  0
  186.9070  177.7870  146.9290 C   0  0  0  0  0  3  0  0  0  0  0  0
  186.9350  177.4650  145.5710 C   0  0  0  0  0  3  0  0  0  0  0  0
  188.1010  177.9590  147.6290 C   0  0  0  0  0  3  0  0  0  0  0  0
  189.3230  177.8080  146.9710 C   0  0  0  0  0  3  0  0  0  0  0  0
  189.3650  177.4960  145.6020 C   0  0  0  0  0  0  0  0  0  0  0  0
  191.6830  176.6350  145.8610 C   0  0  0  0  0  1  0  0  0  0  0  0
  191.2580  178.5930  144.3870 C   0  0  0  0  0  1  0  0  0  0  0  0
  190.6890  177.2900  144.9200 C   0  0  0  0  0  3  0  0  0  0  0  0
  188.2230  178.0460  140.6840 C   0  0  0  0  0  2  0  0  0  0  0  0
  187.5440  178.2040  139.3320 C   0  0  0  0  0  2  0  0  0  0  0  0
  188.5750  178.2030  138.2160 C   0  0  0  0  0  2  0  0  0  0  0  0
  192.3420  174.5960  137.5250 C   0  0  0  0  0  0  0  0  0  0  0  0
  191.2630  176.7090  138.1240 C   0  0  0  0  0  3  0  0  0  0  0  0
  188.4130  174.6090  136.7720 S   0  0  0  0  0  0  0  0  0  0  0  0
  187.7510  176.0770  137.2110 N   0  0  0  0  0  0  0  0  0  0  0  0
  193.4900  173.8190  137.4540 O   0  0  0  0  0  1  0  0  0  0  0  0
  188.7880  176.8210  137.6880 C   0  0  0  0  0  0  0  0  0  0  0  0
  192.4140  175.9060  138.0410 C   0  0  0  0  0  3  0  0  0  0  0  0
  189.9970  174.8930  137.1820 C   0  0  0  0  0  0  0  0  0  0  0  0
  190.0460  176.1800  137.6850 C   0  0  0  0  0  0  0  0  0  0  0  0
  191.1150  174.0720  137.0860 C   0  0  0  0  0  3  0  0  0  0  0  0
  1  5  1  0  0  0  0
  1  4  1  1  0  0  0
  2  8  1  1  0  0  0
  2  5  1  0  0  0  0
  3  1  1  0  0  0  0
  6  2  1  0  0  0  0
  7  6  1  0  0  0  0
  7  3  1  0  0  0  0
  8  9  1  1  0  0  0
  8 10  1  0  0  0  0
 10 12  2  0  0  0  0
 10 15  1  0  0  0  0
 11 13  2  0  0  0  0
 12 11  1  0  0  0  0
 14 13  1  0  0  0  0
 15 14  2  0  0  0  0
 17 18  1  0  0  0  0
 18 15  1  0  0  0  0
 18 16  1  0  0  0  0
 19  6  1  0  0  0  0
 20 19  1  0  0  0  0
 21 20  1  0  0  0  0
 22 28  1  0  0  0  0
 24 29  1  0  0  0  0
 24 25  1  0  0  0  0
 25 27  2  0  0  0  0
 26 22  1  0  0  0  0
 27 21  1  0  0  0  0
 28 23  2  0  0  0  0
 29 30  2  0  0  0  0
 30 27  1  0  0  0  0
 30 23  1  0  0  0  0
 31 29  1  0  0  0  0
 31 22  2  0  0  0  0
M  END
>  <MODEL>
4

>  <REMARK>
 VINA RESULT:      -8.2      2.444      4.974
  Name = 
  7 active torsions:
  status: ('A' for Active; 'I' for Inactive)
    1  A    between atoms: C_4  and  C_5
    2  A    between atoms: C_4  and  C_12
    3  A    between atoms: C_9  and  C_23
    4  A    between atoms: C_15  and  C_20
    5  A    between atoms: C_15  and  C_23
    6  A    between atoms: C_20  and  N_27
    7  A    between atoms: C_30  and  C_31
                            x       y       z     vdW  Elec       q    Type
                         _______ _______ _______ _____ _____    ______ ____

>  <TORSDO>
F 7

$$$$
=
 OpenBabel11052413093D

 31 34  0  0  1  0  0  0  0  0999 V2000
  188.3080  178.6870  140.4090 C   0  0  2  0  0  3  0  0  0  0  0  0
  187.9060  177.8550  142.7190 C   0  0  1  0  0  3  0  0  0  0  0  0
  186.9310  178.5580  140.1740 O   0  0  0  0  0  0  0  0  0  0  0  0
  189.0670  178.4530  139.1200 C   0  0  0  0  0  1  0  0  0  0  0  0
  188.7490  177.6660  141.4500 C   0  0  0  0  0  2  0  0  0  0  0  0
  186.4710  177.9620  142.4030 N   0  0  0  0  0  0  0  0  0  0  0  0
  186.2990  178.9750  141.3560 C   0  0  0  0  0  2  0  0  0  0  0  0
  188.1830  176.7400  143.7480 C   0  0  2  0  0  3  0  0  0  0  0  0
  187.2490  175.7080  143.6320 O   0  0  0  0  0  1  0  0  0  0  0  0
  188.2870  177.2110  145.1750 C   0  0  0  0  0  0  0  0  0  0  0  0
  187.2010  177.8930  147.2430 C   0  0  0  0  0  3  0  0  0  0  0  0
  187.1220  177.4840  145.9100 C   0  0  0  0  0  3  0  0  0  0  0  0
  188.4450  178.0200  147.8610 C   0  0  0  0  0  3  0  0  0  0  0  0
  189.6100  177.7380  147.1460 C   0  0  0  0  0  3  0  0  0  0  0  0
  189.5450  177.3380  145.8010 C   0  0  0  0  0  0  0  0  0  0  0  0
  191.8210  176.3540  145.9920 C   0  0  0  0  0  1  0  0  0  0  0  0
  191.4160  178.2070  144.3840 C   0  0  0  0  0  1  0  0  0  0  0  0
  190.8070  176.9920  145.0600 C   0  0  0  0  0  3  0  0  0  0  0  0
  185.7930  178.4860  143.5820 C   0  0  0  0  0  2  0  0  0  0  0  0
  184.6070  179.3420  143.1660 C   0  0  0  0  0  2  0  0  0  0  0  0
  183.3060  178.7100  143.6290 C   0  0  0  0  0  2  0  0  0  0  0  0
  181.7330  177.5600  138.7420 C   0  0  0  0  0  0  0  0  0  0  0  0
  183.1170  177.6170  140.7590 C   0  0  0  0  0  3  0  0  0  0  0  0
  180.1390  179.7790  141.6650 S   0  0  0  0  0  0  0  0  0  0  0  0
  181.1370  179.7640  143.0030 N   0  0  0  0  0  0  0  0  0  0  0  0
  181.5300  177.1110  137.4450 O   0  0  0  0  0  1  0  0  0  0  0  0
  182.2030  178.9890  142.6600 C   0  0  0  0  0  0  0  0  0  0  0  0
  182.8940  177.1740  139.4430 C   0  0  0  0  0  3  0  0  0  0  0  0
  181.0320  178.8120  140.6510 C   0  0  0  0  0  0  0  0  0  0  0  0
  182.1640  178.4460  141.3560 C   0  0  0  0  0  0  0  0  0  0  0  0
  180.7790  178.3930  139.3500 C   0  0  0  0  0  3  0  0  0  0  0  0
  1  4  1  6  0  0  0
  1  5  1  0  0  0  0
  2  8  1  1  0  0  0
  3  1  1  0  0  0  0
  3  7  1  0  0  0  0
  5  2  1  0  0  0  0
  6  2  1  0  0  0  0
  6 19  1  0  0  0  0
  7  6  1  0  0  0  0
  8  9  1  1  0  0  0
  8 10  1  0  0  0  0
 10 15  2  0  0  0  0
 10 12  1  0  0  0  0
 11 13  1  0  0  0  0
 12 11  2  0  0  0  0
 14 13  2  0  0  0  0
 15 14  1  0  0  0  0
 17 18  1  0  0  0  0
 18 15  1  0  0  0  0
 18 16  1  0  0  0  0
 20 19  1  0  0  0  0
 20 21  1  0  0  0  0
 22 31  2  0  0  0  0
 22 28  1  0  0  0  0
 23 30  1  0  0  0  0
 24 25  1  0  0  0  0
 26 22  1  0  0  0  0
 27 25  2  0  0  0  0
 27 21  1  0  0  0  0
 28 23  2  0  0  0  0
 29 30  2  0  0  0  0
 29 24  1  0  0  0  0
 30 27  1  0  0  0  0
 31 29  1  0  0  0  0
M  END
>  <MODEL>
5

>  <REMARK>
 VINA RESULT:      -8.1      3.674      6.280
  Name = 
  7 active torsions:
  status: ('A' for Active; 'I' for Inactive)
    1  A    between atoms: C_4  and  C_5
    2  A    between atoms: C_4  and  C_12
    3  A    between atoms: C_9  and  C_23
    4  A    between atoms: C_15  and  C_20
    5  A    between atoms: C_15  and  C_23
    6  A    between atoms: C_20  and  N_27
    7  A    between atoms: C_30  and  C_31
                            x       y       z     vdW  Elec       q    Type
                         _______ _______ _______ _____ _____    ______ ____

>  <TORSDO>
F 7

$$$$
=
 OpenBabel11052413093D

 31 34  0  0  1  0  0  0  0  0999 V2000
  191.1250  177.1710  146.0750 C   0  0  2  0  0  3  0  0  0  0  0  0
  189.1920  177.2290  144.5100 C   0  0  1  0  0  3  0  0  0  0  0  0
  191.9010  176.6630  145.0230 O   0  0  0  0  0  0  0  0  0  0  0  0
  191.6390  176.6300  147.3920 C   0  0  0  0  0  1  0  0  0  0  0  0
  189.6720  176.7540  145.8880 C   0  0  0  0  0  2  0  0  0  0  0  0
  190.1620  176.8890  143.4540 N   0  0  0  0  0  0  0  0  0  0  0  0
  191.4880  177.3550  143.8730 C   0  0  0  0  0  2  0  0  0  0  0  0
  187.7850  176.6870  144.1880 C   0  0  2  0  0  3  0  0  0  0  0  0
  187.8430  175.6820  143.2200 O   0  0  0  0  0  1  0  0  0  0  0  0
  186.7760  177.7400  143.8050 C   0  0  0  0  0  0  0  0  0  0  0  0
  185.7110  179.1000  142.0930 C   0  0  0  0  0  3  0  0  0  0  0  0
  186.6600  178.1470  142.4670 C   0  0  0  0  0  3  0  0  0  0  0  0
  184.8570  179.6460  143.0500 C   0  0  0  0  0  3  0  0  0  0  0  0
  184.9520  179.2400  144.3820 C   0  0  0  0  0  3  0  0  0  0  0  0
  185.9110  178.2910  144.7740 C   0  0  0  0  0  0  0  0  0  0  0  0
  184.5950  177.8970  146.8460 C   0  0  0  0  0  1  0  0  0  0  0  0
  186.9630  178.6380  147.0190 C   0  0  0  0  0  1  0  0  0  0  0  0
  185.9680  177.8300  146.2040 C   0  0  0  0  0  3  0  0  0  0  0  0
  189.8210  177.6650  142.2690 C   0  0  0  0  0  2  0  0  0  0  0  0
  190.1020  176.8530  141.0140 C   0  0  0  0  0  2  0  0  0  0  0  0
  190.1770  177.7610  139.7980 C   0  0  0  0  0  2  0  0  0  0  0  0
  188.1900  174.7490  135.9690 C   0  0  0  0  0  0  0  0  0  0  0  0
  189.7700  175.6290  137.6180 C   0  0  0  0  0  3  0  0  0  0  0  0
  186.7510  177.8890  137.9880 S   0  0  0  0  0  0  0  0  0  0  0  0
  187.8810  178.4260  139.0930 N   0  0  0  0  0  0  0  0  0  0  0  0
  187.8870  173.8240  134.9810 O   0  0  0  0  0  1  0  0  0  0  0  0
  188.9610  177.6080  138.9430 C   0  0  0  0  0  0  0  0  0  0  0  0
  189.4440  174.7010  136.6130 C   0  0  0  0  0  3  0  0  0  0  0  0
  187.6020  176.6280  137.3210 C   0  0  0  0  0  0  0  0  0  0  0  0
  188.8250  176.5980  137.9650 C   0  0  0  0  0  0  0  0  0  0  0  0
  187.2460  175.7270  136.3240 C   0  0  0  0  0  3  0  0  0  0  0  0
  1  4  1  1  0  0  0
  2  8  1  6  0  0  0
  2  5  1  0  0  0  0
  3  1  1  0  0  0  0
  5  1  1  0  0  0  0
  6  7  1  0  0  0  0
  6  2  1  0  0  0  0
  7  3  1  0  0  0  0
  8  9  1  6  0  0  0
 10  8  1  0  0  0  0
 10 15  1  0  0  0  0
 11 12  1  0  0  0  0
 11 13  2  0  0  0  0
 12 10  2  0  0  0  0
 13 14  1  0  0  0  0
 14 15  2  0  0  0  0
 15 18  1  0  0  0  0
 18 16  1  0  0  0  0
 18 17  1  0  0  0  0
 19  6  1  0  0  0  0
 20 19  1  0  0  0  0
 21 20  1  0  0  0  0
 22 31  2  0  0  0  0
 22 28  1  0  0  0  0
 23 30  1  0  0  0  0
 24 25  1  0  0  0  0
 26 22  1  0  0  0  0
 27 25  2  0  0  0  0
 27 21  1  0  0  0  0
 28 23  2  0  0  0  0
 29 30  2  0  0  0  0
 29 24  1  0  0  0  0
 30 27  1  0  0  0  0
 31 29  1  0  0  0  0
M  END
>  <MODEL>
6

>  <REMARK>
 VINA RESULT:      -8.0      1.494      1.837
  Name = 
  7 active torsions:
  status: ('A' for Active; 'I' for Inactive)
    1  A    between atoms: C_4  and  C_5
    2  A    between atoms: C_4  and  C_12
    3  A    between atoms: C_9  and  C_23
    4  A    between atoms: C_15  and  C_20
    5  A    between atoms: C_15  and  C_23
    6  A    between atoms: C_20  and  N_27
    7  A    between atoms: C_30  and  C_31
                            x       y       z     vdW  Elec       q    Type
                         _______ _______ _______ _____ _____    ______ ____

>  <TORSDO>
F 7

$$$$
=
 OpenBabel11052413093D

 31 34  0  0  1  0  0  0  0  0999 V2000
  181.2340  179.1360  143.4900 C   0  0  2  0  0  3  0  0  0  0  0  0
  183.1600  179.1150  141.9160 C   0  0  1  0  0  3  0  0  0  0  0  0
  181.9780  178.3020  144.3370 O   0  0  0  0  0  0  0  0  0  0  0  0
  179.7580  178.8360  143.6510 C   0  0  0  0  0  1  0  0  0  0  0  0
  181.6460  178.8980  142.0440 C   0  0  0  0  0  2  0  0  0  0  0  0
  183.8970  178.4150  142.9820 N   0  0  0  0  0  0  0  0  0  0  0  0
  183.2990  178.7700  144.2730 C   0  0  0  0  0  2  0  0  0  0  0  0
  183.6680  178.7200  140.5150 C   0  0  2  0  0  3  0  0  0  0  0  0
  184.8480  179.3980  140.1990 O   0  0  0  0  0  1  0  0  0  0  0  0
  182.6530  178.8690  139.4110 C   0  0  0  0  0  0  0  0  0  0  0  0
  181.5070  180.2770  137.7920 C   0  0  0  0  0  3  0  0  0  0  0  0
  182.4230  180.1290  138.8350 C   0  0  0  0  0  3  0  0  0  0  0  0
  180.8220  179.1660  137.3020 C   0  0  0  0  0  3  0  0  0  0  0  0
  181.0520  177.9050  137.8560 C   0  0  0  0  0  3  0  0  0  0  0  0
  181.9610  177.7440  138.9150 C   0  0  0  0  0  0  0  0  0  0  0  0
  183.0750  175.5600  138.5010 C   0  0  0  0  0  1  0  0  0  0  0  0
  180.9480  175.6280  139.7880 C   0  0  0  0  0  1  0  0  0  0  0  0
  182.2330  176.3720  139.4670 C   0  0  0  0  0  3  0  0  0  0  0  0
  185.2540  178.9460  143.0090 C   0  0  0  0  0  2  0  0  0  0  0  0
  186.2590  177.8080  143.0960 C   0  0  0  0  0  2  0  0  0  0  0  0
  187.0060  177.8590  144.4180 C   0  0  0  0  0  2  0  0  0  0  0  0
  191.3630  176.7520  147.1520 C   0  0  0  0  0  0  0  0  0  0  0  0
  189.0460  177.3730  146.6710 C   0  0  0  0  0  3  0  0  0  0  0  0
  190.5760  176.9180  143.2330 S   0  0  0  0  0  0  0  0  0  0  0  0
  188.9800  177.3410  142.9880 N   0  0  0  0  0  0  0  0  0  0  0  0
  192.3610  176.4910  148.0800 O   0  0  0  0  0  1  0  0  0  0  0  0
  188.4470  177.5060  144.2310 C   0  0  0  0  0  0  0  0  0  0  0  0
  190.0720  177.1050  147.5940 C   0  0  0  0  0  3  0  0  0  0  0  0
  190.6070  176.9330  144.8940 C   0  0  0  0  0  0  0  0  0  0  0  0
  189.3340  177.2810  145.3060 C   0  0  0  0  0  0  0  0  0  0  0  0
  191.6440  176.6620  145.7790 C   0  0  0  0  0  3  0  0  0  0  0  0
  1  4  1  6  0  0  0
  1  3  1  0  0  0  0
  2  8  1  6  0  0  0
  2  5  1  0  0  0  0
  2  6  1  0  0  0  0
  5  1  1  0  0  0  0
  6 19  1  0  0  0  0
  6  7  1  0  0  0  0
  7  3  1  0  0  0  0
  8  9  1  6  0  0  0
 10  8  1  0  0  0  0
 11 12  1  0  0  0  0
 12 10  2  0  0  0  0
 13 11  2  0  0  0  0
 13 14  1  0  0  0  0
 14 15  2  0  0  0  0
 15 10  1  0  0  0  0
 15 18  1  0  0  0  0
 16 18  1  0  0  0  0
 18 17  1  0  0  0  0
 19 20  1  0  0  0  0
 20 21  1  0  0  0  0
 22 28  1  0  0  0  0
 22 26  1  0  0  0  0
 23 28  2  0  0  0  0
 24 29  1  0  0  0  0
 25 24  1  0  0  0  0
 25 27  2  0  0  0  0
 27 21  1  0  0  0  0
 27 30  1  0  0  0  0
 29 30  2  0  0  0  0
 29 31  1  0  0  0  0
 30 23  1  0  0  0  0
 31 22  2  0  0  0  0
M  END
>  <MODEL>
7

>  <REMARK>
 VINA RESULT:      -8.0      3.806      8.140
  Name = 
  7 active torsions:
  status: ('A' for Active; 'I' for Inactive)
    1  A    between atoms: C_4  and  C_5
    2  A    between atoms: C_4  and  C_12
    3  A    between atoms: C_9  and  C_23
    4  A    between atoms: C_15  and  C_20
    5  A    between atoms: C_15  and  C_23
    6  A    between atoms: C_20  and  N_27
    7  A    between atoms: C_30  and  C_31
                            x       y       z     vdW  Elec       q    Type
                         _______ _______ _______ _____ _____    ______ ____

>  <TORSDO>
F 7

$$$$
=
 OpenBabel11052413093D

 31 34  0  0  1  0  0  0  0  0999 V2000
  191.6810  175.8020  138.1100 C   0  0  2  0  0  3  0  0  0  0  0  0
  189.5510  177.0830  138.0190 C   0  0  1  0  0  3  0  0  0  0  0  0
  192.1740  176.7760  138.9910 O   0  0  0  0  0  0  0  0  0  0  0  0
  192.8230  175.2310  137.2940 C   0  0  0  0  0  1  0  0  0  0  0  0
  190.6540  176.4280  137.1760 C   0  0  0  0  0  2  0  0  0  0  0  0
  190.1170  177.9110  139.0980 N   0  0  0  0  0  0  0  0  0  0  0  0
  191.1020  177.1100  139.8320 C   0  0  0  0  0  2  0  0  0  0  0  0
  188.5720  177.8840  137.1380 C   0  0  2  0  0  3  0  0  0  0  0  0
  188.8110  179.2570  137.2420 O   0  0  0  0  0  1  0  0  0  0  0  0
  187.1160  177.5760  137.3720 C   0  0  0  0  0  0  0  0  0  0  0  0
  184.9560  178.2210  138.2890 C   0  0  0  0  0  3  0  0  0  0  0  0
  186.3140  178.4790  138.0890 C   0  0  0  0  0  3  0  0  0  0  0  0
  184.3810  177.0650  137.7630 C   0  0  0  0  0  3  0  0  0  0  0  0
  185.1640  176.1660  137.0350 C   0  0  0  0  0  3  0  0  0  0  0  0
  186.5340  176.4070  136.8380 C   0  0  0  0  0  0  0  0  0  0  0  0
  186.7200  175.2460  134.6470 C   0  0  0  0  0  1  0  0  0  0  0  0
  187.5330  174.1160  136.7090 C   0  0  0  0  0  1  0  0  0  0  0  0
  187.3510  175.4530  136.0120 C   0  0  0  0  0  3  0  0  0  0  0  0
  189.0480  178.1990  140.0460 C   0  0  0  0  0  2  0  0  0  0  0  0
  188.9470  177.0830  141.0750 C   0  0  0  0  0  2  0  0  0  0  0  0
  188.2770  177.5870  142.3420 C   0  0  0  0  0  2  0  0  0  0  0  0
  188.1580  177.3780  147.5970 C   0  0  0  0  0  0  0  0  0  0  0  0
  187.3900  177.6310  145.2880 C   0  0  0  0  0  3  0  0  0  0  0  0
  191.1090  176.9940  144.9230 S   0  0  0  0  0  0  0  0  0  0  0  0
  190.5050  177.1740  143.3770 N   0  0  0  0  0  0  0  0  0  0  0  0
  187.8730  177.3570  148.9550 O   0  0  0  0  0  1  0  0  0  0  0  0
  189.1720  177.4070  143.5260 C   0  0  0  0  0  0  0  0  0  0  0  0
  187.1230  177.6070  146.6680 C   0  0  0  0  0  3  0  0  0  0  0  0
  189.7050  177.2010  145.7860 C   0  0  0  0  0  0  0  0  0  0  0  0
  188.7040  177.4240  144.8580 C   0  0  0  0  0  0  0  0  0  0  0  0
  189.4750  177.1700  147.1570 C   0  0  0  0  0  3  0  0  0  0  0  0
  1  4  1  6  0  0  0
  1  3  1  0  0  0  0
  2  8  1  6  0  0  0
  2  6  1  0  0  0  0
  3  7  1  0  0  0  0
  5  2  1  0  0  0  0
  5  1  1  0  0  0  0
  6  7  1  0  0  0  0
  6 19  1  0  0  0  0
  8  9  1  1  0  0  0
  8 10  1  0  0  0  0
 10 12  1  0  0  0  0
 12 11  2  0  0  0  0
 13 11  1  0  0  0  0
 14 13  2  0  0  0  0
 15 14  1  0  0  0  0
 15 10  2  0  0  0  0
 16 18  1  0  0  0  0
 18 17  1  0  0  0  0
 18 15  1  0  0  0  0
 19 20  1  0  0  0  0
 20 21  1  0  0  0  0
 21 27  1  0  0  0  0
 22 26  1  0  0  0  0
 23 28  1  0  0  0  0
 24 29  1  0  0  0  0
 25 27  2  0  0  0  0
 25 24  1  0  0  0  0
 27 30  1  0  0  0  0
 28 22  2  0  0  0  0
 29 31  2  0  0  0  0
 30 23  2  0  0  0  0
 30 29  1  0  0  0  0
 31 22  1  0  0  0  0
M  END
>  <MODEL>
8

>  <REMARK>
 VINA RESULT:      -7.6      2.765      7.795
  Name = 
  7 active torsions:
  status: ('A' for Active; 'I' for Inactive)
    1  A    between atoms: C_4  and  C_5
    2  A    between atoms: C_4  and  C_12
    3  A    between atoms: C_9  and  C_23
    4  A    between atoms: C_15  and  C_20
    5  A    between atoms: C_15  and  C_23
    6  A    between atoms: C_20  and  N_27
    7  A    between atoms: C_30  and  C_31
                            x       y       z     vdW  Elec       q    Type
                         _______ _______ _______ _____ _____    ______ ____

>  <TORSDO>
F 7

$$$$
=
 OpenBabel11052413093D

 31 34  0  0  1  0  0  0  0  0999 V2000
  190.6690  175.3750  137.9130 C   0  0  2  0  0  3  0  0  0  0  0  0
  188.8690  177.0700  138.1880 C   0  0  1  0  0  3  0  0  0  0  0  0
  191.5090  176.2150  138.6600 O   0  0  0  0  0  0  0  0  0  0  0  0
  191.4940  174.5910  136.9140 C   0  0  0  0  0  1  0  0  0  0  0  0
  189.6350  176.2120  137.1720 C   0  0  0  0  0  2  0  0  0  0  0  0
  189.7860  177.7500  139.1200 N   0  0  0  0  0  0  0  0  0  0  0  0
  190.7060  176.7530  139.6770 C   0  0  0  0  0  2  0  0  0  0  0  0
  187.9270  178.0670  137.4840 C   0  0  2  0  0  3  0  0  0  0  0  0
  188.3970  179.3770  137.6120 O   0  0  0  0  0  1  0  0  0  0  0  0
  186.4830  177.9740  137.9040 C   0  0  0  0  0  0  0  0  0  0  0  0
  184.7060  178.5750  139.4530 C   0  0  0  0  0  3  0  0  0  0  0  0
  186.0460  178.6280  139.0670 C   0  0  0  0  0  3  0  0  0  0  0  0
  183.7830  177.8800  138.6720 C   0  0  0  0  0  3  0  0  0  0  0  0
  184.2000  177.2370  137.5050 C   0  0  0  0  0  3  0  0  0  0  0  0
  185.5490  177.2720  137.1130 C   0  0  0  0  0  0  0  0  0  0  0  0
  184.9400  176.8450  134.7400 C   0  0  0  0  0  1  0  0  0  0  0  0
  186.2160  175.1270  136.0090 C   0  0  0  0  0  1  0  0  0  0  0  0
  185.9730  176.6150  135.8280 C   0  0  0  0  0  3  0  0  0  0  0  0
  188.9980  178.2400  140.2430 C   0  0  0  0  0  2  0  0  0  0  0  0
  189.6290  177.8030  141.5550 C   0  0  0  0  0  2  0  0  0  0  0  0
  188.7690  176.7530  142.2360 C   0  0  0  0  0  2  0  0  0  0  0  0
  184.8950  178.6280  145.2630 C   0  0  0  0  0  0  0  0  0  0  0  0
  186.0950  177.8750  143.2680 C   0  0  0  0  0  3  0  0  0  0  0  0
  188.6530  177.4970  146.0390 S   0  0  0  0  0  0  0  0  0  0  0  0
  189.4010  176.9930  144.6340 N   0  0  0  0  0  0  0  0  0  0  0  0
  183.7340  179.1180  145.8440 O   0  0  0  0  0  1  0  0  0  0  0  0
  188.4720  177.1400  143.6490 C   0  0  0  0  0  0  0  0  0  0  0  0
  184.9300  178.3720  143.8770 C   0  0  0  0  0  3  0  0  0  0  0  0
  187.1630  177.8960  145.4250 C   0  0  0  0  0  0  0  0  0  0  0  0
  187.2180  177.6380  144.0670 C   0  0  0  0  0  0  0  0  0  0  0  0
  186.0270  178.3880  146.0580 C   0  0  0  0  0  3  0  0  0  0  0  0
  1  4  1  6  0  0  0
  1  3  1  0  0  0  0
  2  8  1  6  0  0  0
  2  6  1  0  0  0  0
  3  7  1  0  0  0  0
  5  1  1  0  0  0  0
  5  2  1  0  0  0  0
  6  7  1  0  0  0  0
  6 19  1  0  0  0  0
  8  9  1  1  0  0  0
  8 10  1  0  0  0  0
 10 12  1  0  0  0  0
 12 11  2  0  0  0  0
 13 11  1  0  0  0  0
 14 13  2  0  0  0  0
 15 14  1  0  0  0  0
 15 10  2  0  0  0  0
 16 18  1  0  0  0  0
 18 17  1  0  0  0  0
 18 15  1  0  0  0  0
 19 20  1  0  0  0  0
 20 21  1  0  0  0  0
 21 27  1  0  0  0  0
 22 26  1  0  0  0  0
 22 31  1  0  0  0  0
 23 28  1  0  0  0  0
 23 30  2  0  0  0  0
 25 24  1  0  0  0  0
 27 30  1  0  0  0  0
 27 25  2  0  0  0  0
 28 22  2  0  0  0  0
 29 24  1  0  0  0  0
 29 31  2  0  0  0  0
 30 29  1  0  0  0  0
M  END
>  <MODEL>
9

>  <REMARK>
 VINA RESULT:      -7.6      2.962      7.303
  Name = 
  7 active torsions:
  status: ('A' for Active; 'I' for Inactive)
    1  A    between atoms: C_4  and  C_5
    2  A    between atoms: C_4  and  C_12
    3  A    between atoms: C_9  and  C_23
    4  A    between atoms: C_15  and  C_20
    5  A    between atoms: C_15  and  C_23
    6  A    between atoms: C_20  and  N_27
    7  A    between atoms: C_30  and  C_31
                            x       y       z     vdW  Elec       q    Type
                         _______ _______ _______ _____ _____    ______ ____

>  <TORSDO>
F 7

$$$$
