=
 OpenBabel11052413403D

 27 31  0  0  1  0  0  0  0  0999 V2000
  189.8580  176.5240  140.7120 O   0  0  0  0  0  0  0  0  0  0  0  0
  188.2910  178.0440  141.6160 C   0  0  0  0  0  0  0  0  0  0  0  0
  187.7900  178.3210  139.1440 N   0  0  0  0  0  2  0  0  0  0  0  0
  183.9050  178.6910  142.7710 C   0  0  0  0  0  3  0  0  0  0  0  0
  182.5200  178.9940  140.7100 C   0  0  0  0  0  1  0  0  0  0  0  0
  187.5910  178.0450  142.7770 N   0  0  0  0  0  0  0  0  0  0  0  0
  185.0060  178.6760  140.4670 C   0  0  0  0  0  0  0  0  0  0  0  0
  188.8030  178.1050  136.0500 C   0  0  0  0  0  2  0  0  0  0  0  0
  184.8980  178.8190  138.9800 C   0  0  0  0  0  1  0  0  0  0  0  0
  188.3410  176.7420  136.5820 C   0  0  0  0  0  2  0  0  0  0  0  0
  186.1840  178.4470  141.0620 C   0  0  0  0  0  0  0  0  0  0  0  0
  189.7350  177.6630  141.5140 C   0  0  1  0  0  3  0  0  0  0  0  0
  183.8290  178.7740  141.3010 N   0  0  0  0  0  0  0  0  0  0  0  0
  185.2970  178.3910  143.2750 C   0  0  0  0  0  3  0  0  0  0  0  0
  190.7260  176.9050  139.6880 C   0  0  0  0  0  2  0  0  0  0  0  0
  187.4520  178.2940  140.5380 C   0  0  0  0  0  0  0  0  0  0  0  0
  188.8830  179.1740  137.1610 C   0  0  0  0  0  2  0  0  0  0  0  0
  186.3170  178.3030  142.4230 C   0  0  0  0  0  0  0  0  0  0  0  0
  189.2780  176.2030  137.6740 C   0  0  0  0  0  2  0  0  0  0  0  0
  189.9670  177.3370  138.4390 C   0  0  1  0  0  3  0  0  0  0  0  0
  189.1040  178.6020  138.5690 C   0  0  2  0  0  3  0  0  0  0  0  0
  191.6340  177.0130  145.3180 C   0  0  0  0  0  3  0  0  0  0  0  0
  190.3830  177.4490  142.8510 C   0  0  0  0  0  0  0  0  0  0  0  0
  190.7320  176.1510  143.2430 C   0  0  0  0  0  3  0  0  0  0  0  0
  191.3550  175.9330  144.4750 C   0  0  0  0  0  3  0  0  0  0  0  0
  191.2930  178.3110  144.9300 C   0  0  0  0  0  3  0  0  0  0  0  0
  190.6690  178.5300  143.6980 C   0  0  0  0  0  3  0  0  0  0  0  0
  1 12  1  0  0  0  0
  2  6  1  0  0  0  0
  3 16  1  0  0  0  0
  4 14  2  0  0  0  0
  5 13  1  0  0  0  0
  7 11  2  0  0  0  0
  7 13  1  0  0  0  0
  8 10  1  0  0  0  0
  8 17  1  0  0  0  0
  9  7  1  0  0  0  0
 10 19  1  0  0  0  0
 11 18  1  0  0  0  0
 12  2  1  0  0  0  0
 12 23  1  1  0  0  0
 13  4  1  0  0  0  0
 15  1  1  0  0  0  0
 16 11  1  0  0  0  0
 16  2  2  0  0  0  0
 18  6  2  0  0  0  0
 18 14  1  0  0  0  0
 20 19  1  1  0  0  0
 20 21  1  0  0  0  0
 20 15  1  0  0  0  0
 21 17  1  6  0  0  0
 21  3  1  0  0  0  0
 23 24  2  0  0  0  0
 23 27  1  0  0  0  0
 24 25  1  0  0  0  0
 25 22  2  0  0  0  0
 26 22  1  0  0  0  0
 27 26  2  0  0  0  0
M  END
>  <MODEL>
1

>  <REMARK>
 VINA RESULT:      -9.1      0.000      0.000
  Name = 
  1 active torsions:
  status: ('A' for Active; 'I' for Inactive)
    1  A    between atoms: C_9  and  C_15
                            x       y       z     vdW  Elec       q    Type
                         _______ _______ _______ _____ _____    ______ ____

>  <TORSDO>
F 1

$$$$
=
 OpenBabel11052413403D

 27 31  0  0  1  0  0  0  0  0999 V2000
  190.1560  178.2660  140.6720 O   0  0  0  0  0  0  0  0  0  0  0  0
  187.9230  177.6670  141.1570 C   0  0  0  0  0  0  0  0  0  0  0  0
  189.0010  177.1850  143.4030 N   0  0  0  0  0  2  0  0  0  0  0  0
  184.0030  179.0070  143.1140 C   0  0  0  0  0  3  0  0  0  0  0  0
  184.2240  178.9210  145.6040 C   0  0  0  0  0  1  0  0  0  0  0  0
  186.7360  178.1430  140.7070 N   0  0  0  0  0  0  0  0  0  0  0  0
  186.1710  178.1880  144.1860 C   0  0  0  0  0  0  0  0  0  0  0  0
  191.6800  176.4440  145.1110 C   0  0  0  0  0  2  0  0  0  0  0  0
  186.9590  177.8430  145.4110 C   0  0  0  0  0  1  0  0  0  0  0  0
  191.6030  177.9480  144.8210 C   0  0  0  0  0  2  0  0  0  0  0  0
  186.6870  178.0350  142.9590 C   0  0  0  0  0  0  0  0  0  0  0  0
  189.1110  177.4250  140.2780 C   0  0  1  0  0  3  0  0  0  0  0  0
  184.8270  178.7080  144.2990 N   0  0  0  0  0  0  0  0  0  0  0  0
  184.7490  178.8190  141.8130 C   0  0  0  0  0  3  0  0  0  0  0  0
  191.2150  177.4030  140.9590 C   0  0  0  0  0  2  0  0  0  0  0  0
  187.9240  177.5840  142.5440 C   0  0  0  0  0  0  0  0  0  0  0  0
  190.6090  175.6400  144.3440 C   0  0  0  0  0  2  0  0  0  0  0  0
  185.9950  178.3490  141.8140 C   0  0  0  0  0  0  0  0  0  0  0  0
  191.7780  178.2570  143.3260 C   0  0  0  0  0  2  0  0  0  0  0  0
  191.3000  177.0940  142.4490 C   0  0  1  0  0  3  0  0  0  0  0  0
  190.1220  176.3140  143.0520 C   0  0  2  0  0  3  0  0  0  0  0  0
  188.2950  177.9410  136.0860 C   0  0  0  0  0  3  0  0  0  0  0  0
  188.8070  177.5960  138.8180 C   0  0  0  0  0  0  0  0  0  0  0  0
  189.0560  178.8300  138.2070 C   0  0  0  0  0  3  0  0  0  0  0  0
  188.7990  179.0030  136.8440 C   0  0  0  0  0  3  0  0  0  0  0  0
  188.0510  176.7050  136.6900 C   0  0  0  0  0  3  0  0  0  0  0  0
  188.3070  176.5310  138.0540 C   0  0  0  0  0  3  0  0  0  0  0  0
  1 15  1  0  0  0  0
  2 16  2  0  0  0  0
  4 13  1  0  0  0  0
  6  2  1  0  0  0  0
  6 18  2  0  0  0  0
  7 13  1  0  0  0  0
  7  9  1  0  0  0  0
 10  8  1  0  0  0  0
 11  7  2  0  0  0  0
 12 23  1  6  0  0  0
 12  1  1  0  0  0  0
 12  2  1  0  0  0  0
 13  5  1  0  0  0  0
 14 18  1  0  0  0  0
 14  4  2  0  0  0  0
 16 11  1  0  0  0  0
 16  3  1  0  0  0  0
 17  8  1  0  0  0  0
 18 11  1  0  0  0  0
 19 10  1  0  0  0  0
 20 15  1  6  0  0  0
 20 21  1  0  0  0  0
 20 19  1  0  0  0  0
 21  3  1  0  0  0  0
 21 17  1  1  0  0  0
 22 26  2  0  0  0  0
 22 25  1  0  0  0  0
 24 23  1  0  0  0  0
 25 24  2  0  0  0  0
 26 27  1  0  0  0  0
 27 23  2  0  0  0  0
M  END
>  <MODEL>
2

>  <REMARK>
 VINA RESULT:      -8.3      1.386      5.509
  Name = 
  1 active torsions:
  status: ('A' for Active; 'I' for Inactive)
    1  A    between atoms: C_9  and  C_15
                            x       y       z     vdW  Elec       q    Type
                         _______ _______ _______ _____ _____    ______ ____

>  <TORSDO>
F 1

$$$$
=
 OpenBabel11052413403D

 27 31  0  0  1  0  0  0  0  0999 V2000
  186.7170  177.2430  143.7460 O   0  0  0  0  0  0  0  0  0  0  0  0
  186.7230  178.4300  141.7030 C   0  0  0  0  0  0  0  0  0  0  0  0
  189.2200  178.1600  142.0580 N   0  0  0  0  0  2  0  0  0  0  0  0
  187.1410  178.0950  137.1540 C   0  0  0  0  0  3  0  0  0  0  0  0
  189.5340  177.6860  136.5480 C   0  0  0  0  0  1  0  0  0  0  0  0
  185.8640  178.4390  140.6540 N   0  0  0  0  0  0  0  0  0  0  0  0
  188.9290  177.9900  138.9740 C   0  0  0  0  0  0  0  0  0  0  0  0
  191.7150  177.7120  144.1130 C   0  0  0  0  0  2  0  0  0  0  0  0
  190.3670  177.8550  139.3690 C   0  0  0  0  0  1  0  0  0  0  0  0
  191.0370  176.3820  143.7620 C   0  0  0  0  0  2  0  0  0  0  0  0
  187.9680  178.1760  139.8890 C   0  0  0  0  0  0  0  0  0  0  0  0
  186.2880  178.4270  143.1360 C   0  0  1  0  0  3  0  0  0  0  0  0
  188.5390  177.9130  137.5840 N   0  0  0  0  0  0  0  0  0  0  0  0
  186.1830  178.2530  138.3110 C   0  0  0  0  0  3  0  0  0  0  0  0
  187.4900  177.6640  144.8290 C   0  0  0  0  0  2  0  0  0  0  0  0
  188.0310  178.2740  141.2650 C   0  0  0  0  0  0  0  0  0  0  0  0
  190.9250  178.9320  143.5940 C   0  0  0  0  0  2  0  0  0  0  0  0
  186.6390  178.2950  139.5610 C   0  0  0  0  0  0  0  0  0  0  0  0
  189.6160  176.2900  144.3420 C   0  0  0  0  0  2  0  0  0  0  0  0
  188.9750  177.6740  144.4890 C   0  0  1  0  0  3  0  0  0  0  0  0
  189.4210  178.6750  143.4110 C   0  0  2  0  0  3  0  0  0  0  0  0
  182.0550  179.0030  143.6400 C   0  0  0  0  0  3  0  0  0  0  0  0
  184.8080  178.6090  143.3020 C   0  0  0  0  0  0  0  0  0  0  0  0
  184.3000  178.9900  144.5490 C   0  0  0  0  0  3  0  0  0  0  0  0
  182.9260  179.1850  144.7190 C   0  0  0  0  0  3  0  0  0  0  0  0
  182.5570  178.6280  142.3910 C   0  0  0  0  0  3  0  0  0  0  0  0
  183.9310  178.4320  142.2210 C   0  0  0  0  0  3  0  0  0  0  0  0
  1 15  1  0  0  0  0
  2 12  1  0  0  0  0
  3 21  1  0  0  0  0
  4 13  1  0  0  0  0
  4 14  2  0  0  0  0
  5 13  1  0  0  0  0
  6  2  1  0  0  0  0
  7  9  1  0  0  0  0
  7 11  2  0  0  0  0
 10  8  1  0  0  0  0
 10 19  1  0  0  0  0
 11 16  1  0  0  0  0
 12 23  1  6  0  0  0
 12  1  1  0  0  0  0
 13  7  1  0  0  0  0
 14 18  1  0  0  0  0
 16  2  2  0  0  0  0
 16  3  1  0  0  0  0
 17  8  1  0  0  0  0
 18 11  1  0  0  0  0
 18  6  2  0  0  0  0
 20 19  1  6  0  0  0
 20 15  1  0  0  0  0
 21 17  1  1  0  0  0
 21 20  1  0  0  0  0
 22 25  1  0  0  0  0
 23 24  1  0  0  0  0
 24 25  2  0  0  0  0
 26 22  2  0  0  0  0
 27 26  1  0  0  0  0
 27 23  2  0  0  0  0
M  END
>  <MODEL>
3

>  <REMARK>
 VINA RESULT:      -8.1      1.675      6.107
  Name = 
  1 active torsions:
  status: ('A' for Active; 'I' for Inactive)
    1  A    between atoms: C_9  and  C_15
                            x       y       z     vdW  Elec       q    Type
                         _______ _______ _______ _____ _____    ______ ____

>  <TORSDO>
F 1

$$$$
=
 OpenBabel11052413403D

 27 31  0  0  1  0  0  0  0  0999 V2000
  187.1410  177.2820  142.8570 O   0  0  0  0  0  0  0  0  0  0  0  0
  187.9660  178.0600  140.7840 C   0  0  0  0  0  0  0  0  0  0  0  0
  190.1400  177.8830  142.0800 N   0  0  0  0  0  2  0  0  0  0  0  0
  189.9940  176.8740  136.8510 C   0  0  0  0  0  3  0  0  0  0  0  0
  192.4110  176.3770  137.2570 C   0  0  0  0  0  1  0  0  0  0  0  0
  187.5520  177.8640  139.5080 N   0  0  0  0  0  0  0  0  0  0  0  0
  190.9840  177.1300  139.1900 C   0  0  0  0  0  0  0  0  0  0  0  0
  191.6800  177.8520  144.9560 C   0  0  0  0  0  2  0  0  0  0  0  0
  192.1670  177.0840  140.1070 C   0  0  0  0  0  1  0  0  0  0  0  0
  191.0950  176.4740  144.6230 C   0  0  0  0  0  2  0  0  0  0  0  0
  189.7690  177.4780  139.6360 C   0  0  0  0  0  0  0  0  0  0  0  0
  187.0400  178.3250  141.9300 C   0  0  1  0  0  3  0  0  0  0  0  0
  191.1240  176.7890  137.7930 N   0  0  0  0  0  0  0  0  0  0  0  0
  188.6910  177.2410  137.5230 C   0  0  0  0  0  3  0  0  0  0  0  0
  187.4910  177.9060  144.0540 C   0  0  0  0  0  2  0  0  0  0  0  0
  189.3320  177.8350  140.8960 C   0  0  0  0  0  0  0  0  0  0  0  0
  191.2120  178.9450  143.9720 C   0  0  0  0  0  2  0  0  0  0  0  0
  188.6610  177.5230  138.8240 C   0  0  0  0  0  0  0  0  0  0  0  0
  189.5580  176.4820  144.6420 C   0  0  0  0  0  2  0  0  0  0  0  0
  188.9950  177.8640  144.2920 C   0  0  1  0  0  3  0  0  0  0  0  0
  189.8650  178.6460  143.2960 C   0  0  2  0  0  3  0  0  0  0  0  0
  182.9460  178.9240  140.7530 C   0  0  0  0  0  3  0  0  0  0  0  0
  185.6150  178.5230  141.5010 C   0  0  0  0  0  0  0  0  0  0  0  0
  184.5830  178.2530  142.4070 C   0  0  0  0  0  3  0  0  0  0  0  0
  183.2500  178.4510  142.0330 C   0  0  0  0  0  3  0  0  0  0  0  0
  183.9730  179.2010  139.8470 C   0  0  0  0  0  3  0  0  0  0  0  0
  185.3060  179.0030  140.2200 C   0  0  0  0  0  3  0  0  0  0  0  0
  1 15  1  0  0  0  0
  2 16  2  0  0  0  0
  2 12  1  0  0  0  0
  3 21  1  0  0  0  0
  4 14  2  0  0  0  0
  4 13  1  0  0  0  0
  5 13  1  0  0  0  0
  6  2  1  0  0  0  0
  7 11  2  0  0  0  0
  7  9  1  0  0  0  0
 10 19  1  0  0  0  0
 10  8  1  0  0  0  0
 11 16  1  0  0  0  0
 12 23  1  6  0  0  0
 12  1  1  0  0  0  0
 13  7  1  0  0  0  0
 14 18  1  0  0  0  0
 16  3  1  0  0  0  0
 17  8  1  0  0  0  0
 18  6  2  0  0  0  0
 18 11  1  0  0  0  0
 20 15  1  6  0  0  0
 20 19  1  0  0  0  0
 21 17  1  1  0  0  0
 21 20  1  0  0  0  0
 22 25  1  0  0  0  0
 23 24  1  0  0  0  0
 25 24  2  0  0  0  0
 26 27  1  0  0  0  0
 26 22  2  0  0  0  0
 27 23  2  0  0  0  0
M  END
>  <MODEL>
4

>  <REMARK>
 VINA RESULT:      -7.6      1.626      6.685
  Name = 
  1 active torsions:
  status: ('A' for Active; 'I' for Inactive)
    1  A    between atoms: C_9  and  C_15
                            x       y       z     vdW  Elec       q    Type
                         _______ _______ _______ _____ _____    ______ ____

>  <TORSDO>
F 1

$$$$
=
 OpenBabel11052413403D

 27 31  0  0  1  0  0  0  0  0999 V2000
  191.7350  177.6040  140.3960 O   0  0  0  0  0  0  0  0  0  0  0  0
  189.6100  176.9920  139.5650 C   0  0  0  0  0  0  0  0  0  0  0  0
  189.0050  177.4990  141.9760 N   0  0  0  0  0  2  0  0  0  0  0  0
  185.5780  178.5340  138.0310 C   0  0  0  0  0  3  0  0  0  0  0  0
  184.2190  179.4040  139.9420 C   0  0  0  0  0  1  0  0  0  0  0  0
  189.0350  177.1360  138.3450 N   0  0  0  0  0  0  0  0  0  0  0  0
  186.4830  178.4110  140.4150 C   0  0  0  0  0  0  0  0  0  0  0  0
  189.9330  177.7400  145.0950 C   0  0  0  0  0  2  0  0  0  0  0  0
  186.2960  178.6330  141.8840 C   0  0  0  0  0  1  0  0  0  0  0  0
  190.2820  179.0110  144.3100 C   0  0  0  0  0  2  0  0  0  0  0  0
  187.6080  177.8690  139.9300 C   0  0  0  0  0  0  0  0  0  0  0  0
  191.0320  176.5700  139.7710 C   0  0  1  0  0  3  0  0  0  0  0  0
  185.4500  178.7870  139.4770 N   0  0  0  0  0  0  0  0  0  0  0  0
  186.9210  177.9560  137.6490 C   0  0  0  0  0  3  0  0  0  0  0  0
  192.2500  177.0300  141.5590 C   0  0  0  0  0  2  0  0  0  0  0  0
  188.7540  177.4310  140.5660 C   0  0  0  0  0  0  0  0  0  0  0  0
  189.4430  176.5980  144.1790 C   0  0  0  0  0  2  0  0  0  0  0  0
  187.8160  177.6570  138.5880 C   0  0  0  0  0  0  0  0  0  0  0  0
  191.3780  178.7580  143.2620 C   0  0  0  0  0  2  0  0  0  0  0  0
  191.3600  177.3080  142.7640 C   0  0  1  0  0  3  0  0  0  0  0  0
  189.9560  176.6870  142.7340 C   0  0  2  0  0  3  0  0  0  0  0  0
  193.0340  175.3710  136.1570 C   0  0  0  0  0  3  0  0  0  0  0  0
  191.7120  176.1520  138.5000 C   0  0  0  0  0  0  0  0  0  0  0  0
  192.8770  176.8140  138.0960 C   0  0  0  0  0  3  0  0  0  0  0  0
  193.5360  176.4250  136.9260 C   0  0  0  0  0  3  0  0  0  0  0  0
  191.8740  174.7030  136.5590 C   0  0  0  0  0  3  0  0  0  0  0  0
  191.2140  175.0910  137.7280 C   0  0  0  0  0  3  0  0  0  0  0  0
  1 15  1  0  0  0  0
  2 12  1  0  0  0  0
  2 16  2  0  0  0  0
  3 21  1  0  0  0  0
  4 13  1  0  0  0  0
  6 18  2  0  0  0  0
  6  2  1  0  0  0  0
  7  9  1  0  0  0  0
 10  8  1  0  0  0  0
 11  7  2  0  0  0  0
 11 16  1  0  0  0  0
 12 23  1  6  0  0  0
 12  1  1  0  0  0  0
 13  5  1  0  0  0  0
 13  7  1  0  0  0  0
 14  4  2  0  0  0  0
 14 18  1  0  0  0  0
 16  3  1  0  0  0  0
 17  8  1  0  0  0  0
 18 11  1  0  0  0  0
 19 10  1  0  0  0  0
 20 15  1  6  0  0  0
 20 19  1  0  0  0  0
 21 20  1  0  0  0  0
 21 17  1  1  0  0  0
 22 26  2  0  0  0  0
 22 25  1  0  0  0  0
 24 23  1  0  0  0  0
 25 24  2  0  0  0  0
 26 27  1  0  0  0  0
 27 23  2  0  0  0  0
M  END
>  <MODEL>
5

>  <REMARK>
 VINA RESULT:      -7.2      1.958      5.409
  Name = 
  1 active torsions:
  status: ('A' for Active; 'I' for Inactive)
    1  A    between atoms: C_9  and  C_15
                            x       y       z     vdW  Elec       q    Type
                         _______ _______ _______ _____ _____    ______ ____

>  <TORSDO>
F 1

$$$$
=
 OpenBabel11052413403D

 27 31  0  0  1  0  0  0  0  0999 V2000
  187.6010  178.7450  141.3950 O   0  0  0  0  0  0  0  0  0  0  0  0
  186.5050  177.9490  143.3300 C   0  0  0  0  0  0  0  0  0  0  0  0
  188.8550  177.1070  143.7840 N   0  0  0  0  0  2  0  0  0  0  0  0
  185.7070  178.6850  147.7810 C   0  0  0  0  0  3  0  0  0  0  0  0
  187.7540  178.1400  149.1120 C   0  0  0  0  0  1  0  0  0  0  0  0
  185.4690  178.4370  144.0550 N   0  0  0  0  0  0  0  0  0  0  0  0
  187.7990  177.7930  146.6190 C   0  0  0  0  0  0  0  0  0  0  0  0
  191.7660  176.1990  142.6230 C   0  0  0  0  0  2  0  0  0  0  0  0
  189.1970  177.2640  146.6980 C   0  0  0  0  0  1  0  0  0  0  0  0
  191.6680  177.7250  142.7480 C   0  0  0  0  0  2  0  0  0  0  0  0
  187.1590  177.9030  145.4460 C   0  0  0  0  0  0  0  0  0  0  0  0
  186.5450  177.9400  141.8340 C   0  0  1  0  0  3  0  0  0  0  0  0
  187.1020  178.2100  147.8150 N   0  0  0  0  0  0  0  0  0  0  0  0
  185.1510  178.7860  146.3800 C   0  0  0  0  0  3  0  0  0  0  0  0
  188.3870  177.9010  140.6100 C   0  0  0  0  0  2  0  0  0  0  0  0
  187.5640  177.6040  144.1600 C   0  0  0  0  0  0  0  0  0  0  0  0
  190.4110  175.4990  142.8610 C   0  0  0  0  0  2  0  0  0  0  0  0
  185.8790  178.3910  145.3370 C   0  0  0  0  0  0  0  0  0  0  0  0
  190.6610  178.3190  141.7500 C   0  0  0  0  0  2  0  0  0  0  0  0
  189.5520  177.3200  141.4010 C   0  0  1  0  0  3  0  0  0  0  0  0
  189.1880  176.3790  142.5600 C   0  0  2  0  0  3  0  0  0  0  0  0
  182.8530  179.1460  139.9870 C   0  0  0  0  0  3  0  0  0  0  0  0
  185.2500  178.3690  141.2080 C   0  0  0  0  0  0  0  0  0  0  0  0
  185.2730  179.0740  139.9990 C   0  0  0  0  0  3  0  0  0  0  0  0
  184.0760  179.4630  139.3900 C   0  0  0  0  0  3  0  0  0  0  0  0
  182.8230  178.4380  141.1900 C   0  0  0  0  0  3  0  0  0  0  0  0
  184.0190  178.0480  141.8000 C   0  0  0  0  0  3  0  0  0  0  0  0
  1 12  1  0  0  0  0
  2  6  1  0  0  0  0
  2 16  2  0  0  0  0
  3 16  1  0  0  0  0
  4 13  1  0  0  0  0
  6 18  2  0  0  0  0
  7  9  1  0  0  0  0
  7 13  1  0  0  0  0
  8 10  1  0  0  0  0
  8 17  1  0  0  0  0
 11  7  2  0  0  0  0
 12 23  1  6  0  0  0
 12  2  1  0  0  0  0
 13  5  1  0  0  0  0
 14  4  2  0  0  0  0
 15  1  1  0  0  0  0
 16 11  1  0  0  0  0
 18 11  1  0  0  0  0
 18 14  1  0  0  0  0
 19 10  1  0  0  0  0
 20 15  1  1  0  0  0
 20 19  1  0  0  0  0
 20 21  1  0  0  0  0
 21 17  1  1  0  0  0
 21  3  1  0  0  0  0
 22 26  1  0  0  0  0
 23 27  1  0  0  0  0
 24 23  2  0  0  0  0
 25 22  2  0  0  0  0
 25 24  1  0  0  0  0
 26 27  2  0  0  0  0
M  END
>  <MODEL>
6

>  <REMARK>
 VINA RESULT:      -7.2      2.459      6.223
  Name = 
  1 active torsions:
  status: ('A' for Active; 'I' for Inactive)
    1  A    between atoms: C_9  and  C_15
                            x       y       z     vdW  Elec       q    Type
                         _______ _______ _______ _____ _____    ______ ____

>  <TORSDO>
F 1

$$$$
=
 OpenBabel11052413403D

 27 31  0  0  1  0  0  0  0  0999 V2000
  183.8850  179.3210  142.8640 O   0  0  0  0  0  0  0  0  0  0  0  0
  185.7050  178.1790  141.8810 C   0  0  0  0  0  0  0  0  0  0  0  0
  184.0260  178.0340  139.9850 N   0  0  0  0  0  2  0  0  0  0  0  0
  189.2350  178.5090  138.9800 C   0  0  0  0  0  3  0  0  0  0  0  0
  188.3990  178.5320  136.6230 C   0  0  0  0  0  1  0  0  0  0  0  0
  187.0470  178.3260  142.0100 N   0  0  0  0  0  0  0  0  0  0  0  0
  186.7370  178.2940  138.5000 C   0  0  0  0  0  0  0  0  0  0  0  0
  180.9120  178.0390  139.0080 C   0  0  0  0  0  2  0  0  0  0  0  0
  185.6130  178.1870  137.5170 C   0  0  0  0  0  1  0  0  0  0  0  0
  181.4370  179.4670  139.2040 C   0  0  0  0  0  2  0  0  0  0  0  0
  186.5150  178.2540  139.8200 C   0  0  0  0  0  0  0  0  0  0  0  0
  184.7470  178.2320  143.0300 C   0  0  1  0  0  3  0  0  0  0  0  0
  188.0990  178.4540  138.0430 N   0  0  0  0  0  0  0  0  0  0  0  0
  188.8080  178.4920  140.4290 C   0  0  0  0  0  3  0  0  0  0  0  0
  182.6060  178.7640  142.8790 C   0  0  0  0  0  2  0  0  0  0  0  0
  185.3440  178.1270  140.5410 C   0  0  0  0  0  0  0  0  0  0  0  0
  181.8990  176.9720  139.5280 C   0  0  0  0  0  2  0  0  0  0  0  0
  187.5220  178.3570  140.7500 C   0  0  0  0  0  0  0  0  0  0  0  0
  181.7170  179.7800  140.6820 C   0  0  0  0  0  2  0  0  0  0  0  0
  182.0830  178.5170  141.4690 C   0  0  1  0  0  3  0  0  0  0  0  0
  182.8410  177.4730  140.6340 C   0  0  2  0  0  3  0  0  0  0  0  0
  186.6540  178.3990  146.8820 C   0  0  0  0  0  3  0  0  0  0  0  0
  185.4310  178.2910  144.3650 C   0  0  0  0  0  0  0  0  0  0  0  0
  184.9830  179.2050  145.3250 C   0  0  0  0  0  3  0  0  0  0  0  0
  185.5940  179.2600  146.5820 C   0  0  0  0  0  3  0  0  0  0  0  0
  187.1010  177.4810  145.9300 C   0  0  0  0  0  3  0  0  0  0  0  0
  186.4910  177.4250  144.6730 C   0  0  0  0  0  3  0  0  0  0  0  0
  1 15  1  0  0  0  0
  1 12  1  0  0  0  0
  2  6  1  0  0  0  0
  2 12  1  0  0  0  0
  3 16  1  0  0  0  0
  3 21  1  0  0  0  0
  4 14  2  0  0  0  0
  5 13  1  0  0  0  0
  7 11  2  0  0  0  0
  8 10  1  0  0  0  0
  8 17  1  0  0  0  0
  9  7  1  0  0  0  0
 10 19  1  0  0  0  0
 11 16  1  0  0  0  0
 11 18  1  0  0  0  0
 12 23  1  1  0  0  0
 13  7  1  0  0  0  0
 13  4  1  0  0  0  0
 14 18  1  0  0  0  0
 16  2  2  0  0  0  0
 18  6  2  0  0  0  0
 20 19  1  6  0  0  0
 20 15  1  0  0  0  0
 21 17  1  6  0  0  0
 21 20  1  0  0  0  0
 23 27  2  0  0  0  0
 23 24  1  0  0  0  0
 24 25  2  0  0  0  0
 25 22  1  0  0  0  0
 26 22  2  0  0  0  0
 27 26  1  0  0  0  0
M  END
>  <MODEL>
7

>  <REMARK>
 VINA RESULT:      -6.9      2.636      5.843
  Name = 
  1 active torsions:
  status: ('A' for Active; 'I' for Inactive)
    1  A    between atoms: C_9  and  C_15
                            x       y       z     vdW  Elec       q    Type
                         _______ _______ _______ _____ _____    ______ ____

>  <TORSDO>
F 1

$$$$
=
 OpenBabel11052413403D

 27 31  0  0  1  0  0  0  0  0999 V2000
  190.1230  178.3120  144.2310 O   0  0  0  0  0  0  0  0  0  0  0  0
  188.1120  177.6340  143.1940 C   0  0  0  0  0  0  0  0  0  0  0  0
  187.3820  177.5990  145.6240 N   0  0  0  0  0  2  0  0  0  0  0  0
  183.9680  178.9740  141.7730 C   0  0  0  0  0  3  0  0  0  0  0  0
  182.4610  179.3050  143.7410 C   0  0  0  0  0  1  0  0  0  0  0  0
  187.5580  177.9410  141.9950 N   0  0  0  0  0  0  0  0  0  0  0  0
  184.8140  178.5010  144.1350 C   0  0  0  0  0  0  0  0  0  0  0  0
  188.1870  177.3450  148.7760 C   0  0  0  0  0  2  0  0  0  0  0  0
  184.5600  178.4170  145.6080 C   0  0  0  0  0  1  0  0  0  0  0  0
  188.4020  178.7730  148.2600 C   0  0  0  0  0  2  0  0  0  0  0  0
  186.0100  178.1930  143.6140 C   0  0  0  0  0  0  0  0  0  0  0  0
  189.5680  177.3430  143.3900 C   0  0  1  0  0  3  0  0  0  0  0  0
  183.7700  178.9300  143.2320 N   0  0  0  0  0  0  0  0  0  0  0  0
  185.3810  178.6360  141.3580 C   0  0  0  0  0  3  0  0  0  0  0  0
  190.6700  177.5880  145.2910 C   0  0  0  0  0  2  0  0  0  0  0  0
  187.1810  177.7740  144.2150 C   0  0  0  0  0  0  0  0  0  0  0  0
  187.8630  176.3500  147.6400 C   0  0  0  0  0  2  0  0  0  0  0  0
  186.2790  178.2660  142.2690 C   0  0  0  0  0  0  0  0  0  0  0  0
  189.5490  178.8500  147.2390 C   0  0  0  0  0  2  0  0  0  0  0  0
  189.7200  177.5290  146.4810 C   0  0  1  0  0  3  0  0  0  0  0  0
  188.4020  176.7700  146.2640 C   0  0  2  0  0  3  0  0  0  0  0  0
  191.7020  177.1180  139.6620 C   0  0  0  0  0  3  0  0  0  0  0  0
  190.3280  177.2550  142.0990 C   0  0  0  0  0  0  0  0  0  0  0  0
  189.6800  176.7850  140.9520 C   0  0  0  0  0  3  0  0  0  0  0  0
  190.3650  176.7150  139.7350 C   0  0  0  0  0  3  0  0  0  0  0  0
  192.3530  177.5940  140.8030 C   0  0  0  0  0  3  0  0  0  0  0  0
  191.6680  177.6640  142.0200 C   0  0  0  0  0  3  0  0  0  0  0  0
  1 15  1  0  0  0  0
  2 12  1  0  0  0  0
  2 16  2  0  0  0  0
  3 21  1  0  0  0  0
  4 13  1  0  0  0  0
  6 18  2  0  0  0  0
  6  2  1  0  0  0  0
  7  9  1  0  0  0  0
 10  8  1  0  0  0  0
 11  7  2  0  0  0  0
 11 16  1  0  0  0  0
 12 23  1  6  0  0  0
 12  1  1  0  0  0  0
 13  5  1  0  0  0  0
 13  7  1  0  0  0  0
 14  4  2  0  0  0  0
 14 18  1  0  0  0  0
 16  3  1  0  0  0  0
 17  8  1  0  0  0  0
 18 11  1  0  0  0  0
 19 10  1  0  0  0  0
 20 15  1  6  0  0  0
 20 19  1  0  0  0  0
 21 20  1  0  0  0  0
 21 17  1  1  0  0  0
 22 25  2  0  0  0  0
 22 26  1  0  0  0  0
 24 23  2  0  0  0  0
 25 24  1  0  0  0  0
 26 27  2  0  0  0  0
 27 23  1  0  0  0  0
M  END
>  <MODEL>
8

>  <REMARK>
 VINA RESULT:      -6.8      2.348      5.864
  Name = 
  1 active torsions:
  status: ('A' for Active; 'I' for Inactive)
    1  A    between atoms: C_9  and  C_15
                            x       y       z     vdW  Elec       q    Type
                         _______ _______ _______ _____ _____    ______ ____

>  <TORSDO>
F 1

$$$$
=
 OpenBabel11052413403D

 27 31  0  0  1  0  0  0  0  0999 V2000
  189.2210  178.4580  147.4960 O   0  0  0  0  0  0  0  0  0  0  0  0
  189.8850  177.2120  145.6020 C   0  0  0  0  0  0  0  0  0  0  0  0
  187.4760  177.7050  144.9760 N   0  0  0  0  0  2  0  0  0  0  0  0
  191.2620  177.4370  141.2380 C   0  0  0  0  0  3  0  0  0  0  0  0
  189.3280  178.0280  139.7660 C   0  0  0  0  0  1  0  0  0  0  0  0
  191.0740  177.0970  144.9600 N   0  0  0  0  0  0  0  0  0  0  0  0
  188.9330  177.7500  142.2370 C   0  0  0  0  0  0  0  0  0  0  0  0
  184.4390  178.4280  145.9240 C   0  0  0  0  0  2  0  0  0  0  0  0
  187.4720  178.0200  142.0540 C   0  0  0  0  0  1  0  0  0  0  0  0
  185.3170  179.6840  145.8630 C   0  0  0  0  0  2  0  0  0  0  0  0
  189.4530  177.5130  143.4500 C   0  0  0  0  0  0  0  0  0  0  0  0
  189.7400  177.2240  147.0920 C   0  0  1  0  0  3  0  0  0  0  0  0
  189.8280  177.7490  141.1020 N   0  0  0  0  0  0  0  0  0  0  0  0
  191.6890  177.2340  142.6730 C   0  0  0  0  0  3  0  0  0  0  0  0
  188.0590  178.1390  148.2000 C   0  0  0  0  0  2  0  0  0  0  0  0
  188.8620  177.4650  144.6970 C   0  0  0  0  0  0  0  0  0  0  0  0
  185.2530  177.1290  145.7420 C   0  0  0  0  0  2  0  0  0  0  0  0
  190.7900  177.2710  143.6540 C   0  0  0  0  0  0  0  0  0  0  0  0
  186.4130  179.6730  146.9420 C   0  0  0  0  0  2  0  0  0  0  0  0
  186.8210  178.2440  147.3180 C   0  0  1  0  0  3  0  0  0  0  0  0
  186.7300  177.2520  146.1490 C   0  0  2  0  0  3  0  0  0  0  0  0
  193.3890  176.3700  149.2030 C   0  0  0  0  0  3  0  0  0  0  0  0
  191.0230  176.9220  147.8100 C   0  0  0  0  0  0  0  0  0  0  0  0
  191.4890  177.8120  148.7840 C   0  0  0  0  0  3  0  0  0  0  0  0
  192.6710  177.5370  149.4790 C   0  0  0  0  0  3  0  0  0  0  0  0
  192.9250  175.4750  148.2360 C   0  0  0  0  0  3  0  0  0  0  0  0
  191.7440  175.7490  147.5410 C   0  0  0  0  0  3  0  0  0  0  0  0
  1 15  1  0  0  0  0
  2 12  1  0  0  0  0
  3 21  1  0  0  0  0
  4 14  2  0  0  0  0
  5 13  1  0  0  0  0
  6  2  1  0  0  0  0
  7 11  2  0  0  0  0
  9  7  1  0  0  0  0
 10  8  1  0  0  0  0
 10 19  1  0  0  0  0
 11 18  1  0  0  0  0
 11 16  1  0  0  0  0
 12  1  1  0  0  0  0
 12 23  1  1  0  0  0
 13  4  1  0  0  0  0
 13  7  1  0  0  0  0
 14 18  1  0  0  0  0
 16  3  1  0  0  0  0
 16  2  2  0  0  0  0
 17  8  1  0  0  0  0
 18  6  2  0  0  0  0
 20 19  1  6  0  0  0
 20 15  1  0  0  0  0
 21 17  1  6  0  0  0
 21 20  1  0  0  0  0
 22 25  1  0  0  0  0
 23 24  1  0  0  0  0
 24 25  2  0  0  0  0
 26 22  2  0  0  0  0
 27 23  2  0  0  0  0
 27 26  1  0  0  0  0
M  END
>  <MODEL>
9

>  <REMARK>
 VINA RESULT:      -6.5      3.181      6.778
  Name = 
  1 active torsions:
  status: ('A' for Active; 'I' for Inactive)
    1  A    between atoms: C_9  and  C_15
                            x       y       z     vdW  Elec       q    Type
                         _______ _______ _______ _____ _____    ______ ____

>  <TORSDO>
F 1

$$$$
