=
 OpenBabel11052417033D

 32 36  0  0  1  0  0  0  0  0999 V2000
  188.1440  177.8970  146.8870 C   0  0  0  0  0  0  0  0  0  0  0  0
  184.9090  178.4650  142.9930 C   0  0  1  0  0  3  0  0  0  0  0  0
  182.3970  178.7030  142.6530 C   0  0  0  0  0  0  0  0  0  0  0  0
  181.2860  179.1430  141.7880 C   0  0  0  0  0  0  0  0  0  0  0  0
  185.9690  178.2570  145.2020 C   0  0  0  0  0  0  0  0  0  0  0  0
  187.4040  177.7670  143.1760 C   0  0  0  0  0  3  0  0  0  0  0  0
  179.1960  179.9830  140.1200 C   0  0  0  0  0  3  0  0  0  0  0  0
  188.3130  177.7690  145.5060 C   0  0  0  0  0  3  0  0  0  0  0  0
  186.2340  178.2700  142.3530 C   0  0  0  0  0  0  0  0  0  0  0  0
  186.3660  178.4740  141.0260 C   0  0  0  0  0  0  0  0  0  0  0  0
  183.9770  179.0200  140.7580 C   0  0  0  0  0  0  0  0  0  0  0  0
  178.9310  179.6250  141.4440 C   0  0  0  0  0  3  0  0  0  0  0  0
  186.8770  178.1910  147.3970 C   0  0  0  0  0  3  0  0  0  0  0  0
  187.2260  177.9590  144.6520 C   0  0  0  0  0  0  0  0  0  0  0  0
  179.9720  179.2050  142.2760 C   0  0  0  0  0  3  0  0  0  0  0  0
  185.8250  178.3650  146.5510 N   0  0  0  0  0  0  0  0  0  0  0  0
  185.1990  178.9320  140.2070 C   0  0  0  0  0  0  0  0  0  0  0  0
  182.8740  179.4310  139.9410 N   0  0  0  0  0  2  0  0  0  0  0  0
  184.8100  178.4700  144.3300 C   0  0  0  0  0  3  0  0  0  0  0  0
  182.1410  178.2940  143.8180 O   0  0  0  0  0  0  0  0  0  0  0  0
  180.5020  179.9220  139.6270 C   0  0  0  0  0  3  0  0  0  0  0  0
  183.7580  178.7190  142.1550 N   0  0  0  0  0  0  0  0  0  0  0  0
  181.5470  179.5030  140.4570 C   0  0  0  0  0  0  0  0  0  0  0  0
  188.6600  178.0100  139.8820 N   0  0  0  0  0  0  0  0  0  0  0  0
  187.6390  178.2140  140.3890 C   0  0  0  0  0  0  0  0  0  0  0  0
  185.4280  178.3700  137.8710 O   0  0  0  0  0  1  0  0  0  0  0  0
  185.3230  179.2770  138.8510 O   0  0  0  0  0  0  0  0  0  0  0  0
  189.2940  177.6830  147.8070 C   0  0  0  0  0  2  0  0  0  0  0  0
  190.0320  176.4010  147.4350 C   0  0  0  0  0  2  0  0  0  0  0  0
  191.4880  176.6520  147.0520 C   0  0  0  0  0  3  0  0  0  0  0  0
  192.4130  175.6090  147.6540 C   0  0  0  0  0  1  0  0  0  0  0  0
  191.6680  176.7140  145.5450 C   0  0  0  0  0  1  0  0  0  0  0  0
  1 13  1  0  0  0  0
  1 28  1  0  0  0  0
  2 19  1  1  0  0  0
  3 20  2  0  0  0  0
  4 15  1  0  0  0  0
  4  3  1  0  0  0  0
  5 16  1  0  0  0  0
  6 14  2  0  0  0  0
  7 12  1  0  0  0  0
  8  1  2  0  0  0  0
  9  2  1  0  0  0  0
  9  6  1  0  0  0  0
 10  9  2  0  0  0  0
 11 22  1  0  0  0  0
 12 15  2  0  0  0  0
 14  5  1  0  0  0  0
 14  8  1  0  0  0  0
 16 13  2  0  0  0  0
 17 11  2  0  0  0  0
 17 10  1  0  0  0  0
 18 23  1  0  0  0  0
 18 11  1  0  0  0  0
 19  5  2  0  0  0  0
 21  7  2  0  0  0  0
 21 23  1  0  0  0  0
 22  3  1  0  0  0  0
 22  2  1  0  0  0  0
 23  4  2  0  0  0  0
 24 25  3  0  0  0  0
 25 10  1  0  0  0  0
 26 27  1  0  0  0  0
 27 17  1  0  0  0  0
 29 28  1  0  0  0  0
 30 29  1  0  0  0  0
 30 31  1  0  0  0  0
 32 30  1  0  0  0  0
M  END
>  <MODEL>
1

>  <REMARK>
 VINA RESULT:      -9.6      0.000      0.000
  Name = 
  5 active torsions:
  status: ('A' for Active; 'I' for Inactive)
    1  A    between atoms: C_1  and  C_10
    2  A    between atoms: C_2  and  C_24
    3  A    between atoms: C_10  and  C_24
    4  A    between atoms: C_13  and  C_15
    5  A    between atoms: O_25  and  C_26
                            x       y       z     vdW  Elec       q    Type
                         _______ _______ _______ _____ _____    ______ ____

>  <TORSDO>
F 5

$$$$
=
 OpenBabel11052417033D

 32 36  0  0  0  0  0  0  0  0999 V2000
  181.7390  179.0040  142.5680 C   0  0  0  0  0  0  0  0  0  0  0  0
  186.6950  178.0620  143.2750 C   0  0  0  0  0  0  0  0  0  0  0  0
  188.2860  177.7280  145.2350 C   0  0  0  0  0  0  0  0  0  0  0  0
  189.5690  177.1940  145.7310 C   0  0  0  0  0  0  0  0  0  0  0  0
  184.2830  178.4610  143.5350 C   0  0  0  0  0  0  0  0  0  0  0  0
  185.2820  178.8430  141.2410 C   0  0  0  0  0  3  0  0  0  0  0  0
  192.0160  176.1760  146.6400 C   0  0  0  0  0  3  0  0  0  0  0  0
  182.8300  179.0360  141.6960 C   0  0  0  0  0  2  0  0  0  0  0  0
  186.5560  178.2480  141.8090 C   0  0  0  0  0  0  0  0  0  0  0  0
  187.5940  177.9510  141.0010 C   0  0  0  0  0  0  0  0  0  0  0  0
  189.0360  177.3200  142.8990 C   0  0  0  0  0  0  0  0  0  0  0  0
  191.0620  176.6220  147.5580 C   0  0  0  0  0  3  0  0  0  0  0  0
  181.9510  178.7120  143.9170 C   0  0  0  0  0  3  0  0  0  0  0  0
  184.1110  178.7530  142.1720 C   0  0  0  0  0  0  0  0  0  0  0  0
  189.8420  177.1310  147.1050 C   0  0  0  0  0  3  0  0  0  0  0  0
  183.2070  178.4470  144.3680 N   0  0  0  0  0  0  0  0  0  0  0  0
  188.8670  177.4020  141.5680 C   0  0  0  0  0  0  0  0  0  0  0  0
  190.2760  176.8190  143.4120 N   0  0  0  0  0  2  0  0  0  0  0  0
  185.6150  178.1520  144.0630 C   0  0  0  0  0  3  0  0  0  0  0  0
  187.4650  178.2140  146.0600 O   0  0  0  0  0  0  0  0  0  0  0  0
  191.7520  176.2390  145.2700 C   0  0  0  0  0  3  0  0  0  0  0  0
  187.9920  177.7140  143.8160 N   0  0  0  0  0  0  0  0  0  0  0  0
  190.5320  176.7460  144.8130 C   0  0  0  0  0  0  0  0  0  0  0  0
  187.4020  178.4030  138.4430 N   0  0  0  0  0  0  0  0  0  0  0  0
  187.4840  178.2010  139.5800 C   0  0  0  0  0  0  0  0  0  0  0  0
  190.7730  177.7980  140.1420 O   0  0  0  0  0  1  0  0  0  0  0  0
  189.9240  176.9630  140.7540 O   0  0  0  0  0  0  0  0  0  0  0  0
  180.3720  179.3170  142.0720 C   0  0  0  0  0  2  0  0  0  0  0  0
  180.3360  179.2420  140.5480 C   0  0  0  0  0  2  0  0  0  0  0  0
  179.7350  180.4930  139.9130 C   0  0  0  0  0  3  0  0  0  0  0  0
  179.1080  181.4030  140.9540 C   0  0  0  0  0  1  0  0  0  0  0  0
  180.7640  181.2530  139.0940 C   0  0  0  0  0  1  0  0  0  0  0  0
  1 13  2  0  0  0  0
  2 22  1  0  0  0  0
  2 19  2  0  0  0  0
  3  4  1  0  0  0  0
  3 20  2  0  0  0  0
  4 15  1  0  0  0  0
  5 19  1  0  0  0  0
  5 16  2  0  0  0  0
  6  9  1  0  0  0  0
  6 14  2  0  0  0  0
  7 12  1  0  0  0  0
  8 14  1  0  0  0  0
  8  1  1  0  0  0  0
  9  2  1  0  0  0  0
 10 17  1  0  0  0  0
 10  9  2  0  0  0  0
 11 18  1  0  0  0  0
 11 22  1  0  0  0  0
 13 16  1  0  0  0  0
 14  5  1  0  0  0  0
 15 12  2  0  0  0  0
 17 11  2  0  0  0  0
 18 23  1  0  0  0  0
 21  7  2  0  0  0  0
 22  3  1  0  0  0  0
 23 21  1  0  0  0  0
 23  4  2  0  0  0  0
 24 25  3  0  0  0  0
 25 10  1  0  0  0  0
 26 27  1  0  0  0  0
 27 17  1  0  0  0  0
 28  1  1  0  0  0  0
 29 28  1  0  0  0  0
 30 29  1  0  0  0  0
 30 31  1  0  0  0  0
 32 30  1  0  0  0  0
M  END
>  <MODEL>
2

>  <REMARK>
 VINA RESULT:      -9.4      2.278      8.471
  Name = 
  5 active torsions:
  status: ('A' for Active; 'I' for Inactive)
    1  A    between atoms: C_1  and  C_10
    2  A    between atoms: C_2  and  C_24
    3  A    between atoms: C_10  and  C_24
    4  A    between atoms: C_13  and  C_15
    5  A    between atoms: O_25  and  C_26
                            x       y       z     vdW  Elec       q    Type
                         _______ _______ _______ _____ _____    ______ ____

>  <TORSDO>
F 5

$$$$
=
 OpenBabel11052417033D

 32 36  0  0  0  0  0  0  0  0999 V2000
  181.6270  178.9100  139.6270 C   0  0  0  0  0  0  0  0  0  0  0  0
  185.8580  178.4080  142.4210 C   0  0  0  0  0  0  0  0  0  0  0  0
  186.4810  178.2960  144.8870 C   0  0  0  0  0  0  0  0  0  0  0  0
  187.4590  177.8920  145.9150 C   0  0  0  0  0  0  0  0  0  0  0  0
  183.5450  178.6210  141.6120 C   0  0  0  0  0  0  0  0  0  0  0  0
  185.4020  178.9750  139.9280 C   0  0  0  0  0  3  0  0  0  0  0  0
  189.3400  177.1190  147.8440 C   0  0  0  0  0  3  0  0  0  0  0  0
  182.9820  178.9890  139.2940 C   0  0  0  0  0  2  0  0  0  0  0  0
  186.3440  178.5130  141.0230 C   0  0  0  0  0  0  0  0  0  0  0  0
  187.6410  178.2640  140.7510 C   0  0  0  0  0  0  0  0  0  0  0  0
  188.1730  177.8410  143.1210 C   0  0  0  0  0  0  0  0  0  0  0  0
  188.0640  177.5280  148.2390 C   0  0  0  0  0  3  0  0  0  0  0  0
  181.2620  178.6990  140.9590 C   0  0  0  0  0  3  0  0  0  0  0  0
  183.9530  178.8340  140.2850 C   0  0  0  0  0  0  0  0  0  0  0  0
  187.1260  177.9150  147.2770 C   0  0  0  0  0  3  0  0  0  0  0  0
  182.2200  178.5580  141.9150 N   0  0  0  0  0  0  0  0  0  0  0  0
  188.5800  177.8470  141.8410 C   0  0  0  0  0  0  0  0  0  0  0  0
  189.1030  177.4670  144.1440 N   0  0  0  0  0  2  0  0  0  0  0  0
  184.5420  178.4460  142.6730 C   0  0  0  0  0  3  0  0  0  0  0  0
  185.3630  178.7510  145.2510 O   0  0  0  0  0  0  0  0  0  0  0  0
  189.6790  177.0960  146.4890 C   0  0  0  0  0  3  0  0  0  0  0  0
  186.8180  178.1920  143.4820 N   0  0  0  0  0  0  0  0  0  0  0  0
  188.7430  177.4810  145.5240 C   0  0  0  0  0  0  0  0  0  0  0  0
  188.5290  178.5790  138.3220 N   0  0  0  0  0  0  0  0  0  0  0  0
  188.1320  178.4380  139.4010 C   0  0  0  0  0  0  0  0  0  0  0  0
  190.2330  176.2560  141.0930 O   0  0  0  0  0  1  0  0  0  0  0  0
  189.9050  177.4580  141.5830 O   0  0  0  0  0  0  0  0  0  0  0  0
  180.5850  179.0870  138.5800 C   0  0  0  0  0  2  0  0  0  0  0  0
  181.1730  179.8100  137.3710 C   0  0  0  0  0  2  0  0  0  0  0  0
  180.5610  181.1920  137.1600 C   0  0  0  0  0  3  0  0  0  0  0  0
  181.2830  182.2530  137.9710 C   0  0  0  0  0  1  0  0  0  0  0  0
  180.5370  181.5740  135.6900 C   0  0  0  0  0  1  0  0  0  0  0  0
  1 13  2  0  0  0  0
  2 19  2  0  0  0  0
  2 22  1  0  0  0  0
  3 20  2  0  0  0  0
  3  4  1  0  0  0  0
  4 15  1  0  0  0  0
  5 16  2  0  0  0  0
  5 19  1  0  0  0  0
  6 14  2  0  0  0  0
  6  9  1  0  0  0  0
  7 12  1  0  0  0  0
  8  1  1  0  0  0  0
  8 14  1  0  0  0  0
  9  2  1  0  0  0  0
 10  9  2  0  0  0  0
 10 17  1  0  0  0  0
 11 22  1  0  0  0  0
 11 18  1  0  0  0  0
 13 16  1  0  0  0  0
 14  5  1  0  0  0  0
 15 12  2  0  0  0  0
 17 11  2  0  0  0  0
 18 23  1  0  0  0  0
 21  7  2  0  0  0  0
 22  3  1  0  0  0  0
 23  4  2  0  0  0  0
 23 21  1  0  0  0  0
 24 25  3  0  0  0  0
 25 10  1  0  0  0  0
 26 27  1  0  0  0  0
 27 17  1  0  0  0  0
 28  1  1  0  0  0  0
 29 28  1  0  0  0  0
 30 29  1  0  0  0  0
 30 31  1  0  0  0  0
 32 30  1  0  0  0  0
M  END
>  <MODEL>
3

>  <REMARK>
 VINA RESULT:      -9.2      2.337      8.522
  Name = 
  5 active torsions:
  status: ('A' for Active; 'I' for Inactive)
    1  A    between atoms: C_1  and  C_10
    2  A    between atoms: C_2  and  C_24
    3  A    between atoms: C_10  and  C_24
    4  A    between atoms: C_13  and  C_15
    5  A    between atoms: O_25  and  C_26
                            x       y       z     vdW  Elec       q    Type
                         _______ _______ _______ _____ _____    ______ ____

>  <TORSDO>
F 5

$$$$
=
 OpenBabel11052417033D

 32 36  0  0  1  0  0  0  0  0999 V2000
  188.6560  177.5060  146.9760 C   0  0  0  0  0  0  0  0  0  0  0  0
  186.2850  178.1200  142.5090 C   0  0  1  0  0  3  0  0  0  0  0  0
  183.9170  178.5520  141.6790 C   0  0  0  0  0  0  0  0  0  0  0  0
  183.0370  179.0350  140.5980 C   0  0  0  0  0  0  0  0  0  0  0  0
  186.8830  177.9510  144.8890 C   0  0  0  0  0  0  0  0  0  0  0  0
  188.6220  177.2230  143.2000 C   0  0  0  0  0  3  0  0  0  0  0  0
  181.3900  179.9520  138.5240 C   0  0  0  0  0  3  0  0  0  0  0  0
  189.0690  177.2830  145.6600 C   0  0  0  0  0  3  0  0  0  0  0  0
  187.6830  177.7750  142.1460 C   0  0  0  0  0  0  0  0  0  0  0  0
  188.0820  177.8900  140.8630 C   0  0  0  0  0  0  0  0  0  0  0  0
  185.8500  178.6210  140.1150 C   0  0  0  0  0  0  0  0  0  0  0  0
  180.8460  179.6950  139.7850 C   0  0  0  0  0  3  0  0  0  0  0  0
  187.3490  177.9360  147.2180 C   0  0  0  0  0  3  0  0  0  0  0  0
  188.1870  177.5150  144.6040 C   0  0  0  0  0  0  0  0  0  0  0  0
  181.6670  179.2370  140.8190 C   0  0  0  0  0  3  0  0  0  0  0  0
  186.4980  178.1500  146.1780 N   0  0  0  0  0  0  0  0  0  0  0  0
  187.1400  178.3970  139.8150 C   0  0  0  0  0  0  0  0  0  0  0  0
  184.9660  179.0760  139.0840 N   0  0  0  0  0  2  0  0  0  0  0  0
  185.9360  178.2110  143.8000 C   0  0  0  0  0  3  0  0  0  0  0  0
  183.4080  178.2350  142.7880 O   0  0  0  0  0  0  0  0  0  0  0  0
  182.7540  179.7500  138.2960 C   0  0  0  0  0  3  0  0  0  0  0  0
  185.3430  178.4230  141.4540 N   0  0  0  0  0  0  0  0  0  0  0  0
  183.5780  179.2920  139.3290 C   0  0  0  0  0  0  0  0  0  0  0  0
  190.4940  177.1560  140.2060 N   0  0  0  0  0  0  0  0  0  0  0  0
  189.4220  177.4850  140.4960 C   0  0  0  0  0  0  0  0  0  0  0  0
  188.6420  179.3630  138.1920 O   0  0  0  0  0  1  0  0  0  0  0  0
  187.5500  178.6500  138.4960 O   0  0  0  0  0  0  0  0  0  0  0  0
  189.5850  177.2480  148.1090 C   0  0  0  0  0  2  0  0  0  0  0  0
  191.0300  177.2710  147.6190 C   0  0  0  0  0  2  0  0  0  0  0  0
  191.6330  175.8740  147.5040 C   0  0  0  0  0  3  0  0  0  0  0  0
  192.0590  175.5650  146.0810 C   0  0  0  0  0  1  0  0  0  0  0  0
  192.8000  175.6890  148.4600 C   0  0  0  0  0  1  0  0  0  0  0  0
  1 13  1  0  0  0  0
  1 28  1  0  0  0  0
  2 19  1  1  0  0  0
  3 20  2  0  0  0  0
  4 15  1  0  0  0  0
  4  3  1  0  0  0  0
  5 16  1  0  0  0  0
  6 14  2  0  0  0  0
  7 12  1  0  0  0  0
  8  1  2  0  0  0  0
  9  2  1  0  0  0  0
  9  6  1  0  0  0  0
 10  9  2  0  0  0  0
 11 22  1  0  0  0  0
 12 15  2  0  0  0  0
 14  5  1  0  0  0  0
 14  8  1  0  0  0  0
 16 13  2  0  0  0  0
 17 11  2  0  0  0  0
 17 10  1  0  0  0  0
 18 23  1  0  0  0  0
 18 11  1  0  0  0  0
 19  5  2  0  0  0  0
 21  7  2  0  0  0  0
 21 23  1  0  0  0  0
 22  3  1  0  0  0  0
 22  2  1  0  0  0  0
 23  4  2  0  0  0  0
 24 25  3  0  0  0  0
 25 10  1  0  0  0  0
 26 27  1  0  0  0  0
 27 17  1  0  0  0  0
 29 28  1  0  0  0  0
 30 29  1  0  0  0  0
 30 32  1  0  0  0  0
 31 30  1  0  0  0  0
M  END
>  <MODEL>
4

>  <REMARK>
 VINA RESULT:      -9.1      1.395      1.896
  Name = 
  5 active torsions:
  status: ('A' for Active; 'I' for Inactive)
    1  A    between atoms: C_1  and  C_10
    2  A    between atoms: C_2  and  C_24
    3  A    between atoms: C_10  and  C_24
    4  A    between atoms: C_13  and  C_15
    5  A    between atoms: O_25  and  C_26
                            x       y       z     vdW  Elec       q    Type
                         _______ _______ _______ _____ _____    ______ ____

>  <TORSDO>
F 5

$$$$
=
 OpenBabel11052417033D

 32 36  0  0  1  0  0  0  0  0999 V2000
  192.0830  176.6060  138.5560 C   0  0  0  0  0  0  0  0  0  0  0  0
  188.6300  177.7510  142.1230 C   0  0  1  0  0  3  0  0  0  0  0  0
  186.2040  178.5180  142.2150 C   0  0  0  0  0  0  0  0  0  0  0  0
  184.9540  178.6310  142.9920 C   0  0  0  0  0  0  0  0  0  0  0  0
  189.8310  177.2890  140.0270 C   0  0  0  0  0  0  0  0  0  0  0  0
  191.2070  177.4320  142.1460 C   0  0  0  0  0  3  0  0  0  0  0  0
  182.5980  178.8380  144.4940 C   0  0  0  0  0  3  0  0  0  0  0  0
  192.1960  176.8190  139.9320 C   0  0  0  0  0  3  0  0  0  0  0  0
  189.8830  177.5050  142.8800 C   0  0  0  0  0  0  0  0  0  0  0  0
  189.8380  177.4200  144.2250 C   0  0  0  0  0  0  0  0  0  0  0  0
  187.4110  177.8490  144.2850 C   0  0  0  0  0  0  0  0  0  0  0  0
  182.5790  179.1150  143.1250 C   0  0  0  0  0  3  0  0  0  0  0  0
  190.8370  176.7540  137.9420 C   0  0  0  0  0  3  0  0  0  0  0  0
  191.0660  177.1520  140.6800 C   0  0  0  0  0  0  0  0  0  0  0  0
  183.7540  179.0130  142.3760 C   0  0  0  0  0  3  0  0  0  0  0  0
  189.7460  177.0880  138.6840 N   0  0  0  0  0  0  0  0  0  0  0  0
  188.5340  177.5330  144.9520 C   0  0  0  0  0  0  0  0  0  0  0  0
  186.1840  177.9810  145.0130 N   0  0  0  0  0  2  0  0  0  0  0  0
  188.6250  177.6300  140.7880 C   0  0  0  0  0  3  0  0  0  0  0  0
  186.2030  178.8560  141.0010 O   0  0  0  0  0  0  0  0  0  0  0  0
  183.7910  178.4590  145.1150 C   0  0  0  0  0  3  0  0  0  0  0  0
  187.4170  178.0470  142.8540 N   0  0  0  0  0  0  0  0  0  0  0  0
  184.9680  178.3550  144.3680 C   0  0  0  0  0  0  0  0  0  0  0  0
  192.0540  177.1150  145.5620 N   0  0  0  0  0  0  0  0  0  0  0  0
  191.0680  177.2530  144.9690 C   0  0  0  0  0  0  0  0  0  0  0  0
  188.7860  178.2410  147.2450 O   0  0  0  0  0  1  0  0  0  0  0  0
  188.4250  177.3260  146.3370 O   0  0  0  0  0  0  0  0  0  0  0  0
  193.2840  176.2630  137.7470 C   0  0  0  0  0  2  0  0  0  0  0  0
  193.3900  174.7510  137.5800 C   0  0  0  0  0  2  0  0  0  0  0  0
  194.8330  174.2550  137.6250 C   0  0  0  0  0  3  0  0  0  0  0  0
  195.6740  174.8790  136.5260 C   0  0  0  0  0  1  0  0  0  0  0  0
  195.4670  174.5020  138.9840 C   0  0  0  0  0  1  0  0  0  0  0  0
  1  8  2  0  0  0  0
  2 19  1  1  0  0  0
  2 22  1  0  0  0  0
  2  9  1  0  0  0  0
  3 22  1  0  0  0  0
  3  4  1  0  0  0  0
  4 23  1  0  0  0  0
  5 14  1  0  0  0  0
  5 19  2  0  0  0  0
  6  9  1  0  0  0  0
  7 21  1  0  0  0  0
  8 14  1  0  0  0  0
  9 10  2  0  0  0  0
 10 17  1  0  0  0  0
 10 25  1  0  0  0  0
 11 17  2  0  0  0  0
 11 18  1  0  0  0  0
 12  7  2  0  0  0  0
 13  1  1  0  0  0  0
 13 16  2  0  0  0  0
 14  6  2  0  0  0  0
 15  4  2  0  0  0  0
 15 12  1  0  0  0  0
 16  5  1  0  0  0  0
 17 27  1  0  0  0  0
 20  3  2  0  0  0  0
 22 11  1  0  0  0  0
 23 18  1  0  0  0  0
 23 21  2  0  0  0  0
 25 24  3  0  0  0  0
 27 26  1  0  0  0  0
 28  1  1  0  0  0  0
 29 30  1  0  0  0  0
 29 28  1  0  0  0  0
 30 32  1  0  0  0  0
 31 30  1  0  0  0  0
M  END
>  <MODEL>
5

>  <REMARK>
 VINA RESULT:      -8.9      4.371      7.011
  Name = 
  5 active torsions:
  status: ('A' for Active; 'I' for Inactive)
    1  A    between atoms: C_1  and  C_10
    2  A    between atoms: C_2  and  C_24
    3  A    between atoms: C_10  and  C_24
    4  A    between atoms: C_13  and  C_15
    5  A    between atoms: O_25  and  C_26
                            x       y       z     vdW  Elec       q    Type
                         _______ _______ _______ _____ _____    ______ ____

>  <TORSDO>
F 5

$$$$
=
 OpenBabel11052417033D

 32 36  0  0  1  0  0  0  0  0999 V2000
  190.4100  177.0410  145.8330 C   0  0  0  0  0  0  0  0  0  0  0  0
  190.1430  177.2360  140.7490 C   0  0  1  0  0  3  0  0  0  0  0  0
  191.6500  176.7150  138.7650 C   0  0  0  0  0  0  0  0  0  0  0  0
  191.7660  176.4010  137.3280 C   0  0  0  0  0  0  0  0  0  0  0  0
  190.8110  176.8930  143.0910 C   0  0  0  0  0  0  0  0  0  0  0  0
  188.7060  178.2330  142.6690 C   0  0  0  0  0  3  0  0  0  0  0  0
  191.9550  175.8130  134.5940 C   0  0  0  0  0  3  0  0  0  0  0  0
  189.4860  177.6300  144.9680 C   0  0  0  0  0  3  0  0  0  0  0  0
  188.8680  177.8380  141.2140 C   0  0  0  0  0  0  0  0  0  0  0  0
  187.8910  178.0940  140.3200 C   0  0  0  0  0  0  0  0  0  0  0  0
  189.2520  177.2830  138.4310 C   0  0  0  0  0  0  0  0  0  0  0  0
  193.0770  175.6800  135.4150 C   0  0  0  0  0  3  0  0  0  0  0  0
  191.5300  176.3970  145.3000 C   0  0  0  0  0  3  0  0  0  0  0  0
  189.6740  177.5510  143.5870 C   0  0  0  0  0  0  0  0  0  0  0  0
  192.9840  175.9740  136.7780 C   0  0  0  0  0  3  0  0  0  0  0  0
  191.7050  176.3360  143.9530 N   0  0  0  0  0  0  0  0  0  0  0  0
  188.0690  177.7400  138.8760 C   0  0  0  0  0  0  0  0  0  0  0  0
  189.4010  176.9830  137.0380 N   0  0  0  0  0  2  0  0  0  0  0  0
  191.0320  176.7860  141.6460 C   0  0  0  0  0  3  0  0  0  0  0  0
  192.6850  176.6820  139.4840 O   0  0  0  0  0  0  0  0  0  0  0  0
  190.7390  176.2410  135.1340 C   0  0  0  0  0  3  0  0  0  0  0  0
  190.3660  177.0800  139.3280 N   0  0  0  0  0  0  0  0  0  0  0  0
  190.6420  176.5340  136.4980 C   0  0  0  0  0  0  0  0  0  0  0  0
  185.7080  179.2760  141.1100 N   0  0  0  0  0  0  0  0  0  0  0  0
  186.6770  178.7480  140.7600 C   0  0  0  0  0  0  0  0  0  0  0  0
  186.8050  179.0010  137.2530 O   0  0  0  0  0  1  0  0  0  0  0  0
  187.0330  177.8740  137.9370 O   0  0  0  0  0  0  0  0  0  0  0  0
  190.2250  177.1320  147.3070 C   0  0  0  0  0  2  0  0  0  0  0  0
  188.9230  176.4480  147.7150 C   0  0  0  0  0  2  0  0  0  0  0  0
  187.9030  177.4260  148.2910 C   0  0  0  0  0  3  0  0  0  0  0  0
  188.5770  178.6290  148.9250 C   0  0  0  0  0  1  0  0  0  0  0  0
  186.9000  177.8720  147.2410 C   0  0  0  0  0  1  0  0  0  0  0  0
  1 28  1  0  0  0  0
  2  9  1  0  0  0  0
  2 19  1  1  0  0  0
  3 22  1  0  0  0  0
  3 20  2  0  0  0  0
  4  3  1  0  0  0  0
  5 14  1  0  0  0  0
  5 16  1  0  0  0  0
  6 14  2  0  0  0  0
  7 21  2  0  0  0  0
  7 12  1  0  0  0  0
  8  1  2  0  0  0  0
  9  6  1  0  0  0  0
 10 25  1  0  0  0  0
 10  9  2  0  0  0  0
 11 17  2  0  0  0  0
 11 22  1  0  0  0  0
 12 15  2  0  0  0  0
 13  1  1  0  0  0  0
 14  8  1  0  0  0  0
 15  4  1  0  0  0  0
 16 13  2  0  0  0  0
 17 10  1  0  0  0  0
 18 11  1  0  0  0  0
 19  5  2  0  0  0  0
 21 23  1  0  0  0  0
 22  2  1  0  0  0  0
 23 18  1  0  0  0  0
 23  4  2  0  0  0  0
 25 24  3  0  0  0  0
 26 27  1  0  0  0  0
 27 17  1  0  0  0  0
 28 29  1  0  0  0  0
 29 30  1  0  0  0  0
 30 31  1  0  0  0  0
 32 30  1  0  0  0  0
M  END
>  <MODEL>
6

>  <REMARK>
 VINA RESULT:      -8.8      3.807      7.417
  Name = 
  5 active torsions:
  status: ('A' for Active; 'I' for Inactive)
    1  A    between atoms: C_1  and  C_10
    2  A    between atoms: C_2  and  C_24
    3  A    between atoms: C_10  and  C_24
    4  A    between atoms: C_13  and  C_15
    5  A    between atoms: O_25  and  C_26
                            x       y       z     vdW  Elec       q    Type
                         _______ _______ _______ _____ _____    ______ ____

>  <TORSDO>
F 5

$$$$
=
 OpenBabel11052417033D

 32 36  0  0  1  0  0  0  0  0999 V2000
  190.1990  176.7650  143.4380 C   0  0  0  0  0  0  0  0  0  0  0  0
  185.5210  178.4070  142.2640 C   0  0  1  0  0  3  0  0  0  0  0  0
  184.2270  179.0620  140.1710 C   0  0  0  0  0  0  0  0  0  0  0  0
  182.9200  179.2630  139.5180 C   0  0  0  0  0  0  0  0  0  0  0  0
  187.8480  177.6100  142.2310 C   0  0  0  0  0  0  0  0  0  0  0  0
  186.8620  178.2200  144.4810 C   0  0  0  0  0  3  0  0  0  0  0  0
  180.4210  179.6420  138.3070 C   0  0  0  0  0  3  0  0  0  0  0  0
  189.1500  177.2420  144.2280 C   0  0  0  0  0  3  0  0  0  0  0  0
  185.5430  178.3700  143.7480 C   0  0  0  0  0  0  0  0  0  0  0  0
  184.3930  178.5420  144.4320 C   0  0  0  0  0  0  0  0  0  0  0  0
  183.0810  178.8600  142.3690 C   0  0  0  0  0  0  0  0  0  0  0  0
  181.5820  179.6510  137.5290 C   0  0  0  0  0  3  0  0  0  0  0  0
  190.0480  176.7340  142.0500 C   0  0  0  0  0  3  0  0  0  0  0  0
  187.9600  177.6590  143.6290 C   0  0  0  0  0  0  0  0  0  0  0  0
  182.8280  179.4620  138.1330 C   0  0  0  0  0  3  0  0  0  0  0  0
  188.8860  177.1510  141.4800 N   0  0  0  0  0  0  0  0  0  0  0  0
  183.0970  178.7300  143.7070 C   0  0  0  0  0  0  0  0  0  0  0  0
  181.8290  179.0710  141.7070 N   0  0  0  0  0  2  0  0  0  0  0  0
  186.6070  178.0330  141.5730 C   0  0  0  0  0  3  0  0  0  0  0  0
  185.2780  179.1610  139.4810 O   0  0  0  0  0  0  0  0  0  0  0  0
  180.5060  179.4460  139.6880 C   0  0  0  0  0  3  0  0  0  0  0  0
  184.2960  178.7800  141.5910 N   0  0  0  0  0  0  0  0  0  0  0  0
  181.7510  179.2560  140.2950 C   0  0  0  0  0  0  0  0  0  0  0  0
  184.4450  178.6060  147.0360 N   0  0  0  0  0  0  0  0  0  0  0  0
  184.4250  178.5790  145.8780 C   0  0  0  0  0  0  0  0  0  0  0  0
  180.8830  177.8970  144.1820 O   0  0  0  0  0  1  0  0  0  0  0  0
  181.8640  178.7870  144.3760 O   0  0  0  0  0  0  0  0  0  0  0  0
  191.4750  176.3310  144.0670 C   0  0  0  0  0  2  0  0  0  0  0  0
  191.6790  177.0540  145.3950 C   0  0  0  0  0  2  0  0  0  0  0  0
  191.2270  176.2230  146.5920 C   0  0  0  0  0  3  0  0  0  0  0  0
  192.4090  175.7120  147.3960 C   0  0  0  0  0  1  0  0  0  0  0  0
  190.2740  176.9990  147.4840 C   0  0  0  0  0  1  0  0  0  0  0  0
  1 28  1  0  0  0  0
  1  8  2  0  0  0  0
  2 19  1  6  0  0  0
  2  9  1  0  0  0  0
  3 22  1  0  0  0  0
  4  3  1  0  0  0  0
  4 23  1  0  0  0  0
  5 14  1  0  0  0  0
  7 21  1  0  0  0  0
  9 10  2  0  0  0  0
  9  6  1  0  0  0  0
 10 25  1  0  0  0  0
 11 17  2  0  0  0  0
 12 15  1  0  0  0  0
 12  7  2  0  0  0  0
 13  1  1  0  0  0  0
 14  8  1  0  0  0  0
 14  6  2  0  0  0  0
 15  4  2  0  0  0  0
 16 13  2  0  0  0  0
 16  5  1  0  0  0  0
 17 27  1  0  0  0  0
 17 10  1  0  0  0  0
 18 11  1  0  0  0  0
 19  5  2  0  0  0  0
 20  3  2  0  0  0  0
 21 23  2  0  0  0  0
 22  2  1  0  0  0  0
 22 11  1  0  0  0  0
 23 18  1  0  0  0  0
 25 24  3  0  0  0  0
 26 27  1  0  0  0  0
 28 29  1  0  0  0  0
 29 30  1  0  0  0  0
 30 31  1  0  0  0  0
 30 32  1  0  0  0  0
M  END
>  <MODEL>
7

>  <REMARK>
 VINA RESULT:      -8.6      1.391      4.017
  Name = 
  5 active torsions:
  status: ('A' for Active; 'I' for Inactive)
    1  A    between atoms: C_1  and  C_10
    2  A    between atoms: C_2  and  C_24
    3  A    between atoms: C_10  and  C_24
    4  A    between atoms: C_13  and  C_15
    5  A    between atoms: O_25  and  C_26
                            x       y       z     vdW  Elec       q    Type
                         _______ _______ _______ _____ _____    ______ ____

>  <TORSDO>
F 5

$$$$
=
 OpenBabel11052417033D

 32 36  0  0  1  0  0  0  0  0999 V2000
  189.1750  177.4480  144.4010 C   0  0  0  0  0  0  0  0  0  0  0  0
  190.6330  177.0100  139.5390 C   0  0  1  0  0  3  0  0  0  0  0  0
  192.7490  176.4070  138.2570 C   0  0  0  0  0  0  0  0  0  0  0  0
  193.3600  175.9370  136.9990 C   0  0  0  0  0  0  0  0  0  0  0  0
  190.4870  177.0150  141.9940 C   0  0  0  0  0  0  0  0  0  0  0  0
  188.5810  178.0820  140.7150 C   0  0  0  0  0  3  0  0  0  0  0  0
  194.4930  175.0500  134.5940 C   0  0  0  0  0  3  0  0  0  0  0  0
  188.5680  177.8370  143.2040 C   0  0  0  0  0  3  0  0  0  0  0  0
  189.2470  177.5350  139.4680 C   0  0  0  0  0  0  0  0  0  0  0  0
  188.6180  177.5860  138.2760 C   0  0  0  0  0  0  0  0  0  0  0  0
  190.5780  176.6940  137.0760 C   0  0  0  0  0  0  0  0  0  0  0  0
  195.2770  175.1260  135.7480 C   0  0  0  0  0  3  0  0  0  0  0  0
  190.4410  176.8580  144.3640 C   0  0  0  0  0  3  0  0  0  0  0  0
  189.2160  177.6130  141.9890 C   0  0  0  0  0  0  0  0  0  0  0  0
  194.7120  175.5690  136.9470 C   0  0  0  0  0  3  0  0  0  0  0  0
  191.0640  176.6540  143.1720 N   0  0  0  0  0  0  0  0  0  0  0  0
  189.2920  177.0820  137.0370 C   0  0  0  0  0  0  0  0  0  0  0  0
  191.2050  176.2460  135.8680 N   0  0  0  0  0  2  0  0  0  0  0  0
  191.1890  176.7590  140.7330 C   0  0  0  0  0  3  0  0  0  0  0  0
  193.4790  176.5610  139.2730 O   0  0  0  0  0  0  0  0  0  0  0  0
  193.1450  175.4170  134.6380 C   0  0  0  0  0  3  0  0  0  0  0  0
  191.3320  176.7090  138.3080 N   0  0  0  0  0  0  0  0  0  0  0  0
  192.5780  175.8600  135.8360 C   0  0  0  0  0  0  0  0  0  0  0  0
  186.2340  178.6280  138.1330 N   0  0  0  0  0  0  0  0  0  0  0  0
  187.2940  178.1650  138.1940 C   0  0  0  0  0  0  0  0  0  0  0  0
  187.8920  175.9460  135.4340 O   0  0  0  0  0  1  0  0  0  0  0  0
  188.6300  177.0010  135.8020 O   0  0  0  0  0  0  0  0  0  0  0  0
  188.4970  177.6940  145.7020 C   0  0  0  0  0  2  0  0  0  0  0  0
  187.0150  177.3480  145.5960 C   0  0  0  0  0  2  0  0  0  0  0  0
  186.1180  178.5810  145.6640 C   0  0  0  0  0  3  0  0  0  0  0  0
  185.1910  178.6650  144.4650 C   0  0  0  0  0  1  0  0  0  0  0  0
  185.3190  178.6210  146.9560 C   0  0  0  0  0  1  0  0  0  0  0  0
  1 28  1  0  0  0  0
  2 19  1  1  0  0  0
  3 22  1  0  0  0  0
  3 20  2  0  0  0  0
  4  3  1  0  0  0  0
  5 16  1  0  0  0  0
  6 14  2  0  0  0  0
  7 21  2  0  0  0  0
  7 12  1  0  0  0  0
  8  1  2  0  0  0  0
  9  2  1  0  0  0  0
  9  6  1  0  0  0  0
 10  9  2  0  0  0  0
 11 22  1  0  0  0  0
 12 15  2  0  0  0  0
 13  1  1  0  0  0  0
 14  5  1  0  0  0  0
 14  8  1  0  0  0  0
 15  4  1  0  0  0  0
 16 13  2  0  0  0  0
 17 11  2  0  0  0  0
 17 10  1  0  0  0  0
 18 11  1  0  0  0  0
 19  5  2  0  0  0  0
 21 23  1  0  0  0  0
 22  2  1  0  0  0  0
 23 18  1  0  0  0  0
 23  4  2  0  0  0  0
 24 25  3  0  0  0  0
 25 10  1  0  0  0  0
 26 27  1  0  0  0  0
 27 17  1  0  0  0  0
 29 30  1  0  0  0  0
 29 28  1  0  0  0  0
 30 32  1  0  0  0  0
 31 30  1  0  0  0  0
M  END
>  <MODEL>
8

>  <REMARK>
 VINA RESULT:      -8.6      4.774      8.748
  Name = 
  5 active torsions:
  status: ('A' for Active; 'I' for Inactive)
    1  A    between atoms: C_1  and  C_10
    2  A    between atoms: C_2  and  C_24
    3  A    between atoms: C_10  and  C_24
    4  A    between atoms: C_13  and  C_15
    5  A    between atoms: O_25  and  C_26
                            x       y       z     vdW  Elec       q    Type
                         _______ _______ _______ _____ _____    ______ ____

>  <TORSDO>
F 5

$$$$
=
 OpenBabel11052417033D

 32 36  0  0  0  0  0  0  0  0999 V2000
  187.4130  178.4090  137.1090 C   0  0  0  0  0  0  0  0  0  0  0  0
  186.6310  178.1130  142.1340 C   0  0  0  0  0  0  0  0  0  0  0  0
  187.9850  177.5630  144.2190 C   0  0  0  0  0  0  0  0  0  0  0  0
  188.1300  177.6710  145.6840 C   0  0  0  0  0  0  0  0  0  0  0  0
  187.5810  178.1440  139.8660 C   0  0  0  0  0  0  0  0  0  0  0  0
  185.0600  178.2300  140.0700 C   0  0  0  0  0  3  0  0  0  0  0  0
  188.3740  177.8880  148.4670 C   0  0  0  0  0  3  0  0  0  0  0  0
  186.2450  178.4070  137.8740 C   0  0  0  0  0  2  0  0  0  0  0  0
  185.2870  178.3770  141.5610 C   0  0  0  0  0  0  0  0  0  0  0  0
  184.2630  178.6760  142.3860 C   0  0  0  0  0  0  0  0  0  0  0  0
  185.6680  178.4520  144.3990 C   0  0  0  0  0  0  0  0  0  0  0  0
  189.4420  177.4010  147.7090 C   0  0  0  0  0  3  0  0  0  0  0  0
  188.6480  178.2640  137.7460 C   0  0  0  0  0  3  0  0  0  0  0  0
  186.3220  178.2850  139.2620 C   0  0  0  0  0  0  0  0  0  0  0  0
  189.3200  177.2920  146.3210 C   0  0  0  0  0  3  0  0  0  0  0  0
  188.7060  178.1380  139.1000 N   0  0  0  0  0  0  0  0  0  0  0  0
  184.4810  178.7810  143.8640 C   0  0  0  0  0  0  0  0  0  0  0  0
  185.8370  178.5330  145.8190 N   0  0  0  0  0  2  0  0  0  0  0  0
  187.6940  178.0230  141.3220 C   0  0  0  0  0  3  0  0  0  0  0  0
  188.9150  177.0390  143.5490 O   0  0  0  0  0  0  0  0  0  0  0  0
  187.1840  178.2650  147.8390 C   0  0  0  0  0  3  0  0  0  0  0  0
  186.7760  178.0310  143.5710 N   0  0  0  0  0  0  0  0  0  0  0  0
  187.0600  178.1580  146.4500 C   0  0  0  0  0  0  0  0  0  0  0  0
  181.8780  179.0080  141.3890 N   0  0  0  0  0  0  0  0  0  0  0  0
  182.9370  178.8610  141.8350 C   0  0  0  0  0  0  0  0  0  0  0  0
  182.2930  178.5910  144.8640 O   0  0  0  0  0  1  0  0  0  0  0  0
  183.4730  179.2110  144.7420 O   0  0  0  0  0  0  0  0  0  0  0  0
  187.3410  178.5250  135.6270 C   0  0  0  0  0  2  0  0  0  0  0  0
  187.7190  177.1970  134.9770 C   0  0  0  0  0  2  0  0  0  0  0  0
  186.5100  176.2990  134.7310 C   0  0  0  0  0  3  0  0  0  0  0  0
  186.3600  175.2520  135.8200 C   0  0  0  0  0  1  0  0  0  0  0  0
  185.2310  177.1070  134.5940 C   0  0  0  0  0  1  0  0  0  0  0  0
  1 13  2  0  0  0  0
  1  8  1  0  0  0  0
  2 22  1  0  0  0  0
  3  4  1  0  0  0  0
  4 15  2  0  0  0  0
  4 23  1  0  0  0  0
  5 19  1  0  0  0  0
  6  9  1  0  0  0  0
  8 14  1  0  0  0  0
  9  2  1  0  0  0  0
  9 10  2  0  0  0  0
 10 17  1  0  0  0  0
 11 18  1  0  0  0  0
 12  7  2  0  0  0  0
 13 16  1  0  0  0  0
 14  5  1  0  0  0  0
 14  6  2  0  0  0  0
 15 12  1  0  0  0  0
 16  5  2  0  0  0  0
 17 11  2  0  0  0  0
 17 27  1  0  0  0  0
 18 23  1  0  0  0  0
 19  2  2  0  0  0  0
 20  3  2  0  0  0  0
 21  7  1  0  0  0  0
 22  3  1  0  0  0  0
 22 11  1  0  0  0  0
 23 21  2  0  0  0  0
 24 25  3  0  0  0  0
 25 10  1  0  0  0  0
 27 26  1  0  0  0  0
 28  1  1  0  0  0  0
 29 28  1  0  0  0  0
 30 29  1  0  0  0  0
 30 31  1  0  0  0  0
 32 30  1  0  0  0  0
M  END
>  <MODEL>
9

>  <REMARK>
 VINA RESULT:      -8.2      2.825      8.406
  Name = 
  5 active torsions:
  status: ('A' for Active; 'I' for Inactive)
    1  A    between atoms: C_1  and  C_10
    2  A    between atoms: C_2  and  C_24
    3  A    between atoms: C_10  and  C_24
    4  A    between atoms: C_13  and  C_15
    5  A    between atoms: O_25  and  C_26
                            x       y       z     vdW  Elec       q    Type
                         _______ _______ _______ _____ _____    ______ ____

>  <TORSDO>
F 5

$$$$
