=
 OpenBabel11052417003D

 32 37  0  0  1  0  0  0  0  0999 V2000
  189.5790  177.2820  145.5340 C   0  0  0  0  0  0  0  0  0  0  0  0
  185.3210  178.8180  143.2030 C   0  0  2  0  0  3  0  0  0  0  0  0
  186.3350  178.1600  138.4560 N   0  0  0  0  0  0  0  0  0  0  0  0
  184.9510  178.2990  138.1140 C   0  0  0  0  0  3  0  0  0  0  0  0
  182.8660  178.7820  143.8710 C   0  0  0  0  0  0  0  0  0  0  0  0
  181.5330  178.7150  143.4890 C   0  0  0  0  0  0  0  0  0  0  0  0
  186.9410  177.8830  144.8090 C   0  0  0  0  0  0  0  0  0  0  0  0
  187.6860  178.5370  142.4900 C   0  0  0  0  0  2  0  0  0  0  0  0
  179.7490  178.6030  142.1650 N   0  0  0  0  0  0  0  0  0  0  0  0
  189.2980  177.7330  144.2390 C   0  0  0  0  0  3  0  0  0  0  0  0
  186.7750  178.3780  139.6590 C   0  0  0  0  0  3  0  0  0  0  0  0
  186.2300  178.2560  142.1030 C   0  0  2  0  0  3  0  0  0  0  0  0
  185.8640  178.8750  140.7550 C   0  0  2  0  0  3  0  0  0  0  0  0
  183.4540  178.6360  141.4850 C   0  0  0  0  0  0  0  0  0  0  0  0
  179.2190  178.7190  143.4700 N   0  0  0  0  0  0  0  0  0  0  0  0
  188.5400  177.1200  146.4580 C   0  0  0  0  0  3  0  0  0  0  0  0
  187.9820  178.0260  143.8690 C   0  0  0  0  0  0  0  0  0  0  0  0
  180.3680  178.7860  144.2960 N   0  0  0  0  0  0  0  0  0  0  0  0
  187.2240  177.4220  146.0960 C   0  0  0  0  0  3  0  0  0  0  0  0
  184.0420  178.5080  139.0630 C   0  0  0  0  0  3  0  0  0  0  0  0
  184.4480  178.6170  140.4370 N   0  0  0  0  0  0  0  0  0  0  0  0
  182.0780  178.5770  141.1590 C   0  0  0  0  0  3  0  0  0  0  0  0
  185.6230  178.1750  144.4430 O   0  0  0  0  0  0  0  0  0  0  0  0
  183.1900  178.9350  145.1810 F   0  0  0  0  0  0  0  0  0  0  0  0
  178.9310  178.6060  140.9660 C   0  0  0  0  0  1  0  0  0  0  0  0
  183.8540  178.7050  142.8570 C   0  0  0  0  0  0  0  0  0  0  0  0
  181.1600  178.6090  142.2020 C   0  0  0  0  0  0  0  0  0  0  0  0
  190.9770  176.9470  145.9170 C   0  0  0  0  0  2  0  0  0  0  0  0
  191.0620  176.6900  147.4110 C   0  0  0  0  0  2  0  0  0  0  0  0
  192.3200  175.9630  147.7260 C   0  0  0  0  0  0  0  0  0  0  0  0
  193.0560  176.3040  148.8550 O   0  0  0  0  0  1  0  0  0  0  0  0
  192.7370  175.0600  146.9550 O   0  0  0  0  0  0  0  0  0  0  0  0
  1 28  1  0  0  0  0
  1 16  1  0  0  0  0
  2 26  1  6  0  0  0
  2 23  1  0  0  0  0
  3 11  2  0  0  0  0
  4  3  1  0  0  0  0
  4 20  2  0  0  0  0
  5 24  1  0  0  0  0
  6  5  1  0  0  0  0
  6 18  1  0  0  0  0
  7 19  1  0  0  0  0
  8 17  1  0  0  0  0
  9 27  1  0  0  0  0
  9 15  1  0  0  0  0
 10  1  2  0  0  0  0
 12  8  1  1  0  0  0
 12  2  1  0  0  0  0
 13 11  1  6  0  0  0
 13 12  1  0  0  0  0
 14 26  1  0  0  0  0
 15 18  2  0  0  0  0
 17 10  1  0  0  0  0
 17  7  2  0  0  0  0
 19 16  2  0  0  0  0
 20 21  1  0  0  0  0
 21 13  1  0  0  0  0
 21 14  1  0  0  0  0
 22 14  2  0  0  0  0
 22 27  1  0  0  0  0
 23  7  1  0  0  0  0
 25  9  1  0  0  0  0
 26  5  2  0  0  0  0
 27  6  2  0  0  0  0
 28 29  1  0  0  0  0
 29 30  1  0  0  0  0
 30 31  1  0  0  0  0
 32 30  2  0  0  0  0
M  END
>  <MODEL>
1

>  <REMARK>
 VINA RESULT:     -10.4      0.000      0.000
  Name = 
  3 active torsions:
  status: ('A' for Active; 'I' for Inactive)
    1  A    between atoms: C_1  and  C_10
    2  A    between atoms: C_2  and  C_24
    3  A    between atoms: C_10  and  C_24
                            x       y       z     vdW  Elec       q    Type
                         _______ _______ _______ _____ _____    ______ ____

>  <TORSDO>
F 3

$$$$
=
 OpenBabel11052417003D

 32 37  0  0  1  0  0  0  0  0999 V2000
  188.9350  177.2070  146.1950 C   0  0  0  0  0  0  0  0  0  0  0  0
  186.5090  178.6780  141.9670 C   0  0  2  0  0  3  0  0  0  0  0  0
  189.5880  177.3710  138.3890 N   0  0  0  0  0  0  0  0  0  0  0  0
  188.5600  177.5450  137.4060 C   0  0  0  0  0  3  0  0  0  0  0  0
  184.0460  178.8660  141.3560 C   0  0  0  0  0  0  0  0  0  0  0  0
  183.0600  178.8280  140.3790 C   0  0  0  0  0  0  0  0  0  0  0  0
  187.0500  177.8620  144.2300 C   0  0  0  0  0  0  0  0  0  0  0  0
  188.8800  178.1750  142.5230 C   0  0  0  0  0  2  0  0  0  0  0  0
  182.1250  178.6520  138.3680 N   0  0  0  0  0  0  0  0  0  0  0  0
  189.3590  177.5070  144.8950 C   0  0  0  0  0  3  0  0  0  0  0  0
  189.4210  177.7130  139.6310 C   0  0  0  0  0  3  0  0  0  0  0  0
  187.7640  177.9320  141.5000 C   0  0  2  0  0  3  0  0  0  0  0  0
  188.1580  178.3950  140.1000 C   0  0  2  0  0  3  0  0  0  0  0  0
  185.6820  178.3880  139.5800 C   0  0  0  0  0  0  0  0  0  0  0  0
  181.0530  178.9620  139.2350 N   0  0  0  0  0  0  0  0  0  0  0  0
  187.5710  177.2220  146.5060 C   0  0  0  0  0  3  0  0  0  0  0  0
  188.4220  177.8250  143.9090 C   0  0  0  0  0  0  0  0  0  0  0  0
  181.6670  179.0660  140.5080 N   0  0  0  0  0  0  0  0  0  0  0  0
  186.6300  177.5510  145.5250 C   0  0  0  0  0  3  0  0  0  0  0  0
  187.3380  177.9230  137.7710 C   0  0  0  0  0  3  0  0  0  0  0  0
  187.0470  178.1800  139.1550 N   0  0  0  0  0  0  0  0  0  0  0  0
  184.6330  178.3670  138.6310 C   0  0  0  0  0  3  0  0  0  0  0  0
  186.1080  178.1800  143.2460 O   0  0  0  0  0  0  0  0  0  0  0  0
  183.7200  179.1640  142.6400 F   0  0  0  0  0  0  0  0  0  0  0  0
  181.9860  178.5510  136.9270 C   0  0  0  0  0  1  0  0  0  0  0  0
  185.3830  178.6070  140.9610 C   0  0  0  0  0  0  0  0  0  0  0  0
  183.3380  178.5820  139.0880 C   0  0  0  0  0  0  0  0  0  0  0  0
  189.9330  176.8440  147.2370 C   0  0  0  0  0  2  0  0  0  0  0  0
  191.3410  177.0480  146.7070 C   0  0  0  0  0  2  0  0  0  0  0  0
  192.2120  175.9260  147.1470 C   0  0  0  0  0  0  0  0  0  0  0  0
  192.8800  176.0010  148.3630 O   0  0  0  0  0  1  0  0  0  0  0  0
  192.3710  174.9220  146.4040 O   0  0  0  0  0  0  0  0  0  0  0  0
  1 16  1  0  0  0  0
  1 28  1  0  0  0  0
  2 26  1  6  0  0  0
  2 23  1  0  0  0  0
  3 11  2  0  0  0  0
  4 20  2  0  0  0  0
  4  3  1  0  0  0  0
  5 24  1  0  0  0  0
  6 18  1  0  0  0  0
  6  5  2  0  0  0  0
  7 19  1  0  0  0  0
  8 17  1  0  0  0  0
  9 27  1  0  0  0  0
  9 15  1  0  0  0  0
 10  1  2  0  0  0  0
 12  2  1  0  0  0  0
 12  8  1  1  0  0  0
 13 11  1  6  0  0  0
 13 12  1  0  0  0  0
 14 26  2  0  0  0  0
 15 18  2  0  0  0  0
 17  7  2  0  0  0  0
 17 10  1  0  0  0  0
 19 16  2  0  0  0  0
 20 21  1  0  0  0  0
 21 14  1  0  0  0  0
 21 13  1  0  0  0  0
 22 27  2  0  0  0  0
 22 14  1  0  0  0  0
 23  7  1  0  0  0  0
 25  9  1  0  0  0  0
 26  5  1  0  0  0  0
 27  6  1  0  0  0  0
 29 30  1  0  0  0  0
 29 28  1  0  0  0  0
 30 31  1  0  0  0  0
 32 30  2  0  0  0  0
M  END
>  <MODEL>
2

>  <REMARK>
 VINA RESULT:      -9.9      1.889      2.676
  Name = 
  3 active torsions:
  status: ('A' for Active; 'I' for Inactive)
    1  A    between atoms: C_1  and  C_10
    2  A    between atoms: C_2  and  C_24
    3  A    between atoms: C_10  and  C_24
                            x       y       z     vdW  Elec       q    Type
                         _______ _______ _______ _____ _____    ______ ____

>  <TORSDO>
F 3

$$$$
=
 OpenBabel11052417003D

 32 37  0  0  1  0  0  0  0  0999 V2000
  183.0990  178.8030  143.2420 C   0  0  0  0  0  0  0  0  0  0  0  0
  187.8400  178.4180  141.4260 C   0  0  2  0  0  3  0  0  0  0  0  0
  190.3860  176.7580  145.2680 N   0  0  0  0  0  0  0  0  0  0  0  0
  191.4910  176.4180  144.4220 C   0  0  0  0  0  3  0  0  0  0  0  0
  188.7780  177.9090  139.1170 C   0  0  0  0  0  0  0  0  0  0  0  0
  189.8030  177.3810  138.3420 C   0  0  0  0  0  0  0  0  0  0  0  0
  185.3860  178.4420  141.6670 C   0  0  0  0  0  0  0  0  0  0  0  0
  186.8630  178.5980  143.7050 C   0  0  0  0  0  2  0  0  0  0  0  0
  191.7440  176.4260  137.8260 N   0  0  0  0  0  0  0  0  0  0  0  0
  184.3620  178.7810  143.8440 C   0  0  0  0  0  3  0  0  0  0  0  0
  189.3550  177.4140  144.8270 C   0  0  0  0  0  3  0  0  0  0  0  0
  187.8790  177.8380  142.8450 C   0  0  2  0  0  3  0  0  0  0  0  0
  189.2940  177.9330  143.4110 C   0  0  2  0  0  3  0  0  0  0  0  0
  190.0840  177.2660  141.1020 C   0  0  0  0  0  0  0  0  0  0  0  0
  191.1650  176.7550  136.5790 N   0  0  0  0  0  0  0  0  0  0  0  0
  182.9800  178.6310  141.8580 C   0  0  0  0  0  3  0  0  0  0  0  0
  185.5060  178.5920  143.0630 C   0  0  0  0  0  0  0  0  0  0  0  0
  189.9310  177.3580  136.9290 N   0  0  0  0  0  0  0  0  0  0  0  0
  184.1230  178.4540  141.0720 C   0  0  0  0  0  3  0  0  0  0  0  0
  191.4230  176.6300  143.1100 C   0  0  0  0  0  3  0  0  0  0  0  0
  190.2460  177.2240  142.5370 N   0  0  0  0  0  0  0  0  0  0  0  0
  191.0960  176.7490  140.2580 C   0  0  0  0  0  3  0  0  0  0  0  0
  186.5290  178.2540  140.8820 O   0  0  0  0  0  0  0  0  0  0  0  0
  187.7120  178.5040  138.5210 F   0  0  0  0  0  0  0  0  0  0  0  0
  193.0790  175.8730  137.9680 C   0  0  0  0  0  1  0  0  0  0  0  0
  188.8980  177.8210  140.5270 C   0  0  0  0  0  0  0  0  0  0  0  0
  190.8970  176.8230  138.8840 C   0  0  0  0  0  0  0  0  0  0  0  0
  181.8800  178.9790  144.0780 C   0  0  0  0  0  2  0  0  0  0  0  0
  180.7000  179.3690  143.2070 C   0  0  0  0  0  2  0  0  0  0  0  0
  179.6090  178.3700  143.3600 C   0  0  0  0  0  0  0  0  0  0  0  0
  179.3040  177.5090  142.3130 O   0  0  0  0  0  0  0  0  0  0  0  0
  178.9410  178.3250  144.4250 O   0  0  0  0  0  1  0  0  0  0  0  0
  1 10  1  0  0  0  0
  1 28  1  0  0  0  0
  2 26  1  6  0  0  0
  2 12  1  0  0  0  0
  4  3  1  0  0  0  0
  5 26  1  0  0  0  0
  6 27  1  0  0  0  0
  6  5  2  0  0  0  0
  7 17  1  0  0  0  0
  9 25  1  0  0  0  0
  9 27  1  0  0  0  0
 11  3  2  0  0  0  0
 12 13  1  0  0  0  0
 12  8  1  1  0  0  0
 13 11  1  1  0  0  0
 14 21  1  0  0  0  0
 15 18  2  0  0  0  0
 15  9  1  0  0  0  0
 16  1  2  0  0  0  0
 17  8  1  0  0  0  0
 17 10  2  0  0  0  0
 18  6  1  0  0  0  0
 19  7  2  0  0  0  0
 19 16  1  0  0  0  0
 20  4  2  0  0  0  0
 21 20  1  0  0  0  0
 21 13  1  0  0  0  0
 22 14  1  0  0  0  0
 23  2  1  0  0  0  0
 23  7  1  0  0  0  0
 24  5  1  0  0  0  0
 26 14  2  0  0  0  0
 27 22  2  0  0  0  0
 29 30  1  0  0  0  0
 29 28  1  0  0  0  0
 30 32  1  0  0  0  0
 31 30  2  0  0  0  0
M  END
>  <MODEL>
3

>  <REMARK>
 VINA RESULT:      -9.3      4.807      9.015
  Name = 
  3 active torsions:
  status: ('A' for Active; 'I' for Inactive)
    1  A    between atoms: C_1  and  C_10
    2  A    between atoms: C_2  and  C_24
    3  A    between atoms: C_10  and  C_24
                            x       y       z     vdW  Elec       q    Type
                         _______ _______ _______ _____ _____    ______ ____

>  <TORSDO>
F 3

$$$$
=
 OpenBabel11052417003D

 32 37  0  0  1  0  0  0  0  0999 V2000
  190.1970  176.7910  136.8050 C   0  0  0  0  0  0  0  0  0  0  0  0
  189.1980  177.9950  141.6500 C   0  0  2  0  0  3  0  0  0  0  0  0
  184.3320  178.5560  141.6910 N   0  0  0  0  0  0  0  0  0  0  0  0
  184.3130  178.5130  143.1230 C   0  0  0  0  0  3  0  0  0  0  0  0
  190.3040  177.3750  143.8560 C   0  0  0  0  0  0  0  0  0  0  0  0
  190.1850  177.1520  145.2220 C   0  0  0  0  0  0  0  0  0  0  0  0
  190.1740  177.0470  139.5930 C   0  0  0  0  0  0  0  0  0  0  0  0
  187.9890  178.3030  139.5000 C   0  0  0  0  0  2  0  0  0  0  0  0
  189.2510  177.0040  147.2350 N   0  0  0  0  0  0  0  0  0  0  0  0
  189.1350  177.4490  137.4350 C   0  0  0  0  0  3  0  0  0  0  0  0
  185.4410  178.5890  141.0150 C   0  0  0  0  0  3  0  0  0  0  0  0
  187.8370  177.8530  140.9570 C   0  0  2  0  0  3  0  0  0  0  0  0
  186.7830  178.6680  141.7030 C   0  0  2  0  0  3  0  0  0  0  0  0
  187.8890  177.8490  143.8260 C   0  0  0  0  0  0  0  0  0  0  0  0
  190.6220  176.7420  147.4570 N   0  0  0  0  0  0  0  0  0  0  0  0
  191.2380  176.2510  137.5700 C   0  0  0  0  0  3  0  0  0  0  0  0
  189.1140  177.5720  138.8270 C   0  0  0  0  0  0  0  0  0  0  0  0
  191.1970  176.8380  146.1650 N   0  0  0  0  0  0  0  0  0  0  0  0
  191.2270  176.3810  138.9620 C   0  0  0  0  0  3  0  0  0  0  0  0
  185.4430  178.3480  143.8050 C   0  0  0  0  0  3  0  0  0  0  0  0
  186.6950  178.2330  143.1080 N   0  0  0  0  0  0  0  0  0  0  0  0
  187.8340  177.6130  145.2200 C   0  0  0  0  0  3  0  0  0  0  0  0
  190.1570  177.1680  140.9870 O   0  0  0  0  0  0  0  0  0  0  0  0
  191.5210  177.3020  143.2590 F   0  0  0  0  0  0  0  0  0  0  0  0
  188.2740  177.1150  148.3020 C   0  0  0  0  0  1  0  0  0  0  0  0
  189.1290  177.6960  143.1300 C   0  0  0  0  0  0  0  0  0  0  0  0
  189.0110  177.2570  145.8660 C   0  0  0  0  0  0  0  0  0  0  0  0
  190.2050  176.6400  135.3240 C   0  0  0  0  0  2  0  0  0  0  0  0
  188.8940  176.0350  134.8540 C   0  0  0  0  0  2  0  0  0  0  0  0
  188.8560  174.5880  135.1960 C   0  0  0  0  0  0  0  0  0  0  0  0
  187.9010  174.1100  136.0850 O   0  0  0  0  0  1  0  0  0  0  0  0
  189.7080  173.8020  134.7070 O   0  0  0  0  0  0  0  0  0  0  0  0
  1 10  2  0  0  0  0
  1 16  1  0  0  0  0
  2 23  1  6  0  0  0
  2 26  1  0  0  0  0
  3  4  1  0  0  0  0
  4 20  2  0  0  0  0
  5  6  1  0  0  0  0
  6 27  2  0  0  0  0
  6 18  1  0  0  0  0
  7 23  1  0  0  0  0
  9 15  1  0  0  0  0
  9 25  1  0  0  0  0
 10 17  1  0  0  0  0
 11  3  2  0  0  0  0
 12  8  1  6  0  0  0
 12  2  1  0  0  0  0
 12 13  1  0  0  0  0
 13 11  1  6  0  0  0
 13 21  1  0  0  0  0
 14 22  2  0  0  0  0
 16 19  2  0  0  0  0
 17  8  1  0  0  0  0
 17  7  2  0  0  0  0
 18 15  2  0  0  0  0
 19  7  1  0  0  0  0
 21 20  1  0  0  0  0
 21 14  1  0  0  0  0
 22 27  1  0  0  0  0
 24  5  1  0  0  0  0
 26 14  1  0  0  0  0
 26  5  2  0  0  0  0
 27  9  1  0  0  0  0
 28  1  1  0  0  0  0
 29 30  1  0  0  0  0
 29 28  1  0  0  0  0
 30 31  1  0  0  0  0
 32 30  2  0  0  0  0
M  END
>  <MODEL>
4

>  <REMARK>
 VINA RESULT:      -9.2      5.052      8.337
  Name = 
  3 active torsions:
  status: ('A' for Active; 'I' for Inactive)
    1  A    between atoms: C_1  and  C_10
    2  A    between atoms: C_2  and  C_24
    3  A    between atoms: C_10  and  C_24
                            x       y       z     vdW  Elec       q    Type
                         _______ _______ _______ _____ _____    ______ ____

>  <TORSDO>
F 3

$$$$
=
 OpenBabel11052417003D

 32 37  0  0  1  0  0  0  0  0999 V2000
  182.4090  178.7620  138.2910 C   0  0  0  0  0  0  0  0  0  0  0  0
  186.1740  178.8420  141.7170 C   0  0  2  0  0  3  0  0  0  0  0  0
  183.8060  178.6280  145.9990 N   0  0  0  0  0  0  0  0  0  0  0  0
  185.0210  178.3080  146.6860 C   0  0  0  0  0  3  0  0  0  0  0  0
  188.5700  177.9860  141.6830 C   0  0  0  0  0  0  0  0  0  0  0  0
  189.6630  177.4890  142.3810 C   0  0  0  0  0  0  0  0  0  0  0  0
  184.8140  178.4700  139.6940 C   0  0  0  0  0  0  0  0  0  0  0  0
  183.7450  179.3680  141.7940 C   0  0  0  0  0  2  0  0  0  0  0  0
  190.9060  176.8140  144.0970 N   0  0  0  0  0  0  0  0  0  0  0  0
  182.4730  179.1150  139.6440 C   0  0  0  0  0  3  0  0  0  0  0  0
  183.7880  178.9610  144.7430 C   0  0  0  0  0  3  0  0  0  0  0  0
  184.8800  178.6280  142.5110 C   0  0  2  0  0  3  0  0  0  0  0  0
  185.0620  179.1120  143.9480 C   0  0  2  0  0  3  0  0  0  0  0  0
  187.3680  178.0790  143.8290 C   0  0  0  0  0  0  0  0  0  0  0  0
  191.7650  176.7280  142.9780 N   0  0  0  0  0  0  0  0  0  0  0  0
  183.5420  178.2520  137.6460 C   0  0  0  0  0  3  0  0  0  0  0  0
  183.6690  178.9620  140.3510 C   0  0  0  0  0  0  0  0  0  0  0  0
  190.9550  177.1580  141.8980 N   0  0  0  0  0  0  0  0  0  0  0  0
  184.7430  178.1080  138.3470 C   0  0  0  0  0  3  0  0  0  0  0  0
  186.1620  178.1900  146.0110 C   0  0  0  0  0  3  0  0  0  0  0  0
  186.1850  178.4050  144.5910 N   0  0  0  0  0  0  0  0  0  0  0  0
  188.5160  177.5740  144.4840 C   0  0  0  0  0  3  0  0  0  0  0  0
  186.0140  178.3150  140.3980 O   0  0  0  0  0  0  0  0  0  0  0  0
  188.6650  178.2180  140.3480 F   0  0  0  0  0  0  0  0  0  0  0  0
  191.3400  176.5650  145.4600 C   0  0  0  0  0  1  0  0  0  0  0  0
  187.3830  178.2560  142.4100 C   0  0  0  0  0  0  0  0  0  0  0  0
  189.6330  177.2850  143.7090 C   0  0  0  0  0  0  0  0  0  0  0  0
  181.1280  178.9020  137.5470 C   0  0  0  0  0  2  0  0  0  0  0  0
  180.3890  180.1460  138.0070 C   0  0  0  0  0  2  0  0  0  0  0  0
  180.8960  181.3340  137.2700 C   0  0  0  0  0  0  0  0  0  0  0  0
  181.4410  182.4050  137.9680 O   0  0  0  0  0  1  0  0  0  0  0  0
  180.8020  181.3850  136.0160 O   0  0  0  0  0  0  0  0  0  0  0  0
  1 10  1  0  0  0  0
  2 23  1  6  0  0  0
  2 26  1  0  0  0  0
  2 12  1  0  0  0  0
  3  4  1  0  0  0  0
  5  6  2  0  0  0  0
  5 26  1  0  0  0  0
  6 27  1  0  0  0  0
  7 17  1  0  0  0  0
  7 23  1  0  0  0  0
  9 25  1  0  0  0  0
 10 17  2  0  0  0  0
 11  3  2  0  0  0  0
 12  8  1  6  0  0  0
 12 13  1  0  0  0  0
 13 21  1  0  0  0  0
 13 11  1  1  0  0  0
 14 22  1  0  0  0  0
 14 21  1  0  0  0  0
 15  9  1  0  0  0  0
 16  1  2  0  0  0  0
 16 19  1  0  0  0  0
 17  8  1  0  0  0  0
 18  6  1  0  0  0  0
 18 15  2  0  0  0  0
 19  7  2  0  0  0  0
 20  4  2  0  0  0  0
 21 20  1  0  0  0  0
 24  5  1  0  0  0  0
 26 14  2  0  0  0  0
 27  9  1  0  0  0  0
 27 22  2  0  0  0  0
 28 29  1  0  0  0  0
 28  1  1  0  0  0  0
 30 31  1  0  0  0  0
 30 29  1  0  0  0  0
 32 30  2  0  0  0  0
M  END
>  <MODEL>
5

>  <REMARK>
 VINA RESULT:      -8.5      3.968      9.464
  Name = 
  3 active torsions:
  status: ('A' for Active; 'I' for Inactive)
    1  A    between atoms: C_1  and  C_10
    2  A    between atoms: C_2  and  C_24
    3  A    between atoms: C_10  and  C_24
                            x       y       z     vdW  Elec       q    Type
                         _______ _______ _______ _____ _____    ______ ____

>  <TORSDO>
F 3

$$$$
=
 OpenBabel11052417003D

 32 37  0  0  1  0  0  0  0  0999 V2000
  180.8050  178.5350  141.4340 C   0  0  0  0  0  0  0  0  0  0  0  0
  185.7130  178.6510  142.7840 C   0  0  2  0  0  3  0  0  0  0  0  0
  185.5490  178.2440  147.6620 N   0  0  0  0  0  0  0  0  0  0  0  0
  186.9500  177.9470  147.7110 C   0  0  0  0  0  3  0  0  0  0  0  0
  187.8480  177.8780  141.6350 C   0  0  0  0  0  0  0  0  0  0  0  0
  189.1470  177.3990  141.7430 C   0  0  0  0  0  0  0  0  0  0  0  0
  183.5900  178.2860  141.5830 C   0  0  0  0  0  0  0  0  0  0  0  0
  183.5740  179.0930  143.9720 C   0  0  0  0  0  2  0  0  0  0  0  0
  191.0460  176.7210  142.6820 N   0  0  0  0  0  0  0  0  0  0  0  0
  181.4700  178.8540  142.6230 C   0  0  0  0  0  3  0  0  0  0  0  0
  184.9570  178.6090  146.5640 C   0  0  0  0  0  3  0  0  0  0  0  0
  184.9240  178.3730  144.0690 C   0  0  2  0  0  3  0  0  0  0  0  0
  185.7290  178.8240  145.2850 C   0  0  2  0  0  3  0  0  0  0  0  0
  187.7490  177.8730  144.0950 C   0  0  0  0  0  0  0  0  0  0  0  0
  191.3050  176.6940  141.2930 N   0  0  0  0  0  0  0  0  0  0  0  0
  181.5310  178.0800  140.3270 C   0  0  0  0  0  3  0  0  0  0  0  0
  182.8590  178.7230  142.7050 C   0  0  0  0  0  0  0  0  0  0  0  0
  190.0850  177.1250  140.7150 N   0  0  0  0  0  0  0  0  0  0  0  0
  182.9220  177.9580  140.4010 C   0  0  0  0  0  3  0  0  0  0  0  0
  187.6620  177.8860  146.5890 C   0  0  0  0  0  3  0  0  0  0  0  0
  187.0340  178.1390  145.3220 N   0  0  0  0  0  0  0  0  0  0  0  0
  189.0780  177.3900  144.1390 C   0  0  0  0  0  3  0  0  0  0  0  0
  184.9810  178.1540  141.6610 O   0  0  0  0  0  0  0  0  0  0  0  0
  187.3220  178.1470  140.4120 F   0  0  0  0  0  0  0  0  0  0  0  0
  192.0550  176.4510  143.6900 C   0  0  0  0  0  1  0  0  0  0  0  0
  187.1150  178.0880  142.8310 C   0  0  0  0  0  0  0  0  0  0  0  0
  189.7270  177.1600  142.9310 C   0  0  0  0  0  0  0  0  0  0  0  0
  179.3230  178.6510  141.3560 C   0  0  0  0  0  2  0  0  0  0  0  0
  178.9310  179.5730  140.2160 C   0  0  0  0  0  2  0  0  0  0  0  0
  179.3120  180.9720  140.5450 C   0  0  0  0  0  0  0  0  0  0  0  0
  179.8910  181.7820  139.5750 O   0  0  0  0  0  0  0  0  0  0  0  0
  179.1410  181.4140  141.7110 O   0  0  0  0  0  1  0  0  0  0  0  0
  1 10  1  0  0  0  0
  2 23  1  6  0  0  0
  2 26  1  0  0  0  0
  2 12  1  0  0  0  0
  3  4  1  0  0  0  0
  5  6  2  0  0  0  0
  5 26  1  0  0  0  0
  6 27  1  0  0  0  0
  7 23  1  0  0  0  0
  7 17  1  0  0  0  0
  9 27  1  0  0  0  0
  9 25  1  0  0  0  0
 10 17  2  0  0  0  0
 11  3  2  0  0  0  0
 12  8  1  6  0  0  0
 12 13  1  0  0  0  0
 13 21  1  0  0  0  0
 13 11  1  1  0  0  0
 14 22  1  0  0  0  0
 14 21  1  0  0  0  0
 15  9  1  0  0  0  0
 16 19  1  0  0  0  0
 16  1  2  0  0  0  0
 17  8  1  0  0  0  0
 18 15  2  0  0  0  0
 18  6  1  0  0  0  0
 19  7  2  0  0  0  0
 20  4  2  0  0  0  0
 21 20  1  0  0  0  0
 24  5  1  0  0  0  0
 26 14  2  0  0  0  0
 27 22  2  0  0  0  0
 28  1  1  0  0  0  0
 29 30  1  0  0  0  0
 29 28  1  0  0  0  0
 30 32  1  0  0  0  0
 31 30  2  0  0  0  0
M  END
>  <MODEL>
6

>  <REMARK>
 VINA RESULT:      -8.5      4.139      9.318
  Name = 
  3 active torsions:
  status: ('A' for Active; 'I' for Inactive)
    1  A    between atoms: C_1  and  C_10
    2  A    between atoms: C_2  and  C_24
    3  A    between atoms: C_10  and  C_24
                            x       y       z     vdW  Elec       q    Type
                         _______ _______ _______ _____ _____    ______ ____

>  <TORSDO>
F 3

$$$$
=
 OpenBabel11052417003D

 32 37  0  0  1  0  0  0  0  0999 V2000
  188.7880  177.4110  145.2820 C   0  0  0  0  0  0  0  0  0  0  0  0
  186.4000  178.6290  140.9540 C   0  0  2  0  0  3  0  0  0  0  0  0
  189.6220  177.3560  137.4920 N   0  0  0  0  0  0  0  0  0  0  0  0
  188.6120  177.4500  136.4800 C   0  0  0  0  0  3  0  0  0  0  0  0
  183.9470  178.6800  140.2800 C   0  0  0  0  0  0  0  0  0  0  0  0
  182.9870  178.5640  139.2830 C   0  0  0  0  0  0  0  0  0  0  0  0
  186.9230  177.9120  143.2540 C   0  0  0  0  0  0  0  0  0  0  0  0
  188.7770  178.2570  141.5800 C   0  0  0  0  0  2  0  0  0  0  0  0
  182.1110  178.2790  137.2590 N   0  0  0  0  0  0  0  0  0  0  0  0
  189.2290  177.6890  143.9830 C   0  0  0  0  0  3  0  0  0  0  0  0
  189.4100  177.7300  138.7180 C   0  0  0  0  0  3  0  0  0  0  0  0
  187.7000  177.9280  140.5410 C   0  0  2  0  0  3  0  0  0  0  0  0
  188.1050  178.3660  139.1350 C   0  0  2  0  0  3  0  0  0  0  0  0
  185.6460  178.2230  138.5590 C   0  0  0  0  0  0  0  0  0  0  0  0
  181.0040  178.5650  138.0900 N   0  0  0  0  0  0  0  0  0  0  0  0
  187.4170  177.3710  145.5620 C   0  0  0  0  0  3  0  0  0  0  0  0
  188.3020  177.9310  142.9650 C   0  0  0  0  0  0  0  0  0  0  0  0
  181.5820  178.7390  139.3720 N   0  0  0  0  0  0  0  0  0  0  0  0
  186.4860  177.6230  144.5490 C   0  0  0  0  0  3  0  0  0  0  0  0
  187.3650  177.7800  136.8050 C   0  0  0  0  0  3  0  0  0  0  0  0
  187.0290  178.0680  138.1720 N   0  0  0  0  0  0  0  0  0  0  0  0
  184.6220  178.1220  137.5870 C   0  0  0  0  0  3  0  0  0  0  0  0
  185.9920  178.1530  142.2390 O   0  0  0  0  0  0  0  0  0  0  0  0
  183.5760  179.0030  141.5460 F   0  0  0  0  0  0  0  0  0  0  0  0
  182.0120  178.1250  135.8190 C   0  0  0  0  0  1  0  0  0  0  0  0
  185.3030  178.4720  139.9250 C   0  0  0  0  0  0  0  0  0  0  0  0
  183.3080  178.2900  138.0080 C   0  0  0  0  0  0  0  0  0  0  0  0
  189.7770  177.1290  146.3580 C   0  0  0  0  0  2  0  0  0  0  0  0
  189.0600  176.7200  147.6320 C   0  0  0  0  0  2  0  0  0  0  0  0
  188.8500  177.9110  148.4980 C   0  0  0  0  0  0  0  0  0  0  0  0
  187.5690  178.2520  148.9120 O   0  0  0  0  0  1  0  0  0  0  0  0
  189.8300  178.6290  148.8290 O   0  0  0  0  0  0  0  0  0  0  0  0
  1 16  1  0  0  0  0
  1 28  1  0  0  0  0
  2 26  1  6  0  0  0
  2 23  1  0  0  0  0
  3 11  2  0  0  0  0
  4 20  2  0  0  0  0
  4  3  1  0  0  0  0
  5 24  1  0  0  0  0
  6 18  1  0  0  0  0
  6  5  2  0  0  0  0
  7 19  1  0  0  0  0
  8 17  1  0  0  0  0
  9 27  1  0  0  0  0
  9 15  1  0  0  0  0
 10  1  2  0  0  0  0
 12  2  1  0  0  0  0
 12  8  1  1  0  0  0
 13 11  1  6  0  0  0
 13 12  1  0  0  0  0
 14 26  2  0  0  0  0
 15 18  2  0  0  0  0
 17  7  2  0  0  0  0
 17 10  1  0  0  0  0
 19 16  2  0  0  0  0
 20 21  1  0  0  0  0
 21 14  1  0  0  0  0
 21 13  1  0  0  0  0
 22 27  2  0  0  0  0
 22 14  1  0  0  0  0
 23  7  1  0  0  0  0
 25  9  1  0  0  0  0
 26  5  1  0  0  0  0
 27  6  1  0  0  0  0
 28 29  1  0  0  0  0
 29 30  1  0  0  0  0
 30 32  2  0  0  0  0
 30 31  1  0  0  0  0
M  END
>  <MODEL>
7

>  <REMARK>
 VINA RESULT:      -8.5      2.678      3.620
  Name = 
  3 active torsions:
  status: ('A' for Active; 'I' for Inactive)
    1  A    between atoms: C_1  and  C_10
    2  A    between atoms: C_2  and  C_24
    3  A    between atoms: C_10  and  C_24
                            x       y       z     vdW  Elec       q    Type
                         _______ _______ _______ _____ _____    ______ ____

>  <TORSDO>
F 3

$$$$
=
 OpenBabel11052417003D

 32 37  0  0  1  0  0  0  0  0999 V2000
  187.1980  177.6230  136.7720 C   0  0  0  0  0  0  0  0  0  0  0  0
  187.4450  178.5330  141.7760 C   0  0  2  0  0  3  0  0  0  0  0  0
  182.7390  178.8840  143.0900 N   0  0  0  0  0  0  0  0  0  0  0  0
  183.0890  178.7670  144.4740 C   0  0  0  0  0  3  0  0  0  0  0  0
  189.0970  177.8480  143.5850 C   0  0  0  0  0  0  0  0  0  0  0  0
  189.3390  177.5500  144.9200 C   0  0  0  0  0  0  0  0  0  0  0  0
  187.8850  177.7340  139.4850 C   0  0  0  0  0  0  0  0  0  0  0  0
  185.7160  178.9000  140.0270 C   0  0  0  0  0  2  0  0  0  0  0  0
  188.9580  177.2590  147.0920 N   0  0  0  0  0  0  0  0  0  0  0  0
  186.3160  178.2020  137.6910 C   0  0  0  0  0  3  0  0  0  0  0  0
  183.6360  178.9990  142.1560 C   0  0  0  0  0  3  0  0  0  0  0  0
  185.9560  178.3700  141.4450 C   0  0  2  0  0  3  0  0  0  0  0  0
  185.1070  179.1000  142.4830 C   0  0  2  0  0  3  0  0  0  0  0  0
  186.7430  178.2190  144.2000 C   0  0  0  0  0  0  0  0  0  0  0  0
  190.3460  177.0440  146.9410 N   0  0  0  0  0  0  0  0  0  0  0  0
  188.4150  177.0890  137.2120 C   0  0  0  0  0  3  0  0  0  0  0  0
  186.6500  178.2520  139.0470 C   0  0  0  0  0  0  0  0  0  0  0  0
  190.5680  177.2310  145.5540 N   0  0  0  0  0  0  0  0  0  0  0  0
  188.7580  177.1470  138.5670 C   0  0  0  0  0  3  0  0  0  0  0  0
  184.3610  178.6150  144.8340 C   0  0  0  0  0  3  0  0  0  0  0  0
  185.3940  178.5890  143.8350 N   0  0  0  0  0  0  0  0  0  0  0  0
  187.0540  177.9100  145.5450 C   0  0  0  0  0  3  0  0  0  0  0  0
  188.2230  177.7820  140.8410 O   0  0  0  0  0  0  0  0  0  0  0  0
  190.1210  177.8570  142.6940 F   0  0  0  0  0  0  0  0  0  0  0  0
  188.2850  177.2730  148.3780 C   0  0  0  0  0  1  0  0  0  0  0  0
  187.7660  178.1550  143.2030 C   0  0  0  0  0  0  0  0  0  0  0  0
  188.3680  177.5710  145.8470 C   0  0  0  0  0  0  0  0  0  0  0  0
  186.8300  177.5490  135.3320 C   0  0  0  0  0  2  0  0  0  0  0  0
  185.5180  176.8020  135.1660 C   0  0  0  0  0  2  0  0  0  0  0  0
  185.7140  175.3630  135.4860 C   0  0  0  0  0  0  0  0  0  0  0  0
  185.1060  174.8120  136.6070 O   0  0  0  0  0  1  0  0  0  0  0  0
  186.4560  174.6510  134.7610 O   0  0  0  0  0  0  0  0  0  0  0  0
  1 16  2  0  0  0  0
  1 10  1  0  0  0  0
  2 23  1  6  0  0  0
  2 26  1  0  0  0  0
  3  4  1  0  0  0  0
  4 20  2  0  0  0  0
  5  6  1  0  0  0  0
  6 18  1  0  0  0  0
  6 27  2  0  0  0  0
  7 23  1  0  0  0  0
  9 25  1  0  0  0  0
 10 17  2  0  0  0  0
 11  3  2  0  0  0  0
 12  8  1  6  0  0  0
 12  2  1  0  0  0  0
 12 13  1  0  0  0  0
 13 11  1  6  0  0  0
 13 21  1  0  0  0  0
 14 22  2  0  0  0  0
 15  9  1  0  0  0  0
 16 19  1  0  0  0  0
 17  7  1  0  0  0  0
 17  8  1  0  0  0  0
 18 15  2  0  0  0  0
 19  7  2  0  0  0  0
 21 14  1  0  0  0  0
 21 20  1  0  0  0  0
 22 27  1  0  0  0  0
 24  5  1  0  0  0  0
 26  5  2  0  0  0  0
 26 14  1  0  0  0  0
 27  9  1  0  0  0  0
 28  1  1  0  0  0  0
 29 28  1  0  0  0  0
 29 30  1  0  0  0  0
 30 31  1  0  0  0  0
 32 30  2  0  0  0  0
M  END
>  <MODEL>
8

>  <REMARK>
 VINA RESULT:      -8.4      4.210      8.347
  Name = 
  3 active torsions:
  status: ('A' for Active; 'I' for Inactive)
    1  A    between atoms: C_1  and  C_10
    2  A    between atoms: C_2  and  C_24
    3  A    between atoms: C_10  and  C_24
                            x       y       z     vdW  Elec       q    Type
                         _______ _______ _______ _____ _____    ______ ____

>  <TORSDO>
F 3

$$$$
=
 OpenBabel11052417003D

 32 37  0  0  1  0  0  0  0  0999 V2000
  181.4650  178.3890  139.2780 C   0  0  0  0  0  0  0  0  0  0  0  0
  185.7710  178.7120  141.9770 C   0  0  2  0  0  3  0  0  0  0  0  0
  184.2110  178.4990  146.6150 N   0  0  0  0  0  0  0  0  0  0  0  0
  185.5430  178.2480  147.0790 C   0  0  0  0  0  3  0  0  0  0  0  0
  188.1600  177.9600  141.5300 C   0  0  0  0  0  0  0  0  0  0  0  0
  189.3810  177.5270  142.0300 C   0  0  0  0  0  0  0  0  0  0  0  0
  184.0930  178.2340  140.2340 C   0  0  0  0  0  0  0  0  0  0  0  0
  183.3720  179.1360  142.4760 C   0  0  0  0  0  2  0  0  0  0  0  0
  190.9390  176.9470  143.5070 N   0  0  0  0  0  0  0  0  0  0  0  0
  181.7520  178.7760  140.5910 C   0  0  0  0  0  3  0  0  0  0  0  0
  183.9550  178.8010  145.3770 C   0  0  0  0  0  3  0  0  0  0  0  0
  184.6490  178.4620  142.9920 C   0  0  2  0  0  3  0  0  0  0  0  0
  185.0600  178.9880  144.3650 C   0  0  2  0  0  3  0  0  0  0  0  0
  187.3540  178.0520  143.8540 C   0  0  0  0  0  0  0  0  0  0  0  0
  191.5890  176.8720  142.2550 N   0  0  0  0  0  0  0  0  0  0  0  0
  182.4890  177.9130  138.4500 C   0  0  0  0  0  3  0  0  0  0  0  0
  183.0610  178.6920  141.0770 C   0  0  0  0  0  0  0  0  0  0  0  0
  190.5810  177.2410  141.3300 N   0  0  0  0  0  0  0  0  0  0  0  0
  183.8010  177.8370  138.9270 C   0  0  0  0  0  3  0  0  0  0  0  0
  186.5500  178.1640  146.2140 C   0  0  0  0  0  3  0  0  0  0  0  0
  186.3110  178.3460  144.8090 N   0  0  0  0  0  0  0  0  0  0  0  0
  188.6230  177.6130  144.3020 C   0  0  0  0  0  3  0  0  0  0  0  0
  185.4040  178.1480  140.7150 O   0  0  0  0  0  0  0  0  0  0  0  0
  188.0050  178.1630  140.1960 F   0  0  0  0  0  0  0  0  0  0  0  0
  191.6190  176.7500  144.7750 C   0  0  0  0  0  1  0  0  0  0  0  0
  187.1090  178.1950  142.4520 C   0  0  0  0  0  0  0  0  0  0  0  0
  189.5970  177.3540  143.3440 C   0  0  0  0  0  0  0  0  0  0  0  0
  180.0680  178.4560  138.7710 C   0  0  0  0  0  2  0  0  0  0  0  0
  179.0910  178.1300  139.8870 C   0  0  0  0  0  2  0  0  0  0  0  0
  179.1070  176.6680  140.1590 C   0  0  0  0  0  0  0  0  0  0  0  0
  179.0180  175.7650  139.1070 O   0  0  0  0  0  0  0  0  0  0  0  0
  179.1700  176.2480  141.3440 O   0  0  0  0  0  1  0  0  0  0  0  0
  1 10  1  0  0  0  0
  2 23  1  6  0  0  0
  2 26  1  0  0  0  0
  2 12  1  0  0  0  0
  3  4  1  0  0  0  0
  5  6  2  0  0  0  0
  5 26  1  0  0  0  0
  6 27  1  0  0  0  0
  7 23  1  0  0  0  0
  7 17  1  0  0  0  0
  9 25  1  0  0  0  0
 10 17  2  0  0  0  0
 11  3  2  0  0  0  0
 12  8  1  6  0  0  0
 12 13  1  0  0  0  0
 13 21  1  0  0  0  0
 13 11  1  1  0  0  0
 14 22  1  0  0  0  0
 14 21  1  0  0  0  0
 15  9  1  0  0  0  0
 16 19  1  0  0  0  0
 16  1  2  0  0  0  0
 17  8  1  0  0  0  0
 18  6  1  0  0  0  0
 18 15  2  0  0  0  0
 19  7  2  0  0  0  0
 20  4  2  0  0  0  0
 21 20  1  0  0  0  0
 24  5  1  0  0  0  0
 26 14  2  0  0  0  0
 27  9  1  0  0  0  0
 27 22  2  0  0  0  0
 28  1  1  0  0  0  0
 28 29  1  0  0  0  0
 29 30  1  0  0  0  0
 30 32  1  0  0  0  0
 31 30  2  0  0  0  0
M  END
>  <MODEL>
9

>  <REMARK>
 VINA RESULT:      -8.4      3.917      9.244
  Name = 
  3 active torsions:
  status: ('A' for Active; 'I' for Inactive)
    1  A    between atoms: C_1  and  C_10
    2  A    between atoms: C_2  and  C_24
    3  A    between atoms: C_10  and  C_24
                            x       y       z     vdW  Elec       q    Type
                         _______ _______ _______ _____ _____    ______ ____

>  <TORSDO>
F 3

$$$$
