=
 OpenBabel11052413213D

 28 30  0  0  1  0  0  0  0  0999 V2000
  190.6480  177.1600  141.1120 C   0  0  0  0  0  3  0  0  0  0  0  0
  190.5390  177.9520  143.8340 C   0  0  2  0  0  3  0  0  0  0  0  0
  191.8800  177.3140  141.9470 C   0  0  0  0  0  2  0  0  0  0  0  0
  191.5930  177.0460  143.3580 N   0  0  0  0  0  2  0  0  0  0  0  0
  189.4260  177.4080  141.6010 C   0  0  0  0  0  0  0  0  0  0  0  0
  189.2290  177.7560  143.0590 C   0  0  1  0  0  3  0  0  0  0  0  0
  192.2110  179.5450  144.4530 O   0  0  0  0  0  1  0  0  0  0  0  0
  190.9820  179.4110  143.8080 C   0  0  0  0  0  2  0  0  0  0  0  0
  188.2830  177.3200  140.7890 O   0  0  0  0  0  0  0  0  0  0  0  0
  187.9310  178.2090  139.7250 C   0  0  2  0  0  3  0  0  0  0  0  0
  187.0220  177.7740  137.5310 C   0  0  1  0  0  3  0  0  0  0  0  0
  186.5660  178.5530  139.7750 O   0  0  0  0  0  0  0  0  0  0  0  0
  189.2430  177.1170  138.0580 O   0  0  0  0  0  0  0  0  0  0  0  0
  188.1810  177.6130  138.4020 C   0  0  0  0  0  0  0  0  0  0  0  0
  186.4160  176.4210  137.2070 C   0  0  0  0  0  1  0  0  0  0  0  0
  186.0850  178.5540  138.4400 C   0  0  0  0  0  2  0  0  0  0  0  0
  188.3950  176.6800  143.7420 C   0  0  0  0  0  2  0  0  0  0  0  0
  187.6070  177.2070  144.9460 C   0  0  2  0  0  3  0  0  0  0  0  0
  185.8870  177.8550  143.3370 C   0  0  0  0  0  3  0  0  0  0  0  0
  185.3860  178.3930  145.7250 C   0  0  2  0  0  3  0  0  0  0  0  0
  183.9670  179.3560  143.9070 C   0  0  2  0  0  3  0  0  0  0  0  0
  186.2510  177.7910  144.6320 C   0  0  0  0  0  0  0  0  0  0  0  0
  183.9540  178.6780  145.2700 C   0  0  0  0  0  2  0  0  0  0  0  0
  185.9560  179.5620  146.1930 F   0  0  0  0  0  0  0  0  0  0  0  0
  182.6640  179.6880  143.5380 O   0  0  0  0  0  1  0  0  0  0  0  0
  184.5540  178.3900  142.8870 C   0  0  0  0  0  2  0  0  0  0  0  0
  188.5220  177.1830  147.3240 C   0  0  0  0  0  1  0  0  0  0  0  0
  188.4320  177.9390  146.0100 C   0  0  0  0  0  2  0  0  0  0  0  0
  1  5  2  0  0  0  0
  1  3  1  0  0  0  0
  2  8  1  6  0  0  0
  3  4  1  0  0  0  0
  4  2  1  0  0  0  0
  5  6  1  0  0  0  0
  6 17  1  1  0  0  0
  6  2  1  0  0  0  0
  8  7  1  0  0  0  0
  9  5  1  0  0  0  0
 10 12  1  0  0  0  0
 10  9  1  1  0  0  0
 11 15  1  1  0  0  0
 11 14  1  0  0  0  0
 11 16  1  0  0  0  0
 13 14  2  0  0  0  0
 14 10  1  0  0  0  0
 16 12  1  0  0  0  0
 18 17  1  6  0  0  0
 18 28  1  0  0  0  0
 19 22  2  0  0  0  0
 20 24  1  6  0  0  0
 21 25  1  6  0  0  0
 21 23  1  0  0  0  0
 22 18  1  0  0  0  0
 22 20  1  0  0  0  0
 23 20  1  0  0  0  0
 26 19  1  0  0  0  0
 26 21  1  0  0  0  0
 28 27  1  0  0  0  0
M  END
>  <MODEL>
1

>  <REMARK>
 VINA RESULT:      -8.4      0.000      0.000
  Name = 
  7 active torsions:
  status: ('A' for Active; 'I' for Inactive)
    1  A    between atoms: O_2  and  C_3
    2  A    between atoms: O_2  and  C_26
    3  A    between atoms: C_10  and  C_13
    4  A    between atoms: C_10  and  C_17
    5  A    between atoms: C_10  and  C_25
    6  A    between atoms: CA_16  and  C_20
    7  A    between atoms: C_17  and  C_27
                            x       y       z     vdW  Elec       q    Type
                         _______ _______ _______ _____ _____    ______ ____

>  <TORSDO>
F 7

$$$$
=
 OpenBabel11052413213D

 28 30  0  0  1  0  0  0  0  0999 V2000
  187.5780  178.1510  139.7960 C   0  0  0  0  0  3  0  0  0  0  0  0
  188.7180  177.7710  142.3660 C   0  0  2  0  0  3  0  0  0  0  0  0
  188.8930  177.4650  139.9910 C   0  0  0  0  0  2  0  0  0  0  0  0
  188.9460  176.7950  141.2920 N   0  0  0  0  0  2  0  0  0  0  0  0
  186.8760  178.6420  140.8260 C   0  0  0  0  0  0  0  0  0  0  0  0
  187.3350  178.4290  142.2500 C   0  0  1  0  0  3  0  0  0  0  0  0
  190.4450  178.7720  143.6820 O   0  0  0  0  0  1  0  0  0  0  0  0
  189.8240  178.8190  142.4340 C   0  0  0  0  0  2  0  0  0  0  0  0
  185.6730  179.3390  140.6240 O   0  0  0  0  0  0  0  0  0  0  0  0
  184.7180  179.0930  139.5870 C   0  0  2  0  0  3  0  0  0  0  0  0
  182.3110  178.9200  139.6600 C   0  0  1  0  0  3  0  0  0  0  0  0
  184.2080  180.2970  139.0640 O   0  0  0  0  0  0  0  0  0  0  0  0
  183.6610  177.2480  140.6710 O   0  0  0  0  0  0  0  0  0  0  0  0
  183.5700  178.3080  140.0710 C   0  0  0  0  0  0  0  0  0  0  0  0
  181.5430  179.4090  140.8730 C   0  0  0  0  0  1  0  0  0  0  0  0
  182.8180  180.1080  138.8560 C   0  0  0  0  0  2  0  0  0  0  0  0
  186.3130  177.5920  143.0070 C   0  0  0  0  0  2  0  0  0  0  0  0
  185.6350  178.3600  144.1470 C   0  0  2  0  0  3  0  0  0  0  0  0
  187.5170  177.6490  145.5320 C   0  0  0  0  0  3  0  0  0  0  0  0
  185.7550  178.9750  146.7070 C   0  0  2  0  0  3  0  0  0  0  0  0
  187.5190  177.7990  148.0310 C   0  0  2  0  0  3  0  0  0  0  0  0
  186.3640  178.3400  145.4680 C   0  0  0  0  0  0  0  0  0  0  0  0
  186.7440  179.0990  147.8660 C   0  0  0  0  0  2  0  0  0  0  0  0
  184.6560  178.2460  147.1230 F   0  0  0  0  0  0  0  0  0  0  0  0
  188.3580  177.8920  149.1400 O   0  0  0  0  0  1  0  0  0  0  0  0
  188.3560  177.5690  146.7790 C   0  0  0  0  0  2  0  0  0  0  0  0
  183.3960  179.5690  144.0230 C   0  0  0  0  0  1  0  0  0  0  0  0
  184.1080  178.2410  144.2110 C   0  0  0  0  0  2  0  0  0  0  0  0
  1  3  1  0  0  0  0
  1  5  2  0  0  0  0
  2  8  1  6  0  0  0
  3  4  1  0  0  0  0
  4  2  1  0  0  0  0
  5  6  1  0  0  0  0
  6  2  1  0  0  0  0
  6 17  1  1  0  0  0
  8  7  1  0  0  0  0
  9  5  1  0  0  0  0
 10 14  1  0  0  0  0
 10  9  1  1  0  0  0
 11 14  1  0  0  0  0
 11 15  1  1  0  0  0
 12 10  1  0  0  0  0
 14 13  2  0  0  0  0
 16 12  1  0  0  0  0
 16 11  1  0  0  0  0
 18 17  1  6  0  0  0
 18 28  1  0  0  0  0
 18 22  1  0  0  0  0
 19 26  1  0  0  0  0
 20 24  1  1  0  0  0
 20 23  1  0  0  0  0
 21 25  1  1  0  0  0
 22 19  2  0  0  0  0
 22 20  1  0  0  0  0
 23 21  1  0  0  0  0
 26 21  1  0  0  0  0
 27 28  1  0  0  0  0
M  END
>  <MODEL>
2

>  <REMARK>
 VINA RESULT:      -8.1      2.412      4.135
  Name = 
  7 active torsions:
  status: ('A' for Active; 'I' for Inactive)
    1  A    between atoms: O_2  and  C_3
    2  A    between atoms: O_2  and  C_26
    3  A    between atoms: C_10  and  C_13
    4  A    between atoms: C_10  and  C_17
    5  A    between atoms: C_10  and  C_25
    6  A    between atoms: CA_16  and  C_20
    7  A    between atoms: C_17  and  C_27
                            x       y       z     vdW  Elec       q    Type
                         _______ _______ _______ _____ _____    ______ ____

>  <TORSDO>
F 7

$$$$
=
 OpenBabel11052413213D

 28 30  0  0  1  0  0  0  0  0999 V2000
  190.2910  177.4680  139.7130 C   0  0  0  0  0  3  0  0  0  0  0  0
  187.7160  178.2520  138.8170 C   0  0  2  0  0  3  0  0  0  0  0  0
  190.0460  177.9590  138.3200 C   0  0  0  0  0  2  0  0  0  0  0  0
  188.9240  178.8980  138.2860 N   0  0  0  0  0  2  0  0  0  0  0  0
  189.3000  177.3540  140.6060 C   0  0  0  0  0  0  0  0  0  0  0  0
  187.9000  177.8180  140.2770 C   0  0  1  0  0  3  0  0  0  0  0  0
  186.0870  177.4240  137.2740 O   0  0  0  0  0  1  0  0  0  0  0  0
  187.2600  177.0850  137.9470 C   0  0  0  0  0  2  0  0  0  0  0  0
  189.5320  176.8340  141.8910 O   0  0  0  0  0  0  0  0  0  0  0  0
  190.8020  176.7240  142.5410 C   0  0  2  0  0  3  0  0  0  0  0  0
  191.4480  177.1270  144.8330 C   0  0  1  0  0  3  0  0  0  0  0  0
  190.9600  175.4620  143.1470 O   0  0  0  0  0  0  0  0  0  0  0  0
  190.8030  178.9360  143.4350 O   0  0  0  0  0  0  0  0  0  0  0  0
  190.9700  177.7380  143.5960 C   0  0  0  0  0  0  0  0  0  0  0  0
  190.3940  177.2420  145.9170 C   0  0  0  0  0  1  0  0  0  0  0  0
  191.5880  175.6760  144.4010 C   0  0  0  0  0  2  0  0  0  0  0  0
  187.5020  178.9640  141.1980 C   0  0  0  0  0  2  0  0  0  0  0  0
  186.0150  178.9460  141.5700 C   0  0  2  0  0  3  0  0  0  0  0  0
  184.6920  179.3840  143.5760 C   0  0  0  0  0  3  0  0  0  0  0  0
  186.6040  177.8030  143.8700 C   0  0  2  0  0  3  0  0  0  0  0  0
  185.4140  178.7060  145.8740 C   0  0  2  0  0  3  0  0  0  0  0  0
  185.7120  178.6990  143.0270 C   0  0  0  0  0  0  0  0  0  0  0  0
  185.9940  177.4550  145.2290 C   0  0  0  0  0  2  0  0  0  0  0  0
  187.8340  178.4030  144.0640 F   0  0  0  0  0  0  0  0  0  0  0  0
  184.9350  178.3950  147.1460 O   0  0  0  0  0  1  0  0  0  0  0  0
  184.2680  179.2140  145.0100 C   0  0  0  0  0  2  0  0  0  0  0  0
  184.2520  179.2500  139.7560 C   0  0  0  0  0  1  0  0  0  0  0  0
  185.0870  178.2660  140.5580 C   0  0  0  0  0  2  0  0  0  0  0  0
  1  5  2  0  0  0  0
  2  8  1  6  0  0  0
  2  6  1  0  0  0  0
  3  1  1  0  0  0  0
  4  3  1  0  0  0  0
  4  2  1  0  0  0  0
  5  9  1  0  0  0  0
  6  5  1  0  0  0  0
  6 17  1  1  0  0  0
  7  8  1  0  0  0  0
 10  9  1  1  0  0  0
 10 12  1  0  0  0  0
 10 14  1  0  0  0  0
 11 15  1  1  0  0  0
 12 16  1  0  0  0  0
 13 14  2  0  0  0  0
 14 11  1  0  0  0  0
 16 11  1  0  0  0  0
 17 18  1  0  0  0  0
 18 28  1  6  0  0  0
 18 22  1  0  0  0  0
 19 26  1  0  0  0  0
 20 24  1  1  0  0  0
 20 23  1  0  0  0  0
 21 25  1  1  0  0  0
 22 19  2  0  0  0  0
 22 20  1  0  0  0  0
 23 21  1  0  0  0  0
 26 21  1  0  0  0  0
 27 28  1  0  0  0  0
M  END
>  <MODEL>
3

>  <REMARK>
 VINA RESULT:      -8.0      2.250      5.434
  Name = 
  7 active torsions:
  status: ('A' for Active; 'I' for Inactive)
    1  A    between atoms: O_2  and  C_3
    2  A    between atoms: O_2  and  C_26
    3  A    between atoms: C_10  and  C_13
    4  A    between atoms: C_10  and  C_17
    5  A    between atoms: C_10  and  C_25
    6  A    between atoms: CA_16  and  C_20
    7  A    between atoms: C_17  and  C_27
                            x       y       z     vdW  Elec       q    Type
                         _______ _______ _______ _____ _____    ______ ____

>  <TORSDO>
F 7

$$$$
=
 OpenBabel11052413213D

 28 30  0  0  1  0  0  0  0  0999 V2000
  187.3390  178.2550  139.6720 C   0  0  0  0  0  3  0  0  0  0  0  0
  189.3250  177.3390  141.4800 C   0  0  2  0  0  3  0  0  0  0  0  0
  188.5030  177.4260  139.2250 C   0  0  0  0  0  2  0  0  0  0  0  0
  188.9590  176.5430  140.3000 N   0  0  0  0  0  2  0  0  0  0  0  0
  187.1840  178.6260  140.9490 C   0  0  0  0  0  0  0  0  0  0  0  0
  188.1270  178.1320  142.0220 C   0  0  1  0  0  3  0  0  0  0  0  0
  191.6010  177.4980  140.7680 O   0  0  0  0  0  1  0  0  0  0  0  0
  190.5150  178.2520  141.2090 C   0  0  0  0  0  2  0  0  0  0  0  0
  186.1210  179.4550  141.3440 O   0  0  0  0  0  0  0  0  0  0  0  0
  184.7270  179.1920  141.1520 C   0  0  2  0  0  3  0  0  0  0  0  0
  183.5390  178.2380  139.2790 C   0  0  1  0  0  3  0  0  0  0  0  0
  184.4030  177.8680  141.5080 O   0  0  0  0  0  0  0  0  0  0  0  0
  184.5420  180.3830  139.0940 O   0  0  0  0  0  0  0  0  0  0  0  0
  184.3200  179.3780  139.7500 C   0  0  0  0  0  0  0  0  0  0  0  0
  184.2920  177.4990  138.1890 C   0  0  0  0  0  1  0  0  0  0  0  0
  183.4860  177.3870  140.5380 C   0  0  0  0  0  2  0  0  0  0  0  0
  187.3690  177.2760  143.0280 C   0  0  0  0  0  2  0  0  0  0  0  0
  187.4000  177.8510  144.4480 C   0  0  2  0  0  3  0  0  0  0  0  0
  188.4050  177.1660  146.5670 C   0  0  0  0  0  3  0  0  0  0  0  0
  190.0100  177.5760  144.6960 C   0  0  2  0  0  3  0  0  0  0  0  0
  190.8610  177.2960  147.0300 C   0  0  2  0  0  3  0  0  0  0  0  0
  188.6080  177.4800  145.2740 C   0  0  0  0  0  0  0  0  0  0  0  0
  191.0680  176.9060  145.5730 C   0  0  0  0  0  2  0  0  0  0  0  0
  190.3540  178.9010  144.5020 F   0  0  0  0  0  0  0  0  0  0  0  0
  191.8790  176.7480  147.8090 O   0  0  0  0  0  1  0  0  0  0  0  0
  189.5170  176.7530  147.4940 C   0  0  0  0  0  2  0  0  0  0  0  0
  185.2110  179.0920  144.8420 C   0  0  0  0  0  1  0  0  0  0  0  0
  186.0560  177.8770  145.1830 C   0  0  0  0  0  2  0  0  0  0  0  0
  1  5  2  0  0  0  0
  2  8  1  6  0  0  0
  2  6  1  0  0  0  0
  3  1  1  0  0  0  0
  3  4  1  0  0  0  0
  4  2  1  0  0  0  0
  5  9  1  0  0  0  0
  5  6  1  0  0  0  0
  6 17  1  1  0  0  0
  7  8  1  0  0  0  0
 10  9  1  6  0  0  0
 10 12  1  0  0  0  0
 11 15  1  6  0  0  0
 11 14  1  0  0  0  0
 11 16  1  0  0  0  0
 13 14  2  0  0  0  0
 14 10  1  0  0  0  0
 16 12  1  0  0  0  0
 18 17  1  6  0  0  0
 18 28  1  0  0  0  0
 18 22  1  0  0  0  0
 19 26  1  0  0  0  0
 20 24  1  1  0  0  0
 20 22  1  0  0  0  0
 20 23  1  0  0  0  0
 21 26  1  0  0  0  0
 21 25  1  1  0  0  0
 22 19  2  0  0  0  0
 23 21  1  0  0  0  0
 27 28  1  0  0  0  0
M  END
>  <MODEL>
4

>  <REMARK>
 VINA RESULT:      -7.9      2.256      4.577
  Name = 
  7 active torsions:
  status: ('A' for Active; 'I' for Inactive)
    1  A    between atoms: O_2  and  C_3
    2  A    between atoms: O_2  and  C_26
    3  A    between atoms: C_10  and  C_13
    4  A    between atoms: C_10  and  C_17
    5  A    between atoms: C_10  and  C_25
    6  A    between atoms: CA_16  and  C_20
    7  A    between atoms: C_17  and  C_27
                            x       y       z     vdW  Elec       q    Type
                         _______ _______ _______ _____ _____    ______ ____

>  <TORSDO>
F 7

$$$$
=
 OpenBabel11052413213D

 28 30  0  0  1  0  0  0  0  0999 V2000
  190.1980  177.6580  139.8640 C   0  0  0  0  0  3  0  0  0  0  0  0
  187.5430  178.1650  139.0000 C   0  0  2  0  0  3  0  0  0  0  0  0
  189.8920  178.1940  138.5010 C   0  0  0  0  0  2  0  0  0  0  0  0
  188.6610  178.9860  138.5150 N   0  0  0  0  0  2  0  0  0  0  0  0
  189.2300  177.3690  140.7440 C   0  0  0  0  0  0  0  0  0  0  0  0
  187.7820  177.6730  140.4350 C   0  0  1  0  0  3  0  0  0  0  0  0
  185.9290  177.1100  137.5870 O   0  0  0  0  0  1  0  0  0  0  0  0
  187.2350  177.0020  138.0620 C   0  0  0  0  0  2  0  0  0  0  0  0
  189.5270  176.8080  141.9980 O   0  0  0  0  0  0  0  0  0  0  0  0
  190.8060  176.8030  142.6400 C   0  0  2  0  0  3  0  0  0  0  0  0
  191.4290  177.2320  144.9330 C   0  0  1  0  0  3  0  0  0  0  0  0
  191.0790  175.5530  143.2280 O   0  0  0  0  0  0  0  0  0  0  0  0
  190.6160  178.9950  143.5630 O   0  0  0  0  0  0  0  0  0  0  0  0
  190.8900  177.8140  143.7070 C   0  0  0  0  0  0  0  0  0  0  0  0
  190.3760  177.2390  146.0250 C   0  0  0  0  0  1  0  0  0  0  0  0
  191.6950  175.8050  144.4810 C   0  0  0  0  0  2  0  0  0  0  0  0
  187.2460  178.7060  141.4180 C   0  0  0  0  0  2  0  0  0  0  0  0
  186.4700  178.0790  142.5810 C   0  0  2  0  0  3  0  0  0  0  0  0
  184.3210  178.0960  141.4200 C   0  0  0  0  0  3  0  0  0  0  0  0
  184.2740  178.9010  143.7840 C   0  0  2  0  0  3  0  0  0  0  0  0
  182.2860  179.2500  142.3100 C   0  0  2  0  0  3  0  0  0  0  0  0
  184.9800  178.3170  142.5720 C   0  0  0  0  0  0  0  0  0  0  0  0
  182.7500  178.8140  143.6920 C   0  0  0  0  0  2  0  0  0  0  0  0
  184.6440  180.2220  143.9590 F   0  0  0  0  0  0  0  0  0  0  0  0
  180.8930  179.2470  142.2620 O   0  0  0  0  0  1  0  0  0  0  0  0
  182.8320  178.2700  141.2800 C   0  0  0  0  0  2  0  0  0  0  0  0
  187.1500  176.8110  144.6840 C   0  0  0  0  0  1  0  0  0  0  0  0
  187.1600  178.1400  143.9480 C   0  0  0  0  0  2  0  0  0  0  0  0
  1  5  2  0  0  0  0
  2  8  1  6  0  0  0
  2  6  1  0  0  0  0
  3  4  1  0  0  0  0
  3  1  1  0  0  0  0
  4  2  1  0  0  0  0
  5  9  1  0  0  0  0
  6  5  1  0  0  0  0
  6 17  1  1  0  0  0
  7  8  1  0  0  0  0
 10  9  1  1  0  0  0
 10 12  1  0  0  0  0
 10 14  1  0  0  0  0
 11 15  1  1  0  0  0
 12 16  1  0  0  0  0
 13 14  2  0  0  0  0
 14 11  1  0  0  0  0
 16 11  1  0  0  0  0
 18 17  1  6  0  0  0
 18 28  1  0  0  0  0
 19 22  2  0  0  0  0
 20 24  1  6  0  0  0
 21 25  1  1  0  0  0
 21 23  1  0  0  0  0
 22 18  1  0  0  0  0
 22 20  1  0  0  0  0
 23 20  1  0  0  0  0
 26 19  1  0  0  0  0
 26 21  1  0  0  0  0
 28 27  1  0  0  0  0
M  END
>  <MODEL>
5

>  <REMARK>
 VINA RESULT:      -7.8      2.111      4.995
  Name = 
  7 active torsions:
  status: ('A' for Active; 'I' for Inactive)
    1  A    between atoms: O_2  and  C_3
    2  A    between atoms: O_2  and  C_26
    3  A    between atoms: C_10  and  C_13
    4  A    between atoms: C_10  and  C_17
    5  A    between atoms: C_10  and  C_25
    6  A    between atoms: CA_16  and  C_20
    7  A    between atoms: C_17  and  C_27
                            x       y       z     vdW  Elec       q    Type
                         _______ _______ _______ _____ _____    ______ ____

>  <TORSDO>
F 7

$$$$
=
 OpenBabel11052413213D

 28 30  0  0  1  0  0  0  0  0999 V2000
  186.7540  178.5280  140.0300 C   0  0  0  0  0  3  0  0  0  0  0  0
  184.1050  178.7620  141.0200 C   0  0  2  0  0  3  0  0  0  0  0  0
  185.6010  178.8870  139.1460 C   0  0  0  0  0  2  0  0  0  0  0  0
  184.5640  179.5950  139.8990 N   0  0  0  0  0  2  0  0  0  0  0  0
  186.5930  178.2770  141.3360 C   0  0  0  0  0  0  0  0  0  0  0  0
  185.2460  178.4520  141.9990 C   0  0  1  0  0  3  0  0  0  0  0  0
  182.1690  177.7860  140.0130 O   0  0  0  0  0  1  0  0  0  0  0  0
  183.4220  177.4850  140.5440 C   0  0  0  0  0  2  0  0  0  0  0  0
  187.6730  177.8810  142.1420 O   0  0  0  0  0  0  0  0  0  0  0  0
  188.5670  176.7950  141.8820 C   0  0  2  0  0  3  0  0  0  0  0  0
  190.9430  176.5760  142.2520 C   0  0  1  0  0  3  0  0  0  0  0  0
  188.7280  175.9810  143.0200 O   0  0  0  0  0  0  0  0  0  0  0  0
  190.1220  178.0690  140.5970 O   0  0  0  0  0  0  0  0  0  0  0  0
  189.9060  177.2650  141.4900 C   0  0  0  0  0  0  0  0  0  0  0  0
  191.6720  177.5550  143.1520 C   0  0  0  0  0  1  0  0  0  0  0  0
  190.1000  175.6290  143.0930 C   0  0  0  0  0  2  0  0  0  0  0  0
  185.3210  179.5500  143.0510 C   0  0  0  0  0  2  0  0  0  0  0  0
  184.7760  179.1140  144.4150 C   0  0  2  0  0  3  0  0  0  0  0  0
  186.8760  178.0160  145.0090 C   0  0  0  0  0  3  0  0  0  0  0  0
  185.6110  179.0250  146.9130 C   0  0  2  0  0  3  0  0  0  0  0  0
  187.5370  177.4980  147.3670 C   0  0  2  0  0  3  0  0  0  0  0  0
  185.8160  178.7270  145.4380 C   0  0  0  0  0  0  0  0  0  0  0  0
  186.8730  178.8140  147.7500 C   0  0  0  0  0  2  0  0  0  0  0  0
  184.5920  178.2390  147.4190 F   0  0  0  0  0  0  0  0  0  0  0  0
  188.6390  177.2740  148.1910 O   0  0  0  0  0  1  0  0  0  0  0  0
  187.9970  177.5880  145.9180 C   0  0  0  0  0  2  0  0  0  0  0  0
  182.2470  179.0610  144.1070 C   0  0  0  0  0  1  0  0  0  0  0  0
  183.5070  178.2560  144.3780 C   0  0  0  0  0  2  0  0  0  0  0  0
  1  5  2  0  0  0  0
  2  8  1  6  0  0  0
  2  6  1  0  0  0  0
  3  4  1  0  0  0  0
  3  1  1  0  0  0  0
  4  2  1  0  0  0  0
  5  6  1  0  0  0  0
  5  9  1  0  0  0  0
  6 17  1  1  0  0  0
  7  8  1  0  0  0  0
 10  9  1  1  0  0  0
 10 12  1  0  0  0  0
 11 16  1  0  0  0  0
 11 15  1  1  0  0  0
 12 16  1  0  0  0  0
 13 14  2  0  0  0  0
 14 10  1  0  0  0  0
 14 11  1  0  0  0  0
 18 17  1  6  0  0  0
 18 22  1  0  0  0  0
 19 22  2  0  0  0  0
 19 26  1  0  0  0  0
 20 24  1  1  0  0  0
 20 23  1  0  0  0  0
 21 23  1  0  0  0  0
 21 25  1  1  0  0  0
 22 20  1  0  0  0  0
 26 21  1  0  0  0  0
 27 28  1  0  0  0  0
 28 18  1  0  0  0  0
M  END
>  <MODEL>
6

>  <REMARK>
 VINA RESULT:      -7.7      2.536      5.541
  Name = 
  7 active torsions:
  status: ('A' for Active; 'I' for Inactive)
    1  A    between atoms: O_2  and  C_3
    2  A    between atoms: O_2  and  C_26
    3  A    between atoms: C_10  and  C_13
    4  A    between atoms: C_10  and  C_17
    5  A    between atoms: C_10  and  C_25
    6  A    between atoms: CA_16  and  C_20
    7  A    between atoms: C_17  and  C_27
                            x       y       z     vdW  Elec       q    Type
                         _______ _______ _______ _____ _____    ______ ____

>  <TORSDO>
F 7

$$$$
=
 OpenBabel11052413213D

 28 30  0  0  1  0  0  0  0  0999 V2000
  188.6940  177.3770  139.4410 C   0  0  0  0  0  3  0  0  0  0  0  0
  191.2510  176.8410  140.5490 C   0  0  2  0  0  3  0  0  0  0  0  0
  189.7570  176.6490  138.6790 C   0  0  0  0  0  2  0  0  0  0  0  0
  190.6400  175.9140  139.5860 N   0  0  0  0  0  2  0  0  0  0  0  0
  188.9020  177.8330  140.6830 C   0  0  0  0  0  0  0  0  0  0  0  0
  190.1920  177.5380  141.4140 C   0  0  1  0  0  3  0  0  0  0  0  0
  193.2680  177.2060  139.3190 O   0  0  0  0  0  1  0  0  0  0  0  0
  192.1640  177.8560  139.8700 C   0  0  0  0  0  2  0  0  0  0  0  0
  187.9180  178.5690  141.3650 O   0  0  0  0  0  0  0  0  0  0  0  0
  186.5230  178.2560  141.4300 C   0  0  2  0  0  3  0  0  0  0  0  0
  184.9360  178.4650  143.2370 C   0  0  1  0  0  3  0  0  0  0  0  0
  185.7310  179.3860  141.1470 O   0  0  0  0  0  0  0  0  0  0  0  0
  186.6820  176.8600  143.3580 O   0  0  0  0  0  0  0  0  0  0  0  0
  186.1290  177.7720  142.7640 C   0  0  0  0  0  0  0  0  0  0  0  0
  185.2660  179.3080  144.4550 C   0  0  0  0  0  1  0  0  0  0  0  0
  184.6370  179.3680  142.0500 C   0  0  0  0  0  2  0  0  0  0  0  0
  189.9090  176.6890  142.6470 C   0  0  0  0  0  2  0  0  0  0  0  0
  190.7340  177.1120  143.8670 C   0  0  2  0  0  3  0  0  0  0  0  0
  188.8090  177.7780  145.2150 C   0  0  0  0  0  3  0  0  0  0  0  0
  190.6090  176.5520  146.4400 C   0  0  2  0  0  3  0  0  0  0  0  0
  188.7840  177.6870  147.7160 C   0  0  2  0  0  3  0  0  0  0  0  0
  189.9900  177.1330  145.1800 C   0  0  0  0  0  0  0  0  0  0  0  0
  189.6130  176.4160  147.5910 C   0  0  0  0  0  2  0  0  0  0  0  0
  191.6740  177.3350  146.8500 F   0  0  0  0  0  0  0  0  0  0  0  0
  187.9370  177.5860  148.8190 O   0  0  0  0  0  1  0  0  0  0  0  0
  187.9530  177.8530  146.4510 C   0  0  0  0  0  2  0  0  0  0  0  0
  191.3440  179.5400  144.3390 C   0  0  0  0  0  1  0  0  0  0  0  0
  191.7300  178.2520  143.6320 C   0  0  0  0  0  2  0  0  0  0  0  0
  1  5  2  0  0  0  0
  2  8  1  6  0  0  0
  2  6  1  0  0  0  0
  3  1  1  0  0  0  0
  3  4  1  0  0  0  0
  4  2  1  0  0  0  0
  5  9  1  0  0  0  0
  5  6  1  0  0  0  0
  6 17  1  1  0  0  0
  7  8  1  0  0  0  0
 10  9  1  1  0  0  0
 10 14  1  0  0  0  0
 11 15  1  1  0  0  0
 12 10  1  0  0  0  0
 12 16  1  0  0  0  0
 14 11  1  0  0  0  0
 14 13  2  0  0  0  0
 16 11  1  0  0  0  0
 18 17  1  6  0  0  0
 18 22  1  0  0  0  0
 19 26  1  0  0  0  0
 20 24  1  1  0  0  0
 20 23  1  0  0  0  0
 21 25  1  1  0  0  0
 22 19  2  0  0  0  0
 22 20  1  0  0  0  0
 23 21  1  0  0  0  0
 26 21  1  0  0  0  0
 28 18  1  0  0  0  0
 28 27  1  0  0  0  0
M  END
>  <MODEL>
7

>  <REMARK>
 VINA RESULT:      -7.7      2.482      4.665
  Name = 
  7 active torsions:
  status: ('A' for Active; 'I' for Inactive)
    1  A    between atoms: O_2  and  C_3
    2  A    between atoms: O_2  and  C_26
    3  A    between atoms: C_10  and  C_13
    4  A    between atoms: C_10  and  C_17
    5  A    between atoms: C_10  and  C_25
    6  A    between atoms: CA_16  and  C_20
    7  A    between atoms: C_17  and  C_27
                            x       y       z     vdW  Elec       q    Type
                         _______ _______ _______ _____ _____    ______ ____

>  <TORSDO>
F 7

$$$$
=
 OpenBabel11052413213D

 28 30  0  0  1  0  0  0  0  0999 V2000
  190.8650  177.1230  140.8650 C   0  0  0  0  0  3  0  0  0  0  0  0
  190.3230  178.0160  143.5030 C   0  0  2  0  0  3  0  0  0  0  0  0
  191.9020  177.0990  141.9430 C   0  0  0  0  0  2  0  0  0  0  0  0
  191.2830  176.9310  143.2600 N   0  0  0  0  0  2  0  0  0  0  0  0
  189.6280  177.5880  141.0830 C   0  0  0  0  0  0  0  0  0  0  0  0
  189.1910  178.0140  142.4660 C   0  0  1  0  0  3  0  0  0  0  0  0
  192.1460  179.2980  144.3680 O   0  0  0  0  0  1  0  0  0  0  0  0
  191.0030  179.3790  143.5740 C   0  0  0  0  0  2  0  0  0  0  0  0
  188.6820  177.6630  140.0460 O   0  0  0  0  0  0  0  0  0  0  0  0
  188.9490  178.0060  138.6830 C   0  0  2  0  0  3  0  0  0  0  0  0
  188.0190  177.1530  136.6240 C   0  0  1  0  0  3  0  0  0  0  0  0
  188.0430  178.9770  138.2120 O   0  0  0  0  0  0  0  0  0  0  0  0
  189.4180  175.7800  137.9650 O   0  0  0  0  0  0  0  0  0  0  0  0
  188.8390  176.8400  137.7900 C   0  0  0  0  0  0  0  0  0  0  0  0
  186.7450  176.3290  136.6410 C   0  0  0  0  0  1  0  0  0  0  0  0
  187.6930  178.6150  136.8860 C   0  0  0  0  0  2  0  0  0  0  0  0
  188.0620  177.1160  142.9540 C   0  0  0  0  0  2  0  0  0  0  0  0
  186.9950  177.8740  143.7530 C   0  0  2  0  0  3  0  0  0  0  0  0
  188.3410  177.3670  145.7270 C   0  0  0  0  0  3  0  0  0  0  0  0
  186.2360  178.6420  146.1570 C   0  0  2  0  0  3  0  0  0  0  0  0
  187.5110  177.6610  148.0700 C   0  0  2  0  0  3  0  0  0  0  0  0
  187.2470  177.9780  145.2370 C   0  0  0  0  0  0  0  0  0  0  0  0
  186.7800  178.8960  147.5630 C   0  0  0  0  0  2  0  0  0  0  0  0
  185.0930  177.8690  146.2440 F   0  0  0  0  0  0  0  0  0  0  0  0
  187.9300  177.8720  149.3820 O   0  0  0  0  0  1  0  0  0  0  0  0
  188.7240  177.4130  147.1830 C   0  0  0  0  0  2  0  0  0  0  0  0
  184.8770  178.8570  142.7360 C   0  0  0  0  0  1  0  0  0  0  0  0
  185.5450  177.6270  143.3240 C   0  0  0  0  0  2  0  0  0  0  0  0
  1  5  2  0  0  0  0
  1  3  1  0  0  0  0
  2  8  1  6  0  0  0
  3  4  1  0  0  0  0
  4  2  1  0  0  0  0
  5  6  1  0  0  0  0
  6 17  1  1  0  0  0
  6  2  1  0  0  0  0
  8  7  1  0  0  0  0
  9  5  1  0  0  0  0
 10  9  1  1  0  0  0
 11 15  1  1  0  0  0
 11 16  1  0  0  0  0
 11 14  1  0  0  0  0
 12 10  1  0  0  0  0
 14 13  2  0  0  0  0
 14 10  1  0  0  0  0
 16 12  1  0  0  0  0
 18 17  1  1  0  0  0
 18 22  1  0  0  0  0
 19 26  1  0  0  0  0
 20 24  1  1  0  0  0
 20 23  1  0  0  0  0
 21 25  1  1  0  0  0
 22 19  2  0  0  0  0
 22 20  1  0  0  0  0
 23 21  1  0  0  0  0
 26 21  1  0  0  0  0
 27 28  1  0  0  0  0
 28 18  1  0  0  0  0
M  END
>  <MODEL>
8

>  <REMARK>
 VINA RESULT:      -7.6      1.777      2.939
  Name = 
  7 active torsions:
  status: ('A' for Active; 'I' for Inactive)
    1  A    between atoms: O_2  and  C_3
    2  A    between atoms: O_2  and  C_26
    3  A    between atoms: C_10  and  C_13
    4  A    between atoms: C_10  and  C_17
    5  A    between atoms: C_10  and  C_25
    6  A    between atoms: CA_16  and  C_20
    7  A    between atoms: C_17  and  C_27
                            x       y       z     vdW  Elec       q    Type
                         _______ _______ _______ _____ _____    ______ ____

>  <TORSDO>
F 7

$$$$
=
 OpenBabel11052413213D

 28 30  0  0  1  0  0  0  0  0999 V2000
  183.2010  179.0090  143.0350 C   0  0  0  0  0  3  0  0  0  0  0  0
  185.4740  178.9170  144.7300 C   0  0  2  0  0  3  0  0  0  0  0  0
  183.2580  179.7510  144.3330 C   0  0  0  0  0  2  0  0  0  0  0  0
  184.6350  180.1220  144.6640 N   0  0  0  0  0  2  0  0  0  0  0  0
  184.2160  178.2440  142.6130 C   0  0  0  0  0  0  0  0  0  0  0  0
  185.5140  178.1800  143.3850 C   0  0  1  0  0  3  0  0  0  0  0  0
  184.9280  178.7020  147.0480 O   0  0  0  0  0  1  0  0  0  0  0  0
  185.0510  177.9840  145.8590 C   0  0  0  0  0  2  0  0  0  0  0  0
  184.1260  177.5030  141.4220 O   0  0  0  0  0  0  0  0  0  0  0  0
  183.4560  177.9080  140.2240 C   0  0  2  0  0  3  0  0  0  0  0  0
  184.2890  178.2610  137.9860 C   0  0  1  0  0  3  0  0  0  0  0  0
  183.0540  176.7950  139.4610 O   0  0  0  0  0  0  0  0  0  0  0  0
  184.9140  179.7340  139.7410 O   0  0  0  0  0  0  0  0  0  0  0  0
  184.3170  178.7380  139.3650 C   0  0  0  0  0  0  0  0  0  0  0  0
  185.6530  177.7350  137.5830 C   0  0  0  0  0  1  0  0  0  0  0  0
  183.3040  177.1080  138.1000 C   0  0  0  0  0  2  0  0  0  0  0  0
  186.6510  178.7360  142.5380 C   0  0  0  0  0  2  0  0  0  0  0  0
  187.9860  178.0240  142.7850 C   0  0  2  0  0  3  0  0  0  0  0  0
  188.3120  178.1010  140.3650 C   0  0  0  0  0  3  0  0  0  0  0  0
  190.2540  177.2510  141.6880 C   0  0  2  0  0  3  0  0  0  0  0  0
  190.2340  176.9980  139.2010 C   0  0  2  0  0  3  0  0  0  0  0  0
  188.8570  177.8360  141.5670 C   0  0  0  0  0  0  0  0  0  0  0  0
  191.0770  177.3910  140.4070 C   0  0  0  0  0  2  0  0  0  0  0  0
  190.1820  175.9160  142.0390 F   0  0  0  0  0  0  0  0  0  0  0  0
  191.0150  177.0490  138.0480 O   0  0  0  0  0  1  0  0  0  0  0  0
  189.0770  177.9800  139.0740 C   0  0  0  0  0  2  0  0  0  0  0  0
  188.7150  177.1280  145.0560 C   0  0  0  0  0  1  0  0  0  0  0  0
  187.9410  176.8570  143.7770 C   0  0  0  0  0  2  0  0  0  0  0  0
  1  3  1  0  0  0  0
  2  8  1  1  0  0  0
  3  4  1  0  0  0  0
  4  2  1  0  0  0  0
  5  1  2  0  0  0  0
  5  6  1  0  0  0  0
  6 17  1  6  0  0  0
  6  2  1  0  0  0  0
  8  7  1  0  0  0  0
  9  5  1  0  0  0  0
 10  9  1  1  0  0  0
 11 15  1  1  0  0  0
 11 16  1  0  0  0  0
 11 14  1  0  0  0  0
 12 10  1  0  0  0  0
 14 13  2  0  0  0  0
 14 10  1  0  0  0  0
 16 12  1  0  0  0  0
 18 17  1  6  0  0  0
 18 28  1  0  0  0  0
 19 22  2  0  0  0  0
 20 24  1  6  0  0  0
 21 25  1  6  0  0  0
 21 23  1  0  0  0  0
 22 20  1  0  0  0  0
 22 18  1  0  0  0  0
 23 20  1  0  0  0  0
 26 21  1  0  0  0  0
 26 19  1  0  0  0  0
 28 27  1  0  0  0  0
M  END
>  <MODEL>
9

>  <REMARK>
 VINA RESULT:      -7.5      2.881      5.767
  Name = 
  7 active torsions:
  status: ('A' for Active; 'I' for Inactive)
    1  A    between atoms: O_2  and  C_3
    2  A    between atoms: O_2  and  C_26
    3  A    between atoms: C_10  and  C_13
    4  A    between atoms: C_10  and  C_17
    5  A    between atoms: C_10  and  C_25
    6  A    between atoms: CA_16  and  C_20
    7  A    between atoms: C_17  and  C_27
                            x       y       z     vdW  Elec       q    Type
                         _______ _______ _______ _____ _____    ______ ____

>  <TORSDO>
F 7

$$$$
