=
 OpenBabel11052414513D

 55 62  0  0  1  0  0  0  0  0999 V2000
  188.1940  177.6410  141.8410 O   0  0  0  0  0  0  0  0  0  0  0  0
  184.3780  176.5990  137.5350 O   0  0  0  0  0  0  0  0  0  0  0  0
  186.5490  174.4100  137.3440 C   0  0  0  0  0  1  0  0  0  0  0  0
  182.4890  177.9650  139.1200 C   0  0  0  0  0  2  0  0  0  0  0  0
  182.3640  179.7500  137.3470 C   0  0  0  0  0  2  0  0  0  0  0  0
  188.4110  177.4240  135.7560 S   0  0  0  0  0  0  0  0  0  0  0  0
  189.8170  177.1680  134.5960 C   0  0  0  0  0  2  0  0  0  0  0  0
  190.4100  176.5790  137.4510 C   0  0  1  0  0  3  0  0  0  0  0  0
  191.3990  176.2430  136.3310 C   0  0  0  0  0  2  0  0  0  0  0  0
  187.9950  177.4320  139.0670 O   0  0  0  0  0  0  0  0  0  0  0  0
  180.3770  178.6930  138.1930 O   0  0  0  0  0  0  0  0  0  0  0  0
  180.9980  179.1440  137.0160 C   0  0  0  0  0  2  0  0  0  0  0  0
  190.7280  176.0020  134.9780 C   0  0  0  0  0  2  0  0  0  0  0  0
  184.6230  177.6060  142.7880 C   0  0  0  0  0  3  0  0  0  0  0  0
  188.9500  176.2700  137.0730 C   0  0  1  0  0  3  0  0  0  0  0  0
  184.9200  179.1800  140.9700 C   0  0  0  0  0  0  0  0  0  0  0  0
  189.1640  178.3100  141.0340 C   0  0  1  0  0  3  0  0  0  0  0  0
  186.2930  178.9070  140.9660 C   0  0  0  0  0  3  0  0  0  0  0  0
  190.1900  176.5000  139.8940 C   0  0  2  0  0  3  0  0  0  0  0  0
  190.5360  178.0260  141.6340 C   0  0  0  0  0  2  0  0  0  0  0  0
  183.7400  177.7060  136.9520 C   0  0  0  0  0  2  0  0  0  0  0  0
  190.8170  175.9090  138.6890 N   0  0  0  0  0  2  0  0  0  0  0  0
  185.7350  176.7760  137.2600 C   0  0  0  0  0  2  0  0  0  0  0  0
  186.5660  175.7630  138.0340 C   0  0  2  0  0  3  0  0  0  0  0  0
  185.9920  177.3190  142.7630 C   0  0  0  0  0  3  0  0  0  0  0  0
  181.0940  177.5580  138.6160 C   0  0  2  0  0  3  0  0  0  0  0  0
  183.2660  178.7060  138.0160 C   0  0  2  0  0  0  0  0  0  0  0  0
  186.8330  177.9650  141.8540 C   0  0  0  0  0  0  0  0  0  0  0  0
  188.0000  176.2440  138.3000 C   0  0  2  0  0  3  0  0  0  0  0  0
  189.2630  177.6950  139.6530 C   0  0  1  0  0  3  0  0  0  0  0  0
  184.5060  179.4280  138.5580 C   0  0  0  0  0  2  0  0  0  0  0  0
  191.1630  176.9100  140.9190 N   0  0  0  0  0  0  0  0  0  0  0  0
  184.3350  180.0760  139.9300 C   0  0  0  0  0  2  0  0  0  0  0  0
  184.0870  178.5320  141.8880 C   0  0  0  0  0  3  0  0  0  0  0  0
  192.3740  177.4630  140.3130 C   0  0  0  0  0  2  0  0  0  0  0  0
  193.6190  176.7660  140.8590 C   0  0  0  0  0  2  0  0  0  0  0  0
  195.5900  175.2860  140.2830 C   0  0  0  0  0  2  0  0  0  0  0  0
  194.8840  175.0970  137.8100 C   0  0  0  0  0  2  0  0  0  0  0  0
  194.5830  176.2920  139.7690 C   0  0  1  0  0  3  0  0  0  0  0  0
  193.8690  175.7140  138.6450 N   0  0  0  0  0  2  0  0  0  0  0  0
  196.1130  174.2810  138.8700 S   0  0  0  0  0  0  0  0  0  0  0  0
  180.2710  176.7070  139.6300 C   0  0  2  0  0  0  0  0  0  0  0  0
  181.1530  175.6470  140.3290 C   0  0  0  0  0  3  0  0  0  0  0  0
  182.0310  175.0360  139.4320 O   0  0  0  0  0  1  0  0  0  0  0  0
  180.4000  174.6750  140.9890 O   0  0  0  0  0  1  0  0  0  0  0  0
  179.1400  175.9190  138.9300 C   0  0  0  0  0  2  0  0  0  0  0  0
  179.3940  175.7260  137.5670 O   0  0  0  0  0  1  0  0  0  0  0  0
  179.7440  177.5250  140.6670 O   0  0  0  0  0  0  0  0  0  0  0  0
  180.2380  180.8000  140.9890 O   0  0  0  0  0  0  0  0  0  0  0  0
  180.7730  178.2050  141.3520 C   0  0  2  0  0  3  0  0  0  0  0  0
  180.3550  178.7070  142.6280 C   0  0  2  0  0  0  0  0  0  0  0  0
  180.3950  179.6900  141.4660 C   0  0  0  0  0  0  0  0  0  0  0  0
  181.4520  178.9740  143.6400 C   0  0  0  0  0  1  0  0  0  0  0  0
  178.9430  178.4430  143.1380 C   0  0  0  0  0  2  0  0  0  0  0  0
  178.9320  178.4720  144.5320 O   0  0  0  0  0  1  0  0  0  0  0  0
  1 28  1  0  0  0  0
  5 27  1  0  0  0  0
  7 13  1  0  0  0  0
  7  6  1  0  0  0  0
  8  9  1  6  0  0  0
  8 22  1  0  0  0  0
 11 26  1  0  0  0  0
 12  5  1  0  0  0  0
 12 11  1  0  0  0  0
 13  9  1  0  0  0  0
 15  6  1  6  0  0  0
 15  8  1  0  0  0  0
 15 29  1  0  0  0  0
 16 34  1  0  0  0  0
 17 20  1  1  0  0  0
 17  1  1  0  0  0  0
 18 16  2  0  0  0  0
 18 28  1  0  0  0  0
 19 22  1  6  0  0  0
 19 32  1  0  0  0  0
 21  2  1  0  0  0  0
 23  2  1  0  0  0  0
 23 24  1  0  0  0  0
 24  3  1  6  0  0  0
 24 29  1  0  0  0  0
 25 14  1  0  0  0  0
 26  4  1  0  0  0  0
 26 42  1  1  0  0  0
 27 21  1  6  0  0  0
 27 31  1  0  0  0  0
 27  4  1  0  0  0  0
 28 25  2  0  0  0  0
 29 10  1  6  0  0  0
 30 10  1  1  0  0  0
 30 19  1  0  0  0  0
 30 17  1  0  0  0  0
 31 33  1  0  0  0  0
 32 20  1  0  0  0  0
 33 16  1  0  0  0  0
 34 14  2  0  0  0  0
 35 36  1  0  0  0  0
 35 32  1  0  0  0  0
 38 40  1  0  0  0  0
 38 41  1  0  0  0  0
 39 37  1  0  0  0  0
 39 36  1  1  0  0  0
 40 39  1  0  0  0  0
 41 37  1  0  0  0  0
 42 46  1  6  0  0  0
 42 43  1  0  0  0  0
 42 48  1  0  0  0  0
 43 45  1  0  0  0  0
 44 43  1  0  0  0  0
 47 46  1  0  0  0  0
 49 52  2  0  0  0  0
 50 48  1  6  0  0  0
 50 52  1  0  0  0  0
 50 51  1  0  0  0  0
 51 54  1  0  0  0  0
 51 53  1  1  0  0  0
 52 51  1  0  0  0  0
 54 55  1  0  0  0  0
M  END
>  <MODEL>
1

>  <REMARK>
 VINA RESULT:      -2.6      0.000      0.000
  Name = 
  9 active torsions:
  status: ('A' for Active; 'I' for Inactive)
    1  A    between atoms: C_1  and  C_53
    2  A    between atoms: C_6  and  C_53
    3  A    between atoms: C_11  and  C_29
    4  A    between atoms: C_12  and  O_14
    5  A    between atoms: C_13  and  C_48
    6  A    between atoms: C_13  and  N_52
    7  A    between atoms: O_14  and  C_53
    8  A    between atoms: C_32  and  C_48
    9  A    between atoms: C_42  and  C_53
                            x       y       z     vdW  Elec       q    Type
                         _______ _______ _______ _____ _____    ______ ____

>  <TORSDO>
F 9

$$$$
=
 OpenBabel11052414513D

 55 62  0  0  1  0  0  0  0  0999 V2000
  188.0960  177.6560  141.7900 O   0  0  0  0  0  0  0  0  0  0  0  0
  184.4240  176.4410  137.4050 O   0  0  0  0  0  0  0  0  0  0  0  0
  186.6500  174.3010  137.3160 C   0  0  0  0  0  1  0  0  0  0  0  0
  182.4610  177.7910  138.9120 C   0  0  0  0  0  2  0  0  0  0  0  0
  182.3420  179.5380  137.1020 C   0  0  0  0  0  2  0  0  0  0  0  0
  188.4830  177.3280  135.7190 S   0  0  0  0  0  0  0  0  0  0  0  0
  189.9250  177.0840  134.6020 C   0  0  0  0  0  2  0  0  0  0  0  0
  190.4540  176.5640  137.4830 C   0  0  1  0  0  3  0  0  0  0  0  0
  191.4810  176.2310  136.3960 C   0  0  0  0  0  2  0  0  0  0  0  0
  187.9770  177.3890  139.0170 O   0  0  0  0  0  0  0  0  0  0  0  0
  180.3580  178.4500  137.9150 O   0  0  0  0  0  0  0  0  0  0  0  0
  181.0000  178.8940  136.7460 C   0  0  0  0  0  2  0  0  0  0  0  0
  190.8530  175.9480  135.0310 C   0  0  0  0  0  2  0  0  0  0  0  0
  184.5020  177.5530  142.6420 C   0  0  0  0  0  3  0  0  0  0  0  0
  189.0130  176.2130  137.0720 C   0  0  1  0  0  3  0  0  0  0  0  0
  184.8110  179.0990  140.8030 C   0  0  0  0  0  0  0  0  0  0  0  0
  189.0720  178.3320  140.9960 C   0  0  1  0  0  3  0  0  0  0  0  0
  186.1900  178.8590  140.8400 C   0  0  0  0  0  3  0  0  0  0  0  0
  190.1700  176.5260  139.9200 C   0  0  2  0  0  3  0  0  0  0  0  0
  190.4330  178.0920  141.6380 C   0  0  0  0  0  2  0  0  0  0  0  0
  183.7760  177.5210  136.7830 C   0  0  0  0  0  2  0  0  0  0  0  0
  190.8430  175.9270  138.7440 N   0  0  0  0  0  2  0  0  0  0  0  0
  185.7830  176.6450  137.1630 C   0  0  0  0  0  2  0  0  0  0  0  0
  186.6160  175.6670  137.9790 C   0  0  2  0  0  3  0  0  0  0  0  0
  185.8780  177.2980  142.6600 C   0  0  0  0  0  3  0  0  0  0  0  0
  181.0900  177.3410  138.3790 C   0  0  2  0  0  3  0  0  0  0  0  0
  183.2500  178.5290  137.8150 C   0  0  2  0  0  0  0  0  0  0  0  0
  186.7280  177.9470  141.7600 C   0  0  0  0  0  0  0  0  0  0  0  0
  188.0310  176.1880  138.2740 C   0  0  2  0  0  3  0  0  0  0  0  0
  189.2220  177.6930  139.6310 C   0  0  1  0  0  3  0  0  0  0  0  0
  184.4570  179.2910  138.3760 C   0  0  0  0  0  2  0  0  0  0  0  0
  191.1050  176.9780  140.9620 N   0  0  0  0  0  0  0  0  0  0  0  0
  184.2340  179.9610  139.7300 C   0  0  0  0  0  2  0  0  0  0  0  0
  183.9690  178.4490  141.7100 C   0  0  0  0  0  3  0  0  0  0  0  0
  192.3190  177.5490  140.3780 C   0  0  0  0  0  2  0  0  0  0  0  0
  193.5610  176.8370  140.9100 C   0  0  0  0  0  2  0  0  0  0  0  0
  195.5910  175.4420  140.3260 C   0  0  0  0  0  2  0  0  0  0  0  0
  194.8460  175.1610  137.8720 C   0  0  0  0  0  2  0  0  0  0  0  0
  194.5260  176.3850  139.8100 C   0  0  1  0  0  3  0  0  0  0  0  0
  193.8180  175.7460  138.7150 N   0  0  0  0  0  2  0  0  0  0  0  0
  196.1350  174.4310  138.9240 S   0  0  0  0  0  0  0  0  0  0  0  0
  180.2600  176.4890  139.3880 C   0  0  2  0  0  0  0  0  0  0  0  0
  179.1790  177.3400  140.0920 C   0  0  0  0  0  3  0  0  0  0  0  0
  179.4570  178.7060  140.0000 O   0  0  0  0  0  1  0  0  0  0  0  0
  179.0050  176.9840  141.4300 O   0  0  0  0  0  1  0  0  0  0  0  0
  181.1460  175.9150  140.5160 C   0  0  0  0  0  2  0  0  0  0  0  0
  180.7300  174.6420  140.9200 O   0  0  0  0  0  1  0  0  0  0  0  0
  179.5630  175.4470  138.7170 O   0  0  0  0  0  0  0  0  0  0  0  0
  182.2630  173.8550  137.5970 O   0  0  0  0  0  0  0  0  0  0  0  0
  180.0220  175.3000  137.3900 C   0  0  2  0  0  3  0  0  0  0  0  0
  179.7180  174.0130  136.8350 C   0  0  2  0  0  0  0  0  0  0  0  0
  181.1280  174.2340  137.3640 C   0  0  0  0  0  0  0  0  0  0  0  0
  179.6830  173.9230  135.3230 C   0  0  0  0  0  1  0  0  0  0  0  0
  178.9310  172.9890  137.6450 C   0  0  0  0  0  2  0  0  0  0  0  0
  179.2350  171.7020  137.1990 O   0  0  0  0  0  1  0  0  0  0  0  0
  5 27  1  0  0  0  0
  7 13  1  0  0  0  0
  7  6  1  0  0  0  0
  8  9  1  6  0  0  0
  8 22  1  0  0  0  0
 11 26  1  0  0  0  0
 12  5  1  0  0  0  0
 12 11  1  0  0  0  0
 13  9  1  0  0  0  0
 14 25  1  0  0  0  0
 15  6  1  6  0  0  0
 15  8  1  0  0  0  0
 15 29  1  0  0  0  0
 16 18  2  0  0  0  0
 16 34  1  0  0  0  0
 17 20  1  1  0  0  0
 17  1  1  0  0  0  0
 18 28  1  0  0  0  0
 19 22  1  6  0  0  0
 19 32  1  0  0  0  0
 21  2  1  0  0  0  0
 23  2  1  0  0  0  0
 23 24  1  0  0  0  0
 24  3  1  6  0  0  0
 24 29  1  0  0  0  0
 26  4  1  0  0  0  0
 26 42  1  1  0  0  0
 27 21  1  6  0  0  0
 27 31  1  0  0  0  0
 27  4  1  0  0  0  0
 28  1  1  0  0  0  0
 28 25  2  0  0  0  0
 29 10  1  6  0  0  0
 30 10  1  1  0  0  0
 30 19  1  0  0  0  0
 30 17  1  0  0  0  0
 31 33  1  0  0  0  0
 32 20  1  0  0  0  0
 33 16  1  0  0  0  0
 34 14  2  0  0  0  0
 35 36  1  0  0  0  0
 35 32  1  0  0  0  0
 38 40  1  0  0  0  0
 38 41  1  0  0  0  0
 39 37  1  0  0  0  0
 39 36  1  1  0  0  0
 40 39  1  0  0  0  0
 41 37  1  0  0  0  0
 42 43  1  0  0  0  0
 42 46  1  1  0  0  0
 43 45  1  0  0  0  0
 44 43  1  0  0  0  0
 46 47  1  0  0  0  0
 48 42  1  0  0  0  0
 50 48  1  1  0  0  0
 51 53  1  6  0  0  0
 51 52  1  0  0  0  0
 51 50  1  0  0  0  0
 51 54  1  0  0  0  0
 52 50  1  0  0  0  0
 52 49  2  0  0  0  0
 55 54  1  0  0  0  0
M  END
>  <MODEL>
2

>  <REMARK>
 VINA RESULT:      -1.5      1.192      3.058
  Name = 
  9 active torsions:
  status: ('A' for Active; 'I' for Inactive)
    1  A    between atoms: C_1  and  C_53
    2  A    between atoms: C_6  and  C_53
    3  A    between atoms: C_11  and  C_29
    4  A    between atoms: C_12  and  O_14
    5  A    between atoms: C_13  and  C_48
    6  A    between atoms: C_13  and  N_52
    7  A    between atoms: O_14  and  C_53
    8  A    between atoms: C_32  and  C_48
    9  A    between atoms: C_42  and  C_53
                            x       y       z     vdW  Elec       q    Type
                         _______ _______ _______ _____ _____    ______ ____

>  <TORSDO>
F 9

$$$$
=
 OpenBabel11052414513D

 55 62  0  0  1  0  0  0  0  0999 V2000
  185.2020  178.0720  140.0710 O   0  0  0  0  0  0  0  0  0  0  0  0
  190.5100  175.8420  141.0910 O   0  0  0  0  0  0  0  0  0  0  0  0
  188.6300  174.6800  143.2490 C   0  0  0  0  0  1  0  0  0  0  0  0
  191.0260  176.2870  138.3560 C   0  0  0  0  0  2  0  0  0  0  0  0
  192.7850  177.9670  139.0110 C   0  0  0  0  0  2  0  0  0  0  0  0
  189.2220  178.2540  144.6460 S   0  0  0  0  0  0  0  0  0  0  0  0
  189.0130  178.6210  146.4360 C   0  0  0  0  0  2  0  0  0  0  0  0
  186.4850  178.1700  144.9340 C   0  0  1  0  0  3  0  0  0  0  0  0
  186.5110  178.3000  146.4600 C   0  0  0  0  0  2  0  0  0  0  0  0
  187.2090  177.9380  142.0030 O   0  0  0  0  0  0  0  0  0  0  0  0
  193.2780  176.1820  137.4790 O   0  0  0  0  0  0  0  0  0  0  0  0
  193.7870  176.8960  138.5770 C   0  0  0  0  0  2  0  0  0  0  0  0
  187.8430  177.8840  147.0850 C   0  0  0  0  0  2  0  0  0  0  0  0
  186.9500  176.6060  137.1650 C   0  0  0  0  0  3  0  0  0  0  0  0
  187.6570  177.3370  144.3850 C   0  0  1  0  0  3  0  0  0  0  0  0
  188.4020  178.2590  138.1810 C   0  0  0  0  0  0  0  0  0  0  0  0
  185.2720  179.1040  141.0560 C   0  0  1  0  0  3  0  0  0  0  0  0
  187.4090  178.5410  139.1260 C   0  0  0  0  0  3  0  0  0  0  0  0
  184.9200  177.8920  143.0650 C   0  0  2  0  0  3  0  0  0  0  0  0
  183.8580  179.3460  141.5700 C   0  0  0  0  0  2  0  0  0  0  0  0
  191.6210  176.6400  140.7760 C   0  0  0  0  0  2  0  0  0  0  0  0
  185.1850  177.6510  144.5020 N   0  0  0  0  0  2  0  0  0  0  0  0
  189.8270  176.5450  142.0840 C   0  0  0  0  0  2  0  0  0  0  0  0
  188.4760  175.8970  142.3550 C   0  0  2  0  0  3  0  0  0  0  0  0
  185.9700  176.8750  138.1270 C   0  0  0  0  0  3  0  0  0  0  0  0
  192.2180  175.3950  137.9680 C   0  0  2  0  0  3  0  0  0  0  0  0
  191.4510  177.3250  139.4120 C   0  0  2  0  0  0  0  0  0  0  0  0
  186.1930  177.8410  139.1120 C   0  0  0  0  0  0  0  0  0  0  0  0
  187.4420  176.8840  142.9160 C   0  0  2  0  0  3  0  0  0  0  0  0
  186.0100  178.6440  142.2960 C   0  0  1  0  0  3  0  0  0  0  0  0
  190.4170  178.4440  139.5800 C   0  0  0  0  0  2  0  0  0  0  0  0
  183.6530  178.5980  142.8140 N   0  0  0  0  0  0  0  0  0  0  0  0
  189.7410  178.9070  138.2910 C   0  0  0  0  0  2  0  0  0  0  0  0
  188.1670  177.2940  137.1960 C   0  0  0  0  0  3  0  0  0  0  0  0
  183.3920  179.6070  143.8410 C   0  0  0  0  0  2  0  0  0  0  0  0
  182.2120  179.1930  144.7190 C   0  0  0  0  0  2  0  0  0  0  0  0
  180.5650  180.2380  143.1060 C   0  0  0  0  0  2  0  0  0  0  0  0
  179.7610  177.9430  142.2460 C   0  0  0  0  0  2  0  0  0  0  0  0
  180.9030  179.0240  143.9440 C   0  0  1  0  0  3  0  0  0  0  0  0
  180.9420  177.8530  143.0870 N   0  0  0  0  0  2  0  0  0  0  0  0
  179.5210  179.6700  141.7390 S   0  0  0  0  0  0  0  0  0  0  0  0
  191.8590  174.2420  136.9810 C   0  0  2  0  0  0  0  0  0  0  0  0
  192.0290  174.6830  135.5090 C   0  0  0  0  0  3  0  0  0  0  0  0
  191.0220  175.5670  135.1160 O   0  0  0  0  0  1  0  0  0  0  0  0
  192.0770  173.6010  134.6290 O   0  0  0  0  0  1  0  0  0  0  0  0
  190.3830  173.8070  137.1230 C   0  0  0  0  0  2  0  0  0  0  0  0
  190.0810  172.6920  136.3330 O   0  0  0  0  0  1  0  0  0  0  0  0
  192.7290  173.1320  137.1620 O   0  0  0  0  0  0  0  0  0  0  0  0
  195.4310  173.0040  139.0990 O   0  0  0  0  0  0  0  0  0  0  0  0
  194.0620  173.4730  136.8500 C   0  0  2  0  0  3  0  0  0  0  0  0
  194.8830  172.3280  136.5850 C   0  0  2  0  0  0  0  0  0  0  0  0
  194.9800  172.9550  137.9680 C   0  0  0  0  0  0  0  0  0  0  0  0
  196.1300  172.5690  135.7590 C   0  0  0  0  0  1  0  0  0  0  0  0
  194.2830  170.9260  136.6060 C   0  0  0  0  0  2  0  0  0  0  0  0
  195.2040  170.0280  137.1460 O   0  0  0  0  0  1  0  0  0  0  0  0
  1 17  1  0  0  0  0
  2 23  1  0  0  0  0
  5 27  1  0  0  0  0
  6  7  1  0  0  0  0
  7 13  1  0  0  0  0
  8  9  1  1  0  0  0
  9 13  1  0  0  0  0
 11 26  1  0  0  0  0
 11 12  1  0  0  0  0
 12  5  1  0  0  0  0
 14 34  2  0  0  0  0
 14 25  1  0  0  0  0
 15  6  1  6  0  0  0
 15  8  1  0  0  0  0
 16 33  1  0  0  0  0
 16 18  2  0  0  0  0
 17 20  1  1  0  0  0
 17 30  1  0  0  0  0
 19 22  1  1  0  0  0
 20 32  1  0  0  0  0
 21  2  1  0  0  0  0
 22  8  1  0  0  0  0
 23 24  1  0  0  0  0
 24 29  1  0  0  0  0
 24  3  1  1  0  0  0
 25 28  2  0  0  0  0
 26 42  1  6  0  0  0
 26  4  1  0  0  0  0
 27  4  1  6  0  0  0
 27 31  1  0  0  0  0
 27 21  1  0  0  0  0
 28 18  1  0  0  0  0
 28  1  1  0  0  0  0
 29 10  1  6  0  0  0
 29 15  1  0  0  0  0
 30 10  1  6  0  0  0
 30 19  1  0  0  0  0
 32 19  1  0  0  0  0
 32 35  1  0  0  0  0
 33 31  1  0  0  0  0
 34 16  1  0  0  0  0
 35 36  1  0  0  0  0
 37 39  1  0  0  0  0
 38 40  1  0  0  0  0
 39 36  1  6  0  0  0
 40 39  1  0  0  0  0
 41 38  1  0  0  0  0
 41 37  1  0  0  0  0
 42 46  1  1  0  0  0
 42 48  1  0  0  0  0
 43 42  1  0  0  0  0
 44 43  1  0  0  0  0
 45 43  1  0  0  0  0
 47 46  1  0  0  0  0
 50 48  1  1  0  0  0
 50 52  1  0  0  0  0
 51 53  1  6  0  0  0
 51 54  1  0  0  0  0
 51 50  1  0  0  0  0
 51 52  1  0  0  0  0
 52 49  2  0  0  0  0
 54 55  1  0  0  0  0
M  END
>  <MODEL>
3

>  <REMARK>
 VINA RESULT:      -0.3      4.326     11.062
  Name = 
  9 active torsions:
  status: ('A' for Active; 'I' for Inactive)
    1  A    between atoms: C_1  and  C_53
    2  A    between atoms: C_6  and  C_53
    3  A    between atoms: C_11  and  C_29
    4  A    between atoms: C_12  and  O_14
    5  A    between atoms: C_13  and  C_48
    6  A    between atoms: C_13  and  N_52
    7  A    between atoms: O_14  and  C_53
    8  A    between atoms: C_32  and  C_48
    9  A    between atoms: C_42  and  C_53
                            x       y       z     vdW  Elec       q    Type
                         _______ _______ _______ _____ _____    ______ ____

>  <TORSDO>
F 9

$$$$
=
 OpenBabel11052414513D

 55 62  0  0  1  0  0  0  0  0999 V2000
  188.6770  177.7430  138.4400 O   0  0  0  0  0  0  0  0  0  0  0  0
  183.2460  178.6920  140.3880 O   0  0  0  0  0  0  0  0  0  0  0  0
  185.1190  180.4730  142.0800 C   0  0  0  0  0  1  0  0  0  0  0  0
  182.3790  177.8830  137.8310 C   0  0  0  0  0  2  0  0  0  0  0  0
  181.2610  175.8920  138.8930 C   0  0  0  0  0  2  0  0  0  0  0  0
  185.7290  177.0080  143.7210 S   0  0  0  0  0  0  0  0  0  0  0  0
  186.3440  176.8700  145.4490 C   0  0  0  0  0  2  0  0  0  0  0  0
  188.3580  177.7850  143.4600 C   0  0  1  0  0  3  0  0  0  0  0  0
  188.6420  177.7940  144.9650 C   0  0  0  0  0  2  0  0  0  0  0  0
  187.0840  177.5610  140.7220 O   0  0  0  0  0  0  0  0  0  0  0  0
  180.0560  177.3530  137.4120 O   0  0  0  0  0  0  0  0  0  0  0  0
  179.9550  176.6410  138.6190 C   0  0  0  0  0  2  0  0  0  0  0  0
  187.3820  177.9280  145.8210 C   0  0  0  0  0  2  0  0  0  0  0  0
  186.1170  178.4620  135.8740 C   0  0  0  0  0  3  0  0  0  0  0  0
  186.9320  178.2510  143.1170 C   0  0  1  0  0  3  0  0  0  0  0  0
  185.3480  176.6060  137.2280 C   0  0  0  0  0  0  0  0  0  0  0  0
  189.0530  176.8210  139.4630 C   0  0  1  0  0  3  0  0  0  0  0  0
  186.5330  176.6630  137.9700 C   0  0  0  0  0  3  0  0  0  0  0  0
  189.4370  178.2630  141.3080 C   0  0  2  0  0  3  0  0  0  0  0  0
  190.5510  176.9810  139.6980 C   0  0  0  0  0  2  0  0  0  0  0  0
  182.3410  177.6210  140.3330 C   0  0  0  0  0  2  0  0  0  0  0  0
  189.3810  178.5640  142.7570 N   0  0  0  0  0  2  0  0  0  0  0  0
  184.2540  178.2720  141.2570 C   0  0  0  0  0  2  0  0  0  0  0  0
  185.4190  179.2530  141.2270 C   0  0  2  0  0  3  0  0  0  0  0  0
  187.2890  178.5310  136.6340 C   0  0  0  0  0  3  0  0  0  0  0  0
  180.9480  178.4170  137.6470 C   0  0  2  0  0  3  0  0  0  0  0  0
  182.4330  176.8750  138.9940 C   0  0  2  0  0  0  0  0  0  0  0  0
  187.5040  177.6350  137.6850 C   0  0  0  0  0  0  0  0  0  0  0  0
  186.7560  178.6050  141.6160 C   0  0  2  0  0  3  0  0  0  0  0  0
  188.4570  177.2000  140.8030 C   0  0  1  0  0  3  0  0  0  0  0  0
  183.7340  176.0630  139.0040 C   0  0  0  0  0  2  0  0  0  0  0  0
  190.7760  177.8690  140.8430 N   0  0  0  0  0  0  0  0  0  0  0  0
  184.2630  175.6620  137.6280 C   0  0  0  0  0  2  0  0  0  0  0  0
  185.1450  177.5030  136.1740 C   0  0  0  0  0  3  0  0  0  0  0  0
  191.4680  177.0540  141.8410 C   0  0  0  0  0  2  0  0  0  0  0  0
  191.6410  177.8280  143.1470 C   0  0  0  0  0  2  0  0  0  0  0  0
  191.6930  177.4830  145.6540 C   0  0  0  0  0  2  0  0  0  0  0  0
  192.0650  174.9410  145.4200 C   0  0  0  0  0  2  0  0  0  0  0  0
  192.1500  176.9680  144.3060 C   0  0  1  0  0  3  0  0  0  0  0  0
  191.7320  175.5850  144.1620 N   0  0  0  0  0  2  0  0  0  0  0  0
  191.6760  176.0710  146.7880 S   0  0  0  0  0  0  0  0  0  0  0  0
  180.8140  179.5260  136.5590 C   0  0  2  0  0  0  0  0  0  0  0  0
  179.3580  179.6550  136.0570 C   0  0  0  0  0  3  0  0  0  0  0  0
  178.9310  178.4930  135.4110 O   0  0  0  0  0  1  0  0  0  0  0  0
  179.1770  180.7550  135.2180 O   0  0  0  0  0  1  0  0  0  0  0  0
  181.6640  179.2050  135.3080 C   0  0  0  0  0  2  0  0  0  0  0  0
  181.8430  177.8290  135.1280 O   0  0  0  0  0  1  0  0  0  0  0  0
  181.1620  180.7990  137.0880 O   0  0  0  0  0  0  0  0  0  0  0  0
  179.4970  181.5160  139.8790 O   0  0  0  0  0  0  0  0  0  0  0  0
  180.0190  181.6090  137.2570 C   0  0  2  0  0  3  0  0  0  0  0  0
  180.3310  182.9110  137.7720 C   0  0  2  0  0  0  0  0  0  0  0  0
  179.8160  181.8720  138.7580 C   0  0  0  0  0  0  0  0  0  0  0  0
  179.3120  184.0020  137.5090 C   0  0  0  0  0  1  0  0  0  0  0  0
  181.7790  183.3130  138.0300 C   0  0  0  0  0  2  0  0  0  0  0  0
  182.1610  184.3030  137.1250 O   0  0  0  0  0  1  0  0  0  0  0  0
  1 17  1  0  0  0  0
  2 23  1  0  0  0  0
  5 27  1  0  0  0  0
  6  7  1  0  0  0  0
  7 13  1  0  0  0  0
  8  9  1  1  0  0  0
  9 13  1  0  0  0  0
 11 26  1  0  0  0  0
 11 12  1  0  0  0  0
 12  5  1  0  0  0  0
 14 34  2  0  0  0  0
 14 25  1  0  0  0  0
 15  8  1  0  0  0  0
 15  6  1  6  0  0  0
 16 33  1  0  0  0  0
 16 18  2  0  0  0  0
 17 20  1  1  0  0  0
 17 30  1  0  0  0  0
 19 22  1  1  0  0  0
 20 32  1  0  0  0  0
 21  2  1  0  0  0  0
 22  8  1  0  0  0  0
 24 23  1  0  0  0  0
 24 29  1  0  0  0  0
 24  3  1  1  0  0  0
 25 28  2  0  0  0  0
 26 42  1  6  0  0  0
 26  4  1  0  0  0  0
 27  4  1  6  0  0  0
 27 31  1  0  0  0  0
 27 21  1  0  0  0  0
 28 18  1  0  0  0  0
 28  1  1  0  0  0  0
 29 10  1  6  0  0  0
 29 15  1  0  0  0  0
 30 10  1  6  0  0  0
 30 19  1  0  0  0  0
 32 19  1  0  0  0  0
 32 35  1  0  0  0  0
 33 31  1  0  0  0  0
 34 16  1  0  0  0  0
 35 36  1  0  0  0  0
 37 41  1  0  0  0  0
 38 41  1  0  0  0  0
 39 36  1  6  0  0  0
 39 37  1  0  0  0  0
 40 39  1  0  0  0  0
 40 38  1  0  0  0  0
 42 46  1  6  0  0  0
 42 48  1  0  0  0  0
 43 42  1  0  0  0  0
 44 43  1  0  0  0  0
 45 43  1  0  0  0  0
 47 46  1  0  0  0  0
 50 48  1  1  0  0  0
 50 51  1  0  0  0  0
 50 52  1  0  0  0  0
 51 53  1  6  0  0  0
 51 54  1  0  0  0  0
 51 52  1  0  0  0  0
 52 49  2  0  0  0  0
 55 54  1  0  0  0  0
M  END
>  <MODEL>
4

>  <REMARK>
 VINA RESULT:       0.1      3.058      5.708
  Name = 
  9 active torsions:
  status: ('A' for Active; 'I' for Inactive)
    1  A    between atoms: C_1  and  C_53
    2  A    between atoms: C_6  and  C_53
    3  A    between atoms: C_11  and  C_29
    4  A    between atoms: C_12  and  O_14
    5  A    between atoms: C_13  and  C_48
    6  A    between atoms: C_13  and  N_52
    7  A    between atoms: O_14  and  C_53
    8  A    between atoms: C_32  and  C_48
    9  A    between atoms: C_42  and  C_53
                            x       y       z     vdW  Elec       q    Type
                         _______ _______ _______ _____ _____    ______ ____

>  <TORSDO>
F 9

$$$$
