=
 OpenBabel11052413383D

 28 30  0  0  1  0  0  0  0  0999 V2000
  190.7610  177.9370  142.9670 C   0  0  0  0  0  2  0  0  0  0  0  0
  191.8020  177.9870  144.0910 C   0  0  0  0  0  2  0  0  0  0  0  0
  191.3780  177.2830  145.3950 C   0  0  1  0  0  3  0  0  0  0  0  0
  189.0950  178.6010  145.2310 C   0  0  0  0  0  2  0  0  0  0  0  0
  188.2650  177.8100  144.2010 C   0  0  1  0  0  3  0  0  0  0  0  0
  190.1120  177.8400  146.0920 C   0  0  1  0  0  3  0  0  0  0  0  0
  188.8580  176.5100  143.5820 C   0  0  1  0  0  3  0  0  0  0  0  0
  188.8960  176.5210  142.0990 C   0  0  2  0  0  3  0  0  0  0  0  0
  190.1670  176.6000  142.8680 N   0  0  1  0  0  0  0  0  0  0  0  0
  189.0140  177.5810  148.2010 O   0  0  0  0  0  1  0  0  0  0  0  0
  189.4610  176.8810  147.0800 C   0  0  0  0  0  2  0  0  0  0  0  0
  192.2600  175.3950  146.1580 C   0  0  0  0  0  1  0  0  0  0  0  0
  191.3360  175.8930  145.2370 O   0  0  0  0  0  0  0  0  0  0  0  0
  186.7840  177.7050  144.5880 C   0  0  1  0  0  3  0  0  0  0  0  0
  185.9230  177.0620  146.5250 C   0  0  0  0  0  1  0  0  0  0  0  0
  186.5850  178.1240  145.9080 O   0  0  0  0  0  0  0  0  0  0  0  0
  185.8580  178.4380  143.6600 C   0  0  0  0  0  0  0  0  0  0  0  0
  185.6600  177.9290  142.4360 C   0  0  0  0  0  3  0  0  0  0  0  0
  184.7870  178.5800  141.4100 C   0  0  0  0  0  2  0  0  0  0  0  0
  185.5540  179.4330  140.6210 O   0  0  0  0  0  1  0  0  0  0  0  0
  185.2100  179.7220  144.1010 C   0  0  0  0  0  2  0  0  0  0  0  0
  183.7170  179.5260  144.2940 C   0  0  0  0  0  2  0  0  0  0  0  0
  183.4660  179.1500  145.6120 O   0  0  0  0  0  1  0  0  0  0  0  0
  188.4900  177.8270  141.3970 C   0  0  0  0  0  2  0  0  0  0  0  0
  188.2970  177.5860  140.0370 O   0  0  0  0  0  0  0  0  0  0  0  0
  189.3110  178.3040  139.4040 C   0  0  0  0  0  3  0  0  0  0  0  0
  189.0530  178.3190  137.9110 C   0  0  0  0  0  2  0  0  0  0  0  0
  190.0820  177.3730  138.4910 C   0  0  0  0  0  2  0  0  0  0  0  0
  1  2  1  0  0  0  0
  2  3  1  0  0  0  0
  3 13  1  6  0  0  0
  3  6  1  0  0  0  0
  4  6  1  0  0  0  0
  5 14  1  1  0  0  0
  5  4  1  0  0  0  0
  6 11  1  6  0  0  0
  7  5  1  0  0  0  0
  8  9  1  0  0  0  0
  8  7  1  0  0  0  0
  9  1  1  0  0  0  0
  9  7  1  0  0  0  0
 11 10  1  0  0  0  0
 13 12  1  0  0  0  0
 14 16  1  0  0  0  0
 16 15  1  0  0  0  0
 17 21  1  0  0  0  0
 17 14  1  0  0  0  0
 18 17  2  0  0  0  0
 19 18  1  0  0  0  0
 20 19  1  0  0  0  0
 21 22  1  0  0  0  0
 22 23  1  0  0  0  0
 24  8  1  0  0  0  0
 25 24  1  0  0  0  0
 26 25  1  0  0  0  0
 27 28  1  0  0  0  0
 27 26  1  0  0  0  0
 28 26  1  0  0  0  0
M  END
>  <MODEL>
1

>  <REMARK>
 VINA RESULT:      -5.9      0.000      0.000
  Name = 
  11 active torsions:
  status: ('A' for Active; 'I' for Inactive)
    1  A    between atoms: C_3  and  O_28
    2  A    between atoms: C_5  and  O_21
    3  A    between atoms: C_9  and  C_13
    4  A    between atoms: C_9  and  C_14
    5  A    between atoms: C_10  and  C_13
    6  A    between atoms: C_11  and  C_22
    7  A    between atoms: C_12  and  C_15
    8  A    between atoms: C_13  and  O_24
    9  A    between atoms: C_14  and  C_18
   10  A    between atoms: C_16  and  C_20
   11  A    between atoms: C_16  and  O_21
                            x       y       z     vdW  Elec       q    Type
                         _______ _______ _______ _____ _____    ______ ____

>  <TORSDO>
F 11

$$$$
=
 OpenBabel11052413383D

 28 30  0  0  1  0  0  0  0  0999 V2000
  187.5430  178.5310  142.4590 C   0  0  0  0  0  2  0  0  0  0  0  0
  188.2010  179.0290  141.1670 C   0  0  0  0  0  2  0  0  0  0  0  0
  189.4120  178.1980  140.6970 C   0  0  1  0  0  3  0  0  0  0  0  0
  190.3380  178.3610  143.1650 C   0  0  0  0  0  2  0  0  0  0  0  0
  189.5490  177.2920  143.9460 C   0  0  1  0  0  3  0  0  0  0  0  0
  190.6120  178.1240  141.6730 C   0  0  1  0  0  3  0  0  0  0  0  0
  188.5220  176.3990  143.1890 C   0  0  1  0  0  3  0  0  0  0  0  0
  187.1570  176.4400  143.7680 C   0  0  2  0  0  3  0  0  0  0  0  0
  187.4140  177.0700  142.4460 N   0  0  1  0  0  0  0  0  0  0  0  0
  192.4200  177.2780  140.3560 O   0  0  0  0  0  1  0  0  0  0  0  0
  191.5660  176.9660  141.4150 C   0  0  0  0  0  2  0  0  0  0  0  0
  188.6090  177.1450  138.9160 C   0  0  0  0  0  1  0  0  0  0  0  0
  189.0170  176.9360  140.2350 O   0  0  0  0  0  0  0  0  0  0  0  0
  190.4190  176.5340  144.9580 C   0  0  1  0  0  3  0  0  0  0  0  0
  191.9650  175.1610  144.1650 C   0  0  0  0  0  1  0  0  0  0  0  0
  191.7500  176.4890  144.5320 O   0  0  0  0  0  0  0  0  0  0  0  0
  190.3330  177.0710  146.3580 C   0  0  0  0  0  0  0  0  0  0  0  0
  189.1680  177.5950  146.7620 C   0  0  0  0  0  3  0  0  0  0  0  0
  188.9630  178.1880  148.1190 C   0  0  0  0  0  2  0  0  0  0  0  0
  187.9100  177.5370  148.7560 O   0  0  0  0  0  1  0  0  0  0  0  0
  191.5420  177.0410  147.2520 C   0  0  0  0  0  2  0  0  0  0  0  0
  191.8330  175.6220  147.7070 C   0  0  0  0  0  2  0  0  0  0  0  0
  193.2020  175.4760  147.9210 O   0  0  0  0  0  1  0  0  0  0  0  0
  186.9120  177.4350  144.9150 C   0  0  0  0  0  2  0  0  0  0  0  0
  185.5540  177.4570  145.2320 O   0  0  0  0  0  0  0  0  0  0  0  0
  185.2210  178.8100  145.2620 C   0  0  0  0  0  3  0  0  0  0  0  0
  183.7130  178.9510  145.2860 C   0  0  0  0  0  2  0  0  0  0  0  0
  184.4710  179.1640  143.9940 C   0  0  0  0  0  2  0  0  0  0  0  0
  2  1  1  0  0  0  0
  3 13  1  1  0  0  0
  3  2  1  0  0  0  0
  3  6  1  0  0  0  0
  4  5  1  0  0  0  0
  5 14  1  6  0  0  0
  6 11  1  1  0  0  0
  6  4  1  0  0  0  0
  7  8  1  0  0  0  0
  7  5  1  0  0  0  0
  8 24  1  0  0  0  0
  9  1  1  0  0  0  0
  9  7  1  0  0  0  0
  9  8  1  0  0  0  0
 10 11  1  0  0  0  0
 12 13  1  0  0  0  0
 14 17  1  0  0  0  0
 15 16  1  0  0  0  0
 16 14  1  0  0  0  0
 17 18  2  0  0  0  0
 17 21  1  0  0  0  0
 18 19  1  0  0  0  0
 19 20  1  0  0  0  0
 21 22  1  0  0  0  0
 22 23  1  0  0  0  0
 24 25  1  0  0  0  0
 25 26  1  0  0  0  0
 26 27  1  0  0  0  0
 28 26  1  0  0  0  0
 28 27  1  0  0  0  0
M  END
>  <MODEL>
2

>  <REMARK>
 VINA RESULT:      -5.9      1.719      6.310
  Name = 
  11 active torsions:
  status: ('A' for Active; 'I' for Inactive)
    1  A    between atoms: C_3  and  O_28
    2  A    between atoms: C_5  and  O_21
    3  A    between atoms: C_9  and  C_13
    4  A    between atoms: C_9  and  C_14
    5  A    between atoms: C_10  and  C_13
    6  A    between atoms: C_11  and  C_22
    7  A    between atoms: C_12  and  C_15
    8  A    between atoms: C_13  and  O_24
    9  A    between atoms: C_14  and  C_18
   10  A    between atoms: C_16  and  C_20
   11  A    between atoms: C_16  and  O_21
                            x       y       z     vdW  Elec       q    Type
                         _______ _______ _______ _____ _____    ______ ____

>  <TORSDO>
F 11

$$$$
=
 OpenBabel11052413383D

 28 30  0  0  1  0  0  0  0  0999 V2000
  186.1620  178.9740  144.4490 C   0  0  0  0  0  2  0  0  0  0  0  0
  185.0890  179.7500  143.6780 C   0  0  0  0  0  2  0  0  0  0  0  0
  184.8140  179.2280  142.2530 C   0  0  1  0  0  3  0  0  0  0  0  0
  187.4260  179.2390  141.8660 C   0  0  0  0  0  2  0  0  0  0  0  0
  187.9240  177.9490  142.5470 C   0  0  1  0  0  3  0  0  0  0  0  0
  186.0110  179.2540  141.2710 C   0  0  1  0  0  3  0  0  0  0  0  0
  186.8900  176.9860  143.2010 C   0  0  1  0  0  3  0  0  0  0  0  0
  187.1680  176.6950  144.6290 C   0  0  2  0  0  3  0  0  0  0  0  0
  185.9920  177.5290  144.2650 N   0  0  1  0  0  0  0  0  0  0  0  0
  185.3400  179.0540  138.9840 O   0  0  0  0  0  1  0  0  0  0  0  0
  185.8590  178.3380  140.0640 C   0  0  0  0  0  2  0  0  0  0  0  0
  182.8270  178.2680  142.0100 C   0  0  0  0  0  1  0  0  0  0  0  0
  184.1680  177.9860  142.2790 O   0  0  0  0  0  0  0  0  0  0  0  0
  189.0250  177.2420  141.7450 C   0  0  1  0  0  3  0  0  0  0  0  0
  189.4730  176.8810  139.6070 C   0  0  0  0  0  1  0  0  0  0  0  0
  189.2580  177.9010  140.5340 O   0  0  0  0  0  0  0  0  0  0  0  0
  190.3100  177.0640  142.5020 C   0  0  0  0  0  0  0  0  0  0  0  0
  190.5090  175.9030  143.1430 C   0  0  0  0  0  3  0  0  0  0  0  0
  191.7320  175.6150  143.9540 C   0  0  0  0  0  2  0  0  0  0  0  0
  191.5620  176.1160  145.2430 O   0  0  0  0  0  1  0  0  0  0  0  0
  191.3150  178.1810  142.5530 C   0  0  0  0  0  2  0  0  0  0  0  0
  190.9910  179.1380  143.6860 C   0  0  0  0  0  2  0  0  0  0  0  0
  192.1420  179.3770  144.4350 O   0  0  0  0  0  1  0  0  0  0  0  0
  188.3220  177.4690  145.2900 C   0  0  0  0  0  2  0  0  0  0  0  0
  188.5540  176.9590  146.5670 O   0  0  0  0  0  0  0  0  0  0  0  0
  188.6670  178.0850  147.3810 C   0  0  0  0  0  3  0  0  0  0  0  0
  188.2400  177.7250  148.7900 C   0  0  0  0  0  2  0  0  0  0  0  0
  187.2900  178.4750  147.8800 C   0  0  0  0  0  2  0  0  0  0  0  0
  2  1  1  0  0  0  0
  3 13  1  1  0  0  0
  3  2  1  0  0  0  0
  4  5  1  0  0  0  0
  5 14  1  6  0  0  0
  5  7  1  0  0  0  0
  6 11  1  6  0  0  0
  6  4  1  0  0  0  0
  6  3  1  0  0  0  0
  7  9  1  0  0  0  0
  7  8  1  0  0  0  0
  8 24  1  0  0  0  0
  9  1  1  0  0  0  0
  9  8  1  0  0  0  0
 10 11  1  0  0  0  0
 12 13  1  0  0  0  0
 14 17  1  0  0  0  0
 15 16  1  0  0  0  0
 16 14  1  0  0  0  0
 17 21  1  0  0  0  0
 17 18  2  0  0  0  0
 18 19  1  0  0  0  0
 19 20  1  0  0  0  0
 21 22  1  0  0  0  0
 22 23  1  0  0  0  0
 24 25  1  0  0  0  0
 25 26  1  0  0  0  0
 26 28  1  0  0  0  0
 26 27  1  0  0  0  0
 28 27  1  0  0  0  0
M  END
>  <MODEL>
3

>  <REMARK>
 VINA RESULT:      -5.8      1.861      6.997
  Name = 
  11 active torsions:
  status: ('A' for Active; 'I' for Inactive)
    1  A    between atoms: C_3  and  O_28
    2  A    between atoms: C_5  and  O_21
    3  A    between atoms: C_9  and  C_13
    4  A    between atoms: C_9  and  C_14
    5  A    between atoms: C_10  and  C_13
    6  A    between atoms: C_11  and  C_22
    7  A    between atoms: C_12  and  C_15
    8  A    between atoms: C_13  and  O_24
    9  A    between atoms: C_14  and  C_18
   10  A    between atoms: C_16  and  C_20
   11  A    between atoms: C_16  and  O_21
                            x       y       z     vdW  Elec       q    Type
                         _______ _______ _______ _____ _____    ______ ____

>  <TORSDO>
F 11

$$$$
=
 OpenBabel11052413383D

 28 30  0  0  1  0  0  0  0  0999 V2000
  191.2310  176.3270  143.9900 C   0  0  0  0  0  2  0  0  0  0  0  0
  191.3780  175.7920  142.5620 C   0  0  0  0  0  2  0  0  0  0  0  0
  190.5470  176.5450  141.5020 C   0  0  1  0  0  3  0  0  0  0  0  0
  188.4760  176.3110  143.1240 C   0  0  0  0  0  2  0  0  0  0  0  0
  188.6750  177.4250  144.1690 C   0  0  1  0  0  3  0  0  0  0  0  0
  189.0120  176.5350  141.7030 C   0  0  1  0  0  3  0  0  0  0  0  0
  189.8920  178.3880  144.0350 C   0  0  1  0  0  3  0  0  0  0  0  0
  190.7510  178.4340  145.2430 C   0  0  2  0  0  3  0  0  0  0  0  0
  191.2620  177.7940  144.0020 N   0  0  1  0  0  0  0  0  0  0  0  0
  188.3640  177.4100  139.5730 O   0  0  0  0  0  1  0  0  0  0  0  0
  188.2680  177.6290  140.9480 C   0  0  0  0  0  2  0  0  0  0  0  0
  192.1830  177.6430  140.4810 C   0  0  0  0  0  1  0  0  0  0  0  0
  191.0510  177.8310  141.2760 O   0  0  0  0  0  0  0  0  0  0  0  0
  187.3610  178.1210  144.5520 C   0  0  1  0  0  3  0  0  0  0  0  0
  185.7560  178.6310  143.1150 C   0  0  0  0  0  1  0  0  0  0  0  0
  186.2850  177.5690  143.8500 O   0  0  0  0  0  0  0  0  0  0  0  0
  187.0800  178.1210  146.0280 C   0  0  0  0  0  0  0  0  0  0  0  0
  187.7540  177.2550  146.7980 C   0  0  0  0  0  3  0  0  0  0  0  0
  187.5440  177.1360  148.2740 C   0  0  0  0  0  2  0  0  0  0  0  0
  188.3700  178.0420  148.9350 O   0  0  0  0  0  1  0  0  0  0  0  0
  186.0450  179.0510  146.5980 C   0  0  0  0  0  2  0  0  0  0  0  0
  184.6930  178.3650  146.6670 C   0  0  0  0  0  2  0  0  0  0  0  0
  183.7710  179.0780  145.9030 O   0  0  0  0  0  1  0  0  0  0  0  0
  190.4160  177.4520  146.3790 C   0  0  0  0  0  2  0  0  0  0  0  0
  191.4880  177.3830  147.2670 O   0  0  0  0  0  0  0  0  0  0  0  0
  191.4950  176.0610  147.7090 C   0  0  0  0  0  3  0  0  0  0  0  0
  192.8380  175.7540  148.3400 C   0  0  0  0  0  2  0  0  0  0  0  0
  192.5380  175.2840  146.9330 C   0  0  0  0  0  2  0  0  0  0  0  0
  1  9  1  0  0  0  0
  2  1  1  0  0  0  0
  3 13  1  1  0  0  0
  3  6  1  0  0  0  0
  3  2  1  0  0  0  0
  4  5  1  0  0  0  0
  5 14  1  6  0  0  0
  6 11  1  1  0  0  0
  6  4  1  0  0  0  0
  7  5  1  0  0  0  0
  7  8  1  0  0  0  0
  8 24  1  0  0  0  0
  9  7  1  0  0  0  0
  9  8  1  0  0  0  0
 10 11  1  0  0  0  0
 12 13  1  0  0  0  0
 14 17  1  0  0  0  0
 15 16  1  0  0  0  0
 16 14  1  0  0  0  0
 17 21  1  0  0  0  0
 17 18  2  0  0  0  0
 18 19  1  0  0  0  0
 19 20  1  0  0  0  0
 21 22  1  0  0  0  0
 23 22  1  0  0  0  0
 24 25  1  0  0  0  0
 25 26  1  0  0  0  0
 26 27  1  0  0  0  0
 28 26  1  0  0  0  0
 28 27  1  0  0  0  0
M  END
>  <MODEL>
4

>  <REMARK>
 VINA RESULT:      -5.8      1.711      5.477
  Name = 
  11 active torsions:
  status: ('A' for Active; 'I' for Inactive)
    1  A    between atoms: C_3  and  O_28
    2  A    between atoms: C_5  and  O_21
    3  A    between atoms: C_9  and  C_13
    4  A    between atoms: C_9  and  C_14
    5  A    between atoms: C_10  and  C_13
    6  A    between atoms: C_11  and  C_22
    7  A    between atoms: C_12  and  C_15
    8  A    between atoms: C_13  and  O_24
    9  A    between atoms: C_14  and  C_18
   10  A    between atoms: C_16  and  C_20
   11  A    between atoms: C_16  and  O_21
                            x       y       z     vdW  Elec       q    Type
                         _______ _______ _______ _____ _____    ______ ____

>  <TORSDO>
F 11

$$$$
=
 OpenBabel11052413383D

 28 30  0  0  1  0  0  0  0  0999 V2000
  186.7690  177.3560  143.0730 C   0  0  0  0  0  2  0  0  0  0  0  0
  187.2320  176.6500  144.3520 C   0  0  0  0  0  2  0  0  0  0  0  0
  188.7330  176.8090  144.6690 C   0  0  1  0  0  3  0  0  0  0  0  0
  189.2190  176.1280  142.1640 C   0  0  0  0  0  2  0  0  0  0  0  0
  188.9640  177.4160  141.3570 C   0  0  1  0  0  3  0  0  0  0  0  0
  189.7190  176.2580  143.6100 C   0  0  1  0  0  3  0  0  0  0  0  0
  188.5700  178.7210  142.1090 C   0  0  1  0  0  3  0  0  0  0  0  0
  187.3020  179.3240  141.6300 C   0  0  2  0  0  3  0  0  0  0  0  0
  187.3550  178.6970  142.9780 N   0  0  1  0  0  0  0  0  0  0  0  0
  191.7780  176.2910  144.8270 O   0  0  0  0  0  1  0  0  0  0  0  0
  191.1310  176.8190  143.7080 C   0  0  0  0  0  2  0  0  0  0  0  0
  189.0200  178.1000  146.4510 C   0  0  0  0  0  1  0  0  0  0  0  0
  189.0380  178.1200  145.0550 O   0  0  0  0  0  0  0  0  0  0  0  0
  189.9860  177.6220  140.2300 C   0  0  1  0  0  3  0  0  0  0  0  0
  192.1930  177.4400  140.2030 C   0  0  0  0  0  1  0  0  0  0  0  0
  191.0230  176.6890  140.3250 O   0  0  0  0  0  0  0  0  0  0  0  0
  189.3860  177.6010  138.8530 C   0  0  0  0  0  0  0  0  0  0  0  0
  189.2130  178.7720  138.2230 C   0  0  0  0  0  3  0  0  0  0  0  0
  188.6000  178.8880  136.8640 C   0  0  0  0  0  2  0  0  0  0  0  0
  187.2340  179.1300  136.9900 O   0  0  0  0  0  1  0  0  0  0  0  0
  188.9690  176.2970  138.2320 C   0  0  0  0  0  2  0  0  0  0  0  0
  190.0800  175.7420  137.3600 C   0  0  0  0  0  2  0  0  0  0  0  0
  190.5070  174.5200  137.8740 O   0  0  0  0  0  1  0  0  0  0  0  0
  186.4990  178.5300  140.5860 C   0  0  0  0  0  2  0  0  0  0  0  0
  185.3960  179.2800  140.1770 O   0  0  0  0  0  0  0  0  0  0  0  0
  184.3960  178.3370  139.9460 C   0  0  0  0  0  3  0  0  0  0  0  0
  183.0500  179.0330  139.9320 C   0  0  0  0  0  2  0  0  0  0  0  0
  183.4910  178.2650  141.1590 C   0  0  0  0  0  2  0  0  0  0  0  0
  1  2  1  0  0  0  0
  2  3  1  0  0  0  0
  3 13  1  6  0  0  0
  4  6  1  0  0  0  0
  5 14  1  1  0  0  0
  5  7  1  0  0  0  0
  5  4  1  0  0  0  0
  6 11  1  6  0  0  0
  6  3  1  0  0  0  0
  7  9  1  0  0  0  0
  8  7  1  0  0  0  0
  8  9  1  0  0  0  0
  9  1  1  0  0  0  0
 11 10  1  0  0  0  0
 13 12  1  0  0  0  0
 14 16  1  0  0  0  0
 15 16  1  0  0  0  0
 17 14  1  0  0  0  0
 18 17  2  0  0  0  0
 19 20  1  0  0  0  0
 19 18  1  0  0  0  0
 21 17  1  0  0  0  0
 22 23  1  0  0  0  0
 22 21  1  0  0  0  0
 24  8  1  0  0  0  0
 25 24  1  0  0  0  0
 26 25  1  0  0  0  0
 26 28  1  0  0  0  0
 27 26  1  0  0  0  0
 27 28  1  0  0  0  0
M  END
>  <MODEL>
5

>  <REMARK>
 VINA RESULT:      -5.5      2.168      5.607
  Name = 
  11 active torsions:
  status: ('A' for Active; 'I' for Inactive)
    1  A    between atoms: C_3  and  O_28
    2  A    between atoms: C_5  and  O_21
    3  A    between atoms: C_9  and  C_13
    4  A    between atoms: C_9  and  C_14
    5  A    between atoms: C_10  and  C_13
    6  A    between atoms: C_11  and  C_22
    7  A    between atoms: C_12  and  C_15
    8  A    between atoms: C_13  and  O_24
    9  A    between atoms: C_14  and  C_18
   10  A    between atoms: C_16  and  C_20
   11  A    between atoms: C_16  and  O_21
                            x       y       z     vdW  Elec       q    Type
                         _______ _______ _______ _____ _____    ______ ____

>  <TORSDO>
F 11

$$$$
=
 OpenBabel11052413383D

 28 30  0  0  1  0  0  0  0  0999 V2000
  188.1780  176.8100  142.8740 C   0  0  0  0  0  2  0  0  0  0  0  0
  189.5260  176.1570  143.1970 C   0  0  0  0  0  2  0  0  0  0  0  0
  190.7230  176.7210  142.4050 C   0  0  1  0  0  3  0  0  0  0  0  0
  189.2630  176.4470  140.2220 C   0  0  0  0  0  2  0  0  0  0  0  0
  188.3260  177.6710  140.2270 C   0  0  1  0  0  3  0  0  0  0  0  0
  190.6500  176.5840  140.8650 C   0  0  1  0  0  3  0  0  0  0  0  0
  188.4590  178.7270  141.3630 C   0  0  1  0  0  3  0  0  0  0  0  0
  187.1950  178.9710  142.1000 C   0  0  2  0  0  3  0  0  0  0  0  0
  188.3160  178.2670  142.7770 N   0  0  1  0  0  0  0  0  0  0  0  0
  192.1740  176.8470  139.0400 O   0  0  0  0  0  1  0  0  0  0  0  0
  191.5730  177.5250  140.1020 C   0  0  0  0  0  2  0  0  0  0  0  0
  191.5920  177.8780  144.0890 C   0  0  0  0  0  1  0  0  0  0  0  0
  191.0390  178.0220  142.8140 O   0  0  0  0  0  0  0  0  0  0  0  0
  188.1270  178.2710  138.8280 C   0  0  1  0  0  3  0  0  0  0  0  0
  189.1330  179.3220  137.1580 C   0  0  0  0  0  1  0  0  0  0  0  0
  189.3480  178.3650  138.1510 O   0  0  0  0  0  0  0  0  0  0  0  0
  187.1170  177.5410  137.9900 C   0  0  0  0  0  0  0  0  0  0  0  0
  187.3740  176.2680  137.6600 C   0  0  0  0  0  3  0  0  0  0  0  0
  186.4630  175.4430  136.8070 C   0  0  0  0  0  2  0  0  0  0  0  0
  186.4240  174.1390  137.2950 O   0  0  0  0  0  1  0  0  0  0  0  0
  185.8760  178.2480  137.5200 C   0  0  0  0  0  2  0  0  0  0  0  0
  184.9170  178.4680  138.6760 C   0  0  0  0  0  2  0  0  0  0  0  0
  184.8520  179.8270  138.9730 O   0  0  0  0  0  1  0  0  0  0  0  0
  185.9950  178.0750  141.7480 C   0  0  0  0  0  2  0  0  0  0  0  0
  184.8120  178.7140  142.1190 O   0  0  0  0  0  0  0  0  0  0  0  0
  184.5880  178.3060  143.4330 C   0  0  0  0  0  3  0  0  0  0  0  0
  183.2240  178.7920  143.8790 C   0  0  0  0  0  2  0  0  0  0  0  0
  184.4710  179.5290  144.3190 C   0  0  0  0  0  2  0  0  0  0  0  0
  1  2  1  0  0  0  0
  3 13  1  6  0  0  0
  3  2  1  0  0  0  0
  4  5  1  0  0  0  0
  4  6  1  0  0  0  0
  5 14  1  6  0  0  0
  5  7  1  0  0  0  0
  6 11  1  6  0  0  0
  6  3  1  0  0  0  0
  7  8  1  0  0  0  0
  7  9  1  0  0  0  0
  8  9  1  0  0  0  0
  9  1  1  0  0  0  0
 10 11  1  0  0  0  0
 13 12  1  0  0  0  0
 15 16  1  0  0  0  0
 16 14  1  0  0  0  0
 17 14  1  0  0  0  0
 18 17  2  0  0  0  0
 19 20  1  0  0  0  0
 19 18  1  0  0  0  0
 21 17  1  0  0  0  0
 21 22  1  0  0  0  0
 22 23  1  0  0  0  0
 24  8  1  0  0  0  0
 24 25  1  0  0  0  0
 25 26  1  0  0  0  0
 26 27  1  0  0  0  0
 26 28  1  0  0  0  0
 27 28  1  0  0  0  0
M  END
>  <MODEL>
6

>  <REMARK>
 VINA RESULT:      -5.3      2.475      5.881
  Name = 
  11 active torsions:
  status: ('A' for Active; 'I' for Inactive)
    1  A    between atoms: C_3  and  O_28
    2  A    between atoms: C_5  and  O_21
    3  A    between atoms: C_9  and  C_13
    4  A    between atoms: C_9  and  C_14
    5  A    between atoms: C_10  and  C_13
    6  A    between atoms: C_11  and  C_22
    7  A    between atoms: C_12  and  C_15
    8  A    between atoms: C_13  and  O_24
    9  A    between atoms: C_14  and  C_18
   10  A    between atoms: C_16  and  C_20
   11  A    between atoms: C_16  and  O_21
                            x       y       z     vdW  Elec       q    Type
                         _______ _______ _______ _____ _____    ______ ____

>  <TORSDO>
F 11

$$$$
=
 OpenBabel11052413383D

 28 30  0  0  1  0  0  0  0  0999 V2000
  184.2400  175.2340  137.5080 C   0  0  0  0  0  2  0  0  0  0  0  0
  183.1210  174.1870  137.5200 C   0  0  0  0  0  2  0  0  0  0  0  0
  181.6970  174.7660  137.6530 C   0  0  1  0  0  3  0  0  0  0  0  0
  182.5960  176.2130  139.6720 C   0  0  0  0  0  2  0  0  0  0  0  0
  183.3220  177.3980  139.0050 C   0  0  1  0  0  3  0  0  0  0  0  0
  181.4060  175.5770  138.9390 C   0  0  1  0  0  3  0  0  0  0  0  0
  183.3250  177.5140  137.4520 C   0  0  1  0  0  3  0  0  0  0  0  0
  184.6840  177.6060  136.8660 C   0  0  2  0  0  3  0  0  0  0  0  0
  183.8770  176.3740  136.6600 N   0  0  1  0  0  0  0  0  0  0  0  0
  179.7210  176.7940  140.1230 O   0  0  0  0  0  1  0  0  0  0  0  0
  180.1990  176.5010  138.8450 C   0  0  0  0  0  2  0  0  0  0  0  0
  180.6790  174.4820  135.7020 C   0  0  0  0  0  1  0  0  0  0  0  0
  181.3110  175.4450  136.4910 O   0  0  0  0  0  0  0  0  0  0  0  0
  183.0810  178.7270  139.7350 C   0  0  1  0  0  3  0  0  0  0  0  0
  182.2460  180.4960  138.6990 C   0  0  0  0  0  1  0  0  0  0  0  0
  181.8760  179.3060  139.3260 O   0  0  0  0  0  0  0  0  0  0  0  0
  183.1290  178.6160  141.2330 C   0  0  0  0  0  0  0  0  0  0  0  0
  182.0180  178.9090  141.9220 C   0  0  0  0  0  3  0  0  0  0  0  0
  181.9450  178.8660  143.4160 C   0  0  0  0  0  2  0  0  0  0  0  0
  180.6690  178.4680  143.8070 O   0  0  0  0  0  1  0  0  0  0  0  0
  184.4070  178.2180  141.9180 C   0  0  0  0  0  2  0  0  0  0  0  0
  185.4800  179.2690  141.6980 C   0  0  0  0  0  2  0  0  0  0  0  0
  186.6230  178.6630  141.1790 O   0  0  0  0  0  1  0  0  0  0  0  0
  185.8750  177.4390  137.8250 C   0  0  0  0  0  2  0  0  0  0  0  0
  186.6650  178.5870  137.7910 O   0  0  0  0  0  0  0  0  0  0  0  0
  187.9740  178.1160  137.8960 C   0  0  0  0  0  3  0  0  0  0  0  0
  188.9130  179.1080  137.2390 C   0  0  0  0  0  2  0  0  0  0  0  0
  188.5150  177.8440  136.5070 C   0  0  0  0  0  2  0  0  0  0  0  0
  1  2  1  0  0  0  0
  2  3  1  0  0  0  0
  3 13  1  6  0  0  0
  3  6  1  0  0  0  0
  5  4  1  0  0  0  0
  5 14  1  1  0  0  0
  6 11  1  6  0  0  0
  6  4  1  0  0  0  0
  7  5  1  0  0  0  0
  8  7  1  0  0  0  0
  8 24  1  0  0  0  0
  9  8  1  0  0  0  0
  9  7  1  0  0  0  0
  9  1  1  0  0  0  0
 11 10  1  0  0  0  0
 12 13  1  0  0  0  0
 14 17  1  0  0  0  0
 15 16  1  0  0  0  0
 16 14  1  0  0  0  0
 17 21  1  0  0  0  0
 17 18  2  0  0  0  0
 18 19  1  0  0  0  0
 19 20  1  0  0  0  0
 22 21  1  0  0  0  0
 23 22  1  0  0  0  0
 25 24  1  0  0  0  0
 25 26  1  0  0  0  0
 27 26  1  0  0  0  0
 28 27  1  0  0  0  0
 28 26  1  0  0  0  0
M  END
>  <MODEL>
7

>  <REMARK>
 VINA RESULT:      -4.8      4.958      8.261
  Name = 
  11 active torsions:
  status: ('A' for Active; 'I' for Inactive)
    1  A    between atoms: C_3  and  O_28
    2  A    between atoms: C_5  and  O_21
    3  A    between atoms: C_9  and  C_13
    4  A    between atoms: C_9  and  C_14
    5  A    between atoms: C_10  and  C_13
    6  A    between atoms: C_11  and  C_22
    7  A    between atoms: C_12  and  C_15
    8  A    between atoms: C_13  and  O_24
    9  A    between atoms: C_14  and  C_18
   10  A    between atoms: C_16  and  C_20
   11  A    between atoms: C_16  and  O_21
                            x       y       z     vdW  Elec       q    Type
                         _______ _______ _______ _____ _____    ______ ____

>  <TORSDO>
F 11

$$$$
=
 OpenBabel11052413383D

 28 30  0  0  1  0  0  0  0  0999 V2000
  187.3100  175.9020  135.6160 C   0  0  0  0  0  2  0  0  0  0  0  0
  188.1730  174.8290  134.9430 C   0  0  0  0  0  2  0  0  0  0  0  0
  189.3220  174.2850  135.8160 C   0  0  1  0  0  3  0  0  0  0  0  0
  189.9590  176.7920  136.3440 C   0  0  0  0  0  2  0  0  0  0  0  0
  188.9590  177.2250  137.4330 C   0  0  1  0  0  3  0  0  0  0  0  0
  190.3790  175.3170  136.2780 C   0  0  1  0  0  3  0  0  0  0  0  0
  187.9300  176.1900  137.9770 C   0  0  1  0  0  3  0  0  0  0  0  0
  186.5210  176.6390  137.8680 C   0  0  2  0  0  3  0  0  0  0  0  0
  187.0080  175.5320  137.0030 N   0  0  1  0  0  0  0  0  0  0  0  0
  192.3530  175.6720  137.5810 O   0  0  0  0  0  1  0  0  0  0  0  0
  191.2110  174.8770  137.4760 C   0  0  0  0  0  2  0  0  0  0  0  0
  188.3320  172.3500  136.2670 C   0  0  0  0  0  1  0  0  0  0  0  0
  188.8370  173.5030  136.8710 O   0  0  0  0  0  0  0  0  0  0  0  0
  189.6040  178.1000  138.5170 C   0  0  1  0  0  3  0  0  0  0  0  0
  189.0480  179.7650  137.1670 C   0  0  0  0  0  1  0  0  0  0  0  0
  189.0510  179.3850  138.5090 O   0  0  0  0  0  0  0  0  0  0  0  0
  189.5390  177.5090  139.8960 C   0  0  0  0  0  0  0  0  0  0  0  0
  188.4730  177.7970  140.6560 C   0  0  0  0  0  3  0  0  0  0  0  0
  188.3050  177.2960  142.0550 C   0  0  0  0  0  2  0  0  0  0  0  0
  188.8000  178.2420  142.9500 O   0  0  0  0  0  1  0  0  0  0  0  0
  190.6640  176.6470  140.4000 C   0  0  0  0  0  2  0  0  0  0  0  0
  191.7480  177.5020  141.0310 C   0  0  0  0  0  2  0  0  0  0  0  0
  192.8760  177.4990  140.2140 O   0  0  0  0  0  1  0  0  0  0  0  0
  186.2620  177.9630  137.1300 C   0  0  0  0  0  2  0  0  0  0  0  0
  185.9090  178.9490  138.0500 O   0  0  0  0  0  0  0  0  0  0  0  0
  184.9070  178.3650  138.8250 C   0  0  0  0  0  3  0  0  0  0  0  0
  183.8850  179.4210  139.1940 C   0  0  0  0  0  2  0  0  0  0  0  0
  184.9230  178.9870  140.2060 C   0  0  0  0  0  2  0  0  0  0  0  0
  1  9  1  0  0  0  0
  2  1  1  0  0  0  0
  2  3  1  0  0  0  0
  3  6  1  0  0  0  0
  3 13  1  1  0  0  0
  4  5  1  0  0  0  0
  5  7  1  0  0  0  0
  5 14  1  1  0  0  0
  6  4  1  0  0  0  0
  6 11  1  1  0  0  0
  8  7  1  0  0  0  0
  9  8  1  0  0  0  0
  9  7  1  0  0  0  0
 11 10  1  0  0  0  0
 12 13  1  0  0  0  0
 14 17  1  0  0  0  0
 15 16  1  0  0  0  0
 16 14  1  0  0  0  0
 17 21  1  0  0  0  0
 17 18  2  0  0  0  0
 18 19  1  0  0  0  0
 19 20  1  0  0  0  0
 21 22  1  0  0  0  0
 23 22  1  0  0  0  0
 24  8  1  0  0  0  0
 24 25  1  0  0  0  0
 25 26  1  0  0  0  0
 26 27  1  0  0  0  0
 26 28  1  0  0  0  0
 27 28  1  0  0  0  0
M  END
>  <MODEL>
8

>  <REMARK>
 VINA RESULT:      -4.6      3.668      7.790
  Name = 
  11 active torsions:
  status: ('A' for Active; 'I' for Inactive)
    1  A    between atoms: C_3  and  O_28
    2  A    between atoms: C_5  and  O_21
    3  A    between atoms: C_9  and  C_13
    4  A    between atoms: C_9  and  C_14
    5  A    between atoms: C_10  and  C_13
    6  A    between atoms: C_11  and  C_22
    7  A    between atoms: C_12  and  C_15
    8  A    between atoms: C_13  and  O_24
    9  A    between atoms: C_14  and  C_18
   10  A    between atoms: C_16  and  C_20
   11  A    between atoms: C_16  and  O_21
                            x       y       z     vdW  Elec       q    Type
                         _______ _______ _______ _____ _____    ______ ____

>  <TORSDO>
F 11

$$$$
=
 OpenBabel11052413383D

 28 30  0  0  1  0  0  0  0  0999 V2000
  187.8800  177.1580  143.0270 C   0  0  0  0  0  2  0  0  0  0  0  0
  189.2130  176.7500  143.6630 C   0  0  0  0  0  2  0  0  0  0  0  0
  190.4640  177.3160  142.9610 C   0  0  1  0  0  3  0  0  0  0  0  0
  189.4230  176.4810  140.6820 C   0  0  0  0  0  2  0  0  0  0  0  0
  188.3820  177.5560  140.3140 C   0  0  1  0  0  3  0  0  0  0  0  0
  190.6630  176.9040  141.4820 C   0  0  1  0  0  3  0  0  0  0  0  0
  188.2180  178.8030  141.2330 C   0  0  1  0  0  3  0  0  0  0  0  0
  186.8310  179.0070  141.7170 C   0  0  2  0  0  3  0  0  0  0  0  0
  187.8870  178.5810  142.6730 N   0  0  1  0  0  0  0  0  0  0  0  0
  192.7000  177.0750  140.2390 O   0  0  0  0  0  1  0  0  0  0  0  0
  191.6030  177.8080  140.6950 C   0  0  0  0  0  2  0  0  0  0  0  0
  191.3180  178.8410  144.3280 C   0  0  0  0  0  1  0  0  0  0  0  0
  190.5770  178.6980  143.1530 O   0  0  0  0  0  0  0  0  0  0  0  0
  188.3620  177.8730  138.8130 C   0  0  1  0  0  3  0  0  0  0  0  0
  188.8570  179.3750  137.2630 C   0  0  0  0  0  1  0  0  0  0  0  0
  189.2620  178.9000  138.5100 O   0  0  0  0  0  0  0  0  0  0  0  0
  188.6120  176.6800  137.9350 C   0  0  0  0  0  0  0  0  0  0  0  0
  189.8830  176.3220  137.7050 C   0  0  0  0  0  3  0  0  0  0  0  0
  190.2650  175.1730  136.8270 C   0  0  0  0  0  2  0  0  0  0  0  0
  190.7930  174.1480  137.6080 O   0  0  0  0  0  1  0  0  0  0  0  0
  187.4560  175.9430  137.3170 C   0  0  0  0  0  2  0  0  0  0  0  0
  187.1110  176.5340  135.9620 C   0  0  0  0  0  2  0  0  0  0  0  0
  186.0800  177.4590  136.1080 O   0  0  0  0  0  1  0  0  0  0  0  0
  185.8020  177.9180  141.3730 C   0  0  0  0  0  2  0  0  0  0  0  0
  184.6020  178.5150  140.9850 O   0  0  0  0  0  0  0  0  0  0  0  0
  184.8500  179.0010  139.7010 C   0  0  0  0  0  3  0  0  0  0  0  0
  183.5690  179.5760  139.1310 C   0  0  0  0  0  2  0  0  0  0  0  0
  184.0370  178.2020  138.7030 C   0  0  0  0  0  2  0  0  0  0  0  0
  1  2  1  0  0  0  0
  3 13  1  6  0  0  0
  3  2  1  0  0  0  0
  4  6  1  0  0  0  0
  5 14  1  6  0  0  0
  5  4  1  0  0  0  0
  5  7  1  0  0  0  0
  6 11  1  6  0  0  0
  6  3  1  0  0  0  0
  7  8  1  0  0  0  0
  7  9  1  0  0  0  0
  8  9  1  0  0  0  0
  9  1  1  0  0  0  0
 10 11  1  0  0  0  0
 13 12  1  0  0  0  0
 15 16  1  0  0  0  0
 16 14  1  0  0  0  0
 17 14  1  0  0  0  0
 18 17  2  0  0  0  0
 19 20  1  0  0  0  0
 19 18  1  0  0  0  0
 21 17  1  0  0  0  0
 22 23  1  0  0  0  0
 22 21  1  0  0  0  0
 24  8  1  0  0  0  0
 25 24  1  0  0  0  0
 26 25  1  0  0  0  0
 27 26  1  0  0  0  0
 28 27  1  0  0  0  0
 28 26  1  0  0  0  0
M  END
>  <MODEL>
9

>  <REMARK>
 VINA RESULT:      -4.5      2.748      6.125
  Name = 
  11 active torsions:
  status: ('A' for Active; 'I' for Inactive)
    1  A    between atoms: C_3  and  O_28
    2  A    between atoms: C_5  and  O_21
    3  A    between atoms: C_9  and  C_13
    4  A    between atoms: C_9  and  C_14
    5  A    between atoms: C_10  and  C_13
    6  A    between atoms: C_11  and  C_22
    7  A    between atoms: C_12  and  C_15
    8  A    between atoms: C_13  and  O_24
    9  A    between atoms: C_14  and  C_18
   10  A    between atoms: C_16  and  C_20
   11  A    between atoms: C_16  and  O_21
                            x       y       z     vdW  Elec       q    Type
                         _______ _______ _______ _____ _____    ______ ____

>  <TORSDO>
F 11

$$$$
