=
 OpenBabel11052415183D

 37 41  0  0  1  0  0  0  0  0999 V2000
  184.0480  178.0640  140.1480 C   0  0  1  0  0  0  0  0  0  0  0  0
  186.6640  178.2110  137.3270 C   0  0  1  0  0  0  0  0  0  0  0  0
  188.1620  178.6840  140.8160 C   0  0  2  0  0  3  0  0  0  0  0  0
  182.9480  179.0920  139.7900 C   0  0  1  0  0  3  0  0  0  0  0  0
  188.9280  177.6960  138.2420 C   0  0  0  0  0  3  0  0  0  0  0  0
  187.4370  177.8930  141.8840 C   0  0  0  0  0  0  0  0  0  0  0  0
  182.0680  179.3810  142.1550 C   0  0  0  0  0  0  0  0  0  0  0  0
  187.3980  178.8410  139.6250 O   0  0  0  0  0  0  0  0  0  0  0  0
  188.1570  177.4670  142.9560 C   0  0  0  0  0  0  0  0  0  0  0  0
  191.1740  177.0800  139.1480 N   0  0  0  0  0  1  0  0  0  0  0  0
  181.9090  179.3020  140.7610 O   0  0  0  0  0  0  0  0  0  0  0  0
  184.7320  177.5120  138.8780 C   0  0  0  0  0  2  0  0  0  0  0  0
  186.5960  176.8550  136.6340 C   0  0  0  0  0  1  0  0  0  0  0  0
  190.3100  177.8240  141.7880 C   0  0  0  0  0  3  0  0  0  0  0  0
  189.8990  177.6810  139.3550 C   0  0  0  0  0  0  0  0  0  0  0  0
  185.2840  178.5690  137.9090 C   0  0  0  0  0  2  0  0  0  0  0  0
  183.2870  178.8910  142.8740 C   0  0  0  0  0  2  0  0  0  0  0  0
  185.9880  177.5030  141.7000 C   0  0  0  0  0  2  0  0  0  0  0  0
  189.5260  178.1010  140.5740 C   0  0  0  0  0  0  0  0  0  0  0  0
  185.1070  178.6210  141.1350 C   0  0  2  0  0  3  0  0  0  0  0  0
  187.7090  178.2200  138.4150 C   0  0  0  0  0  0  0  0  0  0  0  0
  187.0000  179.1760  136.3770 O   0  0  0  0  0  1  0  0  0  0  0  0
  184.5540  179.4740  142.2790 C   0  0  0  0  0  2  0  0  0  0  0  0
  181.1110  179.8190  142.8440 O   0  0  0  0  0  0  0  0  0  0  0  0
  183.4170  176.9790  140.7380 F   0  0  0  0  0  0  0  0  0  0  0  0
  189.6490  177.5560  142.9230 C   0  0  0  0  0  3  0  0  0  0  0  0
  187.3540  175.5280  144.0680 O   0  0  0  0  0  0  0  0  0  0  0  0
  187.5340  176.7760  144.1140 C   0  0  0  0  0  0  0  0  0  0  0  0
  185.9190  178.2070  145.4030 C   0  0  0  0  0  3  0  0  0  0  0  0
  187.1370  177.5120  145.3370 C   0  0  0  0  0  0  0  0  0  0  0  0
  187.9720  177.4940  146.4650 C   0  0  0  0  0  3  0  0  0  0  0  0
  188.4970  178.1460  148.8180 C   0  0  0  0  0  1  0  0  0  0  0  0
  186.3910  178.8630  147.6830 C   0  0  0  0  0  3  0  0  0  0  0  0
  187.6020  178.1690  147.6320 C   0  0  0  0  0  0  0  0  0  0  0  0
  185.5490  178.8820  146.5690 C   0  0  0  0  0  3  0  0  0  0  0  0
  182.2560  180.9510  138.6250 C   0  0  0  0  0  1  0  0  0  0  0  0
  183.3720  180.2620  139.1170 O   0  0  0  0  0  0  0  0  0  0  0  0
  1 25  1  1  0  0  0
  1 20  1  0  0  0  0
  2 13  1  6  0  0  0
  2 16  1  0  0  0  0
  2 21  1  0  0  0  0
  3  8  1  6  0  0  0
  3  6  1  0  0  0  0
  4 37  1  1  0  0  0
  4  1  1  0  0  0  0
  4 11  1  0  0  0  0
  5 21  2  0  0  0  0
  5 15  1  0  0  0  0
  6  9  2  0  0  0  0
  7 24  2  0  0  0  0
  7 17  1  0  0  0  0
  9 28  1  0  0  0  0
 10 15  1  0  0  0  0
 11  7  1  0  0  0  0
 12  1  1  0  0  0  0
 14 26  2  0  0  0  0
 15 19  2  0  0  0  0
 16 12  1  0  0  0  0
 18  6  1  0  0  0  0
 19  3  1  0  0  0  0
 19 14  1  0  0  0  0
 20 18  1  1  0  0  0
 20 23  1  0  0  0  0
 21  8  1  0  0  0  0
 22  2  1  0  0  0  0
 23 17  1  0  0  0  0
 26  9  1  0  0  0  0
 27 28  2  0  0  0  0
 28 30  1  0  0  0  0
 29 35  1  0  0  0  0
 30 29  2  0  0  0  0
 30 31  1  0  0  0  0
 31 34  2  0  0  0  0
 34 33  1  0  0  0  0
 34 32  1  0  0  0  0
 35 33  2  0  0  0  0
 36 37  1  0  0  0  0
M  END
>  <MODEL>
1

>  <REMARK>
 VINA RESULT:      -8.1      0.000      0.000
  Name = 
  3 active torsions:
  status: ('A' for Active; 'I' for Inactive)
    1  A    between atoms: C_5  and  O_23
    2  A    between atoms: C_6  and  C_31
    3  A    between atoms: C_14  and  C_31
                            x       y       z     vdW  Elec       q    Type
                         _______ _______ _______ _____ _____    ______ ____

>  <TORSDO>
F 3

$$$$
=
 OpenBabel11052415183D

 37 41  0  0  1  0  0  0  0  0999 V2000
  182.3590  177.3730  138.0260 C   0  0  1  0  0  0  0  0  0  0  0  0
  185.4850  176.2380  136.0860 C   0  0  1  0  0  0  0  0  0  0  0  0
  186.2710  178.6160  138.9790 C   0  0  2  0  0  3  0  0  0  0  0  0
  181.3740  177.9530  136.9830 C   0  0  1  0  0  3  0  0  0  0  0  0
  187.5120  176.4890  137.5210 C   0  0  0  0  0  3  0  0  0  0  0  0
  185.3320  178.4490  140.1550 C   0  0  0  0  0  0  0  0  0  0  0  0
  180.0480  179.3690  138.6230 C   0  0  0  0  0  0  0  0  0  0  0  0
  185.7620  178.0510  137.7750 O   0  0  0  0  0  0  0  0  0  0  0  0
  185.8170  178.7210  141.3960 C   0  0  0  0  0  0  0  0  0  0  0  0
  189.5190  176.6490  138.9990 N   0  0  0  0  0  1  0  0  0  0  0  0
  180.1670  178.5520  137.4870 O   0  0  0  0  0  0  0  0  0  0  0  0
  183.2690  176.2960  137.3960 C   0  0  0  0  0  2  0  0  0  0  0  0
  185.5280  174.7210  136.2290 C   0  0  0  0  0  1  0  0  0  0  0  0
  188.1660  178.5960  140.6250 C   0  0  0  0  0  3  0  0  0  0  0  0
  188.2420  177.1510  138.6200 C   0  0  0  0  0  0  0  0  0  0  0  0
  184.0250  176.7250  136.1280 C   0  0  0  0  0  2  0  0  0  0  0  0
  181.0900  179.4450  139.6970 C   0  0  0  0  0  2  0  0  0  0  0  0
  183.9410  177.8930  139.9530 C   0  0  0  0  0  2  0  0  0  0  0  0
  187.6430  178.1170  139.3350 C   0  0  0  0  0  0  0  0  0  0  0  0
  183.2120  178.4590  138.7310 C   0  0  2  0  0  3  0  0  0  0  0  0
  186.2930  176.9140  137.1650 C   0  0  0  0  0  0  0  0  0  0  0  0
  186.0220  176.5790  134.8450 O   0  0  0  0  0  1  0  0  0  0  0  0
  182.4610  179.7350  139.1180 C   0  0  0  0  0  2  0  0  0  0  0  0
  178.9830  180.0180  138.7860 O   0  0  0  0  0  0  0  0  0  0  0  0
  181.6010  176.7130  138.9820 F   0  0  0  0  0  0  0  0  0  0  0  0
  187.2870  178.9120  141.5870 C   0  0  0  0  0  3  0  0  0  0  0  0
  183.7160  178.8590  142.4950 O   0  0  0  0  0  0  0  0  0  0  0  0
  184.9620  178.6940  142.6110 C   0  0  0  0  0  0  0  0  0  0  0  0
  184.8060  178.7650  145.1180 C   0  0  0  0  0  3  0  0  0  0  0  0
  185.5310  178.4550  143.9570 C   0  0  0  0  0  0  0  0  0  0  0  0
  186.8040  177.8780  144.0850 C   0  0  0  0  0  3  0  0  0  0  0  0
  188.6970  177.0220  145.4710 C   0  0  0  0  0  1  0  0  0  0  0  0
  186.6180  177.9490  146.4970 C   0  0  0  0  0  3  0  0  0  0  0  0
  187.3470  177.6300  145.3490 C   0  0  0  0  0  0  0  0  0  0  0  0
  185.3480  178.5170  146.3820 C   0  0  0  0  0  3  0  0  0  0  0  0
  180.9380  178.9910  134.9780 C   0  0  0  0  0  1  0  0  0  0  0  0
  181.9470  178.6230  135.8770 O   0  0  0  0  0  0  0  0  0  0  0  0
  1 20  1  0  0  0  0
  1 25  1  1  0  0  0
  2 16  1  0  0  0  0
  2 13  1  1  0  0  0
  2 21  1  0  0  0  0
  3  8  1  6  0  0  0
  3 19  1  0  0  0  0
  3  6  1  0  0  0  0
  4 37  1  1  0  0  0
  4 11  1  0  0  0  0
  4  1  1  0  0  0  0
  5 15  1  0  0  0  0
  6  9  2  0  0  0  0
  7 24  2  0  0  0  0
  7 17  1  0  0  0  0
  9 26  1  0  0  0  0
  9 28  1  0  0  0  0
 11  7  1  0  0  0  0
 12  1  1  0  0  0  0
 14 26  2  0  0  0  0
 15 10  1  0  0  0  0
 15 19  2  0  0  0  0
 16 12  1  0  0  0  0
 18  6  1  0  0  0  0
 19 14  1  0  0  0  0
 20 23  1  1  0  0  0
 20 18  1  0  0  0  0
 21  5  2  0  0  0  0
 21  8  1  0  0  0  0
 22  2  1  0  0  0  0
 23 17  1  0  0  0  0
 27 28  2  0  0  0  0
 28 30  1  0  0  0  0
 29 35  1  0  0  0  0
 30 31  1  0  0  0  0
 30 29  2  0  0  0  0
 31 34  2  0  0  0  0
 34 32  1  0  0  0  0
 34 33  1  0  0  0  0
 35 33  2  0  0  0  0
 36 37  1  0  0  0  0
M  END
>  <MODEL>
2

>  <REMARK>
 VINA RESULT:      -7.3      2.102      3.017
  Name = 
  3 active torsions:
  status: ('A' for Active; 'I' for Inactive)
    1  A    between atoms: C_5  and  O_23
    2  A    between atoms: C_6  and  C_31
    3  A    between atoms: C_14  and  C_31
                            x       y       z     vdW  Elec       q    Type
                         _______ _______ _______ _____ _____    ______ ____

>  <TORSDO>
F 3

$$$$
=
 OpenBabel11052415183D

 37 41  0  0  1  0  0  0  0  0999 V2000
  181.9720  177.1650  139.5360 C   0  0  1  0  0  0  0  0  0  0  0  0
  184.3030  176.5410  136.5350 C   0  0  1  0  0  0  0  0  0  0  0  0
  185.9150  178.6340  139.3040 C   0  0  2  0  0  3  0  0  0  0  0  0
  180.6670  177.7710  138.9680 C   0  0  1  0  0  3  0  0  0  0  0  0
  186.6820  176.8060  137.2400 C   0  0  0  0  0  3  0  0  0  0  0  0
  185.4390  178.2510  140.6890 C   0  0  0  0  0  0  0  0  0  0  0  0
  179.9130  178.8680  141.1310 C   0  0  0  0  0  0  0  0  0  0  0  0
  185.0540  178.1670  138.2710 O   0  0  0  0  0  0  0  0  0  0  0  0
  186.3030  178.4210  141.7250 C   0  0  0  0  0  0  0  0  0  0  0  0
  189.0630  176.9730  137.9790 N   0  0  0  0  0  1  0  0  0  0  0  0
  179.6770  178.1990  139.9190 O   0  0  0  0  0  0  0  0  0  0  0  0
  182.6630  176.2530  138.4990 C   0  0  0  0  0  2  0  0  0  0  0  0
  184.4600  175.0280  136.4460 C   0  0  0  0  0  1  0  0  0  0  0  0
  188.2550  178.5940  140.2110 C   0  0  0  0  0  3  0  0  0  0  0  0
  187.7110  177.4010  138.1160 C   0  0  0  0  0  0  0  0  0  0  0  0
  182.9230  176.8890  137.1240 C   0  0  0  0  0  2  0  0  0  0  0  0
  181.2530  178.9130  141.8000 C   0  0  0  0  0  2  0  0  0  0  0  0
  184.0890  177.6010  140.8840 C   0  0  0  0  0  2  0  0  0  0  0  0
  187.3480  178.2220  139.1140 C   0  0  0  0  0  0  0  0  0  0  0  0
  182.9640  178.2360  140.0610 C   0  0  2  0  0  3  0  0  0  0  0  0
  185.3970  177.1590  137.3690 C   0  0  0  0  0  0  0  0  0  0  0  0
  184.3720  177.0690  135.2460 O   0  0  0  0  0  1  0  0  0  0  0  0
  182.3320  179.3880  140.8460 C   0  0  0  0  0  2  0  0  0  0  0  0
  178.9380  179.3970  141.7250 O   0  0  0  0  0  0  0  0  0  0  0  0
  181.6140  176.3370  140.5880 F   0  0  0  0  0  0  0  0  0  0  0  0
  187.7410  178.7190  141.4440 C   0  0  0  0  0  3  0  0  0  0  0  0
  184.7010  178.2860  143.4730 O   0  0  0  0  0  0  0  0  0  0  0  0
  185.9130  178.1810  143.1380 C   0  0  0  0  0  0  0  0  0  0  0  0
  188.0710  177.0860  143.8190 C   0  0  0  0  0  3  0  0  0  0  0  0
  186.9090  177.7950  144.1650 C   0  0  0  0  0  0  0  0  0  0  0  0
  186.7140  178.1670  145.5030 C   0  0  0  0  0  3  0  0  0  0  0  0
  187.4340  178.2230  147.8940 C   0  0  0  0  0  1  0  0  0  0  0  0
  188.8030  177.1140  146.1240 C   0  0  0  0  0  3  0  0  0  0  0  0
  187.6540  177.8260  146.4790 C   0  0  0  0  0  0  0  0  0  0  0  0
  189.0110  176.7440  144.7940 C   0  0  0  0  0  3  0  0  0  0  0  0
  179.5300  178.9770  137.3730 C   0  0  0  0  0  1  0  0  0  0  0  0
  180.8000  178.6110  137.8370 O   0  0  0  0  0  0  0  0  0  0  0  0
  1 20  1  0  0  0  0
  1 25  1  1  0  0  0
  2 13  1  6  0  0  0
  2 16  1  0  0  0  0
  2 21  1  0  0  0  0
  3  8  1  6  0  0  0
  3  6  1  0  0  0  0
  4 37  1  1  0  0  0
  4  1  1  0  0  0  0
  4 11  1  0  0  0  0
  5 21  2  0  0  0  0
  5 15  1  0  0  0  0
  6 18  1  0  0  0  0
  6  9  2  0  0  0  0
  7 24  2  0  0  0  0
  7 17  1  0  0  0  0
  9 28  1  0  0  0  0
 10 15  1  0  0  0  0
 11  7  1  0  0  0  0
 12  1  1  0  0  0  0
 14 26  2  0  0  0  0
 15 19  2  0  0  0  0
 16 12  1  0  0  0  0
 19  3  1  0  0  0  0
 19 14  1  0  0  0  0
 20 23  1  1  0  0  0
 20 18  1  0  0  0  0
 21  8  1  0  0  0  0
 22  2  1  0  0  0  0
 23 17  1  0  0  0  0
 26  9  1  0  0  0  0
 28 27  2  0  0  0  0
 28 30  1  0  0  0  0
 29 30  2  0  0  0  0
 29 35  1  0  0  0  0
 30 31  1  0  0  0  0
 31 34  2  0  0  0  0
 33 34  1  0  0  0  0
 34 32  1  0  0  0  0
 35 33  2  0  0  0  0
 36 37  1  0  0  0  0
M  END
>  <MODEL>
3

>  <REMARK>
 VINA RESULT:      -7.0      1.994      2.697
  Name = 
  3 active torsions:
  status: ('A' for Active; 'I' for Inactive)
    1  A    between atoms: C_5  and  O_23
    2  A    between atoms: C_6  and  C_31
    3  A    between atoms: C_14  and  C_31
                            x       y       z     vdW  Elec       q    Type
                         _______ _______ _______ _____ _____    ______ ____

>  <TORSDO>
F 3

$$$$
=
 OpenBabel11052415183D

 37 41  0  0  1  0  0  0  0  0999 V2000
  184.0080  179.3680  143.1450 C   0  0  1  0  0  0  0  0  0  0  0  0
  185.5930  178.5190  146.5500 C   0  0  1  0  0  0  0  0  0  0  0  0
  187.3380  176.8260  143.5960 C   0  0  0  0  0  0  0  0  0  0  0  0
  182.5010  179.0360  143.2610 C   0  0  1  0  0  3  0  0  0  0  0  0
  187.9530  177.7740  146.2250 C   0  0  0  0  0  3  0  0  0  0  0  0
  187.3220  177.6660  142.3370 C   0  0  0  0  0  0  0  0  0  0  0  0
  182.0870  178.7860  140.7680 C   0  0  0  0  0  0  0  0  0  0  0  0
  186.3730  177.2420  144.5550 O   0  0  0  0  0  0  0  0  0  0  0  0
  188.3570  177.5250  141.4660 C   0  0  0  0  0  0  0  0  0  0  0  0
  190.3430  177.1260  145.8980 N   0  0  0  0  0  1  0  0  0  0  0  0
  181.7100  179.1650  142.0660 O   0  0  0  0  0  0  0  0  0  0  0  0
  184.6020  179.7510  144.5180 C   0  0  0  0  0  2  0  0  0  0  0  0
  186.0560  179.8510  147.1300 C   0  0  0  0  0  1  0  0  0  0  0  0
  189.7790  176.4250  143.1680 C   0  0  0  0  0  2  0  0  0  0  0  0
  189.0090  177.1520  145.4020 C   0  0  0  0  0  0  0  0  0  0  0  0
  184.3630  178.7410  145.6510 C   0  0  0  0  0  2  0  0  0  0  0  0
  183.5070  178.5320  140.3620 C   0  0  0  0  0  2  0  0  0  0  0  0
  186.2430  178.7030  142.1200 C   0  0  0  0  0  2  0  0  0  0  0  0
  188.7330  176.7500  144.1510 C   0  0  0  0  0  0  0  0  0  0  0  0
  184.8360  178.2280  142.4960 C   0  0  2  0  0  3  0  0  0  0  0  0
  186.6950  177.8470  145.7710 C   0  0  0  0  0  0  0  0  0  0  0  0
  185.2180  177.6860  147.6030 O   0  0  0  0  0  1  0  0  0  0  0  0
  184.1800  177.5430  141.2950 C   0  0  0  0  0  2  0  0  0  0  0  0
  181.1990  178.7260  139.8780 O   0  0  0  0  0  0  0  0  0  0  0  0
  184.1170  180.5030  142.3560 F   0  0  0  0  0  0  0  0  0  0  0  0
  189.5750  176.7680  141.8880 C   0  0  0  0  0  3  0  0  0  0  0  0
  188.8840  179.3770  140.0770 O   0  0  0  0  0  0  0  0  0  0  0  0
  188.3960  178.2170  140.1520 C   0  0  0  0  0  0  0  0  0  0  0  0
  188.6950  176.6620  138.2000 C   0  0  0  0  0  3  0  0  0  0  0  0
  187.8970  177.5680  138.9170 C   0  0  0  0  0  0  0  0  0  0  0  0
  186.5950  177.8310  138.4660 C   0  0  0  0  0  3  0  0  0  0  0  0
  184.7250  177.5030  136.8430 C   0  0  0  0  0  1  0  0  0  0  0  0
  186.9110  176.3180  136.6030 C   0  0  0  0  0  3  0  0  0  0  0  0
  186.1050  177.2130  137.3130 C   0  0  0  0  0  0  0  0  0  0  0  0
  188.2060  176.0440  137.0470 C   0  0  0  0  0  3  0  0  0  0  0  0
  180.7810  177.9590  144.3430 C   0  0  0  0  0  1  0  0  0  0  0  0
  182.1560  177.9360  144.0800 O   0  0  0  0  0  0  0  0  0  0  0  0
  1 25  1  6  0  0  0
  1  4  1  0  0  0  0
  1 12  1  0  0  0  0
  2 13  1  1  0  0  0
  2 22  1  0  0  0  0
  3 19  1  0  0  0  0
  3  8  1  0  0  0  0
  4 37  1  6  0  0  0
  6  3  2  0  0  0  0
  7 11  1  0  0  0  0
  8 21  1  0  0  0  0
  9 26  2  0  0  0  0
  9  6  1  0  0  0  0
 11  4  1  0  0  0  0
 12 16  1  0  0  0  0
 14 19  1  0  0  0  0
 15 10  1  0  0  0  0
 15  5  1  0  0  0  0
 16  2  1  0  0  0  0
 17  7  1  0  0  0  0
 17 23  1  0  0  0  0
 18  6  1  0  0  0  0
 18 20  1  0  0  0  0
 19 15  2  0  0  0  0
 20 23  1  6  0  0  0
 20  1  1  0  0  0  0
 21  5  2  0  0  0  0
 21  2  1  0  0  0  0
 24  7  2  0  0  0  0
 26 14  1  0  0  0  0
 27 28  2  0  0  0  0
 28  9  1  0  0  0  0
 29 30  1  0  0  0  0
 30 28  1  0  0  0  0
 31 30  2  0  0  0  0
 32 34  1  0  0  0  0
 33 35  1  0  0  0  0
 33 34  2  0  0  0  0
 34 31  1  0  0  0  0
 35 29  2  0  0  0  0
 37 36  1  0  0  0  0
M  END
>  <MODEL>
4

>  <REMARK>
 VINA RESULT:      -7.0      1.992      6.513
  Name = 
  3 active torsions:
  status: ('A' for Active; 'I' for Inactive)
    1  A    between atoms: C_5  and  O_23
    2  A    between atoms: C_6  and  C_31
    3  A    between atoms: C_14  and  C_31
                            x       y       z     vdW  Elec       q    Type
                         _______ _______ _______ _____ _____    ______ ____

>  <TORSDO>
F 3

$$$$
=
 OpenBabel11052415183D

 37 41  0  0  1  0  0  0  0  0999 V2000
  183.9890  179.3590  143.1910 C   0  0  1  0  0  0  0  0  0  0  0  0
  185.5930  178.4730  146.5780 C   0  0  1  0  0  0  0  0  0  0  0  0
  187.3270  176.8190  143.5940 C   0  0  0  0  0  0  0  0  0  0  0  0
  182.4830  179.0220  143.3100 C   0  0  1  0  0  3  0  0  0  0  0  0
  187.9530  177.7370  146.2320 C   0  0  0  0  0  3  0  0  0  0  0  0
  187.3020  177.6740  142.3460 C   0  0  0  0  0  0  0  0  0  0  0  0
  182.0570  178.8000  140.8160 C   0  0  0  0  0  0  0  0  0  0  0  0
  186.3650  177.2210  144.5640 O   0  0  0  0  0  0  0  0  0  0  0  0
  188.3330  177.5460  141.4690 C   0  0  0  0  0  0  0  0  0  0  0  0
  190.3430  177.0990  145.8850 N   0  0  0  0  0  1  0  0  0  0  0  0
  181.6860  179.1630  142.1210 O   0  0  0  0  0  0  0  0  0  0  0  0
  184.5890  179.7270  144.5650 C   0  0  0  0  0  2  0  0  0  0  0  0
  186.0560  179.7990  147.1710 C   0  0  0  0  0  1  0  0  0  0  0  0
  189.7660  176.4290  143.1500 C   0  0  0  0  0  2  0  0  0  0  0  0
  189.0060  177.1280  145.3950 C   0  0  0  0  0  0  0  0  0  0  0  0
  184.3580  178.7030  145.6880 C   0  0  0  0  0  2  0  0  0  0  0  0
  183.4750  178.5540  140.4010 C   0  0  0  0  0  2  0  0  0  0  0  0
  186.2200  178.7110  142.1470 C   0  0  0  0  0  2  0  0  0  0  0  0
  188.7250  176.7400  144.1410 C   0  0  0  0  0  0  0  0  0  0  0  0
  184.8160  178.2290  142.5240 C   0  0  2  0  0  3  0  0  0  0  0  0
  186.6930  177.8130  145.7850 C   0  0  0  0  0  0  0  0  0  0  0  0
  185.2260  177.6260  147.6230 O   0  0  0  0  0  1  0  0  0  0  0  0
  184.1550  177.5560  141.3180 C   0  0  0  0  0  2  0  0  0  0  0  0
  181.1650  178.7490  139.9310 O   0  0  0  0  0  0  0  0  0  0  0  0
  184.0920  180.5030  142.4150 F   0  0  0  0  0  0  0  0  0  0  0  0
  189.5550  176.7870  141.8750 C   0  0  0  0  0  3  0  0  0  0  0  0
  188.9340  179.3750  140.0780 O   0  0  0  0  0  0  0  0  0  0  0  0
  188.3640  178.2530  140.1620 C   0  0  0  0  0  0  0  0  0  0  0  0
  186.5450  178.1410  138.4310 C   0  0  0  0  0  3  0  0  0  0  0  0
  187.7610  177.6620  138.9440 C   0  0  0  0  0  0  0  0  0  0  0  0
  188.4240  176.6280  138.2670 C   0  0  0  0  0  3  0  0  0  0  0  0
  188.5880  174.9760  136.4010 C   0  0  0  0  0  1  0  0  0  0  0  0
  186.6620  176.5540  136.6090 C   0  0  0  0  0  3  0  0  0  0  0  0
  187.8770  176.0740  137.1070 C   0  0  0  0  0  0  0  0  0  0  0  0
  185.9970  177.5870  137.2710 C   0  0  0  0  0  3  0  0  0  0  0  0
  180.7620  177.8960  144.3400 C   0  0  0  0  0  1  0  0  0  0  0  0
  182.1450  177.9110  144.1190 O   0  0  0  0  0  0  0  0  0  0  0  0
  1 25  1  6  0  0  0
  1  4  1  0  0  0  0
  1 12  1  0  0  0  0
  2 13  1  1  0  0  0
  2 22  1  0  0  0  0
  3 19  1  0  0  0  0
  3  8  1  0  0  0  0
  4 37  1  6  0  0  0
  6  3  2  0  0  0  0
  7 11  1  0  0  0  0
  8 21  1  0  0  0  0
  9 26  2  0  0  0  0
  9  6  1  0  0  0  0
 11  4  1  0  0  0  0
 12 16  1  0  0  0  0
 14 19  1  0  0  0  0
 15 10  1  0  0  0  0
 15  5  1  0  0  0  0
 16  2  1  0  0  0  0
 17  7  1  0  0  0  0
 17 23  1  0  0  0  0
 18  6  1  0  0  0  0
 18 20  1  0  0  0  0
 19 15  2  0  0  0  0
 20 23  1  6  0  0  0
 20  1  1  0  0  0  0
 21  5  2  0  0  0  0
 21  2  1  0  0  0  0
 24  7  2  0  0  0  0
 26 14  1  0  0  0  0
 27 28  2  0  0  0  0
 28  9  1  0  0  0  0
 29 30  1  0  0  0  0
 30 28  1  0  0  0  0
 31 30  2  0  0  0  0
 32 34  1  0  0  0  0
 33 34  2  0  0  0  0
 33 35  1  0  0  0  0
 34 31  1  0  0  0  0
 35 29  2  0  0  0  0
 37 36  1  0  0  0  0
M  END
>  <MODEL>
5

>  <REMARK>
 VINA RESULT:      -7.0      2.012      6.483
  Name = 
  3 active torsions:
  status: ('A' for Active; 'I' for Inactive)
    1  A    between atoms: C_5  and  O_23
    2  A    between atoms: C_6  and  C_31
    3  A    between atoms: C_14  and  C_31
                            x       y       z     vdW  Elec       q    Type
                         _______ _______ _______ _____ _____    ______ ____

>  <TORSDO>
F 3

$$$$
=
 OpenBabel11052415183D

 37 41  0  0  1  0  0  0  0  0999 V2000
  189.0410  177.0450  142.4810 C   0  0  1  0  0  0  0  0  0  0  0  0
  186.3630  178.1690  145.0100 C   0  0  1  0  0  0  0  0  0  0  0  0
  185.6290  179.2810  141.4230 C   0  0  0  0  0  0  0  0  0  0  0  0
  190.4030  177.5370  143.0270 C   0  0  1  0  0  3  0  0  0  0  0  0
  184.2150  178.6270  143.8240 C   0  0  0  0  0  3  0  0  0  0  0  0
  186.1100  178.2890  140.3850 C   0  0  0  0  0  0  0  0  0  0  0  0
  191.6160  177.5010  140.7960 C   0  0  0  0  0  0  0  0  0  0  0  0
  186.2360  179.0920  142.6960 O   0  0  0  0  0  0  0  0  0  0  0  0
  185.4220  178.2120  139.2150 C   0  0  0  0  0  0  0  0  0  0  0  0
  182.0440  178.9850  142.6410 N   0  0  0  0  0  1  0  0  0  0  0  0
  191.5540  177.3340  142.1890 O   0  0  0  0  0  0  0  0  0  0  0  0
  188.0400  176.7870  143.6280 C   0  0  0  0  0  2  0  0  0  0  0  0
  185.8000  176.8840  145.6080 C   0  0  0  0  0  1  0  0  0  0  0  0
  183.4570  179.3780  140.1690 C   0  0  0  0  0  2  0  0  0  0  0  0
  183.4680  179.0280  142.6160 C   0  0  0  0  0  0  0  0  0  0  0  0
  187.8330  177.9550  144.6050 C   0  0  0  0  0  2  0  0  0  0  0  0
  190.4050  177.5570  139.9170 C   0  0  0  0  0  2  0  0  0  0  0  0
  187.2500  177.3460  140.6950 C   0  0  0  0  0  2  0  0  0  0  0  0
  184.1270  179.2890  141.4760 C   0  0  0  0  0  0  0  0  0  0  0  0
  188.4230  178.0030  141.4280 C   0  0  2  0  0  3  0  0  0  0  0  0
  185.5540  178.6210  143.8200 C   0  0  0  0  0  0  0  0  0  0  0  0
  186.3200  179.1650  145.9840 O   0  0  0  0  0  1  0  0  0  0  0  0
  189.4080  178.5870  140.4140 C   0  0  0  0  0  2  0  0  0  0  0  0
  192.7480  177.5320  140.2450 O   0  0  0  0  0  0  0  0  0  0  0  0
  189.2600  175.8120  141.8860 F   0  0  0  0  0  0  0  0  0  0  0  0
  184.0960  178.8930  139.0940 C   0  0  0  0  0  3  0  0  0  0  0  0
  185.0570  176.5150  137.5940 O   0  0  0  0  0  0  0  0  0  0  0  0
  185.8610  177.3550  138.0840 C   0  0  0  0  0  0  0  0  0  0  0  0
  187.7700  178.7340  137.2040 C   0  0  0  0  0  3  0  0  0  0  0  0
  187.2160  177.4770  137.4970 C   0  0  0  0  0  0  0  0  0  0  0  0
  187.9790  176.3250  137.2550 C   0  0  0  0  0  3  0  0  0  0  0  0
  190.0630  175.1980  136.4640 C   0  0  0  0  0  1  0  0  0  0  0  0
  189.8040  177.6820  136.4250 C   0  0  0  0  0  3  0  0  0  0  0  0
  189.2660  176.4260  136.7180 C   0  0  0  0  0  0  0  0  0  0  0  0
  189.0560  178.8350  136.6680 C   0  0  0  0  0  3  0  0  0  0  0  0
  191.6810  179.0320  144.2190 C   0  0  0  0  0  1  0  0  0  0  0  0
  190.3950  178.7640  143.7310 O   0  0  0  0  0  0  0  0  0  0  0  0
  1 25  1  6  0  0  0
  1  4  1  0  0  0  0
  1 12  1  0  0  0  0
  2 13  1  1  0  0  0
  2 22  1  0  0  0  0
  3 19  1  0  0  0  0
  3  8  1  0  0  0  0
  4 37  1  6  0  0  0
  6 18  1  0  0  0  0
  6  3  2  0  0  0  0
  7 11  1  0  0  0  0
  8 21  1  0  0  0  0
  9  6  1  0  0  0  0
 11  4  1  0  0  0  0
 12 16  1  0  0  0  0
 14 19  1  0  0  0  0
 15 10  1  0  0  0  0
 15  5  1  0  0  0  0
 16  2  1  0  0  0  0
 17 23  1  0  0  0  0
 17  7  1  0  0  0  0
 18 20  1  0  0  0  0
 19 15  2  0  0  0  0
 20 23  1  6  0  0  0
 20  1  1  0  0  0  0
 21  5  2  0  0  0  0
 21  2  1  0  0  0  0
 24  7  2  0  0  0  0
 26  9  2  0  0  0  0
 26 14  1  0  0  0  0
 27 28  2  0  0  0  0
 28  9  1  0  0  0  0
 29 30  1  0  0  0  0
 30 28  1  0  0  0  0
 31 30  2  0  0  0  0
 32 34  1  0  0  0  0
 33 35  1  0  0  0  0
 33 34  2  0  0  0  0
 34 31  1  0  0  0  0
 35 29  2  0  0  0  0
 37 36  1  0  0  0  0
M  END
>  <MODEL>
6

>  <REMARK>
 VINA RESULT:      -6.8      2.935      7.985
  Name = 
  3 active torsions:
  status: ('A' for Active; 'I' for Inactive)
    1  A    between atoms: C_5  and  O_23
    2  A    between atoms: C_6  and  C_31
    3  A    between atoms: C_14  and  C_31
                            x       y       z     vdW  Elec       q    Type
                         _______ _______ _______ _____ _____    ______ ____

>  <TORSDO>
F 3

$$$$
=
 OpenBabel11052415183D

 37 41  0  0  1  0  0  0  0  0999 V2000
  184.2030  179.3950  143.1060 C   0  0  1  0  0  0  0  0  0  0  0  0
  185.5910  178.5540  146.5980 C   0  0  1  0  0  0  0  0  0  0  0  0
  187.3980  176.7270  143.7620 C   0  0  0  0  0  0  0  0  0  0  0  0
  182.6790  179.1290  143.1570 C   0  0  1  0  0  3  0  0  0  0  0  0
  187.9290  177.7050  146.3990 C   0  0  0  0  0  3  0  0  0  0  0  0
  187.4750  177.5410  142.4880 C   0  0  0  0  0  0  0  0  0  0  0  0
  182.3710  178.8420  140.6520 C   0  0  0  0  0  0  0  0  0  0  0  0
  186.4070  177.2030  144.6670 O   0  0  0  0  0  0  0  0  0  0  0  0
  188.5420  177.3380  141.6700 C   0  0  0  0  0  0  0  0  0  0  0  0
  190.3030  176.9520  146.1980 N   0  0  0  0  0  1  0  0  0  0  0  0
  181.9510  179.2640  141.9240 O   0  0  0  0  0  0  0  0  0  0  0  0
  184.7480  179.7820  144.4970 C   0  0  0  0  0  2  0  0  0  0  0  0
  186.0820  179.8780  147.1730 C   0  0  0  0  0  1  0  0  0  0  0  0
  189.8360  176.2160  143.4580 C   0  0  0  0  0  2  0  0  0  0  0  0
  188.9950  177.0230  145.6380 C   0  0  0  0  0  0  0  0  0  0  0  0
  184.4140  178.8070  145.6380 C   0  0  0  0  0  2  0  0  0  0  0  0
  183.7960  178.5210  140.3190 C   0  0  0  0  0  2  0  0  0  0  0  0
  186.4520  178.6160  142.2010 C   0  0  0  0  0  2  0  0  0  0  0  0
  188.7610  176.6050  144.3840 C   0  0  0  0  0  0  0  0  0  0  0  0
  185.0110  178.2080  142.5180 C   0  0  2  0  0  3  0  0  0  0  0  0
  186.6990  177.8200  145.8840 C   0  0  0  0  0  0  0  0  0  0  0  0
  185.1330  177.7590  147.6480 O   0  0  0  0  0  1  0  0  0  0  0  0
  184.3830  177.5250  141.3010 C   0  0  0  0  0  2  0  0  0  0  0  0
  181.5240  178.8000  139.7230 O   0  0  0  0  0  0  0  0  0  0  0  0
  184.3970  180.5070  142.3010 F   0  0  0  0  0  0  0  0  0  0  0  0
  189.7070  176.5410  142.1640 C   0  0  0  0  0  3  0  0  0  0  0  0
  188.3530  179.2140  140.2270 O   0  0  0  0  0  0  0  0  0  0  0  0
  188.6720  177.9990  140.3460 C   0  0  0  0  0  0  0  0  0  0  0  0
  188.3180  176.7350  138.2030 C   0  0  0  0  0  3  0  0  0  0  0  0
  189.1900  177.2740  139.1630 C   0  0  0  0  0  0  0  0  0  0  0  0
  190.5740  177.1460  138.9720 C   0  0  0  0  0  3  0  0  0  0  0  0
  192.5450  176.3490  137.6620 C   0  0  0  0  0  1  0  0  0  0  0  0
  190.2000  175.9420  136.9060 C   0  0  0  0  0  3  0  0  0  0  0  0
  191.0770  176.4810  137.8510 C   0  0  0  0  0  0  0  0  0  0  0  0
  188.8210  176.0690  137.0820 C   0  0  0  0  0  3  0  0  0  0  0  0
  180.8810  178.1910  144.2420 C   0  0  0  0  0  1  0  0  0  0  0  0
  182.2510  178.0610  143.9800 O   0  0  0  0  0  0  0  0  0  0  0  0
  1 25  1  6  0  0  0
  1  4  1  0  0  0  0
  1 12  1  0  0  0  0
  2 13  1  1  0  0  0
  2 22  1  0  0  0  0
  3 19  1  0  0  0  0
  3  8  1  0  0  0  0
  4 37  1  6  0  0  0
  6  3  2  0  0  0  0
  7 11  1  0  0  0  0
  8 21  1  0  0  0  0
  9 26  2  0  0  0  0
  9  6  1  0  0  0  0
 11  4  1  0  0  0  0
 12 16  1  0  0  0  0
 14 19  1  0  0  0  0
 15 10  1  0  0  0  0
 15  5  1  0  0  0  0
 16  2  1  0  0  0  0
 17  7  1  0  0  0  0
 17 23  1  0  0  0  0
 18  6  1  0  0  0  0
 18 20  1  0  0  0  0
 19 15  2  0  0  0  0
 20 23  1  6  0  0  0
 20  1  1  0  0  0  0
 21  5  2  0  0  0  0
 21  2  1  0  0  0  0
 24  7  2  0  0  0  0
 26 14  1  0  0  0  0
 27 28  2  0  0  0  0
 28  9  1  0  0  0  0
 29 30  1  0  0  0  0
 30 28  1  0  0  0  0
 31 30  2  0  0  0  0
 32 34  1  0  0  0  0
 33 35  1  0  0  0  0
 33 34  2  0  0  0  0
 34 31  1  0  0  0  0
 35 29  2  0  0  0  0
 37 36  1  0  0  0  0
M  END
>  <MODEL>
7

>  <REMARK>
 VINA RESULT:      -6.7      2.128      6.525
  Name = 
  3 active torsions:
  status: ('A' for Active; 'I' for Inactive)
    1  A    between atoms: C_5  and  O_23
    2  A    between atoms: C_6  and  C_31
    3  A    between atoms: C_14  and  C_31
                            x       y       z     vdW  Elec       q    Type
                         _______ _______ _______ _____ _____    ______ ____

>  <TORSDO>
F 3

$$$$
=
 OpenBabel11052415183D

 37 41  0  0  1  0  0  0  0  0999 V2000
  182.0850  176.8470  138.7720 C   0  0  1  0  0  0  0  0  0  0  0  0
  184.0370  174.8350  136.1320 C   0  0  1  0  0  0  0  0  0  0  0  0
  186.0700  177.6810  137.6850 C   0  0  2  0  0  3  0  0  0  0  0  0
  180.7700  177.3070  138.0990 C   0  0  1  0  0  3  0  0  0  0  0  0
  186.4900  175.1100  136.4980 C   0  0  0  0  0  3  0  0  0  0  0  0
  185.7200  177.9360  139.1350 C   0  0  0  0  0  0  0  0  0  0  0  0
  180.3260  179.2500  139.6730 C   0  0  0  0  0  0  0  0  0  0  0  0
  185.0750  176.9320  136.9950 O   0  0  0  0  0  0  0  0  0  0  0  0
  186.6980  178.4150  139.9490 C   0  0  0  0  0  0  0  0  0  0  0  0
  188.9410  175.3100  136.9360 N   0  0  0  0  0  1  0  0  0  0  0  0
  179.9170  178.1810  138.8600 O   0  0  0  0  0  0  0  0  0  0  0  0
  182.5990  175.5300  138.1520 C   0  0  0  0  0  2  0  0  0  0  0  0
  184.0810  173.4050  136.6570 C   0  0  0  0  0  1  0  0  0  0  0  0
  188.4850  177.7640  138.3640 C   0  0  0  0  0  3  0  0  0  0  0  0
  187.6430  175.8950  136.9810 C   0  0  0  0  0  0  0  0  0  0  0  0
  182.7540  175.5310  136.6220 C   0  0  0  0  0  2  0  0  0  0  0  0
  181.7290  179.4190  140.1710 C   0  0  0  0  0  2  0  0  0  0  0  0
  184.3580  177.5620  139.6730 C   0  0  0  0  0  2  0  0  0  0  0  0
  187.4440  177.0800  137.5800 C   0  0  0  0  0  0  0  0  0  0  0  0
  183.1970  177.9290  138.7440 C   0  0  2  0  0  3  0  0  0  0  0  0
  185.2520  175.6170  136.5620 C   0  0  0  0  0  0  0  0  0  0  0  0
  184.0030  174.7930  134.7380 O   0  0  0  0  0  1  0  0  0  0  0  0
  182.7300  179.3570  139.0330 C   0  0  0  0  0  2  0  0  0  0  0  0
  179.4570  180.0710  140.0670 O   0  0  0  0  0  0  0  0  0  0  0  0
  181.7860  176.5510  140.0930 F   0  0  0  0  0  0  0  0  0  0  0  0
  188.1150  178.4240  139.4700 C   0  0  0  0  0  3  0  0  0  0  0  0
  185.6530  179.7510  141.6100 O   0  0  0  0  0  0  0  0  0  0  0  0
  186.4460  178.8020  141.3610 C   0  0  0  0  0  0  0  0  0  0  0  0
  188.2900  177.3880  142.3180 C   0  0  0  0  0  3  0  0  0  0  0  0
  187.0830  178.0850  142.4890 C   0  0  0  0  0  0  0  0  0  0  0  0
  186.4950  178.1220  143.7620 C   0  0  0  0  0  3  0  0  0  0  0  0
  186.4600  177.5090  146.1840 C   0  0  0  0  0  1  0  0  0  0  0  0
  188.2920  176.7680  144.6560 C   0  0  0  0  0  3  0  0  0  0  0  0
  187.0940  177.4650  144.8410 C   0  0  0  0  0  0  0  0  0  0  0  0
  188.8890  176.7300  143.3950 C   0  0  0  0  0  3  0  0  0  0  0  0
  179.5690  177.9810  136.2560 C   0  0  0  0  0  1  0  0  0  0  0  0
  180.8380  177.6060  136.7170 O   0  0  0  0  0  0  0  0  0  0  0  0
  1 25  1  1  0  0  0
  2 21  1  0  0  0  0
  2 16  1  0  0  0  0
  2 13  1  1  0  0  0
  3  8  1  1  0  0  0
  3  6  1  0  0  0  0
  4 37  1  6  0  0  0
  4  1  1  0  0  0  0
  4 11  1  0  0  0  0
  5 21  2  0  0  0  0
  5 15  1  0  0  0  0
  6 18  1  0  0  0  0
  6  9  2  0  0  0  0
  7 24  2  0  0  0  0
  7 17  1  0  0  0  0
  9 28  1  0  0  0  0
 10 15  1  0  0  0  0
 11  7  1  0  0  0  0
 12  1  1  0  0  0  0
 14 26  2  0  0  0  0
 15 19  2  0  0  0  0
 16 12  1  0  0  0  0
 19  3  1  0  0  0  0
 19 14  1  0  0  0  0
 20  1  1  0  0  0  0
 20 23  1  1  0  0  0
 20 18  1  0  0  0  0
 21  8  1  0  0  0  0
 22  2  1  0  0  0  0
 23 17  1  0  0  0  0
 26  9  1  0  0  0  0
 28 27  2  0  0  0  0
 28 30  1  0  0  0  0
 29 30  2  0  0  0  0
 29 35  1  0  0  0  0
 30 31  1  0  0  0  0
 31 34  2  0  0  0  0
 33 34  1  0  0  0  0
 34 32  1  0  0  0  0
 35 33  2  0  0  0  0
 36 37  1  0  0  0  0
M  END
>  <MODEL>
8

>  <REMARK>
 VINA RESULT:      -6.6      2.483      3.750
  Name = 
  3 active torsions:
  status: ('A' for Active; 'I' for Inactive)
    1  A    between atoms: C_5  and  O_23
    2  A    between atoms: C_6  and  C_31
    3  A    between atoms: C_14  and  C_31
                            x       y       z     vdW  Elec       q    Type
                         _______ _______ _______ _____ _____    ______ ____

>  <TORSDO>
F 3

$$$$
=
 OpenBabel11052415183D

 37 41  0  0  1  0  0  0  0  0999 V2000
  186.3490  178.9100  141.7190 C   0  0  1  0  0  0  0  0  0  0  0  0
  188.5240  177.5260  138.8590 C   0  0  1  0  0  0  0  0  0  0  0  0
  184.7670  177.2270  138.1950 C   0  0  0  0  0  0  0  0  0  0  0  0
  186.8180  178.2060  143.0150 C   0  0  1  0  0  3  0  0  0  0  0  0
  187.2140  177.4970  136.7350 C   0  0  0  0  0  3  0  0  0  0  0  0
  183.9680  178.3650  138.7930 C   0  0  0  0  0  0  0  0  0  0  0  0
  184.6740  178.5920  144.3220 C   0  0  0  0  0  0  0  0  0  0  0  0
  186.0680  177.1040  138.7590 O   0  0  0  0  0  0  0  0  0  0  0  0
  182.8210  178.7340  138.1630 C   0  0  0  0  0  0  0  0  0  0  0  0
  185.9270  177.5680  134.5940 N   0  0  0  0  0  1  0  0  0  0  0  0
  186.0700  178.4780  144.2130 O   0  0  0  0  0  0  0  0  0  0  0  0
  187.4990  179.0140  140.6930 C   0  0  0  0  0  2  0  0  0  0  0  0
  189.3580  178.7040  138.3710 C   0  0  0  0  0  1  0  0  0  0  0  0
  183.4640  177.5670  136.0770 C   0  0  0  0  0  2  0  0  0  0  0  0
  185.9300  177.4130  136.0100 C   0  0  0  0  0  0  0  0  0  0  0  0
  188.2100  177.6930  140.3570 C   0  0  0  0  0  2  0  0  0  0  0  0
  183.7710  178.8150  143.1480 C   0  0  0  0  0  2  0  0  0  0  0  0
  184.4940  179.1270  139.9880 C   0  0  0  0  0  2  0  0  0  0  0  0
  184.7780  177.3340  136.6950 C   0  0  0  0  0  0  0  0  0  0  0  0
  185.1070  178.2400  141.0750 C   0  0  2  0  0  3  0  0  0  0  0  0
  187.2460  177.3930  138.0690 C   0  0  0  0  0  0  0  0  0  0  0  0
  189.2720  176.3590  138.6980 O   0  0  0  0  0  1  0  0  0  0  0  0
  184.0200  177.7930  142.0550 C   0  0  0  0  0  2  0  0  0  0  0  0
  184.1580  178.5780  145.4690 O   0  0  0  0  0  0  0  0  0  0  0  0
  186.0260  180.2150  142.0570 F   0  0  0  0  0  0  0  0  0  0  0  0
  182.5290  178.2050  136.7960 C   0  0  0  0  0  3  0  0  0  0  0  0
  181.9710  180.9480  138.2880 O   0  0  0  0  0  0  0  0  0  0  0  0
  181.9010  179.7630  138.7150 C   0  0  0  0  0  0  0  0  0  0  0  0
  180.1940  180.4340  140.4320 C   0  0  0  0  0  3  0  0  0  0  0  0
  180.8850  179.4280  139.7390 C   0  0  0  0  0  0  0  0  0  0  0  0
  180.5770  178.0850  140.0050 C   0  0  0  0  0  3  0  0  0  0  0  0
  179.2920  176.3280  141.2310 C   0  0  0  0  0  1  0  0  0  0  0  0
  178.9310  178.7650  141.6440 C   0  0  0  0  0  3  0  0  0  0  0  0
  179.6070  177.7540  140.9560 C   0  0  0  0  0  0  0  0  0  0  0  0
  179.2240  180.1040  141.3820 C   0  0  0  0  0  3  0  0  0  0  0  0
  188.2600  176.6080  143.8260 C   0  0  0  0  0  1  0  0  0  0  0  0
  187.2550  176.8670  142.8850 O   0  0  0  0  0  0  0  0  0  0  0  0
  1 25  1  1  0  0  0
  1  4  1  0  0  0  0
  2 13  1  6  0  0  0
  2 16  1  0  0  0  0
  3  8  1  0  0  0  0
  3  6  2  0  0  0  0
  4 37  1  6  0  0  0
  4 11  1  0  0  0  0
  5 21  2  0  0  0  0
  6 18  1  0  0  0  0
  7 24  2  0  0  0  0
  9 28  1  0  0  0  0
  9  6  1  0  0  0  0
 10 15  1  0  0  0  0
 11  7  1  0  0  0  0
 12  1  1  0  0  0  0
 14 19  1  0  0  0  0
 14 26  1  0  0  0  0
 15 19  2  0  0  0  0
 15  5  1  0  0  0  0
 16 12  1  0  0  0  0
 17  7  1  0  0  0  0
 19  3  1  0  0  0  0
 20 18  1  6  0  0  0
 20  1  1  0  0  0  0
 20 23  1  0  0  0  0
 21  8  1  0  0  0  0
 21  2  1  0  0  0  0
 22  2  1  0  0  0  0
 23 17  1  0  0  0  0
 26  9  2  0  0  0  0
 27 28  2  0  0  0  0
 28 30  1  0  0  0  0
 29 35  1  0  0  0  0
 30 31  1  0  0  0  0
 30 29  2  0  0  0  0
 31 34  2  0  0  0  0
 34 32  1  0  0  0  0
 34 33  1  0  0  0  0
 35 33  2  0  0  0  0
 37 36  1  0  0  0  0
M  END
>  <MODEL>
9

>  <REMARK>
 VINA RESULT:      -6.5      2.521      6.396
  Name = 
  3 active torsions:
  status: ('A' for Active; 'I' for Inactive)
    1  A    between atoms: C_5  and  O_23
    2  A    between atoms: C_6  and  C_31
    3  A    between atoms: C_14  and  C_31
                            x       y       z     vdW  Elec       q    Type
                         _______ _______ _______ _____ _____    ______ ____

>  <TORSDO>
F 3

$$$$
