=
 OpenBabel11052416143D

 43 47  0  0  1  0  0  0  0  0999 V2000
  188.4370  177.4010  146.1820 C   0  0  0  0  0  0  0  0  0  0  0  0
  190.5030  176.8260  141.5510 C   0  0  2  0  0  3  0  0  0  0  0  0
  188.5710  177.3770  139.7860 C   0  0  2  0  0  3  0  0  0  0  0  0
  189.9910  177.0810  144.3470 C   0  0  0  0  0  0  0  0  0  0  0  0
  187.4790  177.8930  145.2920 C   0  0  0  0  0  3  0  0  0  0  0  0
  188.1540  177.3190  147.5040 F   0  0  0  0  0  0  0  0  0  0  0  0
  189.0100  177.5460  143.4400 C   0  0  0  0  0  0  0  0  0  0  0  0
  189.6870  176.9960  145.7090 C   0  0  0  0  0  3  0  0  0  0  0  0
  187.7680  177.9740  143.9290 C   0  0  0  0  0  3  0  0  0  0  0  0
  188.2040  177.5610  141.1520 O   0  0  0  0  0  0  0  0  0  0  0  0
  189.3440  177.7270  141.9800 C   0  0  2  0  0  3  0  0  0  0  0  0
  191.6890  177.0570  142.4710 C   0  0  0  0  0  2  0  0  0  0  0  0
  190.8420  177.1530  140.0970 C   0  0  2  0  0  3  0  0  0  0  0  0
  189.8350  177.9390  139.4780 O   0  0  0  0  0  0  0  0  0  0  0  0
  191.3320  176.5760  143.8770 C   0  0  0  0  0  2  0  0  0  0  0  0
  187.5010  177.9640  138.8760 C   0  0  2  0  0  3  0  0  0  0  0  0
  188.0390  179.0280  138.1470 O   0  0  0  0  0  1  0  0  0  0  0  0
  186.3230  178.4570  139.7130 C   0  0  0  0  0  2  0  0  0  0  0  0
  184.9810  178.3700  138.9870 C   0  0  2  0  0  3  0  0  0  0  0  0
  185.1660  177.9710  137.6620 O   0  0  0  0  0  1  0  0  0  0  0  0
  184.1990  179.6820  139.0340 C   0  0  0  0  0  2  0  0  0  0  0  0
  182.7040  179.4880  139.3040 C   0  0  1  0  0  3  0  0  0  0  0  0
  179.9250  178.3440  137.5870 C   0  0  0  0  0  1  0  0  0  0  0  0
  181.9720  179.4580  138.1170 O   0  0  0  0  0  0  0  0  0  0  0  0
  182.4160  178.2070  140.0310 C   0  0  2  0  0  3  0  0  0  0  0  0
  181.3140  177.6430  139.3970 O   0  0  0  0  0  0  0  0  0  0  0  0
  181.3400  178.2000  138.1090 C   0  0  1  0  0  3  0  0  0  0  0  0
  180.8160  178.5750  141.9480 C   0  0  0  0  0  3  0  0  0  0  0  0
  182.1300  178.4570  141.4770 C   0  0  0  0  0  0  0  0  0  0  0  0
  184.0590  178.9970  144.6740 C   0  0  0  0  0  1  0  0  0  0  0  0
  181.6490  178.9540  144.1540 N   0  0  0  0  0  0  0  0  0  0  0  0
  182.9340  178.8470  143.7170 C   0  0  0  0  0  0  0  0  0  0  0  0
  180.5950  178.8240  143.3060 C   0  0  0  0  0  3  0  0  0  0  0  0
  183.1960  178.5990  142.3670 C   0  0  0  0  0  3  0  0  0  0  0  0
  191.0710  175.9210  139.3510 N   0  0  0  0  0  2  0  0  0  0  0  0
  191.6940  176.2680  138.0790 C   0  0  2  0  0  3  0  0  0  0  0  0
  190.6100  174.9010  136.2960 N   0  0  0  0  0  0  0  0  0  0  0  0
  191.6080  175.1390  137.0800 C   0  0  0  0  0  3  0  0  0  0  0  0
  189.1490  175.8480  136.2380 S   0  0  1  0  0  0  0  0  0  0  0  0
  188.4970  175.5300  134.5940 C   0  0  0  0  0  1  0  0  0  0  0  0
  188.2060  175.0980  137.1670 O   0  0  0  0  0  0  0  0  0  0  0  0
  193.0920  176.7710  138.2740 C   0  0  0  0  0  3  0  0  0  0  0  0
  193.8770  176.8530  137.3430 O   0  0  0  0  0  0  0  0  0  0  0  0
  1  6  1  0  0  0  0
  2 11  1  0  0  0  0
  2 12  1  1  0  0  0
  3 16  1  6  0  0  0
  3 10  1  0  0  0  0
  4  8  2  0  0  0  0
  5  1  2  0  0  0  0
  7  9  2  0  0  0  0
  7  4  1  0  0  0  0
  8  1  1  0  0  0  0
  9  5  1  0  0  0  0
 11 10  1  6  0  0  0
 11  7  1  0  0  0  0
 12 15  1  0  0  0  0
 13 35  1  6  0  0  0
 13  2  1  0  0  0  0
 14  3  1  0  0  0  0
 14 13  1  0  0  0  0
 15  4  1  0  0  0  0
 16 17  1  1  0  0  0
 16 18  1  0  0  0  0
 19 20  1  6  0  0  0
 19 21  1  0  0  0  0
 19 18  1  0  0  0  0
 22 21  1  6  0  0  0
 22 25  1  0  0  0  0
 24 22  1  0  0  0  0
 25 29  1  1  0  0  0
 26 25  1  0  0  0  0
 27 23  1  1  0  0  0
 27 24  1  0  0  0  0
 27 26  1  0  0  0  0
 28 33  1  0  0  0  0
 29 28  2  0  0  0  0
 29 34  1  0  0  0  0
 32 31  1  0  0  0  0
 32 30  1  0  0  0  0
 33 31  2  0  0  0  0
 34 32  2  0  0  0  0
 36 38  1  6  0  0  0
 36 42  1  0  0  0  0
 36 35  1  0  0  0  0
 37 38  2  0  0  0  0
 39 40  1  6  0  0  0
 39 37  1  0  0  0  0
 39 41  2  0  0  0  0
 43 42  2  0  0  0  0
M  END
>  <MODEL>
1

>  <REMARK>
 VINA RESULT:      -8.5      0.000      0.000
  Name = 
  11 active torsions:
  status: ('A' for Active; 'I' for Inactive)
    1  A    between atoms: N_1  and  C_34
    2  A    between atoms: N_1  and  CA_35
    3  A    between atoms: C_2  and  C_6
    4  A    between atoms: C_2  and  C_13
    5  A    between atoms: C_3  and  C_4
    6  A    between atoms: C_3  and  C_12
    7  A    between atoms: C_6  and  C_12
    8  A    between atoms: N_9  and  S_19
    9  A    between atoms: C_14  and  C_22
   10  A    between atoms: C_28  and  CA_35
   11  A    between atoms: C_32  and  CA_35
                            x       y       z     vdW  Elec       q    Type
                         _______ _______ _______ _____ _____    ______ ____

>  <TORSDO>
F 11

$$$$
=
 OpenBabel11052416143D

 43 47  0  0  1  0  0  0  0  0999 V2000
  190.9820  176.7490  146.7530 C   0  0  0  0  0  0  0  0  0  0  0  0
  189.5610  177.3690  141.8900 C   0  0  2  0  0  3  0  0  0  0  0  0
  187.0510  178.2900  141.9470 C   0  0  2  0  0  3  0  0  0  0  0  0
  190.9680  176.9230  144.3330 C   0  0  0  0  0  0  0  0  0  0  0  0
  189.7590  177.4220  146.8140 C   0  0  0  0  0  3  0  0  0  0  0  0
  191.5870  176.3400  147.8940 F   0  0  0  0  0  0  0  0  0  0  0  0
  189.7120  177.5720  144.3910 C   0  0  0  0  0  0  0  0  0  0  0  0
  191.5820  176.5010  145.5170 C   0  0  0  0  0  3  0  0  0  0  0  0
  189.1310  177.8390  145.6390 C   0  0  0  0  0  3  0  0  0  0  0  0
  187.6570  178.1260  143.2280 O   0  0  0  0  0  0  0  0  0  0  0  0
  189.0720  178.1110  143.1360 C   0  0  2  0  0  3  0  0  0  0  0  0
  191.0790  177.3960  141.8500 C   0  0  0  0  0  2  0  0  0  0  0  0
  188.9490  178.0490  140.6650 C   0  0  2  0  0  3  0  0  0  0  0  0
  187.9010  178.9390  141.0170 O   0  0  0  0  0  0  0  0  0  0  0  0
  191.6240  176.5780  143.0210 C   0  0  0  0  0  2  0  0  0  0  0  0
  185.7430  179.0570  142.0850 C   0  0  2  0  0  3  0  0  0  0  0  0
  185.3210  179.0260  143.4160 O   0  0  0  0  0  1  0  0  0  0  0  0
  184.6770  178.4270  141.1910 C   0  0  0  0  0  2  0  0  0  0  0  0
  184.8600  178.7450  139.7080 C   0  0  2  0  0  3  0  0  0  0  0  0
  184.4790  180.0600  139.4380 O   0  0  0  0  0  1  0  0  0  0  0  0
  184.0930  177.7820  138.8000 C   0  0  0  0  0  2  0  0  0  0  0  0
  182.7640  178.3520  138.2980 C   0  0  1  0  0  3  0  0  0  0  0  0
  180.6010  177.8340  135.6450 C   0  0  0  0  0  1  0  0  0  0  0  0
  182.5950  178.1220  136.9320 O   0  0  0  0  0  0  0  0  0  0  0  0
  181.5820  177.7450  138.9950 C   0  0  2  0  0  3  0  0  0  0  0  0
  180.6460  177.4700  138.0030 O   0  0  0  0  0  0  0  0  0  0  0  0
  181.4150  177.3620  136.8330 C   0  0  1  0  0  3  0  0  0  0  0  0
  180.5100  179.9330  139.6540 C   0  0  0  0  0  3  0  0  0  0  0  0
  181.0170  178.6790  140.0180 C   0  0  0  0  0  0  0  0  0  0  0  0
  180.5000  178.7830  143.7540 C   0  0  0  0  0  1  0  0  0  0  0  0
  180.0150  180.3880  141.9460 N   0  0  0  0  0  0  0  0  0  0  0  0
  180.5060  179.1760  142.3210 C   0  0  0  0  0  0  0  0  0  0  0  0
  180.0060  180.7810  140.6440 C   0  0  0  0  0  3  0  0  0  0  0  0
  181.0190  178.3000  141.3610 C   0  0  0  0  0  3  0  0  0  0  0  0
  188.4810  177.0420  139.7200 N   0  0  0  0  0  2  0  0  0  0  0  0
  189.0020  177.3790  138.4010 C   0  0  2  0  0  3  0  0  0  0  0  0
  191.3200  176.6060  137.8950 N   0  0  0  0  0  0  0  0  0  0  0  0
  190.5090  177.4780  138.3960 C   0  0  0  0  0  3  0  0  0  0  0  0
  190.8270  175.1260  137.1200 S   0  0  1  0  0  0  0  0  0  0  0  0
  191.4120  175.3120  135.4310 C   0  0  0  0  0  1  0  0  0  0  0  0
  191.7540  174.0840  137.7270 O   0  0  0  0  0  0  0  0  0  0  0  0
  188.3340  178.5990  137.8440 C   0  0  0  0  0  3  0  0  0  0  0  0
  188.9700  179.5990  137.5550 O   0  0  0  0  0  0  0  0  0  0  0  0
  1  5  1  0  0  0  0
  1  6  1  0  0  0  0
  2 12  1  6  0  0  0
  2 11  1  0  0  0  0
  3 16  1  1  0  0  0
  3 10  1  0  0  0  0
  4  7  2  0  0  0  0
  4  8  1  0  0  0  0
  7  9  1  0  0  0  0
  8  1  2  0  0  0  0
  9  5  2  0  0  0  0
 11 10  1  1  0  0  0
 11  7  1  0  0  0  0
 12 15  1  0  0  0  0
 13 35  1  6  0  0  0
 13 14  1  0  0  0  0
 13  2  1  0  0  0  0
 14  3  1  0  0  0  0
 15  4  1  0  0  0  0
 16 17  1  1  0  0  0
 18 16  1  0  0  0  0
 19 20  1  1  0  0  0
 19 18  1  0  0  0  0
 21 19  1  0  0  0  0
 22 21  1  1  0  0  0
 22 25  1  0  0  0  0
 24 22  1  0  0  0  0
 25 29  1  1  0  0  0
 26 25  1  0  0  0  0
 27 23  1  6  0  0  0
 27 24  1  0  0  0  0
 27 26  1  0  0  0  0
 28 29  2  0  0  0  0
 28 33  1  0  0  0  0
 29 34  1  0  0  0  0
 31 32  1  0  0  0  0
 32 30  1  0  0  0  0
 33 31  2  0  0  0  0
 34 32  2  0  0  0  0
 36 42  1  1  0  0  0
 36 35  1  0  0  0  0
 37 38  2  0  0  0  0
 38 36  1  0  0  0  0
 39 40  1  6  0  0  0
 39 41  2  0  0  0  0
 39 37  1  0  0  0  0
 43 42  2  0  0  0  0
M  END
>  <MODEL>
2

>  <REMARK>
 VINA RESULT:      -8.4      1.922      2.758
  Name = 
  11 active torsions:
  status: ('A' for Active; 'I' for Inactive)
    1  A    between atoms: N_1  and  C_34
    2  A    between atoms: N_1  and  CA_35
    3  A    between atoms: C_2  and  C_6
    4  A    between atoms: C_2  and  C_13
    5  A    between atoms: C_3  and  C_4
    6  A    between atoms: C_3  and  C_12
    7  A    between atoms: C_6  and  C_12
    8  A    between atoms: N_9  and  S_19
    9  A    between atoms: C_14  and  C_22
   10  A    between atoms: C_28  and  CA_35
   11  A    between atoms: C_32  and  CA_35
                            x       y       z     vdW  Elec       q    Type
                         _______ _______ _______ _____ _____    ______ ____

>  <TORSDO>
F 11

$$$$
=
 OpenBabel11052416143D

 43 47  0  0  1  0  0  0  0  0999 V2000
  190.5990  176.7960  146.5840 C   0  0  0  0  0  0  0  0  0  0  0  0
  189.4640  177.4540  141.6520 C   0  0  2  0  0  3  0  0  0  0  0  0
  186.9510  178.3660  141.5690 C   0  0  2  0  0  3  0  0  0  0  0  0
  190.7260  176.9910  144.1690 C   0  0  0  0  0  0  0  0  0  0  0  0
  189.3720  177.4640  146.5790 C   0  0  0  0  0  3  0  0  0  0  0  0
  191.1380  176.3790  147.7550 F   0  0  0  0  0  0  0  0  0  0  0  0
  189.4670  177.6360  144.1590 C   0  0  0  0  0  0  0  0  0  0  0  0
  191.2720  176.5600  145.3830 C   0  0  0  0  0  3  0  0  0  0  0  0
  188.8130  177.8890  145.3730 C   0  0  0  0  0  3  0  0  0  0  0  0
  187.4820  178.1930  142.8820 O   0  0  0  0  0  0  0  0  0  0  0  0
  188.9000  178.1830  142.8730 C   0  0  2  0  0  3  0  0  0  0  0  0
  190.9810  177.4870  141.7010 C   0  0  0  0  0  2  0  0  0  0  0  0
  188.9220  178.1430  140.3990 C   0  0  2  0  0  3  0  0  0  0  0  0
  187.8520  179.0260  140.6960 O   0  0  0  0  0  0  0  0  0  0  0  0
  191.4600  176.6600  142.8950 C   0  0  0  0  0  2  0  0  0  0  0  0
  185.6340  179.1280  141.6370 C   0  0  2  0  0  3  0  0  0  0  0  0
  185.2650  179.3060  142.9720 O   0  0  0  0  0  1  0  0  0  0  0  0
  184.5470  178.3470  140.9020 C   0  0  0  0  0  2  0  0  0  0  0  0
  184.3920  178.7510  139.4360 C   0  0  2  0  0  3  0  0  0  0  0  0
  184.5660  180.1280  139.2860 O   0  0  0  0  0  1  0  0  0  0  0  0
  183.0470  178.3270  138.8470 C   0  0  0  0  0  2  0  0  0  0  0  0
  182.9600  176.8270  138.5530 C   0  0  1  0  0  3  0  0  0  0  0  0
  180.4840  174.4520  138.0940 C   0  0  0  0  0  1  0  0  0  0  0  0
  181.7320  176.3000  138.9540 O   0  0  0  0  0  0  0  0  0  0  0  0
  183.1130  176.5210  137.0910 C   0  0  2  0  0  3  0  0  0  0  0  0
  182.1340  175.5800  136.7890 O   0  0  0  0  0  0  0  0  0  0  0  0
  181.1600  175.7720  137.7820 C   0  0  1  0  0  3  0  0  0  0  0  0
  185.4120  176.7480  136.0750 C   0  0  0  0  0  3  0  0  0  0  0  0
  184.4770  175.9880  136.7890 C   0  0  0  0  0  0  0  0  0  0  0  0
  186.4520  172.8250  137.3610 C   0  0  0  0  0  1  0  0  0  0  0  0
  186.9760  174.9500  136.2250 N   0  0  0  0  0  0  0  0  0  0  0  0
  186.0820  174.1930  136.9170 C   0  0  0  0  0  0  0  0  0  0  0  0
  186.6700  176.2050  135.8030 C   0  0  0  0  0  3  0  0  0  0  0  0
  184.8130  174.7000  137.2090 C   0  0  0  0  0  3  0  0  0  0  0  0
  188.5140  177.1420  139.4200 N   0  0  0  0  0  2  0  0  0  0  0  0
  189.2780  177.3630  138.1980 C   0  0  2  0  0  3  0  0  0  0  0  0
  191.3420  176.0270  137.7770 N   0  0  0  0  0  0  0  0  0  0  0  0
  190.7340  177.0020  138.3680 C   0  0  0  0  0  3  0  0  0  0  0  0
  190.5900  174.9260  136.6560 S   0  0  1  0  0  0  0  0  0  0  0  0
  191.9660  174.3010  135.6810 C   0  0  0  0  0  1  0  0  0  0  0  0
  190.1870  173.7500  137.5330 O   0  0  0  0  0  0  0  0  0  0  0  0
  189.0790  178.7530  137.6720 C   0  0  0  0  0  3  0  0  0  0  0  0
  187.9820  179.1480  137.3120 O   0  0  0  0  0  0  0  0  0  0  0  0
  1  6  1  0  0  0  0
  2 12  1  6  0  0  0
  2 11  1  0  0  0  0
  3 16  1  1  0  0  0
  3 10  1  0  0  0  0
  4  8  1  0  0  0  0
  5  1  1  0  0  0  0
  7  4  2  0  0  0  0
  7  9  1  0  0  0  0
  8  1  2  0  0  0  0
  9  5  2  0  0  0  0
 11 10  1  1  0  0  0
 11  7  1  0  0  0  0
 12 15  1  0  0  0  0
 13 35  1  6  0  0  0
 13 14  1  0  0  0  0
 13  2  1  0  0  0  0
 14  3  1  0  0  0  0
 15  4  1  0  0  0  0
 16 17  1  1  0  0  0
 18 16  1  0  0  0  0
 19 20  1  1  0  0  0
 19 18  1  0  0  0  0
 21 19  1  0  0  0  0
 22 21  1  6  0  0  0
 22 24  1  0  0  0  0
 25 29  1  1  0  0  0
 25 22  1  0  0  0  0
 26 25  1  0  0  0  0
 26 27  1  0  0  0  0
 27 23  1  1  0  0  0
 27 24  1  0  0  0  0
 28 29  1  0  0  0  0
 29 34  2  0  0  0  0
 31 32  2  0  0  0  0
 32 34  1  0  0  0  0
 32 30  1  0  0  0  0
 33 28  2  0  0  0  0
 33 31  1  0  0  0  0
 36 42  1  1  0  0  0
 36 38  1  0  0  0  0
 36 35  1  0  0  0  0
 37 38  2  0  0  0  0
 39 40  1  6  0  0  0
 39 41  2  0  0  0  0
 39 37  1  0  0  0  0
 43 42  2  0  0  0  0
M  END
>  <MODEL>
3

>  <REMARK>
 VINA RESULT:      -8.3      2.515      4.332
  Name = 
  11 active torsions:
  status: ('A' for Active; 'I' for Inactive)
    1  A    between atoms: N_1  and  C_34
    2  A    between atoms: N_1  and  CA_35
    3  A    between atoms: C_2  and  C_6
    4  A    between atoms: C_2  and  C_13
    5  A    between atoms: C_3  and  C_4
    6  A    between atoms: C_3  and  C_12
    7  A    between atoms: C_6  and  C_12
    8  A    between atoms: N_9  and  S_19
    9  A    between atoms: C_14  and  C_22
   10  A    between atoms: C_28  and  CA_35
   11  A    between atoms: C_32  and  CA_35
                            x       y       z     vdW  Elec       q    Type
                         _______ _______ _______ _____ _____    ______ ____

>  <TORSDO>
F 11

$$$$
=
 OpenBabel11052416143D

 43 47  0  0  1  0  0  0  0  0999 V2000
  191.1850  176.8640  147.1460 C   0  0  0  0  0  0  0  0  0  0  0  0
  187.2440  177.8450  144.0550 C   0  0  2  0  0  3  0  0  0  0  0  0
  188.2730  178.2390  141.6180 C   0  0  2  0  0  3  0  0  0  0  0  0
  188.9570  177.1380  146.2250 C   0  0  0  0  0  0  0  0  0  0  0  0
  191.7230  176.8580  145.8570 C   0  0  0  0  0  3  0  0  0  0  0  0
  191.9990  176.7310  148.2200 F   0  0  0  0  0  0  0  0  0  0  0  0
  189.5040  177.1670  144.9210 C   0  0  0  0  0  0  0  0  0  0  0  0
  189.8070  177.0040  147.3280 C   0  0  0  0  0  3  0  0  0  0  0  0
  190.8850  177.0000  144.7490 C   0  0  0  0  0  3  0  0  0  0  0  0
  189.2230  177.8710  142.6170 O   0  0  0  0  0  0  0  0  0  0  0  0
  188.6000  177.2240  143.7150 C   0  0  2  0  0  3  0  0  0  0  0  0
  186.6310  177.1030  145.2300 C   0  0  0  0  0  2  0  0  0  0  0  0
  186.3610  177.7610  142.8100 C   0  0  2  0  0  3  0  0  0  0  0  0
  187.1070  177.4340  141.6480 O   0  0  0  0  0  0  0  0  0  0  0  0
  187.4850  177.3470  146.4750 C   0  0  0  0  0  2  0  0  0  0  0  0
  188.9170  178.1790  140.2400 C   0  0  2  0  0  3  0  0  0  0  0  0
  187.9890  178.5740  139.2740 O   0  0  0  0  0  1  0  0  0  0  0  0
  189.3890  176.7560  139.9510 C   0  0  0  0  0  2  0  0  0  0  0  0
  190.8240  176.6850  139.4290 C   0  0  2  0  0  3  0  0  0  0  0  0
  191.6660  177.4870  140.2000 O   0  0  0  0  0  1  0  0  0  0  0  0
  190.9340  177.0770  137.9550 C   0  0  0  0  0  2  0  0  0  0  0  0
  191.7390  176.0770  137.1200 C   0  0  1  0  0  3  0  0  0  0  0  0
  195.0290  175.0390  136.8470 C   0  0  0  0  0  1  0  0  0  0  0  0
  193.0910  176.4180  137.0810 O   0  0  0  0  0  0  0  0  0  0  0  0
  191.6530  174.6800  137.6630 C   0  0  2  0  0  3  0  0  0  0  0  0
  192.9460  174.1700  137.6210 O   0  0  0  0  0  0  0  0  0  0  0  0
  193.7630  175.3110  137.6330 C   0  0  1  0  0  3  0  0  0  0  0  0
  191.1680  173.1420  135.7210 C   0  0  0  0  0  3  0  0  0  0  0  0
  190.7210  173.8400  136.8500 C   0  0  0  0  0  0  0  0  0  0  0  0
  187.0630  172.9140  136.8270 C   0  0  0  0  0  1  0  0  0  0  0  0
  188.9530  172.3250  135.3580 N   0  0  0  0  0  0  0  0  0  0  0  0
  188.4970  172.9980  136.4490 C   0  0  0  0  0  0  0  0  0  0  0  0
  190.2590  172.3810  134.9810 C   0  0  0  0  0  3  0  0  0  0  0  0
  189.3750  173.7700  137.2140 C   0  0  0  0  0  3  0  0  0  0  0  0
  185.6390  179.0150  142.6280 N   0  0  0  0  0  2  0  0  0  0  0  0
  184.3240  178.7080  142.0790 C   0  0  2  0  0  3  0  0  0  0  0  0
  183.5220  178.7010  139.7160 N   0  0  0  0  0  0  0  0  0  0  0  0
  184.1430  179.2770  140.6920 C   0  0  0  0  0  3  0  0  0  0  0  0
  182.7650  177.1350  139.8120 S   0  0  1  0  0  0  0  0  0  0  0  0
  181.0800  177.5040  140.3180 C   0  0  0  0  0  1  0  0  0  0  0  0
  182.6360  176.7170  138.3550 O   0  0  0  0  0  0  0  0  0  0  0  0
  183.2300  179.1070  143.0220 C   0  0  0  0  0  3  0  0  0  0  0  0
  183.3790  179.0590  144.2320 O   0  0  0  0  0  0  0  0  0  0  0  0
  1  8  1  0  0  0  0
  1  6  1  0  0  0  0
  2 12  1  1  0  0  0
  3 16  1  6  0  0  0
  3 14  1  0  0  0  0
  3 10  1  0  0  0  0
  4 15  1  0  0  0  0
  4  8  2  0  0  0  0
  5  1  2  0  0  0  0
  7  4  1  0  0  0  0
  9  7  2  0  0  0  0
  9  5  1  0  0  0  0
 11 10  1  6  0  0  0
 11  2  1  0  0  0  0
 11  7  1  0  0  0  0
 12 15  1  0  0  0  0
 13 35  1  6  0  0  0
 13  2  1  0  0  0  0
 14 13  1  0  0  0  0
 16 17  1  6  0  0  0
 18 16  1  0  0  0  0
 19 18  1  0  0  0  0
 19 20  1  1  0  0  0
 21 19  1  0  0  0  0
 22 25  1  0  0  0  0
 22 21  1  1  0  0  0
 24 22  1  0  0  0  0
 24 27  1  0  0  0  0
 25 29  1  6  0  0  0
 26 27  1  0  0  0  0
 26 25  1  0  0  0  0
 27 23  1  6  0  0  0
 28 29  1  0  0  0  0
 29 34  2  0  0  0  0
 31 32  2  0  0  0  0
 32 30  1  0  0  0  0
 32 34  1  0  0  0  0
 33 31  1  0  0  0  0
 33 28  2  0  0  0  0
 36 38  1  6  0  0  0
 36 35  1  0  0  0  0
 36 42  1  0  0  0  0
 37 39  1  0  0  0  0
 37 38  2  0  0  0  0
 39 40  1  6  0  0  0
 41 39  2  0  0  0  0
 42 43  2  0  0  0  0
M  END
>  <MODEL>
4

>  <REMARK>
 VINA RESULT:      -8.3      2.519      8.322
  Name = 
  11 active torsions:
  status: ('A' for Active; 'I' for Inactive)
    1  A    between atoms: N_1  and  C_34
    2  A    between atoms: N_1  and  CA_35
    3  A    between atoms: C_2  and  C_6
    4  A    between atoms: C_2  and  C_13
    5  A    between atoms: C_3  and  C_4
    6  A    between atoms: C_3  and  C_12
    7  A    between atoms: C_6  and  C_12
    8  A    between atoms: N_9  and  S_19
    9  A    between atoms: C_14  and  C_22
   10  A    between atoms: C_28  and  CA_35
   11  A    between atoms: C_32  and  CA_35
                            x       y       z     vdW  Elec       q    Type
                         _______ _______ _______ _____ _____    ______ ____

>  <TORSDO>
F 11

$$$$
=
 OpenBabel11052416143D

 43 47  0  0  1  0  0  0  0  0999 V2000
  191.1640  176.7420  147.2370 C   0  0  0  0  0  0  0  0  0  0  0  0
  187.1200  178.1200  144.4440 C   0  0  2  0  0  3  0  0  0  0  0  0
  187.9950  178.3970  141.9320 C   0  0  2  0  0  3  0  0  0  0  0  0
  188.9120  177.2440  146.4850 C   0  0  0  0  0  0  0  0  0  0  0  0
  191.5980  176.6750  145.9100 C   0  0  0  0  0  3  0  0  0  0  0  0
  192.0400  176.5280  148.2470 F   0  0  0  0  0  0  0  0  0  0  0  0
  189.3570  177.2120  145.1420 C   0  0  0  0  0  0  0  0  0  0  0  0
  189.8260  177.0260  147.5210 C   0  0  0  0  0  3  0  0  0  0  0  0
  190.6970  176.9010  144.8680 C   0  0  0  0  0  3  0  0  0  0  0  0
  188.9750  177.9350  142.8590 O   0  0  0  0  0  0  0  0  0  0  0  0
  188.3750  177.3600  144.0090 C   0  0  2  0  0  3  0  0  0  0  0  0
  186.5260  177.4510  145.6710 C   0  0  0  0  0  2  0  0  0  0  0  0
  186.1400  178.1260  143.2700 C   0  0  2  0  0  3  0  0  0  0  0  0
  186.7570  177.7190  142.0590 O   0  0  0  0  0  0  0  0  0  0  0  0
  187.4940  177.6070  146.8440 C   0  0  0  0  0  2  0  0  0  0  0  0
  188.5210  178.2660  140.5090 C   0  0  2  0  0  3  0  0  0  0  0  0
  187.4780  178.4790  139.6040 O   0  0  0  0  0  1  0  0  0  0  0  0
  189.1080  176.8720  140.3010 C   0  0  0  0  0  2  0  0  0  0  0  0
  190.5260  176.8870  139.7310 C   0  0  2  0  0  3  0  0  0  0  0  0
  191.3670  177.6610  140.5320 O   0  0  0  0  0  1  0  0  0  0  0  0
  190.5760  177.3840  138.2870 C   0  0  0  0  0  2  0  0  0  0  0  0
  190.9430  176.2900  137.2810 C   0  0  1  0  0  3  0  0  0  0  0  0
  193.7550  174.4810  136.3870 C   0  0  0  0  0  1  0  0  0  0  0  0
  192.3130  176.2790  137.0180 O   0  0  0  0  0  0  0  0  0  0  0  0
  190.5790  174.9180  137.7700 C   0  0  2  0  0  3  0  0  0  0  0  0
  191.6680  174.1020  137.4790 O   0  0  0  0  0  0  0  0  0  0  0  0
  192.7480  174.9950  137.3950 C   0  0  1  0  0  3  0  0  0  0  0  0
  189.2670  173.1120  136.5920 C   0  0  0  0  0  3  0  0  0  0  0  0
  189.3400  174.4150  137.1000 C   0  0  0  0  0  0  0  0  0  0  0  0
  185.9220  175.7120  136.1680 C   0  0  0  0  0  1  0  0  0  0  0  0
  187.0410  173.5400  135.8390 N   0  0  0  0  0  0  0  0  0  0  0  0
  187.0930  174.8110  136.3220 C   0  0  0  0  0  0  0  0  0  0  0  0
  188.0950  172.6890  135.9600 C   0  0  0  0  0  3  0  0  0  0  0  0
  188.2470  175.2720  136.9600 C   0  0  0  0  0  3  0  0  0  0  0  0
  185.5410  179.4480  143.1310 N   0  0  0  0  0  2  0  0  0  0  0  0
  184.1540  179.2770  142.7170 C   0  0  2  0  0  3  0  0  0  0  0  0
  181.9940  178.7350  143.8410 N   0  0  0  0  0  0  0  0  0  0  0  0
  183.2850  178.7710  143.8430 C   0  0  0  0  0  3  0  0  0  0  0  0
  180.9910  179.2700  142.5210 S   0  0  1  0  0  0  0  0  0  0  0  0
  179.6810  178.0410  142.4530 C   0  0  0  0  0  1  0  0  0  0  0  0
  180.3110  180.5120  143.0770 O   0  0  0  0  0  0  0  0  0  0  0  0
  184.0510  178.4390  141.4790 C   0  0  0  0  0  3  0  0  0  0  0  0
  184.2520  178.9080  140.3700 O   0  0  0  0  0  0  0  0  0  0  0  0
  1  8  1  0  0  0  0
  1  6  1  0  0  0  0
  2 12  1  1  0  0  0
  3 16  1  6  0  0  0
  3 14  1  0  0  0  0
  3 10  1  0  0  0  0
  4 15  1  0  0  0  0
  4  8  2  0  0  0  0
  5  1  2  0  0  0  0
  7  4  1  0  0  0  0
  9  7  2  0  0  0  0
  9  5  1  0  0  0  0
 11 10  1  6  0  0  0
 11  2  1  0  0  0  0
 11  7  1  0  0  0  0
 12 15  1  0  0  0  0
 13 35  1  6  0  0  0
 13  2  1  0  0  0  0
 14 13  1  0  0  0  0
 16 17  1  6  0  0  0
 18 16  1  0  0  0  0
 19 18  1  0  0  0  0
 19 20  1  1  0  0  0
 21 19  1  0  0  0  0
 22 25  1  0  0  0  0
 22 21  1  1  0  0  0
 24 22  1  0  0  0  0
 24 27  1  0  0  0  0
 25 29  1  6  0  0  0
 26 25  1  0  0  0  0
 27 23  1  6  0  0  0
 27 26  1  0  0  0  0
 28 29  1  0  0  0  0
 30 32  1  0  0  0  0
 31 33  1  0  0  0  0
 31 32  2  0  0  0  0
 32 34  1  0  0  0  0
 33 28  2  0  0  0  0
 34 29  2  0  0  0  0
 36 42  1  6  0  0  0
 36 35  1  0  0  0  0
 36 38  1  0  0  0  0
 37 38  2  0  0  0  0
 39 40  1  1  0  0  0
 39 41  2  0  0  0  0
 39 37  1  0  0  0  0
 43 42  2  0  0  0  0
M  END
>  <MODEL>
5

>  <REMARK>
 VINA RESULT:      -8.3      2.894      8.150
  Name = 
  11 active torsions:
  status: ('A' for Active; 'I' for Inactive)
    1  A    between atoms: N_1  and  C_34
    2  A    between atoms: N_1  and  CA_35
    3  A    between atoms: C_2  and  C_6
    4  A    between atoms: C_2  and  C_13
    5  A    between atoms: C_3  and  C_4
    6  A    between atoms: C_3  and  C_12
    7  A    between atoms: C_6  and  C_12
    8  A    between atoms: N_9  and  S_19
    9  A    between atoms: C_14  and  C_22
   10  A    between atoms: C_28  and  CA_35
   11  A    between atoms: C_32  and  CA_35
                            x       y       z     vdW  Elec       q    Type
                         _______ _______ _______ _____ _____    ______ ____

>  <TORSDO>
F 11

$$$$
=
 OpenBabel11052416143D

 43 47  0  0  1  0  0  0  0  0999 V2000
  185.2510  178.5770  145.9590 C   0  0  0  0  0  0  0  0  0  0  0  0
  183.1850  179.0570  141.3170 C   0  0  2  0  0  3  0  0  0  0  0  0
  185.1990  178.8560  139.5680 C   0  0  2  0  0  3  0  0  0  0  0  0
  183.6910  178.7560  144.1100 C   0  0  0  0  0  0  0  0  0  0  0  0
  186.2800  178.2610  145.0690 C   0  0  0  0  0  3  0  0  0  0  0  0
  185.5030  178.6410  147.2880 F   0  0  0  0  0  0  0  0  0  0  0  0
  184.7390  178.4710  143.2030 C   0  0  0  0  0  0  0  0  0  0  0  0
  183.9630  178.8240  145.4800 C   0  0  0  0  0  3  0  0  0  0  0  0
  186.0230  178.2000  143.6980 C   0  0  0  0  0  3  0  0  0  0  0  0
  185.5700  178.6670  140.9320 O   0  0  0  0  0  0  0  0  0  0  0  0
  184.4530  178.3090  141.7320 C   0  0  2  0  0  3  0  0  0  0  0  0
  182.0310  178.6240  142.2050 C   0  0  0  0  0  2  0  0  0  0  0  0
  182.9140  178.7490  139.8450 C   0  0  2  0  0  3  0  0  0  0  0  0
  184.0290  178.1370  139.2140 O   0  0  0  0  0  0  0  0  0  0  0  0
  182.3000  179.0900  143.6360 C   0  0  0  0  0  2  0  0  0  0  0  0
  186.3520  178.4630  138.6560 C   0  0  2  0  0  3  0  0  0  0  0  0
  185.9870  177.3490  137.8950 O   0  0  0  0  0  1  0  0  0  0  0  0
  187.5850  178.1340  139.4930 C   0  0  0  0  0  2  0  0  0  0  0  0
  188.9030  178.3570  138.7510 C   0  0  2  0  0  3  0  0  0  0  0  0
  188.7730  179.3930  137.8240 O   0  0  0  0  0  1  0  0  0  0  0  0
  189.4090  177.0940  138.0550 C   0  0  0  0  0  2  0  0  0  0  0  0
  190.5480  176.4020  138.8090 C   0  0  1  0  0  3  0  0  0  0  0  0
  193.7990  175.4010  138.1690 C   0  0  0  0  0  1  0  0  0  0  0  0
  191.4570  175.8130  137.9300 O   0  0  0  0  0  0  0  0  0  0  0  0
  191.3240  177.3540  139.6710 C   0  0  2  0  0  3  0  0  0  0  0  0
  192.6670  177.0510  139.4690 O   0  0  0  0  0  0  0  0  0  0  0  0
  192.6890  176.4320  138.2090 C   0  0  1  0  0  3  0  0  0  0  0  0
  190.0880  176.1890  141.5390 C   0  0  0  0  0  3  0  0  0  0  0  0
  190.9540  177.2040  141.1130 C   0  0  0  0  0  0  0  0  0  0  0  0
  191.6520  178.9360  144.3910 C   0  0  0  0  0  1  0  0  0  0  0  0
  190.2720  176.9850  143.7830 N   0  0  0  0  0  0  0  0  0  0  0  0
  191.1120  177.9810  143.3890 C   0  0  0  0  0  0  0  0  0  0  0  0
  189.7570  176.0950  142.8930 C   0  0  0  0  0  3  0  0  0  0  0  0
  191.4660  178.1090  142.0440 C   0  0  0  0  0  3  0  0  0  0  0  0
  182.5250  179.9680  139.1450 N   0  0  0  0  0  2  0  0  0  0  0  0
  181.1360  179.8280  138.7260 C   0  0  2  0  0  3  0  0  0  0  0  0
  179.8890  181.9600  139.0790 N   0  0  0  0  0  0  0  0  0  0  0  0
  180.2230  180.7740  139.4680 C   0  0  0  0  0  3  0  0  0  0  0  0
  180.4370  182.7080  137.6040 S   0  0  1  0  0  0  0  0  0  0  0  0
  179.5320  184.2600  137.5490 C   0  0  0  0  0  1  0  0  0  0  0  0
  181.8660  183.1180  137.9260 O   0  0  0  0  0  0  0  0  0  0  0  0
  180.6830  178.4010  138.7990 C   0  0  0  0  0  3  0  0  0  0  0  0
  179.6600  178.0850  139.3840 O   0  0  0  0  0  0  0  0  0  0  0  0
  1  6  1  0  0  0  0
  2 11  1  0  0  0  0
  2 12  1  1  0  0  0
  3 16  1  6  0  0  0
  3 10  1  0  0  0  0
  4  8  2  0  0  0  0
  5  1  2  0  0  0  0
  7  9  2  0  0  0  0
  7  4  1  0  0  0  0
  8  1  1  0  0  0  0
  9  5  1  0  0  0  0
 11 10  1  6  0  0  0
 11  7  1  0  0  0  0
 12 15  1  0  0  0  0
 13 35  1  6  0  0  0
 13  2  1  0  0  0  0
 14  3  1  0  0  0  0
 14 13  1  0  0  0  0
 15  4  1  0  0  0  0
 16 17  1  1  0  0  0
 16 18  1  0  0  0  0
 19 20  1  6  0  0  0
 19 18  1  0  0  0  0
 21 19  1  0  0  0  0
 22 21  1  6  0  0  0
 22 25  1  0  0  0  0
 24 27  1  0  0  0  0
 24 22  1  0  0  0  0
 25 29  1  1  0  0  0
 26 25  1  0  0  0  0
 27 23  1  1  0  0  0
 27 26  1  0  0  0  0
 28 33  1  0  0  0  0
 29 28  2  0  0  0  0
 29 34  1  0  0  0  0
 32 31  1  0  0  0  0
 32 30  1  0  0  0  0
 33 31  2  0  0  0  0
 34 32  2  0  0  0  0
 36 42  1  1  0  0  0
 36 35  1  0  0  0  0
 36 38  1  0  0  0  0
 37 38  2  0  0  0  0
 39 40  1  1  0  0  0
 39 41  2  0  0  0  0
 39 37  1  0  0  0  0
 42 43  2  0  0  0  0
M  END
>  <MODEL>
6

>  <REMARK>
 VINA RESULT:      -8.2      2.881      8.563
  Name = 
  11 active torsions:
  status: ('A' for Active; 'I' for Inactive)
    1  A    between atoms: N_1  and  C_34
    2  A    between atoms: N_1  and  CA_35
    3  A    between atoms: C_2  and  C_6
    4  A    between atoms: C_2  and  C_13
    5  A    between atoms: C_3  and  C_4
    6  A    between atoms: C_3  and  C_12
    7  A    between atoms: C_6  and  C_12
    8  A    between atoms: N_9  and  S_19
    9  A    between atoms: C_14  and  C_22
   10  A    between atoms: C_28  and  CA_35
   11  A    between atoms: C_32  and  CA_35
                            x       y       z     vdW  Elec       q    Type
                         _______ _______ _______ _____ _____    ______ ____

>  <TORSDO>
F 11

$$$$
=
 OpenBabel11052416143D

 43 47  0  0  1  0  0  0  0  0999 V2000
  184.3600  178.5430  143.7520 C   0  0  0  0  0  0  0  0  0  0  0  0
  188.7530  177.5960  141.3320 C   0  0  2  0  0  3  0  0  0  0  0  0
  188.2730  177.9500  138.7250 C   0  0  2  0  0  3  0  0  0  0  0  0
  186.6880  178.0900  143.2390 C   0  0  0  0  0  0  0  0  0  0  0  0
  184.1390  178.9360  142.4290 C   0  0  0  0  0  3  0  0  0  0  0  0
  183.3430  178.5740  144.6450 F   0  0  0  0  0  0  0  0  0  0  0  0
  186.4580  178.4530  141.8910 C   0  0  0  0  0  0  0  0  0  0  0  0
  185.6300  178.1220  144.1530 C   0  0  0  0  0  3  0  0  0  0  0  0
  185.1860  178.8990  141.5060 C   0  0  0  0  0  3  0  0  0  0  0  0
  187.1730  178.2480  139.5820 O   0  0  0  0  0  0  0  0  0  0  0  0
  187.6010  178.5090  140.9090 C   0  0  2  0  0  3  0  0  0  0  0  0
  189.1660  177.9310  142.7550 C   0  0  0  0  0  2  0  0  0  0  0  0
  189.9030  177.7980  140.3460 C   0  0  2  0  0  3  0  0  0  0  0  0
  189.4930  178.5060  139.1860 O   0  0  0  0  0  0  0  0  0  0  0  0
  188.0240  177.5710  143.7050 C   0  0  0  0  0  2  0  0  0  0  0  0
  187.9780  178.4330  137.3120 C   0  0  2  0  0  3  0  0  0  0  0  0
  188.4240  179.7490  137.1650 O   0  0  0  0  0  1  0  0  0  0  0  0
  186.4760  178.3650  137.0450 C   0  0  0  0  0  2  0  0  0  0  0  0
  186.0260  177.0400  136.4310 C   0  0  2  0  0  3  0  0  0  0  0  0
  186.9870  176.5630  135.5380 O   0  0  0  0  0  1  0  0  0  0  0  0
  184.6700  177.1450  135.7330 C   0  0  0  0  0  2  0  0  0  0  0  0
  183.5610  176.3640  136.4430 C   0  0  1  0  0  3  0  0  0  0  0  0
  182.7200  173.0520  136.9980 C   0  0  0  0  0  1  0  0  0  0  0  0
  183.4470  175.0680  135.9390 O   0  0  0  0  0  0  0  0  0  0  0  0
  183.8030  176.2410  137.9200 C   0  0  2  0  0  3  0  0  0  0  0  0
  183.5150  174.9210  138.2500 O   0  0  0  0  0  0  0  0  0  0  0  0
  183.6780  174.2250  137.0430 C   0  0  1  0  0  3  0  0  0  0  0  0
  182.1070  176.7340  139.7230 C   0  0  0  0  0  3  0  0  0  0  0  0
  182.9380  177.1870  138.6910 C   0  0  0  0  0  0  0  0  0  0  0  0
  182.1270  180.8710  138.7210 C   0  0  0  0  0  1  0  0  0  0  0  0
  181.3300  178.9660  140.0670 N   0  0  0  0  0  0  0  0  0  0  0  0
  182.1270  179.4260  139.0650 C   0  0  0  0  0  0  0  0  0  0  0  0
  181.3030  177.6500  140.4070 C   0  0  0  0  0  3  0  0  0  0  0  0
  182.9450  178.5420  138.3560 C   0  0  0  0  0  3  0  0  0  0  0  0
  190.4840  176.5090  139.9890 N   0  0  0  0  0  2  0  0  0  0  0  0
  191.6330  176.7510  139.1250 C   0  0  2  0  0  3  0  0  0  0  0  0
  191.6310  174.9230  137.4270 N   0  0  0  0  0  0  0  0  0  0  0  0
  192.1320  175.4810  138.4780 C   0  0  0  0  0  3  0  0  0  0  0  0
  190.2620  175.5350  136.5390 S   0  0  1  0  0  0  0  0  0  0  0  0
  190.4180  174.7610  134.9240 C   0  0  0  0  0  1  0  0  0  0  0  0
  189.0800  174.8260  137.1830 O   0  0  0  0  0  0  0  0  0  0  0  0
  192.7110  177.5020  139.8460 C   0  0  0  0  0  3  0  0  0  0  0  0
  193.8710  177.1250  139.8330 O   0  0  0  0  0  0  0  0  0  0  0  0
  1  8  1  0  0  0  0
  1  6  1  0  0  0  0
  2 12  1  1  0  0  0
  3 16  1  6  0  0  0
  3 14  1  0  0  0  0
  3 10  1  0  0  0  0
  4 15  1  0  0  0  0
  4  8  2  0  0  0  0
  5  1  2  0  0  0  0
  7  4  1  0  0  0  0
  9  7  2  0  0  0  0
  9  5  1  0  0  0  0
 11 10  1  6  0  0  0
 11  2  1  0  0  0  0
 11  7  1  0  0  0  0
 12 15  1  0  0  0  0
 13 35  1  6  0  0  0
 13  2  1  0  0  0  0
 14 13  1  0  0  0  0
 16 17  1  1  0  0  0
 18 16  1  0  0  0  0
 19 20  1  6  0  0  0
 19 18  1  0  0  0  0
 21 19  1  0  0  0  0
 22 21  1  6  0  0  0
 22 25  1  0  0  0  0
 24 22  1  0  0  0  0
 24 27  1  0  0  0  0
 25 26  1  0  0  0  0
 25 29  1  1  0  0  0
 27 23  1  1  0  0  0
 27 26  1  0  0  0  0
 28 33  1  0  0  0  0
 29 28  2  0  0  0  0
 30 32  1  0  0  0  0
 31 33  2  0  0  0  0
 32 31  1  0  0  0  0
 34 29  1  0  0  0  0
 34 32  2  0  0  0  0
 36 38  1  1  0  0  0
 36 42  1  0  0  0  0
 36 35  1  0  0  0  0
 37 38  2  0  0  0  0
 39 40  1  6  0  0  0
 39 41  2  0  0  0  0
 39 37  1  0  0  0  0
 43 42  2  0  0  0  0
M  END
>  <MODEL>
7

>  <REMARK>
 VINA RESULT:      -8.2      2.384      3.397
  Name = 
  11 active torsions:
  status: ('A' for Active; 'I' for Inactive)
    1  A    between atoms: N_1  and  C_34
    2  A    between atoms: N_1  and  CA_35
    3  A    between atoms: C_2  and  C_6
    4  A    between atoms: C_2  and  C_13
    5  A    between atoms: C_3  and  C_4
    6  A    between atoms: C_3  and  C_12
    7  A    between atoms: C_6  and  C_12
    8  A    between atoms: N_9  and  S_19
    9  A    between atoms: C_14  and  C_22
   10  A    between atoms: C_28  and  CA_35
   11  A    between atoms: C_32  and  CA_35
                            x       y       z     vdW  Elec       q    Type
                         _______ _______ _______ _____ _____    ______ ____

>  <TORSDO>
F 11

$$$$
=
 OpenBabel11052416143D

 43 47  0  0  1  0  0  0  0  0999 V2000
  190.6030  176.9950  146.5900 C   0  0  0  0  0  0  0  0  0  0  0  0
  187.0290  178.2370  143.1640 C   0  0  2  0  0  3  0  0  0  0  0  0
  188.2700  178.3960  140.8000 C   0  0  2  0  0  3  0  0  0  0  0  0
  188.4910  177.4600  145.4890 C   0  0  0  0  0  0  0  0  0  0  0  0
  191.2290  176.8660  145.3480 C   0  0  0  0  0  3  0  0  0  0  0  0
  191.3170  176.8300  147.7280 F   0  0  0  0  0  0  0  0  0  0  0  0
  189.1310  177.3650  144.2300 C   0  0  0  0  0  0  0  0  0  0  0  0
  189.2390  177.2920  146.6580 C   0  0  0  0  0  3  0  0  0  0  0  0
  190.4950  177.0420  144.1740 C   0  0  0  0  0  3  0  0  0  0  0  0
  189.0980  177.9790  141.8840 O   0  0  0  0  0  0  0  0  0  0  0  0
  188.3300  177.4580  142.9570 C   0  0  2  0  0  3  0  0  0  0  0  0
  186.2540  177.6260  144.3180 C   0  0  0  0  0  2  0  0  0  0  0  0
  186.2350  178.1870  141.8590 C   0  0  2  0  0  3  0  0  0  0  0  0
  187.0230  177.7240  140.7730 O   0  0  0  0  0  0  0  0  0  0  0  0
  187.0380  177.8380  145.6140 C   0  0  0  0  0  2  0  0  0  0  0  0
  189.0010  178.1990  139.4800 C   0  0  2  0  0  3  0  0  0  0  0  0
  188.9510  179.3800  138.7360 O   0  0  0  0  0  1  0  0  0  0  0  0
  188.3490  177.0650  138.6920 C   0  0  0  0  0  2  0  0  0  0  0  0
  187.7580  177.5140  137.3560 C   0  0  2  0  0  3  0  0  0  0  0  0
  186.4160  177.1420  137.2640 O   0  0  0  0  0  1  0  0  0  0  0  0
  188.5340  176.9700  136.1560 C   0  0  0  0  0  2  0  0  0  0  0  0
  189.2690  175.6610  136.4530 C   0  0  1  0  0  3  0  0  0  0  0  0
  188.9990  172.3230  135.5800 C   0  0  0  0  0  1  0  0  0  0  0  0
  188.4490  174.5540  136.2340 O   0  0  0  0  0  0  0  0  0  0  0  0
  190.4870  175.4810  135.5930 C   0  0  2  0  0  3  0  0  0  0  0  0
  190.4630  174.1590  135.1610 O   0  0  0  0  0  0  0  0  0  0  0  0
  189.1100  173.7970  135.2500 C   0  0  1  0  0  3  0  0  0  0  0  0
  193.0010  175.5070  135.8150 C   0  0  0  0  0  3  0  0  0  0  0  0
  191.7380  175.7710  136.3590 C   0  0  0  0  0  0  0  0  0  0  0  0
  192.7160  177.1120  139.7480 C   0  0  0  0  0  1  0  0  0  0  0  0
  194.0240  176.2920  137.8250 N   0  0  0  0  0  0  0  0  0  0  0  0
  192.8070  176.5530  138.3740 C   0  0  0  0  0  0  0  0  0  0  0  0
  194.1440  175.7790  136.5720 C   0  0  0  0  0  3  0  0  0  0  0  0
  191.6400  176.2940  137.6500 C   0  0  0  0  0  3  0  0  0  0  0  0
  185.6720  179.5000  141.5700 N   0  0  0  0  0  2  0  0  0  0  0  0
  184.3690  179.3090  140.9450 C   0  0  2  0  0  3  0  0  0  0  0  0
  182.8570  177.8950  142.3370 N   0  0  0  0  0  0  0  0  0  0  0  0
  183.7160  178.0190  141.3800 C   0  0  0  0  0  3  0  0  0  0  0  0
  182.2780  179.2080  143.3240 S   0  0  1  0  0  0  0  0  0  0  0  0
  180.7180  178.5980  143.9770 C   0  0  0  0  0  1  0  0  0  0  0  0
  183.2180  179.1890  144.5210 O   0  0  0  0  0  0  0  0  0  0  0  0
  184.4510  179.4480  139.4550 C   0  0  0  0  0  3  0  0  0  0  0  0
  184.2870  180.5250  138.9030 O   0  0  0  0  0  0  0  0  0  0  0  0
  1  8  1  0  0  0  0
  1  6  1  0  0  0  0
  2 12  1  1  0  0  0
  3 16  1  6  0  0  0
  3 10  1  0  0  0  0
  4 15  1  0  0  0  0
  4  8  2  0  0  0  0
  5  1  2  0  0  0  0
  7  4  1  0  0  0  0
  9  7  2  0  0  0  0
  9  5  1  0  0  0  0
 11 10  1  6  0  0  0
 11  2  1  0  0  0  0
 11  7  1  0  0  0  0
 12 15  1  0  0  0  0
 13 35  1  6  0  0  0
 13  2  1  0  0  0  0
 14  3  1  0  0  0  0
 14 13  1  0  0  0  0
 16 17  1  6  0  0  0
 18 16  1  0  0  0  0
 19 20  1  6  0  0  0
 19 18  1  0  0  0  0
 21 19  1  0  0  0  0
 22 21  1  6  0  0  0
 24 22  1  0  0  0  0
 25 29  1  1  0  0  0
 25 22  1  0  0  0  0
 26 27  1  0  0  0  0
 26 25  1  0  0  0  0
 27 23  1  1  0  0  0
 27 24  1  0  0  0  0
 28 29  2  0  0  0  0
 28 33  1  0  0  0  0
 29 34  1  0  0  0  0
 31 32  1  0  0  0  0
 32 30  1  0  0  0  0
 33 31  2  0  0  0  0
 34 32  2  0  0  0  0
 36 42  1  6  0  0  0
 36 38  1  0  0  0  0
 36 35  1  0  0  0  0
 37 39  1  0  0  0  0
 38 37  2  0  0  0  0
 39 40  1  1  0  0  0
 39 41  2  0  0  0  0
 43 42  2  0  0  0  0
M  END
>  <MODEL>
8

>  <REMARK>
 VINA RESULT:      -8.2      2.693      7.965
  Name = 
  11 active torsions:
  status: ('A' for Active; 'I' for Inactive)
    1  A    between atoms: N_1  and  C_34
    2  A    between atoms: N_1  and  CA_35
    3  A    between atoms: C_2  and  C_6
    4  A    between atoms: C_2  and  C_13
    5  A    between atoms: C_3  and  C_4
    6  A    between atoms: C_3  and  C_12
    7  A    between atoms: C_6  and  C_12
    8  A    between atoms: N_9  and  S_19
    9  A    between atoms: C_14  and  C_22
   10  A    between atoms: C_28  and  CA_35
   11  A    between atoms: C_32  and  CA_35
                            x       y       z     vdW  Elec       q    Type
                         _______ _______ _______ _____ _____    ______ ____

>  <TORSDO>
F 11

$$$$
=
 OpenBabel11052416143D

 43 47  0  0  1  0  0  0  0  0999 V2000
  190.3310  176.9460  146.4870 C   0  0  0  0  0  0  0  0  0  0  0  0
  189.0390  177.5110  141.5820 C   0  0  2  0  0  3  0  0  0  0  0  0
  186.4680  178.2480  141.5570 C   0  0  2  0  0  3  0  0  0  0  0  0
  190.3890  177.1430  144.0690 C   0  0  0  0  0  0  0  0  0  0  0  0
  189.0610  177.5270  146.5100 C   0  0  0  0  0  3  0  0  0  0  0  0
  190.9240  176.5700  147.6450 F   0  0  0  0  0  0  0  0  0  0  0  0
  189.0880  177.6990  144.0870 C   0  0  0  0  0  0  0  0  0  0  0  0
  190.9900  176.7540  145.2710 C   0  0  0  0  0  3  0  0  0  0  0  0
  188.4460  177.9100  145.3160 C   0  0  0  0  0  3  0  0  0  0  0  0
  187.0400  178.1150  142.8560 O   0  0  0  0  0  0  0  0  0  0  0  0
  188.4550  178.2030  142.8150 C   0  0  2  0  0  3  0  0  0  0  0  0
  190.5520  177.6490  141.5960 C   0  0  0  0  0  2  0  0  0  0  0  0
  188.4230  178.1580  140.3410 C   0  0  2  0  0  3  0  0  0  0  0  0
  187.3020  178.9670  140.6620 O   0  0  0  0  0  0  0  0  0  0  0  0
  191.1140  176.8600  142.7790 C   0  0  0  0  0  2  0  0  0  0  0  0
  185.1040  178.9170  141.6530 C   0  0  2  0  0  3  0  0  0  0  0  0
  184.7070  178.9770  142.9910 O   0  0  0  0  0  1  0  0  0  0  0  0
  184.0800  178.1230  140.8460 C   0  0  0  0  0  2  0  0  0  0  0  0
  183.4040  178.9410  139.7470 C   0  0  2  0  0  3  0  0  0  0  0  0
  184.1020  180.1280  139.5200 O   0  0  0  0  0  1  0  0  0  0  0  0
  181.9390  179.2470  140.0560 C   0  0  0  0  0  2  0  0  0  0  0  0
  181.3340  178.3140  141.1090 C   0  0  1  0  0  3  0  0  0  0  0  0
  179.6940  178.6070  144.1430 C   0  0  0  0  0  1  0  0  0  0  0  0
  181.2410  178.9410  142.3520 O   0  0  0  0  0  0  0  0  0  0  0  0
  179.9520  177.8580  140.7420 C   0  0  2  0  0  3  0  0  0  0  0  0
  179.1910  177.9600  141.9020 O   0  0  0  0  0  0  0  0  0  0  0  0
  179.8700  178.9180  142.6700 C   0  0  1  0  0  3  0  0  0  0  0  0
  179.3560  175.4140  140.9510 C   0  0  0  0  0  3  0  0  0  0  0  0
  179.9630  176.4520  140.2330 C   0  0  0  0  0  0  0  0  0  0  0  0
  181.3220  174.5410  137.2770 C   0  0  0  0  0  1  0  0  0  0  0  0
  180.0370  173.8620  139.2690 N   0  0  0  0  0  0  0  0  0  0  0  0
  180.6370  174.8540  138.5580 C   0  0  0  0  0  0  0  0  0  0  0  0
  179.4030  174.1120  140.4450 C   0  0  0  0  0  3  0  0  0  0  0  0
  180.6120  176.1690  139.0300 C   0  0  0  0  0  3  0  0  0  0  0  0
  188.0630  177.1300  139.3720 N   0  0  0  0  0  2  0  0  0  0  0  0
  187.9980  177.7490  138.0540 C   0  0  2  0  0  3  0  0  0  0  0  0
  186.6660  176.4000  136.4320 N   0  0  0  0  0  0  0  0  0  0  0  0
  187.7990  176.7290  136.9590 C   0  0  0  0  0  3  0  0  0  0  0  0
  185.1280  177.0780  136.8890 S   0  0  1  0  0  0  0  0  0  0  0  0
  184.1850  177.0730  135.3590 C   0  0  0  0  0  1  0  0  0  0  0  0
  184.4920  175.9770  137.7250 O   0  0  0  0  0  0  0  0  0  0  0  0
  189.1750  178.6440  137.8120 C   0  0  0  0  0  3  0  0  0  0  0  0
  189.0450  179.7480  137.3080 O   0  0  0  0  0  0  0  0  0  0  0  0
  1  5  1  0  0  0  0
  1  6  1  0  0  0  0
  2 12  1  6  0  0  0
  2 11  1  0  0  0  0
  3 16  1  1  0  0  0
  3 10  1  0  0  0  0
  4  7  2  0  0  0  0
  4  8  1  0  0  0  0
  7  9  1  0  0  0  0
  8  1  2  0  0  0  0
  9  5  2  0  0  0  0
 11 10  1  1  0  0  0
 11  7  1  0  0  0  0
 12 15  1  0  0  0  0
 13 35  1  6  0  0  0
 13 14  1  0  0  0  0
 13  2  1  0  0  0  0
 14  3  1  0  0  0  0
 15  4  1  0  0  0  0
 16 17  1  1  0  0  0
 18 16  1  0  0  0  0
 19 20  1  1  0  0  0
 19 21  1  0  0  0  0
 19 18  1  0  0  0  0
 22 21  1  6  0  0  0
 22 24  1  0  0  0  0
 24 27  1  0  0  0  0
 25 29  1  1  0  0  0
 25 22  1  0  0  0  0
 25 26  1  0  0  0  0
 26 27  1  0  0  0  0
 27 23  1  1  0  0  0
 29 28  2  0  0  0  0
 30 32  1  0  0  0  0
 31 33  2  0  0  0  0
 32 34  2  0  0  0  0
 32 31  1  0  0  0  0
 33 28  1  0  0  0  0
 34 29  1  0  0  0  0
 36 38  1  6  0  0  0
 36 35  1  0  0  0  0
 37 39  1  0  0  0  0
 37 38  2  0  0  0  0
 39 40  1  6  0  0  0
 39 41  2  0  0  0  0
 42 36  1  0  0  0  0
 43 42  2  0  0  0  0
M  END
>  <MODEL>
9

>  <REMARK>
 VINA RESULT:      -8.2      2.663      3.946
  Name = 
  11 active torsions:
  status: ('A' for Active; 'I' for Inactive)
    1  A    between atoms: N_1  and  C_34
    2  A    between atoms: N_1  and  CA_35
    3  A    between atoms: C_2  and  C_6
    4  A    between atoms: C_2  and  C_13
    5  A    between atoms: C_3  and  C_4
    6  A    between atoms: C_3  and  C_12
    7  A    between atoms: C_6  and  C_12
    8  A    between atoms: N_9  and  S_19
    9  A    between atoms: C_14  and  C_22
   10  A    between atoms: C_28  and  CA_35
   11  A    between atoms: C_32  and  CA_35
                            x       y       z     vdW  Elec       q    Type
                         _______ _______ _______ _____ _____    ______ ____

>  <TORSDO>
F 11

$$$$
