=
 OpenBabel11052413493D

 27 30  0  0  0  0  0  0  0  0999 V2000
  188.5890  178.1580  141.3660 N   0  0  0  0  0  0  0  0  0  0  0  0
  186.6780  178.2970  142.9210 C   0  0  0  0  0  3  0  0  0  0  0  0
  183.1160  178.9470  142.3240 N   0  0  0  0  0  0  0  0  0  0  0  0
  181.2180  179.1280  143.7960 N   0  0  0  0  0  1  0  0  0  0  0  0
  186.2980  178.5860  140.5450 C   0  0  0  0  0  3  0  0  0  0  0  0
  184.8120  178.4660  144.4610 C   0  0  0  0  0  3  0  0  0  0  0  0
  183.4480  178.6740  144.6770 C   0  0  0  0  0  3  0  0  0  0  0  0
  185.3180  178.5010  143.1620 C   0  0  0  0  0  0  0  0  0  0  0  0
  182.6090  178.9150  143.5860 C   0  0  0  0  0  0  0  0  0  0  0  0
  184.4400  178.7470  142.0860 C   0  0  0  0  0  0  0  0  0  0  0  0
  187.1780  178.3310  141.6100 C   0  0  0  0  0  0  0  0  0  0  0  0
  184.9350  178.7900  140.7810 C   0  0  0  0  0  3  0  0  0  0  0  0
  191.2550  176.7610  144.3860 C   0  0  0  0  0  3  0  0  0  0  0  0
  189.4840  177.6880  142.4020 C   0  0  0  0  0  0  0  0  0  0  0  0
  190.1990  178.5920  143.2080 C   0  0  0  0  0  3  0  0  0  0  0  0
  191.0750  178.1330  144.1950 C   0  0  0  0  0  3  0  0  0  0  0  0
  190.5600  175.8500  143.5880 C   0  0  0  0  0  3  0  0  0  0  0  0
  189.6840  176.3100  142.6020 C   0  0  0  0  0  3  0  0  0  0  0  0
  189.1500  178.6100  140.0880 C   0  0  0  0  0  2  0  0  0  0  0  0
  192.1060  177.5500  140.2270 Cl  0  0  0  0  0  0  0  0  0  0  0  0
  190.1260  175.2500  137.5840 C   0  0  0  0  0  0  0  0  0  0  0  0
  190.5000  173.8760  136.5680 Cl  0  0  0  0  0  0  0  0  0  0  0  0
  189.5260  177.4500  139.2150 C   0  0  0  0  0  0  0  0  0  0  0  0
  191.1130  175.8000  138.4070 C   0  0  0  0  0  3  0  0  0  0  0  0
  188.8420  175.7980  137.5750 C   0  0  0  0  0  3  0  0  0  0  0  0
  188.5450  176.8940  138.3870 C   0  0  0  0  0  3  0  0  0  0  0  0
  190.8230  176.8960  139.2230 C   0  0  0  0  0  0  0  0  0  0  0  0
  1 11  1  0  0  0  0
  1 14  1  0  0  0  0
  2  8  1  0  0  0  0
  3  9  1  0  0  0  0
  5 12  2  0  0  0  0
  5 11  1  0  0  0  0
  6  7  1  0  0  0  0
  8  6  2  0  0  0  0
  9  4  1  0  0  0  0
  9  7  2  0  0  0  0
 10  3  2  0  0  0  0
 10  8  1  0  0  0  0
 11  2  2  0  0  0  0
 12 10  1  0  0  0  0
 14 18  2  0  0  0  0
 14 15  1  0  0  0  0
 15 16  2  0  0  0  0
 16 13  1  0  0  0  0
 17 13  2  0  0  0  0
 18 17  1  0  0  0  0
 19  1  1  0  0  0  0
 21 24  1  0  0  0  0
 22 21  1  0  0  0  0
 23 27  1  0  0  0  0
 23 19  1  0  0  0  0
 24 27  2  0  0  0  0
 25 21  2  0  0  0  0
 25 26  1  0  0  0  0
 26 23  2  0  0  0  0
 27 20  1  0  0  0  0
M  END
>  <MODEL>
1

>  <REMARK>
 VINA RESULT:      -8.0      0.000      0.000
  Name = 
  4 active torsions:
  status: ('A' for Active; 'I' for Inactive)
    1  A    between atoms: C_1  and  N_15
    2  A    between atoms: C_1  and  C_18
    3  A    between atoms: C_9  and  N_15
    4  A    between atoms: N_15  and  C_19
                            x       y       z     vdW  Elec       q    Type
                         _______ _______ _______ _____ _____    ______ ____

>  <TORSDO>
F 4

$$$$
=
 OpenBabel11052413493D

 27 30  0  0  0  0  0  0  0  0999 V2000
  188.1450  178.1330  141.9060 N   0  0  0  0  0  0  0  0  0  0  0  0
  185.7070  178.4440  141.6940 C   0  0  0  0  0  3  0  0  0  0  0  0
  183.0510  178.5440  144.2260 N   0  0  0  0  0  0  0  0  0  0  0  0
  180.6620  178.8090  144.0800 N   0  0  0  0  0  1  0  0  0  0  0  0
  186.6810  178.1750  143.8970 C   0  0  0  0  0  3  0  0  0  0  0  0
  183.3070  178.7160  141.4730 C   0  0  0  0  0  3  0  0  0  0  0  0
  182.0480  178.8060  142.0710 C   0  0  0  0  0  3  0  0  0  0  0  0
  184.4380  178.5390  142.2690 C   0  0  0  0  0  0  0  0  0  0  0  0
  181.9400  178.7180  143.4610 C   0  0  0  0  0  0  0  0  0  0  0  0
  184.2890  178.4530  143.6700 C   0  0  0  0  0  0  0  0  0  0  0  0
  186.8390  178.2680  142.5040 C   0  0  0  0  0  0  0  0  0  0  0  0
  185.4130  178.2700  144.4770 C   0  0  0  0  0  3  0  0  0  0  0  0
  191.4160  176.3690  143.9950 C   0  0  0  0  0  3  0  0  0  0  0  0
  189.2500  177.5390  142.6280 C   0  0  0  0  0  0  0  0  0  0  0  0
  190.2600  178.3380  143.1950 C   0  0  0  0  0  3  0  0  0  0  0  0
  191.3330  177.7580  143.8760 C   0  0  0  0  0  3  0  0  0  0  0  0
  190.4270  175.5610  143.4300 C   0  0  0  0  0  3  0  0  0  0  0  0
  189.3540  176.1420  142.7500 C   0  0  0  0  0  3  0  0  0  0  0  0
  188.3950  178.7460  140.5970 C   0  0  0  0  0  2  0  0  0  0  0  0
  186.3130  177.9930  138.3660 Cl  0  0  0  0  0  0  0  0  0  0  0  0
  189.6380  175.8290  137.6890 C   0  0  0  0  0  0  0  0  0  0  0  0
  190.1660  174.6510  136.5090 Cl  0  0  0  0  0  0  0  0  0  0  0  0
  188.7920  177.7200  139.5780 C   0  0  0  0  0  0  0  0  0  0  0  0
  188.3610  176.3890  137.5940 C   0  0  0  0  0  3  0  0  0  0  0  0
  190.4910  176.2110  138.7260 C   0  0  0  0  0  3  0  0  0  0  0  0
  190.0680  177.1530  139.6660 C   0  0  0  0  0  3  0  0  0  0  0  0
  187.9310  177.3320  138.5310 C   0  0  0  0  0  0  0  0  0  0  0  0
  1 11  1  0  0  0  0
  1 14  1  0  0  0  0
  2  8  2  0  0  0  0
  2 11  1  0  0  0  0
  5 12  1  0  0  0  0
  6  7  2  0  0  0  0
  6  8  1  0  0  0  0
  7  9  1  0  0  0  0
  8 10  1  0  0  0  0
  9  4  1  0  0  0  0
  9  3  2  0  0  0  0
 10  3  1  0  0  0  0
 10 12  2  0  0  0  0
 11  5  2  0  0  0  0
 14 18  2  0  0  0  0
 14 15  1  0  0  0  0
 15 16  2  0  0  0  0
 16 13  1  0  0  0  0
 17 13  2  0  0  0  0
 18 17  1  0  0  0  0
 19  1  1  0  0  0  0
 20 27  1  0  0  0  0
 21 25  1  0  0  0  0
 22 21  1  0  0  0  0
 23 26  1  0  0  0  0
 23 19  1  0  0  0  0
 24 21  2  0  0  0  0
 24 27  1  0  0  0  0
 25 26  2  0  0  0  0
 27 23  2  0  0  0  0
M  END
>  <MODEL>
2

>  <REMARK>
 VINA RESULT:      -7.5      1.457      2.157
  Name = 
  4 active torsions:
  status: ('A' for Active; 'I' for Inactive)
    1  A    between atoms: C_1  and  N_15
    2  A    between atoms: C_1  and  C_18
    3  A    between atoms: C_9  and  N_15
    4  A    between atoms: N_15  and  C_19
                            x       y       z     vdW  Elec       q    Type
                         _______ _______ _______ _____ _____    ______ ____

>  <TORSDO>
F 4

$$$$
=
 OpenBabel11052413493D

 27 30  0  0  0  0  0  0  0  0999 V2000
  182.4920  178.0920  139.9930 N   0  0  0  0  0  0  0  0  0  0  0  0
  184.1240  178.0360  141.8430 C   0  0  0  0  0  3  0  0  0  0  0  0
  183.8170  179.0030  145.3700 N   0  0  0  0  0  0  0  0  0  0  0  0
  185.3750  179.0040  147.2070 N   0  0  0  0  0  1  0  0  0  0  0  0
  181.8680  178.8100  142.2740 C   0  0  0  0  0  3  0  0  0  0  0  0
  185.7450  178.0100  143.6460 C   0  0  0  0  0  3  0  0  0  0  0  0
  186.0560  178.2530  144.9860 C   0  0  0  0  0  3  0  0  0  0  0  0
  184.4570  178.2700  143.1780 C   0  0  0  0  0  0  0  0  0  0  0  0
  185.0690  178.7530  145.8400 C   0  0  0  0  0  0  0  0  0  0  0  0
  183.4880  178.7750  144.0700 C   0  0  0  0  0  0  0  0  0  0  0  0
  182.8250  178.2980  141.3820 C   0  0  0  0  0  0  0  0  0  0  0  0
  182.1970  179.0440  143.6120 C   0  0  0  0  0  3  0  0  0  0  0  0
  185.5110  177.1730  137.1270 C   0  0  0  0  0  3  0  0  0  0  0  0
  183.5070  177.7830  139.0090 C   0  0  0  0  0  0  0  0  0  0  0  0
  183.4310  176.6150  138.2300 C   0  0  0  0  0  3  0  0  0  0  0  0
  184.4230  176.3130  137.2930 C   0  0  0  0  0  3  0  0  0  0  0  0
  185.6070  178.3320  137.8980 C   0  0  0  0  0  3  0  0  0  0  0  0
  184.6140  178.6330  138.8340 C   0  0  0  0  0  3  0  0  0  0  0  0
  181.1180  178.3480  139.5460 C   0  0  0  0  0  2  0  0  0  0  0  0
  180.5580  177.8080  136.5010 Cl  0  0  0  0  0  0  0  0  0  0  0  0
  180.9020  181.7900  136.9740 C   0  0  0  0  0  0  0  0  0  0  0  0
  180.8060  183.2030  135.9460 Cl  0  0  0  0  0  0  0  0  0  0  0  0
  181.0540  179.5260  138.6210 C   0  0  0  0  0  0  0  0  0  0  0  0
  180.7160  180.5160  136.4290 C   0  0  0  0  0  3  0  0  0  0  0  0
  181.1640  181.9340  138.3380 C   0  0  0  0  0  3  0  0  0  0  0  0
  181.2390  180.8050  139.1570 C   0  0  0  0  0  3  0  0  0  0  0  0
  180.7900  179.3830  137.2430 C   0  0  0  0  0  0  0  0  0  0  0  0
  1 11  1  0  0  0  0
  2  8  1  0  0  0  0
  3  9  1  0  0  0  0
  5 12  2  0  0  0  0
  6  7  1  0  0  0  0
  7  9  2  0  0  0  0
  8  6  2  0  0  0  0
  8 10  1  0  0  0  0
  9  4  1  0  0  0  0
 10  3  2  0  0  0  0
 11  2  2  0  0  0  0
 11  5  1  0  0  0  0
 12 10  1  0  0  0  0
 13 16  2  0  0  0  0
 13 17  1  0  0  0  0
 14  1  1  0  0  0  0
 15 14  2  0  0  0  0
 16 15  1  0  0  0  0
 17 18  2  0  0  0  0
 18 14  1  0  0  0  0
 19  1  1  0  0  0  0
 20 27  1  0  0  0  0
 21 25  1  0  0  0  0
 22 21  1  0  0  0  0
 23 26  1  0  0  0  0
 23 19  1  0  0  0  0
 24 21  2  0  0  0  0
 24 27  1  0  0  0  0
 25 26  2  0  0  0  0
 27 23  2  0  0  0  0
M  END
>  <MODEL>
3

>  <REMARK>
 VINA RESULT:      -7.4      4.812      7.672
  Name = 
  4 active torsions:
  status: ('A' for Active; 'I' for Inactive)
    1  A    between atoms: C_1  and  N_15
    2  A    between atoms: C_1  and  C_18
    3  A    between atoms: C_9  and  N_15
    4  A    between atoms: N_15  and  C_19
                            x       y       z     vdW  Elec       q    Type
                         _______ _______ _______ _____ _____    ______ ____

>  <TORSDO>
F 4

$$$$
=
 OpenBabel11052413493D

 27 30  0  0  0  0  0  0  0  0999 V2000
  188.0610  177.3040  145.3000 N   0  0  0  0  0  0  0  0  0  0  0  0
  186.2790  177.7520  143.6540 C   0  0  0  0  0  3  0  0  0  0  0  0
  182.9390  179.2220  144.0440 N   0  0  0  0  0  0  0  0  0  0  0  0
  181.1490  179.6520  142.4900 N   0  0  0  0  0  1  0  0  0  0  0  0
  185.9310  178.3610  145.9730 C   0  0  0  0  0  3  0  0  0  0  0  0
  184.5190  178.1560  142.0340 C   0  0  0  0  0  3  0  0  0  0  0  0
  183.2380  178.6300  141.7460 C   0  0  0  0  0  3  0  0  0  0  0  0
  185.0010  178.2210  143.3410 C   0  0  0  0  0  0  0  0  0  0  0  0
  182.4560  179.1650  142.7730 C   0  0  0  0  0  0  0  0  0  0  0  0
  184.1830  178.7670  144.3520 C   0  0  0  0  0  0  0  0  0  0  0  0
  186.7560  177.8240  144.9710 C   0  0  0  0  0  0  0  0  0  0  0  0
  184.6520  178.8330  145.6650 C   0  0  0  0  0  3  0  0  0  0  0  0
  191.4010  177.7540  142.6890 C   0  0  0  0  0  3  0  0  0  0  0  0
  189.1860  177.4590  144.4020 C   0  0  0  0  0  0  0  0  0  0  0  0
  189.5210  176.4520  143.4790 C   0  0  0  0  0  3  0  0  0  0  0  0
  190.6180  176.5990  142.6260 C   0  0  0  0  0  3  0  0  0  0  0  0
  191.0880  178.7590  143.6060 C   0  0  0  0  0  3  0  0  0  0  0  0
  189.9910  178.6110  144.4570 C   0  0  0  0  0  3  0  0  0  0  0  0
  188.2140  176.4730  146.4990 C   0  0  0  0  0  2  0  0  0  0  0  0
  187.9200  178.7680  148.6270 Cl  0  0  0  0  0  0  0  0  0  0  0  0
  191.7370  177.4980  148.7450 C   0  0  0  0  0  0  0  0  0  0  0  0
  193.1780  177.8920  149.6570 Cl  0  0  0  0  0  0  0  0  0  0  0  0
  189.4280  176.8650  147.2860 C   0  0  0  0  0  0  0  0  0  0  0  0
  190.5430  178.1800  148.9960 C   0  0  0  0  0  3  0  0  0  0  0  0
  191.7790  176.5030  147.7670 C   0  0  0  0  0  3  0  0  0  0  0  0
  190.6280  176.1890  147.0410 C   0  0  0  0  0  3  0  0  0  0  0  0
  189.3880  177.8710  148.2740 C   0  0  0  0  0  0  0  0  0  0  0  0
  1 19  1  0  0  0  0
  2 11  1  0  0  0  0
  3 10  1  0  0  0  0
  4  9  1  0  0  0  0
  6  8  1  0  0  0  0
  7  6  2  0  0  0  0
  7  9  1  0  0  0  0
  8  2  2  0  0  0  0
  8 10  1  0  0  0  0
  9  3  2  0  0  0  0
 10 12  2  0  0  0  0
 11  1  1  0  0  0  0
 11  5  2  0  0  0  0
 12  5  1  0  0  0  0
 13 17  1  0  0  0  0
 14 18  1  0  0  0  0
 14  1  1  0  0  0  0
 15 14  2  0  0  0  0
 16 13  2  0  0  0  0
 16 15  1  0  0  0  0
 17 18  2  0  0  0  0
 19 23  1  0  0  0  0
 21 24  1  0  0  0  0
 21 22  1  0  0  0  0
 23 27  1  0  0  0  0
 25 21  2  0  0  0  0
 26 23  2  0  0  0  0
 26 25  1  0  0  0  0
 27 20  1  0  0  0  0
 27 24  2  0  0  0  0
M  END
>  <MODEL>
4

>  <REMARK>
 VINA RESULT:      -7.3      4.079      6.291
  Name = 
  4 active torsions:
  status: ('A' for Active; 'I' for Inactive)
    1  A    between atoms: C_1  and  N_15
    2  A    between atoms: C_1  and  C_18
    3  A    between atoms: C_9  and  N_15
    4  A    between atoms: N_15  and  C_19
                            x       y       z     vdW  Elec       q    Type
                         _______ _______ _______ _____ _____    ______ ____

>  <TORSDO>
F 4

$$$$
=
 OpenBabel11052413493D

 27 30  0  0  0  0  0  0  0  0999 V2000
  182.3170  178.3680  140.3000 N   0  0  0  0  0  0  0  0  0  0  0  0
  184.0750  178.2460  142.0270 C   0  0  0  0  0  3  0  0  0  0  0  0
  184.0030  179.0290  145.6120 N   0  0  0  0  0  0  0  0  0  0  0  0
  185.6850  178.9630  147.3350 N   0  0  0  0  0  1  0  0  0  0  0  0
  181.8450  178.9600  142.6520 C   0  0  0  0  0  3  0  0  0  0  0  0
  185.8180  178.1560  143.7100 C   0  0  0  0  0  3  0  0  0  0  0  0
  186.2180  178.3360  145.0360 C   0  0  0  0  0  3  0  0  0  0  0  0
  184.4980  178.4180  143.3470 C   0  0  0  0  0  0  0  0  0  0  0  0
  185.2870  178.7770  145.9810 C   0  0  0  0  0  0  0  0  0  0  0  0
  183.5870  178.8610  144.3280 C   0  0  0  0  0  0  0  0  0  0  0  0
  182.7430  178.5100  141.6710 C   0  0  0  0  0  0  0  0  0  0  0  0
  182.2630  179.1320  143.9750 C   0  0  0  0  0  3  0  0  0  0  0  0
  179.3950  175.4650  139.2000 C   0  0  0  0  0  3  0  0  0  0  0  0
  181.3210  177.3900  139.9140 C   0  0  0  0  0  0  0  0  0  0  0  0
  179.9480  177.6770  140.0090 C   0  0  0  0  0  3  0  0  0  0  0  0
  178.9910  176.7240  139.6510 C   0  0  0  0  0  3  0  0  0  0  0  0
  180.7550  175.1610  139.1090 C   0  0  0  0  0  3  0  0  0  0  0  0
  181.7100  176.1150  139.4660 C   0  0  0  0  0  3  0  0  0  0  0  0
  183.0140  179.1280  139.2570 C   0  0  0  0  0  2  0  0  0  0  0  0
  182.0620  178.0640  136.4560 Cl  0  0  0  0  0  0  0  0  0  0  0  0
  180.2440  181.5990  137.0810 C   0  0  0  0  0  0  0  0  0  0  0  0
  179.1090  182.6120  136.2180 Cl  0  0  0  0  0  0  0  0  0  0  0  0
  182.0610  179.9750  138.4660 C   0  0  0  0  0  0  0  0  0  0  0  0
  180.6620  180.3870  136.5250 C   0  0  0  0  0  3  0  0  0  0  0  0
  180.7330  182.0010  138.3260 C   0  0  0  0  0  3  0  0  0  0  0  0
  181.6380  181.1910  139.0140 C   0  0  0  0  0  3  0  0  0  0  0  0
  181.5670  179.5710  137.2090 C   0  0  0  0  0  0  0  0  0  0  0  0
  1 11  1  0  0  0  0
  2  8  1  0  0  0  0
  3  9  1  0  0  0  0
  5 12  2  0  0  0  0
  6  7  1  0  0  0  0
  7  9  2  0  0  0  0
  8  6  2  0  0  0  0
  8 10  1  0  0  0  0
  9  4  1  0  0  0  0
 10  3  2  0  0  0  0
 11  2  2  0  0  0  0
 11  5  1  0  0  0  0
 12 10  1  0  0  0  0
 13 16  1  0  0  0  0
 14 15  1  0  0  0  0
 14  1  1  0  0  0  0
 16 15  2  0  0  0  0
 17 13  2  0  0  0  0
 17 18  1  0  0  0  0
 18 14  2  0  0  0  0
 19  1  1  0  0  0  0
 20 27  1  0  0  0  0
 21 25  1  0  0  0  0
 22 21  1  0  0  0  0
 23 26  1  0  0  0  0
 23 19  1  0  0  0  0
 24 21  2  0  0  0  0
 24 27  1  0  0  0  0
 25 26  2  0  0  0  0
 27 23  2  0  0  0  0
M  END
>  <MODEL>
5

>  <REMARK>
 VINA RESULT:      -7.3      5.197      8.307
  Name = 
  4 active torsions:
  status: ('A' for Active; 'I' for Inactive)
    1  A    between atoms: C_1  and  N_15
    2  A    between atoms: C_1  and  C_18
    3  A    between atoms: C_9  and  N_15
    4  A    between atoms: N_15  and  C_19
                            x       y       z     vdW  Elec       q    Type
                         _______ _______ _______ _____ _____    ______ ____

>  <TORSDO>
F 4

$$$$
=
 OpenBabel11052413493D

 27 30  0  0  0  0  0  0  0  0999 V2000
  188.3900  178.3650  141.1040 N   0  0  0  0  0  0  0  0  0  0  0  0
  188.8120  177.9100  143.4920 C   0  0  0  0  0  3  0  0  0  0  0  0
  191.6810  176.3770  145.1920 N   0  0  0  0  0  0  0  0  0  0  0  0
  192.1350  175.8760  147.5040 N   0  0  0  0  0  1  0  0  0  0  0  0
  190.5040  177.3310  141.8570 C   0  0  0  0  0  3  0  0  0  0  0  0
  189.2030  177.4350  145.8380 C   0  0  0  0  0  3  0  0  0  0  0  0
  190.0340  176.9260  146.8380 C   0  0  0  0  0  3  0  0  0  0  0  0
  189.6260  177.4080  144.5100 C   0  0  0  0  0  0  0  0  0  0  0  0
  191.2810  176.3960  146.4930 C   0  0  0  0  0  0  0  0  0  0  0  0
  190.8910  176.8660  144.1990 C   0  0  0  0  0  0  0  0  0  0  0  0
  189.2470  177.8810  142.1590 C   0  0  0  0  0  0  0  0  0  0  0  0
  191.3230  176.8290  142.8720 C   0  0  0  0  0  3  0  0  0  0  0  0
  189.0570  177.3680  137.0130 C   0  0  0  0  0  3  0  0  0  0  0  0
  188.6310  178.0270  139.7170 C   0  0  0  0  0  0  0  0  0  0  0  0
  189.0560  179.0030  138.7970 C   0  0  0  0  0  3  0  0  0  0  0  0
  189.2700  178.6750  137.4560 C   0  0  0  0  0  3  0  0  0  0  0  0
  188.6260  176.3900  137.9120 C   0  0  0  0  0  3  0  0  0  0  0  0
  188.4120  176.7180  139.2530 C   0  0  0  0  0  3  0  0  0  0  0  0
  187.3420  179.3390  141.4310 C   0  0  0  0  0  2  0  0  0  0  0  0
  185.5520  178.3070  143.7990 Cl  0  0  0  0  0  0  0  0  0  0  0  0
  183.4270  177.8770  140.4090 C   0  0  0  0  0  0  0  0  0  0  0  0
  181.8340  177.2980  139.9750 Cl  0  0  0  0  0  0  0  0  0  0  0  0
  185.9780  178.8070  141.1050 C   0  0  0  0  0  0  0  0  0  0  0  0
  183.8300  177.8780  141.7480 C   0  0  0  0  0  3  0  0  0  0  0  0
  184.2970  178.3390  139.4200 C   0  0  0  0  0  3  0  0  0  0  0  0
  185.5670  178.8020  139.7680 C   0  0  0  0  0  3  0  0  0  0  0  0
  185.0990  178.3400  142.1030 C   0  0  0  0  0  0  0  0  0  0  0  0
  1 19  1  0  0  0  0
  1 11  1  0  0  0  0
  2  8  1  0  0  0  0
  3  9  1  0  0  0  0
  5 11  1  0  0  0  0
  5 12  2  0  0  0  0
  6  7  1  0  0  0  0
  8  6  2  0  0  0  0
  9  7  2  0  0  0  0
  9  4  1  0  0  0  0
 10  8  1  0  0  0  0
 10  3  2  0  0  0  0
 11  2  2  0  0  0  0
 12 10  1  0  0  0  0
 13 16  2  0  0  0  0
 13 17  1  0  0  0  0
 14  1  1  0  0  0  0
 15 14  2  0  0  0  0
 16 15  1  0  0  0  0
 17 18  2  0  0  0  0
 18 14  1  0  0  0  0
 21 24  1  0  0  0  0
 22 21  1  0  0  0  0
 23 19  1  0  0  0  0
 23 27  1  0  0  0  0
 24 27  2  0  0  0  0
 25 26  1  0  0  0  0
 25 21  2  0  0  0  0
 26 23  2  0  0  0  0
 27 20  1  0  0  0  0
M  END
>  <MODEL>
6

>  <REMARK>
 VINA RESULT:      -7.2      3.322      6.463
  Name = 
  4 active torsions:
  status: ('A' for Active; 'I' for Inactive)
    1  A    between atoms: C_1  and  N_15
    2  A    between atoms: C_1  and  C_18
    3  A    between atoms: C_9  and  N_15
    4  A    between atoms: N_15  and  C_19
                            x       y       z     vdW  Elec       q    Type
                         _______ _______ _______ _____ _____    ______ ____

>  <TORSDO>
F 4

$$$$
=
 OpenBabel11052413493D

 27 30  0  0  0  0  0  0  0  0999 V2000
  189.9190  177.3490  138.9030 N   0  0  0  0  0  0  0  0  0  0  0  0
  188.7520  177.3060  141.0770 C   0  0  0  0  0  3  0  0  0  0  0  0
  190.0390  177.1910  144.5120 N   0  0  0  0  0  0  0  0  0  0  0  0
  188.9550  177.1140  146.6620 N   0  0  0  0  0  1  0  0  0  0  0  0
  191.1750  177.3080  141.0310 C   0  0  0  0  0  3  0  0  0  0  0  0
  187.5950  177.2300  143.2070 C   0  0  0  0  0  3  0  0  0  0  0  0
  187.6480  177.1820  144.6020 C   0  0  0  0  0  3  0  0  0  0  0  0
  188.7800  177.2590  142.4720 C   0  0  0  0  0  0  0  0  0  0  0  0
  188.8910  177.1630  145.2420 C   0  0  0  0  0  0  0  0  0  0  0  0
  190.0150  177.2390  143.1530 C   0  0  0  0  0  0  0  0  0  0  0  0
  189.9490  177.3380  140.3460 C   0  0  0  0  0  0  0  0  0  0  0  0
  191.2080  177.2620  142.4280 C   0  0  0  0  0  3  0  0  0  0  0  0
  191.9140  174.3860  136.5750 C   0  0  0  0  0  3  0  0  0  0  0  0
  190.6050  176.3390  138.1250 C   0  0  0  0  0  0  0  0  0  0  0  0
  191.9270  176.5350  137.6860 C   0  0  0  0  0  3  0  0  0  0  0  0
  192.5780  175.5650  136.9200 C   0  0  0  0  0  3  0  0  0  0  0  0
  190.5980  174.1800  136.9940 C   0  0  0  0  0  3  0  0  0  0  0  0
  189.9480  175.1500  137.7600 C   0  0  0  0  0  3  0  0  0  0  0  0
  189.3080  178.4900  138.2130 C   0  0  0  0  0  2  0  0  0  0  0  0
  189.3970  177.7520  135.1590 Cl  0  0  0  0  0  0  0  0  0  0  0  0
  185.5870  177.3380  136.3860 C   0  0  0  0  0  0  0  0  0  0  0  0
  184.0660  176.8610  135.6650 Cl  0  0  0  0  0  0  0  0  0  0  0  0
  188.0240  178.1000  137.5430 C   0  0  0  0  0  0  0  0  0  0  0  0
  186.7510  177.3580  135.6140 C   0  0  0  0  0  3  0  0  0  0  0  0
  185.6380  177.6990  137.7340 C   0  0  0  0  0  3  0  0  0  0  0  0
  186.8530  178.0780  138.3090 C   0  0  0  0  0  3  0  0  0  0  0  0
  187.9700  177.7370  136.1820 C   0  0  0  0  0  0  0  0  0  0  0  0
  1 11  1  0  0  0  0
  2  8  1  0  0  0  0
  3  9  1  0  0  0  0
  5 12  2  0  0  0  0
  6  7  1  0  0  0  0
  7  9  2  0  0  0  0
  8 10  1  0  0  0  0
  8  6  2  0  0  0  0
  9  4  1  0  0  0  0
 10  3  2  0  0  0  0
 11  5  1  0  0  0  0
 11  2  2  0  0  0  0
 12 10  1  0  0  0  0
 13 16  2  0  0  0  0
 13 17  1  0  0  0  0
 14  1  1  0  0  0  0
 15 14  2  0  0  0  0
 16 15  1  0  0  0  0
 17 18  2  0  0  0  0
 18 14  1  0  0  0  0
 19  1  1  0  0  0  0
 20 27  1  0  0  0  0
 21 25  1  0  0  0  0
 22 21  1  0  0  0  0
 23 19  1  0  0  0  0
 23 26  1  0  0  0  0
 24 27  1  0  0  0  0
 24 21  2  0  0  0  0
 25 26  2  0  0  0  0
 27 23  2  0  0  0  0
M  END
>  <MODEL>
7

>  <REMARK>
 VINA RESULT:      -7.2      3.388      5.423
  Name = 
  4 active torsions:
  status: ('A' for Active; 'I' for Inactive)
    1  A    between atoms: C_1  and  N_15
    2  A    between atoms: C_1  and  C_18
    3  A    between atoms: C_9  and  N_15
    4  A    between atoms: N_15  and  C_19
                            x       y       z     vdW  Elec       q    Type
                         _______ _______ _______ _____ _____    ______ ____

>  <TORSDO>
F 4

$$$$
=
 OpenBabel11052413493D

 27 30  0  0  0  0  0  0  0  0999 V2000
  182.6800  178.9690  142.0950 N   0  0  0  0  0  0  0  0  0  0  0  0
  183.9300  178.8070  144.2160 C   0  0  0  0  0  3  0  0  0  0  0  0
  187.3800  177.7700  144.9160 N   0  0  0  0  0  0  0  0  0  0  0  0
  188.6420  177.5590  146.9570 N   0  0  0  0  0  1  0  0  0  0  0  0
  185.0430  178.2490  142.1370 C   0  0  0  0  0  3  0  0  0  0  0  0
  185.1410  178.6170  146.3090 C   0  0  0  0  0  3  0  0  0  0  0  0
  186.3180  178.3050  146.9920 C   0  0  0  0  0  3  0  0  0  0  0  0
  185.0970  178.5010  144.9200 C   0  0  0  0  0  0  0  0  0  0  0  0
  187.4380  177.8790  146.2710 C   0  0  0  0  0  0  0  0  0  0  0  0
  186.2470  178.0680  144.2270 C   0  0  0  0  0  0  0  0  0  0  0  0
  183.8960  178.6890  142.8180 C   0  0  0  0  0  0  0  0  0  0  0  0
  186.2130  177.9420  142.8370 C   0  0  0  0  0  3  0  0  0  0  0  0
  178.9310  179.1960  144.1130 C   0  0  0  0  0  3  0  0  0  0  0  0
  181.3990  179.0430  142.7680 C   0  0  0  0  0  0  0  0  0  0  0  0
  180.5300  180.1280  142.5550 C   0  0  0  0  0  3  0  0  0  0  0  0
  179.3040  180.2030  143.2200 C   0  0  0  0  0  3  0  0  0  0  0  0
  179.7860  178.1160  144.3420 C   0  0  0  0  0  3  0  0  0  0  0  0
  181.0110  178.0420  143.6770 C   0  0  0  0  0  3  0  0  0  0  0  0
  182.7210  179.0310  140.6300 C   0  0  0  0  0  2  0  0  0  0  0  0
  179.8730  179.4970  139.3860 Cl  0  0  0  0  0  0  0  0  0  0  0  0
  180.8080  175.6220  138.8340 C   0  0  0  0  0  0  0  0  0  0  0  0
  180.0520  174.2260  138.0980 Cl  0  0  0  0  0  0  0  0  0  0  0  0
  182.0210  177.8580  140.0120 C   0  0  0  0  0  0  0  0  0  0  0  0
  180.1520  176.8560  138.8300 C   0  0  0  0  0  3  0  0  0  0  0  0
  182.0670  175.5040  139.4270 C   0  0  0  0  0  3  0  0  0  0  0  0
  182.6700  176.6190  140.0120 C   0  0  0  0  0  3  0  0  0  0  0  0
  180.7490  177.9760  139.4140 C   0  0  0  0  0  0  0  0  0  0  0  0
  1 14  1  0  0  0  0
  1 11  1  0  0  0  0
  2  8  1  0  0  0  0
  3  9  1  0  0  0  0
  5 11  1  0  0  0  0
  5 12  2  0  0  0  0
  6  7  1  0  0  0  0
  8  6  2  0  0  0  0
  9  4  1  0  0  0  0
  9  7  2  0  0  0  0
 10  3  2  0  0  0  0
 10  8  1  0  0  0  0
 11  2  2  0  0  0  0
 12 10  1  0  0  0  0
 13 17  1  0  0  0  0
 14 18  1  0  0  0  0
 15 14  2  0  0  0  0
 15 16  1  0  0  0  0
 16 13  2  0  0  0  0
 18 17  2  0  0  0  0
 19  1  1  0  0  0  0
 20 27  1  0  0  0  0
 21 25  1  0  0  0  0
 22 21  1  0  0  0  0
 23 19  1  0  0  0  0
 24 21  2  0  0  0  0
 24 27  1  0  0  0  0
 25 26  2  0  0  0  0
 26 23  1  0  0  0  0
 27 23  2  0  0  0  0
M  END
>  <MODEL>
8

>  <REMARK>
 VINA RESULT:      -7.2      4.868      7.825
  Name = 
  4 active torsions:
  status: ('A' for Active; 'I' for Inactive)
    1  A    between atoms: C_1  and  N_15
    2  A    between atoms: C_1  and  C_18
    3  A    between atoms: C_9  and  N_15
    4  A    between atoms: N_15  and  C_19
                            x       y       z     vdW  Elec       q    Type
                         _______ _______ _______ _____ _____    ______ ____

>  <TORSDO>
F 4

$$$$
=
 OpenBabel11052413493D

 27 30  0  0  0  0  0  0  0  0999 V2000
  182.6590  178.2800  140.0290 N   0  0  0  0  0  0  0  0  0  0  0  0
  184.2580  178.2220  141.9070 C   0  0  0  0  0  3  0  0  0  0  0  0
  183.8340  178.9940  145.4700 N   0  0  0  0  0  0  0  0  0  0  0  0
  185.3560  178.9900  147.3370 N   0  0  0  0  0  1  0  0  0  0  0  0
  181.9550  178.8470  142.3280 C   0  0  0  0  0  3  0  0  0  0  0  0
  185.8460  178.1960  143.7410 C   0  0  0  0  0  3  0  0  0  0  0  0
  186.1180  178.3890  145.0970 C   0  0  0  0  0  3  0  0  0  0  0  0
  184.5540  178.4070  143.2590 C   0  0  0  0  0  0  0  0  0  0  0  0
  185.0890  178.7910  145.9540 C   0  0  0  0  0  0  0  0  0  0  0  0
  183.5420  178.8130  144.1540 C   0  0  0  0  0  0  0  0  0  0  0  0
  182.9550  178.4350  141.4320 C   0  0  0  0  0  0  0  0  0  0  0  0
  182.2460  179.0330  143.6830 C   0  0  0  0  0  3  0  0  0  0  0  0
  180.6420  181.3420  137.8540 C   0  0  0  0  0  3  0  0  0  0  0  0
  181.9830  179.3170  139.2790 C   0  0  0  0  0  0  0  0  0  0  0  0
  182.5970  180.5610  139.0470 C   0  0  0  0  0  3  0  0  0  0  0  0
  181.9330  181.5660  138.3370 C   0  0  0  0  0  3  0  0  0  0  0  0
  180.0150  180.1160  138.0840 C   0  0  0  0  0  3  0  0  0  0  0  0
  180.6800  179.1130  138.7930 C   0  0  0  0  0  3  0  0  0  0  0  0
  182.9150  176.9860  139.3870 C   0  0  0  0  0  2  0  0  0  0  0  0
  181.8110  176.0000  136.6140 Cl  0  0  0  0  0  0  0  0  0  0  0  0
  185.4910  177.5000  135.9800 C   0  0  0  0  0  0  0  0  0  0  0  0
  186.5490  177.7290  134.6050 Cl  0  0  0  0  0  0  0  0  0  0  0  0
  183.7960  177.1360  138.1830 C   0  0  0  0  0  0  0  0  0  0  0  0
  184.2310  176.9240  135.8040 C   0  0  0  0  0  3  0  0  0  0  0  0
  185.9060  177.8930  137.2540 C   0  0  0  0  0  3  0  0  0  0  0  0
  185.0600  177.7110  138.3500 C   0  0  0  0  0  3  0  0  0  0  0  0
  183.3790  176.7390  136.8960 C   0  0  0  0  0  0  0  0  0  0  0  0
  1 11  1  0  0  0  0
  2  8  1  0  0  0  0
  3  9  1  0  0  0  0
  5 12  2  0  0  0  0
  6  7  1  0  0  0  0
  7  9  2  0  0  0  0
  8  6  2  0  0  0  0
  8 10  1  0  0  0  0
  9  4  1  0  0  0  0
 10  3  2  0  0  0  0
 11  2  2  0  0  0  0
 11  5  1  0  0  0  0
 12 10  1  0  0  0  0
 13 17  2  0  0  0  0
 13 16  1  0  0  0  0
 14  1  1  0  0  0  0
 15 14  1  0  0  0  0
 16 15  2  0  0  0  0
 17 18  1  0  0  0  0
 18 14  2  0  0  0  0
 19  1  1  0  0  0  0
 20 27  1  0  0  0  0
 21 25  1  0  0  0  0
 22 21  1  0  0  0  0
 23 26  1  0  0  0  0
 23 19  1  0  0  0  0
 24 21  2  0  0  0  0
 24 27  1  0  0  0  0
 25 26  2  0  0  0  0
 27 23  2  0  0  0  0
M  END
>  <MODEL>
9

>  <REMARK>
 VINA RESULT:      -7.2      4.085      6.901
  Name = 
  4 active torsions:
  status: ('A' for Active; 'I' for Inactive)
    1  A    between atoms: C_1  and  N_15
    2  A    between atoms: C_1  and  C_18
    3  A    between atoms: C_9  and  N_15
    4  A    between atoms: N_15  and  C_19
                            x       y       z     vdW  Elec       q    Type
                         _______ _______ _______ _____ _____    ______ ____

>  <TORSDO>
F 4

$$$$
