=
 OpenBabel11052413103D

 31 36  0  0  1  0  0  0  0  0999 V2000
  191.1830  177.3730  143.3970 C   0  0  2  0  0  3  0  0  0  0  0  0
  188.5330  177.6620  140.6480 N   0  0  0  0  0  0  0  0  0  0  0  0
  189.2770  177.8750  139.3980 C   0  0  1  0  0  3  0  0  0  0  0  0
  190.6250  176.4900  137.9350 C   0  0  0  0  0  0  0  0  0  0  0  0
  189.2190  177.1380  141.8390 C   0  0  1  0  0  3  0  0  0  0  0  0
  190.3920  176.3770  144.1390 N   0  0  0  0  0  2  0  0  0  0  0  0
  190.2390  176.7980  139.1410 N   0  0  0  0  0  0  0  0  0  0  0  0
  186.5140  178.1320  142.1130 C   0  0  2  0  0  3  0  0  0  0  0  0
  191.6910  178.4590  144.3270 C   0  0  0  0  0  1  0  0  0  0  0  0
  187.1180  178.4120  138.3700 N   0  0  0  0  0  0  0  0  0  0  0  0
  191.6660  175.4480  137.7410 C   0  0  0  0  0  1  0  0  0  0  0  0
  187.4750  178.1950  143.1390 O   0  0  0  0  0  0  0  0  0  0  0  0
  187.1930  178.1790  140.7670 C   0  0  0  0  0  0  0  0  0  0  0  0
  190.4260  177.9960  142.2140 C   0  0  0  0  0  2  0  0  0  0  0  0
  189.9940  177.0860  136.7840 N   0  0  0  0  0  0  0  0  0  0  0  0
  188.2610  177.0320  143.0490 C   0  0  2  0  0  3  0  0  0  0  0  0
  189.0270  176.8600  144.3670 C   0  0  0  0  0  2  0  0  0  0  0  0
  186.5150  178.5230  139.6660 C   0  0  0  0  0  3  0  0  0  0  0  0
  188.3590  178.0620  138.2190 C   0  0  0  0  0  0  0  0  0  0  0  0
  188.9200  177.8100  136.8910 C   0  0  0  0  0  3  0  0  0  0  0  0
  185.5820  179.2410  142.2600 N   0  0  0  0  0  2  0  0  0  0  0  0
  180.4930  178.2950  142.6180 C   0  0  0  0  0  0  0  0  0  0  0  0
  182.6950  178.6320  141.4420 C   0  0  0  0  0  2  0  0  0  0  0  0
  183.1540  179.0940  145.0630 N   0  0  0  0  0  0  0  0  0  0  0  0
  184.5410  179.3150  144.6520 C   0  0  0  0  0  2  0  0  0  0  0  0
  179.5070  177.5910  142.4720 O   0  0  0  0  0  0  0  0  0  0  0  0
  184.4750  179.1870  143.1600 C   0  0  0  0  0  0  0  0  0  0  0  0
  181.1800  178.8770  141.4050 C   0  0  0  0  0  2  0  0  0  0  0  0
  182.4440  178.8850  144.0060 C   0  0  0  0  0  0  0  0  0  0  0  0
  183.2300  178.9570  142.8000 C   0  0  0  0  0  0  0  0  0  0  0  0
  180.9670  178.6370  144.0080 C   0  0  0  0  0  2  0  0  0  0  0  0
  1  6  1  0  0  0  0
  1  9  1  1  0  0  0
  2 13  1  0  0  0  0
  2  5  1  0  0  0  0
  3 19  1  6  0  0  0
  3  2  1  0  0  0  0
  4  7  2  0  0  0  0
  5 14  1  1  0  0  0
  5 16  1  0  0  0  0
  6 17  1  0  0  0  0
  7  3  1  0  0  0  0
  8 21  1  1  0  0  0
  8 12  1  0  0  0  0
 10 18  1  0  0  0  0
 11  4  1  0  0  0  0
 13  8  1  0  0  0  0
 14  1  1  0  0  0  0
 15 20  2  0  0  0  0
 15  4  1  0  0  0  0
 16 12  1  0  0  0  0
 16 17  1  1  0  0  0
 18 13  2  0  0  0  0
 19 10  2  0  0  0  0
 20 19  1  0  0  0  0
 21 27  1  0  0  0  0
 22 31  1  0  0  0  0
 23 30  1  0  0  0  0
 25 24  1  0  0  0  0
 26 22  2  0  0  0  0
 27 25  1  0  0  0  0
 28 23  1  0  0  0  0
 28 22  1  0  0  0  0
 29 31  1  0  0  0  0
 29 24  2  0  0  0  0
 30 27  2  0  0  0  0
 30 29  1  0  0  0  0
M  END
>  <MODEL>
1

>  <REMARK>
 VINA RESULT:      -9.2      0.000      0.000
  Name = 
  2 active torsions:
  status: ('A' for Active; 'I' for Inactive)
    1  A    between atoms: C_9  and  N_23
    2  A    between atoms: C_15  and  N_23
                            x       y       z     vdW  Elec       q    Type
                         _______ _______ _______ _____ _____    ______ ____

>  <TORSDO>
F 2

$$$$
=
 OpenBabel11052413103D

 31 36  0  0  1  0  0  0  0  0999 V2000
  186.7000  175.8010  136.0280 C   0  0  2  0  0  3  0  0  0  0  0  0
  189.5630  177.0060  138.2660 N   0  0  0  0  0  0  0  0  0  0  0  0
  190.7180  176.1640  137.9250 C   0  0  1  0  0  3  0  0  0  0  0  0
  192.2570  176.0190  136.0570 C   0  0  0  0  0  0  0  0  0  0  0  0
  188.4090  177.0860  137.3580 C   0  0  1  0  0  3  0  0  0  0  0  0
  186.1550  177.1620  135.8880 N   0  0  0  0  0  2  0  0  0  0  0  0
  191.0500  176.2380  136.4980 N   0  0  0  0  0  0  0  0  0  0  0  0
  188.1930  178.2640  139.9940 C   0  0  2  0  0  3  0  0  0  0  0  0
  185.5990  174.8130  136.3640 C   0  0  0  0  0  1  0  0  0  0  0  0
  191.8130  177.1060  139.9050 N   0  0  0  0  0  0  0  0  0  0  0  0
  192.5160  176.0240  134.5940 C   0  0  0  0  0  1  0  0  0  0  0  0
  187.1030  177.7120  139.2960 O   0  0  0  0  0  0  0  0  0  0  0  0
  189.4700  177.5700  139.5900 C   0  0  0  0  0  0  0  0  0  0  0  0
  187.8390  175.7010  137.0540 C   0  0  0  0  0  2  0  0  0  0  0  0
  193.3580  175.8560  136.9720 N   0  0  0  0  0  0  0  0  0  0  0  0
  187.2940  177.9930  137.9310 C   0  0  2  0  0  3  0  0  0  0  0  0
  185.9600  177.7840  137.2010 C   0  0  0  0  0  2  0  0  0  0  0  0
  190.5590  177.6280  140.3640 C   0  0  0  0  0  3  0  0  0  0  0  0
  191.9220  176.4860  138.7700 C   0  0  0  0  0  0  0  0  0  0  0  0
  193.2300  176.0890  138.2450 C   0  0  0  0  0  3  0  0  0  0  0  0
  187.9630  178.1300  141.4260 N   0  0  0  0  0  2  0  0  0  0  0  0
  185.3980  178.4020  145.9270 C   0  0  0  0  0  0  0  0  0  0  0  0
  187.3350  177.8620  144.4100 C   0  0  0  0  0  2  0  0  0  0  0  0
  184.5670  179.2460  142.4210 N   0  0  0  0  0  0  0  0  0  0  0  0
  185.5250  179.0550  141.3310 C   0  0  0  0  0  3  0  0  0  0  0  0
  185.2500  178.8040  147.0690 O   0  0  0  0  0  0  0  0  0  0  0  0
  186.7070  178.4480  142.0250 C   0  0  0  0  0  0  0  0  0  0  0  0
  186.5020  177.4170  145.6200 C   0  0  0  0  0  2  0  0  0  0  0  0
  185.1050  178.8250  143.5160 C   0  0  2  0  0  3  0  0  0  0  0  0
  186.4310  178.3000  143.3030 C   0  0  0  0  0  0  0  0  0  0  0  0
  184.4310  178.8320  144.8530 C   0  0  0  0  0  2  0  0  0  0  0  0
  1  9  1  1  0  0  0
  1 14  1  0  0  0  0
  2 13  1  0  0  0  0
  3  7  1  6  0  0  0
  3  2  1  0  0  0  0
  3 19  1  0  0  0  0
  4  7  2  0  0  0  0
  4 15  1  0  0  0  0
  5 14  1  1  0  0  0
  5 16  1  0  0  0  0
  5  2  1  0  0  0  0
  6  1  1  0  0  0  0
  6 17  1  0  0  0  0
  8 21  1  1  0  0  0
 10 18  1  0  0  0  0
 11  4  1  0  0  0  0
 12  8  1  0  0  0  0
 13  8  1  0  0  0  0
 13 18  2  0  0  0  0
 15 20  2  0  0  0  0
 16 17  1  6  0  0  0
 16 12  1  0  0  0  0
 19 10  2  0  0  0  0
 20 19  1  0  0  0  0
 21 27  1  0  0  0  0
 22 26  2  0  0  0  0
 23 28  1  0  0  0  0
 24 29  1  0  0  0  0
 25 27  1  0  0  0  0
 25 24  2  0  0  0  0
 27 30  2  0  0  0  0
 28 22  1  0  0  0  0
 29 31  1  6  0  0  0
 30 29  1  0  0  0  0
 30 23  1  0  0  0  0
 31 22  1  0  0  0  0
M  END
>  <MODEL>
2

>  <REMARK>
 VINA RESULT:      -8.4      2.728      5.165
  Name = 
  2 active torsions:
  status: ('A' for Active; 'I' for Inactive)
    1  A    between atoms: C_9  and  N_23
    2  A    between atoms: C_15  and  N_23
                            x       y       z     vdW  Elec       q    Type
                         _______ _______ _______ _____ _____    ______ ____

>  <TORSDO>
F 2

$$$$
=
 OpenBabel11052413103D

 31 36  0  0  1  0  0  0  0  0999 V2000
  190.1050  176.2460  143.7920 C   0  0  2  0  0  3  0  0  0  0  0  0
  187.0060  178.2140  142.7040 N   0  0  0  0  0  0  0  0  0  0  0  0
  185.9800  177.9360  143.7190 C   0  0  1  0  0  3  0  0  0  0  0  0
  185.5910  178.6180  146.0120 C   0  0  0  0  0  0  0  0  0  0  0  0
  188.4230  177.9370  142.9860 C   0  0  1  0  0  3  0  0  0  0  0  0
  191.0170  177.2910  143.2990 N   0  0  0  0  0  2  0  0  0  0  0  0
  186.4300  178.2950  145.0680 N   0  0  0  0  0  0  0  0  0  0  0  0
  187.6500  178.6300  140.2840 C   0  0  2  0  0  3  0  0  0  0  0  0
  190.5560  174.8740  143.3270 C   0  0  0  0  0  1  0  0  0  0  0  0
  184.3840  179.0000  142.1940 N   0  0  0  0  0  0  0  0  0  0  0  0
  186.0990  178.8900  147.3820 C   0  0  0  0  0  1  0  0  0  0  0  0
  188.7260  177.7780  140.5910 O   0  0  0  0  0  0  0  0  0  0  0  0
  186.5980  178.5420  141.3610 C   0  0  0  0  0  0  0  0  0  0  0  0
  188.6370  176.4840  143.4070 C   0  0  0  0  0  2  0  0  0  0  0  0
  184.1910  178.7970  145.7250 N   0  0  0  0  0  0  0  0  0  0  0  0
  189.3210  178.2640  141.7700 C   0  0  2  0  0  3  0  0  0  0  0  0
  190.7140  177.6330  141.9060 C   0  0  0  0  0  2  0  0  0  0  0  0
  185.3400  178.9330  141.1270 C   0  0  0  0  0  3  0  0  0  0  0  0
  184.6710  178.6060  143.3970 C   0  0  0  0  0  0  0  0  0  0  0  0
  183.7390  178.8160  144.5060 C   0  0  0  0  0  3  0  0  0  0  0  0
  187.0970  178.2550  138.9900 N   0  0  0  0  0  2  0  0  0  0  0  0
  187.9520  174.5090  135.5030 C   0  0  0  0  0  0  0  0  0  0  0  0
  186.8660  175.5880  137.5030 C   0  0  0  0  0  2  0  0  0  0  0  0
  189.4330  177.8410  136.1360 N   0  0  0  0  0  0  0  0  0  0  0  0
  188.9700  178.6990  137.2280 C   0  0  0  0  0  2  0  0  0  0  0  0
  187.6060  173.7730  134.5940 O   0  0  0  0  0  0  0  0  0  0  0  0
  187.9250  177.8570  137.8970 C   0  0  0  0  0  0  0  0  0  0  0  0
  187.4040  174.2860  136.8930 C   0  0  0  0  0  2  0  0  0  0  0  0
  188.7780  176.7300  136.1840 C   0  0  0  0  0  0  0  0  0  0  0  0
  187.8450  176.6970  137.2820 C   0  0  0  0  0  0  0  0  0  0  0  0
  188.9790  175.5830  135.2440 C   0  0  0  0  0  2  0  0  0  0  0  0
  1  9  1  6  0  0  0
  2  5  1  0  0  0  0
  2  3  1  0  0  0  0
  3 19  1  6  0  0  0
  3  7  1  0  0  0  0
  4 11  1  0  0  0  0
  5 14  1  6  0  0  0
  6  1  1  0  0  0  0
  7  4  2  0  0  0  0
  8 21  1  6  0  0  0
  8 12  1  0  0  0  0
  8 13  1  0  0  0  0
 10 19  2  0  0  0  0
 12 16  1  0  0  0  0
 13  2  1  0  0  0  0
 14  1  1  0  0  0  0
 15  4  1  0  0  0  0
 16 17  1  1  0  0  0
 16  5  1  0  0  0  0
 17  6  1  0  0  0  0
 18 13  2  0  0  0  0
 18 10  1  0  0  0  0
 19 20  1  0  0  0  0
 20 15  2  0  0  0  0
 22 28  1  0  0  0  0
 24 29  2  0  0  0  0
 24 25  1  0  0  0  0
 25 27  1  0  0  0  0
 26 22  2  0  0  0  0
 27 21  1  0  0  0  0
 28 23  1  0  0  0  0
 29 30  1  0  0  0  0
 30 23  1  0  0  0  0
 30 27  2  0  0  0  0
 31 22  1  0  0  0  0
 31 29  1  0  0  0  0
M  END
>  <MODEL>
3

>  <REMARK>
 VINA RESULT:      -8.4      2.613      7.172
  Name = 
  2 active torsions:
  status: ('A' for Active; 'I' for Inactive)
    1  A    between atoms: C_9  and  N_23
    2  A    between atoms: C_15  and  N_23
                            x       y       z     vdW  Elec       q    Type
                         _______ _______ _______ _____ _____    ______ ____

>  <TORSDO>
F 2

$$$$
=
 OpenBabel11052413103D

 31 36  0  0  1  0  0  0  0  0999 V2000
  191.3680  177.4220  143.2170 C   0  0  2  0  0  3  0  0  0  0  0  0
  189.1980  177.4090  140.0630 N   0  0  0  0  0  0  0  0  0  0  0  0
  190.1350  177.4700  138.9330 C   0  0  1  0  0  3  0  0  0  0  0  0
  191.6630  175.9160  137.8720 C   0  0  0  0  0  0  0  0  0  0  0  0
  189.6720  177.0210  141.4010 C   0  0  1  0  0  3  0  0  0  0  0  0
  190.4440  176.5250  143.9310 N   0  0  0  0  0  2  0  0  0  0  0  0
  191.0990  176.3640  138.9580 N   0  0  0  0  0  0  0  0  0  0  0  0
  186.9840  178.0600  141.1210 C   0  0  2  0  0  3  0  0  0  0  0  0
  191.7500  178.6050  144.0880 C   0  0  0  0  0  1  0  0  0  0  0  0
  188.1820  177.9000  137.5170 N   0  0  0  0  0  0  0  0  0  0  0  0
  192.6950  174.8510  137.9680 C   0  0  0  0  0  1  0  0  0  0  0  0
  187.7700  178.2350  142.2750 O   0  0  0  0  0  0  0  0  0  0  0  0
  187.8690  177.9460  139.9050 C   0  0  0  0  0  0  0  0  0  0  0  0
  190.8250  177.9090  141.8650 C   0  0  0  0  0  2  0  0  0  0  0  0
  191.2390  176.3790  136.5750 N   0  0  0  0  0  0  0  0  0  0  0  0
  188.5310  177.0630  142.4440 C   0  0  2  0  0  3  0  0  0  0  0  0
  189.0730  177.0400  143.8800 C   0  0  0  0  0  2  0  0  0  0  0  0
  187.3830  178.1650  138.6780 C   0  0  0  0  0  3  0  0  0  0  0  0
  189.4220  177.5260  137.6080 C   0  0  0  0  0  0  0  0  0  0  0  0
  190.1800  177.1170  136.4250 C   0  0  0  0  0  3  0  0  0  0  0  0
  186.0690  179.1850  140.9900 N   0  0  0  0  0  2  0  0  0  0  0  0
  181.4180  179.0060  143.2820 C   0  0  0  0  0  0  0  0  0  0  0  0
  183.9300  179.1480  143.1810 C   0  0  0  0  0  2  0  0  0  0  0  0
  182.5810  178.8190  139.7740 N   0  0  0  0  0  0  0  0  0  0  0  0
  184.0000  178.9020  139.4240 C   0  0  0  0  0  3  0  0  0  0  0  0
  180.5280  179.4780  143.9710 O   0  0  0  0  0  0  0  0  0  0  0  0
  184.6710  179.0040  140.7610 C   0  0  0  0  0  0  0  0  0  0  0  0
  182.7150  178.5800  143.9270 C   0  0  0  0  0  2  0  0  0  0  0  0
  182.4750  178.8620  141.0600 C   0  0  2  0  0  3  0  0  0  0  0  0
  183.7590  178.9550  141.7080 C   0  0  0  0  0  0  0  0  0  0  0  0
  181.1820  178.7830  141.8090 C   0  0  0  0  0  2  0  0  0  0  0  0
  1  6  1  0  0  0  0
  1  9  1  1  0  0  0
  2  5  1  0  0  0  0
  3 19  1  6  0  0  0
  3  7  1  0  0  0  0
  3  2  1  0  0  0  0
  4 11  1  0  0  0  0
  4  7  2  0  0  0  0
  5 14  1  1  0  0  0
  5 16  1  0  0  0  0
  8 21  1  6  0  0  0
  8 12  1  0  0  0  0
 10 19  2  0  0  0  0
 10 18  1  0  0  0  0
 12 16  1  0  0  0  0
 13  2  1  0  0  0  0
 13  8  1  0  0  0  0
 14  1  1  0  0  0  0
 15  4  1  0  0  0  0
 16 17  1  1  0  0  0
 17  6  1  0  0  0  0
 18 13  2  0  0  0  0
 20 15  2  0  0  0  0
 20 19  1  0  0  0  0
 22 28  1  0  0  0  0
 22 26  2  0  0  0  0
 23 28  1  0  0  0  0
 24 29  1  0  0  0  0
 25 24  2  0  0  0  0
 25 27  1  0  0  0  0
 27 21  1  0  0  0  0
 27 30  2  0  0  0  0
 29 30  1  0  0  0  0
 29 31  1  1  0  0  0
 30 23  1  0  0  0  0
 31 22  1  0  0  0  0
M  END
>  <MODEL>
4

>  <REMARK>
 VINA RESULT:      -8.0      1.352      1.984
  Name = 
  2 active torsions:
  status: ('A' for Active; 'I' for Inactive)
    1  A    between atoms: C_9  and  N_23
    2  A    between atoms: C_15  and  N_23
                            x       y       z     vdW  Elec       q    Type
                         _______ _______ _______ _____ _____    ______ ____

>  <TORSDO>
F 2

$$$$
=
 OpenBabel11052413103D

 31 36  0  0  1  0  0  0  0  0999 V2000
  188.6680  177.0950  136.0270 C   0  0  2  0  0  3  0  0  0  0  0  0
  186.6500  177.9800  139.1580 N   0  0  0  0  0  0  0  0  0  0  0  0
  185.4340  178.6480  138.6740 C   0  0  1  0  0  3  0  0  0  0  0  0
  183.3930  177.9340  137.5760 C   0  0  0  0  0  0  0  0  0  0  0  0
  187.4700  177.1740  138.2400 C   0  0  1  0  0  3  0  0  0  0  0  0
  189.1630  175.8440  136.6250 N   0  0  0  0  0  2  0  0  0  0  0  0
  184.6810  177.8060  137.7370 N   0  0  0  0  0  0  0  0  0  0  0  0
  188.5030  177.7640  140.8790 C   0  0  2  0  0  3  0  0  0  0  0  0
  189.8040  177.8750  135.3920 C   0  0  0  0  0  1  0  0  0  0  0  0
  185.0150  179.2700  141.0060 N   0  0  0  0  0  0  0  0  0  0  0  0
  182.6970  177.1120  136.5520 C   0  0  0  0  0  1  0  0  0  0  0  0
  189.3180  177.5920  139.7450 O   0  0  0  0  0  0  0  0  0  0  0  0
  187.1550  178.3000  140.4700 C   0  0  0  0  0  0  0  0  0  0  0  0
  187.8990  177.9830  137.0160 C   0  0  0  0  0  2  0  0  0  0  0  0
  182.6250  178.7990  138.4350 N   0  0  0  0  0  0  0  0  0  0  0  0
  188.7200  176.5990  138.9470 C   0  0  2  0  0  3  0  0  0  0  0  0
  189.7620  176.0950  137.9390 C   0  0  0  0  0  2  0  0  0  0  0  0
  186.3570  178.9070  141.3570 C   0  0  0  0  0  3  0  0  0  0  0  0
  184.5530  179.1080  139.8040 C   0  0  0  0  0  0  0  0  0  0  0  0
  183.1410  179.3440  139.4960 C   0  0  0  0  0  3  0  0  0  0  0  0
  189.1610  178.6740  141.8070 N   0  0  0  0  0  2  0  0  0  0  0  0
  189.0890  177.0200  146.7250 C   0  0  0  0  0  0  0  0  0  0  0  0
  188.1260  177.9820  144.6050 C   0  0  0  0  0  2  0  0  0  0  0  0
  191.7240  177.3610  144.1480 N   0  0  0  0  0  0  0  0  0  0  0  0
  191.4340  177.8730  142.8080 C   0  0  0  0  0  3  0  0  0  0  0  0
  188.7110  176.2760  147.6140 O   0  0  0  0  0  0  0  0  0  0  0  0
  189.9740  178.2040  142.8830 C   0  0  0  0  0  0  0  0  0  0  0  0
  188.1310  178.0310  146.1390 C   0  0  0  0  0  2  0  0  0  0  0  0
  190.6370  177.3980  144.8430 C   0  0  2  0  0  3  0  0  0  0  0  0
  189.5310  177.9390  144.0930 C   0  0  0  0  0  0  0  0  0  0  0  0
  190.5280  176.9750  146.2750 C   0  0  0  0  0  2  0  0  0  0  0  0
  1  9  1  1  0  0  0
  1  6  1  0  0  0  0
  1 14  1  0  0  0  0
  2 13  1  0  0  0  0
  3  7  1  6  0  0  0
  3  2  1  0  0  0  0
  3 19  1  0  0  0  0
  4  7  2  0  0  0  0
  4 15  1  0  0  0  0
  5 14  1  6  0  0  0
  5 16  1  0  0  0  0
  5  2  1  0  0  0  0
  6 17  1  0  0  0  0
  8 21  1  1  0  0  0
 10 18  1  0  0  0  0
 11  4  1  0  0  0  0
 12  8  1  0  0  0  0
 13  8  1  0  0  0  0
 13 18  2  0  0  0  0
 15 20  2  0  0  0  0
 16 17  1  6  0  0  0
 16 12  1  0  0  0  0
 19 10  2  0  0  0  0
 20 19  1  0  0  0  0
 21 27  1  0  0  0  0
 22 26  2  0  0  0  0
 23 28  1  0  0  0  0
 24 29  1  0  0  0  0
 25 27  1  0  0  0  0
 25 24  2  0  0  0  0
 27 30  2  0  0  0  0
 28 22  1  0  0  0  0
 29 31  1  1  0  0  0
 30 23  1  0  0  0  0
 30 29  1  0  0  0  0
 31 22  1  0  0  0  0
M  END
>  <MODEL>
5

>  <REMARK>
 VINA RESULT:      -8.0      3.055      6.640
  Name = 
  2 active torsions:
  status: ('A' for Active; 'I' for Inactive)
    1  A    between atoms: C_9  and  N_23
    2  A    between atoms: C_15  and  N_23
                            x       y       z     vdW  Elec       q    Type
                         _______ _______ _______ _____ _____    ______ ____

>  <TORSDO>
F 2

$$$$
=
 OpenBabel11052413103D

 31 36  0  0  1  0  0  0  0  0999 V2000
  185.9610  174.1710  136.6070 C   0  0  2  0  0  3  0  0  0  0  0  0
  189.3880  175.7170  137.3340 N   0  0  0  0  0  0  0  0  0  0  0  0
  190.3270  174.5890  137.4070 C   0  0  1  0  0  3  0  0  0  0  0  0
  191.3570  173.0930  135.8010 C   0  0  0  0  0  0  0  0  0  0  0  0
  188.0690  175.5450  136.7050 C   0  0  1  0  0  3  0  0  0  0  0  0
  185.5570  175.3110  135.7670 N   0  0  0  0  0  2  0  0  0  0  0  0
  190.3200  173.7870  136.1790 N   0  0  0  0  0  0  0  0  0  0  0  0
  188.6140  177.9910  138.1540 C   0  0  2  0  0  3  0  0  0  0  0  0
  184.8660  173.8140  137.5940 C   0  0  0  0  0  1  0  0  0  0  0  0
  191.9560  176.1850  138.3040 N   0  0  0  0  0  0  0  0  0  0  0  0
  191.2630  172.2320  134.5940 C   0  0  0  0  0  1  0  0  0  0  0  0
  187.3360  177.4120  138.0560 O   0  0  0  0  0  0  0  0  0  0  0  0
  189.6730  176.9200  138.0750 C   0  0  0  0  0  0  0  0  0  0  0  0
  187.2900  174.3960  137.3440 C   0  0  0  0  0  2  0  0  0  0  0  0
  192.6170  173.2140  136.4910 N   0  0  0  0  0  0  0  0  0  0  0  0
  187.2310  176.8430  136.7740 C   0  0  2  0  0  3  0  0  0  0  0  0
  185.7480  176.5780  136.4800 C   0  0  0  0  0  2  0  0  0  0  0  0
  190.9130  177.1440  138.5250 C   0  0  0  0  0  3  0  0  0  0  0  0
  191.7250  175.0370  137.7430 C   0  0  0  0  0  0  0  0  0  0  0  0
  192.8190  174.1310  137.3900 C   0  0  0  0  0  3  0  0  0  0  0  0
  188.7140  178.7240  139.4090 N   0  0  0  0  0  2  0  0  0  0  0  0
  188.8590  176.7730  144.2140 C   0  0  0  0  0  0  0  0  0  0  0  0
  189.7840  177.4130  141.9600 C   0  0  0  0  0  2  0  0  0  0  0  0
  186.1980  178.2260  142.0910 N   0  0  0  0  0  0  0  0  0  0  0  0
  186.4670  178.7070  140.7350 C   0  0  0  0  0  3  0  0  0  0  0  0
  189.2600  176.7530  145.3660 O   0  0  0  0  0  0  0  0  0  0  0  0
  187.9190  178.3900  140.5470 C   0  0  0  0  0  0  0  0  0  0  0  0
  189.7900  176.3760  143.0920 C   0  0  0  0  0  2  0  0  0  0  0  0
  187.2890  177.7310  142.5720 C   0  0  2  0  0  3  0  0  0  0  0  0
  188.3770  177.7970  141.6290 C   0  0  0  0  0  0  0  0  0  0  0  0
  187.4180  177.1180  143.9310 C   0  0  0  0  0  2  0  0  0  0  0  0
  1 14  1  0  0  0  0
  1  9  1  1  0  0  0
  2  3  1  0  0  0  0
  2 13  1  0  0  0  0
  3  7  1  6  0  0  0
  3 19  1  0  0  0  0
  4  7  2  0  0  0  0
  4 15  1  0  0  0  0
  5 16  1  0  0  0  0
  5  2  1  0  0  0  0
  5 14  1  1  0  0  0
  6 17  1  0  0  0  0
  6  1  1  0  0  0  0
  8 21  1  1  0  0  0
 10 18  1  0  0  0  0
 11  4  1  0  0  0  0
 12  8  1  0  0  0  0
 13  8  1  0  0  0  0
 13 18  2  0  0  0  0
 15 20  2  0  0  0  0
 16 17  1  1  0  0  0
 16 12  1  0  0  0  0
 19 10  2  0  0  0  0
 20 19  1  0  0  0  0
 21 27  1  0  0  0  0
 22 26  2  0  0  0  0
 23 28  1  0  0  0  0
 24 29  1  0  0  0  0
 25 24  2  0  0  0  0
 27 25  1  0  0  0  0
 27 30  2  0  0  0  0
 28 22  1  0  0  0  0
 29 31  1  6  0  0  0
 30 23  1  0  0  0  0
 30 29  1  0  0  0  0
 31 22  1  0  0  0  0
M  END
>  <MODEL>
6

>  <REMARK>
 VINA RESULT:      -7.7      3.414      6.331
  Name = 
  2 active torsions:
  status: ('A' for Active; 'I' for Inactive)
    1  A    between atoms: C_9  and  N_23
    2  A    between atoms: C_15  and  N_23
                            x       y       z     vdW  Elec       q    Type
                         _______ _______ _______ _____ _____    ______ ____

>  <TORSDO>
F 2

$$$$
=
 OpenBabel11052413103D

 31 36  0  0  1  0  0  0  0  0999 V2000
  190.5450  176.3400  144.0470 C   0  0  2  0  0  3  0  0  0  0  0  0
  187.6320  178.0760  142.2710 N   0  0  0  0  0  0  0  0  0  0  0  0
  186.4410  177.7900  143.0840 C   0  0  1  0  0  3  0  0  0  0  0  0
  185.5820  178.5580  145.2170 C   0  0  0  0  0  0  0  0  0  0  0  0
  188.9780  177.8930  142.8360 C   0  0  1  0  0  3  0  0  0  0  0  0
  191.4880  177.4090  143.6790 N   0  0  0  0  0  2  0  0  0  0  0  0
  186.6030  178.2380  144.4720 N   0  0  0  0  0  0  0  0  0  0  0  0
  188.7150  178.4120  140.0000 C   0  0  2  0  0  3  0  0  0  0  0  0
  191.1410  174.9750  143.7570 C   0  0  0  0  0  1  0  0  0  0  0  0
  185.1260  178.6890  141.2220 N   0  0  0  0  0  0  0  0  0  0  0  0
  185.7990  178.9230  146.6410 C   0  0  0  0  0  1  0  0  0  0  0  0
  189.7490  177.6370  140.5580 O   0  0  0  0  0  0  0  0  0  0  0  0
  187.4790  178.3170  140.8580 C   0  0  0  0  0  0  0  0  0  0  0  0
  189.1720  176.4770  143.3740 C   0  0  0  0  0  2  0  0  0  0  0  0
  184.2570  178.6440  144.6560 N   0  0  0  0  0  0  0  0  0  0  0  0
  190.0800  178.2120  141.7990 C   0  0  2  0  0  3  0  0  0  0  0  0
  191.4470  177.6670  142.2370 C   0  0  0  0  0  2  0  0  0  0  0  0
  186.2740  178.6250  140.3650 C   0  0  0  0  0  3  0  0  0  0  0  0
  185.1900  178.3690  142.4790 C   0  0  0  0  0  0  0  0  0  0  0  0
  184.0510  178.5790  143.3740 C   0  0  0  0  0  3  0  0  0  0  0  0
  188.4430  177.9450  138.6480 N   0  0  0  0  0  2  0  0  0  0  0  0
  187.0190  173.7110  136.0080 C   0  0  0  0  0  0  0  0  0  0  0  0
  186.6950  175.9470  137.1220 C   0  0  0  0  0  2  0  0  0  0  0  0
  190.1770  174.8460  137.5710 N   0  0  0  0  0  0  0  0  0  0  0  0
  190.2770  176.1290  138.2680 C   0  0  0  0  0  2  0  0  0  0  0  0
  186.5930  173.1430  135.0160 O   0  0  0  0  0  0  0  0  0  0  0  0
  188.8810  176.6680  138.1830 C   0  0  0  0  0  0  0  0  0  0  0  0
  186.0890  174.5660  136.8370 C   0  0  0  0  0  2  0  0  0  0  0  0
  188.9580  174.6920  137.1740 C   0  0  0  0  0  0  0  0  0  0  0  0
  188.1180  175.7990  137.5570 C   0  0  0  0  0  0  0  0  0  0  0  0
  188.4490  173.4920  136.4370 C   0  0  0  0  0  2  0  0  0  0  0  0
  1  9  1  6  0  0  0
  2  5  1  0  0  0  0
  2  3  1  0  0  0  0
  3 19  1  6  0  0  0
  3  7  1  0  0  0  0
  4 11  1  0  0  0  0
  5 14  1  6  0  0  0
  6  1  1  0  0  0  0
  7  4  2  0  0  0  0
  8 21  1  6  0  0  0
  8 12  1  0  0  0  0
  8 13  1  0  0  0  0
 10 19  2  0  0  0  0
 12 16  1  0  0  0  0
 13  2  1  0  0  0  0
 14  1  1  0  0  0  0
 15  4  1  0  0  0  0
 16 17  1  1  0  0  0
 16  5  1  0  0  0  0
 17  6  1  0  0  0  0
 18 13  2  0  0  0  0
 18 10  1  0  0  0  0
 19 20  1  0  0  0  0
 20 15  2  0  0  0  0
 22 31  1  0  0  0  0
 22 28  1  0  0  0  0
 23 30  1  0  0  0  0
 24 25  1  0  0  0  0
 26 22  2  0  0  0  0
 27 25  1  0  0  0  0
 27 21  1  0  0  0  0
 28 23  1  0  0  0  0
 29 30  1  0  0  0  0
 29 24  2  0  0  0  0
 30 27  2  0  0  0  0
 31 29  1  0  0  0  0
M  END
>  <MODEL>
7

>  <REMARK>
 VINA RESULT:      -7.6      2.730      6.891
  Name = 
  2 active torsions:
  status: ('A' for Active; 'I' for Inactive)
    1  A    between atoms: C_9  and  N_23
    2  A    between atoms: C_15  and  N_23
                            x       y       z     vdW  Elec       q    Type
                         _______ _______ _______ _____ _____    ______ ____

>  <TORSDO>
F 2

$$$$
=
 OpenBabel11052413103D

 31 36  0  0  1  0  0  0  0  0999 V2000
  189.9990  176.2820  143.6900 C   0  0  2  0  0  3  0  0  0  0  0  0
  187.1130  178.1810  142.0400 N   0  0  0  0  0  0  0  0  0  0  0  0
  185.9250  177.8900  142.8550 C   0  0  1  0  0  3  0  0  0  0  0  0
  185.1150  178.5790  145.0340 C   0  0  0  0  0  0  0  0  0  0  0  0
  188.4600  177.9350  142.5770 C   0  0  1  0  0  3  0  0  0  0  0  0
  190.9660  177.3420  143.3600 N   0  0  0  0  0  2  0  0  0  0  0  0
  186.1170  178.2670  144.2600 N   0  0  0  0  0  0  0  0  0  0  0  0
  188.1760  178.5950  139.7720 C   0  0  2  0  0  3  0  0  0  0  0  0
  190.5520  174.9170  143.3270 C   0  0  0  0  0  1  0  0  0  0  0  0
  184.6120  178.9130  141.0560 N   0  0  0  0  0  0  0  0  0  0  0  0
  185.3610  178.8690  146.4700 C   0  0  0  0  0  1  0  0  0  0  0  0
  189.1950  177.7660  140.2780 O   0  0  0  0  0  0  0  0  0  0  0  0
  186.9490  178.4930  140.6420 C   0  0  0  0  0  0  0  0  0  0  0  0
  188.6210  176.4890  143.0440 C   0  0  0  0  0  2  0  0  0  0  0  0
  183.7870  178.7280  144.4960 N   0  0  0  0  0  0  0  0  0  0  0  0
  189.5580  178.2710  141.5400 C   0  0  2  0  0  3  0  0  0  0  0  0
  190.9140  177.6690  141.9320 C   0  0  0  0  0  2  0  0  0  0  0  0
  185.7470  178.8580  140.1810 C   0  0  0  0  0  3  0  0  0  0  0  0
  184.6840  178.5320  142.2950 C   0  0  0  0  0  0  0  0  0  0  0  0
  183.5630  178.7300  143.2160 C   0  0  0  0  0  3  0  0  0  0  0  0
  187.8730  178.2010  138.4030 N   0  0  0  0  0  2  0  0  0  0  0  0
  191.6260  174.8160  137.2300 C   0  0  0  0  0  0  0  0  0  0  0  0
  190.6650  177.0400  137.9180 C   0  0  0  0  0  2  0  0  0  0  0  0
  187.9280  174.6670  137.2710 N   0  0  0  0  0  0  0  0  0  0  0  0
  187.1120  175.8180  137.6600 C   0  0  0  0  0  2  0  0  0  0  0  0
  192.6130  174.1530  137.5020 O   0  0  0  0  0  0  0  0  0  0  0  0
  188.1340  176.8840  137.9180 C   0  0  0  0  0  0  0  0  0  0  0  0
  191.7470  176.3160  137.1040 C   0  0  0  0  0  2  0  0  0  0  0  0
  189.1700  175.0180  137.3010 C   0  0  0  0  0  0  0  0  0  0  0  0
  189.3340  176.4000  137.6790 C   0  0  0  0  0  0  0  0  0  0  0  0
  190.3160  174.1230  136.9480 C   0  0  0  0  0  2  0  0  0  0  0  0
  1  9  1  6  0  0  0
  2  5  1  0  0  0  0
  2  3  1  0  0  0  0
  3 19  1  6  0  0  0
  3  7  1  0  0  0  0
  4 11  1  0  0  0  0
  5 14  1  6  0  0  0
  6  1  1  0  0  0  0
  7  4  2  0  0  0  0
  8 21  1  6  0  0  0
  8 12  1  0  0  0  0
  8 13  1  0  0  0  0
 10 19  2  0  0  0  0
 12 16  1  0  0  0  0
 13  2  1  0  0  0  0
 14  1  1  0  0  0  0
 15  4  1  0  0  0  0
 16 17  1  1  0  0  0
 16  5  1  0  0  0  0
 17  6  1  0  0  0  0
 18 13  2  0  0  0  0
 18 10  1  0  0  0  0
 19 20  1  0  0  0  0
 20 15  2  0  0  0  0
 22 26  2  0  0  0  0
 24 29  2  0  0  0  0
 24 25  1  0  0  0  0
 25 27  1  0  0  0  0
 27 21  1  0  0  0  0
 28 22  1  0  0  0  0
 28 23  1  0  0  0  0
 29 30  1  0  0  0  0
 30 27  2  0  0  0  0
 30 23  1  0  0  0  0
 31 22  1  0  0  0  0
 31 29  1  0  0  0  0
M  END
>  <MODEL>
8

>  <REMARK>
 VINA RESULT:      -7.3      2.498      7.456
  Name = 
  2 active torsions:
  status: ('A' for Active; 'I' for Inactive)
    1  A    between atoms: C_9  and  N_23
    2  A    between atoms: C_15  and  N_23
                            x       y       z     vdW  Elec       q    Type
                         _______ _______ _______ _____ _____    ______ ____

>  <TORSDO>
F 2

$$$$
=
 OpenBabel11052413103D

 31 36  0  0  1  0  0  0  0  0999 V2000
  184.8010  179.1130  144.5980 C   0  0  2  0  0  3  0  0  0  0  0  0
  188.3020  177.7930  143.7880 N   0  0  0  0  0  0  0  0  0  0  0  0
  189.0830  177.9470  145.0230 C   0  0  1  0  0  3  0  0  0  0  0  0
  189.1660  176.8160  147.1650 C   0  0  0  0  0  0  0  0  0  0  0  0
  186.8320  177.8410  143.8280 C   0  0  1  0  0  3  0  0  0  0  0  0
  184.1560  178.1120  143.7330 N   0  0  0  0  0  2  0  0  0  0  0  0
  188.4650  177.2470  146.1550 N   0  0  0  0  0  0  0  0  0  0  0  0
  188.1580  177.8610  141.2540 C   0  0  2  0  0  3  0  0  0  0  0  0
  184.2360  180.4960  144.3340 C   0  0  0  0  0  1  0  0  0  0  0  0
  191.0610  177.4330  143.6710 N   0  0  0  0  0  0  0  0  0  0  0  0
  188.4760  176.1890  148.3230 C   0  0  0  0  0  1  0  0  0  0  0  0
  186.9290  178.4990  141.5020 O   0  0  0  0  0  0  0  0  0  0  0  0
  188.9820  177.8200  142.5170 C   0  0  0  0  0  0  0  0  0  0  0  0
  186.3320  179.1300  144.4770 C   0  0  0  0  0  2  0  0  0  0  0  0
  190.6060  176.8600  147.1370 N   0  0  0  0  0  0  0  0  0  0  0  0
  186.2180  177.6990  142.4150 C   0  0  2  0  0  3  0  0  0  0  0  0
  184.7440  178.1260  142.3910 C   0  0  0  0  0  2  0  0  0  0  0  0
  190.3060  177.6320  142.4690 C   0  0  0  0  0  3  0  0  0  0  0  0
  190.5140  177.5140  144.8460 C   0  0  0  0  0  0  0  0  0  0  0  0
  191.2600  177.1650  146.0560 C   0  0  0  0  0  3  0  0  0  0  0  0
  188.8650  178.5750  140.1990 N   0  0  0  0  0  2  0  0  0  0  0  0
  191.5600  175.6780  136.8440 C   0  0  0  0  0  0  0  0  0  0  0  0
  191.1050  176.8490  139.0270 C   0  0  0  0  0  2  0  0  0  0  0  0
  188.3490  177.5120  136.6810 N   0  0  0  0  0  0  0  0  0  0  0  0
  187.8290  178.2630  137.8250 C   0  0  0  0  0  2  0  0  0  0  0  0
  192.0850  174.6360  136.4870 O   0  0  0  0  0  0  0  0  0  0  0  0
  188.9050  178.0960  138.8550 C   0  0  0  0  0  0  0  0  0  0  0  0
  192.1630  176.4670  137.9820 C   0  0  0  0  0  2  0  0  0  0  0  0
  189.4980  177.0200  137.0050 C   0  0  0  0  0  0  0  0  0  0  0  0
  189.8850  177.3820  138.3450 C   0  0  0  0  0  0  0  0  0  0  0  0
  190.3600  176.2020  136.0940 C   0  0  0  0  0  2  0  0  0  0  0  0
  1  9  1  6  0  0  0
  2  5  1  0  0  0  0
  2  3  1  0  0  0  0
  3 19  1  6  0  0  0
  3  7  1  0  0  0  0
  4 11  1  0  0  0  0
  5 14  1  6  0  0  0
  6  1  1  0  0  0  0
  7  4  2  0  0  0  0
  8 21  1  6  0  0  0
  8 12  1  0  0  0  0
  8 13  1  0  0  0  0
 10 19  2  0  0  0  0
 12 16  1  0  0  0  0
 13  2  1  0  0  0  0
 14  1  1  0  0  0  0
 15  4  1  0  0  0  0
 16 17  1  1  0  0  0
 16  5  1  0  0  0  0
 17  6  1  0  0  0  0
 18 13  2  0  0  0  0
 18 10  1  0  0  0  0
 19 20  1  0  0  0  0
 20 15  2  0  0  0  0
 22 28  1  0  0  0  0
 24 29  2  0  0  0  0
 24 25  1  0  0  0  0
 25 27  1  0  0  0  0
 26 22  2  0  0  0  0
 27 21  1  0  0  0  0
 28 23  1  0  0  0  0
 29 30  1  0  0  0  0
 30 27  2  0  0  0  0
 30 23  1  0  0  0  0
 31 22  1  0  0  0  0
 31 29  1  0  0  0  0
M  END
>  <MODEL>
9

>  <REMARK>
 VINA RESULT:      -7.2      2.354      7.957
  Name = 
  2 active torsions:
  status: ('A' for Active; 'I' for Inactive)
    1  A    between atoms: C_9  and  N_23
    2  A    between atoms: C_15  and  N_23
                            x       y       z     vdW  Elec       q    Type
                         _______ _______ _______ _____ _____    ______ ____

>  <TORSDO>
F 2

$$$$
