=
 OpenBabel11052415113D

 55 62  0  0  1  0  0  0  0  0999 V2000
  188.4920  177.9430  134.8500 C   0  0  0  0  0  2  0  0  0  0  0  0
  189.0640  180.1050  137.1990 O   0  0  0  0  0  1  0  0  0  0  0  0
  182.8690  176.2730  136.9100 C   0  0  2  0  0  0  0  0  0  0  0  0
  185.7490  174.8090  136.4260 C   0  0  1  0  0  3  0  0  0  0  0  0
  184.4940  174.6920  137.2810 C   0  0  0  0  0  2  0  0  0  0  0  0
  188.1620  176.1710  137.8080 O   0  0  0  0  0  0  0  0  0  0  0  0
  181.9090  178.0050  135.7710 C   0  0  0  0  0  2  0  0  0  0  0  0
  181.8150  176.6220  136.0360 O   0  0  0  0  0  0  0  0  0  0  0  0
  187.2460  175.3390  138.2540 O   0  0  0  0  0  0  0  0  0  0  0  0
  189.1800  178.1930  138.6380 C   0  0  1  0  0  3  0  0  0  0  0  0
  183.9540  177.3550  136.7390 C   0  0  2  0  0  3  0  0  0  0  0  0
  185.8610  175.9760  135.4080 C   0  0  1  0  0  3  0  0  0  0  0  0
  187.0420  174.4690  137.1770 C   0  0  1  0  0  3  0  0  0  0  0  0
  188.7700  176.7430  138.9290 C   0  0  1  0  0  3  0  0  0  0  0  0
  186.9910  178.2150  135.0060 C   0  0  0  0  0  2  0  0  0  0  0  0
  189.3450  177.9860  136.1260 C   0  0  0  0  0  2  0  0  0  0  0  0
  188.7200  178.7570  137.2890 C   0  0  2  0  0  3  0  0  0  0  0  0
  183.1350  178.5710  136.4530 C   0  0  0  0  0  2  0  0  0  0  0  0
  184.8580  177.1430  135.5130 C   0  0  2  0  0  3  0  0  0  0  0  0
  187.9430  177.8980  139.4820 C   0  0  1  0  0  3  0  0  0  0  0  0
  183.3500  174.9960  136.5250 O   0  0  0  0  0  0  0  0  0  0  0  0
  186.2810  177.3080  136.0040 C   0  0  1  0  0  3  0  0  0  0  0  0
  182.1840  174.9190  138.8700 O   0  0  0  0  0  0  0  0  0  0  0  0
  180.5220  176.6580  138.4820 S   0  0  0  0  0  0  0  0  0  0  0  0
  180.7960  174.9670  139.0610 C   0  0  0  0  0  2  0  0  0  0  0  0
  182.2880  176.2320  138.3780 C   0  0  2  0  0  0  0  0  0  0  0  0
  183.0670  177.1140  139.3680 C   0  0  0  0  0  2  0  0  0  0  0  0
  182.2120  178.2060  140.0140 C   0  0  1  0  0  3  0  0  0  0  0  0
  181.2190  179.0670  142.1800 C   0  0  0  0  0  1  0  0  0  0  0  0
  182.1930  178.0900  141.5370 C   0  0  0  0  0  2  0  0  0  0  0  0
  182.6800  179.4650  139.6300 O   0  0  0  0  0  0  0  0  0  0  0  0
  184.0710  179.3680  139.7110 C   0  0  0  0  0  1  0  0  0  0  0  0
  187.0220  173.0220  137.6580 C   0  0  0  0  0  2  0  0  0  0  0  0
  187.9480  172.1470  136.8290 C   0  0  0  0  0  2  0  0  0  0  0  0
  189.0450  172.8890  136.3950 O   0  0  0  0  0  1  0  0  0  0  0  0
  188.1890  178.1080  140.9920 C   0  0  1  0  0  3  0  0  0  0  0  0
  187.5660  177.0100  141.8580 C   0  0  0  0  0  2  0  0  0  0  0  0
  186.5930  177.5610  142.8460 C   0  0  0  0  0  0  0  0  0  0  0  0
  184.8890  179.3080  143.3980 C   0  0  0  0  0  3  0  0  0  0  0  0
  186.8140  177.8120  145.3010 C   0  0  0  0  0  0  0  0  0  0  0  0
  186.4820  176.8920  144.1760 C   0  0  0  0  0  2  0  0  0  0  0  0
  185.0040  179.4380  144.7250 C   0  0  0  0  0  3  0  0  0  0  0  0
  185.8260  178.6000  142.5040 C   0  0  0  0  0  3  0  0  0  0  0  0
  187.8860  177.4140  146.2520 C   0  0  0  0  0  1  0  0  0  0  0  0
  186.0890  178.8980  145.5690 C   0  0  0  0  0  3  0  0  0  0  0  0
  189.5740  178.2560  141.3080 O   0  0  0  0  0  0  0  0  0  0  0  0
  190.3060  178.6560  143.6070 C   0  0  0  0  0  3  0  0  0  0  0  0
  191.2710  176.8350  144.8880 C   0  0  0  0  0  0  0  0  0  0  0  0
  190.5390  176.4680  142.6030 C   0  0  0  0  0  3  0  0  0  0  0  0
  191.1020  175.9840  143.7870 C   0  0  0  0  0  3  0  0  0  0  0  0
  190.8710  178.1740  144.7910 C   0  0  0  0  0  3  0  0  0  0  0  0
  190.1360  177.8040  142.5060 C   0  0  0  0  0  0  0  0  0  0  0  0
  191.8640  176.3310  146.1380 C   0  0  0  0  0  0  0  0  0  0  0  0
  191.8090  177.0180  147.1930 O   0  0  0  0  0  1  0  0  0  0  0  0
  192.4920  175.0930  146.1640 O   0  0  0  0  0  0  0  0  0  0  0  0
  1 15  1  0  0  0  0
  1 16  1  0  0  0  0
  2 17  1  0  0  0  0
  3  8  1  6  0  0  0
  3 26  1  0  0  0  0
  4 13  1  0  0  0  0
  4  5  1  1  0  0  0
  6  9  1  0  0  0  0
  6 14  1  0  0  0  0
  7  8  1  0  0  0  0
  7 18  1  0  0  0  0
 10 14  1  0  0  0  0
 10 20  1  0  0  0  0
 11  3  1  0  0  0  0
 12 19  1  0  0  0  0
 12 22  1  0  0  0  0
 12  4  1  0  0  0  0
 13 33  1  0  0  0  0
 13  9  1  0  0  0  0
 14 20  1  0  0  0  0
 15 22  1  0  0  0  0
 16 17  1  0  0  0  0
 17 10  1  0  0  0  0
 18 11  1  0  0  0  0
 19 22  1  0  0  0  0
 19 11  1  0  0  0  0
 20 36  1  0  0  0  0
 21  3  1  0  0  0  0
 21  5  1  0  0  0  0
 23 25  1  0  0  0  0
 24 25  1  0  0  0  0
 26 24  1  0  0  0  0
 26 23  1  0  0  0  0
 26 27  1  0  0  0  0
 27 28  1  0  0  0  0
 28 30  1  0  0  0  0
 30 29  1  0  0  0  0
 31 32  1  0  0  0  0
 31 28  1  0  0  0  0
 34 33  1  0  0  0  0
 35 34  1  0  0  0  0
 36 46  1  0  0  0  0
 36 37  1  0  0  0  0
 37 38  1  0  0  0  0
 38 41  1  0  0  0  0
 39 42  2  0  0  0  0
 40 45  2  0  0  0  0
 40 44  1  0  0  0  0
 41 40  1  0  0  0  0
 42 45  1  0  0  0  0
 43 38  2  0  0  0  0
 43 39  1  0  0  0  0
 46 52  1  0  0  0  0
 47 51  1  0  0  0  0
 48 53  1  0  0  0  0
 49 50  2  0  0  0  0
 50 48  1  0  0  0  0
 51 48  2  0  0  0  0
 52 49  1  0  0  0  0
 52 47  2  0  0  0  0
 53 55  2  0  0  0  0
 53 54  1  0  0  0  0
M  END
>  <MODEL>
1

>  <REMARK>
 VINA RESULT:      -7.2      0.000      0.000
  Name = 
  13 active torsions:
  status: ('A' for Active; 'I' for Inactive)
    1  A    between atoms: C_2  and  C_28
    2  A    between atoms: C_6  and  C_53
    3  A    between atoms: C_10  and  C_32
    4  A    between atoms: C_11  and  C_29
    5  A    between atoms: C_16  and  C_17
    6  A    between atoms: C_17  and  C_23
    7  A    between atoms: O_25  and  C_29
    8  A    between atoms: C_28  and  C_49
    9  A    between atoms: C_29  and  C_38
   10  A    between atoms: O_33  and  C_49
   11  A    between atoms: O_33  and  C_52
   12  A    between atoms: C_38  and  C_53
   13  A    between atoms: C_45  and  C_49
                            x       y       z     vdW  Elec       q    Type
                         _______ _______ _______ _____ _____    ______ ____

>  <TORSDO>
F 13

$$$$
=
 OpenBabel11052415113D

 55 62  0  0  1  0  0  0  0  0999 V2000
  188.2620  177.9680  134.8460 C   0  0  0  0  0  2  0  0  0  0  0  0
  188.9560  180.0930  137.1960 O   0  0  0  0  0  1  0  0  0  0  0  0
  182.6710  176.4010  137.0670 C   0  0  2  0  0  0  0  0  0  0  0  0
  185.5010  174.8800  136.4780 C   0  0  1  0  0  3  0  0  0  0  0  0
  184.2710  174.7810  137.3700 C   0  0  0  0  0  2  0  0  0  0  0  0
  187.9860  176.1740  137.7950 O   0  0  0  0  0  0  0  0  0  0  0  0
  181.7150  178.1660  135.9750 C   0  0  0  0  0  2  0  0  0  0  0  0
  181.5980  176.7820  136.2290 O   0  0  0  0  0  0  0  0  0  0  0  0
  187.0670  175.3580  138.2620 O   0  0  0  0  0  0  0  0  0  0  0  0
  189.0740  178.1640  138.6120 C   0  0  1  0  0  3  0  0  0  0  0  0
  183.7740  177.4610  136.8710 C   0  0  2  0  0  3  0  0  0  0  0  0
  185.6070  176.0540  135.4670 C   0  0  1  0  0  3  0  0  0  0  0  0
  186.8090  174.5030  137.1840 C   0  0  1  0  0  3  0  0  0  0  0  0
  188.6410  176.7200  138.9020 C   0  0  1  0  0  3  0  0  0  0  0  0
  186.7730  178.2710  135.0510 C   0  0  0  0  0  2  0  0  0  0  0  0
  189.1550  177.9790  136.0940 C   0  0  0  0  0  2  0  0  0  0  0  0
  188.5850  178.7510  137.2840 C   0  0  2  0  0  3  0  0  0  0  0  0
  182.9730  178.6970  136.6230 C   0  0  0  0  0  2  0  0  0  0  0  0
  184.6340  177.2410  135.6160 C   0  0  2  0  0  3  0  0  0  0  0  0
  187.8580  177.8880  139.4920 C   0  0  1  0  0  3  0  0  0  0  0  0
  183.1110  175.1180  136.6540 O   0  0  0  0  0  0  0  0  0  0  0  0
  186.0750  177.3700  136.0630 C   0  0  1  0  0  3  0  0  0  0  0  0
  181.0700  177.2530  138.7570 O   0  0  0  0  0  0  0  0  0  0  0  0
  183.2810  177.0790  139.7680 S   0  0  0  0  0  0  0  0  0  0  0  0
  181.7260  178.0010  139.7450 C   0  0  0  0  0  2  0  0  0  0  0  0
  182.1350  176.3580  138.5520 C   0  0  2  0  0  0  0  0  0  0  0  0
  181.7450  174.9460  139.0200 C   0  0  0  0  0  2  0  0  0  0  0  0
  180.2480  174.6580  138.9000 C   0  0  1  0  0  3  0  0  0  0  0  0
  180.6520  172.5220  137.5990 C   0  0  0  0  0  1  0  0  0  0  0  0
  179.9200  173.8560  137.6420 C   0  0  0  0  0  2  0  0  0  0  0  0
  179.8020  173.9800  140.0370 O   0  0  0  0  0  0  0  0  0  0  0  0
  179.3250  174.9810  140.8850 C   0  0  0  0  0  1  0  0  0  0  0  0
  186.7720  173.0520  137.6510 C   0  0  0  0  0  2  0  0  0  0  0  0
  187.9700  172.2710  137.1370 C   0  0  0  0  0  2  0  0  0  0  0  0
  188.2450  172.6290  135.8190 O   0  0  0  0  0  1  0  0  0  0  0  0
  188.1570  178.0760  140.9960 C   0  0  1  0  0  3  0  0  0  0  0  0
  187.4980  177.0100  141.8750 C   0  0  0  0  0  2  0  0  0  0  0  0
  186.4960  177.5960  142.8120 C   0  0  0  0  0  0  0  0  0  0  0  0
  184.7560  179.3440  143.2360 C   0  0  0  0  0  3  0  0  0  0  0  0
  186.6630  177.9800  145.2540 C   0  0  0  0  0  0  0  0  0  0  0  0
  186.3670  176.9970  144.1730 C   0  0  0  0  0  2  0  0  0  0  0  0
  184.8420  179.5450  144.5560 C   0  0  0  0  0  3  0  0  0  0  0  0
  185.7220  178.6040  142.4000 C   0  0  0  0  0  3  0  0  0  0  0  0
  187.7200  177.6490  146.2460 C   0  0  0  0  0  1  0  0  0  0  0  0
  185.9170  179.0670  145.4500 C   0  0  0  0  0  3  0  0  0  0  0  0
  189.5550  178.1470  141.2740 O   0  0  0  0  0  0  0  0  0  0  0  0
  190.5320  176.3280  142.5850 C   0  0  0  0  0  3  0  0  0  0  0  0
  191.2620  176.7520  144.8600 C   0  0  0  0  0  0  0  0  0  0  0  0
  190.2860  178.5380  143.5360 C   0  0  0  0  0  3  0  0  0  0  0  0
  190.8530  178.0870  144.7310 C   0  0  0  0  0  3  0  0  0  0  0  0
  191.0970  175.8750  143.7800 C   0  0  0  0  0  3  0  0  0  0  0  0
  190.1240  177.6650  142.4570 C   0  0  0  0  0  0  0  0  0  0  0  0
  191.8600  176.2720  146.1160 C   0  0  0  0  0  0  0  0  0  0  0  0
  192.4450  175.1570  146.1590 O   0  0  0  0  0  0  0  0  0  0  0  0
  191.7810  177.0440  147.2680 O   0  0  0  0  0  1  0  0  0  0  0  0
  1 15  1  0  0  0  0
  1 16  1  0  0  0  0
  2 17  1  0  0  0  0
  3  8  1  6  0  0  0
  3 26  1  0  0  0  0
  4 13  1  0  0  0  0
  4  5  1  1  0  0  0
  6  9  1  0  0  0  0
  6 14  1  0  0  0  0
  7  8  1  0  0  0  0
  7 18  1  0  0  0  0
 10 14  1  0  0  0  0
 10 20  1  0  0  0  0
 11  3  1  0  0  0  0
 12 19  1  0  0  0  0
 12 22  1  0  0  0  0
 12  4  1  0  0  0  0
 13 33  1  0  0  0  0
 13  9  1  0  0  0  0
 14 20  1  0  0  0  0
 15 22  1  0  0  0  0
 16 17  1  0  0  0  0
 17 10  1  0  0  0  0
 18 11  1  0  0  0  0
 19 22  1  0  0  0  0
 19 11  1  0  0  0  0
 20 36  1  0  0  0  0
 21  3  1  0  0  0  0
 21  5  1  0  0  0  0
 23 25  1  0  0  0  0
 25 24  1  0  0  0  0
 26 23  1  0  0  0  0
 26 27  1  0  0  0  0
 26 24  1  0  0  0  0
 28 27  1  0  0  0  0
 28 31  1  0  0  0  0
 29 30  1  0  0  0  0
 30 28  1  0  0  0  0
 31 32  1  0  0  0  0
 34 33  1  0  0  0  0
 35 34  1  0  0  0  0
 36 46  1  0  0  0  0
 36 37  1  0  0  0  0
 37 38  1  0  0  0  0
 38 41  1  0  0  0  0
 39 42  2  0  0  0  0
 40 45  2  0  0  0  0
 40 44  1  0  0  0  0
 41 40  1  0  0  0  0
 42 45  1  0  0  0  0
 43 38  2  0  0  0  0
 43 39  1  0  0  0  0
 46 52  1  0  0  0  0
 47 51  1  0  0  0  0
 48 53  1  0  0  0  0
 49 50  2  0  0  0  0
 50 48  1  0  0  0  0
 51 48  2  0  0  0  0
 52 47  2  0  0  0  0
 52 49  1  0  0  0  0
 53 54  2  0  0  0  0
 53 55  1  0  0  0  0
M  END
>  <MODEL>
2

>  <REMARK>
 VINA RESULT:      -6.6      0.929      2.223
  Name = 
  13 active torsions:
  status: ('A' for Active; 'I' for Inactive)
    1  A    between atoms: C_2  and  C_28
    2  A    between atoms: C_6  and  C_53
    3  A    between atoms: C_10  and  C_32
    4  A    between atoms: C_11  and  C_29
    5  A    between atoms: C_16  and  C_17
    6  A    between atoms: C_17  and  C_23
    7  A    between atoms: O_25  and  C_29
    8  A    between atoms: C_28  and  C_49
    9  A    between atoms: C_29  and  C_38
   10  A    between atoms: O_33  and  C_49
   11  A    between atoms: O_33  and  C_52
   12  A    between atoms: C_38  and  C_53
   13  A    between atoms: C_45  and  C_49
                            x       y       z     vdW  Elec       q    Type
                         _______ _______ _______ _____ _____    ______ ____

>  <TORSDO>
F 13

$$$$
=
 OpenBabel11052415113D

 55 62  0  0  1  0  0  0  0  0999 V2000
  188.4350  177.9770  134.5940 C   0  0  0  0  0  2  0  0  0  0  0  0
  188.5890  180.0130  137.1140 O   0  0  0  0  0  1  0  0  0  0  0  0
  182.7840  175.7620  135.9380 C   0  0  2  0  0  0  0  0  0  0  0  0
  185.8070  174.5510  135.6800 C   0  0  1  0  0  3  0  0  0  0  0  0
  184.4850  174.2840  136.3860 C   0  0  0  0  0  2  0  0  0  0  0  0
  187.9480  175.9910  137.3900 O   0  0  0  0  0  0  0  0  0  0  0  0
  181.8090  177.4910  134.8060 C   0  0  0  0  0  2  0  0  0  0  0  0
  181.8000  176.0900  134.9770 O   0  0  0  0  0  0  0  0  0  0  0  0
  187.0620  175.0660  137.6850 O   0  0  0  0  0  0  0  0  0  0  0  0
  188.7100  178.0220  138.4420 C   0  0  1  0  0  3  0  0  0  0  0  0
  183.7900  176.9300  135.9470 C   0  0  2  0  0  3  0  0  0  0  0  0
  185.9280  175.7880  134.7490 C   0  0  1  0  0  3  0  0  0  0  0  0
  187.0390  174.2570  136.5430 C   0  0  1  0  0  3  0  0  0  0  0  0
  188.3900  176.5300  138.6020 C   0  0  1  0  0  3  0  0  0  0  0  0
  186.9090  178.1260  134.6040 C   0  0  0  0  0  2  0  0  0  0  0  0
  189.1470  177.9960  135.9540 C   0  0  0  0  0  2  0  0  0  0  0  0
  188.3470  178.6390  137.0870 C   0  0  2  0  0  3  0  0  0  0  0  0
  182.9090  178.0980  135.6470 C   0  0  0  0  0  2  0  0  0  0  0  0
  184.8290  176.8680  134.8160 C   0  0  2  0  0  3  0  0  0  0  0  0
  187.4210  177.5810  139.1300 C   0  0  1  0  0  3  0  0  0  0  0  0
  183.4030  174.5520  135.5310 O   0  0  0  0  0  0  0  0  0  0  0  0
  186.1760  177.1040  135.4650 C   0  0  1  0  0  3  0  0  0  0  0  0
  181.0640  176.5510  137.5400 O   0  0  0  0  0  0  0  0  0  0  0  0
  183.1020  176.0040  138.7600 S   0  0  0  0  0  0  0  0  0  0  0  0
  181.6530  177.0840  138.6950 C   0  0  0  0  0  2  0  0  0  0  0  0
  182.0610  175.5800  137.3300 C   0  0  2  0  0  0  0  0  0  0  0  0
  181.4860  174.1690  137.5400 C   0  0  0  0  0  2  0  0  0  0  0  0
  180.0990  173.9800  136.9240 C   0  0  1  0  0  3  0  0  0  0  0  0
  180.3700  172.9830  134.6110 C   0  0  0  0  0  1  0  0  0  0  0  0
  180.0220  172.7160  136.0690 C   0  0  0  0  0  2  0  0  0  0  0  0
  179.1320  173.9410  137.9320 O   0  0  0  0  0  0  0  0  0  0  0  0
  179.8520  173.7160  139.1080 C   0  0  0  0  0  1  0  0  0  0  0  0
  187.0860  172.7840  136.9330 C   0  0  0  0  0  2  0  0  0  0  0  0
  188.1160  172.0240  136.1130 C   0  0  0  0  0  2  0  0  0  0  0  0
  187.5860  171.6940  134.8660 O   0  0  0  0  0  1  0  0  0  0  0  0
  187.4940  177.7060  140.6670 C   0  0  1  0  0  3  0  0  0  0  0  0
  188.9190  177.5770  141.2110 C   0  0  0  0  0  2  0  0  0  0  0  0
  188.9370  177.3070  142.6780 C   0  0  0  0  0  0  0  0  0  0  0  0
  187.6370  176.9200  144.7800 C   0  0  0  0  0  3  0  0  0  0  0  0
  190.4040  178.2590  144.4340 C   0  0  0  0  0  0  0  0  0  0  0  0
  190.2610  177.2300  143.3640 C   0  0  0  0  0  2  0  0  0  0  0  0
  188.4330  177.4270  145.7290 C   0  0  0  0  0  3  0  0  0  0  0  0
  187.7850  177.1040  143.3230 C   0  0  0  0  0  3  0  0  0  0  0  0
  191.5590  179.1940  144.3710 C   0  0  0  0  0  1  0  0  0  0  0  0
  189.6250  178.2740  145.5150 C   0  0  0  0  0  3  0  0  0  0  0  0
  186.8910  178.9070  141.1510 O   0  0  0  0  0  0  0  0  0  0  0  0
  185.3360  179.2050  143.0150 C   0  0  0  0  0  3  0  0  0  0  0  0
  182.9480  179.0480  142.6170 C   0  0  0  0  0  0  0  0  0  0  0  0
  184.5150  178.7530  140.7860 C   0  0  0  0  0  3  0  0  0  0  0  0
  183.2010  178.7990  141.2600 C   0  0  0  0  0  3  0  0  0  0  0  0
  184.0230  179.2500  143.4910 C   0  0  0  0  0  3  0  0  0  0  0  0
  185.5890  178.9570  141.6570 C   0  0  0  0  0  0  0  0  0  0  0  0
  181.5670  179.0980  143.1220 C   0  0  0  0  0  0  0  0  0  0  0  0
  181.2840  178.6270  144.2560 O   0  0  0  0  0  1  0  0  0  0  0  0
  180.5600  179.6620  142.3490 O   0  0  0  0  0  0  0  0  0  0  0  0
  1 15  1  0  0  0  0
  1 16  1  0  0  0  0
  3  8  1  6  0  0  0
  3 11  1  0  0  0  0
  3 26  1  0  0  0  0
  4  5  1  1  0  0  0
  4 13  1  0  0  0  0
  6  9  1  0  0  0  0
  6 14  1  0  0  0  0
  7  8  1  0  0  0  0
  7 18  1  0  0  0  0
 10 14  1  0  0  0  0
 10 20  1  0  0  0  0
 12 19  1  0  0  0  0
 12 22  1  0  0  0  0
 12  4  1  0  0  0  0
 13 33  1  0  0  0  0
 13  9  1  0  0  0  0
 14 20  1  0  0  0  0
 15 22  1  0  0  0  0
 16 17  1  0  0  0  0
 17  2  1  0  0  0  0
 17 10  1  0  0  0  0
 18 11  1  0  0  0  0
 19 22  1  0  0  0  0
 19 11  1  0  0  0  0
 20 36  1  0  0  0  0
 21  3  1  0  0  0  0
 21  5  1  0  0  0  0
 23 25  1  0  0  0  0
 25 24  1  0  0  0  0
 26 27  1  0  0  0  0
 26 23  1  0  0  0  0
 26 24  1  0  0  0  0
 28 27  1  0  0  0  0
 28 31  1  0  0  0  0
 29 30  1  0  0  0  0
 30 28  1  0  0  0  0
 31 32  1  0  0  0  0
 34 33  1  0  0  0  0
 35 34  1  0  0  0  0
 36 46  1  0  0  0  0
 36 37  1  0  0  0  0
 37 38  1  0  0  0  0
 38 43  2  0  0  0  0
 38 41  1  0  0  0  0
 39 42  2  0  0  0  0
 40 45  2  0  0  0  0
 41 40  1  0  0  0  0
 43 39  1  0  0  0  0
 44 40  1  0  0  0  0
 45 42  1  0  0  0  0
 46 52  1  0  0  0  0
 47 51  1  0  0  0  0
 48 53  1  0  0  0  0
 48 51  2  0  0  0  0
 49 50  2  0  0  0  0
 49 52  1  0  0  0  0
 50 48  1  0  0  0  0
 52 47  2  0  0  0  0
 53 54  1  0  0  0  0
 55 53  2  0  0  0  0
M  END
>  <MODEL>
3

>  <REMARK>
 VINA RESULT:      -6.0      2.078      4.630
  Name = 
  13 active torsions:
  status: ('A' for Active; 'I' for Inactive)
    1  A    between atoms: C_2  and  C_28
    2  A    between atoms: C_6  and  C_53
    3  A    between atoms: C_10  and  C_32
    4  A    between atoms: C_11  and  C_29
    5  A    between atoms: C_16  and  C_17
    6  A    between atoms: C_17  and  C_23
    7  A    between atoms: O_25  and  C_29
    8  A    between atoms: C_28  and  C_49
    9  A    between atoms: C_29  and  C_38
   10  A    between atoms: O_33  and  C_49
   11  A    between atoms: O_33  and  C_52
   12  A    between atoms: C_38  and  C_53
   13  A    between atoms: C_45  and  C_49
                            x       y       z     vdW  Elec       q    Type
                         _______ _______ _______ _____ _____    ______ ____

>  <TORSDO>
F 13

$$$$
=
 OpenBabel11052415113D

 55 62  0  0  1  0  0  0  0  0999 V2000
  188.1320  177.6220  134.5940 C   0  0  0  0  0  2  0  0  0  0  0  0
  188.5440  179.8220  136.9410 O   0  0  0  0  0  1  0  0  0  0  0  0
  182.3450  176.0510  136.2320 C   0  0  2  0  0  0  0  0  0  0  0  0
  185.2360  174.5480  136.0040 C   0  0  1  0  0  3  0  0  0  0  0  0
  183.9160  174.4610  136.7590 C   0  0  0  0  0  2  0  0  0  0  0  0
  187.5490  175.9100  137.5480 O   0  0  0  0  0  0  0  0  0  0  0  0
  181.4990  177.7720  134.9900 C   0  0  0  0  0  2  0  0  0  0  0  0
  181.3670  176.3950  135.2710 O   0  0  0  0  0  0  0  0  0  0  0  0
  186.5910  175.0970  137.9350 O   0  0  0  0  0  0  0  0  0  0  0  0
  188.5220  177.9360  138.4190 C   0  0  1  0  0  3  0  0  0  0  0  0
  183.4530  177.1180  136.1280 C   0  0  2  0  0  3  0  0  0  0  0  0
  185.4420  175.6940  134.9770 C   0  0  1  0  0  3  0  0  0  0  0  0
  186.4610  174.2080  136.8610 C   0  0  1  0  0  3  0  0  0  0  0  0
  188.0730  176.4970  138.7030 C   0  0  1  0  0  3  0  0  0  0  0  0
  186.6270  177.9130  134.6250 C   0  0  0  0  0  2  0  0  0  0  0  0
  188.8820  177.6800  135.9320 C   0  0  0  0  0  2  0  0  0  0  0  0
  188.1770  178.4790  137.0280 C   0  0  2  0  0  3  0  0  0  0  0  0
  182.6730  178.3370  135.7560 C   0  0  0  0  0  2  0  0  0  0  0  0
  184.4480  176.8730  134.9820 C   0  0  2  0  0  3  0  0  0  0  0  0
  187.2190  177.6710  139.1680 C   0  0  1  0  0  3  0  0  0  0  0  0
  182.8390  174.7620  135.9090 O   0  0  0  0  0  0  0  0  0  0  0  0
  185.8300  177.0330  135.5800 C   0  0  1  0  0  3  0  0  0  0  0  0
  182.1260  175.0050  138.4690 O   0  0  0  0  0  0  0  0  0  0  0  0
  179.9050  175.5270  137.6110 S   0  0  0  0  0  0  0  0  0  0  0  0
  180.8790  174.3830  138.6190 C   0  0  0  0  0  2  0  0  0  0  0  0
  181.6490  176.0450  137.6500 C   0  0  2  0  0  0  0  0  0  0  0  0
  181.7470  177.3920  138.3850 C   0  0  0  0  0  2  0  0  0  0  0  0
  181.8630  177.2500  139.9030 C   0  0  1  0  0  3  0  0  0  0  0  0
  183.9200  178.6400  139.3990 C   0  0  0  0  0  1  0  0  0  0  0  0
  183.1990  177.7770  140.4250 C   0  0  0  0  0  2  0  0  0  0  0  0
  180.8030  177.9140  140.5250 O   0  0  0  0  0  0  0  0  0  0  0  0
  180.0210  176.8980  141.0780 C   0  0  0  0  0  1  0  0  0  0  0  0
  186.3860  172.7710  137.3650 C   0  0  0  0  0  2  0  0  0  0  0  0
  187.7710  172.1730  137.5510 C   0  0  0  0  0  2  0  0  0  0  0  0
  188.7190  172.9420  136.8770 O   0  0  0  0  0  1  0  0  0  0  0  0
  187.3480  177.9060  140.6890 C   0  0  1  0  0  3  0  0  0  0  0  0
  188.6300  178.6490  141.0720 C   0  0  0  0  0  2  0  0  0  0  0  0
  189.6060  177.7620  141.7690 C   0  0  0  0  0  0  0  0  0  0  0  0
  190.0900  175.5280  142.7880 C   0  0  0  0  0  3  0  0  0  0  0  0
  191.2090  178.3010  143.5800 C   0  0  0  0  0  0  0  0  0  0  0  0
  190.9470  178.3190  142.1120 C   0  0  0  0  0  2  0  0  0  0  0  0
  190.9610  175.8190  143.7600 C   0  0  0  0  0  3  0  0  0  0  0  0
  189.2720  176.4940  142.0280 C   0  0  0  0  0  3  0  0  0  0  0  0
  191.5570  179.5780  144.2560 C   0  0  0  0  0  1  0  0  0  0  0  0
  191.2870  177.1650  144.2750 C   0  0  0  0  0  3  0  0  0  0  0  0
  186.2120  178.5710  141.2410 O   0  0  0  0  0  0  0  0  0  0  0  0
  186.5700  177.7780  143.5270 C   0  0  0  0  0  3  0  0  0  0  0  0
  185.4670  178.9060  145.3700 C   0  0  0  0  0  0  0  0  0  0  0  0
  185.1260  179.6690  143.0910 C   0  0  0  0  0  3  0  0  0  0  0  0
  184.8730  179.7910  144.4600 C   0  0  0  0  0  3  0  0  0  0  0  0
  186.3160  177.8980  144.8960 C   0  0  0  0  0  3  0  0  0  0  0  0
  185.9760  178.6650  142.6160 C   0  0  0  0  0  0  0  0  0  0  0  0
  185.2030  179.0300  146.8130 C   0  0  0  0  0  0  0  0  0  0  0  0
  184.3100  178.3310  147.3610 O   0  0  0  0  0  0  0  0  0  0  0  0
  185.9370  179.9240  147.5830 O   0  0  0  0  0  1  0  0  0  0  0  0
  1 15  1  0  0  0  0
  1 16  1  0  0  0  0
  2 17  1  0  0  0  0
  3  8  1  6  0  0  0
  3 26  1  0  0  0  0
  4  5  1  1  0  0  0
  4 13  1  0  0  0  0
  6  9  1  0  0  0  0
  6 14  1  0  0  0  0
  7  8  1  0  0  0  0
  7 18  1  0  0  0  0
 10 14  1  0  0  0  0
 10 20  1  0  0  0  0
 11  3  1  0  0  0  0
 12 19  1  0  0  0  0
 12 22  1  0  0  0  0
 12  4  1  0  0  0  0
 13 33  1  0  0  0  0
 13  9  1  0  0  0  0
 14 20  1  0  0  0  0
 15 22  1  0  0  0  0
 16 17  1  0  0  0  0
 17 10  1  0  0  0  0
 18 11  1  0  0  0  0
 19 22  1  0  0  0  0
 19 11  1  0  0  0  0
 20 36  1  0  0  0  0
 21  3  1  0  0  0  0
 21  5  1  0  0  0  0
 23 25  1  0  0  0  0
 24 26  1  0  0  0  0
 24 25  1  0  0  0  0
 26 27  1  0  0  0  0
 26 23  1  0  0  0  0
 27 28  1  0  0  0  0
 28 30  1  0  0  0  0
 28 31  1  0  0  0  0
 29 30  1  0  0  0  0
 31 32  1  0  0  0  0
 33 34  1  0  0  0  0
 35 34  1  0  0  0  0
 36 37  1  0  0  0  0
 36 46  1  0  0  0  0
 37 38  1  0  0  0  0
 38 43  2  0  0  0  0
 38 41  1  0  0  0  0
 39 42  2  0  0  0  0
 40 44  1  0  0  0  0
 40 45  2  0  0  0  0
 41 40  1  0  0  0  0
 42 45  1  0  0  0  0
 43 39  1  0  0  0  0
 46 52  1  0  0  0  0
 47 51  1  0  0  0  0
 48 53  1  0  0  0  0
 49 50  2  0  0  0  0
 50 48  1  0  0  0  0
 51 48  2  0  0  0  0
 52 49  1  0  0  0  0
 52 47  2  0  0  0  0
 53 54  2  0  0  0  0
 53 55  1  0  0  0  0
M  END
>  <MODEL>
4

>  <REMARK>
 VINA RESULT:      -5.6      1.810      3.494
  Name = 
  13 active torsions:
  status: ('A' for Active; 'I' for Inactive)
    1  A    between atoms: C_2  and  C_28
    2  A    between atoms: C_6  and  C_53
    3  A    between atoms: C_10  and  C_32
    4  A    between atoms: C_11  and  C_29
    5  A    between atoms: C_16  and  C_17
    6  A    between atoms: C_17  and  C_23
    7  A    between atoms: O_25  and  C_29
    8  A    between atoms: C_28  and  C_49
    9  A    between atoms: C_29  and  C_38
   10  A    between atoms: O_33  and  C_49
   11  A    between atoms: O_33  and  C_52
   12  A    between atoms: C_38  and  C_53
   13  A    between atoms: C_45  and  C_49
                            x       y       z     vdW  Elec       q    Type
                         _______ _______ _______ _____ _____    ______ ____

>  <TORSDO>
F 13

$$$$
=
 OpenBabel11052415113D

 55 62  0  0  1  0  0  0  0  0999 V2000
  178.9320  175.0850  138.7680 C   0  0  0  0  0  2  0  0  0  0  0  0
  180.5020  175.5930  141.5600 O   0  0  0  0  0  1  0  0  0  0  0  0
  183.9160  173.1330  135.6070 C   0  0  2  0  0  0  0  0  0  0  0  0
  181.7960  175.6100  135.4000 C   0  0  1  0  0  3  0  0  0  0  0  0
  183.2280  175.2480  135.0310 C   0  0  0  0  0  2  0  0  0  0  0  0
  181.4840  177.2910  137.9810 O   0  0  0  0  0  0  0  0  0  0  0  0
  183.5930  171.0020  136.3630 C   0  0  0  0  0  2  0  0  0  0  0  0
  183.8460  171.7790  135.2120 O   0  0  0  0  0  0  0  0  0  0  0  0
  182.3780  177.3150  137.0170 O   0  0  0  0  0  0  0  0  0  0  0  0
  181.5680  177.3910  140.3880 C   0  0  1  0  0  3  0  0  0  0  0  0
  183.1450  173.2410  136.9380 C   0  0  2  0  0  3  0  0  0  0  0  0
  180.9240  174.5660  136.1480 C   0  0  1  0  0  3  0  0  0  0  0  0
  181.6260  177.0610  135.8650 C   0  0  1  0  0  3  0  0  0  0  0  0
  182.0300  177.9980  139.0560 C   0  0  1  0  0  3  0  0  0  0  0  0
  179.9540  173.9950  138.4250 C   0  0  0  0  0  2  0  0  0  0  0  0
  179.4490  176.3110  139.5360 C   0  0  0  0  0  2  0  0  0  0  0  0
  180.7640  176.0900  140.2840 C   0  0  2  0  0  3  0  0  0  0  0  0
  183.4170  171.9100  137.5590 C   0  0  0  0  0  2  0  0  0  0  0  0
  181.6200  173.3370  136.7680 C   0  0  2  0  0  3  0  0  0  0  0  0
  182.9790  177.1260  139.8710 C   0  0  1  0  0  3  0  0  0  0  0  0
  183.3060  173.9160  134.5940 O   0  0  0  0  0  0  0  0  0  0  0  0
  181.1680  174.4850  137.6460 C   0  0  1  0  0  3  0  0  0  0  0  0
  185.8290  173.5970  137.1140 O   0  0  0  0  0  0  0  0  0  0  0  0
  185.8210  175.2330  135.3080 S   0  0  0  0  0  0  0  0  0  0  0  0
  186.2110  174.9450  137.0500 C   0  0  0  0  0  2  0  0  0  0  0  0
  185.4410  173.5140  135.7650 C   0  0  2  0  0  0  0  0  0  0  0  0
  186.3870  172.5780  134.9930 C   0  0  0  0  0  2  0  0  0  0  0  0
  187.7270  172.3530  135.6960 C   0  0  1  0  0  3  0  0  0  0  0  0
  188.7210  170.0910  135.1370 C   0  0  0  0  0  1  0  0  0  0  0  0
  187.9040  170.9000  136.1340 C   0  0  0  0  0  2  0  0  0  0  0  0
  188.7740  172.7370  134.8550 O   0  0  0  0  0  0  0  0  0  0  0  0
  189.6150  173.5060  135.6630 C   0  0  0  0  0  1  0  0  0  0  0  0
  182.0070  178.0330  134.7540 C   0  0  0  0  0  2  0  0  0  0  0  0
  181.4800  179.4310  135.0320 C   0  0  0  0  0  2  0  0  0  0  0  0
  180.0890  179.4100  135.1180 O   0  0  0  0  0  1  0  0  0  0  0  0
  184.0480  177.9700  140.6000 C   0  0  1  0  0  3  0  0  0  0  0  0
  184.8630  178.8520  139.6510 C   0  0  0  0  0  2  0  0  0  0  0  0
  186.2540  178.3430  139.4690 C   0  0  0  0  0  0  0  0  0  0  0  0
  188.5170  177.9510  140.4620 C   0  0  0  0  0  3  0  0  0  0  0  0
  187.7730  178.5790  137.5260 C   0  0  0  0  0  0  0  0  0  0  0  0
  186.6420  177.8160  138.1270 C   0  0  0  0  0  2  0  0  0  0  0  0
  189.3360  178.0710  139.4110 C   0  0  0  0  0  3  0  0  0  0  0  0
  187.0920  178.3350  140.5090 C   0  0  0  0  0  3  0  0  0  0  0  0
  187.5860  179.1850  136.1810 C   0  0  0  0  0  1  0  0  0  0  0  0
  188.9850  178.6100  138.0810 C   0  0  0  0  0  3  0  0  0  0  0  0
  183.4990  178.7600  141.6550 O   0  0  0  0  0  0  0  0  0  0  0  0
  183.3290  179.3070  144.0330 C   0  0  0  0  0  3  0  0  0  0  0  0
  185.2210  178.8900  145.4930 C   0  0  0  0  0  0  0  0  0  0  0  0
  185.3630  178.3600  143.1280 C   0  0  0  0  0  3  0  0  0  0  0  0
  185.9450  178.3970  144.3980 C   0  0  0  0  0  3  0  0  0  0  0  0
  183.9110  179.3460  145.3030 C   0  0  0  0  0  3  0  0  0  0  0  0
  184.0530  178.8120  142.9370 C   0  0  0  0  0  0  0  0  0  0  0  0
  185.8290  178.9310  146.8330 C   0  0  0  0  0  0  0  0  0  0  0  0
  185.6790  179.9400  147.5720 O   0  0  0  0  0  1  0  0  0  0  0  0
  186.5780  177.8550  147.2930 O   0  0  0  0  0  0  0  0  0  0  0  0
  1 16  1  0  0  0  0
  3 21  1  6  0  0  0
  3 26  1  0  0  0  0
  3 11  1  0  0  0  0
  4  5  1  1  0  0  0
  4 13  1  0  0  0  0
  4 12  1  0  0  0  0
  6 14  1  0  0  0  0
  7 18  1  0  0  0  0
  8  3  1  0  0  0  0
  8  7  1  0  0  0  0
  9  6  1  0  0  0  0
 11 18  1  0  0  0  0
 12 19  1  0  0  0  0
 12 22  1  0  0  0  0
 13  9  1  0  0  0  0
 14 20  1  0  0  0  0
 14 10  1  0  0  0  0
 15  1  1  0  0  0  0
 16 17  1  0  0  0  0
 17 10  1  0  0  0  0
 17  2  1  0  0  0  0
 19 11  1  0  0  0  0
 19 22  1  0  0  0  0
 20 10  1  0  0  0  0
 20 36  1  0  0  0  0
 21  5  1  0  0  0  0
 22 15  1  0  0  0  0
 24 26  1  0  0  0  0
 24 25  1  0  0  0  0
 25 23  1  0  0  0  0
 26 23  1  0  0  0  0
 27 28  1  0  0  0  0
 27 26  1  0  0  0  0
 28 30  1  0  0  0  0
 29 30  1  0  0  0  0
 31 32  1  0  0  0  0
 31 28  1  0  0  0  0
 33 34  1  0  0  0  0
 33 13  1  0  0  0  0
 34 35  1  0  0  0  0
 36 46  1  0  0  0  0
 37 36  1  0  0  0  0
 38 37  1  0  0  0  0
 38 43  2  0  0  0  0
 39 43  1  0  0  0  0
 40 45  2  0  0  0  0
 40 41  1  0  0  0  0
 41 38  1  0  0  0  0
 42 39  2  0  0  0  0
 44 40  1  0  0  0  0
 45 42  1  0  0  0  0
 46 52  1  0  0  0  0
 47 51  1  0  0  0  0
 48 53  1  0  0  0  0
 49 50  2  0  0  0  0
 50 48  1  0  0  0  0
 51 48  2  0  0  0  0
 52 49  1  0  0  0  0
 52 47  2  0  0  0  0
 53 55  2  0  0  0  0
 53 54  1  0  0  0  0
M  END
>  <MODEL>
5

>  <REMARK>
 VINA RESULT:      -4.7      2.968      7.191
  Name = 
  13 active torsions:
  status: ('A' for Active; 'I' for Inactive)
    1  A    between atoms: C_2  and  C_28
    2  A    between atoms: C_6  and  C_53
    3  A    between atoms: C_10  and  C_32
    4  A    between atoms: C_11  and  C_29
    5  A    between atoms: C_16  and  C_17
    6  A    between atoms: C_17  and  C_23
    7  A    between atoms: O_25  and  C_29
    8  A    between atoms: C_28  and  C_49
    9  A    between atoms: C_29  and  C_38
   10  A    between atoms: O_33  and  C_49
   11  A    between atoms: O_33  and  C_52
   12  A    between atoms: C_38  and  C_53
   13  A    between atoms: C_45  and  C_49
                            x       y       z     vdW  Elec       q    Type
                         _______ _______ _______ _____ _____    ______ ____

>  <TORSDO>
F 13

$$$$
