=
 OpenBabel11052413133D

 31 34  0  0  1  0  0  0  0  0999 V2000
  190.8050  176.4360  144.1310 C   0  0  2  0  0  3  0  0  0  0  0  0
  187.3920  177.6600  142.7300 C   0  0  2  0  0  3  0  0  0  0  0  0
  186.4620  177.8230  143.9210 C   0  0  0  0  0  0  0  0  0  0  0  0
  186.9110  178.1460  146.3310 C   0  0  0  0  0  3  0  0  0  0  0  0
  188.8900  177.7290  143.1110 C   0  0  1  0  0  3  0  0  0  0  0  0
  191.6930  177.4880  143.4510 C   0  0  0  0  0  2  0  0  0  0  0  0
  186.8340  177.1620  145.2130 C   0  0  0  0  0  2  0  0  0  0  0  0
  187.9300  178.3800  140.4090 C   0  0  0  0  0  0  0  0  0  0  0  0
  191.4630  175.0730  144.0560 C   0  0  0  0  0  1  0  0  0  0  0  0
  184.8090  178.7600  142.4690 O   0  0  0  0  0  0  0  0  0  0  0  0
  185.8500  178.8240  146.7560 C   0  0  0  0  0  3  0  0  0  0  0  0
  189.2360  178.2050  140.6240 C   0  0  0  0  0  3  0  0  0  0  0  0
  187.0450  178.6390  141.6000 C   0  0  1  0  0  3  0  0  0  0  0  0
  189.3890  176.3510  143.5470 C   0  0  0  0  0  2  0  0  0  0  0  0
  184.5130  178.7580  146.1380 C   0  0  0  0  0  3  0  0  0  0  0  0
  189.8100  178.3340  142.0070 C   0  0  2  0  0  3  0  0  0  0  0  0
  191.2390  177.7810  142.0230 C   0  0  0  0  0  2  0  0  0  0  0  0
  185.5630  178.5010  141.2880 C   0  0  0  0  0  2  0  0  0  0  0  0
  185.2260  178.3510  143.7450 C   0  0  0  0  0  0  0  0  0  0  0  0
  184.2510  178.5430  144.8430 C   0  0  0  0  0  3  0  0  0  0  0  0
  187.3620  178.2600  139.0930 N   0  0  0  0  0  2  0  0  0  0  0  0
  188.5460  178.9710  136.7880 S   0  0  0  0  0  0  0  0  0  0  0  0
  188.0250  177.8670  137.8810 C   0  0  0  0  0  0  0  0  0  0  0  0
  187.9200  176.4470  137.4490 C   0  0  0  0  0  2  0  0  0  0  0  0
  188.9570  175.7040  138.0180 O   0  0  0  0  0  0  0  0  0  0  0  0
  189.9670  173.7880  136.9940 C   0  0  0  0  0  1  0  0  0  0  0  0
  189.7400  175.2900  136.9350 C   0  0  2  0  0  3  0  0  0  0  0  0
  191.0620  176.0610  136.8890 C   0  0  0  0  0  2  0  0  0  0  0  0
  191.5590  176.4890  138.2690 C   0  0  0  0  0  2  0  0  0  0  0  0
  193.0790  176.4960  138.3420 C   0  0  0  0  0  2  0  0  0  0  0  0
  193.6470  175.2320  137.7240 C   0  0  0  0  0  1  0  0  0  0  0  0
  1  9  1  6  0  0  0
  2  5  1  0  0  0  0
  2  3  1  1  0  0  0
  3  7  1  0  0  0  0
  4 11  2  0  0  0  0
  5 14  1  6  0  0  0
  6  1  1  0  0  0  0
  7  4  1  0  0  0  0
  8 12  2  0  0  0  0
  8 13  1  0  0  0  0
 10 19  1  0  0  0  0
 13 18  1  6  0  0  0
 13  2  1  0  0  0  0
 14  1  1  0  0  0  0
 15 11  1  0  0  0  0
 16 12  1  6  0  0  0
 16 17  1  0  0  0  0
 16  5  1  0  0  0  0
 17  6  1  0  0  0  0
 18 10  1  0  0  0  0
 19  3  2  0  0  0  0
 19 20  1  0  0  0  0
 20 15  2  0  0  0  0
 21  8  1  0  0  0  0
 22 23  2  0  0  0  0
 23 21  1  0  0  0  0
 24 23  1  0  0  0  0
 24 25  1  0  0  0  0
 27 26  1  1  0  0  0
 27 25  1  0  0  0  0
 28 27  1  0  0  0  0
 28 29  1  0  0  0  0
 29 30  1  0  0  0  0
 31 30  1  0  0  0  0
M  END
>  <MODEL>
1

>  <REMARK>
 VINA RESULT:      -8.0      0.000      0.000
  Name = 
  8 active torsions:
  status: ('A' for Active; 'I' for Inactive)
    1  A    between atoms: C_1  and  C_11
    2  A    between atoms: C_3  and  C_9
    3  A    between atoms: C_3  and  O_22
    4  A    between atoms: C_9  and  N_23
    5  A    between atoms: C_11  and  C_24
    6  A    between atoms: C_15  and  N_23
    7  A    between atoms: C_19  and  O_22
    8  A    between atoms: C_19  and  C_24
                            x       y       z     vdW  Elec       q    Type
                         _______ _______ _______ _____ _____    ______ ____

>  <TORSDO>
F 8

$$$$
=
 OpenBabel11052413133D

 31 34  0  0  1  0  0  0  0  0999 V2000
  190.7570  176.4550  144.0390 C   0  0  2  0  0  3  0  0  0  0  0  0
  187.2950  177.6940  142.7770 C   0  0  2  0  0  3  0  0  0  0  0  0
  186.4090  177.8410  144.0010 C   0  0  0  0  0  0  0  0  0  0  0  0
  186.9420  178.1310  146.3990 C   0  0  0  0  0  3  0  0  0  0  0  0
  188.8060  177.7600  143.1060 C   0  0  1  0  0  3  0  0  0  0  0  0
  191.6200  177.5160  143.3420 C   0  0  0  0  0  2  0  0  0  0  0  0
  186.8250  177.1620  145.2710 C   0  0  0  0  0  2  0  0  0  0  0  0
  187.7510  178.4470  140.4480 C   0  0  0  0  0  0  0  0  0  0  0  0
  191.4120  175.0930  143.9230 C   0  0  0  0  0  1  0  0  0  0  0  0
  184.7050  178.7960  142.6220 O   0  0  0  0  0  0  0  0  0  0  0  0
  185.8960  178.8020  146.8700 C   0  0  0  0  0  3  0  0  0  0  0  0
  189.0640  178.2700  140.6150 C   0  0  0  0  0  2  0  0  0  0  0  0
  186.9080  178.6890  141.6730 C   0  0  1  0  0  3  0  0  0  0  0  0
  189.3210  176.3770  143.5040 C   0  0  0  0  0  2  0  0  0  0  0  0
  184.5390  178.7430  146.2990 C   0  0  0  0  0  3  0  0  0  0  0  0
  189.6870  178.3800  141.9780 C   0  0  2  0  0  3  0  0  0  0  0  0
  191.1150  177.8280  141.9360 C   0  0  0  0  0  2  0  0  0  0  0  0
  185.4160  178.5530  141.4110 C   0  0  0  0  0  2  0  0  0  0  0  0
  185.1670  178.3690  143.8770 C   0  0  0  0  0  0  0  0  0  0  0  0
  184.2310  178.5460  145.0110 C   0  0  0  0  0  3  0  0  0  0  0  0
  187.1370  178.3440  139.1520 N   0  0  0  0  0  0  0  0  0  0  0  0
  188.9060  178.7600  137.1720 S   0  0  0  0  0  0  0  0  0  0  0  0
  187.7370  177.8940  137.9270 C   0  0  0  0  0  0  0  0  0  0  0  0
  187.0490  176.8240  137.1560 C   0  0  0  0  0  2  0  0  0  0  0  0
  186.0670  177.3900  136.3390 O   0  0  0  0  0  0  0  0  0  0  0  0
  184.1620  176.8100  137.6730 C   0  0  0  0  0  1  0  0  0  0  0  0
  184.9790  176.5150  136.4250 C   0  0  2  0  0  3  0  0  0  0  0  0
  185.4450  175.0560  136.3850 C   0  0  0  0  0  2  0  0  0  0  0  0
  184.4390  174.0860  137.0030 C   0  0  0  0  0  2  0  0  0  0  0  0
  185.1310  173.0000  137.8130 C   0  0  0  0  0  2  0  0  0  0  0  0
  186.5440  172.7760  137.3050 C   0  0  0  0  0  1  0  0  0  0  0  0
  1  9  1  6  0  0  0
  2  5  1  0  0  0  0
  2  3  1  1  0  0  0
  3  7  1  0  0  0  0
  4 11  2  0  0  0  0
  5 14  1  6  0  0  0
  6  1  1  0  0  0  0
  7  4  1  0  0  0  0
  8 12  1  0  0  0  0
  8 13  1  0  0  0  0
 10 19  1  0  0  0  0
 13 18  1  6  0  0  0
 13  2  1  0  0  0  0
 14  1  1  0  0  0  0
 15 11  1  0  0  0  0
 16 12  1  6  0  0  0
 16  5  1  0  0  0  0
 17 16  1  0  0  0  0
 17  6  1  0  0  0  0
 18 10  1  0  0  0  0
 19  3  2  0  0  0  0
 19 20  1  0  0  0  0
 20 15  2  0  0  0  0
 21  8  2  0  0  0  0
 22 23  2  0  0  0  0
 23 21  1  0  0  0  0
 24 23  1  0  0  0  0
 25 27  1  0  0  0  0
 25 24  1  0  0  0  0
 27 26  1  1  0  0  0
 28 27  1  0  0  0  0
 28 29  1  0  0  0  0
 29 30  1  0  0  0  0
 31 30  1  0  0  0  0
M  END
>  <MODEL>
2

>  <REMARK>
 VINA RESULT:      -7.7      1.952      3.146
  Name = 
  8 active torsions:
  status: ('A' for Active; 'I' for Inactive)
    1  A    between atoms: C_1  and  C_11
    2  A    between atoms: C_3  and  C_9
    3  A    between atoms: C_3  and  O_22
    4  A    between atoms: C_9  and  N_23
    5  A    between atoms: C_11  and  C_24
    6  A    between atoms: C_15  and  N_23
    7  A    between atoms: C_19  and  O_22
    8  A    between atoms: C_19  and  C_24
                            x       y       z     vdW  Elec       q    Type
                         _______ _______ _______ _____ _____    ______ ____

>  <TORSDO>
F 8

$$$$
=
 OpenBabel11052413133D

 31 34  0  0  1  0  0  0  0  0999 V2000
  190.7540  176.4140  144.0400 C   0  0  2  0  0  3  0  0  0  0  0  0
  187.3530  177.6640  142.6330 C   0  0  2  0  0  3  0  0  0  0  0  0
  186.4250  177.8430  143.8230 C   0  0  0  0  0  0  0  0  0  0  0  0
  186.8770  178.1730  146.2320 C   0  0  0  0  0  3  0  0  0  0  0  0
  188.8520  177.7210  143.0140 C   0  0  1  0  0  3  0  0  0  0  0  0
  191.6530  177.4540  143.3540 C   0  0  0  0  0  2  0  0  0  0  0  0
  186.7900  177.1850  145.1190 C   0  0  0  0  0  2  0  0  0  0  0  0
  187.8970  178.3670  140.3080 C   0  0  0  0  0  0  0  0  0  0  0  0
  191.3990  175.0440  143.9720 C   0  0  0  0  0  1  0  0  0  0  0  0
  184.7810  178.7880  142.3660 O   0  0  0  0  0  0  0  0  0  0  0  0
  185.8230  178.8640  146.6530 C   0  0  0  0  0  3  0  0  0  0  0  0
  189.2020  178.1810  140.5240 C   0  0  0  0  0  3  0  0  0  0  0  0
  187.0150  178.6410  141.4980 C   0  0  1  0  0  3  0  0  0  0  0  0
  189.3370  176.3400  143.4560 C   0  0  0  0  0  2  0  0  0  0  0  0
  184.4860  178.8080  146.0360 C   0  0  0  0  0  3  0  0  0  0  0  0
  189.7780  178.3110  141.9070 C   0  0  2  0  0  3  0  0  0  0  0  0
  191.2010  177.7430  141.9250 C   0  0  0  0  0  2  0  0  0  0  0  0
  185.5320  178.5150  141.1870 C   0  0  0  0  0  2  0  0  0  0  0  0
  185.1940  178.3810  143.6450 C   0  0  0  0  0  0  0  0  0  0  0  0
  184.2210  178.5890  144.7420 C   0  0  0  0  0  3  0  0  0  0  0  0
  187.3280  178.2460  138.9930 N   0  0  0  0  0  2  0  0  0  0  0  0
  188.8710  178.3230  136.7940 S   0  0  0  0  0  0  0  0  0  0  0  0
  187.8790  177.5640  137.8550 C   0  0  0  0  0  0  0  0  0  0  0  0
  187.2660  176.2730  137.4420 C   0  0  0  0  0  2  0  0  0  0  0  0
  188.2440  175.4480  136.8800 O   0  0  0  0  0  0  0  0  0  0  0  0
  187.8400  173.6600  135.3360 C   0  0  0  0  0  1  0  0  0  0  0  0
  187.6260  174.2010  136.7410 C   0  0  2  0  0  3  0  0  0  0  0  0
  186.1380  174.2840  137.0950 C   0  0  0  0  0  2  0  0  0  0  0  0
  185.6100  173.0220  137.7760 C   0  0  0  0  0  2  0  0  0  0  0  0
  184.3330  172.5210  137.1180 C   0  0  0  0  0  2  0  0  0  0  0  0
  184.6600  171.6550  135.9150 C   0  0  0  0  0  1  0  0  0  0  0  0
  1  9  1  6  0  0  0
  2  5  1  0  0  0  0
  2  3  1  1  0  0  0
  3  7  1  0  0  0  0
  4 11  2  0  0  0  0
  5 14  1  6  0  0  0
  6  1  1  0  0  0  0
  7  4  1  0  0  0  0
  8 12  2  0  0  0  0
  8 13  1  0  0  0  0
 10 19  1  0  0  0  0
 13 18  1  6  0  0  0
 13  2  1  0  0  0  0
 14  1  1  0  0  0  0
 15 11  1  0  0  0  0
 16 12  1  6  0  0  0
 16 17  1  0  0  0  0
 16  5  1  0  0  0  0
 17  6  1  0  0  0  0
 18 10  1  0  0  0  0
 19  3  2  0  0  0  0
 19 20  1  0  0  0  0
 20 15  2  0  0  0  0
 21  8  1  0  0  0  0
 22 23  2  0  0  0  0
 23 21  1  0  0  0  0
 24 23  1  0  0  0  0
 25 24  1  0  0  0  0
 27 26  1  6  0  0  0
 27 25  1  0  0  0  0
 27 28  1  0  0  0  0
 28 29  1  0  0  0  0
 30 29  1  0  0  0  0
 31 30  1  0  0  0  0
M  END
>  <MODEL>
3

>  <REMARK>
 VINA RESULT:      -7.6      1.828      3.016
  Name = 
  8 active torsions:
  status: ('A' for Active; 'I' for Inactive)
    1  A    between atoms: C_1  and  C_11
    2  A    between atoms: C_3  and  C_9
    3  A    between atoms: C_3  and  O_22
    4  A    between atoms: C_9  and  N_23
    5  A    between atoms: C_11  and  C_24
    6  A    between atoms: C_15  and  N_23
    7  A    between atoms: C_19  and  O_22
    8  A    between atoms: C_19  and  C_24
                            x       y       z     vdW  Elec       q    Type
                         _______ _______ _______ _____ _____    ______ ____

>  <TORSDO>
F 8

$$$$
=
 OpenBabel11052413133D

 31 34  0  0  1  0  0  0  0  0999 V2000
  190.7590  176.4530  144.0920 C   0  0  2  0  0  3  0  0  0  0  0  0
  187.3190  177.6890  142.7710 C   0  0  2  0  0  3  0  0  0  0  0  0
  186.4140  177.8440  143.9820 C   0  0  0  0  0  0  0  0  0  0  0  0
  186.9130  178.1480  146.3850 C   0  0  0  0  0  3  0  0  0  0  0  0
  188.8250  177.7540  143.1220 C   0  0  1  0  0  3  0  0  0  0  0  0
  191.6340  177.5090  143.4020 C   0  0  0  0  0  2  0  0  0  0  0  0
  186.8110  177.1730  145.2620 C   0  0  0  0  0  2  0  0  0  0  0  0
  187.8090  178.4260  140.4450 C   0  0  0  0  0  0  0  0  0  0  0  0
  191.4150  175.0890  143.9940 C   0  0  0  0  0  1  0  0  0  0  0  0
  184.7320  178.7930  142.5720 O   0  0  0  0  0  0  0  0  0  0  0  0
  185.8610  178.8240  146.8370 C   0  0  0  0  0  3  0  0  0  0  0  0
  189.1200  178.2490  140.6320 C   0  0  0  0  0  3  0  0  0  0  0  0
  186.9490  178.6770  141.6560 C   0  0  1  0  0  3  0  0  0  0  0  0
  189.3320  176.3730  143.5370 C   0  0  0  0  0  2  0  0  0  0  0  0
  184.5120  178.7630  146.2460 C   0  0  0  0  0  3  0  0  0  0  0  0
  189.7230  178.3670  142.0040 C   0  0  2  0  0  3  0  0  0  0  0  0
  191.1510  177.8130  141.9860 C   0  0  0  0  0  2  0  0  0  0  0  0
  185.4610  178.5420  141.3730 C   0  0  0  0  0  2  0  0  0  0  0  0
  185.1750  178.3730  143.8360 C   0  0  0  0  0  0  0  0  0  0  0  0
  184.2220  178.5580  144.9550 C   0  0  0  0  0  3  0  0  0  0  0  0
  187.2150  178.3160  139.1400 N   0  0  0  0  0  2  0  0  0  0  0  0
  188.9020  178.8200  137.1110 S   0  0  0  0  0  0  0  0  0  0  0  0
  187.8370  177.8760  137.9240 C   0  0  0  0  0  0  0  0  0  0  0  0
  187.2480  176.7110  137.2120 C   0  0  0  0  0  2  0  0  0  0  0  0
  185.9760  177.0440  136.7370 O   0  0  0  0  0  0  0  0  0  0  0  0
  184.9020  175.0540  135.9440 C   0  0  0  0  0  1  0  0  0  0  0  0
  185.1570  175.9790  137.1240 C   0  0  2  0  0  3  0  0  0  0  0  0
  183.8490  176.4880  137.7370 C   0  0  0  0  0  2  0  0  0  0  0  0
  183.8710  177.9850  138.0450 C   0  0  0  0  0  2  0  0  0  0  0  0
  182.4730  178.5240  138.3140 C   0  0  0  0  0  2  0  0  0  0  0  0
  182.0600  178.2390  139.7460 C   0  0  0  0  0  1  0  0  0  0  0  0
  1  9  1  6  0  0  0
  2  5  1  0  0  0  0
  2  3  1  1  0  0  0
  3  7  1  0  0  0  0
  4 11  2  0  0  0  0
  5 14  1  6  0  0  0
  6  1  1  0  0  0  0
  7  4  1  0  0  0  0
  8 12  2  0  0  0  0
  8 13  1  0  0  0  0
 10 19  1  0  0  0  0
 13 18  1  6  0  0  0
 13  2  1  0  0  0  0
 14  1  1  0  0  0  0
 15 11  1  0  0  0  0
 16 12  1  6  0  0  0
 16  5  1  0  0  0  0
 17 16  1  0  0  0  0
 17  6  1  0  0  0  0
 18 10  1  0  0  0  0
 19  3  2  0  0  0  0
 19 20  1  0  0  0  0
 20 15  2  0  0  0  0
 21  8  1  0  0  0  0
 22 23  2  0  0  0  0
 23 21  1  0  0  0  0
 24 23  1  0  0  0  0
 25 27  1  0  0  0  0
 25 24  1  0  0  0  0
 27 26  1  6  0  0  0
 27 28  1  0  0  0  0
 28 29  1  0  0  0  0
 29 30  1  0  0  0  0
 30 31  1  0  0  0  0
M  END
>  <MODEL>
4

>  <REMARK>
 VINA RESULT:      -7.4      1.942      3.774
  Name = 
  8 active torsions:
  status: ('A' for Active; 'I' for Inactive)
    1  A    between atoms: C_1  and  C_11
    2  A    between atoms: C_3  and  C_9
    3  A    between atoms: C_3  and  O_22
    4  A    between atoms: C_9  and  N_23
    5  A    between atoms: C_11  and  C_24
    6  A    between atoms: C_15  and  N_23
    7  A    between atoms: C_19  and  O_22
    8  A    between atoms: C_19  and  C_24
                            x       y       z     vdW  Elec       q    Type
                         _______ _______ _______ _____ _____    ______ ____

>  <TORSDO>
F 8

$$$$
=
 OpenBabel11052413133D

 31 34  0  0  1  0  0  0  0  0999 V2000
  190.9160  176.9820  142.2880 C   0  0  2  0  0  3  0  0  0  0  0  0
  187.6160  178.2570  140.6760 C   0  0  2  0  0  3  0  0  0  0  0  0
  187.7800  178.1170  139.1730 C   0  0  0  0  0  0  0  0  0  0  0  0
  189.2690  176.6970  137.8010 C   0  0  0  0  0  3  0  0  0  0  0  0
  188.5460  177.3180  141.4820 C   0  0  1  0  0  3  0  0  0  0  0  0
  190.2890  175.9970  143.2850 C   0  0  0  0  0  2  0  0  0  0  0  0
  189.1610  177.9400  138.6170 C   0  0  0  0  0  2  0  0  0  0  0  0
  186.0220  178.3470  142.5860 C   0  0  0  0  0  0  0  0  0  0  0  0
  192.0420  177.7490  142.9530 C   0  0  0  0  0  1  0  0  0  0  0  0
  185.4980  178.7710  138.8890 O   0  0  0  0  0  0  0  0  0  0  0  0
  188.5820  176.5230  136.6760 C   0  0  0  0  0  3  0  0  0  0  0  0
  186.9080  177.7570  143.3940 C   0  0  0  0  0  3  0  0  0  0  0  0
  186.1490  178.1110  141.1040 C   0  0  1  0  0  3  0  0  0  0  0  0
  189.9130  177.9720  141.6830 C   0  0  0  0  0  2  0  0  0  0  0  0
  187.5860  177.4730  136.1500 C   0  0  0  0  0  3  0  0  0  0  0  0
  187.9540  176.8310  142.8400 C   0  0  2  0  0  3  0  0  0  0  0  0
  189.0140  176.5540  143.9120 C   0  0  0  0  0  2  0  0  0  0  0  0
  185.3120  179.0680  140.2700 C   0  0  0  0  0  2  0  0  0  0  0  0
  186.7350  178.3820  138.3520 C   0  0  0  0  0  0  0  0  0  0  0  0
  186.8010  178.2790  136.8760 C   0  0  0  0  0  3  0  0  0  0  0  0
  185.0150  179.2370  143.0980 N   0  0  0  0  0  2  0  0  0  0  0  0
  182.3510  179.0030  143.3620 S   0  0  0  0  0  0  0  0  0  0  0  0
  183.8880  178.9080  143.9240 C   0  0  0  0  0  0  0  0  0  0  0  0
  184.0920  178.8270  145.3950 C   0  0  0  0  0  2  0  0  0  0  0  0
  185.3320  179.3780  145.7290 O   0  0  0  0  0  0  0  0  0  0  0  0
  186.2290  179.7120  147.9260 C   0  0  0  0  0  1  0  0  0  0  0  0
  185.7180  178.7150  146.8990 C   0  0  2  0  0  3  0  0  0  0  0  0
  186.7560  177.6310  146.5960 C   0  0  0  0  0  2  0  0  0  0  0  0
  187.8440  177.5250  147.6640 C   0  0  0  0  0  2  0  0  0  0  0  0
  189.2140  177.8860  147.1090 C   0  0  0  0  0  2  0  0  0  0  0  0
  190.1980  176.7550  147.3440 C   0  0  0  0  0  1  0  0  0  0  0  0
  1  9  1  1  0  0  0
  1  6  1  0  0  0  0
  2  3  1  6  0  0  0
  2 13  1  0  0  0  0
  2  5  1  0  0  0  0
  4  7  1  0  0  0  0
  5 14  1  1  0  0  0
  5 16  1  0  0  0  0
  6 17  1  0  0  0  0
  7  3  1  0  0  0  0
  8 21  1  0  0  0  0
  8 12  2  0  0  0  0
 10 18  1  0  0  0  0
 11  4  2  0  0  0  0
 13 18  1  6  0  0  0
 13  8  1  0  0  0  0
 14  1  1  0  0  0  0
 15 11  1  0  0  0  0
 15 20  2  0  0  0  0
 16 12  1  1  0  0  0
 16 17  1  0  0  0  0
 19 10  1  0  0  0  0
 19  3  2  0  0  0  0
 20 19  1  0  0  0  0
 21 23  1  0  0  0  0
 22 23  2  0  0  0  0
 23 24  1  0  0  0  0
 24 25  1  0  0  0  0
 25 27  1  0  0  0  0
 27 26  1  1  0  0  0
 28 27  1  0  0  0  0
 28 29  1  0  0  0  0
 30 31  1  0  0  0  0
 30 29  1  0  0  0  0
M  END
>  <MODEL>
5

>  <REMARK>
 VINA RESULT:      -7.4      2.646      7.204
  Name = 
  8 active torsions:
  status: ('A' for Active; 'I' for Inactive)
    1  A    between atoms: C_1  and  C_11
    2  A    between atoms: C_3  and  C_9
    3  A    between atoms: C_3  and  O_22
    4  A    between atoms: C_9  and  N_23
    5  A    between atoms: C_11  and  C_24
    6  A    between atoms: C_15  and  N_23
    7  A    between atoms: C_19  and  O_22
    8  A    between atoms: C_19  and  C_24
                            x       y       z     vdW  Elec       q    Type
                         _______ _______ _______ _____ _____    ______ ____

>  <TORSDO>
F 8

$$$$
=
 OpenBabel11052413133D

 31 34  0  0  1  0  0  0  0  0999 V2000
  190.9850  177.5150  143.3900 C   0  0  2  0  0  3  0  0  0  0  0  0
  188.8430  178.0760  140.1950 C   0  0  2  0  0  3  0  0  0  0  0  0
  189.6750  177.5950  139.0190 C   0  0  0  0  0  0  0  0  0  0  0  0
  191.5780  176.0220  138.8790 C   0  0  0  0  0  3  0  0  0  0  0  0
  189.2650  177.4420  141.5420 C   0  0  1  0  0  3  0  0  0  0  0  0
  189.9360  176.7470  144.2060 C   0  0  0  0  0  2  0  0  0  0  0  0
  191.1490  177.4100  139.2140 C   0  0  0  0  0  2  0  0  0  0  0  0
  186.5530  178.4840  141.0830 C   0  0  0  0  0  0  0  0  0  0  0  0
  191.7050  178.5130  144.2750 C   0  0  0  0  0  1  0  0  0  0  0  0
  187.8030  177.9630  137.5770 O   0  0  0  0  0  0  0  0  0  0  0  0
  191.4790  175.5250  137.6500 C   0  0  0  0  0  3  0  0  0  0  0  0
  186.9470  178.1830  142.3240 C   0  0  0  0  0  3  0  0  0  0  0  0
  187.3390  177.9110  139.9330 C   0  0  1  0  0  3  0  0  0  0  0  0
  190.4080  178.2410  142.1680 C   0  0  0  0  0  2  0  0  0  0  0  0
  190.8710  176.2320  136.5090 C   0  0  0  0  0  3  0  0  0  0  0  0
  188.0980  177.2450  142.5580 C   0  0  2  0  0  3  0  0  0  0  0  0
  188.5360  177.3260  144.0240 C   0  0  0  0  0  2  0  0  0  0  0  0
  187.0130  178.5650  138.5990 C   0  0  0  0  0  2  0  0  0  0  0  0
  189.1340  177.5650  137.7760 C   0  0  0  0  0  0  0  0  0  0  0  0
  189.8680  177.1170  136.5700 C   0  0  0  0  0  3  0  0  0  0  0  0
  185.4550  179.3800  140.8390 N   0  0  0  0  0  2  0  0  0  0  0  0
  183.3570  179.3420  139.1610 S   0  0  0  0  0  0  0  0  0  0  0  0
  184.0800  179.0430  140.6010 C   0  0  0  0  0  0  0  0  0  0  0  0
  183.2130  178.7500  141.7730 C   0  0  0  0  0  2  0  0  0  0  0  0
  183.7950  179.2720  142.9310 O   0  0  0  0  0  0  0  0  0  0  0  0
  181.6640  178.8520  143.9450 C   0  0  0  0  0  1  0  0  0  0  0  0
  183.1640  178.6020  143.9840 C   0  0  2  0  0  3  0  0  0  0  0  0
  183.7690  179.0060  145.3320 C   0  0  0  0  0  2  0  0  0  0  0  0
  185.1990  178.5030  145.5240 C   0  0  0  0  0  2  0  0  0  0  0  0
  185.8310  179.0740  146.7860 C   0  0  0  0  0  2  0  0  0  0  0  0
  187.0130  178.2260  147.2180 C   0  0  0  0  0  1  0  0  0  0  0  0
  1  6  1  0  0  0  0
  1  9  1  1  0  0  0
  2  3  1  6  0  0  0
  2  5  1  0  0  0  0
  3  7  1  0  0  0  0
  4  7  1  0  0  0  0
  5 14  1  1  0  0  0
  5 16  1  0  0  0  0
  8 12  2  0  0  0  0
 10 19  1  0  0  0  0
 10 18  1  0  0  0  0
 11  4  2  0  0  0  0
 13 18  1  6  0  0  0
 13  2  1  0  0  0  0
 13  8  1  0  0  0  0
 14  1  1  0  0  0  0
 15 20  2  0  0  0  0
 15 11  1  0  0  0  0
 16 12  1  6  0  0  0
 16 17  1  0  0  0  0
 17  6  1  0  0  0  0
 19  3  2  0  0  0  0
 20 19  1  0  0  0  0
 21  8  1  0  0  0  0
 22 23  2  0  0  0  0
 23 21  1  0  0  0  0
 23 24  1  0  0  0  0
 24 25  1  0  0  0  0
 25 27  1  0  0  0  0
 27 26  1  1  0  0  0
 27 28  1  0  0  0  0
 28 29  1  0  0  0  0
 29 30  1  0  0  0  0
 30 31  1  0  0  0  0
M  END
>  <MODEL>
6

>  <REMARK>
 VINA RESULT:      -7.3      1.755      7.236
  Name = 
  8 active torsions:
  status: ('A' for Active; 'I' for Inactive)
    1  A    between atoms: C_1  and  C_11
    2  A    between atoms: C_3  and  C_9
    3  A    between atoms: C_3  and  O_22
    4  A    between atoms: C_9  and  N_23
    5  A    between atoms: C_11  and  C_24
    6  A    between atoms: C_15  and  N_23
    7  A    between atoms: C_19  and  O_22
    8  A    between atoms: C_19  and  C_24
                            x       y       z     vdW  Elec       q    Type
                         _______ _______ _______ _____ _____    ______ ____

>  <TORSDO>
F 8

$$$$
=
 OpenBabel11052413133D

 31 34  0  0  1  0  0  0  0  0999 V2000
  188.9340  177.0920  136.0670 C   0  0  2  0  0  3  0  0  0  0  0  0
  187.8170  178.1360  139.6410 C   0  0  2  0  0  3  0  0  0  0  0  0
  186.3170  178.3660  139.5820 C   0  0  0  0  0  0  0  0  0  0  0  0
  184.5840  177.5540  138.0150 C   0  0  0  0  0  3  0  0  0  0  0  0
  188.3370  177.2070  138.5180 C   0  0  1  0  0  3  0  0  0  0  0  0
  189.6990  175.8190  136.4570 C   0  0  0  0  0  2  0  0  0  0  0  0
  185.6740  178.5470  138.2400 C   0  0  0  0  0  2  0  0  0  0  0  0
  189.7650  177.5330  141.0690 C   0  0  0  0  0  0  0  0  0  0  0  0
  189.7090  177.8640  135.0170 C   0  0  0  0  0  1  0  0  0  0  0  0
  186.2980  178.6840  141.9520 O   0  0  0  0  0  0  0  0  0  0  0  0
  183.4820  177.5260  138.7580 C   0  0  0  0  0  3  0  0  0  0  0  0
  190.3710  176.9310  140.0420 C   0  0  0  0  0  3  0  0  0  0  0  0
  188.2650  177.6600  141.0300 C   0  0  1  0  0  3  0  0  0  0  0  0
  188.6240  178.0140  137.2530 C   0  0  0  0  0  2  0  0  0  0  0  0
  183.2390  178.3940  139.9240 C   0  0  0  0  0  3  0  0  0  0  0  0
  189.5680  176.3370  138.9180 C   0  0  2  0  0  3  0  0  0  0  0  0
  190.4960  176.0050  137.7450 C   0  0  0  0  0  2  0  0  0  0  0  0
  187.7170  178.6290  142.0650 C   0  0  0  0  0  2  0  0  0  0  0  0
  185.6290  178.6340  140.7180 C   0  0  0  0  0  0  0  0  0  0  0  0
  184.1680  178.8760  140.7580 C   0  0  0  0  0  3  0  0  0  0  0  0
  190.5160  178.1090  142.1520 N   0  0  0  0  0  2  0  0  0  0  0  0
  191.3500  176.0050  143.6010 S   0  0  0  0  0  0  0  0  0  0  0  0
  190.7820  177.5340  143.4410 C   0  0  0  0  0  0  0  0  0  0  0  0
  190.2050  178.1970  144.6410 C   0  0  0  0  0  2  0  0  0  0  0  0
  189.0020  177.5760  144.9880 O   0  0  0  0  0  0  0  0  0  0  0  0
  189.8660  177.1330  147.1790 C   0  0  0  0  0  1  0  0  0  0  0  0
  188.8260  177.8660  146.3450 C   0  0  2  0  0  3  0  0  0  0  0  0
  187.4020  177.5330  146.7970 C   0  0  0  0  0  2  0  0  0  0  0  0
  186.3710  177.6570  145.6750 C   0  0  0  0  0  2  0  0  0  0  0  0
  185.6680  179.0070  145.7040 C   0  0  0  0  0  2  0  0  0  0  0  0
  184.3370  178.9290  144.9810 C   0  0  0  0  0  1  0  0  0  0  0  0
  1  9  1  6  0  0  0
  1  6  1  0  0  0  0
  1 14  1  0  0  0  0
  2  3  1  1  0  0  0
  2 13  1  0  0  0  0
  3 19  2  0  0  0  0
  4  7  1  0  0  0  0
  4 11  2  0  0  0  0
  5 14  1  6  0  0  0
  5 16  1  0  0  0  0
  5  2  1  0  0  0  0
  6 17  1  0  0  0  0
  7  3  1  0  0  0  0
  8 21  1  0  0  0  0
 10 18  1  0  0  0  0
 11 15  1  0  0  0  0
 12  8  2  0  0  0  0
 13  8  1  0  0  0  0
 13 18  1  1  0  0  0
 15 20  2  0  0  0  0
 16 17  1  6  0  0  0
 16 12  1  0  0  0  0
 19 20  1  0  0  0  0
 19 10  1  0  0  0  0
 21 23  1  0  0  0  0
 23 22  2  0  0  0  0
 23 24  1  0  0  0  0
 24 25  1  0  0  0  0
 25 27  1  0  0  0  0
 27 28  1  0  0  0  0
 27 26  1  1  0  0  0
 29 30  1  0  0  0  0
 29 28  1  0  0  0  0
 31 30  1  0  0  0  0
M  END
>  <MODEL>
7

>  <REMARK>
 VINA RESULT:      -6.8      2.546      7.046
  Name = 
  8 active torsions:
  status: ('A' for Active; 'I' for Inactive)
    1  A    between atoms: C_1  and  C_11
    2  A    between atoms: C_3  and  C_9
    3  A    between atoms: C_3  and  O_22
    4  A    between atoms: C_9  and  N_23
    5  A    between atoms: C_11  and  C_24
    6  A    between atoms: C_15  and  N_23
    7  A    between atoms: C_19  and  O_22
    8  A    between atoms: C_19  and  C_24
                            x       y       z     vdW  Elec       q    Type
                         _______ _______ _______ _____ _____    ______ ____

>  <TORSDO>
F 8

$$$$
=
 OpenBabel11052413133D

 31 34  0  0  1  0  0  0  0  0999 V2000
  190.8940  177.6720  143.3720 C   0  0  2  0  0  3  0  0  0  0  0  0
  187.6400  178.4650  141.3990 C   0  0  2  0  0  3  0  0  0  0  0  0
  187.9570  178.2540  139.9280 C   0  0  0  0  0  0  0  0  0  0  0  0
  189.7100  176.9300  138.7920 C   0  0  0  0  0  3  0  0  0  0  0  0
  188.5870  177.6880  142.3450 C   0  0  1  0  0  3  0  0  0  0  0  0
  190.2870  176.6850  144.3790 C   0  0  0  0  0  2  0  0  0  0  0  0
  189.3940  178.2000  139.5060 C   0  0  0  0  0  2  0  0  0  0  0  0
  185.8760  178.4910  143.1550 C   0  0  0  0  0  0  0  0  0  0  0  0
  191.8650  178.6010  144.0750 C   0  0  0  0  0  1  0  0  0  0  0  0
  185.6530  178.6270  139.4060 O   0  0  0  0  0  0  0  0  0  0  0  0
  189.1530  176.6110  137.6280 C   0  0  0  0  0  3  0  0  0  0  0  0
  186.7410  178.0550  144.0740 C   0  0  0  0  0  3  0  0  0  0  0  0
  186.1640  178.1810  141.7090 C   0  0  1  0  0  3  0  0  0  0  0  0
  189.8510  178.5040  142.6150 C   0  0  0  0  0  2  0  0  0  0  0  0
  188.1140  177.4100  136.9530 C   0  0  0  0  0  3  0  0  0  0  0  0
  187.9280  177.2210  143.6780 C   0  0  2  0  0  3  0  0  0  0  0  0
  188.9070  177.1320  144.8530 C   0  0  0  0  0  2  0  0  0  0  0  0
  185.3100  178.9850  140.7410 C   0  0  0  0  0  2  0  0  0  0  0  0
  186.9700  178.3490  139.0040 C   0  0  0  0  0  0  0  0  0  0  0  0
  187.1830  178.1640  137.5500 C   0  0  0  0  0  3  0  0  0  0  0  0
  184.7360  179.2910  143.5140 N   0  0  0  0  0  2  0  0  0  0  0  0
  184.1800  178.6290  146.0590 S   0  0  0  0  0  0  0  0  0  0  0  0
  183.7530  179.0180  144.5240 C   0  0  0  0  0  0  0  0  0  0  0  0
  182.3580  178.7390  144.0930 C   0  0  0  0  0  2  0  0  0  0  0  0
  181.9260  179.7400  143.2190 O   0  0  0  0  0  0  0  0  0  0  0  0
  180.0430  178.2590  143.2740 C   0  0  0  0  0  1  0  0  0  0  0  0
  180.9550  179.1270  142.4210 C   0  0  2  0  0  3  0  0  0  0  0  0
  181.6030  178.3260  141.2880 C   0  0  0  0  0  2  0  0  0  0  0  0
  181.0560  178.6850  139.9070 C   0  0  0  0  0  2  0  0  0  0  0  0
  180.2270  179.9610  139.9460 C   0  0  0  0  0  2  0  0  0  0  0  0
  180.8680  181.0370  139.0880 C   0  0  0  0  0  1  0  0  0  0  0  0
  1  9  1  1  0  0  0
  1  6  1  0  0  0  0
  2  3  1  6  0  0  0
  2 13  1  0  0  0  0
  2  5  1  0  0  0  0
  4  7  1  0  0  0  0
  5 14  1  1  0  0  0
  5 16  1  0  0  0  0
  6 17  1  0  0  0  0
  7  3  1  0  0  0  0
  8 21  1  0  0  0  0
  8 12  2  0  0  0  0
 10 18  1  0  0  0  0
 11  4  2  0  0  0  0
 13 18  1  6  0  0  0
 13  8  1  0  0  0  0
 14  1  1  0  0  0  0
 15 20  2  0  0  0  0
 15 11  1  0  0  0  0
 16 12  1  1  0  0  0
 16 17  1  0  0  0  0
 19 10  1  0  0  0  0
 19  3  2  0  0  0  0
 20 19  1  0  0  0  0
 21 23  1  0  0  0  0
 23 22  2  0  0  0  0
 24 23  1  0  0  0  0
 25 24  1  0  0  0  0
 27 25  1  0  0  0  0
 27 26  1  1  0  0  0
 28 27  1  0  0  0  0
 29 30  1  0  0  0  0
 29 28  1  0  0  0  0
 31 30  1  0  0  0  0
M  END
>  <MODEL>
8

>  <REMARK>
 VINA RESULT:      -6.7      3.214      7.536
  Name = 
  8 active torsions:
  status: ('A' for Active; 'I' for Inactive)
    1  A    between atoms: C_1  and  C_11
    2  A    between atoms: C_3  and  C_9
    3  A    between atoms: C_3  and  O_22
    4  A    between atoms: C_9  and  N_23
    5  A    between atoms: C_11  and  C_24
    6  A    between atoms: C_15  and  N_23
    7  A    between atoms: C_19  and  O_22
    8  A    between atoms: C_19  and  C_24
                            x       y       z     vdW  Elec       q    Type
                         _______ _______ _______ _____ _____    ______ ____

>  <TORSDO>
F 8

$$$$
=
 OpenBabel11052413133D

 31 34  0  0  1  0  0  0  0  0999 V2000
  181.4140  178.6250  137.0670 C   0  0  2  0  0  3  0  0  0  0  0  0
  183.2580  178.9800  140.4700 C   0  0  2  0  0  3  0  0  0  0  0  0
  182.1890  178.9890  141.5490 C   0  0  0  0  0  0  0  0  0  0  0  0
  179.8610  178.1540  141.5720 C   0  0  0  0  0  3  0  0  0  0  0  0
  182.7950  178.3050  139.1570 C   0  0  1  0  0  3  0  0  0  0  0  0
  182.2220  177.4390  136.5200 C   0  0  0  0  0  2  0  0  0  0  0  0
  180.7700  179.2580  141.1480 C   0  0  0  0  0  2  0  0  0  0  0  0
  185.6320  178.4820  139.9110 C   0  0  0  0  0  0  0  0  0  0  0  0
  181.1780  179.6430  135.9690 C   0  0  0  0  0  1  0  0  0  0  0  0
  183.9060  178.9660  143.2140 O   0  0  0  0  0  0  0  0  0  0  0  0
  179.6500  177.8590  142.8500 C   0  0  0  0  0  3  0  0  0  0  0  0
  185.2970  178.1260  138.6670 C   0  0  0  0  0  3  0  0  0  0  0  0
  184.5780  178.3860  140.9820 C   0  0  1  0  0  3  0  0  0  0  0  0
  182.0670  179.3160  138.2700 C   0  0  0  0  0  2  0  0  0  0  0  0
  180.3350  178.5090  143.9820 C   0  0  0  0  0  3  0  0  0  0  0  0
  183.9280  177.5820  138.3670 C   0  0  2  0  0  3  0  0  0  0  0  0
  183.7070  177.5600  136.8510 C   0  0  0  0  0  2  0  0  0  0  0  0
  184.9590  179.1090  142.2650 C   0  0  0  0  0  2  0  0  0  0  0  0
  182.5480  178.9900  142.8560 C   0  0  0  0  0  0  0  0  0  0  0  0
  181.5790  179.0030  143.9760 C   0  0  0  0  0  3  0  0  0  0  0  0
  186.9360  179.0060  140.2170 N   0  0  0  0  0  2  0  0  0  0  0  0
  189.0080  178.2170  138.6980 S   0  0  0  0  0  0  0  0  0  0  0  0
  188.2000  178.3320  140.1200 C   0  0  0  0  0  0  0  0  0  0  0  0
  188.6060  177.4300  141.2310 C   0  0  0  0  0  2  0  0  0  0  0  0
  188.9020  178.1880  142.3670 O   0  0  0  0  0  0  0  0  0  0  0  0
  187.3050  176.9370  143.6440 C   0  0  0  0  0  1  0  0  0  0  0  0
  188.7680  177.2990  143.4390 C   0  0  2  0  0  3  0  0  0  0  0  0
  189.3920  177.8770  144.7120 C   0  0  0  0  0  2  0  0  0  0  0  0
  188.4000  177.9920  145.8690 C   0  0  0  0  0  2  0  0  0  0  0  0
  188.8130  177.1260  147.0510 C   0  0  0  0  0  2  0  0  0  0  0  0
  188.6400  177.8860  148.3530 C   0  0  0  0  0  1  0  0  0  0  0  0
  1  9  1  6  0  0  0
  1 14  1  0  0  0  0
  2 13  1  0  0  0  0
  2  3  1  1  0  0  0
  3 19  2  0  0  0  0
  4 11  2  0  0  0  0
  5 14  1  6  0  0  0
  5  2  1  0  0  0  0
  6 17  1  0  0  0  0
  6  1  1  0  0  0  0
  7  3  1  0  0  0  0
  7  4  1  0  0  0  0
  8 21  1  0  0  0  0
  8 13  1  0  0  0  0
 11 15  1  0  0  0  0
 12  8  2  0  0  0  0
 13 18  1  1  0  0  0
 16 17  1  6  0  0  0
 16 12  1  0  0  0  0
 16  5  1  0  0  0  0
 18 10  1  0  0  0  0
 19 10  1  0  0  0  0
 19 20  1  0  0  0  0
 20 15  2  0  0  0  0
 22 23  2  0  0  0  0
 23 21  1  0  0  0  0
 23 24  1  0  0  0  0
 24 25  1  0  0  0  0
 25 27  1  0  0  0  0
 27 26  1  1  0  0  0
 27 28  1  0  0  0  0
 28 29  1  0  0  0  0
 29 30  1  0  0  0  0
 30 31  1  0  0  0  0
M  END
>  <MODEL>
9

>  <REMARK>
 VINA RESULT:      -6.7      3.453      7.168
  Name = 
  8 active torsions:
  status: ('A' for Active; 'I' for Inactive)
    1  A    between atoms: C_1  and  C_11
    2  A    between atoms: C_3  and  C_9
    3  A    between atoms: C_3  and  O_22
    4  A    between atoms: C_9  and  N_23
    5  A    between atoms: C_11  and  C_24
    6  A    between atoms: C_15  and  N_23
    7  A    between atoms: C_19  and  O_22
    8  A    between atoms: C_19  and  C_24
                            x       y       z     vdW  Elec       q    Type
                         _______ _______ _______ _____ _____    ______ ____

>  <TORSDO>
F 8

$$$$
