=
 OpenBabel11052412383D

 30 32  0  0  1  0  0  0  0  0999 V2000
  182.0600  177.4260  140.4150 C   0  0  1  0  0  3  0  0  0  0  0  0
  180.9910  179.6630  142.5990 C   0  0  0  0  0  2  0  0  0  0  0  0
  180.9160  182.0220  138.4690 C   0  0  0  0  0  1  0  0  0  0  0  0
  182.0210  176.8930  138.9520 C   0  0  2  0  0  3  0  0  0  0  0  0
  183.1230  178.5090  140.6860 C   0  0  0  0  0  2  0  0  0  0  0  0
  184.1680  178.2280  138.3920 C   0  0  2  0  0  3  0  0  0  0  0  0
  181.1150  176.8870  136.5520 C   0  0  0  0  0  2  0  0  0  0  0  0
  181.4780  179.6140  137.0700 O   0  0  0  0  0  0  0  0  0  0  0  0
  183.5970  179.2130  139.4190 C   0  0  0  0  0  2  0  0  0  0  0  0
  183.4520  176.8640  138.3660 C   0  0  2  0  0  3  0  0  0  0  0  0
  179.6690  180.4160  142.7190 C   0  0  0  0  0  2  0  0  0  0  0  0
  182.5520  177.0080  136.0650 C   0  0  2  0  0  3  0  0  0  0  0  0
  180.7860  178.1540  142.5140 C   0  0  0  0  0  2  0  0  0  0  0  0
  180.1720  179.6390  139.0090 N   0  0  0  0  0  2  0  0  0  0  0  0
  178.9320  180.5290  141.3900 C   0  0  0  0  0  2  0  0  0  0  0  0
  180.6960  177.6960  141.0630 C   0  0  0  0  0  2  0  0  0  0  0  0
  179.5690  176.9020  138.4100 C   0  0  0  0  0  1  0  0  0  0  0  0
  180.8680  178.9590  137.9580 C   0  0  0  0  0  0  0  0  0  0  0  0
  180.9230  177.4430  137.9750 C   0  0  1  0  0  0  0  0  0  0  0  0
  182.6710  176.6520  134.5940 C   0  0  0  0  0  1  0  0  0  0  0  0
  180.2120  181.0350  139.3340 C   0  0  0  0  0  0  0  0  0  0  0  0
  179.6330  181.4640  140.4530 C   0  0  0  0  0  3  0  0  0  0  0  0
  183.5120  176.2200  136.9720 C   0  0  2  0  0  3  0  0  0  0  0  0
  184.1780  174.1100  137.8610 C   0  0  0  0  0  1  0  0  0  0  0  0
  183.3100  174.2550  135.8060 O   0  0  0  0  0  1  0  0  0  0  0  0
  183.1780  174.7850  137.0450 N   0  0  0  0  0  0  0  0  0  0  0  0
  185.6730  178.0540  138.5660 C   0  0  0  0  0  2  0  0  0  0  0  0
  186.1530  178.8770  139.5890 O   0  0  0  0  0  0  0  0  0  0  0  0
  187.4370  178.4890  139.7670 N   0  0  0  0  0  2  0  0  0  0  0  0
  187.6720  178.4640  141.1990 C   0  0  0  0  0  1  0  0  0  0  0  0
  1  5  1  6  0  0  0
  1 16  1  0  0  0  0
  2 11  1  0  0  0  0
  3 21  1  0  0  0  0
  4  1  1  0  0  0  0
  6 27  1  0  0  0  0
  6  9  1  0  0  0  0
  7 19  1  0  0  0  0
  8 18  2  0  0  0  0
  9  5  1  0  0  0  0
 10  6  1  0  0  0  0
 10  4  1  0  0  0  0
 12  7  1  0  0  0  0
 12 23  1  0  0  0  0
 13  2  1  0  0  0  0
 14 21  1  0  0  0  0
 15 11  1  0  0  0  0
 16 13  1  0  0  0  0
 18 19  1  0  0  0  0
 18 14  1  0  0  0  0
 19 17  1  0  0  0  0
 19  4  1  0  0  0  0
 20 12  1  0  0  0  0
 21 22  2  0  0  0  0
 22 15  1  0  0  0  0
 23 26  1  0  0  0  0
 23 10  1  0  0  0  0
 25 26  1  0  0  0  0
 26 24  1  0  0  0  0
 27 28  1  0  0  0  0
 28 29  1  0  0  0  0
 29 30  1  0  0  0  0
M  END
>  <MODEL>
1

>  <REMARK>
 VINA RESULT:      -5.1      0.000      0.000
  Name = 
  4 active torsions:
  status: ('A' for Active; 'I' for Inactive)
    1  A    between atoms: C_6  and  C_8
    2  A    between atoms: C_6  and  O_21
    3  A    between atoms: N_9  and  O_21
    4  A    between atoms: N_27  and  C_30
                            x       y       z     vdW  Elec       q    Type
                         _______ _______ _______ _____ _____    ______ ____

>  <TORSDO>
F 4

$$$$
=
 OpenBabel11052412383D

 30 32  0  0  1  0  0  0  0  0999 V2000
  182.1100  177.3350  137.4870 C   0  0  1  0  0  3  0  0  0  0  0  0
  182.5440  174.1080  136.9340 C   0  0  0  0  0  2  0  0  0  0  0  0
  179.7290  174.2070  140.7680 C   0  0  0  0  0  1  0  0  0  0  0  0
  181.1810  178.4650  138.0250 C   0  0  2  0  0  3  0  0  0  0  0  0
  183.0390  176.6990  138.5390 C   0  0  0  0  0  2  0  0  0  0  0  0
  182.4040  178.4030  140.3060 C   0  0  2  0  0  3  0  0  0  0  0  0
  178.9600  179.3320  138.9720 C   0  0  0  0  0  2  0  0  0  0  0  0
  179.4120  177.0150  140.4770 O   0  0  0  0  0  0  0  0  0  0  0  0
  182.5590  176.9160  139.9700 C   0  0  0  0  0  2  0  0  0  0  0  0
  181.9140  179.2650  139.1270 C   0  0  2  0  0  3  0  0  0  0  0  0
  181.5580  172.9910  136.5990 C   0  0  0  0  0  2  0  0  0  0  0  0
  179.7520  179.9650  140.1070 C   0  0  2  0  0  3  0  0  0  0  0  0
  182.4180  175.2880  135.9780 C   0  0  0  0  0  2  0  0  0  0  0  0
  179.6350  175.6000  138.6290 N   0  0  0  0  0  2  0  0  0  0  0  0
  180.1400  173.2980  137.0660 C   0  0  0  0  0  2  0  0  0  0  0  0
  181.4530  176.3350  136.5260 C   0  0  0  0  0  2  0  0  0  0  0  0
  178.9470  177.8820  137.0370 C   0  0  0  0  0  1  0  0  0  0  0  0
  179.5430  176.8980  139.2280 C   0  0  0  0  0  0  0  0  0  0  0  0
  179.6830  178.1240  138.3470 C   0  0  1  0  0  0  0  0  0  0  0  0
  178.9310  181.0100  140.8400 C   0  0  0  0  0  1  0  0  0  0  0  0
  179.7930  174.3350  139.2850 C   0  0  0  0  0  0  0  0  0  0  0  0
  180.0320  173.2450  138.5590 C   0  0  0  0  0  3  0  0  0  0  0  0
  181.1130  180.4840  139.6110 C   0  0  2  0  0  3  0  0  0  0  0  0
  182.2680  182.1450  138.3510 C   0  0  0  0  0  1  0  0  0  0  0  0
  180.1400  182.4550  138.9590 O   0  0  0  0  0  1  0  0  0  0  0  0
  180.9830  181.4840  138.5360 N   0  0  0  0  0  0  0  0  0  0  0  0
  183.6840  178.9730  140.9070 C   0  0  0  0  0  2  0  0  0  0  0  0
  184.4710  179.5750  139.9210 O   0  0  0  0  0  0  0  0  0  0  0  0
  185.6840  178.9870  140.0450 N   0  0  0  0  0  2  0  0  0  0  0  0
  185.9820  178.9380  141.4650 C   0  0  0  0  0  1  0  0  0  0  0  0
  1 16  1  1  0  0  0
  1  4  1  0  0  0  0
  1  5  1  0  0  0  0
  4 19  1  0  0  0  0
  4 10  1  0  0  0  0
  5  9  1  0  0  0  0
  6 27  1  0  0  0  0
  7 12  1  0  0  0  0
  9  6  1  0  0  0  0
 10 23  1  0  0  0  0
 10  6  1  0  0  0  0
 11  2  1  0  0  0  0
 11 15  1  0  0  0  0
 12 20  1  0  0  0  0
 13 16  1  0  0  0  0
 13  2  1  0  0  0  0
 14 18  1  0  0  0  0
 14 21  1  0  0  0  0
 15 22  1  0  0  0  0
 17 19  1  0  0  0  0
 18  8  2  0  0  0  0
 19  7  1  0  0  0  0
 19 18  1  0  0  0  0
 21  3  1  0  0  0  0
 22 21  2  0  0  0  0
 23 12  1  0  0  0  0
 24 26  1  0  0  0  0
 26 25  1  0  0  0  0
 26 23  1  0  0  0  0
 28 29  1  0  0  0  0
 28 27  1  0  0  0  0
 29 30  1  0  0  0  0
M  END
>  <MODEL>
2

>  <REMARK>
 VINA RESULT:      -4.8      2.258      5.686
  Name = 
  4 active torsions:
  status: ('A' for Active; 'I' for Inactive)
    1  A    between atoms: C_6  and  C_8
    2  A    between atoms: C_6  and  O_21
    3  A    between atoms: N_9  and  O_21
    4  A    between atoms: N_27  and  C_30
                            x       y       z     vdW  Elec       q    Type
                         _______ _______ _______ _____ _____    ______ ____

>  <TORSDO>
F 4

$$$$
=
 OpenBabel11052412383D

 30 32  0  0  1  0  0  0  0  0999 V2000
  182.8860  176.5860  139.1120 C   0  0  1  0  0  3  0  0  0  0  0  0
  181.6420  179.4460  140.2000 C   0  0  0  0  0  2  0  0  0  0  0  0
  179.2440  178.6560  136.1680 C   0  0  0  0  0  1  0  0  0  0  0  0
  182.6490  175.2620  138.3250 C   0  0  2  0  0  3  0  0  0  0  0  0
  183.3660  177.7750  138.2570 C   0  0  0  0  0  2  0  0  0  0  0  0
  183.6670  176.3280  136.1960 C   0  0  2  0  0  3  0  0  0  0  0  0
  181.1600  173.5950  137.0650 C   0  0  0  0  0  2  0  0  0  0  0  0
  180.3820  176.0590  135.9870 O   0  0  0  0  0  0  0  0  0  0  0  0
  183.0550  177.6100  136.7740 C   0  0  0  0  0  2  0  0  0  0  0  0
  183.6800  175.1420  137.1790 C   0  0  2  0  0  3  0  0  0  0  0  0
  180.2300  179.8470  140.6190 C   0  0  0  0  0  2  0  0  0  0  0  0
  182.1590  173.6520  135.9180 C   0  0  2  0  0  3  0  0  0  0  0  0
  182.1300  178.2080  140.9440 C   0  0  0  0  0  2  0  0  0  0  0  0
  179.8700  177.0420  138.0450 N   0  0  0  0  0  0  0  0  0  0  0  0
  179.1560  178.9690  139.9880 C   0  0  0  0  0  2  0  0  0  0  0  0
  181.8200  176.9390  140.1570 C   0  0  0  0  0  2  0  0  0  0  0  0
  180.4280  174.4750  139.1950 C   0  0  0  0  0  1  0  0  0  0  0  0
  180.4410  175.9990  137.2450 C   0  0  0  0  0  0  0  0  0  0  0  0
  181.1810  174.8680  137.9320 C   0  0  1  0  0  0  0  0  0  0  0  0
  181.9710  172.4880  134.9620 C   0  0  0  0  0  1  0  0  0  0  0  0
  179.3690  178.3130  137.6120 C   0  0  0  0  0  0  0  0  0  0  0  0
  179.0310  179.2270  138.5180 C   0  0  0  0  0  2  0  0  0  0  0  0
  183.5980  173.7950  136.4420 C   0  0  2  0  0  3  0  0  0  0  0  0
  185.2830  173.0030  137.9310 C   0  0  0  0  0  1  0  0  0  0  0  0
  184.2100  171.5890  136.5720 O   0  0  0  0  0  1  0  0  0  0  0  0
  183.9920  172.6880  137.3320 N   0  0  0  0  0  0  0  0  0  0  0  0
  185.0580  176.5840  135.6270 C   0  0  0  0  0  2  0  0  0  0  0  0
  186.0350  176.4300  136.6150 O   0  0  0  0  0  0  0  0  0  0  0  0
  186.7270  177.5930  136.5960 N   0  0  0  0  0  2  0  0  0  0  0  0
  187.1040  177.8780  137.9690 C   0  0  0  0  0  1  0  0  0  0  0  0
  1  5  1  6  0  0  0
  1 16  1  0  0  0  0
  2 11  1  0  0  0  0
  2 13  1  0  0  0  0
  3 21  1  0  0  0  0
  4  1  1  0  0  0  0
  6  9  1  0  0  0  0
  6 10  1  0  0  0  0
  7 19  1  0  0  0  0
  8 18  2  0  0  0  0
  9  5  1  0  0  0  0
 10  4  1  0  0  0  0
 12 23  1  0  0  0  0
 12  7  1  0  0  0  0
 15 11  1  0  0  0  0
 16 13  1  0  0  0  0
 18 19  1  0  0  0  0
 18 14  1  0  0  0  0
 19  4  1  0  0  0  0
 19 17  1  0  0  0  0
 20 12  1  0  0  0  0
 21 14  2  0  0  0  0
 21 22  1  0  0  0  0
 22 15  1  0  0  0  0
 23 10  1  0  0  0  0
 23 26  1  0  0  0  0
 25 26  1  0  0  0  0
 26 24  1  0  0  0  0
 27  6  1  0  0  0  0
 27 28  1  0  0  0  0
 29 28  1  0  0  0  0
 29 30  1  0  0  0  0
M  END
>  <MODEL>
3

>  <REMARK>
 VINA RESULT:      -4.4      2.236      2.920
  Name = 
  4 active torsions:
  status: ('A' for Active; 'I' for Inactive)
    1  A    between atoms: C_6  and  C_8
    2  A    between atoms: C_6  and  O_21
    3  A    between atoms: N_9  and  O_21
    4  A    between atoms: N_27  and  C_30
                            x       y       z     vdW  Elec       q    Type
                         _______ _______ _______ _____ _____    ______ ____

>  <TORSDO>
F 4

$$$$
=
 OpenBabel11052412383D

 30 32  0  0  1  0  0  0  0  0999 V2000
  183.4500  176.5230  137.9300 C   0  0  1  0  0  3  0  0  0  0  0  0
  184.3120  173.3520  137.5930 C   0  0  0  0  0  2  0  0  0  0  0  0
  179.6950  173.3720  136.4500 C   0  0  0  0  0  1  0  0  0  0  0  0
  182.5340  177.6940  137.4650 C   0  0  2  0  0  3  0  0  0  0  0  0
  182.8720  175.6530  139.0640 C   0  0  0  0  0  2  0  0  0  0  0  0
  180.9010  177.2100  139.4150 C   0  0  2  0  0  3  0  0  0  0  0  0
  180.7620  178.7270  135.9240 C   0  0  0  0  0  2  0  0  0  0  0  0
  179.6800  176.2130  136.5130 O   0  0  0  0  0  0  0  0  0  0  0  0
  181.3560  175.7640  139.1890 C   0  0  0  0  0  2  0  0  0  0  0  0
  181.7510  178.2590  138.6730 C   0  0  2  0  0  3  0  0  0  0  0  0
  184.3090  172.4190  136.3850 C   0  0  0  0  0  2  0  0  0  0  0  0
  179.9810  179.1170  137.1720 C   0  0  2  0  0  3  0  0  0  0  0  0
  185.0780  174.6410  137.3190 C   0  0  0  0  0  2  0  0  0  0  0  0
  181.5510  175.0030  135.8030 N   0  0  0  0  0  2  0  0  0  0  0  0
  183.3180  172.8510  135.3100 C   0  0  0  0  0  2  0  0  0  0  0  0
  184.1430  175.7340  136.8110 C   0  0  0  0  0  2  0  0  0  0  0  0
  182.6250  177.5240  134.9610 C   0  0  0  0  0  1  0  0  0  0  0  0
  180.8890  176.2250  136.1530 C   0  0  0  0  0  0  0  0  0  0  0  0
  181.6840  177.5160  136.1570 C   0  0  1  0  0  0  0  0  0  0  0  0
  178.9310  180.1670  136.8620 C   0  0  0  0  0  1  0  0  0  0  0  0
  181.0790  173.6610  135.9820 C   0  0  0  0  0  0  0  0  0  0  0  0
  181.9030  172.6420  135.7540 C   0  0  0  0  0  3  0  0  0  0  0  0
  180.9280  179.5070  138.3190 C   0  0  2  0  0  3  0  0  0  0  0  0
  183.0550  180.5080  138.7190 C   0  0  0  0  0  1  0  0  0  0  0  0
  181.2410  181.7770  138.4120 O   0  0  0  0  0  1  0  0  0  0  0  0
  181.8130  180.6340  137.9670 N   0  0  0  0  0  0  0  0  0  0  0  0
  180.8030  177.5360  140.9020 C   0  0  0  0  0  2  0  0  0  0  0  0
  181.9310  178.2400  141.3310 O   0  0  0  0  0  0  0  0  0  0  0  0
  181.4890  179.0010  142.3600 N   0  0  0  0  0  2  0  0  0  0  0  0
  182.5420  179.0030  143.3600 C   0  0  0  0  0  1  0  0  0  0  0  0
  1 16  1  6  0  0  0
  1  5  1  0  0  0  0
  4  1  1  0  0  0  0
  4 10  1  0  0  0  0
  5  9  1  0  0  0  0
  6 27  1  0  0  0  0
  7 19  1  0  0  0  0
  7 12  1  0  0  0  0
  9  6  1  0  0  0  0
 10  6  1  0  0  0  0
 11  2  1  0  0  0  0
 12 23  1  0  0  0  0
 13  2  1  0  0  0  0
 14 21  1  0  0  0  0
 14 18  1  0  0  0  0
 15 22  1  0  0  0  0
 15 11  1  0  0  0  0
 16 13  1  0  0  0  0
 17 19  1  0  0  0  0
 18 19  1  0  0  0  0
 18  8  2  0  0  0  0
 19  4  1  0  0  0  0
 20 12  1  0  0  0  0
 21  3  1  0  0  0  0
 22 21  2  0  0  0  0
 23 10  1  0  0  0  0
 26 23  1  0  0  0  0
 26 25  1  0  0  0  0
 26 24  1  0  0  0  0
 27 28  1  0  0  0  0
 28 29  1  0  0  0  0
 29 30  1  0  0  0  0
M  END
>  <MODEL>
4

>  <REMARK>
 VINA RESULT:      -4.3      2.631      6.168
  Name = 
  4 active torsions:
  status: ('A' for Active; 'I' for Inactive)
    1  A    between atoms: C_6  and  C_8
    2  A    between atoms: C_6  and  O_21
    3  A    between atoms: N_9  and  O_21
    4  A    between atoms: N_27  and  C_30
                            x       y       z     vdW  Elec       q    Type
                         _______ _______ _______ _____ _____    ______ ____

>  <TORSDO>
F 4

$$$$
=
 OpenBabel11052412383D

 30 32  0  0  1  0  0  0  0  0999 V2000
  180.3260  177.7850  137.1690 C   0  0  1  0  0  3  0  0  0  0  0  0
  181.0810  175.6950  134.7250 C   0  0  0  0  0  2  0  0  0  0  0  0
  183.7900  174.1990  138.3370 C   0  0  0  0  0  1  0  0  0  0  0  0
  180.1770  178.0170  138.7020 C   0  0  2  0  0  3  0  0  0  0  0  0
  181.7330  178.0580  136.6020 C   0  0  0  0  0  2  0  0  0  0  0  0
  182.5620  179.0220  138.7960 C   0  0  2  0  0  3  0  0  0  0  0  0
  180.1640  177.2140  141.1390 C   0  0  0  0  0  2  0  0  0  0  0  0
  182.4540  175.9870  140.0950 O   0  0  0  0  0  0  0  0  0  0  0  0
  182.8250  178.0210  137.6660 C   0  0  0  0  0  2  0  0  0  0  0  0
  181.0710  179.2000  139.1420 C   0  0  2  0  0  3  0  0  0  0  0  0
  180.9260  174.1820  134.5960 C   0  0  0  0  0  2  0  0  0  0  0  0
  181.1610  178.3200  141.4530 C   0  0  2  0  0  3  0  0  0  0  0  0
  179.7690  176.3740  135.1050 C   0  0  0  0  0  2  0  0  0  0  0  0
  181.3470  174.9430  138.3200 N   0  0  0  0  0  2  0  0  0  0  0  0
  180.8810  173.4770  135.9470 C   0  0  0  0  0  2  0  0  0  0  0  0
  179.6500  176.5220  136.6180 C   0  0  0  0  0  2  0  0  0  0  0  0
  178.9310  175.9750  139.4670 C   0  0  0  0  0  1  0  0  0  0  0  0
  181.4030  175.8760  139.4060 C   0  0  0  0  0  0  0  0  0  0  0  0
  180.2110  176.7770  139.6630 C   0  0  1  0  0  0  0  0  0  0  0  0
  181.2450  178.5820  142.9460 C   0  0  0  0  0  1  0  0  0  0  0  0
  182.4260  174.1970  137.7400 C   0  0  0  0  0  0  0  0  0  0  0  0
  182.2170  173.5050  136.6230 C   0  0  0  0  0  3  0  0  0  0  0  0
  180.8740  179.5790  140.6190 C   0  0  2  0  0  3  0  0  0  0  0  0
  179.1650  180.9840  139.7300 C   0  0  0  0  0  1  0  0  0  0  0  0
  179.5550  180.9220  141.9300 O   0  0  0  0  0  1  0  0  0  0  0  0
  179.5180  180.1140  140.8440 N   0  0  0  0  0  0  0  0  0  0  0  0
  183.2230  180.3660  138.5130 C   0  0  0  0  0  2  0  0  0  0  0  0
  184.5230  180.3980  139.0240 O   0  0  0  0  0  0  0  0  0  0  0  0
  184.4410  179.7500  140.2100 N   0  0  0  0  0  2  0  0  0  0  0  0
  185.6180  178.9060  140.3080 C   0  0  0  0  0  1  0  0  0  0  0  0
  1  5  1  1  0  0  0
  1  4  1  0  0  0  0
  2 13  1  0  0  0  0
  4 10  1  0  0  0  0
  4 19  1  0  0  0  0
  5  9  1  0  0  0  0
  6 10  1  0  0  0  0
  7 12  1  0  0  0  0
  9  6  1  0  0  0  0
 10 23  1  0  0  0  0
 11  2  1  0  0  0  0
 11 15  1  0  0  0  0
 12 20  1  0  0  0  0
 13 16  1  0  0  0  0
 14 18  1  0  0  0  0
 15 22  1  0  0  0  0
 16  1  1  0  0  0  0
 17 19  1  0  0  0  0
 18 19  1  0  0  0  0
 18  8  2  0  0  0  0
 19  7  1  0  0  0  0
 21 14  1  0  0  0  0
 21  3  1  0  0  0  0
 22 21  2  0  0  0  0
 23 26  1  0  0  0  0
 23 12  1  0  0  0  0
 24 26  1  0  0  0  0
 26 25  1  0  0  0  0
 27  6  1  0  0  0  0
 27 28  1  0  0  0  0
 28 29  1  0  0  0  0
 29 30  1  0  0  0  0
M  END
>  <MODEL>
5

>  <REMARK>
 VINA RESULT:      -4.2      2.196      6.061
  Name = 
  4 active torsions:
  status: ('A' for Active; 'I' for Inactive)
    1  A    between atoms: C_6  and  C_8
    2  A    between atoms: C_6  and  O_21
    3  A    between atoms: N_9  and  O_21
    4  A    between atoms: N_27  and  C_30
                            x       y       z     vdW  Elec       q    Type
                         _______ _______ _______ _____ _____    ______ ____

>  <TORSDO>
F 4

$$$$
=
 OpenBabel11052412383D

 30 32  0  0  1  0  0  0  0  0999 V2000
  182.7520  177.1080  139.3290 C   0  0  1  0  0  3  0  0  0  0  0  0
  183.9810  175.3940  136.7860 C   0  0  0  0  0  2  0  0  0  0  0  0
  180.4690  177.9300  134.8200 C   0  0  0  0  0  1  0  0  0  0  0  0
  182.0510  178.4090  139.8230 C   0  0  2  0  0  3  0  0  0  0  0  0
  181.7970  175.9800  138.8890 C   0  0  0  0  0  2  0  0  0  0  0  0
  179.7500  177.2280  139.7150 C   0  0  2  0  0  3  0  0  0  0  0  0
  181.1210  180.7730  139.4650 C   0  0  0  0  0  2  0  0  0  0  0  0
  180.1450  179.3800  137.2410 O   0  0  0  0  0  0  0  0  0  0  0  0
  180.3990  176.4800  138.5450 C   0  0  0  0  0  2  0  0  0  0  0  0
  180.7410  178.0500  140.5610 C   0  0  2  0  0  3  0  0  0  0  0  0
  184.6390  175.8390  135.4830 C   0  0  0  0  0  2  0  0  0  0  0  0
  179.8100  180.2910  140.0730 C   0  0  2  0  0  3  0  0  0  0  0  0
  184.6530  176.0120  138.0070 C   0  0  0  0  0  2  0  0  0  0  0  0
  182.2390  178.6280  136.5240 N   0  0  0  0  0  2  0  0  0  0  0  0
  184.2340  177.2490  135.0690 C   0  0  0  0  0  2  0  0  0  0  0  0
  183.9640  177.3120  138.4110 C   0  0  0  0  0  2  0  0  0  0  0  0
  183.3270  180.2230  138.6430 C   0  0  0  0  0  1  0  0  0  0  0  0
  181.3730  179.2350  137.4900 C   0  0  0  0  0  0  0  0  0  0  0  0
  181.9390  179.6280  138.8400 C   0  0  1  0  0  0  0  0  0  0  0  0
  178.9310  181.4560  140.4880 C   0  0  0  0  0  1  0  0  0  0  0  0
  181.8740  177.9510  135.3130 C   0  0  0  0  0  0  0  0  0  0  0  0
  182.8050  177.2980  134.6220 C   0  0  0  0  0  3  0  0  0  0  0  0
  180.0620  179.2740  141.1980 C   0  0  2  0  0  3  0  0  0  0  0  0
  181.2980  178.7330  143.1630 C   0  0  0  0  0  1  0  0  0  0  0  0
  180.1120  180.6240  143.0510 O   0  0  0  0  0  1  0  0  0  0  0  0
  180.8910  179.8230  142.2870 N   0  0  0  0  0  0  0  0  0  0  0  0
  178.9320  176.2850  140.5920 C   0  0  0  0  0  2  0  0  0  0  0  0
  179.5460  175.0320  140.6800 O   0  0  0  0  0  0  0  0  0  0  0  0
  178.9310  174.4230  141.7210 N   0  0  0  0  0  2  0  0  0  0  0  0
  179.7310  173.2590  142.0560 C   0  0  0  0  0  1  0  0  0  0  0  0
  1 16  1  6  0  0  0
  1  4  1  0  0  0  0
  2 13  1  0  0  0  0
  3 21  1  0  0  0  0
  4 10  1  0  0  0  0
  5  1  1  0  0  0  0
  6 10  1  0  0  0  0
  6 27  1  0  0  0  0
  7 12  1  0  0  0  0
  8 18  2  0  0  0  0
  9  5  1  0  0  0  0
  9  6  1  0  0  0  0
 10 23  1  0  0  0  0
 11  2  1  0  0  0  0
 12 20  1  0  0  0  0
 12 23  1  0  0  0  0
 13 16  1  0  0  0  0
 14 18  1  0  0  0  0
 15 11  1  0  0  0  0
 17 19  1  0  0  0  0
 18 19  1  0  0  0  0
 19  7  1  0  0  0  0
 19  4  1  0  0  0  0
 21 14  1  0  0  0  0
 22 15  1  0  0  0  0
 22 21  2  0  0  0  0
 23 26  1  0  0  0  0
 26 25  1  0  0  0  0
 26 24  1  0  0  0  0
 27 28  1  0  0  0  0
 28 29  1  0  0  0  0
 29 30  1  0  0  0  0
M  END
>  <MODEL>
6

>  <REMARK>
 VINA RESULT:      -4.2      2.612      6.366
  Name = 
  4 active torsions:
  status: ('A' for Active; 'I' for Inactive)
    1  A    between atoms: C_6  and  C_8
    2  A    between atoms: C_6  and  O_21
    3  A    between atoms: N_9  and  O_21
    4  A    between atoms: N_27  and  C_30
                            x       y       z     vdW  Elec       q    Type
                         _______ _______ _______ _____ _____    ______ ____

>  <TORSDO>
F 4

$$$$
=
 OpenBabel11052412383D

 30 32  0  0  1  0  0  0  0  0999 V2000
  180.2210  176.9900  136.1610 C   0  0  1  0  0  3  0  0  0  0  0  0
  179.0170  179.9480  137.0050 C   0  0  0  0  0  2  0  0  0  0  0  0
  182.2940  179.0920  140.3450 C   0  0  0  0  0  1  0  0  0  0  0  0
  181.4410  176.0210  136.1500 C   0  0  2  0  0  3  0  0  0  0  0  0
  179.3320  176.9040  137.4170 C   0  0  0  0  0  2  0  0  0  0  0  0
  180.5670  174.8720  138.2990 C   0  0  2  0  0  3  0  0  0  0  0  0
  183.9090  175.4580  136.5680 C   0  0  0  0  0  2  0  0  0  0  0  0
  183.1750  176.8040  138.9110 O   0  0  0  0  0  0  0  0  0  0  0  0
  180.0430  176.2790  138.6120 C   0  0  0  0  0  2  0  0  0  0  0  0
  181.0630  174.6960  136.8520 C   0  0  2  0  0  3  0  0  0  0  0  0
  179.6760  181.3200  137.1220 C   0  0  0  0  0  2  0  0  0  0  0  0
  183.4420  174.2510  137.3710 C   0  0  2  0  0  3  0  0  0  0  0  0
  179.2630  179.3090  135.6430 C   0  0  0  0  0  2  0  0  0  0  0  0
  182.3900  178.7180  137.8210 N   0  0  0  0  0  2  0  0  0  0  0  0
  181.1780  181.2320  137.3660 C   0  0  0  0  0  2  0  0  0  0  0  0
  180.5010  178.4180  135.6740 C   0  0  0  0  0  2  0  0  0  0  0  0
  183.3310  177.4970  135.4040 C   0  0  0  0  0  1  0  0  0  0  0  0
  182.8470  177.3600  137.8270 C   0  0  0  0  0  0  0  0  0  0  0  0
  182.8580  176.5820  136.5250 C   0  0  1  0  0  0  0  0  0  0  0  0
  184.5670  173.2540  137.5760 C   0  0  0  0  0  1  0  0  0  0  0  0
  182.0520  179.5400  138.9450 C   0  0  0  0  0  0  0  0  0  0  0  0
  181.4800  180.7250  138.7420 C   0  0  0  0  0  3  0  0  0  0  0  0
  182.1730  173.6360  136.7590 C   0  0  2  0  0  3  0  0  0  0  0  0
  181.0840  173.2530  134.6730 C   0  0  0  0  0  1  0  0  0  0  0  0
  182.7180  171.8960  135.3680 O   0  0  0  0  0  1  0  0  0  0  0  0
  182.3660  173.2030  135.3620 N   0  0  0  0  0  0  0  0  0  0  0  0
  179.5400  173.8040  138.6610 C   0  0  0  0  0  2  0  0  0  0  0  0
  179.8240  173.2450  139.9090 O   0  0  0  0  0  0  0  0  0  0  0  0
  179.0630  173.9470  140.7810 N   0  0  0  0  0  2  0  0  0  0  0  0
  179.2990  173.3770  142.0950 C   0  0  0  0  0  1  0  0  0  0  0  0
  1 16  1  1  0  0  0
  1  5  1  0  0  0  0
  2 11  1  0  0  0  0
  4  1  1  0  0  0  0
  4 19  1  0  0  0  0
  4 10  1  0  0  0  0
  5  9  1  0  0  0  0
  6  9  1  0  0  0  0
  6 27  1  0  0  0  0
  7 12  1  0  0  0  0
 10  6  1  0  0  0  0
 11 15  1  0  0  0  0
 12 20  1  0  0  0  0
 13 16  1  0  0  0  0
 13  2  1  0  0  0  0
 14 18  1  0  0  0  0
 14 21  1  0  0  0  0
 15 22  1  0  0  0  0
 17 19  1  0  0  0  0
 18  8  2  0  0  0  0
 19  7  1  0  0  0  0
 19 18  1  0  0  0  0
 21  3  1  0  0  0  0
 22 21  2  0  0  0  0
 23 10  1  0  0  0  0
 23 12  1  0  0  0  0
 24 26  1  0  0  0  0
 26 25  1  0  0  0  0
 26 23  1  0  0  0  0
 27 28  1  0  0  0  0
 28 29  1  0  0  0  0
 29 30  1  0  0  0  0
M  END
>  <MODEL>
7

>  <REMARK>
 VINA RESULT:      -4.0      2.564      5.075
  Name = 
  4 active torsions:
  status: ('A' for Active; 'I' for Inactive)
    1  A    between atoms: C_6  and  C_8
    2  A    between atoms: C_6  and  O_21
    3  A    between atoms: N_9  and  O_21
    4  A    between atoms: N_27  and  C_30
                            x       y       z     vdW  Elec       q    Type
                         _______ _______ _______ _____ _____    ______ ____

>  <TORSDO>
F 4

$$$$
=
 OpenBabel11052412383D

 30 32  0  0  1  0  0  0  0  0999 V2000
  181.6430  179.1070  137.4540 C   0  0  1  0  0  3  0  0  0  0  0  0
  179.4810  180.9040  139.1880 C   0  0  0  0  0  2  0  0  0  0  0  0
  178.9310  176.5150  140.9390 C   0  0  0  0  0  1  0  0  0  0  0  0
  182.6030  177.8800  137.4160 C   0  0  2  0  0  3  0  0  0  0  0  0
  180.1910  178.8110  137.0310 C   0  0  0  0  0  2  0  0  0  0  0  0
  180.7600  176.4540  136.2880 C   0  0  2  0  0  3  0  0  0  0  0  0
  183.8060  175.8930  138.5040 C   0  0  0  0  0  2  0  0  0  0  0  0
  181.1870  175.6290  139.4570 O   0  0  0  0  0  0  0  0  0  0  0  0
  179.8280  177.3340  137.1300 C   0  0  0  0  0  2  0  0  0  0  0  0
  182.2170  176.9500  136.2420 C   0  0  2  0  0  3  0  0  0  0  0  0
  179.3710  181.2000  140.6820 C   0  0  0  0  0  2  0  0  0  0  0  0
  183.2580  175.0170  137.3850 C   0  0  2  0  0  3  0  0  0  0  0  0
  180.8640  181.2400  138.6390 C   0  0  0  0  0  2  0  0  0  0  0  0
  181.0640  177.7880  140.3460 N   0  0  0  0  0  2  0  0  0  0  0  0
  180.0390  180.1360  141.5440 C   0  0  0  0  0  2  0  0  0  0  0  0
  181.7780  180.0200  138.6800 C   0  0  0  0  0  2  0  0  0  0  0  0
  183.8220  178.0450  139.6060 C   0  0  0  0  0  1  0  0  0  0  0  0
  181.6960  176.7790  139.5490 C   0  0  0  0  0  0  0  0  0  0  0  0
  182.9390  177.1390  138.7580 C   0  0  1  0  0  0  0  0  0  0  0  0
  184.0040  173.6980  137.2990 C   0  0  0  0  0  1  0  0  0  0  0  0
  179.7650  177.7490  140.9520 C   0  0  0  0  0  0  0  0  0  0  0  0
  179.2730  178.8490  141.5170 C   0  0  0  0  0  3  0  0  0  0  0  0
  183.2050  175.7860  136.0550 C   0  0  2  0  0  3  0  0  0  0  0  0
  184.3390  177.3010  134.6040 C   0  0  0  0  0  1  0  0  0  0  0  0
  185.1870  175.2750  135.0220 O   0  0  0  0  0  1  0  0  0  0  0  0
  184.5270  176.2860  135.6330 N   0  0  0  0  0  0  0  0  0  0  0  0
  180.2070  176.2460  134.8820 C   0  0  0  0  0  2  0  0  0  0  0  0
  179.3680  175.1300  134.8390 O   0  0  0  0  0  0  0  0  0  0  0  0
  180.0120  174.1890  135.5690 N   0  0  0  0  0  2  0  0  0  0  0  0
  180.6500  173.2910  134.6230 C   0  0  0  0  0  1  0  0  0  0  0  0
  1  5  1  1  0  0  0
  1 16  1  0  0  0  0
  2 11  1  0  0  0  0
  3 21  1  0  0  0  0
  4  1  1  0  0  0  0
  4 19  1  0  0  0  0
  5  9  1  0  0  0  0
  6  9  1  0  0  0  0
  7 19  1  0  0  0  0
  8 18  2  0  0  0  0
 10  6  1  0  0  0  0
 10  4  1  0  0  0  0
 11 15  1  0  0  0  0
 12  7  1  0  0  0  0
 13 16  1  0  0  0  0
 13  2  1  0  0  0  0
 14 21  1  0  0  0  0
 18 14  1  0  0  0  0
 19 18  1  0  0  0  0
 19 17  1  0  0  0  0
 20 12  1  0  0  0  0
 21 22  2  0  0  0  0
 22 15  1  0  0  0  0
 23 10  1  0  0  0  0
 23 12  1  0  0  0  0
 24 26  1  0  0  0  0
 25 26  1  0  0  0  0
 26 23  1  0  0  0  0
 27  6  1  0  0  0  0
 28 27  1  0  0  0  0
 28 29  1  0  0  0  0
 30 29  1  0  0  0  0
M  END
>  <MODEL>
8

>  <REMARK>
 VINA RESULT:      -3.8      2.267      4.749
  Name = 
  4 active torsions:
  status: ('A' for Active; 'I' for Inactive)
    1  A    between atoms: C_6  and  C_8
    2  A    between atoms: C_6  and  O_21
    3  A    between atoms: N_9  and  O_21
    4  A    between atoms: N_27  and  C_30
                            x       y       z     vdW  Elec       q    Type
                         _______ _______ _______ _____ _____    ______ ____

>  <TORSDO>
F 4

$$$$
=
 OpenBabel11052412383D

 30 32  0  0  1  0  0  0  0  0999 V2000
  184.4050  178.1510  137.5830 C   0  0  1  0  0  3  0  0  0  0  0  0
  187.4090  176.9630  138.2740 C   0  0  0  0  0  2  0  0  0  0  0  0
  184.7430  173.0480  137.8410 C   0  0  0  0  0  1  0  0  0  0  0  0
  183.0390  177.9380  136.8640 C   0  0  2  0  0  3  0  0  0  0  0  0
  184.4800  177.5950  139.0180 C   0  0  0  0  0  2  0  0  0  0  0  0
  182.0040  177.0460  139.0630 C   0  0  2  0  0  3  0  0  0  0  0  0
  181.4570  176.6420  135.3160 C   0  0  0  0  0  2  0  0  0  0  0  0
  182.5700  174.6180  136.8980 O   0  0  0  0  0  0  0  0  0  0  0  0
  183.4270  176.5290  139.3030 C   0  0  0  0  0  2  0  0  0  0  0  0
  181.8860  178.0370  137.8900 C   0  0  2  0  0  3  0  0  0  0  0  0
  188.3510  176.0570  137.4850 C   0  0  0  0  0  2  0  0  0  0  0  0
  180.4300  176.6590  136.4400 C   0  0  2  0  0  3  0  0  0  0  0  0
  186.9640  178.1730  137.4590 C   0  0  0  0  0  2  0  0  0  0  0  0
  184.7910  175.1640  136.4120 N   0  0  0  0  0  0  0  0  0  0  0  0
  187.6190  175.1830  136.4730 C   0  0  0  0  0  2  0  0  0  0  0  0
  185.6540  177.8890  136.7310 C   0  0  0  0  0  2  0  0  0  0  0  0
  183.7170  177.1040  134.5940 C   0  0  0  0  0  1  0  0  0  0  0  0
  183.3850  175.4390  136.3950 C   0  0  0  0  0  0  0  0  0  0  0  0
  182.9020  176.7620  135.8330 C   0  0  1  0  0  0  0  0  0  0  0  0
  179.0410  176.3270  135.9260 C   0  0  0  0  0  1  0  0  0  0  0  0
  185.4780  174.1210  137.1160 C   0  0  0  0  0  0  0  0  0  0  0  0
  186.8080  174.1220  137.1520 C   0  0  0  0  0  2  0  0  0  0  0  0
  180.4980  177.9740  137.2330 C   0  0  2  0  0  3  0  0  0  0  0  0
  180.8110  180.3320  137.0630 C   0  0  0  0  0  1  0  0  0  0  0  0
  178.9310  179.3780  136.3200 O   0  0  0  0  0  1  0  0  0  0  0  0
  180.2650  179.1610  136.3890 N   0  0  0  0  0  0  0  0  0  0  0  0
  181.4040  177.6310  140.3370 C   0  0  0  0  0  2  0  0  0  0  0  0
  181.6880  178.9960  140.4380 O   0  0  0  0  0  0  0  0  0  0  0  0
  180.5500  179.5480  140.9200 N   0  0  0  0  0  2  0  0  0  0  0  0
  180.5440  179.3110  142.3530 C   0  0  0  0  0  1  0  0  0  0  0  0
  1 16  1  6  0  0  0
  1  5  1  0  0  0  0
  4  1  1  0  0  0  0
  4 10  1  0  0  0  0
  5  9  1  0  0  0  0
  6  9  1  0  0  0  0
  6 27  1  0  0  0  0
  7 19  1  0  0  0  0
  7 12  1  0  0  0  0
 10  6  1  0  0  0  0
 11  2  1  0  0  0  0
 12 23  1  0  0  0  0
 13  2  1  0  0  0  0
 14 21  2  0  0  0  0
 15 22  1  0  0  0  0
 15 11  1  0  0  0  0
 16 13  1  0  0  0  0
 17 19  1  0  0  0  0
 18 14  1  0  0  0  0
 18  8  2  0  0  0  0
 19 18  1  0  0  0  0
 19  4  1  0  0  0  0
 20 12  1  0  0  0  0
 21 22  1  0  0  0  0
 21  3  1  0  0  0  0
 23 10  1  0  0  0  0
 25 26  1  0  0  0  0
 26 24  1  0  0  0  0
 26 23  1  0  0  0  0
 27 28  1  0  0  0  0
 28 29  1  0  0  0  0
 29 30  1  0  0  0  0
M  END
>  <MODEL>
9

>  <REMARK>
 VINA RESULT:      -3.7      2.071      6.324
  Name = 
  4 active torsions:
  status: ('A' for Active; 'I' for Inactive)
    1  A    between atoms: C_6  and  C_8
    2  A    between atoms: C_6  and  O_21
    3  A    between atoms: N_9  and  O_21
    4  A    between atoms: N_27  and  C_30
                            x       y       z     vdW  Elec       q    Type
                         _______ _______ _______ _____ _____    ______ ____

>  <TORSDO>
F 4

$$$$
