=
 OpenBabel11052412553D

 31 35  0  0  0  0  0  0  0  0999 V2000
  191.4980  177.3450  140.9790 C   0  0  0  0  0  0  0  0  0  0  0  0
  188.9890  177.4190  143.7980 C   0  0  0  0  0  0  0  0  0  0  0  0
  189.7140  177.1430  145.0100 C   0  0  0  0  0  0  0  0  0  0  0  0
  184.9630  178.5610  140.5860 O   0  0  0  0  0  0  0  0  0  0  0  0
  184.5210  178.4590  141.7610 C   0  0  0  0  0  0  0  0  0  0  0  0
  191.7870  175.9370  145.8300 C   0  0  0  0  0  2  0  0  0  0  0  0
  189.5850  177.4950  142.4980 C   0  0  0  0  0  0  0  0  0  0  0  0
  190.6810  177.6550  139.8950 C   0  0  0  0  0  3  0  0  0  0  0  0
  191.2260  177.0800  145.0020 C   0  0  0  0  0  2  0  0  0  0  0  0
  186.8280  177.9280  142.7360 C   0  0  0  0  0  0  0  0  0  0  0  0
  192.8200  177.1210  140.7900 F   0  0  0  0  0  0  0  0  0  0  0  0
  187.6270  177.2530  146.2710 C   0  0  0  0  0  3  0  0  0  0  0  0
  192.0800  176.4010  147.2560 C   0  0  0  0  0  2  0  0  0  0  0  0
  187.4420  178.0040  141.5300 N   0  0  0  0  0  0  0  0  0  0  0  0
  187.5810  177.6300  143.8850 C   0  0  0  0  0  0  0  0  0  0  0  0
  185.4130  178.1480  142.8420 N   0  0  0  0  0  2  0  0  0  0  0  0
  190.9530  177.2650  142.2620 C   0  0  0  0  0  3  0  0  0  0  0  0
  190.9680  177.2730  147.8360 C   0  0  0  0  0  2  0  0  0  0  0  0
  188.7700  177.7980  141.3770 C   0  0  0  0  0  0  0  0  0  0  0  0
  189.3190  177.8790  140.0950 C   0  0  0  0  0  3  0  0  0  0  0  0
  186.9290  177.5440  145.1140 C   0  0  0  0  0  3  0  0  0  0  0  0
  189.0030  177.0630  146.2460 C   0  0  0  0  0  0  0  0  0  0  0  0
  189.6050  176.6550  147.5680 C   0  0  0  0  0  2  0  0  0  0  0  0
  180.3650  179.0480  142.6730 C   0  0  0  0  0  0  0  0  0  0  0  0
  182.6790  178.9310  143.3600 C   0  0  0  0  0  3  0  0  0  0  0  0
  182.4240  178.3130  139.7110 O   0  0  0  0  0  1  0  0  0  0  0  0
  178.9320  179.2560  143.0060 C   0  0  0  0  0  1  0  0  0  0  0  0
  181.3330  179.1260  143.6740 C   0  0  0  0  0  3  0  0  0  0  0  0
  182.0910  178.5810  141.0330 C   0  0  0  0  0  0  0  0  0  0  0  0
  183.0790  178.6570  142.0410 C   0  0  0  0  0  0  0  0  0  0  0  0
  180.7440  178.7770  141.3560 C   0  0  0  0  0  3  0  0  0  0  0  0
  1 17  1  0  0  0  0
  2 15  2  0  0  0  0
  2  3  1  0  0  0  0
  3 22  2  0  0  0  0
  4  5  2  0  0  0  0
  5 30  1  0  0  0  0
  5 16  1  0  0  0  0
  6 13  1  0  0  0  0
  7  2  1  0  0  0  0
  8 20  1  0  0  0  0
  8  1  2  0  0  0  0
  9  3  1  0  0  0  0
  9  6  1  0  0  0  0
 10 16  1  0  0  0  0
 10 15  1  0  0  0  0
 11  1  1  0  0  0  0
 13 18  1  0  0  0  0
 14 10  2  0  0  0  0
 15 21  1  0  0  0  0
 17  7  2  0  0  0  0
 19 14  1  0  0  0  0
 19  7  1  0  0  0  0
 20 19  2  0  0  0  0
 21 12  2  0  0  0  0
 22 12  1  0  0  0  0
 22 23  1  0  0  0  0
 23 18  1  0  0  0  0
 24 27  1  0  0  0  0
 24 28  1  0  0  0  0
 25 28  2  0  0  0  0
 26 29  1  0  0  0  0
 29 31  1  0  0  0  0
 29 30  2  0  0  0  0
 30 25  1  0  0  0  0
 31 24  2  0  0  0  0
M  END
>  <MODEL>
1

>  <REMARK>
 VINA RESULT:     -11.9      0.000      0.000
  Name = 
  1 active torsions:
  status: ('A' for Active; 'I' for Inactive)
    1  A    between atoms: C_9  and  C_22
                            x       y       z     vdW  Elec       q    Type
                         _______ _______ _______ _____ _____    ______ ____

>  <TORSDO>
F 1

$$$$
=
 OpenBabel11052412553D

 31 35  0  0  0  0  0  0  0  0999 V2000
  190.9150  177.2310  142.1240 C   0  0  0  0  0  0  0  0  0  0  0  0
  187.5300  178.0650  143.5690 C   0  0  0  0  0  0  0  0  0  0  0  0
  187.6550  177.9830  145.0000 C   0  0  0  0  0  0  0  0  0  0  0  0
  185.3620  178.8470  138.8230 O   0  0  0  0  0  0  0  0  0  0  0  0
  184.4750  179.0180  139.7020 C   0  0  0  0  0  0  0  0  0  0  0  0
  189.0100  176.8090  146.7920 C   0  0  0  0  0  2  0  0  0  0  0  0
  188.6020  177.8320  142.6480 C   0  0  0  0  0  0  0  0  0  0  0  0
  190.6610  177.3790  140.7630 C   0  0  0  0  0  3  0  0  0  0  0  0
  189.0130  177.8020  145.6420 C   0  0  0  0  0  2  0  0  0  0  0  0
  186.0840  178.5160  141.6290 C   0  0  0  0  0  0  0  0  0  0  0  0
  192.1500  176.8710  142.5480 F   0  0  0  0  0  0  0  0  0  0  0  0
  185.2820  178.5060  145.2270 C   0  0  0  0  0  3  0  0  0  0  0  0
  188.7730  177.5270  148.1200 C   0  0  0  0  0  2  0  0  0  0  0  0
  187.1340  178.3000  140.8000 N   0  0  0  0  0  0  0  0  0  0  0  0
  186.2570  178.3980  143.0190 C   0  0  0  0  0  0  0  0  0  0  0  0
  184.7980  178.8620  141.0910 N   0  0  0  0  0  2  0  0  0  0  0  0
  189.8950  177.4530  143.0510 C   0  0  0  0  0  3  0  0  0  0  0  0
  187.6710  178.5820  148.0360 C   0  0  0  0  0  2  0  0  0  0  0  0
  188.3630  177.9650  141.2570 C   0  0  0  0  0  0  0  0  0  0  0  0
  189.3860  177.7440  140.3310 C   0  0  0  0  0  3  0  0  0  0  0  0
  185.1610  178.6120  143.8540 C   0  0  0  0  0  3  0  0  0  0  0  0
  186.5040  178.2090  145.8160 C   0  0  0  0  0  0  0  0  0  0  0  0
  186.4540  178.0300  147.3130 C   0  0  0  0  0  2  0  0  0  0  0  0
  180.5000  180.1590  138.5410 C   0  0  0  0  0  0  0  0  0  0  0  0
  182.8530  180.6580  138.7820 C   0  0  0  0  0  3  0  0  0  0  0  0
  182.1770  177.2090  139.9700 O   0  0  0  0  0  1  0  0  0  0  0  0
  179.1320  180.5700  138.1340 C   0  0  0  0  0  1  0  0  0  0  0  0
  181.5670  181.0460  138.3980 C   0  0  0  0  0  3  0  0  0  0  0  0
  182.0040  178.4870  139.4520 C   0  0  0  0  0  0  0  0  0  0  0  0
  183.0920  179.3790  139.3120 C   0  0  0  0  0  0  0  0  0  0  0  0
  180.7190  178.8830  139.0660 C   0  0  0  0  0  3  0  0  0  0  0  0
  1 11  1  0  0  0  0
  1 17  1  0  0  0  0
  2  3  1  0  0  0  0
  3  9  1  0  0  0  0
  3 22  2  0  0  0  0
  4  5  2  0  0  0  0
  5 16  1  0  0  0  0
  6 13  1  0  0  0  0
  7 17  2  0  0  0  0
  7  2  1  0  0  0  0
  8  1  2  0  0  0  0
  9  6  1  0  0  0  0
 10 15  1  0  0  0  0
 12 22  1  0  0  0  0
 14 19  1  0  0  0  0
 14 10  2  0  0  0  0
 15  2  2  0  0  0  0
 15 21  1  0  0  0  0
 16 10  1  0  0  0  0
 18 13  1  0  0  0  0
 19  7  1  0  0  0  0
 20  8  1  0  0  0  0
 20 19  2  0  0  0  0
 21 12  2  0  0  0  0
 22 23  1  0  0  0  0
 23 18  1  0  0  0  0
 24 31  1  0  0  0  0
 25 30  2  0  0  0  0
 27 24  1  0  0  0  0
 28 24  2  0  0  0  0
 28 25  1  0  0  0  0
 29 26  1  0  0  0  0
 30 29  1  0  0  0  0
 30  5  1  0  0  0  0
 31 29  2  0  0  0  0
M  END
>  <MODEL>
2

>  <REMARK>
 VINA RESULT:     -11.8      2.002      2.697
  Name = 
  1 active torsions:
  status: ('A' for Active; 'I' for Inactive)
    1  A    between atoms: C_9  and  C_22
                            x       y       z     vdW  Elec       q    Type
                         _______ _______ _______ _____ _____    ______ ____

>  <TORSDO>
F 1

$$$$
=
 OpenBabel11052412553D

 31 35  0  0  0  0  0  0  0  0999 V2000
  184.0480  178.9040  143.7660 C   0  0  0  0  0  0  0  0  0  0  0  0
  187.6340  177.7590  144.0360 C   0  0  0  0  0  0  0  0  0  0  0  0
  187.9340  177.6540  145.4410 C   0  0  0  0  0  0  0  0  0  0  0  0
  188.2750  177.5410  138.8050 O   0  0  0  0  0  0  0  0  0  0  0  0
  189.3620  177.2200  139.3550 C   0  0  0  0  0  0  0  0  0  0  0  0
  187.2450  178.6260  147.6770 C   0  0  0  0  0  2  0  0  0  0  0  0
  186.3620  178.1530  143.5090 C   0  0  0  0  0  0  0  0  0  0  0  0
  183.8870  178.9310  142.3830 C   0  0  0  0  0  3  0  0  0  0  0  0
  186.8360  177.7960  146.4720 C   0  0  0  0  0  2  0  0  0  0  0  0
  188.4200  177.5190  141.7170 C   0  0  0  0  0  0  0  0  0  0  0  0
  183.0190  179.2490  144.5760 F   0  0  0  0  0  0  0  0  0  0  0  0
  190.2250  177.0170  144.8910 C   0  0  0  0  0  3  0  0  0  0  0  0
  187.8010  177.7290  148.7820 C   0  0  0  0  0  2  0  0  0  0  0  0
  187.1950  177.8830  141.2670 N   0  0  0  0  0  0  0  0  0  0  0  0
  188.6660  177.4560  143.1000 C   0  0  0  0  0  0  0  0  0  0  0  0
  189.4660  177.2000  140.7860 N   0  0  0  0  0  2  0  0  0  0  0  0
  185.2730  178.5220  144.3180 C   0  0  0  0  0  3  0  0  0  0  0  0
  188.7500  176.6540  148.2530 C   0  0  0  0  0  2  0  0  0  0  0  0
  186.1790  178.1990  142.1030 C   0  0  0  0  0  0  0  0  0  0  0  0
  184.9510  178.5800  141.5540 C   0  0  0  0  0  3  0  0  0  0  0  0
  189.9370  177.0920  143.5410 C   0  0  0  0  0  3  0  0  0  0  0  0
  189.2510  177.2780  145.8470 C   0  0  0  0  0  0  0  0  0  0  0  0
  189.7450  177.2520  147.2720 C   0  0  0  0  0  2  0  0  0  0  0  0
  192.7210  176.1630  136.8950 C   0  0  0  0  0  0  0  0  0  0  0  0
  190.3390  176.4170  137.2170 C   0  0  0  0  0  3  0  0  0  0  0  0
  192.1310  177.3890  140.3160 O   0  0  0  0  0  1  0  0  0  0  0  0
  193.8710  175.7930  136.0300 C   0  0  0  0  0  1  0  0  0  0  0  0
  191.4190  176.0700  136.4030 C   0  0  0  0  0  3  0  0  0  0  0  0
  191.8660  176.9550  139.0230 C   0  0  0  0  0  0  0  0  0  0  0  0
  190.5430  176.8640  138.5340 C   0  0  0  0  0  0  0  0  0  0  0  0
  192.9420  176.6050  138.2010 C   0  0  0  0  0  3  0  0  0  0  0  0
  1 17  1  0  0  0  0
  1 11  1  0  0  0  0
  2  3  1  0  0  0  0
  3 22  2  0  0  0  0
  3  9  1  0  0  0  0
  4  5  2  0  0  0  0
  5 16  1  0  0  0  0
  6 13  1  0  0  0  0
  7  2  1  0  0  0  0
  7 17  2  0  0  0  0
  8  1  2  0  0  0  0
  9  6  1  0  0  0  0
 10 15  1  0  0  0  0
 12 22  1  0  0  0  0
 14 10  2  0  0  0  0
 14 19  1  0  0  0  0
 15 21  1  0  0  0  0
 15  2  2  0  0  0  0
 16 10  1  0  0  0  0
 18 13  1  0  0  0  0
 19  7  1  0  0  0  0
 20 19  2  0  0  0  0
 20  8  1  0  0  0  0
 21 12  2  0  0  0  0
 22 23  1  0  0  0  0
 23 18  1  0  0  0  0
 24 31  1  0  0  0  0
 25 30  2  0  0  0  0
 27 24  1  0  0  0  0
 28 24  2  0  0  0  0
 28 25  1  0  0  0  0
 29 26  1  0  0  0  0
 30 29  1  0  0  0  0
 30  5  1  0  0  0  0
 31 29  2  0  0  0  0
M  END
>  <MODEL>
3

>  <REMARK>
 VINA RESULT:     -11.7      3.095      7.344
  Name = 
  1 active torsions:
  status: ('A' for Active; 'I' for Inactive)
    1  A    between atoms: C_9  and  C_22
                            x       y       z     vdW  Elec       q    Type
                         _______ _______ _______ _____ _____    ______ ____

>  <TORSDO>
F 1

$$$$
=
 OpenBabel11052412553D

 31 35  0  0  0  0  0  0  0  0999 V2000
  183.9360  178.9630  143.9030 C   0  0  0  0  0  0  0  0  0  0  0  0
  187.5310  177.8290  144.0730 C   0  0  0  0  0  0  0  0  0  0  0  0
  187.8730  177.7330  145.4680 C   0  0  0  0  0  0  0  0  0  0  0  0
  188.0170  177.5810  138.8260 O   0  0  0  0  0  0  0  0  0  0  0  0
  189.1210  177.2670  139.3460 C   0  0  0  0  0  0  0  0  0  0  0  0
  187.2480  178.7170  147.7190 C   0  0  0  0  0  2  0  0  0  0  0  0
  186.2430  178.2170  143.5810 C   0  0  0  0  0  0  0  0  0  0  0  0
  183.7330  178.9810  142.5250 C   0  0  0  0  0  3  0  0  0  0  0  0
  186.8050  177.8790  146.5310 C   0  0  0  0  0  2  0  0  0  0  0  0
  188.2490  177.5770  141.7330 C   0  0  0  0  0  0  0  0  0  0  0  0
  182.9290  179.3100  144.7410 F   0  0  0  0  0  0  0  0  0  0  0  0
  190.1490  177.0990  144.8550 C   0  0  0  0  0  3  0  0  0  0  0  0
  187.8380  177.8280  148.8120 C   0  0  0  0  0  2  0  0  0  0  0  0
  187.0100  177.9350  141.3180 N   0  0  0  0  0  0  0  0  0  0  0  0
  188.5350  177.5230  143.1080 C   0  0  0  0  0  0  0  0  0  0  0  0
  189.2680  177.2560  140.7730 N   0  0  0  0  0  2  0  0  0  0  0  0
  185.1770  178.5880  144.4200 C   0  0  0  0  0  3  0  0  0  0  0  0
  188.7740  176.7530  148.2610 C   0  0  0  0  0  2  0  0  0  0  0  0
  186.0180  178.2530  142.1810 C   0  0  0  0  0  0  0  0  0  0  0  0
  184.7740  178.6280  141.6670 C   0  0  0  0  0  3  0  0  0  0  0  0
  189.8200  177.1650  143.5140 C   0  0  0  0  0  3  0  0  0  0  0  0
  189.2020  177.3630  145.8380 C   0  0  0  0  0  0  0  0  0  0  0  0
  189.7380  177.3480  147.2480 C   0  0  0  0  0  2  0  0  0  0  0  0
  192.5350  176.2280  136.9550 C   0  0  0  0  0  0  0  0  0  0  0  0
  191.5380  176.7530  139.0940 C   0  0  0  0  0  3  0  0  0  0  0  0
  188.9440  176.8560  136.4440 O   0  0  0  0  0  1  0  0  0  0  0  0
  193.7260  175.8680  136.1440 C   0  0  0  0  0  1  0  0  0  0  0  0
  192.6580  176.4140  138.3320 C   0  0  0  0  0  3  0  0  0  0  0  0
  190.1630  176.7160  137.0960 C   0  0  0  0  0  0  0  0  0  0  0  0
  190.2780  176.9080  138.4920 C   0  0  0  0  0  0  0  0  0  0  0  0
  191.2900  176.3780  136.3410 C   0  0  0  0  0  3  0  0  0  0  0  0
  1 17  1  0  0  0  0
  1 11  1  0  0  0  0
  2  3  1  0  0  0  0
  3 22  2  0  0  0  0
  3  9  1  0  0  0  0
  4  5  2  0  0  0  0
  5 16  1  0  0  0  0
  6 13  1  0  0  0  0
  7  2  1  0  0  0  0
  7 17  2  0  0  0  0
  8  1  2  0  0  0  0
  9  6  1  0  0  0  0
 10 15  1  0  0  0  0
 12 22  1  0  0  0  0
 14 10  2  0  0  0  0
 14 19  1  0  0  0  0
 15 21  1  0  0  0  0
 15  2  2  0  0  0  0
 16 10  1  0  0  0  0
 18 13  1  0  0  0  0
 19  7  1  0  0  0  0
 20 19  2  0  0  0  0
 20  8  1  0  0  0  0
 21 12  2  0  0  0  0
 22 23  1  0  0  0  0
 23 18  1  0  0  0  0
 24 28  1  0  0  0  0
 26 29  1  0  0  0  0
 27 24  1  0  0  0  0
 28 25  2  0  0  0  0
 29 30  2  0  0  0  0
 30 25  1  0  0  0  0
 30  5  1  0  0  0  0
 31 24  2  0  0  0  0
 31 29  1  0  0  0  0
M  END
>  <MODEL>
4

>  <REMARK>
 VINA RESULT:     -11.6      2.988      7.149
  Name = 
  1 active torsions:
  status: ('A' for Active; 'I' for Inactive)
    1  A    between atoms: C_9  and  C_22
                            x       y       z     vdW  Elec       q    Type
                         _______ _______ _______ _____ _____    ______ ____

>  <TORSDO>
F 1

$$$$
=
 OpenBabel11052412553D

 31 35  0  0  0  0  0  0  0  0999 V2000
  191.0700  177.3540  142.1300 C   0  0  0  0  0  0  0  0  0  0  0  0
  187.6870  178.0220  143.6650 C   0  0  0  0  0  0  0  0  0  0  0  0
  187.8560  177.9540  145.0930 C   0  0  0  0  0  0  0  0  0  0  0  0
  185.3520  178.6630  138.9780 O   0  0  0  0  0  0  0  0  0  0  0  0
  184.4820  178.7940  139.8800 C   0  0  0  0  0  0  0  0  0  0  0  0
  189.3190  176.8630  146.8510 C   0  0  0  0  0  2  0  0  0  0  0  0
  188.7450  177.8380  142.7160 C   0  0  0  0  0  0  0  0  0  0  0  0
  190.7710  177.4800  140.7750 C   0  0  0  0  0  3  0  0  0  0  0  0
  189.2400  177.8480  145.6970 C   0  0  0  0  0  2  0  0  0  0  0  0
  186.1670  178.3870  141.7640 C   0  0  0  0  0  0  0  0  0  0  0  0
  192.3330  177.0600  142.5210 F   0  0  0  0  0  0  0  0  0  0  0  0
  185.4670  178.3570  145.3830 C   0  0  0  0  0  3  0  0  0  0  0  0
  189.0830  177.5750  148.1810 C   0  0  0  0  0  2  0  0  0  0  0  0
  187.2040  178.2200  140.9070 N   0  0  0  0  0  0  0  0  0  0  0  0
  186.3840  178.2860  143.1490 C   0  0  0  0  0  0  0  0  0  0  0  0
  184.8510  178.6630  141.2610 N   0  0  0  0  0  2  0  0  0  0  0  0
  190.0660  177.5290  143.0840 C   0  0  0  0  0  3  0  0  0  0  0  0
  187.9260  178.5710  148.1240 C   0  0  0  0  0  2  0  0  0  0  0  0
  188.4600  177.9510  141.3310 C   0  0  0  0  0  0  0  0  0  0  0  0
  189.4680  177.7770  140.3780 C   0  0  0  0  0  3  0  0  0  0  0  0
  185.3020  178.4480  144.0130 C   0  0  0  0  0  3  0  0  0  0  0  0
  186.7190  178.1260  145.9390 C   0  0  0  0  0  0  0  0  0  0  0  0
  186.7190  177.9530  147.4380 C   0  0  0  0  0  2  0  0  0  0  0  0
  180.3680  179.5340  138.8920 C   0  0  0  0  0  0  0  0  0  0  0  0
  182.1010  178.0950  139.7670 C   0  0  0  0  0  3  0  0  0  0  0  0
  183.5780  181.3250  138.6980 O   0  0  0  0  0  1  0  0  0  0  0  0
  178.9400  179.7730  138.5570 C   0  0  0  0  0  1  0  0  0  0  0  0
  180.7590  178.3180  139.4530 C   0  0  0  0  0  3  0  0  0  0  0  0
  182.6650  180.3110  138.9590 C   0  0  0  0  0  0  0  0  0  0  0  0
  183.0720  179.0820  139.5270 C   0  0  0  0  0  0  0  0  0  0  0  0
  181.3190  180.5270  138.6470 C   0  0  0  0  0  3  0  0  0  0  0  0
  1 11  1  0  0  0  0
  1 17  1  0  0  0  0
  2  3  1  0  0  0  0
  3  9  1  0  0  0  0
  3 22  2  0  0  0  0
  4  5  2  0  0  0  0
  5 16  1  0  0  0  0
  6 13  1  0  0  0  0
  7 17  2  0  0  0  0
  7  2  1  0  0  0  0
  8  1  2  0  0  0  0
  9  6  1  0  0  0  0
 10 15  1  0  0  0  0
 12 22  1  0  0  0  0
 14 19  1  0  0  0  0
 14 10  2  0  0  0  0
 15  2  2  0  0  0  0
 15 21  1  0  0  0  0
 16 10  1  0  0  0  0
 18 13  1  0  0  0  0
 19  7  1  0  0  0  0
 20  8  1  0  0  0  0
 20 19  2  0  0  0  0
 21 12  2  0  0  0  0
 22 23  1  0  0  0  0
 23 18  1  0  0  0  0
 24 28  1  0  0  0  0
 26 29  1  0  0  0  0
 27 24  1  0  0  0  0
 28 25  2  0  0  0  0
 29 30  2  0  0  0  0
 30 25  1  0  0  0  0
 30  5  1  0  0  0  0
 31 24  2  0  0  0  0
 31 29  1  0  0  0  0
M  END
>  <MODEL>
5

>  <REMARK>
 VINA RESULT:     -11.6      1.964      2.508
  Name = 
  1 active torsions:
  status: ('A' for Active; 'I' for Inactive)
    1  A    between atoms: C_9  and  C_22
                            x       y       z     vdW  Elec       q    Type
                         _______ _______ _______ _____ _____    ______ ____

>  <TORSDO>
F 1

$$$$
=
 OpenBabel11052412553D

 31 35  0  0  0  0  0  0  0  0999 V2000
  186.1140  178.2080  146.7930 C   0  0  0  0  0  0  0  0  0  0  0  0
  187.0620  178.1130  143.1410 C   0  0  0  0  0  0  0  0  0  0  0  0
  188.4760  177.8500  143.0840 C   0  0  0  0  0  0  0  0  0  0  0  0
  182.1240  179.0260  141.5240 O   0  0  0  0  0  0  0  0  0  0  0  0
  182.8680  178.9390  140.5110 C   0  0  0  0  0  0  0  0  0  0  0  0
  190.5930  178.1670  144.4410 C   0  0  0  0  0  2  0  0  0  0  0  0
  186.3070  178.2130  144.3540 C   0  0  0  0  0  0  0  0  0  0  0  0
  184.7430  178.4340  146.7000 C   0  0  0  0  0  3  0  0  0  0  0  0
  189.2400  177.4840  144.3380 C   0  0  0  0  0  2  0  0  0  0  0  0
  184.9720  178.5270  141.9110 C   0  0  0  0  0  0  0  0  0  0  0  0
  186.7020  178.0920  148.0080 F   0  0  0  0  0  0  0  0  0  0  0  0
  188.3950  178.0070  140.6490 C   0  0  0  0  0  3  0  0  0  0  0  0
  191.6860  177.2860  143.8390 C   0  0  0  0  0  2  0  0  0  0  0  0
  184.2980  178.5980  143.0860 N   0  0  0  0  0  0  0  0  0  0  0  0
  186.3570  178.2920  141.9140 C   0  0  0  0  0  0  0  0  0  0  0  0
  184.2730  178.6950  140.6680 N   0  0  0  0  0  2  0  0  0  0  0  0
  186.8830  178.1020  145.6320 C   0  0  0  0  0  3  0  0  0  0  0  0
  191.2680  176.6420  142.5170 C   0  0  0  0  0  2  0  0  0  0  0  0
  184.9110  178.4540  144.2830 C   0  0  0  0  0  0  0  0  0  0  0  0
  184.1440  178.5580  145.4470 C   0  0  0  0  0  3  0  0  0  0  0  0
  187.0330  178.2360  140.6960 C   0  0  0  0  0  3  0  0  0  0  0  0
  189.1270  177.8020  141.8130 C   0  0  0  0  0  0  0  0  0  0  0  0
  190.6140  177.6660  141.6040 C   0  0  0  0  0  2  0  0  0  0  0  0
  181.2080  179.4740  136.5860 C   0  0  0  0  0  0  0  0  0  0  0  0
  181.7910  180.3400  138.7650 C   0  0  0  0  0  3  0  0  0  0  0  0
  182.7460  176.7630  138.5440 O   0  0  0  0  0  1  0  0  0  0  0  0
  180.6310  179.6770  135.2320 C   0  0  0  0  0  1  0  0  0  0  0  0
  181.2490  180.5330  137.4930 C   0  0  0  0  0  3  0  0  0  0  0  0
  182.2570  178.0230  138.2220 C   0  0  0  0  0  0  0  0  0  0  0  0
  182.3020  179.0890  139.1490 C   0  0  0  0  0  0  0  0  0  0  0  0
  181.7110  178.2240  136.9500 C   0  0  0  0  0  3  0  0  0  0  0  0
  1 11  1  0  0  0  0
  2  7  1  0  0  0  0
  3  2  1  0  0  0  0
  3  9  1  0  0  0  0
  5 16  1  0  0  0  0
  5  4  2  0  0  0  0
  7 17  1  0  0  0  0
  8  1  1  0  0  0  0
  9  6  1  0  0  0  0
 10 15  1  0  0  0  0
 10 14  2  0  0  0  0
 12 21  2  0  0  0  0
 12 22  1  0  0  0  0
 13  6  1  0  0  0  0
 14 19  1  0  0  0  0
 15  2  2  0  0  0  0
 16 10  1  0  0  0  0
 17  1  2  0  0  0  0
 18 13  1  0  0  0  0
 19  7  2  0  0  0  0
 19 20  1  0  0  0  0
 20  8  2  0  0  0  0
 21 15  1  0  0  0  0
 22  3  2  0  0  0  0
 23 22  1  0  0  0  0
 23 18  1  0  0  0  0
 24 31  2  0  0  0  0
 24 28  1  0  0  0  0
 25 30  1  0  0  0  0
 27 24  1  0  0  0  0
 28 25  2  0  0  0  0
 29 26  1  0  0  0  0
 29 30  2  0  0  0  0
 30  5  1  0  0  0  0
 31 29  1  0  0  0  0
M  END
>  <MODEL>
6

>  <REMARK>
 VINA RESULT:     -10.8      2.884      5.031
  Name = 
  1 active torsions:
  status: ('A' for Active; 'I' for Inactive)
    1  A    between atoms: C_9  and  C_22
                            x       y       z     vdW  Elec       q    Type
                         _______ _______ _______ _____ _____    ______ ____

>  <TORSDO>
F 1

$$$$
=
 OpenBabel11052412553D

 31 35  0  0  0  0  0  0  0  0999 V2000
  183.9990  179.0360  144.6960 C   0  0  0  0  0  0  0  0  0  0  0  0
  187.5050  177.8810  143.9110 C   0  0  0  0  0  0  0  0  0  0  0  0
  188.1730  177.6890  145.1720 C   0  0  0  0  0  0  0  0  0  0  0  0
  186.6970  177.9890  138.6990 O   0  0  0  0  0  0  0  0  0  0  0  0
  187.8880  177.6370  138.9120 C   0  0  0  0  0  0  0  0  0  0  0  0
  188.1330  178.5200  147.5660 C   0  0  0  0  0  2  0  0  0  0  0  0
  186.1440  178.3060  143.7740 C   0  0  0  0  0  0  0  0  0  0  0  0
  183.4680  179.1480  143.4130 C   0  0  0  0  0  3  0  0  0  0  0  0
  187.3990  177.7660  146.4700 C   0  0  0  0  0  2  0  0  0  0  0  0
  187.6280  177.7870  141.4560 C   0  0  0  0  0  0  0  0  0  0  0  0
  183.2330  179.3280  145.7750 F   0  0  0  0  0  0  0  0  0  0  0  0
  190.2190  177.0910  143.9830 C   0  0  0  0  0  3  0  0  0  0  0  0
  188.9540  177.5570  148.4210 C   0  0  0  0  0  2  0  0  0  0  0  0
  186.3320  178.1760  141.3780 N   0  0  0  0  0  0  0  0  0  0  0  0
  188.2390  177.6380  142.7130 C   0  0  0  0  0  0  0  0  0  0  0  0
  188.3770  177.5280  140.2570 N   0  0  0  0  0  2  0  0  0  0  0  0
  185.3200  178.6220  144.8690 C   0  0  0  0  0  3  0  0  0  0  0  0
  189.7070  176.5190  147.5910 C   0  0  0  0  0  2  0  0  0  0  0  0
  185.5860  178.4370  142.4760 C   0  0  0  0  0  0  0  0  0  0  0  0
  184.2620  178.8500  142.3060 C   0  0  0  0  0  3  0  0  0  0  0  0
  189.5760  177.2500  142.7690 C   0  0  0  0  0  3  0  0  0  0  0  0
  189.5450  177.2910  145.1810 C   0  0  0  0  0  0  0  0  0  0  0  0
  190.4070  177.1780  146.4140 C   0  0  0  0  0  2  0  0  0  0  0  0
  190.5820  176.7080  135.6990 C   0  0  0  0  0  0  0  0  0  0  0  0
  189.9780  176.6190  138.0370 C   0  0  0  0  0  3  0  0  0  0  0  0
  187.3650  178.4420  136.1380 O   0  0  0  0  0  1  0  0  0  0  0  0
  191.5250  176.3780  134.5990 C   0  0  0  0  0  1  0  0  0  0  0  0
  190.8650  176.3080  137.0050 C   0  0  0  0  0  3  0  0  0  0  0  0
  188.5170  177.7340  136.4540 C   0  0  0  0  0  0  0  0  0  0  0  0
  188.7960  177.3330  137.7810 C   0  0  0  0  0  0  0  0  0  0  0  0
  189.4110  177.4180  135.4260 C   0  0  0  0  0  3  0  0  0  0  0  0
  1 17  1  0  0  0  0
  1 11  1  0  0  0  0
  2  3  1  0  0  0  0
  3 22  2  0  0  0  0
  3  9  1  0  0  0  0
  4  5  2  0  0  0  0
  5 16  1  0  0  0  0
  6 13  1  0  0  0  0
  7  2  1  0  0  0  0
  7 17  2  0  0  0  0
  8  1  2  0  0  0  0
  9  6  1  0  0  0  0
 10 15  1  0  0  0  0
 12 22  1  0  0  0  0
 14 10  2  0  0  0  0
 14 19  1  0  0  0  0
 15 21  1  0  0  0  0
 15  2  2  0  0  0  0
 16 10  1  0  0  0  0
 18 13  1  0  0  0  0
 19  7  1  0  0  0  0
 20 19  2  0  0  0  0
 20  8  1  0  0  0  0
 21 12  2  0  0  0  0
 22 23  1  0  0  0  0
 23 18  1  0  0  0  0
 24 28  1  0  0  0  0
 26 29  1  0  0  0  0
 27 24  1  0  0  0  0
 28 25  2  0  0  0  0
 29 30  2  0  0  0  0
 30 25  1  0  0  0  0
 30  5  1  0  0  0  0
 31 24  2  0  0  0  0
 31 29  1  0  0  0  0
M  END
>  <MODEL>
7

>  <REMARK>
 VINA RESULT:     -10.7      3.076      6.688
  Name = 
  1 active torsions:
  status: ('A' for Active; 'I' for Inactive)
    1  A    between atoms: C_9  and  C_22
                            x       y       z     vdW  Elec       q    Type
                         _______ _______ _______ _____ _____    ______ ____

>  <TORSDO>
F 1

$$$$
=
 OpenBabel11052412553D

 31 35  0  0  0  0  0  0  0  0999 V2000
  188.9690  177.5820  147.5800 C   0  0  0  0  0  0  0  0  0  0  0  0
  187.5660  177.8820  144.0890 C   0  0  0  0  0  0  0  0  0  0  0  0
  186.1860  178.2700  144.2260 C   0  0  0  0  0  0  0  0  0  0  0  0
  192.1470  176.5950  141.8120 O   0  0  0  0  0  0  0  0  0  0  0  0
  191.2880  176.7810  140.9080 C   0  0  0  0  0  0  0  0  0  0  0  0
  184.2440  178.0940  145.8450 C   0  0  0  0  0  2  0  0  0  0  0  0
  188.4600  177.6760  145.1890 C   0  0  0  0  0  0  0  0  0  0  0  0
  190.2900  177.2410  147.3010 C   0  0  0  0  0  3  0  0  0  0  0  0
  185.6290  178.6590  145.5780 C   0  0  0  0  0  2  0  0  0  0  0  0
  189.4310  177.3280  142.5840 C   0  0  0  0  0  0  0  0  0  0  0  0
  188.5580  177.7090  148.8640 F   0  0  0  0  0  0  0  0  0  0  0  0
  185.9340  178.1870  141.8000 C   0  0  0  0  0  3  0  0  0  0  0  0
  183.1670  179.0870  145.4130 C   0  0  0  0  0  2  0  0  0  0  0  0
  190.2430  177.1600  143.6570 N   0  0  0  0  0  0  0  0  0  0  0  0
  188.0850  177.6830  142.7760 C   0  0  0  0  0  0  0  0  0  0  0  0
  189.9440  177.1420  141.2560 N   0  0  0  0  0  2  0  0  0  0  0  0
  188.0690  177.7940  146.5340 C   0  0  0  0  0  3  0  0  0  0  0  0
  183.4660  179.7350  144.0620 C   0  0  0  0  0  2  0  0  0  0  0  0
  189.8070  177.3170  144.9280 C   0  0  0  0  0  0  0  0  0  0  0  0
  190.7070  177.1070  145.9770 C   0  0  0  0  0  3  0  0  0  0  0  0
  187.2650  177.8390  141.6600 C   0  0  0  0  0  3  0  0  0  0  0  0
  185.3830  178.4170  143.0540 C   0  0  0  0  0  0  0  0  0  0  0  0
  183.8990  178.6890  143.0480 C   0  0  0  0  0  2  0  0  0  0  0  0
  192.2540  176.3160  136.7490 C   0  0  0  0  0  0  0  0  0  0  0  0
  190.6470  176.3150  138.5540 C   0  0  0  0  0  3  0  0  0  0  0  0
  194.0220  177.0890  139.8830 O   0  0  0  0  0  1  0  0  0  0  0  0
  192.5700  176.1520  135.3060 C   0  0  0  0  0  1  0  0  0  0  0  0
  190.9420  176.1620  137.1980 C   0  0  0  0  0  3  0  0  0  0  0  0
  192.9820  176.7820  139.0160 C   0  0  0  0  0  0  0  0  0  0  0  0
  191.6560  176.6270  139.4810 C   0  0  0  0  0  0  0  0  0  0  0  0
  193.2690  176.6260  137.6560 C   0  0  0  0  0  3  0  0  0  0  0  0
  1 11  1  0  0  0  0
  2  3  1  0  0  0  0
  2  7  1  0  0  0  0
  3  9  1  0  0  0  0
  5 16  1  0  0  0  0
  5  4  2  0  0  0  0
  7 17  1  0  0  0  0
  8  1  1  0  0  0  0
  9  6  1  0  0  0  0
 10 15  1  0  0  0  0
 10 14  2  0  0  0  0
 12 22  1  0  0  0  0
 13  6  1  0  0  0  0
 14 19  1  0  0  0  0
 15  2  2  0  0  0  0
 16 10  1  0  0  0  0
 17  1  2  0  0  0  0
 18 13  1  0  0  0  0
 19  7  2  0  0  0  0
 19 20  1  0  0  0  0
 20  8  2  0  0  0  0
 21 12  2  0  0  0  0
 21 15  1  0  0  0  0
 22  3  2  0  0  0  0
 23 22  1  0  0  0  0
 23 18  1  0  0  0  0
 24 28  2  0  0  0  0
 24 31  1  0  0  0  0
 25 30  2  0  0  0  0
 27 24  1  0  0  0  0
 28 25  1  0  0  0  0
 29 30  1  0  0  0  0
 29 26  1  0  0  0  0
 30  5  1  0  0  0  0
 31 29  2  0  0  0  0
M  END
>  <MODEL>
8

>  <REMARK>
 VINA RESULT:     -10.6      3.441      8.075
  Name = 
  1 active torsions:
  status: ('A' for Active; 'I' for Inactive)
    1  A    between atoms: C_9  and  C_22
                            x       y       z     vdW  Elec       q    Type
                         _______ _______ _______ _____ _____    ______ ____

>  <TORSDO>
F 1

$$$$
=
 OpenBabel11052412553D

 31 35  0  0  0  0  0  0  0  0999 V2000
  190.8040  177.0440  145.8380 C   0  0  0  0  0  0  0  0  0  0  0  0
  189.0270  177.5920  142.5540 C   0  0  0  0  0  0  0  0  0  0  0  0
  190.0210  177.4800  141.5180 C   0  0  0  0  0  0  0  0  0  0  0  0
  184.3280  178.2460  144.8610 O   0  0  0  0  0  0  0  0  0  0  0  0
  184.1860  178.3860  143.6160 C   0  0  0  0  0  0  0  0  0  0  0  0
  192.5050  177.7970  141.1330 C   0  0  0  0  0  2  0  0  0  0  0  0
  189.2960  177.4330  143.9520 C   0  0  0  0  0  0  0  0  0  0  0  0
  189.7400  177.1450  146.7300 C   0  0  0  0  0  3  0  0  0  0  0  0
  191.4200  177.0080  141.8450 C   0  0  0  0  0  2  0  0  0  0  0  0
  186.6700  177.9780  143.1430 C   0  0  0  0  0  0  0  0  0  0  0  0
  192.0560  176.8060  146.2990 F   0  0  0  0  0  0  0  0  0  0  0  0
  188.3180  177.9920  139.8460 C   0  0  0  0  0  3  0  0  0  0  0  0
  192.8750  177.1280  139.8110 C   0  0  0  0  0  2  0  0  0  0  0  0
  186.9710  177.8040  144.4530 N   0  0  0  0  0  0  0  0  0  0  0  0
  187.6840  177.8820  142.1740 C   0  0  0  0  0  0  0  0  0  0  0  0
  185.3190  178.2600  142.7440 N   0  0  0  0  0  2  0  0  0  0  0  0
  190.5810  177.1900  144.4680 C   0  0  0  0  0  3  0  0  0  0  0  0
  191.6550  176.6520  139.0250 C   0  0  0  0  0  2  0  0  0  0  0  0
  188.2280  177.5430  144.8800 C   0  0  0  0  0  0  0  0  0  0  0  0
  188.4550  177.3960  146.2510 C   0  0  0  0  0  3  0  0  0  0  0  0
  187.3540  178.0760  140.8340 C   0  0  0  0  0  3  0  0  0  0  0  0
  189.6370  177.6880  140.1580 C   0  0  0  0  0  0  0  0  0  0  0  0
  190.5860  177.7310  138.9860 C   0  0  0  0  0  2  0  0  0  0  0  0
  180.2860  179.2600  142.0450 C   0  0  0  0  0  0  0  0  0  0  0  0
  181.7990  179.0030  143.9120 C   0  0  0  0  0  3  0  0  0  0  0  0
  183.6030  178.3420  140.7390 O   0  0  0  0  0  1  0  0  0  0  0  0
  178.9310  179.5660  141.5190 C   0  0  0  0  0  1  0  0  0  0  0  0
  180.5250  179.2910  143.4190 C   0  0  0  0  0  3  0  0  0  0  0  0
  182.6020  178.6540  141.6500 C   0  0  0  0  0  0  0  0  0  0  0  0
  182.8530  178.6820  143.0410 C   0  0  0  0  0  0  0  0  0  0  0  0
  181.3220  178.9430  141.1640 C   0  0  0  0  0  3  0  0  0  0  0  0
  1 11  1  0  0  0  0
  1  8  1  0  0  0  0
  2  7  1  0  0  0  0
  3  9  1  0  0  0  0
  3  2  2  0  0  0  0
  5  4  2  0  0  0  0
  6  9  1  0  0  0  0
  7 17  1  0  0  0  0
  7 19  2  0  0  0  0
 10 14  2  0  0  0  0
 12 22  2  0  0  0  0
 12 21  1  0  0  0  0
 13  6  1  0  0  0  0
 14 19  1  0  0  0  0
 15  2  1  0  0  0  0
 15 10  1  0  0  0  0
 16 10  1  0  0  0  0
 16  5  1  0  0  0  0
 17  1  2  0  0  0  0
 18 13  1  0  0  0  0
 19 20  1  0  0  0  0
 20  8  2  0  0  0  0
 21 15  2  0  0  0  0
 22  3  1  0  0  0  0
 23 18  1  0  0  0  0
 23 22  1  0  0  0  0
 24 28  1  0  0  0  0
 26 29  1  0  0  0  0
 27 24  1  0  0  0  0
 28 25  2  0  0  0  0
 29 30  2  0  0  0  0
 30  5  1  0  0  0  0
 30 25  1  0  0  0  0
 31 29  1  0  0  0  0
 31 24  2  0  0  0  0
M  END
>  <MODEL>
9

>  <REMARK>
 VINA RESULT:     -10.2      1.640      4.269
  Name = 
  1 active torsions:
  status: ('A' for Active; 'I' for Inactive)
    1  A    between atoms: C_9  and  C_22
                            x       y       z     vdW  Elec       q    Type
                         _______ _______ _______ _____ _____    ______ ____

>  <TORSDO>
F 1

$$$$
