=
 OpenBabel11052414333D

 32 36  0  0  1  0  0  0  0  0999 V2000
  188.6740  178.9990  139.6900 C   0  0  0  0  0  2  0  0  0  0  0  0
  189.8380  176.7300  140.9070 C   0  0  0  0  0  2  0  0  0  0  0  0
  188.2420  178.5980  141.1050 C   0  0  2  0  0  3  0  0  0  0  0  0
  188.2810  176.8950  142.8810 C   0  0  0  0  0  2  0  0  0  0  0  0
  189.9380  176.8190  139.4390 N   0  0  1  0  0  0  0  0  0  0  0  0
  186.9790  177.4710  143.3890 C   0  0  0  0  0  0  0  0  0  0  0  0
  188.4530  177.1230  141.3880 C   0  0  2  0  0  3  0  0  0  0  0  0
  186.7830  178.9350  141.3690 C   0  0  0  0  0  2  0  0  0  0  0  0
  189.0310  177.7990  138.7850 C   0  0  1  0  0  3  0  0  0  0  0  0
  186.5040  176.9750  144.5960 O   0  0  0  0  0  1  0  0  0  0  0  0
  186.3230  178.4620  142.7300 C   0  0  0  0  0  0  0  0  0  0  0  0
  187.0910  176.0610  135.9310 C   0  0  1  0  0  0  0  0  0  0  0  0
  185.4500  177.7630  138.2160 O   0  0  0  0  0  1  0  0  0  0  0  0
  186.3150  174.9060  135.8120 O   0  0  0  0  0  1  0  0  0  0  0  0
  187.4290  176.7150  134.5960 C   0  0  1  0  0  3  0  0  0  0  0  0
  186.7290  178.1800  137.8400 C   0  0  2  0  0  3  0  0  0  0  0  0
  186.3430  177.3200  135.5100 C   0  0  2  0  0  3  0  0  0  0  0  0
  186.7680  178.5270  136.3530 C   0  0  0  0  0  2  0  0  0  0  0  0
  188.1240  176.1380  137.0800 C   0  0  2  0  0  3  0  0  0  0  0  0
  188.4450  174.7570  137.6310 C   0  0  0  0  0  1  0  0  0  0  0  0
  187.7690  177.1140  138.2250 C   0  0  1  0  0  3  0  0  0  0  0  0
  189.9080  176.5100  134.5940 C   0  0  0  0  0  1  0  0  0  0  0  0
  188.7500  177.4860  134.5940 C   0  0  0  0  0  2  0  0  0  0  0  0
  193.7040  177.1420  139.9930 C   0  0  0  0  0  2  0  0  0  0  0  0
  193.4420  175.9920  138.0880 C   0  0  0  0  0  2  0  0  0  0  0  0
  191.9080  175.9630  138.1260 C   0  0  0  0  0  2  0  0  0  0  0  0
  191.3390  177.0450  139.0650 C   0  0  0  0  0  3  0  0  0  0  0  0
  193.9440  177.1970  138.6080 O   0  0  0  0  0  0  0  0  0  0  0  0
  192.2090  177.2950  140.3050 C   0  0  0  0  0  2  0  0  0  0  0  0
  185.1090  179.0520  143.2220 N   0  0  0  0  0  2  0  0  0  0  0  0
  183.7570  178.7220  142.7980 C   0  0  0  0  0  2  0  0  0  0  0  0
  182.6130  178.9720  144.1810 S   0  0  0  0  0  1  0  0  0  0  0  0
  3  1  1  6  0  0  0
  3  8  1  0  0  0  0
  3  7  1  0  0  0  0
  4  6  1  0  0  0  0
  5 27  1  1  0  0  0
  5  2  1  0  0  0  0
  6 10  1  0  0  0  0
  7  2  1  1  0  0  0
  7  4  1  0  0  0  0
  8 11  1  0  0  0  0
  9  5  1  0  0  0  0
  9  1  1  1  0  0  0
 11 30  1  0  0  0  0
 11  6  2  0  0  0  0
 12 14  1  6  0  0  0
 12 19  1  0  0  0  0
 15 23  1  1  0  0  0
 15 17  1  0  0  0  0
 15 12  1  0  0  0  0
 16 13  1  6  0  0  0
 16 21  1  0  0  0  0
 17 12  1  0  0  0  0
 17 18  1  1  0  0  0
 18 16  1  0  0  0  0
 19 20  1  1  0  0  0
 19 21  1  0  0  0  0
 21  9  1  6  0  0  0
 22 23  1  0  0  0  0
 24 29  1  0  0  0  0
 25 26  1  0  0  0  0
 25 28  1  0  0  0  0
 26 27  1  0  0  0  0
 27 29  1  0  0  0  0
 28 24  1  0  0  0  0
 31 30  1  0  0  0  0
 31 32  1  0  0  0  0
M  END
>  <MODEL>
1

>  <REMARK>
 VINA RESULT:      -5.8      0.000      0.000
  Name = 
  5 active torsions:
  status: ('A' for Active; 'I' for Inactive)
    1  A    between atoms: N_10  and  C_28
    2  A    between atoms: N_14  and  C_21
    3  A    between atoms: N_14  and  C_29
    4  A    between atoms: C_15  and  C_26
    5  A    between atoms: C_24  and  C_27
                            x       y       z     vdW  Elec       q    Type
                         _______ _______ _______ _____ _____    ______ ____

>  <TORSDO>
F 5

$$$$
=
 OpenBabel11052414333D

 32 36  0  0  1  0  0  0  0  0999 V2000
  190.2880  174.6950  138.0080 C   0  0  0  0  0  2  0  0  0  0  0  0
  191.4700  177.0980  138.9100 C   0  0  0  0  0  2  0  0  0  0  0  0
  191.7420  175.0050  137.6370 C   0  0  2  0  0  3  0  0  0  0  0  0
  193.5540  176.6690  137.5620 C   0  0  0  0  0  2  0  0  0  0  0  0
  189.9960  177.0460  138.9030 N   0  0  1  0  0  0  0  0  0  0  0  0
  194.1470  175.8940  136.4080 C   0  0  0  0  0  0  0  0  0  0  0  0
  192.0470  176.4910  137.6440 C   0  0  2  0  0  3  0  0  0  0  0  0
  192.1110  174.4450  136.2720 C   0  0  0  0  0  2  0  0  0  0  0  0
  189.3900  175.9480  138.1040 C   0  0  1  0  0  3  0  0  0  0  0  0
  195.4000  176.2940  135.9630 O   0  0  0  0  0  1  0  0  0  0  0  0
  193.5150  174.8230  135.8580 C   0  0  0  0  0  0  0  0  0  0  0  0
  186.9040  177.7710  135.7750 C   0  0  1  0  0  0  0  0  0  0  0  0
  188.7410  175.3140  134.5940 O   0  0  0  0  0  1  0  0  0  0  0  0
  187.0050  178.7270  134.7610 O   0  0  0  0  0  1  0  0  0  0  0  0
  185.4720  177.5000  136.2240 C   0  0  1  0  0  3  0  0  0  0  0  0
  188.3230  175.2750  135.9250 C   0  0  2  0  0  3  0  0  0  0  0  0
  186.2110  176.4950  135.3150 C   0  0  2  0  0  3  0  0  0  0  0  0
  186.7980  175.2620  136.0120 C   0  0  0  0  0  2  0  0  0  0  0  0
  188.0400  177.6870  136.8210 C   0  0  2  0  0  3  0  0  0  0  0  0
  188.8740  178.9590  136.8400 C   0  0  0  0  0  1  0  0  0  0  0  0
  188.9480  176.4400  136.7120 C   0  0  1  0  0  3  0  0  0  0  0  0
  184.9590  178.2410  138.5420 C   0  0  0  0  0  1  0  0  0  0  0  0
  185.3470  177.0560  137.6820 C   0  0  0  0  0  2  0  0  0  0  0  0
  190.1900  177.5220  142.6890 C   0  0  0  0  0  2  0  0  0  0  0  0
  188.2010  178.3340  142.0510 C   0  0  0  0  0  2  0  0  0  0  0  0
  188.3940  178.0750  140.5500 C   0  0  0  0  0  2  0  0  0  0  0  0
  189.5080  177.0420  140.2860 C   0  0  0  0  0  3  0  0  0  0  0  0
  188.8040  177.3270  142.8240 O   0  0  0  0  0  0  0  0  0  0  0  0
  190.6710  177.1320  141.2840 C   0  0  0  0  0  2  0  0  0  0  0  0
  194.0850  174.0480  134.7910 N   0  0  0  0  0  2  0  0  0  0  0  0
  194.4980  172.6550  134.8630 C   0  0  0  0  0  2  0  0  0  0  0  0
  195.3260  172.3530  136.4470 S   0  0  0  0  0  1  0  0  0  0  0  0
  3  8  1  6  0  0  0
  3  7  1  0  0  0  0
  3  1  1  0  0  0  0
  5  2  1  0  0  0  0
  5 27  1  1  0  0  0
  6  4  1  0  0  0  0
  7  4  1  1  0  0  0
  7  2  1  0  0  0  0
  9  1  1  6  0  0  0
  9  5  1  0  0  0  0
 10  6  1  0  0  0  0
 11  8  1  0  0  0  0
 11  6  2  0  0  0  0
 12 14  1  6  0  0  0
 12 15  1  0  0  0  0
 12 19  1  0  0  0  0
 15 23  1  1  0  0  0
 16 13  1  6  0  0  0
 16 18  1  0  0  0  0
 16 21  1  0  0  0  0
 17 12  1  0  0  0  0
 17 18  1  1  0  0  0
 17 15  1  0  0  0  0
 19 20  1  6  0  0  0
 21 19  1  0  0  0  0
 21  9  1  1  0  0  0
 23 22  1  0  0  0  0
 24 28  1  0  0  0  0
 25 28  1  0  0  0  0
 26 25  1  0  0  0  0
 27 26  1  0  0  0  0
 27 29  1  0  0  0  0
 29 24  1  0  0  0  0
 30 31  1  0  0  0  0
 30 11  1  0  0  0  0
 31 32  1  0  0  0  0
M  END
>  <MODEL>
2

>  <REMARK>
 VINA RESULT:      -5.6      3.657      7.008
  Name = 
  5 active torsions:
  status: ('A' for Active; 'I' for Inactive)
    1  A    between atoms: N_10  and  C_28
    2  A    between atoms: N_14  and  C_21
    3  A    between atoms: N_14  and  C_29
    4  A    between atoms: C_15  and  C_26
    5  A    between atoms: C_24  and  C_27
                            x       y       z     vdW  Elec       q    Type
                         _______ _______ _______ _____ _____    ______ ____

>  <TORSDO>
F 5

$$$$
=
 OpenBabel11052414333D

 32 36  0  0  1  0  0  0  0  0999 V2000
  181.2560  178.9630  140.8490 C   0  0  0  0  0  2  0  0  0  0  0  0
  183.0090  179.5840  138.7210 C   0  0  0  0  0  2  0  0  0  0  0  0
  182.7510  179.1480  141.1330 C   0  0  2  0  0  3  0  0  0  0  0  0
  185.0240  179.3730  140.2170 C   0  0  0  0  0  2  0  0  0  0  0  0
  181.7080  178.9910  138.3570 N   0  0  1  0  0  0  0  0  0  0  0  0
  185.5470  178.8160  141.5210 C   0  0  0  0  0  0  0  0  0  0  0  0
  183.6180  178.8790  139.9180 C   0  0  2  0  0  3  0  0  0  0  0  0
  183.2260  178.2580  142.2710 C   0  0  0  0  0  2  0  0  0  0  0  0
  180.9580  178.3440  139.4660 C   0  0  1  0  0  3  0  0  0  0  0  0
  186.9250  178.8310  141.7000 O   0  0  0  0  0  1  0  0  0  0  0  0
  184.7170  178.3670  142.4990 C   0  0  0  0  0  0  0  0  0  0  0  0
  180.8850  174.8990  137.7160 C   0  0  1  0  0  0  0  0  0  0  0  0
  180.3970  175.0890  140.9610 O   0  0  0  0  0  1  0  0  0  0  0  0
  181.7580  173.8140  137.6130 O   0  0  0  0  0  1  0  0  0  0  0  0
  179.6900  174.8180  136.7730 C   0  0  1  0  0  3  0  0  0  0  0  0
  179.9620  176.1330  140.1430 C   0  0  2  0  0  3  0  0  0  0  0  0
  179.5230  174.5090  138.2750 C   0  0  2  0  0  3  0  0  0  0  0  0
  178.9310  175.6340  139.1320 C   0  0  0  0  0  2  0  0  0  0  0  0
  181.4750  176.2890  138.0500 C   0  0  2  0  0  3  0  0  0  0  0  0
  182.9700  176.3390  137.7740 C   0  0  0  0  0  1  0  0  0  0  0  0
  181.1640  176.8160  139.4700 C   0  0  1  0  0  3  0  0  0  0  0  0
  179.4790  176.4310  134.8910 C   0  0  0  0  0  1  0  0  0  0  0  0
  179.1360  176.1780  136.3450 C   0  0  0  0  0  2  0  0  0  0  0  0
  180.7870  182.4710  137.0770 C   0  0  0  0  0  2  0  0  0  0  0  0
  180.3060  181.0410  135.4210 C   0  0  0  0  0  2  0  0  0  0  0  0
  180.7950  179.7810  136.1480 C   0  0  0  0  0  2  0  0  0  0  0  0
  180.8950  180.0010  137.6700 C   0  0  0  0  0  3  0  0  0  0  0  0
  179.7240  181.9540  136.3170 O   0  0  0  0  0  0  0  0  0  0  0  0
  181.3340  181.4210  138.0540 C   0  0  0  0  0  2  0  0  0  0  0  0
  185.1960  177.8780  143.7620 N   0  0  0  0  0  2  0  0  0  0  0  0
  185.1910  178.6010  145.0240 C   0  0  0  0  0  2  0  0  0  0  0  0
  186.4440  177.8960  146.1280 S   0  0  0  0  0  1  0  0  0  0  0  0
  3  1  1  6  0  0  0
  3  8  1  0  0  0  0
  4  6  1  0  0  0  0
  5 27  1  1  0  0  0
  5  2  1  0  0  0  0
  5  9  1  0  0  0  0
  6 10  1  0  0  0  0
  6 11  2  0  0  0  0
  7  2  1  6  0  0  0
  7  4  1  0  0  0  0
  7  3  1  0  0  0  0
  8 11  1  0  0  0  0
  9  1  1  1  0  0  0
 11 30  1  0  0  0  0
 12 14  1  6  0  0  0
 12 19  1  0  0  0  0
 12 17  1  0  0  0  0
 15 23  1  1  0  0  0
 15 12  1  0  0  0  0
 15 17  1  0  0  0  0
 16 13  1  6  0  0  0
 17 18  1  1  0  0  0
 18 16  1  0  0  0  0
 19 20  1  1  0  0  0
 19 21  1  0  0  0  0
 21  9  1  6  0  0  0
 21 16  1  0  0  0  0
 22 23  1  0  0  0  0
 24 29  1  0  0  0  0
 25 26  1  0  0  0  0
 25 28  1  0  0  0  0
 26 27  1  0  0  0  0
 27 29  1  0  0  0  0
 28 24  1  0  0  0  0
 30 31  1  0  0  0  0
 31 32  1  0  0  0  0
M  END
>  <MODEL>
3

>  <REMARK>
 VINA RESULT:      -4.8      5.202      8.186
  Name = 
  5 active torsions:
  status: ('A' for Active; 'I' for Inactive)
    1  A    between atoms: N_10  and  C_28
    2  A    between atoms: N_14  and  C_21
    3  A    between atoms: N_14  and  C_29
    4  A    between atoms: C_15  and  C_26
    5  A    between atoms: C_24  and  C_27
                            x       y       z     vdW  Elec       q    Type
                         _______ _______ _______ _____ _____    ______ ____

>  <TORSDO>
F 5

$$$$
=
 OpenBabel11052414333D

 32 36  0  0  1  0  0  0  0  0999 V2000
  183.2990  177.1640  138.8540 C   0  0  0  0  0  2  0  0  0  0  0  0
  181.8760  176.4540  136.5180 C   0  0  0  0  0  2  0  0  0  0  0  0
  182.1990  178.0930  138.3300 C   0  0  2  0  0  3  0  0  0  0  0  0
  180.6680  178.6640  136.4890 C   0  0  0  0  0  2  0  0  0  0  0  0
  183.1770  175.7920  136.7280 N   0  0  1  0  0  0  0  0  0  0  0  0
  180.6770  180.0880  136.9940 C   0  0  0  0  0  0  0  0  0  0  0  0
  181.9540  177.9340  136.8410 C   0  0  2  0  0  3  0  0  0  0  0  0
  182.5090  179.5550  138.6130 C   0  0  0  0  0  2  0  0  0  0  0  0
  184.0680  176.4210  137.7390 C   0  0  1  0  0  3  0  0  0  0  0  0
  179.7900  180.9720  136.3920 O   0  0  0  0  0  1  0  0  0  0  0  0
  181.4740  180.4850  138.0220 C   0  0  0  0  0  0  0  0  0  0  0  0
  187.2970  176.9290  135.6780 C   0  0  1  0  0  0  0  0  0  0  0  0
  186.4190  179.1760  137.9120 O   0  0  0  0  0  1  0  0  0  0  0  0
  187.6730  177.7250  134.5940 O   0  0  0  0  0  1  0  0  0  0  0  0
  188.3210  175.8600  136.0400 C   0  0  1  0  0  3  0  0  0  0  0  0
  186.1140  177.8320  138.1380 C   0  0  2  0  0  3  0  0  0  0  0  0
  188.1860  177.1360  136.8970 C   0  0  2  0  0  3  0  0  0  0  0  0
  187.3890  176.9920  138.1980 C   0  0  0  0  0  2  0  0  0  0  0  0
  185.7950  176.6170  135.8760 C   0  0  2  0  0  3  0  0  0  0  0  0
  185.0040  176.8590  134.5990 C   0  0  0  0  0  1  0  0  0  0  0  0
  185.1240  177.3260  137.0750 C   0  0  1  0  0  3  0  0  0  0  0  0
  187.7750  173.4580  135.6930 C   0  0  0  0  0  1  0  0  0  0  0  0
  187.7190  174.6070  136.6790 C   0  0  0  0  0  2  0  0  0  0  0  0
  182.1630  172.1850  135.9810 C   0  0  0  0  0  2  0  0  0  0  0  0
  184.0400  172.0740  137.1990 C   0  0  0  0  0  2  0  0  0  0  0  0
  184.2490  173.5910  137.3140 C   0  0  0  0  0  2  0  0  0  0  0  0
  182.9530  174.3700  137.0130 C   0  0  0  0  0  3  0  0  0  0  0  0
  182.6750  171.7440  137.2130 O   0  0  0  0  0  0  0  0  0  0  0  0
  182.0860  173.7170  135.9270 C   0  0  0  0  0  2  0  0  0  0  0  0
  181.4610  181.8240  138.5430 N   0  0  0  0  0  2  0  0  0  0  0  0
  182.2970  182.9290  138.1010 C   0  0  0  0  0  2  0  0  0  0  0  0
  181.2720  184.1560  137.2480 S   0  0  0  0  0  1  0  0  0  0  0  0
  2  5  1  0  0  0  0
  2  7  1  0  0  0  0
  3  8  1  6  0  0  0
  3  1  1  0  0  0  0
  4  6  1  0  0  0  0
  5 27  1  1  0  0  0
  5  9  1  0  0  0  0
  6 11  2  0  0  0  0
  7  4  1  1  0  0  0
  7  3  1  0  0  0  0
  9  1  1  1  0  0  0
 10  6  1  0  0  0  0
 11 30  1  0  0  0  0
 11  8  1  0  0  0  0
 12 14  1  6  0  0  0
 12 19  1  0  0  0  0
 12 15  1  0  0  0  0
 12 17  1  0  0  0  0
 15 23  1  1  0  0  0
 15 17  1  0  0  0  0
 16 13  1  6  0  0  0
 16 18  1  0  0  0  0
 17 18  1  1  0  0  0
 19 20  1  6  0  0  0
 19 21  1  0  0  0  0
 21  9  1  1  0  0  0
 21 16  1  0  0  0  0
 22 23  1  0  0  0  0
 24 28  1  0  0  0  0
 25 28  1  0  0  0  0
 25 26  1  0  0  0  0
 27 26  1  0  0  0  0
 29 24  1  0  0  0  0
 29 27  1  0  0  0  0
 31 30  1  0  0  0  0
 32 31  1  0  0  0  0
M  END
>  <MODEL>
4

>  <REMARK>
 VINA RESULT:      -4.8      4.566      7.245
  Name = 
  5 active torsions:
  status: ('A' for Active; 'I' for Inactive)
    1  A    between atoms: N_10  and  C_28
    2  A    between atoms: N_14  and  C_21
    3  A    between atoms: N_14  and  C_29
    4  A    between atoms: C_15  and  C_26
    5  A    between atoms: C_24  and  C_27
                            x       y       z     vdW  Elec       q    Type
                         _______ _______ _______ _____ _____    ______ ____

>  <TORSDO>
F 5

$$$$
=
 OpenBabel11052414333D

 32 36  0  0  1  0  0  0  0  0999 V2000
  184.2120  176.0620  137.7790 C   0  0  0  0  0  2  0  0  0  0  0  0
  184.4180  176.0040  134.9610 C   0  0  0  0  0  2  0  0  0  0  0  0
  183.1010  176.6880  136.9290 C   0  0  2  0  0  3  0  0  0  0  0  0
  182.3670  177.4440  134.7040 C   0  0  0  0  0  2  0  0  0  0  0  0
  185.6660  175.8060  135.7210 N   0  0  1  0  0  0  0  0  0  0  0  0
  181.4370  178.4120  135.3980 C   0  0  0  0  0  0  0  0  0  0  0  0
  183.5830  177.1220  135.5580 C   0  0  2  0  0  3  0  0  0  0  0  0
  182.4680  177.8870  137.6170 C   0  0  0  0  0  2  0  0  0  0  0  0
  185.6200  176.1920  137.1560 C   0  0  1  0  0  3  0  0  0  0  0  0
  180.5440  179.1070  134.5940 O   0  0  0  0  0  1  0  0  0  0  0  0
  181.4330  178.5660  136.7490 C   0  0  0  0  0  0  0  0  0  0  0  0
  188.6140  178.5580  137.7600 C   0  0  1  0  0  0  0  0  0  0  0  0
  185.6440  179.3620  138.9170 O   0  0  0  0  0  1  0  0  0  0  0  0
  189.0550  179.7680  137.2180 O   0  0  0  0  0  1  0  0  0  0  0  0
  189.6310  177.8900  138.6790 C   0  0  1  0  0  3  0  0  0  0  0  0
  186.0090  178.0160  138.8480 C   0  0  2  0  0  3  0  0  0  0  0  0
  188.4100  178.6280  139.2680 C   0  0  2  0  0  3  0  0  0  0  0  0
  187.2390  177.7450  139.7120 C   0  0  0  0  0  2  0  0  0  0  0  0
  187.6840  177.6650  136.9070 C   0  0  2  0  0  3  0  0  0  0  0  0
  187.7550  178.0370  135.4330 C   0  0  0  0  0  1  0  0  0  0  0  0
  186.2140  177.5960  137.3820 C   0  0  1  0  0  3  0  0  0  0  0  0
  190.6950  175.7530  137.9820 C   0  0  0  0  0  1  0  0  0  0  0  0
  189.5250  176.3650  138.7250 C   0  0  0  0  0  2  0  0  0  0  0  0
  187.2910  172.4980  136.7300 C   0  0  0  0  0  2  0  0  0  0  0  0
  185.4320  171.9690  135.5960 C   0  0  0  0  0  2  0  0  0  0  0  0
  184.9680  173.4130  135.3620 C   0  0  0  0  0  2  0  0  0  0  0  0
  186.1200  174.4210  135.5480 C   0  0  0  0  0  3  0  0  0  0  0  0
  186.8340  171.8700  135.5590 O   0  0  0  0  0  0  0  0  0  0  0  0
  187.1090  174.0210  136.6520 C   0  0  0  0  0  2  0  0  0  0  0  0
  180.5240  179.4480  137.4270 N   0  0  0  0  0  2  0  0  0  0  0  0
  180.8750  180.6740  138.1270 C   0  0  0  0  0  2  0  0  0  0  0  0
  180.7090  182.0820  136.9980 S   0  0  0  0  0  1  0  0  0  0  0  0
  2  7  1  0  0  0  0
  2  5  1  0  0  0  0
  3  8  1  1  0  0  0
  3  1  1  0  0  0  0
  4  6  1  0  0  0  0
  5 27  1  1  0  0  0
  5  9  1  0  0  0  0
  6 11  2  0  0  0  0
  7  4  1  6  0  0  0
  7  3  1  0  0  0  0
  9  1  1  6  0  0  0
 10  6  1  0  0  0  0
 11 30  1  0  0  0  0
 11  8  1  0  0  0  0
 12 14  1  6  0  0  0
 12 15  1  0  0  0  0
 12 17  1  0  0  0  0
 15 23  1  6  0  0  0
 15 17  1  0  0  0  0
 16 13  1  6  0  0  0
 16 18  1  0  0  0  0
 17 18  1  6  0  0  0
 19 20  1  6  0  0  0
 19 21  1  0  0  0  0
 19 12  1  0  0  0  0
 21  9  1  1  0  0  0
 21 16  1  0  0  0  0
 22 23  1  0  0  0  0
 26 27  1  0  0  0  0
 26 25  1  0  0  0  0
 27 29  1  0  0  0  0
 28 25  1  0  0  0  0
 28 24  1  0  0  0  0
 29 24  1  0  0  0  0
 30 31  1  0  0  0  0
 32 31  1  0  0  0  0
M  END
>  <MODEL>
5

>  <REMARK>
 VINA RESULT:      -4.7      3.732      6.621
  Name = 
  5 active torsions:
  status: ('A' for Active; 'I' for Inactive)
    1  A    between atoms: N_10  and  C_28
    2  A    between atoms: N_14  and  C_21
    3  A    between atoms: N_14  and  C_29
    4  A    between atoms: C_15  and  C_26
    5  A    between atoms: C_24  and  C_27
                            x       y       z     vdW  Elec       q    Type
                         _______ _______ _______ _____ _____    ______ ____

>  <TORSDO>
F 5

$$$$
=
 OpenBabel11052414333D

 32 36  0  0  1  0  0  0  0  0999 V2000
  183.2750  179.1650  138.5090 C   0  0  0  0  0  2  0  0  0  0  0  0
  181.7710  179.5030  140.8770 C   0  0  0  0  0  2  0  0  0  0  0  0
  182.2730  180.3200  138.6070 C   0  0  2  0  0  3  0  0  0  0  0  0
  180.4090  181.3510  139.8390 C   0  0  0  0  0  2  0  0  0  0  0  0
  182.3680  178.1740  140.6550 N   0  0  1  0  0  0  0  0  0  0  0  0
  179.9750  181.9930  138.5420 C   0  0  0  0  0  0  0  0  0  0  0  0
  181.1600  180.0510  139.6010 C   0  0  2  0  0  3  0  0  0  0  0  0
  181.6470  180.6440  137.2590 C   0  0  0  0  0  2  0  0  0  0  0  0
  182.8360  177.8950  139.2720 C   0  0  1  0  0  3  0  0  0  0  0  0
  178.9430  182.9200  138.6170 O   0  0  0  0  0  1  0  0  0  0  0  0
  180.5920  181.7220  137.3610 C   0  0  0  0  0  0  0  0  0  0  0  0
  181.5300  174.5780  137.7830 C   0  0  1  0  0  0  0  0  0  0  0  0
  180.7950  177.4250  136.3120 O   0  0  0  0  0  1  0  0  0  0  0  0
  180.3030  173.9110  137.7590 O   0  0  0  0  0  1  0  0  0  0  0  0
  182.6960  173.7390  137.2720 C   0  0  1  0  0  3  0  0  0  0  0  0
  182.0210  177.2910  136.9680 C   0  0  2  0  0  3  0  0  0  0  0  0
  182.0820  174.8460  136.3890 C   0  0  2  0  0  3  0  0  0  0  0  0
  182.8500  176.1720  136.3400 C   0  0  0  0  0  2  0  0  0  0  0  0
  181.7880  175.6010  138.9140 C   0  0  2  0  0  3  0  0  0  0  0  0
  180.8360  175.3910  140.0810 C   0  0  0  0  0  1  0  0  0  0  0  0
  181.7960  177.0840  138.4760 C   0  0  1  0  0  3  0  0  0  0  0  0
  185.0540  173.0130  137.5880 C   0  0  0  0  0  1  0  0  0  0  0  0
  184.0470  174.1050  137.8890 C   0  0  0  0  0  2  0  0  0  0  0  0
  185.8680  178.4630  142.1590 C   0  0  0  0  0  2  0  0  0  0  0  0
  184.4280  178.7220  143.8560 C   0  0  0  0  0  2  0  0  0  0  0  0
  183.1550  178.6160  143.0060 C   0  0  0  0  0  2  0  0  0  0  0  0
  183.4320  177.9530  141.6420 C   0  0  0  0  0  3  0  0  0  0  0  0
  185.4420  177.8810  143.3660 O   0  0  0  0  0  0  0  0  0  0  0  0
  184.8080  178.3050  141.0610 C   0  0  0  0  0  2  0  0  0  0  0  0
  180.2220  182.3570  136.1270 N   0  0  0  0  0  2  0  0  0  0  0  0
  180.9750  183.3870  135.4280 C   0  0  0  0  0  2  0  0  0  0  0  0
  180.8190  184.9580  136.3180 S   0  0  0  0  0  1  0  0  0  0  0  0
  1  3  1  0  0  0  0
  3  8  1  6  0  0  0
  3  7  1  0  0  0  0
  5  2  1  0  0  0  0
  5 27  1  1  0  0  0
  6 10  1  0  0  0  0
  6  4  1  0  0  0  0
  7  4  1  1  0  0  0
  7  2  1  0  0  0  0
  8 11  1  0  0  0  0
  9  1  1  6  0  0  0
  9  5  1  0  0  0  0
 11  6  2  0  0  0  0
 12 14  1  1  0  0  0
 12 19  1  0  0  0  0
 15 12  1  0  0  0  0
 15 23  1  1  0  0  0
 16 13  1  6  0  0  0
 16 21  1  0  0  0  0
 17 18  1  1  0  0  0
 17 15  1  0  0  0  0
 17 12  1  0  0  0  0
 18 16  1  0  0  0  0
 19 20  1  1  0  0  0
 21 19  1  0  0  0  0
 21  9  1  1  0  0  0
 22 23  1  0  0  0  0
 24 28  1  0  0  0  0
 26 25  1  0  0  0  0
 27 26  1  0  0  0  0
 28 25  1  0  0  0  0
 29 27  1  0  0  0  0
 29 24  1  0  0  0  0
 30 11  1  0  0  0  0
 31 30  1  0  0  0  0
 31 32  1  0  0  0  0
M  END
>  <MODEL>
6

>  <REMARK>
 VINA RESULT:      -4.6      5.411      7.858
  Name = 
  5 active torsions:
  status: ('A' for Active; 'I' for Inactive)
    1  A    between atoms: N_10  and  C_28
    2  A    between atoms: N_14  and  C_21
    3  A    between atoms: N_14  and  C_29
    4  A    between atoms: C_15  and  C_26
    5  A    between atoms: C_24  and  C_27
                            x       y       z     vdW  Elec       q    Type
                         _______ _______ _______ _____ _____    ______ ____

>  <TORSDO>
F 5

$$$$
=
 OpenBabel11052414333D

 32 36  0  0  1  0  0  0  0  0999 V2000
  183.0920  176.4150  138.9460 C   0  0  0  0  0  2  0  0  0  0  0  0
  181.6430  176.2250  136.5270 C   0  0  0  0  0  2  0  0  0  0  0  0
  181.8430  177.2800  138.7460 C   0  0  2  0  0  3  0  0  0  0  0  0
  180.1390  178.1340  137.1890 C   0  0  0  0  0  2  0  0  0  0  0  0
  183.0340  175.7350  136.5070 N   0  0  1  0  0  0  0  0  0  0  0  0
  179.9790  179.3270  138.1020 C   0  0  0  0  0  0  0  0  0  0  0  0
  181.5330  177.5360  137.2840 C   0  0  2  0  0  3  0  0  0  0  0  0
  181.9630  178.6200  139.4540 C   0  0  0  0  0  2  0  0  0  0  0  0
  183.8880  176.1620  137.6470 C   0  0  1  0  0  3  0  0  0  0  0  0
  178.9430  180.2050  137.8100 O   0  0  0  0  0  1  0  0  0  0  0  0
  180.7740  179.5160  139.1890 C   0  0  0  0  0  0  0  0  0  0  0  0
  187.1780  177.6950  136.3200 C   0  0  1  0  0  0  0  0  0  0  0  0
  185.3520  179.3740  138.4760 O   0  0  0  0  0  1  0  0  0  0  0  0
  187.5140  178.6810  135.3900 O   0  0  0  0  0  1  0  0  0  0  0  0
  188.3690  176.8780  136.8080 C   0  0  1  0  0  3  0  0  0  0  0  0
  185.3810  177.9800  138.5460 C   0  0  2  0  0  3  0  0  0  0  0  0
  187.7490  177.9710  137.7040 C   0  0  2  0  0  3  0  0  0  0  0  0
  186.8010  177.4810  138.8050 C   0  0  0  0  0  2  0  0  0  0  0  0
  185.8030  176.9990  136.1880 C   0  0  2  0  0  3  0  0  0  0  0  0
  185.2160  177.1850  134.7970 C   0  0  0  0  0  1  0  0  0  0  0  0
  184.7650  177.3730  137.2730 C   0  0  1  0  0  3  0  0  0  0  0  0
  188.6860  174.4670  136.2840 C   0  0  0  0  0  1  0  0  0  0  0  0
  188.0190  175.4490  137.2260 C   0  0  0  0  0  2  0  0  0  0  0  0
  184.0420  172.1270  137.2560 C   0  0  0  0  0  2  0  0  0  0  0  0
  181.8240  172.1110  136.9410 C   0  0  0  0  0  2  0  0  0  0  0  0
  181.6810  173.6230  136.7160 C   0  0  0  0  0  2  0  0  0  0  0  0
  183.0290  174.2760  136.3510 C   0  0  0  0  0  3  0  0  0  0  0  0
  183.0340  171.6280  136.4130 O   0  0  0  0  0  0  0  0  0  0  0  0
  184.2290  173.6390  137.0650 C   0  0  0  0  0  2  0  0  0  0  0  0
  180.6060  180.6210  140.0920 N   0  0  0  0  0  2  0  0  0  0  0  0
  179.5290  180.7900  141.0550 C   0  0  0  0  0  2  0  0  0  0  0  0
  180.0550  180.1520  142.6680 S   0  0  0  0  0  1  0  0  0  0  0  0
  3  1  1  6  0  0  0
  3  8  1  0  0  0  0
  4  7  1  0  0  0  0
  4  6  1  0  0  0  0
  5 27  1  1  0  0  0
  5  2  1  0  0  0  0
  5  9  1  0  0  0  0
  6 11  2  0  0  0  0
  7  2  1  6  0  0  0
  7  3  1  0  0  0  0
  9  1  1  1  0  0  0
 10  6  1  0  0  0  0
 11  8  1  0  0  0  0
 11 30  1  0  0  0  0
 12 14  1  6  0  0  0
 12 15  1  0  0  0  0
 12 17  1  0  0  0  0
 15 23  1  1  0  0  0
 15 17  1  0  0  0  0
 16 13  1  6  0  0  0
 16 18  1  0  0  0  0
 17 18  1  1  0  0  0
 19 20  1  6  0  0  0
 19 12  1  0  0  0  0
 19 21  1  0  0  0  0
 21  9  1  1  0  0  0
 21 16  1  0  0  0  0
 22 23  1  0  0  0  0
 26 25  1  0  0  0  0
 27 26  1  0  0  0  0
 27 29  1  0  0  0  0
 28 25  1  0  0  0  0
 28 24  1  0  0  0  0
 29 24  1  0  0  0  0
 30 31  1  0  0  0  0
 31 32  1  0  0  0  0
M  END
>  <MODEL>
7

>  <REMARK>
 VINA RESULT:      -4.4      4.285      7.029
  Name = 
  5 active torsions:
  status: ('A' for Active; 'I' for Inactive)
    1  A    between atoms: N_10  and  C_28
    2  A    between atoms: N_14  and  C_21
    3  A    between atoms: N_14  and  C_29
    4  A    between atoms: C_15  and  C_26
    5  A    between atoms: C_24  and  C_27
                            x       y       z     vdW  Elec       q    Type
                         _______ _______ _______ _____ _____    ______ ____

>  <TORSDO>
F 5

$$$$
=
 OpenBabel11052414333D

 32 36  0  0  1  0  0  0  0  0999 V2000
  190.6510  174.8510  134.5940 C   0  0  0  0  0  2  0  0  0  0  0  0
  190.6230  173.5300  137.0920 C   0  0  0  0  0  2  0  0  0  0  0  0
  191.9440  174.7550  135.4090 C   0  0  2  0  0  3  0  0  0  0  0  0
  193.0030  174.2090  137.5630 C   0  0  0  0  0  2  0  0  0  0  0  0
  189.3220  173.9810  136.5660 N   0  0  1  0  0  0  0  0  0  0  0  0
  194.1150  175.1650  137.1980 C   0  0  0  0  0  0  0  0  0  0  0  0
  191.6920  174.5900  136.8960 C   0  0  2  0  0  3  0  0  0  0  0  0
  192.8350  175.9700  135.2040 C   0  0  0  0  0  2  0  0  0  0  0  0
  189.3770  174.9730  135.4600 C   0  0  1  0  0  3  0  0  0  0  0  0
  195.2170  175.1950  138.0440 O   0  0  0  0  0  1  0  0  0  0  0  0
  194.0720  175.9260  136.0730 C   0  0  0  0  0  0  0  0  0  0  0  0
  187.4180  177.6110  137.4930 C   0  0  1  0  0  0  0  0  0  0  0  0
  189.1500  178.5410  134.8590 O   0  0  0  0  0  1  0  0  0  0  0  0
  187.7470  178.5980  138.4240 O   0  0  0  0  0  1  0  0  0  0  0  0
  185.9190  177.3610  137.3660 C   0  0  1  0  0  3  0  0  0  0  0  0
  188.5540  177.2790  134.8730 C   0  0  2  0  0  3  0  0  0  0  0  0
  186.6730  178.1650  136.2850 C   0  0  2  0  0  3  0  0  0  0  0  0
  187.0370  177.3990  135.0080 C   0  0  0  0  0  2  0  0  0  0  0  0
  188.3880  176.4210  137.3080 C   0  0  2  0  0  3  0  0  0  0  0  0
  189.3320  176.2840  138.4940 C   0  0  0  0  0  1  0  0  0  0  0  0
  189.1780  176.4100  135.9790 C   0  0  1  0  0  3  0  0  0  0  0  0
  184.0540  175.7520  137.0250 C   0  0  0  0  0  1  0  0  0  0  0  0
  185.5560  175.9350  136.9490 C   0  0  0  0  0  2  0  0  0  0  0  0
  186.5310  172.0550  134.8060 C   0  0  0  0  0  2  0  0  0  0  0  0
  188.3580  170.7630  134.6940 C   0  0  0  0  0  2  0  0  0  0  0  0
  189.2980  171.7510  135.3990 C   0  0  0  0  0  2  0  0  0  0  0  0
  188.5170  172.8090  136.2030 C   0  0  0  0  0  3  0  0  0  0  0  0
  187.0600  170.8230  135.2280 O   0  0  0  0  0  0  0  0  0  0  0  0
  187.1970  173.2270  135.5390 C   0  0  0  0  0  2  0  0  0  0  0  0
  195.1410  176.8060  135.6890 N   0  0  0  0  0  2  0  0  0  0  0  0
  196.0920  176.5870  134.6100 C   0  0  0  0  0  2  0  0  0  0  0  0
  197.4910  175.6140  135.2270 S   0  0  0  0  0  1  0  0  0  0  0  0
  3  1  1  6  0  0  0
  3  7  1  0  0  0  0
  5 27  1  6  0  0  0
  5  2  1  0  0  0  0
  6  4  1  0  0  0  0
  6 10  1  0  0  0  0
  7  2  1  6  0  0  0
  7  4  1  0  0  0  0
  8  3  1  0  0  0  0
  8 11  1  0  0  0  0
  9  1  1  1  0  0  0
  9  5  1  0  0  0  0
 11  6  2  0  0  0  0
 12 14  1  1  0  0  0
 15 23  1  6  0  0  0
 15 12  1  0  0  0  0
 16 13  1  1  0  0  0
 16 18  1  0  0  0  0
 16 21  1  0  0  0  0
 17 18  1  6  0  0  0
 17 15  1  0  0  0  0
 17 12  1  0  0  0  0
 19 12  1  0  0  0  0
 19 20  1  1  0  0  0
 21  9  1  6  0  0  0
 21 19  1  0  0  0  0
 23 22  1  0  0  0  0
 24 28  1  0  0  0  0
 24 29  1  0  0  0  0
 25 28  1  0  0  0  0
 25 26  1  0  0  0  0
 26 27  1  0  0  0  0
 29 27  1  0  0  0  0
 30 11  1  0  0  0  0
 31 32  1  0  0  0  0
 31 30  1  0  0  0  0
M  END
>  <MODEL>
8

>  <REMARK>
 VINA RESULT:      -4.4      4.711      7.754
  Name = 
  5 active torsions:
  status: ('A' for Active; 'I' for Inactive)
    1  A    between atoms: N_10  and  C_28
    2  A    between atoms: N_14  and  C_21
    3  A    between atoms: N_14  and  C_29
    4  A    between atoms: C_15  and  C_26
    5  A    between atoms: C_24  and  C_27
                            x       y       z     vdW  Elec       q    Type
                         _______ _______ _______ _____ _____    ______ ____

>  <TORSDO>
F 5

$$$$
=
 OpenBabel11052414333D

 32 36  0  0  1  0  0  0  0  0999 V2000
  186.2360  179.6100  141.6370 C   0  0  0  0  0  2  0  0  0  0  0  0
  184.5380  177.8480  143.0510 C   0  0  0  0  0  2  0  0  0  0  0  0
  184.9820  179.0590  140.9510 C   0  0  2  0  0  3  0  0  0  0  0  0
  183.1320  177.4370  141.0010 C   0  0  0  0  0  2  0  0  0  0  0  0
  185.9140  177.9940  143.5610 N   0  0  1  0  0  0  0  0  0  0  0  0
  183.0810  177.5270  139.4940 C   0  0  0  0  0  0  0  0  0  0  0  0
  184.5220  177.7380  141.5370 C   0  0  2  0  0  3  0  0  0  0  0  0
  185.1890  178.8750  139.4550 C   0  0  0  0  0  2  0  0  0  0  0  0
  186.8880  178.6200  142.6280 C   0  0  1  0  0  3  0  0  0  0  0  0
  182.0290  176.8760  138.8630 O   0  0  0  0  0  1  0  0  0  0  0  0
  183.9880  178.2480  138.7830 C   0  0  0  0  0  0  0  0  0  0  0  0
  190.1490  176.5990  142.1680 C   0  0  1  0  0  0  0  0  0  0  0  0
  188.2360  177.2190  139.5680 O   0  0  0  0  0  1  0  0  0  0  0  0
  190.4710  175.2530  141.9820 O   0  0  0  0  0  1  0  0  0  0  0  0
  191.3570  177.4860  142.4500 C   0  0  1  0  0  3  0  0  0  0  0  0
  188.3080  178.1550  140.6020 C   0  0  2  0  0  3  0  0  0  0  0  0
  190.6890  177.4930  141.0590 C   0  0  2  0  0  3  0  0  0  0  0  0
  189.7380  178.6610  140.7740 C   0  0  0  0  0  2  0  0  0  0  0  0
  188.7990  176.9480  142.8370 C   0  0  2  0  0  3  0  0  0  0  0  0
  188.2300  175.7570  143.5940 C   0  0  0  0  0  1  0  0  0  0  0  0
  187.7330  177.5580  141.8980 C   0  0  1  0  0  3  0  0  0  0  0  0
  191.5520  178.4970  144.7130 C   0  0  0  0  0  1  0  0  0  0  0  0
  191.0450  178.7170  143.3030 C   0  0  0  0  0  2  0  0  0  0  0  0
  184.4970  178.9880  146.9670 C   0  0  0  0  0  2  0  0  0  0  0  0
  186.6950  178.6730  147.2650 C   0  0  0  0  0  2  0  0  0  0  0  0
  186.9960  178.2530  145.8190 C   0  0  0  0  0  2  0  0  0  0  0  0
  185.8770  178.6890  144.8520 C   0  0  0  0  0  3  0  0  0  0  0  0
  185.6870  179.6500  147.3130 O   0  0  0  0  0  0  0  0  0  0  0  0
  184.4750  178.6280  145.4750 C   0  0  0  0  0  2  0  0  0  0  0  0
  183.9280  178.3810  137.3540 N   0  0  0  0  0  2  0  0  0  0  0  0
  184.2020  177.3360  136.3800 C   0  0  0  0  0  2  0  0  0  0  0  0
  185.9940  177.1360  136.1980 S   0  0  0  0  0  1  0  0  0  0  0  0
  2  5  1  0  0  0  0
  3  8  1  6  0  0  0
  3  7  1  0  0  0  0
  3  1  1  0  0  0  0
  5 27  1  1  0  0  0
  6  4  1  0  0  0  0
  7  4  1  6  0  0  0
  7  2  1  0  0  0  0
  9  1  1  6  0  0  0
  9  5  1  0  0  0  0
 10  6  1  0  0  0  0
 11  8  1  0  0  0  0
 11  6  2  0  0  0  0
 12 14  1  6  0  0  0
 12 15  1  0  0  0  0
 12 19  1  0  0  0  0
 15 23  1  1  0  0  0
 16 13  1  6  0  0  0
 16 18  1  0  0  0  0
 16 21  1  0  0  0  0
 17 18  1  1  0  0  0
 17 12  1  0  0  0  0
 17 15  1  0  0  0  0
 19 20  1  6  0  0  0
 21  9  1  1  0  0  0
 21 19  1  0  0  0  0
 23 22  1  0  0  0  0
 24 28  1  0  0  0  0
 25 28  1  0  0  0  0
 26 25  1  0  0  0  0
 27 29  1  0  0  0  0
 27 26  1  0  0  0  0
 29 24  1  0  0  0  0
 30 11  1  0  0  0  0
 31 30  1  0  0  0  0
 32 31  1  0  0  0  0
M  END
>  <MODEL>
9

>  <REMARK>
 VINA RESULT:      -4.3      3.535      7.174
  Name = 
  5 active torsions:
  status: ('A' for Active; 'I' for Inactive)
    1  A    between atoms: N_10  and  C_28
    2  A    between atoms: N_14  and  C_21
    3  A    between atoms: N_14  and  C_29
    4  A    between atoms: C_15  and  C_26
    5  A    between atoms: C_24  and  C_27
                            x       y       z     vdW  Elec       q    Type
                         _______ _______ _______ _____ _____    ______ ____

>  <TORSDO>
F 5

$$$$
