=
 OpenBabel11052413313D

 28 32  0  0  1  0  0  0  0  0999 V2000
  189.5680  176.8210  142.4300 N   0  0  0  0  0  0  0  0  0  0  0  0
  184.4920  178.3350  142.4930 C   0  0  0  0  0  2  0  0  0  0  0  0
  188.6040  177.7940  147.0220 O   0  0  0  0  0  0  0  0  0  0  0  0
  184.1240  178.6700  144.9850 C   0  0  0  0  0  0  0  0  0  0  0  0
  186.3460  178.0790  144.1950 C   0  0  0  0  0  0  0  0  0  0  0  0
  182.1910  178.6590  143.3730 C   0  0  1  0  0  3  0  0  0  0  0  0
  185.0030  178.3940  143.9130 C   0  0  0  0  0  0  0  0  0  0  0  0
  185.8870  178.3780  146.5490 C   0  0  0  0  0  3  0  0  0  0  0  0
  182.6970  179.0800  144.7480 C   0  0  0  0  0  2  0  0  0  0  0  0
  189.0880  177.2940  144.7540 C   0  0  0  0  0  0  0  0  0  0  0  0
  187.3110  177.8110  143.0660 C   0  0  0  0  0  2  0  0  0  0  0  0
  184.5930  178.6680  146.2600 N   0  0  0  0  0  0  0  0  0  0  0  0
  191.4430  176.8530  143.9740 C   0  0  0  0  0  2  0  0  0  0  0  0
  188.1850  177.7350  145.8340 C   0  0  0  0  0  0  0  0  0  0  0  0
  190.4540  176.7730  145.1310 C   0  0  0  0  0  2  0  0  0  0  0  0
  180.9540  179.2550  143.1310 O   0  0  0  0  0  1  0  0  0  0  0  0
  183.1830  179.0990  142.3090 C   0  0  0  0  0  2  0  0  0  0  0  0
  186.7900  178.0770  145.5260 C   0  0  0  0  0  0  0  0  0  0  0  0
  190.8280  176.1660  142.7690 C   0  0  0  0  0  2  0  0  0  0  0  0
  188.6670  177.2690  143.4680 C   0  0  0  0  0  0  0  0  0  0  0  0
  189.3080  177.1190  141.0260 C   0  0  0  0  0  2  0  0  0  0  0  0
  190.5470  176.9280  140.2170 C   0  0  0  0  0  0  0  0  0  0  0  0
  192.8560  176.6130  138.6690 C   0  0  0  0  0  0  0  0  0  0  0  0
  191.7340  177.5680  140.5900 C   0  0  0  0  0  3  0  0  0  0  0  0
  190.5150  176.1360  139.0630 C   0  0  0  0  0  3  0  0  0  0  0  0
  191.6700  175.9770  138.2910 C   0  0  0  0  0  3  0  0  0  0  0  0
  194.0020  176.4540  137.9030 O   0  0  0  0  0  1  0  0  0  0  0  0
  192.8880  177.4090  139.8180 C   0  0  0  0  0  3  0  0  0  0  0  0
  1 19  1  0  0  0  0
  1 20  1  0  0  0  0
  2  7  1  0  0  0  0
  4 12  1  0  0  0  0
  5 18  2  0  0  0  0
  6 16  1  6  0  0  0
  6  9  1  0  0  0  0
  7  5  1  0  0  0  0
  7  4  2  0  0  0  0
  9  4  1  0  0  0  0
 10 15  1  0  0  0  0
 10 14  1  0  0  0  0
 11 20  1  0  0  0  0
 11  5  1  0  0  0  0
 12  8  2  0  0  0  0
 13 15  1  0  0  0  0
 14  3  2  0  0  0  0
 17  2  1  0  0  0  0
 17  6  1  0  0  0  0
 18 14  1  0  0  0  0
 18  8  1  0  0  0  0
 19 13  1  0  0  0  0
 20 10  2  0  0  0  0
 21  1  1  0  0  0  0
 22 24  1  0  0  0  0
 22 21  1  0  0  0  0
 23 28  1  0  0  0  0
 25 22  2  0  0  0  0
 26 23  2  0  0  0  0
 26 25  1  0  0  0  0
 27 23  1  0  0  0  0
 28 24  2  0  0  0  0
M  END
>  <MODEL>
1

>  <REMARK>
 VINA RESULT:     -10.6      0.000      0.000
  Name = 
  2 active torsions:
  status: ('A' for Active; 'I' for Inactive)
    1  A    between atoms: N_1  and  C_2
    2  A    between atoms: C_2  and  C_3
                            x       y       z     vdW  Elec       q    Type
                         _______ _______ _______ _____ _____    ______ ____

>  <TORSDO>
F 2

$$$$
=
 OpenBabel11052413313D

 28 32  0  0  1  0  0  0  0  0999 V2000
  187.3760  178.2550  140.9320 N   0  0  0  0  0  0  0  0  0  0  0  0
  190.7180  176.8630  144.7990 C   0  0  0  0  0  2  0  0  0  0  0  0
  184.7690  178.3800  144.9510 O   0  0  0  0  0  0  0  0  0  0  0  0
  189.2220  177.1170  146.8380 C   0  0  0  0  0  0  0  0  0  0  0  0
  188.2710  177.4810  144.6310 C   0  0  0  0  0  0  0  0  0  0  0  0
  191.7060  176.7810  147.0780 C   0  0  1  0  0  3  0  0  0  0  0  0
  189.3730  177.1260  145.4330 C   0  0  0  0  0  0  0  0  0  0  0  0
  186.9400  177.7390  146.6320 C   0  0  0  0  0  3  0  0  0  0  0  0
  190.3390  176.6810  147.7460 C   0  0  0  0  0  2  0  0  0  0  0  0
  186.0540  178.3370  142.9580 C   0  0  0  0  0  0  0  0  0  0  0  0
  188.3970  177.4690  143.1270 C   0  0  0  0  0  2  0  0  0  0  0  0
  188.0150  177.4060  147.3900 N   0  0  0  0  0  0  0  0  0  0  0  0
  184.9770  178.5560  140.6900 C   0  0  0  0  0  2  0  0  0  0  0  0
  185.8900  178.1690  144.4130 C   0  0  0  0  0  0  0  0  0  0  0  0
  184.9010  178.9130  142.1700 C   0  0  0  0  0  2  0  0  0  0  0  0
  192.6610  176.1620  147.8810 O   0  0  0  0  0  1  0  0  0  0  0  0
  191.6600  176.0950  145.7220 C   0  0  0  0  0  2  0  0  0  0  0  0
  187.0430  177.7830  145.2390 C   0  0  0  0  0  0  0  0  0  0  0  0
  186.3450  178.9540  140.1700 C   0  0  0  0  0  2  0  0  0  0  0  0
  187.2380  178.0700  142.3590 C   0  0  0  0  0  0  0  0  0  0  0  0
  188.4770  177.6450  140.1960 C   0  0  0  0  0  2  0  0  0  0  0  0
  188.2320  177.7360  138.7270 C   0  0  0  0  0  0  0  0  0  0  0  0
  187.8160  177.8740  135.9640 C   0  0  0  0  0  0  0  0  0  0  0  0
  187.3800  176.8200  138.0990 C   0  0  0  0  0  3  0  0  0  0  0  0
  188.8810  178.7170  137.9680 C   0  0  0  0  0  3  0  0  0  0  0  0
  188.6710  178.7870  136.5880 C   0  0  0  0  0  3  0  0  0  0  0  0
  187.6070  177.9440  134.5940 O   0  0  0  0  0  1  0  0  0  0  0  0
  187.1710  176.8890  136.7200 C   0  0  0  0  0  3  0  0  0  0  0  0
  1 20  1  0  0  0  0
  2  7  1  0  0  0  0
  2 17  1  0  0  0  0
  4 12  1  0  0  0  0
  4  9  1  0  0  0  0
  5 18  2  0  0  0  0
  5  7  1  0  0  0  0
  6  9  1  0  0  0  0
  6 16  1  1  0  0  0
  7  4  2  0  0  0  0
  8 12  2  0  0  0  0
 10 14  1  0  0  0  0
 11  5  1  0  0  0  0
 13 15  1  0  0  0  0
 14  3  2  0  0  0  0
 14 18  1  0  0  0  0
 15 10  1  0  0  0  0
 17  6  1  0  0  0  0
 18  8  1  0  0  0  0
 19 13  1  0  0  0  0
 19  1  1  0  0  0  0
 20 10  2  0  0  0  0
 20 11  1  0  0  0  0
 21  1  1  0  0  0  0
 22 21  1  0  0  0  0
 23 26  2  0  0  0  0
 23 28  1  0  0  0  0
 24 22  1  0  0  0  0
 25 22  2  0  0  0  0
 26 25  1  0  0  0  0
 27 23  1  0  0  0  0
 28 24  2  0  0  0  0
M  END
>  <MODEL>
2

>  <REMARK>
 VINA RESULT:      -9.9      2.905      5.825
  Name = 
  2 active torsions:
  status: ('A' for Active; 'I' for Inactive)
    1  A    between atoms: N_1  and  C_2
    2  A    between atoms: C_2  and  C_3
                            x       y       z     vdW  Elec       q    Type
                         _______ _______ _______ _____ _____    ______ ____

>  <TORSDO>
F 2

$$$$
=
 OpenBabel11052413313D

 28 32  0  0  1  0  0  0  0  0999 V2000
  183.4880  178.6310  141.1240 N   0  0  0  0  0  0  0  0  0  0  0  0
  188.3800  177.2670  142.6290 C   0  0  0  0  0  2  0  0  0  0  0  0
  183.4630  178.9410  145.9060 O   0  0  0  0  0  0  0  0  0  0  0  0
  188.2220  177.6190  145.1410 C   0  0  0  0  0  0  0  0  0  0  0  0
  186.2320  177.9430  143.7830 C   0  0  0  0  0  0  0  0  0  0  0  0
  190.4400  177.2270  144.0180 C   0  0  1  0  0  3  0  0  0  0  0  0
  187.5910  177.5840  143.8780 C   0  0  0  0  0  0  0  0  0  0  0  0
  186.1930  178.2940  146.1740 C   0  0  0  0  0  3  0  0  0  0  0  0
  189.6500  177.1820  145.3210 C   0  0  0  0  0  2  0  0  0  0  0  0
  183.4680  178.8060  143.5370 C   0  0  0  0  0  0  0  0  0  0  0  0
  185.5270  177.8830  142.4500 C   0  0  0  0  0  2  0  0  0  0  0  0
  187.5050  177.9560  146.2450 N   0  0  0  0  0  0  0  0  0  0  0  0
  181.3400  178.9860  142.2010 C   0  0  0  0  0  2  0  0  0  0  0  0
  184.1150  178.6860  144.8570 C   0  0  0  0  0  0  0  0  0  0  0  0
  182.0760  179.3890  143.4730 C   0  0  0  0  0  2  0  0  0  0  0  0
  191.6750  176.6070  144.2030 O   0  0  0  0  0  1  0  0  0  0  0  0
  189.6660  176.5020  142.9290 C   0  0  0  0  0  2  0  0  0  0  0  0
  185.5290  178.2950  144.9450 C   0  0  0  0  0  0  0  0  0  0  0  0
  182.2130  179.3330  141.0100 C   0  0  0  0  0  2  0  0  0  0  0  0
  184.1410  178.4910  142.4060 C   0  0  0  0  0  0  0  0  0  0  0  0
  184.0140  177.9710  139.9340 C   0  0  0  0  0  2  0  0  0  0  0  0
  182.9240  177.2430  139.2210 C   0  0  0  0  0  0  0  0  0  0  0  0
  180.9200  175.8450  137.8590 C   0  0  0  0  0  0  0  0  0  0  0  0
  182.3030  176.1440  139.8230 C   0  0  0  0  0  3  0  0  0  0  0  0
  182.5470  177.6370  137.9310 C   0  0  0  0  0  3  0  0  0  0  0  0
  181.5430  176.9390  137.2520 C   0  0  0  0  0  3  0  0  0  0  0  0
  179.9230  175.1530  137.1850 O   0  0  0  0  0  1  0  0  0  0  0  0
  181.3000  175.4460  139.1450 C   0  0  0  0  0  3  0  0  0  0  0  0
  1 20  1  0  0  0  0
  2 17  1  0  0  0  0
  2  7  1  0  0  0  0
  4  9  1  0  0  0  0
  4 12  1  0  0  0  0
  5  7  1  0  0  0  0
  5 18  2  0  0  0  0
  6 16  1  1  0  0  0
  6  9  1  0  0  0  0
  7  4  2  0  0  0  0
  8 12  2  0  0  0  0
 10 14  1  0  0  0  0
 11  5  1  0  0  0  0
 13 15  1  0  0  0  0
 14 18  1  0  0  0  0
 14  3  2  0  0  0  0
 15 10  1  0  0  0  0
 17  6  1  0  0  0  0
 18  8  1  0  0  0  0
 19  1  1  0  0  0  0
 19 13  1  0  0  0  0
 20 11  1  0  0  0  0
 20 10  2  0  0  0  0
 21  1  1  0  0  0  0
 22 24  1  0  0  0  0
 22 21  1  0  0  0  0
 23 28  1  0  0  0  0
 25 22  2  0  0  0  0
 26 23  2  0  0  0  0
 26 25  1  0  0  0  0
 27 23  1  0  0  0  0
 28 24  2  0  0  0  0
M  END
>  <MODEL>
3

>  <REMARK>
 VINA RESULT:      -9.8      3.224      7.586
  Name = 
  2 active torsions:
  status: ('A' for Active; 'I' for Inactive)
    1  A    between atoms: N_1  and  C_2
    2  A    between atoms: C_2  and  C_3
                            x       y       z     vdW  Elec       q    Type
                         _______ _______ _______ _____ _____    ______ ____

>  <TORSDO>
F 2

$$$$
=
 OpenBabel11052413313D

 28 32  0  0  1  0  0  0  0  0999 V2000
  184.3320  179.0500  142.6320 N   0  0  0  0  0  0  0  0  0  0  0  0
  189.2370  177.8920  141.0000 C   0  0  0  0  0  2  0  0  0  0  0  0
  186.6200  177.4900  146.5420 O   0  0  0  0  0  0  0  0  0  0  0  0
  190.3250  177.2250  143.1970 C   0  0  0  0  0  0  0  0  0  0  0  0
  187.9570  177.7720  143.1800 C   0  0  0  0  0  0  0  0  0  0  0  0
  191.7010  177.6010  141.1230 C   0  0  1  0  0  3  0  0  0  0  0  0
  189.1660  177.5930  142.4790 C   0  0  0  0  0  0  0  0  0  0  0  0
  189.0920  177.1670  145.2260 C   0  0  0  0  0  3  0  0  0  0  0  0
  191.6290  176.9520  142.5000 C   0  0  0  0  0  2  0  0  0  0  0  0
  185.4820  178.2790  144.6160 C   0  0  0  0  0  0  0  0  0  0  0  0
  186.6980  178.1350  142.4310 C   0  0  0  0  0  2  0  0  0  0  0  0
  190.2510  177.0100  144.5370 N   0  0  0  0  0  0  0  0  0  0  0  0
  182.9930  178.6680  144.6220 C   0  0  0  0  0  2  0  0  0  0  0  0
  186.6710  177.7490  145.3090 C   0  0  0  0  0  0  0  0  0  0  0  0
  184.2750  178.6450  145.4460 C   0  0  0  0  0  2  0  0  0  0  0  0
  192.8260  177.1330  140.4470 O   0  0  0  0  0  1  0  0  0  0  0  0
  190.4510  177.2540  140.3320 C   0  0  0  0  0  2  0  0  0  0  0  0
  187.9230  177.5500  144.5640 C   0  0  0  0  0  0  0  0  0  0  0  0
  183.2120  179.5620  143.4170 C   0  0  0  0  0  2  0  0  0  0  0  0
  185.5070  178.5190  143.2840 C   0  0  0  0  0  0  0  0  0  0  0  0
  184.1750  178.9780  141.1830 C   0  0  0  0  0  2  0  0  0  0  0  0
  182.9520  178.1990  140.8320 C   0  0  0  0  0  0  0  0  0  0  0  0
  180.6550  176.7670  140.1250 C   0  0  0  0  0  0  0  0  0  0  0  0
  183.0660  176.9850  140.1450 C   0  0  0  0  0  3  0  0  0  0  0  0
  181.6860  178.7000  141.1570 C   0  0  0  0  0  3  0  0  0  0  0  0
  180.5390  177.9830  140.8060 C   0  0  0  0  0  3  0  0  0  0  0  0
  179.5160  176.0560  139.7770 O   0  0  0  0  0  1  0  0  0  0  0  0
  181.9190  176.2690  139.7940 C   0  0  0  0  0  3  0  0  0  0  0  0
  1 20  1  0  0  0  0
  1 19  1  0  0  0  0
  2  7  1  0  0  0  0
  4 12  1  0  0  0  0
  5 18  2  0  0  0  0
  6 16  1  6  0  0  0
  6  9  1  0  0  0  0
  7  5  1  0  0  0  0
  7  4  2  0  0  0  0
  9  4  1  0  0  0  0
 10 14  1  0  0  0  0
 10 15  1  0  0  0  0
 11  5  1  0  0  0  0
 11 20  1  0  0  0  0
 12  8  2  0  0  0  0
 13 15  1  0  0  0  0
 14  3  2  0  0  0  0
 17  2  1  0  0  0  0
 17  6  1  0  0  0  0
 18  8  1  0  0  0  0
 18 14  1  0  0  0  0
 19 13  1  0  0  0  0
 20 10  2  0  0  0  0
 21  1  1  0  0  0  0
 22 25  1  0  0  0  0
 22 21  1  0  0  0  0
 23 26  1  0  0  0  0
 24 22  2  0  0  0  0
 26 25  2  0  0  0  0
 27 23  1  0  0  0  0
 28 23  2  0  0  0  0
 28 24  1  0  0  0  0
M  END
>  <MODEL>
4

>  <REMARK>
 VINA RESULT:      -9.7      2.126      7.727
  Name = 
  2 active torsions:
  status: ('A' for Active; 'I' for Inactive)
    1  A    between atoms: N_1  and  C_2
    2  A    between atoms: C_2  and  C_3
                            x       y       z     vdW  Elec       q    Type
                         _______ _______ _______ _____ _____    ______ ____

>  <TORSDO>
F 2

$$$$
=
 OpenBabel11052413313D

 28 32  0  0  1  0  0  0  0  0999 V2000
  190.0300  177.6870  139.6880 N   0  0  0  0  0  0  0  0  0  0  0  0
  191.5770  176.6340  144.6440 C   0  0  0  0  0  2  0  0  0  0  0  0
  186.1040  178.2540  142.3760 O   0  0  0  0  0  0  0  0  0  0  0  0
  189.4350  177.1140  145.9240 C   0  0  0  0  0  0  0  0  0  0  0  0
  189.4120  177.2710  143.4990 C   0  0  0  0  0  0  0  0  0  0  0  0
  191.6200  176.7640  147.1240 C   0  0  1  0  0  3  0  0  0  0  0  0
  190.1070  176.9810  144.6890 C   0  0  0  0  0  0  0  0  0  0  0  0
  187.4380  177.7490  144.8080 C   0  0  0  0  0  3  0  0  0  0  0  0
  190.0990  176.7530  147.2250 C   0  0  0  0  0  2  0  0  0  0  0  0
  188.0450  177.9920  141.0380 C   0  0  0  0  0  0  0  0  0  0  0  0
  190.0990  177.1070  142.1650 C   0  0  0  0  0  2  0  0  0  0  0  0
  188.1260  177.4760  145.9450 N   0  0  0  0  0  0  0  0  0  0  0  0
  187.9220  178.0010  138.5210 C   0  0  0  0  0  2  0  0  0  0  0  0
  187.3320  177.9730  142.3290 C   0  0  0  0  0  0  0  0  0  0  0  0
  187.3090  178.5050  139.8230 C   0  0  0  0  0  2  0  0  0  0  0  0
  192.1650  176.2130  148.2830 O   0  0  0  0  0  1  0  0  0  0  0  0
  192.0550  175.9470  145.9190 C   0  0  0  0  0  2  0  0  0  0  0  0
  188.0640  177.6520  143.5630 C   0  0  0  0  0  0  0  0  0  0  0  0
  189.4040  178.3230  138.5320 C   0  0  0  0  0  2  0  0  0  0  0  0
  189.3520  177.6480  140.9640 C   0  0  0  0  0  0  0  0  0  0  0  0
  191.2940  176.9890  139.4840 C   0  0  0  0  0  2  0  0  0  0  0  0
  191.2600  176.2160  138.2080 C   0  0  0  0  0  0  0  0  0  0  0  0
  191.2270  174.7270  135.8410 C   0  0  0  0  0  0  0  0  0  0  0  0
  190.2260  175.3040  137.9680 C   0  0  0  0  0  3  0  0  0  0  0  0
  192.2820  176.3760  137.2650 C   0  0  0  0  0  3  0  0  0  0  0  0
  192.2630  175.6340  136.0810 C   0  0  0  0  0  3  0  0  0  0  0  0
  191.2090  173.9900  134.6650 O   0  0  0  0  0  1  0  0  0  0  0  0
  190.2080  174.5620  136.7850 C   0  0  0  0  0  3  0  0  0  0  0  0
  1 20  1  0  0  0  0
  2  7  1  0  0  0  0
  2 17  1  0  0  0  0
  4 12  1  0  0  0  0
  4  9  1  0  0  0  0
  5 18  2  0  0  0  0
  5  7  1  0  0  0  0
  6  9  1  0  0  0  0
  6 16  1  1  0  0  0
  7  4  2  0  0  0  0
  8 12  2  0  0  0  0
 10 14  1  0  0  0  0
 11  5  1  0  0  0  0
 13 19  1  0  0  0  0
 13 15  1  0  0  0  0
 14  3  2  0  0  0  0
 14 18  1  0  0  0  0
 15 10  1  0  0  0  0
 17  6  1  0  0  0  0
 18  8  1  0  0  0  0
 19  1  1  0  0  0  0
 20 10  2  0  0  0  0
 20 11  1  0  0  0  0
 21  1  1  0  0  0  0
 22 21  1  0  0  0  0
 23 26  2  0  0  0  0
 23 28  1  0  0  0  0
 24 22  1  0  0  0  0
 25 22  2  0  0  0  0
 26 25  1  0  0  0  0
 27 23  1  0  0  0  0
 28 24  2  0  0  0  0
M  END
>  <MODEL>
5

>  <REMARK>
 VINA RESULT:      -9.6      2.768      5.608
  Name = 
  2 active torsions:
  status: ('A' for Active; 'I' for Inactive)
    1  A    between atoms: N_1  and  C_2
    2  A    between atoms: C_2  and  C_3
                            x       y       z     vdW  Elec       q    Type
                         _______ _______ _______ _____ _____    ______ ____

>  <TORSDO>
F 2

$$$$
=
 OpenBabel11052413313D

 28 32  0  0  1  0  0  0  0  0999 V2000
  189.7590  177.7870  140.0110 N   0  0  0  0  0  0  0  0  0  0  0  0
  184.9960  178.6830  142.1510 C   0  0  0  0  0  2  0  0  0  0  0  0
  190.3560  177.1400  144.7210 O   0  0  0  0  0  0  0  0  0  0  0  0
  185.4660  178.1650  144.5940 C   0  0  0  0  0  0  0  0  0  0  0  0
  187.3020  178.0840  143.0030 C   0  0  0  0  0  0  0  0  0  0  0  0
  183.1120  178.4760  143.7570 C   0  0  1  0  0  3  0  0  0  0  0  0
  185.9430  178.3360  143.2750 C   0  0  0  0  0  0  0  0  0  0  0  0
  187.6390  177.5670  145.3400 C   0  0  0  0  0  3  0  0  0  0  0  0
  184.0430  178.4840  144.9640 C   0  0  0  0  0  2  0  0  0  0  0  0
  190.0680  177.4420  142.3860 C   0  0  0  0  0  0  0  0  0  0  0  0
  187.8430  178.2890  141.6100 C   0  0  0  0  0  2  0  0  0  0  0  0
  186.3250  177.8030  145.5820 N   0  0  0  0  0  0  0  0  0  0  0  0
  192.0350  177.5120  140.8130 C   0  0  0  0  0  2  0  0  0  0  0  0
  189.5720  177.4210  143.7750 C   0  0  0  0  0  0  0  0  0  0  0  0
  191.4780  176.9680  142.1230 C   0  0  0  0  0  2  0  0  0  0  0  0
  181.8700  178.9890  144.1250 O   0  0  0  0  0  1  0  0  0  0  0  0
  183.7070  179.3290  142.6490 C   0  0  0  0  0  2  0  0  0  0  0  0
  188.1560  177.7020  144.0490 C   0  0  0  0  0  0  0  0  0  0  0  0
  191.0540  177.1880  139.7030 C   0  0  0  0  0  2  0  0  0  0  0  0
  189.2510  177.7870  141.3640 C   0  0  0  0  0  0  0  0  0  0  0  0
  189.0580  178.4900  138.9420 C   0  0  0  0  0  2  0  0  0  0  0  0
  188.0940  177.5750  138.2650 C   0  0  0  0  0  0  0  0  0  0  0  0
  186.2990  175.8830  136.9460 C   0  0  0  0  0  0  0  0  0  0  0  0
  188.5210  176.3270  137.7970 C   0  0  0  0  0  3  0  0  0  0  0  0
  186.7680  177.9790  138.0640 C   0  0  0  0  0  3  0  0  0  0  0  0
  185.8710  177.1320  137.4070 C   0  0  0  0  0  3  0  0  0  0  0  0
  185.4070  175.0420  136.2940 O   0  0  0  0  0  1  0  0  0  0  0  0
  187.6240  175.4810  137.1400 C   0  0  0  0  0  3  0  0  0  0  0  0
  1 20  1  0  0  0  0
  2 17  1  0  0  0  0
  2  7  1  0  0  0  0
  4  9  1  0  0  0  0
  4 12  1  0  0  0  0
  5  7  1  0  0  0  0
  5 18  2  0  0  0  0
  6 16  1  1  0  0  0
  6  9  1  0  0  0  0
  7  4  2  0  0  0  0
  8 12  2  0  0  0  0
 10 14  1  0  0  0  0
 11  5  1  0  0  0  0
 13 15  1  0  0  0  0
 14 18  1  0  0  0  0
 14  3  2  0  0  0  0
 15 10  1  0  0  0  0
 17  6  1  0  0  0  0
 18  8  1  0  0  0  0
 19  1  1  0  0  0  0
 19 13  1  0  0  0  0
 20 11  1  0  0  0  0
 20 10  2  0  0  0  0
 21  1  1  0  0  0  0
 22 21  1  0  0  0  0
 23 28  2  0  0  0  0
 23 26  1  0  0  0  0
 24 22  2  0  0  0  0
 25 22  1  0  0  0  0
 26 25  2  0  0  0  0
 27 23  1  0  0  0  0
 28 24  1  0  0  0  0
M  END
>  <MODEL>
6

>  <REMARK>
 VINA RESULT:      -9.5      2.740      3.520
  Name = 
  2 active torsions:
  status: ('A' for Active; 'I' for Inactive)
    1  A    between atoms: N_1  and  C_2
    2  A    between atoms: C_2  and  C_3
                            x       y       z     vdW  Elec       q    Type
                         _______ _______ _______ _____ _____    ______ ____

>  <TORSDO>
F 2

$$$$
=
 OpenBabel11052413313D

 28 32  0  0  1  0  0  0  0  0999 V2000
  186.6800  178.4240  140.3570 N   0  0  0  0  0  0  0  0  0  0  0  0
  187.1260  177.9780  145.6170 C   0  0  0  0  0  2  0  0  0  0  0  0
  191.2270  177.1200  141.1260 O   0  0  0  0  0  0  0  0  0  0  0  0
  189.5230  177.1580  145.8240 C   0  0  0  0  0  0  0  0  0  0  0  0
  188.6600  177.7140  143.6210 C   0  0  0  0  0  0  0  0  0  0  0  0
  187.9600  177.1300  147.7980 C   0  0  1  0  0  3  0  0  0  0  0  0
  188.4700  177.6410  145.0150 C   0  0  0  0  0  0  0  0  0  0  0  0
  190.9110  176.8870  143.9170 C   0  0  0  0  0  3  0  0  0  0  0  0
  189.4090  177.1200  147.3230 C   0  0  0  0  0  2  0  0  0  0  0  0
  188.9740  177.7500  140.7320 C   0  0  0  0  0  0  0  0  0  0  0  0
  187.5620  178.2560  142.7380 C   0  0  0  0  0  2  0  0  0  0  0  0
  190.7080  176.8120  145.2570 N   0  0  0  0  0  0  0  0  0  0  0  0
  188.1870  178.4750  138.4510 C   0  0  0  0  0  2  0  0  0  0  0  0
  190.0990  177.3960  141.6170 C   0  0  0  0  0  0  0  0  0  0  0  0
  189.1690  177.6180  139.2410 C   0  0  0  0  0  2  0  0  0  0  0  0
  187.9260  177.3160  149.1790 O   0  0  0  0  0  1  0  0  0  0  0  0
  187.2100  178.2600  147.1140 C   0  0  0  0  0  2  0  0  0  0  0  0
  189.8950  177.3390  143.0720 C   0  0  0  0  0  0  0  0  0  0  0  0
  186.7810  178.1560  138.9250 C   0  0  0  0  0  2  0  0  0  0  0  0
  187.7700  178.0930  141.2470 C   0  0  0  0  0  0  0  0  0  0  0  0
  185.5060  179.1440  140.8370 C   0  0  0  0  0  2  0  0  0  0  0  0
  184.2840  178.6810  140.1170 C   0  0  0  0  0  0  0  0  0  0  0  0
  181.9610  177.8420  138.8040 C   0  0  0  0  0  0  0  0  0  0  0  0
  183.7580  179.4420  139.0670 C   0  0  0  0  0  3  0  0  0  0  0  0
  183.6400  177.5030  140.5150 C   0  0  0  0  0  3  0  0  0  0  0  0
  182.4810  177.0830  139.8570 C   0  0  0  0  0  3  0  0  0  0  0  0
  180.8090  177.4250  138.1510 O   0  0  0  0  0  1  0  0  0  0  0  0
  182.5990  179.0230  138.4100 C   0  0  0  0  0  3  0  0  0  0  0  0
  1 21  1  0  0  0  0
  1 20  1  0  0  0  0
  2 17  1  0  0  0  0
  3 14  2  0  0  0  0
  4  9  1  0  0  0  0
  5  7  1  0  0  0  0
  6 16  1  1  0  0  0
  7  2  1  0  0  0  0
  7  4  2  0  0  0  0
  8 12  2  0  0  0  0
  9  6  1  0  0  0  0
 10 20  2  0  0  0  0
 10 14  1  0  0  0  0
 11  5  1  0  0  0  0
 12  4  1  0  0  0  0
 13 19  1  0  0  0  0
 13 15  1  0  0  0  0
 14 18  1  0  0  0  0
 15 10  1  0  0  0  0
 17  6  1  0  0  0  0
 18  5  2  0  0  0  0
 18  8  1  0  0  0  0
 19  1  1  0  0  0  0
 20 11  1  0  0  0  0
 22 25  1  0  0  0  0
 22 21  1  0  0  0  0
 23 26  1  0  0  0  0
 24 22  2  0  0  0  0
 26 25  2  0  0  0  0
 27 23  1  0  0  0  0
 28 23  2  0  0  0  0
 28 24  1  0  0  0  0
M  END
>  <MODEL>
7

>  <REMARK>
 VINA RESULT:      -9.5      2.792      6.798
  Name = 
  2 active torsions:
  status: ('A' for Active; 'I' for Inactive)
    1  A    between atoms: N_1  and  C_2
    2  A    between atoms: C_2  and  C_3
                            x       y       z     vdW  Elec       q    Type
                         _______ _______ _______ _____ _____    ______ ____

>  <TORSDO>
F 2

$$$$
=
 OpenBabel11052413313D

 28 32  0  0  1  0  0  0  0  0999 V2000
  183.6290  178.5270  142.3750 N   0  0  0  0  0  0  0  0  0  0  0  0
  188.7870  177.3290  142.2310 C   0  0  0  0  0  2  0  0  0  0  0  0
  185.0280  178.4480  146.9570 O   0  0  0  0  0  0  0  0  0  0  0  0
  189.3780  177.4670  144.6990 C   0  0  0  0  0  0  0  0  0  0  0  0
  187.0640  177.7850  144.0270 C   0  0  0  0  0  0  0  0  0  0  0  0
  191.1690  177.2950  142.9380 C   0  0  1  0  0  3  0  0  0  0  0  0
  188.3990  177.4980  143.6810 C   0  0  0  0  0  0  0  0  0  0  0  0
  187.7330  177.9390  146.3440 C   0  0  0  0  0  3  0  0  0  0  0  0
  190.8070  177.1000  144.4060 C   0  0  0  0  0  2  0  0  0  0  0  0
  184.3280  178.5060  144.6920 C   0  0  0  0  0  0  0  0  0  0  0  0
  185.9940  177.7930  142.9630 C   0  0  0  0  0  2  0  0  0  0  0  0
  189.0150  177.6720  145.9920 N   0  0  0  0  0  0  0  0  0  0  0  0
  181.8920  178.6710  144.0680 C   0  0  0  0  0  2  0  0  0  0  0  0
  185.3440  178.3160  145.7430 C   0  0  0  0  0  0  0  0  0  0  0  0
  182.9640  179.0100  145.0970 C   0  0  0  0  0  2  0  0  0  0  0  0
  192.4210  176.7350  142.6900 O   0  0  0  0  0  1  0  0  0  0  0  0
  190.1260  176.6180  142.0630 C   0  0  0  0  0  2  0  0  0  0  0  0
  186.7310  178.0010  145.3720 C   0  0  0  0  0  0  0  0  0  0  0  0
  182.3580  179.1630  142.7110 C   0  0  0  0  0  2  0  0  0  0  0  0
  184.6400  178.3220  143.3870 C   0  0  0  0  0  0  0  0  0  0  0  0
  183.7940  177.9970  141.0260 C   0  0  0  0  0  2  0  0  0  0  0  0
  182.8040  178.6200  140.1000 C   0  0  0  0  0  0  0  0  0  0  0  0
  180.9670  179.7530  138.3210 C   0  0  0  0  0  0  0  0  0  0  0  0
  181.5130  178.0920  139.9950 C   0  0  0  0  0  3  0  0  0  0  0  0
  183.1780  179.7110  139.3060 C   0  0  0  0  0  3  0  0  0  0  0  0
  182.2580  180.2790  138.4200 C   0  0  0  0  0  3  0  0  0  0  0  0
  180.0540  180.3180  137.4410 O   0  0  0  0  0  1  0  0  0  0  0  0
  180.5940  178.6590  139.1080 C   0  0  0  0  0  3  0  0  0  0  0  0
  1 19  1  0  0  0  0
  1 20  1  0  0  0  0
  2  7  1  0  0  0  0
  4 12  1  0  0  0  0
  5 18  2  0  0  0  0
  6 16  1  1  0  0  0
  6  9  1  0  0  0  0
  7  5  1  0  0  0  0
  7  4  2  0  0  0  0
  9  4  1  0  0  0  0
 10 15  1  0  0  0  0
 10 14  1  0  0  0  0
 11 20  1  0  0  0  0
 11  5  1  0  0  0  0
 12  8  2  0  0  0  0
 13 15  1  0  0  0  0
 14  3  2  0  0  0  0
 17  2  1  0  0  0  0
 17  6  1  0  0  0  0
 18 14  1  0  0  0  0
 18  8  1  0  0  0  0
 19 13  1  0  0  0  0
 20 10  2  0  0  0  0
 21  1  1  0  0  0  0
 22 21  1  0  0  0  0
 23 26  2  0  0  0  0
 23 28  1  0  0  0  0
 24 22  1  0  0  0  0
 25 22  2  0  0  0  0
 26 25  1  0  0  0  0
 27 23  1  0  0  0  0
 28 24  2  0  0  0  0
M  END
>  <MODEL>
8

>  <REMARK>
 VINA RESULT:      -9.5      2.646      7.694
  Name = 
  2 active torsions:
  status: ('A' for Active; 'I' for Inactive)
    1  A    between atoms: N_1  and  C_2
    2  A    between atoms: C_2  and  C_3
                            x       y       z     vdW  Elec       q    Type
                         _______ _______ _______ _____ _____    ______ ____

>  <TORSDO>
F 2

$$$$
=
 OpenBabel11052413313D

 28 32  0  0  1  0  0  0  0  0999 V2000
  188.5600  177.6470  138.4610 N   0  0  0  0  0  0  0  0  0  0  0  0
  185.4440  178.6690  142.6210 C   0  0  0  0  0  2  0  0  0  0  0  0
  191.1750  176.4830  142.3040 O   0  0  0  0  0  0  0  0  0  0  0  0
  186.9210  177.8730  144.5300 C   0  0  0  0  0  0  0  0  0  0  0  0
  187.8000  177.8190  142.2650 C   0  0  0  0  0  0  0  0  0  0  0  0
  184.4970  178.4400  144.9070 C   0  0  1  0  0  3  0  0  0  0  0  0
  186.7560  178.1420  143.1530 C   0  0  0  0  0  0  0  0  0  0  0  0
  189.1120  177.0440  144.1420 C   0  0  0  0  0  3  0  0  0  0  0  0
  185.8730  178.2570  145.5380 C   0  0  0  0  0  2  0  0  0  0  0  0
  189.8840  177.0410  140.3940 C   0  0  0  0  0  0  0  0  0  0  0  0
  187.6610  178.1240  140.7930 C   0  0  0  0  0  2  0  0  0  0  0  0
  188.0910  177.3510  144.9810 N   0  0  0  0  0  0  0  0  0  0  0  0
  190.9040  177.1250  138.0910 C   0  0  0  0  0  2  0  0  0  0  0  0
  190.0810  176.9160  141.8500 C   0  0  0  0  0  0  0  0  0  0  0  0
  190.9520  176.4930  139.4780 C   0  0  0  0  0  2  0  0  0  0  0  0
  183.6290  179.0030  145.8400 O   0  0  0  0  0  1  0  0  0  0  0  0
  184.6100  179.3550  143.6990 C   0  0  0  0  0  2  0  0  0  0  0  0
  188.9900  177.2710  142.7680 C   0  0  0  0  0  0  0  0  0  0  0  0
  189.4930  176.9890  137.5510 C   0  0  0  0  0  2  0  0  0  0  0  0
  188.7330  177.5470  139.8920 C   0  0  0  0  0  0  0  0  0  0  0  0
  187.5310  178.5050  137.8830 C   0  0  0  0  0  2  0  0  0  0  0  0
  186.2460  177.7580  137.7560 C   0  0  0  0  0  0  0  0  0  0  0  0
  183.8230  176.3890  137.4700 C   0  0  0  0  0  0  0  0  0  0  0  0
  186.1890  176.5820  136.9990 C   0  0  0  0  0  3  0  0  0  0  0  0
  185.0850  178.2520  138.3630 C   0  0  0  0  0  3  0  0  0  0  0  0
  183.8750  177.5660  138.2220 C   0  0  0  0  0  3  0  0  0  0  0  0
  182.6210  175.7080  137.3310 O   0  0  0  0  0  1  0  0  0  0  0  0
  184.9800  175.8970  136.8570 C   0  0  0  0  0  3  0  0  0  0  0  0
  1 20  1  0  0  0  0
  2  7  1  0  0  0  0
  2 17  1  0  0  0  0
  4 12  1  0  0  0  0
  4  9  1  0  0  0  0
  5 18  2  0  0  0  0
  5  7  1  0  0  0  0
  6  9  1  0  0  0  0
  6 16  1  1  0  0  0
  7  4  2  0  0  0  0
  8 12  2  0  0  0  0
 10 14  1  0  0  0  0
 11  5  1  0  0  0  0
 13 15  1  0  0  0  0
 14  3  2  0  0  0  0
 14 18  1  0  0  0  0
 15 10  1  0  0  0  0
 17  6  1  0  0  0  0
 18  8  1  0  0  0  0
 19 13  1  0  0  0  0
 19  1  1  0  0  0  0
 20 10  2  0  0  0  0
 20 11  1  0  0  0  0
 21  1  1  0  0  0  0
 22 21  1  0  0  0  0
 22 25  1  0  0  0  0
 23 26  1  0  0  0  0
 24 22  2  0  0  0  0
 26 25  2  0  0  0  0
 27 23  1  0  0  0  0
 28 24  1  0  0  0  0
 28 23  2  0  0  0  0
M  END
>  <MODEL>
9

>  <REMARK>
 VINA RESULT:      -9.4      3.260      5.266
  Name = 
  2 active torsions:
  status: ('A' for Active; 'I' for Inactive)
    1  A    between atoms: N_1  and  C_2
    2  A    between atoms: C_2  and  C_3
                            x       y       z     vdW  Elec       q    Type
                         _______ _______ _______ _____ _____    ______ ____

>  <TORSDO>
F 2

$$$$
