=
 OpenBabel11052412463D

 25 27  0  0  1  0  0  0  0  0999 V2000
  188.8640  177.5250  145.0830 C   0  0  0  0  0  0  0  0  0  0  0  0
  187.5140  177.8940  144.9010 C   0  0  0  0  0  0  0  0  0  0  0  0
  188.5350  177.5660  147.4940 C   0  0  0  0  0  3  0  0  0  0  0  0
  187.1940  177.9100  147.3160 C   0  0  0  0  0  3  0  0  0  0  0  0
  185.3370  178.4430  145.8300 C   0  0  0  0  0  0  0  0  0  0  0  0
  184.4790  178.6210  146.9100 O   0  0  0  0  0  1  0  0  0  0  0  0
  187.0100  178.1050  143.6520 N   0  0  0  0  0  0  0  0  0  0  0  0
  189.3630  177.3800  146.3850 C   0  0  0  0  0  3  0  0  0  0  0  0
  184.8560  178.6340  144.5350 C   0  0  0  0  0  3  0  0  0  0  0  0
  185.7160  178.4670  143.4490 C   0  0  0  0  0  0  0  0  0  0  0  0
  186.6770  178.0780  146.0270 C   0  0  0  0  0  0  0  0  0  0  0  0
  189.7870  177.3080  143.9470 C   0  0  0  0  0  0  0  0  0  0  0  0
  191.3380  177.5210  142.2980 C   0  0  0  0  0  3  0  0  0  0  0  0
  189.7140  176.2510  142.9560 C   0  0  0  0  0  0  0  0  0  0  0  0
  190.7110  176.4380  141.9640 N   0  0  0  0  0  0  0  0  0  0  0  0
  191.1730  179.4070  144.1070 C   0  0  0  0  0  1  0  0  0  0  0  0
  188.8970  175.2930  142.9570 O   0  0  0  0  0  0  0  0  0  0  0  0
  190.7780  178.0900  143.5310 C   0  0  0  0  0  0  0  0  0  0  0  0
  185.2050  178.6500  142.0630 C   0  0  0  0  0  2  0  0  0  0  0  0
  184.0170  177.9150  141.8950 O   0  0  0  0  0  0  0  0  0  0  0  0
  183.0590  178.7190  141.2340 C   0  0  2  0  0  3  0  0  0  0  0  0
  181.6840  178.6650  141.8900 C   0  0  0  0  0  1  0  0  0  0  0  0
  182.9820  178.4690  139.7290 C   0  0  0  0  0  2  0  0  0  0  0  0
  183.0900  179.7790  138.9750 C   0  0  0  0  0  2  0  0  0  0  0  0
  184.3980  180.2550  139.0570 O   0  0  0  0  0  1  0  0  0  0  0  0
  1  8  1  0  0  0  0
  2  1  2  0  0  0  0
  2 11  1  0  0  0  0
  4  3  1  0  0  0  0
  5 11  1  0  0  0  0
  5  6  1  0  0  0  0
  7  2  1  0  0  0  0
  8  3  2  0  0  0  0
  9  5  2  0  0  0  0
 10  7  2  0  0  0  0
 10  9  1  0  0  0  0
 11  4  2  0  0  0  0
 12  1  1  0  0  0  0
 13 18  1  0  0  0  0
 14 17  2  0  0  0  0
 14 12  1  0  0  0  0
 15 13  2  0  0  0  0
 15 14  1  0  0  0  0
 18 12  2  0  0  0  0
 18 16  1  0  0  0  0
 19 10  1  0  0  0  0
 20 19  1  0  0  0  0
 21 22  1  1  0  0  0
 21 20  1  0  0  0  0
 23 21  1  0  0  0  0
 24 25  1  0  0  0  0
 24 23  1  0  0  0  0
M  END
>  <MODEL>
1

>  <REMARK>
 VINA RESULT:      -8.6      0.000      0.000
  Name = 
  6 active torsions:
  status: ('A' for Active; 'I' for Inactive)
    1  A    between atoms: C_1  and  C_5
    2  A    between atoms: C_2  and  C_12
    3  A    between atoms: C_6  and  O_15
    4  A    between atoms: C_6  and  C_23
    5  A    between atoms: C_12  and  C_21
    6  A    between atoms: O_15  and  C_21
                            x       y       z     vdW  Elec       q    Type
                         _______ _______ _______ _____ _____    ______ ____

>  <TORSDO>
F 6

$$$$
=
 OpenBabel11052412463D

 25 27  0  0  1  0  0  0  0  0999 V2000
  188.8470  177.5210  145.0950 C   0  0  0  0  0  0  0  0  0  0  0  0
  187.4840  177.8660  144.9760 C   0  0  0  0  0  0  0  0  0  0  0  0
  188.6450  177.6150  147.5180 C   0  0  0  0  0  3  0  0  0  0  0  0
  187.2920  177.9350  147.4030 C   0  0  0  0  0  3  0  0  0  0  0  0
  185.3510  178.4060  146.0060 C   0  0  0  0  0  0  0  0  0  0  0  0
  184.5480  178.5980  147.1260 O   0  0  0  0  0  1  0  0  0  0  0  0
  186.9110  178.0390  143.7510 N   0  0  0  0  0  0  0  0  0  0  0  0
  189.4160  177.4140  146.3710 C   0  0  0  0  0  3  0  0  0  0  0  0
  184.7980  178.5580  144.7350 C   0  0  0  0  0  3  0  0  0  0  0  0
  185.6020  178.3780  143.6080 C   0  0  0  0  0  0  0  0  0  0  0  0
  186.7040  178.0650  146.1400 C   0  0  0  0  0  0  0  0  0  0  0  0
  189.7120  177.2890  143.9170 C   0  0  0  0  0  0  0  0  0  0  0  0
  191.1900  177.4770  142.1980 C   0  0  0  0  0  3  0  0  0  0  0  0
  189.5700  176.2390  142.9260 C   0  0  0  0  0  0  0  0  0  0  0  0
  190.5250  176.4080  141.8900 N   0  0  0  0  0  0  0  0  0  0  0  0
  191.1480  179.3570  144.0200 C   0  0  0  0  0  1  0  0  0  0  0  0
  188.7340  175.2980  142.9610 O   0  0  0  0  0  0  0  0  0  0  0  0
  190.6990  178.0510  143.4580 C   0  0  0  0  0  0  0  0  0  0  0  0
  185.0160  178.5190  142.2480 C   0  0  0  0  0  2  0  0  0  0  0  0
  185.9960  178.9870  141.3550 O   0  0  0  0  0  0  0  0  0  0  0  0
  185.5090  178.8860  140.0310 C   0  0  2  0  0  3  0  0  0  0  0  0
  184.1170  178.2680  139.9540 C   0  0  0  0  0  1  0  0  0  0  0  0
  186.4850  178.2100  139.0690 C   0  0  0  0  0  2  0  0  0  0  0  0
  187.8650  178.1330  139.6920 C   0  0  0  0  0  2  0  0  0  0  0  0
  188.7280  178.9940  139.0170 O   0  0  0  0  0  1  0  0  0  0  0  0
  1  8  1  0  0  0  0
  2  1  2  0  0  0  0
  2 11  1  0  0  0  0
  4  3  1  0  0  0  0
  5 11  1  0  0  0  0
  5  6  1  0  0  0  0
  7  2  1  0  0  0  0
  8  3  2  0  0  0  0
  9  5  2  0  0  0  0
 10  7  2  0  0  0  0
 10  9  1  0  0  0  0
 11  4  2  0  0  0  0
 12  1  1  0  0  0  0
 13 18  1  0  0  0  0
 14 17  2  0  0  0  0
 14 12  1  0  0  0  0
 15 13  2  0  0  0  0
 15 14  1  0  0  0  0
 18 12  2  0  0  0  0
 18 16  1  0  0  0  0
 19 10  1  0  0  0  0
 20 19  1  0  0  0  0
 21 22  1  1  0  0  0
 21 20  1  0  0  0  0
 23 24  1  0  0  0  0
 23 21  1  0  0  0  0
 25 24  1  0  0  0  0
M  END
>  <MODEL>
2

>  <REMARK>
 VINA RESULT:      -8.5      1.492      1.814
  Name = 
  6 active torsions:
  status: ('A' for Active; 'I' for Inactive)
    1  A    between atoms: C_1  and  C_5
    2  A    between atoms: C_2  and  C_12
    3  A    between atoms: C_6  and  O_15
    4  A    between atoms: C_6  and  C_23
    5  A    between atoms: C_12  and  C_21
    6  A    between atoms: O_15  and  C_21
                            x       y       z     vdW  Elec       q    Type
                         _______ _______ _______ _____ _____    ______ ____

>  <TORSDO>
F 6

$$$$
=
 OpenBabel11052412463D

 25 27  0  0  1  0  0  0  0  0999 V2000
  189.6780  177.6200  141.8560 C   0  0  0  0  0  0  0  0  0  0  0  0
  188.3090  177.9610  141.8670 C   0  0  0  0  0  0  0  0  0  0  0  0
  189.7230  177.9320  139.4430 C   0  0  0  0  0  3  0  0  0  0  0  0
  188.3740  178.2910  139.4540 C   0  0  0  0  0  3  0  0  0  0  0  0
  186.3000  178.6450  140.6830 C   0  0  0  0  0  0  0  0  0  0  0  0
  185.6290  179.0020  139.5180 O   0  0  0  0  0  1  0  0  0  0  0  0
  187.5910  177.9370  143.0250 N   0  0  0  0  0  0  0  0  0  0  0  0
  190.3670  177.5950  140.6350 C   0  0  0  0  0  3  0  0  0  0  0  0
  185.6050  178.6230  141.8920 C   0  0  0  0  0  3  0  0  0  0  0  0
  186.2700  178.2550  143.0630 C   0  0  0  0  0  0  0  0  0  0  0  0
  187.6600  178.3060  140.6570 C   0  0  0  0  0  0  0  0  0  0  0  0
  190.4150  177.2610  143.0880 C   0  0  0  0  0  0  0  0  0  0  0  0
  191.6980  177.2600  144.9660 C   0  0  0  0  0  3  0  0  0  0  0  0
  190.7920  175.9280  143.5200 C   0  0  0  0  0  0  0  0  0  0  0  0
  191.5810  175.9970  144.6970 N   0  0  0  0  0  0  0  0  0  0  0  0
  191.0380  179.5610  143.9070 C   0  0  0  0  0  1  0  0  0  0  0  0
  190.4720  174.8500  142.9530 O   0  0  0  0  0  0  0  0  0  0  0  0
  190.9830  178.0730  143.9730 C   0  0  0  0  0  0  0  0  0  0  0  0
  185.5410  178.2480  144.3600 C   0  0  0  0  0  2  0  0  0  0  0  0
  186.0140  177.1960  145.1650 O   0  0  0  0  0  0  0  0  0  0  0  0
  186.4770  177.7200  146.3940 C   0  0  2  0  0  3  0  0  0  0  0  0
  185.7920  179.0260  146.7800 C   0  0  0  0  0  1  0  0  0  0  0  0
  187.9990  177.8280  146.4790 C   0  0  0  0  0  2  0  0  0  0  0  0
  188.5010  177.1650  147.7460 C   0  0  0  0  0  2  0  0  0  0  0  0
  189.8460  177.4790  147.9330 O   0  0  0  0  0  1  0  0  0  0  0  0
  1  2  1  0  0  0  0
  1 12  1  0  0  0  0
  2  7  1  0  0  0  0
  3  4  2  0  0  0  0
  3  8  1  0  0  0  0
  4 11  1  0  0  0  0
  5  9  2  0  0  0  0
  6  5  1  0  0  0  0
  7 10  2  0  0  0  0
  8  1  2  0  0  0  0
  9 10  1  0  0  0  0
 10 19  1  0  0  0  0
 11  5  1  0  0  0  0
 11  2  2  0  0  0  0
 12 14  1  0  0  0  0
 12 18  2  0  0  0  0
 14 15  1  0  0  0  0
 15 13  2  0  0  0  0
 16 18  1  0  0  0  0
 17 14  2  0  0  0  0
 18 13  1  0  0  0  0
 19 20  1  0  0  0  0
 20 21  1  0  0  0  0
 21 23  1  0  0  0  0
 21 22  1  6  0  0  0
 23 24  1  0  0  0  0
 24 25  1  0  0  0  0
M  END
>  <MODEL>
3

>  <REMARK>
 VINA RESULT:      -8.1      2.155      5.403
  Name = 
  6 active torsions:
  status: ('A' for Active; 'I' for Inactive)
    1  A    between atoms: C_1  and  C_5
    2  A    between atoms: C_2  and  C_12
    3  A    between atoms: C_6  and  O_15
    4  A    between atoms: C_6  and  C_23
    5  A    between atoms: C_12  and  C_21
    6  A    between atoms: O_15  and  C_21
                            x       y       z     vdW  Elec       q    Type
                         _______ _______ _______ _____ _____    ______ ____

>  <TORSDO>
F 6

$$$$
=
 OpenBabel11052412463D

 25 27  0  0  1  0  0  0  0  0999 V2000
  182.9240  178.4580  141.4810 C   0  0  0  0  0  0  0  0  0  0  0  0
  183.8890  178.4000  142.5090 C   0  0  0  0  0  0  0  0  0  0  0  0
  181.2280  179.0400  143.1260 C   0  0  0  0  0  3  0  0  0  0  0  0
  182.1840  179.0040  144.1420 C   0  0  0  0  0  3  0  0  0  0  0  0
  184.4840  178.6230  144.8550 C   0  0  0  0  0  0  0  0  0  0  0  0
  184.1570  178.9070  146.1770 O   0  0  0  0  0  1  0  0  0  0  0  0
  185.1770  178.0450  142.2400 N   0  0  0  0  0  0  0  0  0  0  0  0
  181.5950  178.7640  141.8080 C   0  0  0  0  0  3  0  0  0  0  0  0
  185.7950  178.2720  144.5340 C   0  0  0  0  0  3  0  0  0  0  0  0
  186.1250  177.9750  143.2110 C   0  0  0  0  0  0  0  0  0  0  0  0
  183.5140  178.6830  143.8450 C   0  0  0  0  0  0  0  0  0  0  0  0
  183.2560  178.1830  140.0660 C   0  0  0  0  0  0  0  0  0  0  0  0
  183.6150  177.2270  138.0340 C   0  0  0  0  0  3  0  0  0  0  0  0
  184.0700  179.0010  139.1880 C   0  0  0  0  0  0  0  0  0  0  0  0
  184.2480  178.3540  137.9380 N   0  0  0  0  0  0  0  0  0  0  0  0
  182.3110  175.8570  139.8440 C   0  0  0  0  0  1  0  0  0  0  0  0
  184.5550  180.1280  139.4690 O   0  0  0  0  0  0  0  0  0  0  0  0
  182.9890  177.0910  139.3560 C   0  0  0  0  0  0  0  0  0  0  0  0
  187.5260  177.6180  142.8580 C   0  0  0  0  0  2  0  0  0  0  0  0
  188.0140  176.6590  143.7640 O   0  0  0  0  0  0  0  0  0  0  0  0
  189.2690  177.0800  144.2610 C   0  0  2  0  0  3  0  0  0  0  0  0
  189.2340  177.4270  145.7450 C   0  0  0  0  0  1  0  0  0  0  0  0
  189.9150  178.1880  143.4320 C   0  0  0  0  0  2  0  0  0  0  0  0
  191.3060  177.7710  142.9950 C   0  0  0  0  0  2  0  0  0  0  0  0
  191.5000  176.4230  143.2870 O   0  0  0  0  0  1  0  0  0  0  0  0
  1  8  2  0  0  0  0
  1  2  1  0  0  0  0
  2 11  1  0  0  0  0
  3  4  2  0  0  0  0
  5  6  1  0  0  0  0
  7  2  2  0  0  0  0
  7 10  1  0  0  0  0
  8  3  1  0  0  0  0
  9  5  1  0  0  0  0
 10  9  2  0  0  0  0
 11  4  1  0  0  0  0
 11  5  2  0  0  0  0
 12  1  1  0  0  0  0
 13 18  1  0  0  0  0
 14 17  2  0  0  0  0
 14 12  1  0  0  0  0
 15 13  2  0  0  0  0
 15 14  1  0  0  0  0
 18 16  1  0  0  0  0
 18 12  2  0  0  0  0
 19 10  1  0  0  0  0
 19 20  1  0  0  0  0
 20 21  1  0  0  0  0
 21 22  1  1  0  0  0
 23 21  1  0  0  0  0
 24 25  1  0  0  0  0
 24 23  1  0  0  0  0
M  END
>  <MODEL>
4

>  <REMARK>
 VINA RESULT:      -7.7      1.939      6.829
  Name = 
  6 active torsions:
  status: ('A' for Active; 'I' for Inactive)
    1  A    between atoms: C_1  and  C_5
    2  A    between atoms: C_2  and  C_12
    3  A    between atoms: C_6  and  O_15
    4  A    between atoms: C_6  and  C_23
    5  A    between atoms: C_12  and  C_21
    6  A    between atoms: O_15  and  C_21
                            x       y       z     vdW  Elec       q    Type
                         _______ _______ _______ _____ _____    ______ ____

>  <TORSDO>
F 6

$$$$
=
 OpenBabel11052412463D

 25 27  0  0  1  0  0  0  0  0999 V2000
  190.0290  177.2470  144.9650 C   0  0  0  0  0  0  0  0  0  0  0  0
  188.9480  177.6490  145.7800 C   0  0  0  0  0  0  0  0  0  0  0  0
  191.3280  176.7470  146.9620 C   0  0  0  0  0  3  0  0  0  0  0  0
  190.2540  177.1240  147.7690 C   0  0  0  0  0  3  0  0  0  0  0  0
  187.9810  177.9790  147.9840 C   0  0  0  0  0  0  0  0  0  0  0  0
  188.0510  177.9120  149.3720 O   0  0  0  0  0  1  0  0  0  0  0  0
  187.8000  178.1340  145.2280 N   0  0  0  0  0  0  0  0  0  0  0  0
  191.2160  176.8130  145.5720 C   0  0  0  0  0  3  0  0  0  0  0  0
  186.8180  178.4550  147.3800 C   0  0  0  0  0  3  0  0  0  0  0  0
  186.7480  178.5340  145.9880 C   0  0  0  0  0  0  0  0  0  0  0  0
  189.0640  177.5770  147.1890 C   0  0  0  0  0  0  0  0  0  0  0  0
  189.9660  177.2880  143.4880 C   0  0  0  0  0  0  0  0  0  0  0  0
  189.4660  176.9550  141.2950 C   0  0  0  0  0  3  0  0  0  0  0  0
  190.9810  177.8020  142.5880 C   0  0  0  0  0  0  0  0  0  0  0  0
  190.6050  177.5710  141.2390 N   0  0  0  0  0  0  0  0  0  0  0  0
  187.8580  175.9600  143.1060 C   0  0  0  0  0  1  0  0  0  0  0  0
  192.0470  178.3790  142.9290 O   0  0  0  0  0  0  0  0  0  0  0  0
  189.0450  176.7600  142.6880 C   0  0  0  0  0  0  0  0  0  0  0  0
  185.5030  179.0230  145.3350 C   0  0  0  0  0  2  0  0  0  0  0  0
  185.0470  178.0690  144.4080 O   0  0  0  0  0  0  0  0  0  0  0  0
  184.2200  178.7020  143.4520 C   0  0  2  0  0  3  0  0  0  0  0  0
  182.7380  178.6200  143.8000 C   0  0  0  0  0  1  0  0  0  0  0  0
  184.4920  178.2590  142.0160 C   0  0  0  0  0  2  0  0  0  0  0  0
  185.5970  179.1010  141.4090 C   0  0  0  0  0  2  0  0  0  0  0  0
  185.2810  179.3950  140.0830 O   0  0  0  0  0  1  0  0  0  0  0  0
  1  8  2  0  0  0  0
  1  2  1  0  0  0  0
  2 11  1  0  0  0  0
  3  4  2  0  0  0  0
  5  6  1  0  0  0  0
  7  2  2  0  0  0  0
  7 10  1  0  0  0  0
  8  3  1  0  0  0  0
  9  5  1  0  0  0  0
 10  9  2  0  0  0  0
 11  4  1  0  0  0  0
 11  5  2  0  0  0  0
 12  1  1  0  0  0  0
 13 18  1  0  0  0  0
 14 17  2  0  0  0  0
 14 12  1  0  0  0  0
 15 13  2  0  0  0  0
 15 14  1  0  0  0  0
 18 16  1  0  0  0  0
 18 12  2  0  0  0  0
 19 10  1  0  0  0  0
 20 19  1  0  0  0  0
 21 22  1  1  0  0  0
 21 20  1  0  0  0  0
 23 21  1  0  0  0  0
 24 23  1  0  0  0  0
 25 24  1  0  0  0  0
M  END
>  <MODEL>
5

>  <REMARK>
 VINA RESULT:      -7.4      1.845      2.834
  Name = 
  6 active torsions:
  status: ('A' for Active; 'I' for Inactive)
    1  A    between atoms: C_1  and  C_5
    2  A    between atoms: C_2  and  C_12
    3  A    between atoms: C_6  and  O_15
    4  A    between atoms: C_6  and  C_23
    5  A    between atoms: C_12  and  C_21
    6  A    between atoms: O_15  and  C_21
                            x       y       z     vdW  Elec       q    Type
                         _______ _______ _______ _____ _____    ______ ____

>  <TORSDO>
F 6

$$$$
=
 OpenBabel11052412463D

 25 27  0  0  1  0  0  0  0  0999 V2000
  183.0740  178.4500  141.5700 C   0  0  0  0  0  0  0  0  0  0  0  0
  184.0880  178.3830  142.5500 C   0  0  0  0  0  0  0  0  0  0  0  0
  181.4690  179.0620  143.2940 C   0  0  0  0  0  3  0  0  0  0  0  0
  182.4740  179.0170  144.2610 C   0  0  0  0  0  3  0  0  0  0  0  0
  184.8010  178.6070  144.8620 C   0  0  0  0  0  0  0  0  0  0  0  0
  184.5440  178.9010  146.1970 O   0  0  0  0  0  1  0  0  0  0  0  0
  185.3560  178.0090  142.2180 N   0  0  0  0  0  0  0  0  0  0  0  0
  181.7670  178.7760  141.9600 C   0  0  0  0  0  3  0  0  0  0  0  0
  186.0890  178.2360  144.4790 C   0  0  0  0  0  3  0  0  0  0  0  0
  186.3490  177.9290  143.1420 C   0  0  0  0  0  0  0  0  0  0  0  0
  183.7830  178.6770  143.9000 C   0  0  0  0  0  0  0  0  0  0  0  0
  183.3320  178.1640  140.1420 C   0  0  0  0  0  0  0  0  0  0  0  0
  183.5500  177.2020  138.0920 C   0  0  0  0  0  3  0  0  0  0  0  0
  184.1600  178.9370  139.2350 C   0  0  0  0  0  0  0  0  0  0  0  0
  184.2480  178.2880  137.9760 N   0  0  0  0  0  0  0  0  0  0  0  0
  182.2360  175.9030  139.9470 C   0  0  0  0  0  1  0  0  0  0  0  0
  184.7250  180.0300  139.5010 O   0  0  0  0  0  0  0  0  0  0  0  0
  182.9700  177.0960  139.4380 C   0  0  0  0  0  0  0  0  0  0  0  0
  187.7260  177.5510  142.7220 C   0  0  0  0  0  2  0  0  0  0  0  0
  188.1000  178.2990  141.5910 O   0  0  0  0  0  0  0  0  0  0  0  0
  188.8690  177.4860  140.7260 C   0  0  2  0  0  3  0  0  0  0  0  0
  190.0920  176.8840  141.4090 C   0  0  0  0  0  1  0  0  0  0  0  0
  189.2300  178.1660  139.4070 C   0  0  0  0  0  2  0  0  0  0  0  0
  188.2540  177.7560  138.3220 C   0  0  0  0  0  2  0  0  0  0  0  0
  187.5300  178.8710  137.9040 O   0  0  0  0  0  1  0  0  0  0  0  0
  1  8  2  0  0  0  0
  1  2  1  0  0  0  0
  2 11  1  0  0  0  0
  3  4  2  0  0  0  0
  5  6  1  0  0  0  0
  7  2  2  0  0  0  0
  7 10  1  0  0  0  0
  8  3  1  0  0  0  0
  9  5  1  0  0  0  0
 10  9  2  0  0  0  0
 11  4  1  0  0  0  0
 11  5  2  0  0  0  0
 12  1  1  0  0  0  0
 13 18  1  0  0  0  0
 14 17  2  0  0  0  0
 14 12  1  0  0  0  0
 15 13  2  0  0  0  0
 15 14  1  0  0  0  0
 18 16  1  0  0  0  0
 18 12  2  0  0  0  0
 19 10  1  0  0  0  0
 20 19  1  0  0  0  0
 21 22  1  1  0  0  0
 21 20  1  0  0  0  0
 23 21  1  0  0  0  0
 24 23  1  0  0  0  0
 25 24  1  0  0  0  0
M  END
>  <MODEL>
6

>  <REMARK>
 VINA RESULT:      -7.4      2.465      6.244
  Name = 
  6 active torsions:
  status: ('A' for Active; 'I' for Inactive)
    1  A    between atoms: C_1  and  C_5
    2  A    between atoms: C_2  and  C_12
    3  A    between atoms: C_6  and  O_15
    4  A    between atoms: C_6  and  C_23
    5  A    between atoms: C_12  and  C_21
    6  A    between atoms: O_15  and  C_21
                            x       y       z     vdW  Elec       q    Type
                         _______ _______ _______ _____ _____    ______ ____

>  <TORSDO>
F 6

$$$$
=
 OpenBabel11052412463D

 25 27  0  0  1  0  0  0  0  0999 V2000
  188.6930  177.8290  144.9480 C   0  0  0  0  0  0  0  0  0  0  0  0
  187.3450  178.0970  144.6230 C   0  0  0  0  0  0  0  0  0  0  0  0
  188.1160  177.8740  147.3110 C   0  0  0  0  0  3  0  0  0  0  0  0
  186.7800  178.1180  146.9920 C   0  0  0  0  0  3  0  0  0  0  0  0
  185.0510  178.4990  145.3160 C   0  0  0  0  0  0  0  0  0  0  0  0
  184.0770  178.6270  146.3000 O   0  0  0  0  0  1  0  0  0  0  0  0
  186.9580  178.2560  143.3260 N   0  0  0  0  0  0  0  0  0  0  0  0
  189.0640  177.7350  146.2960 C   0  0  0  0  0  3  0  0  0  0  0  0
  184.6930  178.6390  143.9750 C   0  0  0  0  0  3  0  0  0  0  0  0
  185.6690  178.5220  142.9850 C   0  0  0  0  0  0  0  0  0  0  0  0
  186.3860  178.2340  145.6540 C   0  0  0  0  0  0  0  0  0  0  0  0
  189.7390  177.6650  143.9150 C   0  0  0  0  0  0  0  0  0  0  0  0
  191.2010  176.8630  142.3680 C   0  0  0  0  0  3  0  0  0  0  0  0
  190.8040  178.5990  143.5990 C   0  0  0  0  0  0  0  0  0  0  0  0
  191.6720  178.0430  142.6240 N   0  0  0  0  0  0  0  0  0  0  0  0
  189.2930  175.2850  143.2180 C   0  0  0  0  0  1  0  0  0  0  0  0
  190.9530  179.7450  144.0980 O   0  0  0  0  0  0  0  0  0  0  0  0
  189.9960  176.5980  143.1650 C   0  0  0  0  0  0  0  0  0  0  0  0
  185.2910  178.6510  141.5510 C   0  0  0  0  0  2  0  0  0  0  0  0
  183.9220  178.9560  141.4480 O   0  0  0  0  0  0  0  0  0  0  0  0
  183.4600  178.6000  140.1600 C   0  0  2  0  0  3  0  0  0  0  0  0
  183.8150  179.6310  139.0940 C   0  0  0  0  0  1  0  0  0  0  0  0
  181.9780  178.2300  140.1210 C   0  0  0  0  0  2  0  0  0  0  0  0
  181.8160  176.7480  139.8460 C   0  0  0  0  0  2  0  0  0  0  0  0
  183.0090  176.2370  139.3390 O   0  0  0  0  0  1  0  0  0  0  0  0
  1  8  1  0  0  0  0
  2  1  2  0  0  0  0
  2 11  1  0  0  0  0
  4  3  1  0  0  0  0
  5 11  1  0  0  0  0
  5  6  1  0  0  0  0
  7  2  1  0  0  0  0
  8  3  2  0  0  0  0
  9  5  2  0  0  0  0
 10  7  2  0  0  0  0
 10  9  1  0  0  0  0
 11  4  2  0  0  0  0
 12  1  1  0  0  0  0
 13 15  2  0  0  0  0
 13 18  1  0  0  0  0
 14 12  1  0  0  0  0
 14 17  2  0  0  0  0
 15 14  1  0  0  0  0
 18 16  1  0  0  0  0
 18 12  2  0  0  0  0
 19 10  1  0  0  0  0
 20 19  1  0  0  0  0
 21 22  1  6  0  0  0
 21 20  1  0  0  0  0
 23 21  1  0  0  0  0
 24 23  1  0  0  0  0
 25 24  1  0  0  0  0
M  END
>  <MODEL>
7

>  <REMARK>
 VINA RESULT:      -7.3      1.456      2.110
  Name = 
  6 active torsions:
  status: ('A' for Active; 'I' for Inactive)
    1  A    between atoms: C_1  and  C_5
    2  A    between atoms: C_2  and  C_12
    3  A    between atoms: C_6  and  O_15
    4  A    between atoms: C_6  and  C_23
    5  A    between atoms: C_12  and  C_21
    6  A    between atoms: O_15  and  C_21
                            x       y       z     vdW  Elec       q    Type
                         _______ _______ _______ _____ _____    ______ ____

>  <TORSDO>
F 6

$$$$
=
 OpenBabel11052412463D

 25 27  0  0  1  0  0  0  0  0999 V2000
  187.5610  177.6840  145.6740 C   0  0  0  0  0  0  0  0  0  0  0  0
  188.9520  177.5470  145.4730 C   0  0  0  0  0  0  0  0  0  0  0  0
  187.8670  177.1690  148.0320 C   0  0  0  0  0  3  0  0  0  0  0  0
  189.2440  177.0530  147.8400 C   0  0  0  0  0  3  0  0  0  0  0  0
  191.1740  177.1050  146.3520 C   0  0  0  0  0  0  0  0  0  0  0  0
  192.0360  176.8150  147.4030 O   0  0  0  0  0  1  0  0  0  0  0  0
  189.4940  177.6800  144.2290 N   0  0  0  0  0  0  0  0  0  0  0  0
  187.0330  177.4770  146.9560 C   0  0  0  0  0  3  0  0  0  0  0  0
  191.6910  177.2640  145.0660 C   0  0  0  0  0  3  0  0  0  0  0  0
  190.8280  177.5460  144.0060 C   0  0  0  0  0  0  0  0  0  0  0  0
  189.7950  177.2370  146.5670 C   0  0  0  0  0  0  0  0  0  0  0  0
  186.6300  178.0170  144.5740 C   0  0  0  0  0  0  0  0  0  0  0  0
  184.8660  178.7020  143.3130 C   0  0  0  0  0  3  0  0  0  0  0  0
  186.6620  177.4980  143.2190 C   0  0  0  0  0  0  0  0  0  0  0  0
  185.5430  177.9680  142.4860 N   0  0  0  0  0  0  0  0  0  0  0  0
  184.9300  179.3790  145.8410 C   0  0  0  0  0  1  0  0  0  0  0  0
  187.5480  176.7430  142.7390 O   0  0  0  0  0  0  0  0  0  0  0  0
  185.5200  178.7450  144.6270 C   0  0  0  0  0  0  0  0  0  0  0  0
  191.3750  177.7360  142.6350 C   0  0  0  0  0  2  0  0  0  0  0  0
  190.3480  177.5780  141.6880 O   0  0  0  0  0  0  0  0  0  0  0  0
  190.8860  177.0290  140.5010 C   0  0  2  0  0  3  0  0  0  0  0  0
  192.3070  177.5030  140.2180 C   0  0  0  0  0  1  0  0  0  0  0  0
  189.9780  177.1940  139.2830 C   0  0  0  0  0  2  0  0  0  0  0  0
  188.9080  178.2300  139.5640 C   0  0  0  0  0  2  0  0  0  0  0  0
  189.0550  179.3000  138.6830 O   0  0  0  0  0  1  0  0  0  0  0  0
  1  8  1  0  0  0  0
  2  1  2  0  0  0  0
  2 11  1  0  0  0  0
  4  3  1  0  0  0  0
  5 11  1  0  0  0  0
  5  6  1  0  0  0  0
  7  2  1  0  0  0  0
  8  3  2  0  0  0  0
  9  5  2  0  0  0  0
 10  7  2  0  0  0  0
 10  9  1  0  0  0  0
 11  4  2  0  0  0  0
 12 18  2  0  0  0  0
 12  1  1  0  0  0  0
 13 18  1  0  0  0  0
 14 12  1  0  0  0  0
 15 14  1  0  0  0  0
 15 13  2  0  0  0  0
 17 14  2  0  0  0  0
 18 16  1  0  0  0  0
 19 10  1  0  0  0  0
 20 19  1  0  0  0  0
 21 22  1  6  0  0  0
 21 20  1  0  0  0  0
 23 24  1  0  0  0  0
 23 21  1  0  0  0  0
 25 24  1  0  0  0  0
M  END
>  <MODEL>
8

>  <REMARK>
 VINA RESULT:      -7.2      2.525      5.472
  Name = 
  6 active torsions:
  status: ('A' for Active; 'I' for Inactive)
    1  A    between atoms: C_1  and  C_5
    2  A    between atoms: C_2  and  C_12
    3  A    between atoms: C_6  and  O_15
    4  A    between atoms: C_6  and  C_23
    5  A    between atoms: C_12  and  C_21
    6  A    between atoms: O_15  and  C_21
                            x       y       z     vdW  Elec       q    Type
                         _______ _______ _______ _____ _____    ______ ____

>  <TORSDO>
F 6

$$$$
=
 OpenBabel11052412463D

 25 27  0  0  1  0  0  0  0  0999 V2000
  190.6750  176.7580  137.9690 C   0  0  0  0  0  0  0  0  0  0  0  0
  190.0480  176.9940  139.2110 C   0  0  0  0  0  0  0  0  0  0  0  0
  188.9440  178.0630  136.8630 C   0  0  0  0  0  3  0  0  0  0  0  0
  188.3340  178.3160  138.0920 C   0  0  0  0  0  3  0  0  0  0  0  0
  188.2640  178.0120  140.5100 C   0  0  0  0  0  0  0  0  0  0  0  0
  187.1180  178.7940  140.6090 O   0  0  0  0  0  1  0  0  0  0  0  0
  190.5400  176.4460  140.3580 N   0  0  0  0  0  0  0  0  0  0  0  0
  190.1030  177.2870  136.8030 C   0  0  0  0  0  3  0  0  0  0  0  0
  188.8080  177.4460  141.6620 C   0  0  0  0  0  3  0  0  0  0  0  0
  189.9520  176.6520  141.5650 C   0  0  0  0  0  0  0  0  0  0  0  0
  188.8750  177.7850  139.2680 C   0  0  0  0  0  0  0  0  0  0  0  0
  191.9080  175.9500  137.8440 C   0  0  0  0  0  0  0  0  0  0  0  0
  193.4300  174.2830  137.5620 C   0  0  0  0  0  3  0  0  0  0  0  0
  193.2300  176.2970  138.3300 C   0  0  0  0  0  0  0  0  0  0  0  0
  194.1310  175.2220  138.1170 N   0  0  0  0  0  0  0  0  0  0  0  0
  190.9370  173.8200  136.9110 C   0  0  0  0  0  1  0  0  0  0  0  0
  193.5570  177.3900  138.8630 O   0  0  0  0  0  0  0  0  0  0  0  0
  192.0350  174.7090  137.3850 C   0  0  0  0  0  0  0  0  0  0  0  0
  190.5500  176.0600  142.7930 C   0  0  0  0  0  2  0  0  0  0  0  0
  190.9500  177.0860  143.6680 O   0  0  0  0  0  0  0  0  0  0  0  0
  190.5310  176.7720  144.9810 C   0  0  2  0  0  3  0  0  0  0  0  0
  189.6110  177.8300  145.5810 C   0  0  0  0  0  1  0  0  0  0  0  0
  191.6800  176.4170  145.9230 C   0  0  0  0  0  2  0  0  0  0  0  0
  191.2800  176.6840  147.3610 C   0  0  0  0  0  2  0  0  0  0  0  0
  192.4150  176.6650  148.1700 O   0  0  0  0  0  1  0  0  0  0  0  0
  1  2  1  0  0  0  0
  2 11  2  0  0  0  0
  2  7  1  0  0  0  0
  3  4  2  0  0  0  0
  4 11  1  0  0  0  0
  5  6  1  0  0  0  0
  5  9  2  0  0  0  0
  7 10  2  0  0  0  0
  8  3  1  0  0  0  0
  8  1  2  0  0  0  0
 10  9  1  0  0  0  0
 10 19  1  0  0  0  0
 11  5  1  0  0  0  0
 12  1  1  0  0  0  0
 12 14  1  0  0  0  0
 13 15  2  0  0  0  0
 14 17  2  0  0  0  0
 15 14  1  0  0  0  0
 16 18  1  0  0  0  0
 18 13  1  0  0  0  0
 18 12  2  0  0  0  0
 19 20  1  0  0  0  0
 20 21  1  0  0  0  0
 21 22  1  1  0  0  0
 21 23  1  0  0  0  0
 23 24  1  0  0  0  0
 24 25  1  0  0  0  0
M  END
>  <MODEL>
9

>  <REMARK>
 VINA RESULT:      -7.2      4.303      7.950
  Name = 
  6 active torsions:
  status: ('A' for Active; 'I' for Inactive)
    1  A    between atoms: C_1  and  C_5
    2  A    between atoms: C_2  and  C_12
    3  A    between atoms: C_6  and  O_15
    4  A    between atoms: C_6  and  C_23
    5  A    between atoms: C_12  and  C_21
    6  A    between atoms: O_15  and  C_21
                            x       y       z     vdW  Elec       q    Type
                         _______ _______ _______ _____ _____    ______ ____

>  <TORSDO>
F 6

$$$$
