=
 OpenBabel11052415173D

 37 43  0  0  1  0  0  0  0  0999 V2000
  187.9180  177.6230  145.4180 C   0  0  1  0  0  0  0  0  0  0  0  0
  190.9560  176.8230  143.7090 C   0  0  0  0  0  0  0  0  0  0  0  0
  188.5010  177.7190  141.0720 C   0  0  1  0  0  3  0  0  0  0  0  0
  187.2880  178.0210  146.7670 C   0  0  1  0  0  3  0  0  0  0  0  0
  185.7140  179.6170  142.4180 C   0  0  0  0  0  2  0  0  0  0  0  0
  191.4130  176.9730  141.2780 C   0  0  0  0  0  3  0  0  0  0  0  0
  187.0100  177.9550  141.3870 C   0  0  2  0  0  3  0  0  0  0  0  0
  185.2040  178.7180  145.5780 C   0  0  0  0  0  0  0  0  0  0  0  0
  189.0500  176.6240  141.9590 C   0  0  0  0  0  2  0  0  0  0  0  0
  186.4660  178.8970  140.3490 C   0  0  2  0  0  3  0  0  0  0  0  0
  191.2000  177.0380  139.8170 C   0  0  0  0  0  3  0  0  0  0  0  0
  185.7590  178.0220  146.7740 C   0  0  0  0  0  2  0  0  0  0  0  0
  189.4470  177.4860  145.4580 C   0  0  1  0  0  3  0  0  0  0  0  0
  191.6630  178.1510  144.0360 C   0  0  0  0  0  1  0  0  0  0  0  0
  187.7990  177.9220  138.5690 C   0  0  0  0  0  2  0  0  0  0  0  0
  190.0580  177.1320  139.1270 C   0  0  0  0  0  3  0  0  0  0  0  0
  189.8440  176.4890  144.5390 O   0  0  0  0  0  0  0  0  0  0  0  0
  184.8620  177.9040  144.3730 C   0  0  0  0  0  2  0  0  0  0  0  0
  186.7100  178.5590  142.6990 N   0  0  2  0  0  0  0  0  0  0  0  0
  188.6410  177.1740  139.6270 C   0  0  1  0  0  3  0  0  0  0  0  0
  187.1560  176.7490  144.3930 C   0  0  0  0  0  2  0  0  0  0  0  0
  190.5030  176.8350  142.2570 C   0  0  0  0  0  0  0  0  0  0  0  0
  185.2380  179.4900  140.9790 C   0  0  1  0  0  3  0  0  0  0  0  0
  191.9910  175.7230  143.8910 C   0  0  0  0  0  1  0  0  0  0  0  0
  186.1100  177.5020  143.5500 C   0  0  1  0  0  3  0  0  0  0  0  0
  185.0840  179.9320  145.5660 O   0  0  0  0  0  0  0  0  0  0  0  0
  188.7840  178.6950  144.7960 C   0  0  0  0  0  2  0  0  0  0  0  0
  186.3640  178.1880  139.0200 C   0  0  0  0  0  2  0  0  0  0  0  0
  182.8250  178.9520  141.6220 C   0  0  0  0  0  3  0  0  0  0  0  0
  183.9910  178.6390  140.9010 C   0  0  0  0  0  0  0  0  0  0  0  0
  183.9660  177.5670  140.0010 C   0  0  0  0  0  3  0  0  0  0  0  0
  182.7830  175.7730  138.9660 F   0  0  0  0  0  0  0  0  0  0  0  0
  181.6490  177.1260  140.5610 C   0  0  0  0  0  3  0  0  0  0  0  0
  182.7990  176.8130  139.8330 C   0  0  0  0  0  0  0  0  0  0  0  0
  181.6620  178.1960  141.4580 C   0  0  0  0  0  3  0  0  0  0  0  0
  188.5410  177.9270  148.8230 O   0  0  0  0  0  1  0  0  0  0  0  0
  187.7970  177.1590  147.9210 C   0  0  0  0  0  2  0  0  0  0  0  0
  1 21  1  6  0  0  0
  1 13  1  0  0  0  0
  1  4  1  0  0  0  0
  2 24  1  0  0  0  0
  2 14  1  0  0  0  0
  2 17  1  0  0  0  0
  3  7  1  0  0  0  0
  3  9  1  1  0  0  0
  4 12  1  0  0  0  0
  4 37  1  1  0  0  0
  5 19  1  0  0  0  0
  6 22  2  0  0  0  0
  7 19  1  0  0  0  0
  8 12  1  0  0  0  0
  9 22  1  0  0  0  0
 10 23  1  0  0  0  0
 10  7  1  0  0  0  0
 11  6  1  0  0  0  0
 15 28  1  0  0  0  0
 15 20  1  0  0  0  0
 16 20  1  0  0  0  0
 16 11  2  0  0  0  0
 17 13  1  0  0  0  0
 18  8  1  0  0  0  0
 19 25  1  0  0  0  0
 20  3  1  0  0  0  0
 22  2  1  0  0  0  0
 23  5  1  0  0  0  0
 25 18  1  0  0  0  0
 25 21  1  0  0  0  0
 26  8  2  0  0  0  0
 27  1  1  0  0  0  0
 27 13  1  0  0  0  0
 28 10  1  0  0  0  0
 30 23  1  0  0  0  0
 30 29  2  0  0  0  0
 31 30  1  0  0  0  0
 32 34  1  0  0  0  0
 33 35  2  0  0  0  0
 34 31  2  0  0  0  0
 34 33  1  0  0  0  0
 35 29  1  0  0  0  0
 37 36  1  0  0  0  0
M  END
>  <MODEL>
1

>  <REMARK>
 VINA RESULT:      -8.6      0.000      0.000
  Name = 
  2 active torsions:
  status: ('A' for Active; 'I' for Inactive)
    1  A    between atoms: C_5  and  C_23
    2  A    between atoms: C_6  and  C_31
                            x       y       z     vdW  Elec       q    Type
                         _______ _______ _______ _____ _____    ______ ____

>  <TORSDO>
F 2

$$$$
=
 OpenBabel11052415173D

 37 43  0  0  1  0  0  0  0  0999 V2000
  188.5130  177.6180  140.9580 C   0  0  1  0  0  0  0  0  0  0  0  0
  185.1310  178.3460  141.8650 C   0  0  0  0  0  0  0  0  0  0  0  0
  187.0340  178.1770  145.0490 C   0  0  1  0  0  3  0  0  0  0  0  0
  189.5500  177.6260  139.8180 C   0  0  1  0  0  3  0  0  0  0  0  0
  190.6030  178.5600  144.5050 C   0  0  0  0  0  2  0  0  0  0  0  0
  184.2330  178.8030  144.1290 C   0  0  0  0  0  3  0  0  0  0  0  0
  188.5010  177.7050  145.1020 C   0  0  2  0  0  3  0  0  0  0  0  0
  191.3840  177.3740  141.4980 C   0  0  0  0  0  0  0  0  0  0  0  0
  186.2800  177.4010  143.9930 C   0  0  0  0  0  2  0  0  0  0  0  0
  189.1470  178.3540  146.2940 C   0  0  2  0  0  3  0  0  0  0  0  0
  184.1040  178.8360  145.6010 C   0  0  0  0  0  3  0  0  0  0  0  0
  190.8740  176.9430  140.1650 C   0  0  0  0  0  2  0  0  0  0  0  0
  187.1400  178.1780  140.5570 C   0  0  1  0  0  3  0  0  0  0  0  0
  185.1890  179.8320  141.4680 C   0  0  0  0  0  1  0  0  0  0  0  0
  187.1450  178.1660  147.6540 C   0  0  0  0  0  2  0  0  0  0  0  0
  184.9710  178.4440  146.5410 C   0  0  0  0  0  3  0  0  0  0  0  0
  186.1370  177.5100  141.2950 O   0  0  0  0  0  0  0  0  0  0  0  0
  191.0340  176.5540  142.6960 C   0  0  0  0  0  2  0  0  0  0  0  0
  189.3370  178.0460  143.9350 N   0  0  2  0  0  0  0  0  0  0  0  0
  186.3310  177.8230  146.3860 C   0  0  1  0  0  3  0  0  0  0  0  0
  188.5420  176.5470  142.0740 C   0  0  0  0  0  2  0  0  0  0  0  0
  185.1880  178.2240  143.3810 C   0  0  0  0  0  0  0  0  0  0  0  0
  190.6200  178.3030  146.0040 C   0  0  1  0  0  3  0  0  0  0  0  0
  183.7900  177.8170  141.3810 C   0  0  0  0  0  1  0  0  0  0  0  0
  189.5830  176.7930  143.1820 C   0  0  1  0  0  3  0  0  0  0  0  0
  192.0250  178.4060  141.6140 O   0  0  0  0  0  0  0  0  0  0  0  0
  188.0960  178.9930  141.4280 C   0  0  0  0  0  2  0  0  0  0  0  0
  188.6090  177.7400  147.5640 C   0  0  0  0  0  2  0  0  0  0  0  0
  191.6270  176.0600  145.3100 C   0  0  0  0  0  3  0  0  0  0  0  0
  191.3010  176.9890  146.3140 C   0  0  0  0  0  0  0  0  0  0  0  0
  191.7120  176.7420  147.6280 C   0  0  0  0  0  3  0  0  0  0  0  0
  192.8160  175.3410  149.2130 F   0  0  0  0  0  0  0  0  0  0  0  0
  192.7370  174.6580  146.9350 C   0  0  0  0  0  3  0  0  0  0  0  0
  192.4270  175.5780  147.9380 C   0  0  0  0  0  0  0  0  0  0  0  0
  192.3360  174.8970  145.6190 C   0  0  0  0  0  3  0  0  0  0  0  0
  189.3150  177.8360  137.4290 O   0  0  0  0  0  1  0  0  0  0  0  0
  188.9970  177.0280  138.5260 C   0  0  0  0  0  2  0  0  0  0  0  0
  1 27  1  1  0  0  0
  1 21  1  0  0  0  0
  2 22  1  0  0  0  0
  3  9  1  6  0  0  0
  3  7  1  0  0  0  0
  3 20  1  0  0  0  0
  4 37  1  6  0  0  0
  4 12  1  0  0  0  0
  4  1  1  0  0  0  0
  5 23  1  0  0  0  0
  6 11  1  0  0  0  0
  7 10  1  0  0  0  0
  8 26  2  0  0  0  0
  8 18  1  0  0  0  0
 10 28  1  0  0  0  0
 11 16  2  0  0  0  0
 12  8  1  0  0  0  0
 13  1  1  0  0  0  0
 13 17  1  0  0  0  0
 13 27  1  0  0  0  0
 14  2  1  0  0  0  0
 17  2  1  0  0  0  0
 18 25  1  0  0  0  0
 19  5  1  0  0  0  0
 19  7  1  0  0  0  0
 20 16  1  0  0  0  0
 20 15  1  0  0  0  0
 21 25  1  0  0  0  0
 22  9  1  0  0  0  0
 22  6  2  0  0  0  0
 23 10  1  0  0  0  0
 23 30  1  0  0  0  0
 24  2  1  0  0  0  0
 25 19  1  0  0  0  0
 28 15  1  0  0  0  0
 29 35  2  0  0  0  0
 29 30  1  0  0  0  0
 30 31  2  0  0  0  0
 31 34  1  0  0  0  0
 33 34  2  0  0  0  0
 34 32  1  0  0  0  0
 35 33  1  0  0  0  0
 36 37  1  0  0  0  0
M  END
>  <MODEL>
2

>  <REMARK>
 VINA RESULT:      -7.9      3.219      8.100
  Name = 
  2 active torsions:
  status: ('A' for Active; 'I' for Inactive)
    1  A    between atoms: C_5  and  C_23
    2  A    between atoms: C_6  and  C_31
                            x       y       z     vdW  Elec       q    Type
                         _______ _______ _______ _____ _____    ______ ____

>  <TORSDO>
F 2

$$$$
=
 OpenBabel11052415173D

 37 43  0  0  1  0  0  0  0  0999 V2000
  184.0510  178.7860  142.7870 C   0  0  1  0  0  0  0  0  0  0  0  0
  185.5970  178.3080  145.9760 C   0  0  0  0  0  0  0  0  0  0  0  0
  188.2740  177.8060  143.4530 C   0  0  1  0  0  3  0  0  0  0  0  0
  182.8400  179.3780  142.0400 C   0  0  1  0  0  3  0  0  0  0  0  0
  187.3910  179.2630  140.2460 C   0  0  0  0  0  2  0  0  0  0  0  0
  187.9910  177.8810  146.4520 C   0  0  0  0  0  3  0  0  0  0  0  0
  187.9750  177.7480  141.9410 C   0  0  2  0  0  3  0  0  0  0  0  0
  184.0870  179.1850  139.8830 C   0  0  0  0  0  0  0  0  0  0  0  0
  187.1420  177.1690  144.2280 C   0  0  0  0  0  2  0  0  0  0  0  0
  189.2090  178.2010  141.2130 C   0  0  2  0  0  3  0  0  0  0  0  0
  189.4020  177.4820  146.2710 C   0  0  0  0  0  3  0  0  0  0  0  0
  182.7700  179.0080  140.5570 C   0  0  0  0  0  2  0  0  0  0  0  0
  184.0390  179.0430  144.3000 C   0  0  1  0  0  3  0  0  0  0  0  0
  185.6800  179.8050  146.3240 C   0  0  0  0  0  1  0  0  0  0  0  0
  190.7030  177.1250  142.7940 C   0  0  0  0  0  2  0  0  0  0  0  0
  190.0430  177.0980  145.1610 C   0  0  0  0  0  3  0  0  0  0  0  0
  184.6610  177.9580  144.9570 O   0  0  0  0  0  0  0  0  0  0  0  0
  185.0040  178.0100  139.7860 C   0  0  0  0  0  2  0  0  0  0  0  0
  186.8700  178.6020  141.4640 N   0  0  2  0  0  0  0  0  0  0  0  0
  189.5160  176.9310  143.7640 C   0  0  1  0  0  3  0  0  0  0  0  0
  184.7610  177.5030  142.2930 C   0  0  0  0  0  2  0  0  0  0  0  0
  186.9750  177.8030  145.5750 C   0  0  0  0  0  0  0  0  0  0  0  0
  188.7170  178.6280  139.8590 C   0  0  1  0  0  3  0  0  0  0  0  0
  185.1610  177.5890  147.2430 C   0  0  0  0  0  1  0  0  0  0  0  0
  185.7350  177.7110  141.1180 C   0  0  1  0  0  3  0  0  0  0  0  0
  184.4310  180.2800  139.4680 O   0  0  0  0  0  0  0  0  0  0  0  0
  184.9810  179.8190  143.3800 C   0  0  0  0  0  2  0  0  0  0  0  0
  190.2840  177.1470  141.3250 C   0  0  0  0  0  2  0  0  0  0  0  0
  187.3850  177.4720  138.0100 C   0  0  0  0  0  3  0  0  0  0  0  0
  188.5040  177.5110  138.8620 C   0  0  0  0  0  0  0  0  0  0  0  0
  189.5070  176.5470  138.7120 C   0  0  0  0  0  3  0  0  0  0  0  0
  190.3580  174.6150  137.5990 F   0  0  0  0  0  0  0  0  0  0  0  0
  188.2680  175.5150  136.9010 C   0  0  0  0  0  3  0  0  0  0  0  0
  189.3880  175.5500  137.7350 C   0  0  0  0  0  0  0  0  0  0  0  0
  187.2640  176.4750  137.0390 C   0  0  0  0  0  3  0  0  0  0  0  0
  180.7070  180.1570  142.8430 O   0  0  0  0  0  1  0  0  0  0  0  0
  181.5150  179.0230  142.7120 C   0  0  0  0  0  2  0  0  0  0  0  0
  1 21  1  6  0  0  0
  1 27  1  0  0  0  0
  1 13  1  0  0  0  0
  2 14  1  0  0  0  0
  2 24  1  0  0  0  0
  3 20  1  0  0  0  0
  3  9  1  1  0  0  0
  4 37  1  1  0  0  0
  4  1  1  0  0  0  0
  5 19  1  0  0  0  0
  7  3  1  0  0  0  0
  8 12  1  0  0  0  0
  9 22  1  0  0  0  0
 10 28  1  0  0  0  0
 10  7  1  0  0  0  0
 11  6  1  0  0  0  0
 12  4  1  0  0  0  0
 13 17  1  0  0  0  0
 15 20  1  0  0  0  0
 16 11  2  0  0  0  0
 17  2  1  0  0  0  0
 18  8  1  0  0  0  0
 18 25  1  0  0  0  0
 19  7  1  0  0  0  0
 20 16  1  0  0  0  0
 22  2  1  0  0  0  0
 22  6  2  0  0  0  0
 23  5  1  0  0  0  0
 23 10  1  0  0  0  0
 25 19  1  0  0  0  0
 25 21  1  0  0  0  0
 26  8  2  0  0  0  0
 27 13  1  0  0  0  0
 28 15  1  0  0  0  0
 29 30  1  0  0  0  0
 30 23  1  0  0  0  0
 31 30  2  0  0  0  0
 32 34  1  0  0  0  0
 33 35  1  0  0  0  0
 33 34  2  0  0  0  0
 34 31  1  0  0  0  0
 35 29  2  0  0  0  0
 37 36  1  0  0  0  0
M  END
>  <MODEL>
3

>  <REMARK>
 VINA RESULT:      -6.8      2.249      5.689
  Name = 
  2 active torsions:
  status: ('A' for Active; 'I' for Inactive)
    1  A    between atoms: C_5  and  C_23
    2  A    between atoms: C_6  and  C_31
                            x       y       z     vdW  Elec       q    Type
                         _______ _______ _______ _____ _____    ______ ____

>  <TORSDO>
F 2

$$$$
=
 OpenBabel11052415173D

 37 43  0  0  1  0  0  0  0  0999 V2000
  185.9690  172.6970  135.7990 C   0  0  1  0  0  0  0  0  0  0  0  0
  182.4520  173.0260  136.3610 C   0  0  0  0  0  0  0  0  0  0  0  0
  183.9740  176.2220  137.4820 C   0  0  1  0  0  3  0  0  0  0  0  0
  187.0660  171.9210  135.0440 C   0  0  1  0  0  3  0  0  0  0  0  0
  187.2880  176.6990  136.0780 C   0  0  0  0  0  2  0  0  0  0  0  0
  181.2280  175.0170  137.1820 C   0  0  0  0  0  3  0  0  0  0  0  0
  185.5010  176.4150  137.5720 C   0  0  2  0  0  3  0  0  0  0  0  0
  188.7030  173.7310  135.5830 C   0  0  0  0  0  0  0  0  0  0  0  0
  183.6090  174.8030  137.8580 C   0  0  0  0  0  2  0  0  0  0  0  0
  185.7880  177.8790  137.3910 C   0  0  2  0  0  3  0  0  0  0  0  0
  180.9420  176.3100  137.8380 C   0  0  0  0  0  3  0  0  0  0  0  0
  188.4920  172.2590  135.4810 C   0  0  0  0  0  2  0  0  0  0  0  0
  184.5400  172.2510  135.4560 C   0  0  1  0  0  3  0  0  0  0  0  0
  182.0910  173.2750  134.8850 C   0  0  0  0  0  1  0  0  0  0  0  0
  183.8120  178.5600  138.6250 C   0  0  0  0  0  2  0  0  0  0  0  0
  181.7860  177.1870  138.3950 C   0  0  0  0  0  3  0  0  0  0  0  0
  183.7210  172.4150  136.5960 O   0  0  0  0  0  0  0  0  0  0  0  0
  188.5010  174.3920  136.9070 C   0  0  0  0  0  2  0  0  0  0  0  0
  186.3070  175.7020  136.5630 N   0  0  2  0  0  0  0  0  0  0  0  0
  183.2790  177.1110  138.5460 C   0  0  1  0  0  3  0  0  0  0  0  0
  186.2100  173.2710  137.2160 C   0  0  0  0  0  2  0  0  0  0  0  0
  182.3860  174.3380  137.1270 C   0  0  0  0  0  0  0  0  0  0  0  0
  187.2270  177.9340  136.9630 C   0  0  1  0  0  3  0  0  0  0  0  0
  181.3970  172.0810  136.9140 C   0  0  0  0  0  1  0  0  0  0  0  0
  187.0050  174.5900  137.2540 C   0  0  1  0  0  3  0  0  0  0  0  0
  188.9800  174.3890  134.5940 O   0  0  0  0  0  0  0  0  0  0  0  0
  185.1030  173.5660  134.9170 C   0  0  0  0  0  2  0  0  0  0  0  0
  185.3370  178.6430  138.6130 C   0  0  0  0  0  2  0  0  0  0  0  0
  187.8850  177.9910  139.4310 C   0  0  0  0  0  3  0  0  0  0  0  0
  188.2430  177.8430  138.0790 C   0  0  0  0  0  0  0  0  0  0  0  0
  189.5600  177.4950  137.7590 C   0  0  0  0  0  3  0  0  0  0  0  0
  191.7830  176.9800  138.4570 F   0  0  0  0  0  0  0  0  0  0  0  0
  190.1440  177.4680  140.1110 C   0  0  0  0  0  3  0  0  0  0  0  0
  190.5080  177.3100  138.7730 C   0  0  0  0  0  0  0  0  0  0  0  0
  188.8320  177.8110  140.4420 C   0  0  0  0  0  3  0  0  0  0  0  0
  187.9880  169.7810  135.6540 O   0  0  0  0  0  1  0  0  0  0  0  0
  186.8610  170.4100  135.1150 C   0  0  0  0  0  2  0  0  0  0  0  0
  1 27  1  6  0  0  0
  1 21  1  0  0  0  0
  2 17  1  0  0  0  0
  2 24  1  0  0  0  0
  2 22  1  0  0  0  0
  3  7  1  0  0  0  0
  3  9  1  1  0  0  0
  3 20  1  0  0  0  0
  4 37  1  1  0  0  0
  4 12  1  0  0  0  0
  4  1  1  0  0  0  0
  5 19  1  0  0  0  0
  5 23  1  0  0  0  0
  6 11  1  0  0  0  0
  8 18  1  0  0  0  0
 10  7  1  0  0  0  0
 10 28  1  0  0  0  0
 11 16  2  0  0  0  0
 12  8  1  0  0  0  0
 13  1  1  0  0  0  0
 13 17  1  0  0  0  0
 14  2  1  0  0  0  0
 16 20  1  0  0  0  0
 18 25  1  0  0  0  0
 19 25  1  0  0  0  0
 19  7  1  0  0  0  0
 20 15  1  0  0  0  0
 21 25  1  0  0  0  0
 22  6  2  0  0  0  0
 22  9  1  0  0  0  0
 23 10  1  0  0  0  0
 23 30  1  0  0  0  0
 26  8  2  0  0  0  0
 27 13  1  0  0  0  0
 28 15  1  0  0  0  0
 29 35  1  0  0  0  0
 30 29  2  0  0  0  0
 31 30  1  0  0  0  0
 31 34  2  0  0  0  0
 32 34  1  0  0  0  0
 33 35  2  0  0  0  0
 34 33  1  0  0  0  0
 37 36  1  0  0  0  0
M  END
>  <MODEL>
4

>  <REMARK>
 VINA RESULT:      -6.8      5.299      9.556
  Name = 
  2 active torsions:
  status: ('A' for Active; 'I' for Inactive)
    1  A    between atoms: C_5  and  C_23
    2  A    between atoms: C_6  and  C_31
                            x       y       z     vdW  Elec       q    Type
                         _______ _______ _______ _____ _____    ______ ____

>  <TORSDO>
F 2

$$$$
=
 OpenBabel11052415173D

 37 43  0  0  1  0  0  0  0  0999 V2000
  184.4600  178.6820  142.8720 C   0  0  1  0  0  0  0  0  0  0  0  0
  184.0080  178.8610  139.3290 C   0  0  0  0  0  0  0  0  0  0  0  0
  187.4790  177.6560  139.8600 C   0  0  1  0  0  3  0  0  0  0  0  0
  183.7530  178.6210  144.2400 C   0  0  1  0  0  3  0  0  0  0  0  0
  187.9390  176.3100  143.2010 C   0  0  0  0  0  2  0  0  0  0  0  0
  185.6050  178.1820  137.5600 C   0  0  0  0  0  3  0  0  0  0  0  0
  188.1270  177.6140  141.2590 C   0  0  2  0  0  3  0  0  0  0  0  0
  185.8890  177.8730  145.3010 C   0  0  0  0  0  0  0  0  0  0  0  0
  186.5700  178.8590  139.7470 C   0  0  0  0  0  2  0  0  0  0  0  0
  189.1680  176.5300  141.2490 C   0  0  2  0  0  3  0  0  0  0  0  0
  186.8680  177.8400  136.8740 C   0  0  0  0  0  3  0  0  0  0  0  0
  184.6900  178.7480  145.4420 C   0  0  0  0  0  2  0  0  0  0  0  0
  183.5010  178.6960  141.6720 C   0  0  1  0  0  3  0  0  0  0  0  0
  183.1710  177.5730  139.2230 C   0  0  0  0  0  1  0  0  0  0  0  0
  189.8410  177.0070  138.9670 C   0  0  0  0  0  2  0  0  0  0  0  0
  188.1000  177.7030  137.3780 C   0  0  0  0  0  3  0  0  0  0  0  0
  184.0830  179.4490  140.6270 O   0  0  0  0  0  0  0  0  0  0  0  0
  187.1280  178.4500  144.7000 C   0  0  0  0  0  2  0  0  0  0  0  0
  187.2220  177.3170  142.3860 N   0  0  2  0  0  0  0  0  0  0  0  0
  188.5800  177.8820  138.7910 C   0  0  1  0  0  3  0  0  0  0  0  0
  185.8250  179.3890  142.6950 C   0  0  0  0  0  2  0  0  0  0  0  0
  185.4180  178.5930  138.8260 C   0  0  0  0  0  0  0  0  0  0  0  0
  189.3680  176.1820  142.6970 C   0  0  1  0  0  3  0  0  0  0  0  0
  183.3490  179.8850  138.4170 C   0  0  0  0  0  1  0  0  0  0  0  0
  187.0450  178.5710  143.1580 C   0  0  1  0  0  3  0  0  0  0  0  0
  185.8390  176.6960  145.6180 O   0  0  0  0  0  0  0  0  0  0  0  0
  184.2930  177.4380  142.0300 C   0  0  0  0  0  2  0  0  0  0  0  0
  190.3450  176.9590  140.4080 C   0  0  0  0  0  2  0  0  0  0  0  0
  190.5620  178.4140  143.0430 C   0  0  0  0  0  3  0  0  0  0  0  0
  190.2910  177.1000  143.4650 C   0  0  0  0  0  0  0  0  0  0  0  0
  190.8060  176.6610  144.6910 C   0  0  0  0  0  3  0  0  0  0  0  0
  192.0890  177.0830  146.6570 F   0  0  0  0  0  0  0  0  0  0  0  0
  191.8590  178.8160  145.0420 C   0  0  0  0  0  3  0  0  0  0  0  0
  191.5880  177.5160  145.4760 C   0  0  0  0  0  0  0  0  0  0  0  0
  191.3470  179.2660  143.8240 C   0  0  0  0  0  3  0  0  0  0  0  0
  181.3810  179.0420  144.2540 O   0  0  0  0  0  1  0  0  0  0  0  0
  182.6340  179.6540  144.3600 C   0  0  0  0  0  2  0  0  0  0  0  0
  1 27  1  6  0  0  0
  1  4  1  0  0  0  0
  2 17  1  0  0  0  0
  3  9  1  1  0  0  0
  3  7  1  0  0  0  0
  4 37  1  6  0  0  0
  4 12  1  0  0  0  0
  6 22  2  0  0  0  0
  7 19  1  0  0  0  0
  8 12  1  0  0  0  0
  8 26  2  0  0  0  0
 10  7  1  0  0  0  0
 10 23  1  0  0  0  0
 11 16  2  0  0  0  0
 11  6  1  0  0  0  0
 13 27  1  0  0  0  0
 13  1  1  0  0  0  0
 14  2  1  0  0  0  0
 15 28  1  0  0  0  0
 16 20  1  0  0  0  0
 17 13  1  0  0  0  0
 18  8  1  0  0  0  0
 19 25  1  0  0  0  0
 19  5  1  0  0  0  0
 20 15  1  0  0  0  0
 20  3  1  0  0  0  0
 21  1  1  0  0  0  0
 21 25  1  0  0  0  0
 22  2  1  0  0  0  0
 22  9  1  0  0  0  0
 23  5  1  0  0  0  0
 23 30  1  0  0  0  0
 24  2  1  0  0  0  0
 25 18  1  0  0  0  0
 28 10  1  0  0  0  0
 29 30  2  0  0  0  0
 29 35  1  0  0  0  0
 30 31  1  0  0  0  0
 31 34  2  0  0  0  0
 33 34  1  0  0  0  0
 34 32  1  0  0  0  0
 35 33  2  0  0  0  0
 36 37  1  0  0  0  0
M  END
>  <MODEL>
5

>  <REMARK>
 VINA RESULT:      -6.5      2.656      6.407
  Name = 
  2 active torsions:
  status: ('A' for Active; 'I' for Inactive)
    1  A    between atoms: C_5  and  C_23
    2  A    between atoms: C_6  and  C_31
                            x       y       z     vdW  Elec       q    Type
                         _______ _______ _______ _____ _____    ______ ____

>  <TORSDO>
F 2

$$$$
=
 OpenBabel11052415173D

 37 43  0  0  1  0  0  0  0  0999 V2000
  184.2810  172.9560  136.1590 C   0  0  1  0  0  0  0  0  0  0  0  0
  180.9490  173.8040  137.1450 C   0  0  0  0  0  0  0  0  0  0  0  0
  183.0640  176.7130  138.0680 C   0  0  1  0  0  3  0  0  0  0  0  0
  185.1480  172.0360  135.2770 C   0  0  1  0  0  3  0  0  0  0  0  0
  186.2190  176.7070  136.2700 C   0  0  0  0  0  2  0  0  0  0  0  0
  180.1500  175.9430  138.1060 C   0  0  0  0  0  3  0  0  0  0  0  0
  184.6020  176.6700  137.9710 C   0  0  2  0  0  3  0  0  0  0  0  0
  187.0940  173.5670  135.6100 C   0  0  0  0  0  0  0  0  0  0  0  0
  182.5350  175.3590  138.4870 C   0  0  0  0  0  2  0  0  0  0  0  0
  185.0860  178.0770  137.7550 C   0  0  2  0  0  3  0  0  0  0  0  0
  180.1470  177.2530  138.7910 C   0  0  0  0  0  3  0  0  0  0  0  0
  186.6510  172.1460  135.5360 C   0  0  0  0  0  2  0  0  0  0  0  0
  182.7700  172.7380  135.9930 C   0  0  1  0  0  3  0  0  0  0  0  0
  180.4550  174.1300  135.7230 C   0  0  0  0  0  1  0  0  0  0  0  0
  183.3990  179.0280  139.2190 C   0  0  0  0  0  2  0  0  0  0  0  0
  181.1750  177.9820  139.2390 C   0  0  0  0  0  3  0  0  0  0  0  0
  182.1280  173.0040  137.2240 O   0  0  0  0  0  0  0  0  0  0  0  0
  187.1570  174.2280  136.9480 C   0  0  0  0  0  2  0  0  0  0  0  0
  185.1630  175.8610  136.8720 N   0  0  2  0  0  0  0  0  0  0  0  0
  182.6460  177.6780  139.2070 C   0  0  1  0  0  3  0  0  0  0  0  0
  184.7760  173.4620  137.5350 C   0  0  0  0  0  2  0  0  0  0  0  0
  181.1770  175.0970  137.9120 C   0  0  0  0  0  0  0  0  0  0  0  0
  186.4540  177.9210  137.1540 C   0  0  1  0  0  3  0  0  0  0  0  0
  179.8360  173.0200  137.8230 C   0  0  0  0  0  1  0  0  0  0  0  0
  185.7610  174.6440  137.4750 C   0  0  1  0  0  3  0  0  0  0  0  0
  187.3470  174.1930  134.5940 O   0  0  0  0  0  0  0  0  0  0  0  0
  183.4570  173.9610  135.3880 C   0  0  0  0  0  2  0  0  0  0  0  0
  184.9060  178.8790  139.0210 C   0  0  0  0  0  2  0  0  0  0  0  0
  188.7140  176.9140  137.7930 C   0  0  0  0  0  3  0  0  0  0  0  0
  187.5710  177.6580  138.1380 C   0  0  0  0  0  0  0  0  0  0  0  0
  187.5110  178.2640  139.3980 C   0  0  0  0  0  3  0  0  0  0  0  0
  188.5020  178.7030  141.5230 F   0  0  0  0  0  0  0  0  0  0  0  0
  189.6950  177.3710  139.9530 C   0  0  0  0  0  3  0  0  0  0  0  0
  188.5690  178.1200  140.3030 C   0  0  0  0  0  0  0  0  0  0  0  0
  189.7670  176.7660  138.6970 C   0  0  0  0  0  3  0  0  0  0  0  0
  185.7700  169.7270  134.9890 O   0  0  0  0  0  1  0  0  0  0  0  0
  184.7240  170.5720  135.3750 C   0  0  0  0  0  2  0  0  0  0  0  0
  1 27  1  6  0  0  0
  1 21  1  0  0  0  0
  2 17  1  0  0  0  0
  2 24  1  0  0  0  0
  2 22  1  0  0  0  0
  3  9  1  1  0  0  0
  3 20  1  0  0  0  0
  4 37  1  1  0  0  0
  4 12  1  0  0  0  0
  4  1  1  0  0  0  0
  5 19  1  0  0  0  0
  5 23  1  0  0  0  0
  6 11  1  0  0  0  0
  7  3  1  0  0  0  0
  8 18  1  0  0  0  0
 10  7  1  0  0  0  0
 10 28  1  0  0  0  0
 11 16  2  0  0  0  0
 12  8  1  0  0  0  0
 13  1  1  0  0  0  0
 13 17  1  0  0  0  0
 14  2  1  0  0  0  0
 18 25  1  0  0  0  0
 19 25  1  0  0  0  0
 19  7  1  0  0  0  0
 20 15  1  0  0  0  0
 20 16  1  0  0  0  0
 22  6  2  0  0  0  0
 22  9  1  0  0  0  0
 23 10  1  0  0  0  0
 23 30  1  0  0  0  0
 25 21  1  0  0  0  0
 26  8  2  0  0  0  0
 27 13  1  0  0  0  0
 28 15  1  0  0  0  0
 29 30  2  0  0  0  0
 29 35  1  0  0  0  0
 30 31  1  0  0  0  0
 31 34  2  0  0  0  0
 33 34  1  0  0  0  0
 34 32  1  0  0  0  0
 35 33  2  0  0  0  0
 36 37  1  0  0  0  0
M  END
>  <MODEL>
6

>  <REMARK>
 VINA RESULT:      -6.5      5.173      9.632
  Name = 
  2 active torsions:
  status: ('A' for Active; 'I' for Inactive)
    1  A    between atoms: C_5  and  C_23
    2  A    between atoms: C_6  and  C_31
                            x       y       z     vdW  Elec       q    Type
                         _______ _______ _______ _____ _____    ______ ____

>  <TORSDO>
F 2

$$$$
=
 OpenBabel11052415173D

 37 43  0  0  1  0  0  0  0  0999 V2000
  187.8560  178.0170  140.3730 C   0  0  1  0  0  0  0  0  0  0  0  0
  188.6140  177.8940  143.8660 C   0  0  0  0  0  0  0  0  0  0  0  0
  184.9350  178.3390  143.6290 C   0  0  1  0  0  3  0  0  0  0  0  0
  188.3570  177.6870  138.9530 C   0  0  1  0  0  3  0  0  0  0  0  0
  183.6760  177.4130  140.3520 C   0  0  0  0  0  2  0  0  0  0  0  0
  187.0230  177.9370  145.7650 C   0  0  0  0  0  3  0  0  0  0  0  0
  184.2290  178.6190  142.2870 C   0  0  2  0  0  3  0  0  0  0  0  0
  186.0350  177.9730  138.0760 C   0  0  0  0  0  0  0  0  0  0  0  0
  186.2850  179.0210  143.6540 C   0  0  0  0  0  2  0  0  0  0  0  0
  182.8230  178.0990  142.3930 C   0  0  2  0  0  3  0  0  0  0  0  0
  185.7940  178.1650  146.5540 C   0  0  0  0  0  3  0  0  0  0  0  0
  187.4800  178.2400  137.8290 C   0  0  0  0  0  2  0  0  0  0  0  0
  188.8140  177.5810  141.4910 C   0  0  1  0  0  3  0  0  0  0  0  0
  188.8080  176.3670  143.9190 C   0  0  0  0  0  1  0  0  0  0  0  0
  182.6050  178.7660  144.7170 C   0  0  0  0  0  2  0  0  0  0  0  0
  184.5910  178.5920  146.1530 C   0  0  0  0  0  3  0  0  0  0  0  0
  188.7030  178.4870  142.5700 O   0  0  0  0  0  0  0  0  0  0  0  0
  185.2230  179.0190  138.7680 C   0  0  0  0  0  2  0  0  0  0  0  0
  184.8220  177.9840  141.0950 N   0  0  2  0  0  0  0  0  0  0  0  0
  184.1310  178.9970  144.7810 C   0  0  1  0  0  3  0  0  0  0  0  0
  186.9560  179.2450  140.6500 C   0  0  0  0  0  2  0  0  0  0  0  0
  187.2710  178.2560  144.4830 C   0  0  0  0  0  0  0  0  0  0  0  0
  182.3780  177.9090  140.9710 C   0  0  1  0  0  3  0  0  0  0  0  0
  189.7220  178.5040  144.7090 C   0  0  0  0  0  1  0  0  0  0  0  0
  185.4700  179.0540  140.2960 C   0  0  1  0  0  3  0  0  0  0  0  0
  185.5400  176.9010  137.7700 O   0  0  0  0  0  0  0  0  0  0  0  0
  187.5270  176.8050  141.2130 C   0  0  0  0  0  2  0  0  0  0  0  0
  182.0210  178.9780  143.3210 C   0  0  0  0  0  2  0  0  0  0  0  0
  182.4610  179.6050  139.0610 C   0  0  0  0  0  3  0  0  0  0  0  0
  181.8940  179.1570  140.2680 C   0  0  0  0  0  0  0  0  0  0  0  0
  180.7760  179.8240  140.7820 C   0  0  0  0  0  3  0  0  0  0  0  0
  179.1640  181.5750  140.6150 F   0  0  0  0  0  0  0  0  0  0  0  0
  180.8180  181.3710  138.9170 C   0  0  0  0  0  3  0  0  0  0  0  0
  180.2410  180.9290  140.1090 C   0  0  0  0  0  0  0  0  0  0  0  0
  181.9300  180.7100  138.3920 C   0  0  0  0  0  3  0  0  0  0  0  0
  190.6350  177.0240  138.5350 O   0  0  0  0  0  1  0  0  0  0  0  0
  189.8020  178.1300  138.7310 C   0  0  0  0  0  2  0  0  0  0  0  0
  1 21  1  1  0  0  0
  1 27  1  0  0  0  0
  1 13  1  0  0  0  0
  2 14  1  0  0  0  0
  2 22  1  0  0  0  0
  2 24  1  0  0  0  0
  3  9  1  6  0  0  0
  3 20  1  0  0  0  0
  4 37  1  6  0  0  0
  4  1  1  0  0  0  0
  5 23  1  0  0  0  0
  5 19  1  0  0  0  0
  6 11  1  0  0  0  0
  7 10  1  0  0  0  0
  7  3  1  0  0  0  0
  8 18  1  0  0  0  0
  9 22  1  0  0  0  0
 10 28  1  0  0  0  0
 12  8  1  0  0  0  0
 12  4  1  0  0  0  0
 13 17  1  0  0  0  0
 15 20  1  0  0  0  0
 16 11  2  0  0  0  0
 17  2  1  0  0  0  0
 18 25  1  0  0  0  0
 19  7  1  0  0  0  0
 20 16  1  0  0  0  0
 22  6  2  0  0  0  0
 23 10  1  0  0  0  0
 25 21  1  0  0  0  0
 25 19  1  0  0  0  0
 26  8  2  0  0  0  0
 27 13  1  0  0  0  0
 28 15  1  0  0  0  0
 29 30  1  0  0  0  0
 30 31  2  0  0  0  0
 30 23  1  0  0  0  0
 33 34  2  0  0  0  0
 34 32  1  0  0  0  0
 34 31  1  0  0  0  0
 35 33  1  0  0  0  0
 35 29  2  0  0  0  0
 36 37  1  0  0  0  0
M  END
>  <MODEL>
7

>  <REMARK>
 VINA RESULT:      -6.2      2.650      5.791
  Name = 
  2 active torsions:
  status: ('A' for Active; 'I' for Inactive)
    1  A    between atoms: C_5  and  C_23
    2  A    between atoms: C_6  and  C_31
                            x       y       z     vdW  Elec       q    Type
                         _______ _______ _______ _____ _____    ______ ____

>  <TORSDO>
F 2

$$$$
=
 OpenBabel11052415173D

 37 43  0  0  1  0  0  0  0  0999 V2000
  181.0380  177.3120  138.5510 C   0  0  1  0  0  0  0  0  0  0  0  0
  180.8070  178.5100  141.9130 C   0  0  0  0  0  0  0  0  0  0  0  0
  184.4200  178.5450  141.0570 C   0  0  1  0  0  3  0  0  0  0  0  0
  180.2710  177.0630  137.2370 C   0  0  1  0  0  3  0  0  0  0  0  0
  184.9520  178.4690  137.4660 C   0  0  0  0  0  2  0  0  0  0  0  0
  182.6410  179.3460  143.3540 C   0  0  0  0  0  3  0  0  0  0  0  0
  184.9580  177.9290  139.7500 C   0  0  2  0  0  3  0  0  0  0  0  0
  182.4430  176.8320  136.0240 C   0  0  0  0  0  0  0  0  0  0  0  0
  183.2590  177.7260  141.5750 C   0  0  0  0  0  2  0  0  0  0  0  0
  186.2270  178.6510  139.3920 C   0  0  2  0  0  3  0  0  0  0  0  0
  183.9950  179.5810  143.8980 C   0  0  0  0  0  3  0  0  0  0  0  0
  181.0630  176.2920  136.1810 C   0  0  0  0  0  2  0  0  0  0  0  0
  180.1910  177.9610  139.6560 C   0  0  1  0  0  3  0  0  0  0  0  0
  180.3140  179.9180  141.5330 C   0  0  0  0  0  1  0  0  0  0  0  0
  186.9250  178.8550  141.7080 C   0  0  0  0  0  2  0  0  0  0  0  0
  185.1850  179.2210  143.4040 C   0  0  0  0  0  3  0  0  0  0  0  0
  180.6470  177.5040  140.9130 O   0  0  0  0  0  0  0  0  0  0  0  0
  183.5480  176.2140  136.8170 C   0  0  0  0  0  2  0  0  0  0  0  0
  184.0740  178.0270  138.5730 N   0  0  2  0  0  0  0  0  0  0  0  0
  185.5060  178.4430  142.1590 C   0  0  1  0  0  3  0  0  0  0  0  0
  182.2020  176.3960  138.9970 C   0  0  0  0  0  2  0  0  0  0  0  0
  182.2720  178.5770  142.3150 C   0  0  0  0  0  0  0  0  0  0  0  0
  186.4020  178.4060  137.9210 C   0  0  1  0  0  3  0  0  0  0  0  0
  179.9880  178.0710  143.1170 C   0  0  0  0  0  1  0  0  0  0  0  0
  183.5460  176.6680  138.2980 C   0  0  1  0  0  3  0  0  0  0  0  0
  182.6550  177.7950  135.3050 O   0  0  0  0  0  0  0  0  0  0  0  0
  181.2340  178.7730  138.8880 C   0  0  0  0  0  2  0  0  0  0  0  0
  187.3230  178.2660  140.3560 C   0  0  0  0  0  2  0  0  0  0  0  0
  186.4200  176.2020  136.6280 C   0  0  0  0  0  3  0  0  0  0  0  0
  187.0210  177.0770  137.5510 C   0  0  0  0  0  0  0  0  0  0  0  0
  188.2830  176.7590  138.0660 C   0  0  0  0  0  3  0  0  0  0  0  0
  190.1480  175.2750  138.1810 F   0  0  0  0  0  0  0  0  0  0  0  0
  188.3200  174.7140  136.7650 C   0  0  0  0  0  3  0  0  0  0  0  0
  188.9300  175.5810  137.6750 C   0  0  0  0  0  0  0  0  0  0  0  0
  187.0630  175.0240  136.2420 C   0  0  0  0  0  3  0  0  0  0  0  0
  179.1230  175.0240  137.8120 O   0  0  0  0  0  1  0  0  0  0  0  0
  178.9310  176.3670  137.4720 C   0  0  0  0  0  2  0  0  0  0  0  0
  1 27  1  6  0  0  0
  1 21  1  0  0  0  0
  1 13  1  0  0  0  0
  2 22  1  0  0  0  0
  2 24  1  0  0  0  0
  3  9  1  1  0  0  0
  3 20  1  0  0  0  0
  4 37  1  1  0  0  0
  4  1  1  0  0  0  0
  5 23  1  0  0  0  0
  5 19  1  0  0  0  0
  6 11  1  0  0  0  0
  7  3  1  0  0  0  0
  8 12  1  0  0  0  0
  8 18  1  0  0  0  0
  9 22  1  0  0  0  0
 10  7  1  0  0  0  0
 10 28  1  0  0  0  0
 12  4  1  0  0  0  0
 13 17  1  0  0  0  0
 14  2  1  0  0  0  0
 15 20  1  0  0  0  0
 16 11  2  0  0  0  0
 17  2  1  0  0  0  0
 18 25  1  0  0  0  0
 19  7  1  0  0  0  0
 20 16  1  0  0  0  0
 22  6  2  0  0  0  0
 23 10  1  0  0  0  0
 25 19  1  0  0  0  0
 25 21  1  0  0  0  0
 26  8  2  0  0  0  0
 27 13  1  0  0  0  0
 28 15  1  0  0  0  0
 29 30  1  0  0  0  0
 30 23  1  0  0  0  0
 30 31  2  0  0  0  0
 33 34  2  0  0  0  0
 34 31  1  0  0  0  0
 34 32  1  0  0  0  0
 35 29  2  0  0  0  0
 35 33  1  0  0  0  0
 37 36  1  0  0  0  0
M  END
>  <MODEL>
8

>  <REMARK>
 VINA RESULT:      -5.8      4.209      8.401
  Name = 
  2 active torsions:
  status: ('A' for Active; 'I' for Inactive)
    1  A    between atoms: C_5  and  C_23
    2  A    between atoms: C_6  and  C_31
                            x       y       z     vdW  Elec       q    Type
                         _______ _______ _______ _____ _____    ______ ____

>  <TORSDO>
F 2

$$$$
=
 OpenBabel11052415173D

 37 43  0  0  1  0  0  0  0  0999 V2000
  182.8320  178.7170  143.2110 C   0  0  1  0  0  0  0  0  0  0  0  0
  185.5620  178.4290  145.5030 C   0  0  0  0  0  0  0  0  0  0  0  0
  187.0410  178.1640  142.1080 C   0  0  1  0  0  3  0  0  0  0  0  0
  181.3730  179.1780  143.0270 C   0  0  1  0  0  3  0  0  0  0  0  0
  184.8160  179.4920  139.5640 C   0  0  0  0  0  2  0  0  0  0  0  0
  187.9750  178.2460  144.9710 C   0  0  0  0  0  3  0  0  0  0  0  0
  186.1690  178.0610  140.8400 C   0  0  2  0  0  3  0  0  0  0  0  0
  181.6660  179.0840  140.5470 C   0  0  0  0  0  0  0  0  0  0  0  0
  186.3790  177.4290  143.2510 C   0  0  0  0  0  2  0  0  0  0  0  0
  186.9600  178.6250  139.6930 C   0  0  2  0  0  3  0  0  0  0  0  0
  189.2280  177.9850  144.2310 C   0  0  0  0  0  3  0  0  0  0  0  0
  180.7510  178.7860  141.6850 C   0  0  0  0  0  2  0  0  0  0  0  0
  183.4020  178.9890  144.6110 C   0  0  1  0  0  3  0  0  0  0  0  0
  185.6350  179.9320  145.8320 C   0  0  0  0  0  1  0  0  0  0  0  0
  189.0560  177.7190  140.5150 C   0  0  0  0  0  2  0  0  0  0  0  0
  189.4040  177.6540  142.9470 C   0  0  0  0  0  3  0  0  0  0  0  0
  184.3340  177.9770  144.9320 O   0  0  0  0  0  0  0  0  0  0  0  0
  182.5740  178.0040  140.0580 C   0  0  0  0  0  2  0  0  0  0  0  0
  184.8900  178.7960  140.8690 N   0  0  2  0  0  0  0  0  0  0  0  0
  188.3810  177.4190  141.8720 C   0  0  1  0  0  3  0  0  0  0  0  0
  183.4030  177.5040  142.4380 C   0  0  0  0  0  2  0  0  0  0  0  0
  186.7060  178.0580  144.5710 C   0  0  0  0  0  0  0  0  0  0  0  0
  185.9300  178.9850  138.6610 C   0  0  1  0  0  3  0  0  0  0  0  0
  185.7390  177.6860  146.8180 C   0  0  0  0  0  1  0  0  0  0  0  0
  183.8020  177.7940  140.9790 C   0  0  1  0  0  3  0  0  0  0  0  0
  181.7090  180.2030  140.0620 O   0  0  0  0  0  0  0  0  0  0  0  0
  183.8190  179.8430  143.4140 C   0  0  0  0  0  2  0  0  0  0  0  0
  188.0850  177.6830  139.3370 C   0  0  0  0  0  2  0  0  0  0  0  0
  186.2560  176.7370  137.4910 C   0  0  0  0  0  3  0  0  0  0  0  0
  185.4420  177.8420  137.8000 C   0  0  0  0  0  0  0  0  0  0  0  0
  184.1040  177.8370  137.3880 C   0  0  0  0  0  3  0  0  0  0  0  0
  182.2980  176.7540  136.2670 F   0  0  0  0  0  0  0  0  0  0  0  0
  184.4100  175.6630  136.3600 C   0  0  0  0  0  3  0  0  0  0  0  0
  183.5910  176.7510  136.6690 C   0  0  0  0  0  0  0  0  0  0  0  0
  185.7450  175.6560  136.7700 C   0  0  0  0  0  3  0  0  0  0  0  0
  179.6980  177.6070  143.7550 O   0  0  0  0  0  1  0  0  0  0  0  0
  180.4670  178.7020  144.1610 C   0  0  0  0  0  2  0  0  0  0  0  0
  1 21  1  6  0  0  0
  1 27  1  0  0  0  0
  1 13  1  0  0  0  0
  2 14  1  0  0  0  0
  2 24  1  0  0  0  0
  3  9  1  1  0  0  0
  4  1  1  0  0  0  0
  4 37  1  1  0  0  0
  5 19  1  0  0  0  0
  7 19  1  0  0  0  0
  7  3  1  0  0  0  0
  8 12  1  0  0  0  0
  9 22  1  0  0  0  0
 10  7  1  0  0  0  0
 11  6  1  0  0  0  0
 12  4  1  0  0  0  0
 13 17  1  0  0  0  0
 15 20  1  0  0  0  0
 16 11  2  0  0  0  0
 17  2  1  0  0  0  0
 18  8  1  0  0  0  0
 18 25  1  0  0  0  0
 19 25  1  0  0  0  0
 20  3  1  0  0  0  0
 20 16  1  0  0  0  0
 22  6  2  0  0  0  0
 22  2  1  0  0  0  0
 23  5  1  0  0  0  0
 23 10  1  0  0  0  0
 25 21  1  0  0  0  0
 26  8  2  0  0  0  0
 27 13  1  0  0  0  0
 28 10  1  0  0  0  0
 28 15  1  0  0  0  0
 29 30  1  0  0  0  0
 30 23  1  0  0  0  0
 31 30  2  0  0  0  0
 32 34  1  0  0  0  0
 33 34  2  0  0  0  0
 33 35  1  0  0  0  0
 34 31  1  0  0  0  0
 35 29  2  0  0  0  0
 36 37  1  0  0  0  0
M  END
>  <MODEL>
9

>  <REMARK>
 VINA RESULT:      -5.6      2.315      5.079
  Name = 
  2 active torsions:
  status: ('A' for Active; 'I' for Inactive)
    1  A    between atoms: C_5  and  C_23
    2  A    between atoms: C_6  and  C_31
                            x       y       z     vdW  Elec       q    Type
                         _______ _______ _______ _____ _____    ______ ____

>  <TORSDO>
F 2

$$$$
