=
 OpenBabel11052415133D

 55 57  0  0  1  0  0  0  0  0999 V2000
  188.6090  177.9140  135.7490 O   0  0  0  0  0  0  0  0  0  0  0  0
  189.7870  173.5840  137.4180 O   0  0  0  0  0  1  0  0  0  0  0  0
  188.9990  174.6900  136.7560 P   0  0  2  0  0  0  0  0  0  0  0  0
  189.6630  176.3200  137.2370 C   0  0  1  0  0  3  0  0  0  0  0  0
  187.1400  177.0340  137.4570 C   0  0  2  0  0  3  0  0  0  0  0  0
  187.3700  174.6070  137.2350 O   0  0  0  0  0  0  0  0  0  0  0  0
  189.1090  178.7730  136.7470 C   0  0  2  0  0  3  0  0  0  0  0  0
  189.1090  174.5270  135.0760 O   0  0  0  0  0  0  0  0  0  0  0  0
  188.5910  177.4050  137.0670 C   0  0  2  0  0  0  0  0  0  0  0  0
  186.7690  175.7540  136.6860 C   0  0  1  0  0  3  0  0  0  0  0  0
  188.1830  179.7790  137.0370 O   0  0  0  0  0  1  0  0  0  0  0  0
  189.4210  176.8340  139.7360 C   0  0  0  0  0  1  0  0  0  0  0  0
  190.3170  176.2860  138.6310 C   0  0  2  0  0  3  0  0  0  0  0  0
  191.7350  176.8780  138.7090 C   0  0  2  0  0  3  0  0  0  0  0  0
  193.8230  176.5390  138.3100 O   0  0  0  0  0  1  0  0  0  0  0  0
  192.6280  176.1770  137.8860 O   0  0  0  0  0  0  0  0  0  0  0  0
  192.2650  176.8710  140.1370 C   0  0  0  0  0  2  0  0  0  0  0  0
  191.5570  177.8750  141.0240 C   0  0  0  0  0  2  0  0  0  0  0  0
  191.7010  177.5040  142.4970 C   0  0  0  0  0  2  0  0  0  0  0  0
  190.6540  178.2030  143.3740 C   0  0  2  0  0  3  0  0  0  0  0  0
  191.1440  179.3920  143.9170 O   0  0  0  0  0  1  0  0  0  0  0  0
  190.0410  177.3160  144.4690 C   0  0  2  0  0  3  0  0  0  0  0  0
  190.9950  176.3710  145.2190 C   0  0  0  0  0  2  0  0  0  0  0  0
  190.1000  176.7890  147.3930 O   0  0  0  0  0  1  0  0  0  0  0  0
  191.2790  176.8120  146.6550 C   0  0  1  0  0  3  0  0  0  0  0  0
  192.8170  176.1960  148.5870 N   0  0  0  0  0  1  0  0  0  0  0  0
  192.2990  175.9100  147.2860 C   0  0  0  0  0  0  0  0  0  0  0  0
  192.7410  174.9200  146.6480 O   0  0  0  0  0  0  0  0  0  0  0  0
  188.8140  176.6820  144.1000 O   0  0  0  0  0  0  0  0  0  0  0  0
  187.5740  177.3300  144.0760 C   0  0  0  0  0  0  0  0  0  0  0  0
  187.0430  177.6290  142.9760 O   0  0  0  0  0  0  0  0  0  0  0  0
  186.9410  177.7720  145.3500 C   0  0  0  0  0  2  0  0  0  0  0  0
  185.5930  178.2450  145.0830 N   0  0  0  0  0  1  0  0  0  0  0  0
  185.8530  178.4960  138.3600 O   0  0  0  0  0  1  0  0  0  0  0  0
  186.2320  178.0630  137.1780 O   0  0  0  0  0  0  0  0  0  0  0  0
  185.2670  175.5880  136.4190 C   0  0  2  0  0  3  0  0  0  0  0  0
  184.5180  175.3200  137.6420 N   0  0  0  0  0  0  0  0  0  0  0  0
  182.9060  177.1290  137.0260 C   0  0  0  0  0  3  0  0  0  0  0  0
  181.5000  177.9770  138.7720 N   0  0  0  0  0  0  0  0  0  0  0  0
  182.7090  175.8760  139.1150 C   0  0  0  0  0  2  0  0  0  0  0  0
  181.4860  176.6810  139.4660 C   0  0  0  0  0  2  0  0  0  0  0  0
  182.0420  178.0570  137.4460 C   0  0  0  0  0  3  0  0  0  0  0  0
  183.3290  176.0450  137.9390 C   0  0  0  0  0  0  0  0  0  0  0  0
  180.7370  179.1110  139.2820 C   0  0  2  0  0  3  0  0  0  0  0  0
  181.0800  179.3810  140.7400 C   0  0  0  0  0  1  0  0  0  0  0  0
  179.3120  178.8490  139.1500 N   0  0  0  0  0  1  0  0  0  0  0  0
  184.9950  174.4800  135.4000 C   0  0  0  0  0  2  0  0  0  0  0  0
  185.5380  172.3000  136.2190 O   0  0  0  0  0  0  0  0  0  0  0  0
  184.6470  173.1790  136.0480 C   0  0  0  0  0  0  0  0  0  0  0  0
  183.3370  172.9770  136.4900 O   0  0  0  0  0  0  0  0  0  0  0  0
  182.4840  171.9710  135.9550 C   0  0  1  0  0  3  0  0  0  0  0  0
  183.2190  170.6450  135.9620 C   0  0  0  0  0  1  0  0  0  0  0  0
  181.1980  171.8600  136.7760 C   0  0  0  0  0  2  0  0  0  0  0  0
  180.0130  173.4060  138.2790 C   0  0  0  0  0  2  0  0  0  0  0  0
  180.6790  173.2160  137.1420 C   0  0  0  0  0  3  0  0  0  0  0  0
  1  7  1  0  0  0  0
  3  8  2  6  0  0  0
  3  6  1  0  0  0  0
  3  4  1  0  0  0  0
  3  2  1  0  0  0  0
  4 13  1  1  0  0  0
  5 35  1  6  0  0  0
  7 11  1  1  0  0  0
  7  9  1  0  0  0  0
  9  1  1  6  0  0  0
  9  4  1  0  0  0  0
  9  5  1  0  0  0  0
 10 36  1  1  0  0  0
 10  6  1  0  0  0  0
 10  5  1  0  0  0  0
 13 14  1  0  0  0  0
 13 12  1  1  0  0  0
 14 17  1  1  0  0  0
 16 15  1  0  0  0  0
 16 14  1  0  0  0  0
 17 18  1  0  0  0  0
 18 19  1  0  0  0  0
 19 20  1  0  0  0  0
 20 21  1  1  0  0  0
 20 22  1  0  0  0  0
 22 23  1  6  0  0  0
 23 25  1  0  0  0  0
 25 27  1  0  0  0  0
 25 24  1  1  0  0  0
 27 26  1  0  0  0  0
 28 27  2  0  0  0  0
 29 22  1  0  0  0  0
 30 29  1  0  0  0  0
 30 32  1  0  0  0  0
 31 30  2  0  0  0  0
 33 32  1  0  0  0  0
 35 34  1  0  0  0  0
 36 47  1  6  0  0  0
 36 37  1  0  0  0  0
 37 43  2  0  0  0  0
 38 42  2  0  0  0  0
 38 43  1  0  0  0  0
 39 44  1  0  0  0  0
 39 41  1  0  0  0  0
 40 41  1  0  0  0  0
 42 39  1  0  0  0  0
 43 40  1  0  0  0  0
 44 45  1  1  0  0  0
 46 44  1  0  0  0  0
 47 49  1  0  0  0  0
 49 48  2  0  0  0  0
 49 50  1  0  0  0  0
 51 52  1  1  0  0  0
 51 50  1  0  0  0  0
 51 53  1  0  0  0  0
 53 55  1  0  0  0  0
 55 54  2  0  0  0  0
M  END
>  <MODEL>
1

>  <REMARK>
 VINA RESULT:      -6.1      0.000      0.000
  Name = 
  25 active torsions:
  status: ('A' for Active; 'I' for Inactive)
    1  A    between atoms: C_1  and  C_30
    2  A    between atoms: C_1  and  C_53
    3  A    between atoms: O_6  and  C_14
    4  A    between atoms: O_6  and  C_53
    5  A    between atoms: C_7  and  C_8
    6  A    between atoms: C_7  and  C_23
    7  A    between atoms: C_7  and  O_43
    8  A    between atoms: C_8  and  C_20
    9  A    between atoms: C_10  and  N_32
   10  A    between atoms: C_11  and  C_29
   11  A    between atoms: C_11  and  C_38
   12  A    between atoms: C_12  and  C_14
   13  A    between atoms: C_17  and  C_23
   14  A    between atoms: C_19  and  O_40
   15  A    between atoms: C_20  and  C_30
   16  A    between atoms: C_27  and  O_31
   17  A    between atoms: C_27  and  C_55
   18  A    between atoms: C_28  and  C_44
   19  A    between atoms: C_28  and  C_49
   20  A    between atoms: O_31  and  C_44
   21  A    between atoms: N_33  and  C_49
   22  A    between atoms: N_33  and  C_52
   23  A    between atoms: C_38  and  C_53
   24  A    between atoms: C_41  and  C_55
   25  A    between atoms: C_45  and  C_49
                            x       y       z     vdW  Elec       q    Type
                         _______ _______ _______ _____ _____    ______ ____

>  <TORSDO>
F 25

$$$$
=
 OpenBabel11052415133D

 55 57  0  0  1  0  0  0  0  0999 V2000
  191.9730  178.2150  140.0600 O   0  0  0  0  0  0  0  0  0  0  0  0
  187.7880  177.0150  138.0660 O   0  0  0  0  0  0  0  0  0  0  0  0
  188.7980  177.4810  139.0900 P   0  0  2  0  0  0  0  0  0  0  0  0
  190.4840  177.0070  138.5800 C   0  0  1  0  0  3  0  0  0  0  0  0
  190.8270  176.3590  141.1070 C   0  0  2  0  0  3  0  0  0  0  0  0
  188.4680  176.7640  140.5950 O   0  0  0  0  0  0  0  0  0  0  0  0
  192.8530  177.2540  139.5250 C   0  0  2  0  0  3  0  0  0  0  0  0
  188.7200  179.1640  139.2290 O   0  0  0  0  0  1  0  0  0  0  0  0
  191.4140  176.9440  139.7990 C   0  0  2  0  0  0  0  0  0  0  0  0
  189.5400  177.1420  141.4230 C   0  0  1  0  0  3  0  0  0  0  0  0
  193.7070  176.7640  140.5170 O   0  0  0  0  0  1  0  0  0  0  0  0
  191.6730  174.8160  137.9860 C   0  0  0  0  0  1  0  0  0  0  0  0
  190.4870  175.7340  137.7120 C   0  0  2  0  0  3  0  0  0  0  0  0
  190.2870  175.9620  136.2030 C   0  0  2  0  0  3  0  0  0  0  0  0
  189.2580  177.3150  134.8820 O   0  0  0  0  0  1  0  0  0  0  0  0
  190.0770  177.3190  135.9150 O   0  0  0  0  0  0  0  0  0  0  0  0
  189.1150  175.1520  135.6670 C   0  0  0  0  0  2  0  0  0  0  0  0
  188.6080  174.1320  136.6660 C   0  0  0  0  0  2  0  0  0  0  0  0
  187.3630  173.4230  136.1430 C   0  0  0  0  0  2  0  0  0  0  0  0
  186.1420  173.6610  137.0400 C   0  0  2  0  0  3  0  0  0  0  0  0
  186.0740  172.7340  138.0810 O   0  0  0  0  0  1  0  0  0  0  0  0
  184.8010  173.7380  136.2910 C   0  0  2  0  0  3  0  0  0  0  0  0
  184.3990  175.1060  135.7160 C   0  0  0  0  0  2  0  0  0  0  0  0
  185.2570  177.3330  135.8150 O   0  0  0  0  0  1  0  0  0  0  0  0
  184.8080  176.2800  136.6060 C   0  0  1  0  0  3  0  0  0  0  0  0
  183.3530  176.0710  138.6830 N   0  0  0  0  0  1  0  0  0  0  0  0
  183.6500  176.7260  137.4490 C   0  0  0  0  0  0  0  0  0  0  0  0
  182.9010  177.6540  137.0450 O   0  0  0  0  0  0  0  0  0  0  0  0
  183.7170  173.0750  136.9460 O   0  0  0  0  0  0  0  0  0  0  0  0
  182.8990  172.1190  136.3330 C   0  0  0  0  0  0  0  0  0  0  0  0
  183.2100  171.6570  135.2050 O   0  0  0  0  0  0  0  0  0  0  0  0
  181.6030  171.7380  136.9590 C   0  0  0  0  0  2  0  0  0  0  0  0
  180.8200  172.9350  137.2200 N   0  0  0  0  0  1  0  0  0  0  0  0
  191.3150  175.5110  143.0180 O   0  0  0  0  0  1  0  0  0  0  0  0
  191.7280  176.4320  142.1760 O   0  0  0  0  0  0  0  0  0  0  0  0
  189.1760  177.1860  142.9140 C   0  0  2  0  0  3  0  0  0  0  0  0
  187.8020  176.7580  143.1550 N   0  0  0  0  0  2  0  0  0  0  0  0
  186.1650  178.0460  144.5370 C   0  0  0  0  0  3  0  0  0  0  0  0
  184.2550  178.9500  143.4030 N   0  0  0  0  0  0  0  0  0  0  0  0
  186.1650  178.1540  142.0950 C   0  0  0  0  0  3  0  0  0  0  0  0
  185.0060  179.1150  142.1510 C   0  0  0  0  0  2  0  0  0  0  0  0
  184.9620  178.6240  144.6090 C   0  0  0  0  0  3  0  0  0  0  0  0
  186.7450  177.7110  143.2190 C   0  0  0  0  0  0  0  0  0  0  0  0
  182.8630  179.3730  143.5060 C   0  0  2  0  0  3  0  0  0  0  0  0
  182.1240  178.5500  144.5510 C   0  0  0  0  0  1  0  0  0  0  0  0
  182.2070  179.2360  142.2150 N   0  0  0  0  0  1  0  0  0  0  0  0
  189.3860  178.5820  143.5040 C   0  0  0  0  0  2  0  0  0  0  0  0
  191.5710  178.9160  144.4170 O   0  0  0  0  0  0  0  0  0  0  0  0
  190.3700  178.5860  144.6290 C   0  0  0  0  0  0  0  0  0  0  0  0
  189.9240  178.2620  145.9120 O   0  0  0  0  0  0  0  0  0  0  0  0
  190.0210  176.9510  146.4590 C   0  0  1  0  0  3  0  0  0  0  0  0
  191.2460  176.8750  147.3480 C   0  0  0  0  0  1  0  0  0  0  0  0
  188.7680  176.6080  147.2650 C   0  0  0  0  0  2  0  0  0  0  0  0
  187.7300  178.6550  148.1510 C   0  0  0  0  0  2  0  0  0  0  0  0
  188.5360  177.6150  148.3490 C   0  0  0  0  0  3  0  0  0  0  0  0
  3  2  2  6  0  0  0
  3  8  1  0  0  0  0
  3  6  1  0  0  0  0
  4 13  1  1  0  0  0
  4  3  1  0  0  0  0
  4  9  1  0  0  0  0
  5 10  1  0  0  0  0
  5 35  1  1  0  0  0
  6 10  1  0  0  0  0
  7  9  1  0  0  0  0
  7  1  1  0  0  0  0
  7 11  1  1  0  0  0
  9  1  1  1  0  0  0
  9  5  1  0  0  0  0
 10 36  1  1  0  0  0
 13 12  1  6  0  0  0
 14 17  1  1  0  0  0
 14 13  1  0  0  0  0
 15 16  1  0  0  0  0
 16 14  1  0  0  0  0
 17 18  1  0  0  0  0
 19 18  1  0  0  0  0
 19 20  1  0  0  0  0
 20 21  1  1  0  0  0
 22 23  1  1  0  0  0
 22 29  1  0  0  0  0
 22 20  1  0  0  0  0
 23 25  1  0  0  0  0
 25 24  1  6  0  0  0
 25 27  1  0  0  0  0
 27 26  1  0  0  0  0
 28 27  2  0  0  0  0
 30 29  1  0  0  0  0
 30 32  1  0  0  0  0
 31 30  2  0  0  0  0
 32 33  1  0  0  0  0
 35 34  1  0  0  0  0
 36 37  1  0  0  0  0
 36 47  1  6  0  0  0
 37 43  1  0  0  0  0
 38 42  2  0  0  0  0
 39 44  1  0  0  0  0
 39 42  1  0  0  0  0
 40 41  1  0  0  0  0
 40 43  2  0  0  0  0
 41 39  1  0  0  0  0
 43 38  1  0  0  0  0
 44 45  1  1  0  0  0
 46 44  1  0  0  0  0
 47 49  1  0  0  0  0
 48 49  2  0  0  0  0
 49 50  1  0  0  0  0
 50 51  1  0  0  0  0
 51 53  1  0  0  0  0
 51 52  1  1  0  0  0
 53 55  1  0  0  0  0
 54 55  2  0  0  0  0
M  END
>  <MODEL>
2

>  <REMARK>
 VINA RESULT:      -5.6      2.383      8.956
  Name = 
  25 active torsions:
  status: ('A' for Active; 'I' for Inactive)
    1  A    between atoms: C_1  and  C_30
    2  A    between atoms: C_1  and  C_53
    3  A    between atoms: O_6  and  C_14
    4  A    between atoms: O_6  and  C_53
    5  A    between atoms: C_7  and  C_8
    6  A    between atoms: C_7  and  C_23
    7  A    between atoms: C_7  and  O_43
    8  A    between atoms: C_8  and  C_20
    9  A    between atoms: C_10  and  N_32
   10  A    between atoms: C_11  and  C_29
   11  A    between atoms: C_11  and  C_38
   12  A    between atoms: C_12  and  C_14
   13  A    between atoms: C_17  and  C_23
   14  A    between atoms: C_19  and  O_40
   15  A    between atoms: C_20  and  C_30
   16  A    between atoms: C_27  and  O_31
   17  A    between atoms: C_27  and  C_55
   18  A    between atoms: C_28  and  C_44
   19  A    between atoms: C_28  and  C_49
   20  A    between atoms: O_31  and  C_44
   21  A    between atoms: N_33  and  C_49
   22  A    between atoms: N_33  and  C_52
   23  A    between atoms: C_38  and  C_53
   24  A    between atoms: C_41  and  C_55
   25  A    between atoms: C_45  and  C_49
                            x       y       z     vdW  Elec       q    Type
                         _______ _______ _______ _____ _____    ______ ____

>  <TORSDO>
F 25

$$$$
=
 OpenBabel11052415133D

 55 57  0  0  1  0  0  0  0  0999 V2000
  190.5230  178.6470  140.6050 O   0  0  0  0  0  0  0  0  0  0  0  0
  188.8670  178.1150  136.1440 O   0  0  0  0  0  0  0  0  0  0  0  0
  188.9160  178.4620  137.6150 P   0  0  2  0  0  0  0  0  0  0  0  0
  190.3270  177.6280  138.4170 C   0  0  1  0  0  3  0  0  0  0  0  0
  188.6400  177.1450  140.3780 C   0  0  2  0  0  3  0  0  0  0  0  0
  187.4840  177.9540  138.3770 O   0  0  0  0  0  0  0  0  0  0  0  0
  191.3100  177.4910  140.7790 C   0  0  2  0  0  3  0  0  0  0  0  0
  189.0950  180.1340  137.7910 O   0  0  0  0  0  1  0  0  0  0  0  0
  190.0800  177.4900  139.9250 C   0  0  2  0  0  0  0  0  0  0  0  0
  187.6980  178.1860  139.7480 C   0  0  1  0  0  3  0  0  0  0  0  0
  191.0880  176.9320  142.0410 O   0  0  0  0  0  1  0  0  0  0  0  0
  189.6420  175.2190  137.8740 C   0  0  0  0  0  1  0  0  0  0  0  0
  190.6940  176.3090  137.7100 C   0  0  2  0  0  3  0  0  0  0  0  0
  192.1090  175.7760  138.0000 C   0  0  2  0  0  3  0  0  0  0  0  0
  193.8920  176.4920  138.9700 O   0  0  0  0  0  1  0  0  0  0  0  0
  193.0550  176.8120  138.0030 O   0  0  0  0  0  0  0  0  0  0  0  0
  192.5270  174.7230  136.9820 C   0  0  0  0  0  2  0  0  0  0  0  0
  192.4900  175.2420  135.5600 C   0  0  0  0  0  2  0  0  0  0  0  0
  193.8380  175.0530  134.8710 C   0  0  0  0  0  2  0  0  0  0  0  0
  195.0110  175.1860  135.8500 C   0  0  2  0  0  3  0  0  0  0  0  0
  195.5970  176.4510  135.7890 O   0  0  0  0  0  1  0  0  0  0  0  0
  196.0780  174.0850  135.7250 C   0  0  2  0  0  3  0  0  0  0  0  0
  195.7190  172.6980  136.2820 C   0  0  0  0  0  2  0  0  0  0  0  0
  196.1520  170.7500  134.9700 O   0  0  0  0  0  1  0  0  0  0  0  0
  195.1990  171.7330  135.2150 C   0  0  1  0  0  3  0  0  0  0  0  0
  193.8850  170.2290  136.7910 N   0  0  0  0  0  1  0  0  0  0  0  0
  193.9130  171.1040  135.6620 C   0  0  0  0  0  0  0  0  0  0  0  0
  192.8560  171.3080  135.0100 O   0  0  0  0  0  0  0  0  0  0  0  0
  197.3990  174.4980  136.0820 O   0  0  0  0  0  0  0  0  0  0  0  0
  197.9140  174.4350  137.3810 C   0  0  0  0  0  0  0  0  0  0  0  0
  197.3750  175.1000  138.3030 O   0  0  0  0  0  0  0  0  0  0  0  0
  199.1680  173.6780  137.6490 C   0  0  0  0  0  2  0  0  0  0  0  0
  198.9830  172.2850  137.2770 N   0  0  0  0  0  1  0  0  0  0  0  0
  188.8320  175.9080  142.1220 O   0  0  0  0  0  1  0  0  0  0  0  0
  188.5070  177.1320  141.7710 O   0  0  0  0  0  0  0  0  0  0  0  0
  186.4030  178.4280  140.5360 C   0  0  2  0  0  3  0  0  0  0  0  0
  185.4910  179.3220  139.8320 N   0  0  0  0  0  2  0  0  0  0  0  0
  183.2610  179.8460  138.8310 C   0  0  0  0  0  3  0  0  0  0  0  0
  181.4710  178.3200  139.2960 N   0  0  0  0  0  0  0  0  0  0  0  0
  183.7790  177.6440  139.7560 C   0  0  0  0  0  3  0  0  0  0  0  0
  182.3940  177.1800  139.3890 C   0  0  0  0  0  2  0  0  0  0  0  0
  181.9530  179.5730  138.7900 C   0  0  0  0  0  3  0  0  0  0  0  0
  184.2000  178.8730  139.4290 C   0  0  0  0  0  0  0  0  0  0  0  0
  180.0320  178.1360  139.4430 C   0  0  2  0  0  3  0  0  0  0  0  0
  179.7100  176.7130  139.8730 C   0  0  0  0  0  1  0  0  0  0  0  0
  179.3630  178.4360  138.1860 N   0  0  0  0  0  1  0  0  0  0  0  0
  186.6890  178.9850  141.9310 C   0  0  0  0  0  2  0  0  0  0  0  0
  184.5900  178.3990  142.9160 O   0  0  0  0  0  0  0  0  0  0  0  0
  185.8500  178.3430  142.9890 C   0  0  0  0  0  0  0  0  0  0  0  0
  186.4860  177.6530  144.0240 O   0  0  0  0  0  0  0  0  0  0  0  0
  187.0310  178.3010  145.1680 C   0  0  1  0  0  3  0  0  0  0  0  0
  186.0540  178.1740  146.3200 C   0  0  0  0  0  1  0  0  0  0  0  0
  188.3750  177.6800  145.5520 C   0  0  0  0  0  2  0  0  0  0  0  0
  189.1410  176.5860  147.6180 C   0  0  0  0  0  2  0  0  0  0  0  0
  188.5310  177.6180  147.0400 C   0  0  0  0  0  3  0  0  0  0  0  0
  1  7  1  0  0  0  0
  3  2  2  6  0  0  0
  3  8  1  0  0  0  0
  3  6  1  0  0  0  0
  3  4  1  0  0  0  0
  4 13  1  6  0  0  0
  4  9  1  0  0  0  0
  5 35  1  1  0  0  0
  6 10  1  0  0  0  0
  7 11  1  1  0  0  0
  9  5  1  0  0  0  0
  9  1  1  1  0  0  0
  9  7  1  0  0  0  0
 10  5  1  0  0  0  0
 10 36  1  1  0  0  0
 13 12  1  1  0  0  0
 13 14  1  0  0  0  0
 14 17  1  6  0  0  0
 14 16  1  0  0  0  0
 16 15  1  0  0  0  0
 18 17  1  0  0  0  0
 19 18  1  0  0  0  0
 19 20  1  0  0  0  0
 20 21  1  6  0  0  0
 22 20  1  0  0  0  0
 22 29  1  0  0  0  0
 22 23  1  1  0  0  0
 25 24  1  1  0  0  0
 25 27  1  0  0  0  0
 25 23  1  0  0  0  0
 27 26  1  0  0  0  0
 28 27  2  0  0  0  0
 29 30  1  0  0  0  0
 30 32  1  0  0  0  0
 30 31  2  0  0  0  0
 33 32  1  0  0  0  0
 35 34  1  0  0  0  0
 36 47  1  1  0  0  0
 37 36  1  0  0  0  0
 38 43  1  0  0  0  0
 39 41  1  0  0  0  0
 39 44  1  0  0  0  0
 41 40  1  0  0  0  0
 42 38  2  0  0  0  0
 42 39  1  0  0  0  0
 43 40  2  0  0  0  0
 43 37  1  0  0  0  0
 44 45  1  6  0  0  0
 46 44  1  0  0  0  0
 47 49  1  0  0  0  0
 48 49  2  0  0  0  0
 49 50  1  0  0  0  0
 50 51  1  0  0  0  0
 51 53  1  0  0  0  0
 51 52  1  1  0  0  0
 53 55  1  0  0  0  0
 55 54  2  0  0  0  0
M  END
>  <MODEL>
3

>  <REMARK>
 VINA RESULT:      -5.2      4.090      8.419
  Name = 
  25 active torsions:
  status: ('A' for Active; 'I' for Inactive)
    1  A    between atoms: C_1  and  C_30
    2  A    between atoms: C_1  and  C_53
    3  A    between atoms: O_6  and  C_14
    4  A    between atoms: O_6  and  C_53
    5  A    between atoms: C_7  and  C_8
    6  A    between atoms: C_7  and  C_23
    7  A    between atoms: C_7  and  O_43
    8  A    between atoms: C_8  and  C_20
    9  A    between atoms: C_10  and  N_32
   10  A    between atoms: C_11  and  C_29
   11  A    between atoms: C_11  and  C_38
   12  A    between atoms: C_12  and  C_14
   13  A    between atoms: C_17  and  C_23
   14  A    between atoms: C_19  and  O_40
   15  A    between atoms: C_20  and  C_30
   16  A    between atoms: C_27  and  O_31
   17  A    between atoms: C_27  and  C_55
   18  A    between atoms: C_28  and  C_44
   19  A    between atoms: C_28  and  C_49
   20  A    between atoms: O_31  and  C_44
   21  A    between atoms: N_33  and  C_49
   22  A    between atoms: N_33  and  C_52
   23  A    between atoms: C_38  and  C_53
   24  A    between atoms: C_41  and  C_55
   25  A    between atoms: C_45  and  C_49
                            x       y       z     vdW  Elec       q    Type
                         _______ _______ _______ _____ _____    ______ ____

>  <TORSDO>
F 25

$$$$
=
 OpenBabel11052415133D

 55 57  0  0  1  0  0  0  0  0999 V2000
  188.7640  179.4600  140.7820 O   0  0  0  0  0  0  0  0  0  0  0  0
  191.6110  176.2430  142.8960 O   0  0  0  0  0  1  0  0  0  0  0  0
  190.9300  177.0510  141.8160 P   0  0  2  0  0  0  0  0  0  0  0  0
  189.4420  177.8730  142.4810 C   0  0  1  0  0  3  0  0  0  0  0  0
  188.3060  177.1510  140.2190 C   0  0  2  0  0  3  0  0  0  0  0  0
  190.4590  176.0320  140.5400 O   0  0  0  0  0  0  0  0  0  0  0  0
  187.6000  179.4040  141.5740 C   0  0  2  0  0  3  0  0  0  0  0  0
  191.9960  178.2310  141.2420 O   0  0  0  0  0  0  0  0  0  0  0  0
  188.4610  178.2010  141.3470 C   0  0  2  0  0  0  0  0  0  0  0  0
  189.7140  176.8520  139.6740 C   0  0  1  0  0  3  0  0  0  0  0  0
  186.4580  179.4070  140.7670 O   0  0  0  0  0  1  0  0  0  0  0  0
  188.0500  175.8460  143.2040 C   0  0  0  0  0  1  0  0  0  0  0  0
  188.8220  177.0830  143.6490 C   0  0  2  0  0  3  0  0  0  0  0  0
  188.0140  177.9190  144.6570 C   0  0  2  0  0  3  0  0  0  0  0  0
  189.9100  177.8520  145.6760 O   0  0  0  0  0  1  0  0  0  0  0  0
  188.6160  177.9150  145.9240 O   0  0  0  0  0  0  0  0  0  0  0  0
  186.5840  177.4130  144.7830 C   0  0  0  0  0  2  0  0  0  0  0  0
  185.7360  178.2850  145.6870 C   0  0  0  0  0  2  0  0  0  0  0  0
  184.3410  178.4860  145.1030 C   0  0  0  0  0  2  0  0  0  0  0  0
  184.3870  178.9880  143.6550 C   0  0  2  0  0  3  0  0  0  0  0  0
  184.7710  180.3280  143.5830 O   0  0  0  0  0  1  0  0  0  0  0  0
  183.0980  178.7480  142.8520 C   0  0  2  0  0  3  0  0  0  0  0  0
  183.2570  178.2350  141.4110 C   0  0  0  0  0  2  0  0  0  0  0  0
  183.6240  179.8000  139.6450 O   0  0  0  0  0  1  0  0  0  0  0  0
  182.6250  179.1570  140.3680 C   0  0  1  0  0  3  0  0  0  0  0  0
  181.5360  178.8030  138.0950 N   0  0  0  0  0  1  0  0  0  0  0  0
  181.7440  178.3720  139.4420 C   0  0  0  0  0  0  0  0  0  0  0  0
  181.1430  177.3500  139.8650 O   0  0  0  0  0  0  0  0  0  0  0  0
  182.1280  179.7920  142.9620 O   0  0  0  0  0  0  0  0  0  0  0  0
  180.7470  179.5900  142.8700 C   0  0  0  0  0  0  0  0  0  0  0  0
  179.9910  180.5460  142.5580 O   0  0  0  0  0  0  0  0  0  0  0  0
  180.1590  178.2770  143.2580 C   0  0  0  0  0  2  0  0  0  0  0  0
  179.3670  178.4380  144.4660 N   0  0  0  0  0  1  0  0  0  0  0  0
  186.9650  176.4850  138.6810 O   0  0  0  0  0  1  0  0  0  0  0  0
  187.4580  177.5900  139.1950 O   0  0  0  0  0  0  0  0  0  0  0  0
  189.7390  176.3810  138.2130 C   0  0  2  0  0  3  0  0  0  0  0  0
  190.6830  175.2880  138.0060 N   0  0  0  0  0  2  0  0  0  0  0  0
  192.1080  174.6430  136.0550 C   0  0  0  0  0  3  0  0  0  0  0  0
  194.4200  175.2700  136.1380 N   0  0  0  0  0  0  0  0  0  0  0  0
  192.8380  176.2970  137.6990 C   0  0  0  0  0  3  0  0  0  0  0  0
  194.1230  176.4700  136.9340 C   0  0  0  0  0  2  0  0  0  0  0  0
  193.3390  174.5340  135.5480 C   0  0  0  0  0  3  0  0  0  0  0  0
  191.8710  175.4890  137.2440 C   0  0  0  0  0  0  0  0  0  0  0  0
  195.7820  174.9690  135.7120 C   0  0  2  0  0  3  0  0  0  0  0  0
  196.4240  173.9450  136.6360 C   0  0  0  0  0  1  0  0  0  0  0  0
  196.5770  176.1870  135.6960 N   0  0  0  0  0  1  0  0  0  0  0  0
  190.0690  177.5290  137.2570 C   0  0  0  0  0  2  0  0  0  0  0  0
  190.0470  177.2020  134.8890 O   0  0  0  0  0  0  0  0  0  0  0  0
  189.3750  177.3970  135.9400 C   0  0  0  0  0  0  0  0  0  0  0  0
  187.9800  177.4510  135.9080 O   0  0  0  0  0  0  0  0  0  0  0  0
  187.1980  176.7610  134.9390 C   0  0  1  0  0  3  0  0  0  0  0  0
  187.0580  175.3110  135.3580 C   0  0  0  0  0  1  0  0  0  0  0  0
  185.8160  177.4020  134.8030 C   0  0  0  0  0  2  0  0  0  0  0  0
  183.5920  176.8340  135.6880 C   0  0  0  0  0  2  0  0  0  0  0  0
  184.9020  176.9400  135.8960 C   0  0  0  0  0  3  0  0  0  0  0  0
  1  7  1  0  0  0  0
  3  8  2  6  0  0  0
  3  4  1  0  0  0  0
  3  2  1  0  0  0  0
  4 13  1  1  0  0  0
  5 35  1  6  0  0  0
  5  9  1  0  0  0  0
  6  3  1  0  0  0  0
  7 11  1  6  0  0  0
  9  1  1  6  0  0  0
  9  7  1  0  0  0  0
  9  4  1  0  0  0  0
 10 36  1  6  0  0  0
 10  5  1  0  0  0  0
 10  6  1  0  0  0  0
 13 12  1  6  0  0  0
 13 14  1  0  0  0  0
 14 17  1  1  0  0  0
 14 16  1  0  0  0  0
 15 16  1  0  0  0  0
 17 18  1  0  0  0  0
 19 18  1  0  0  0  0
 20 21  1  1  0  0  0
 20 19  1  0  0  0  0
 22 23  1  6  0  0  0
 22 29  1  0  0  0  0
 22 20  1  0  0  0  0
 25 24  1  6  0  0  0
 25 23  1  0  0  0  0
 26 27  1  0  0  0  0
 27 28  2  0  0  0  0
 27 25  1  0  0  0  0
 30 29  1  0  0  0  0
 30 32  1  0  0  0  0
 31 30  2  0  0  0  0
 32 33  1  0  0  0  0
 34 35  1  0  0  0  0
 36 47  1  6  0  0  0
 37 36  1  0  0  0  0
 38 43  1  0  0  0  0
 39 41  1  0  0  0  0
 41 40  1  0  0  0  0
 42 38  2  0  0  0  0
 42 39  1  0  0  0  0
 43 40  2  0  0  0  0
 43 37  1  0  0  0  0
 44 39  1  0  0  0  0
 44 45  1  1  0  0  0
 46 44  1  0  0  0  0
 48 49  2  0  0  0  0
 49 47  1  0  0  0  0
 50 49  1  0  0  0  0
 51 52  1  1  0  0  0
 51 50  1  0  0  0  0
 53 51  1  0  0  0  0
 53 55  1  0  0  0  0
 54 55  2  0  0  0  0
M  END
>  <MODEL>
4

>  <REMARK>
 VINA RESULT:      -5.2      3.727      8.629
  Name = 
  25 active torsions:
  status: ('A' for Active; 'I' for Inactive)
    1  A    between atoms: C_1  and  C_30
    2  A    between atoms: C_1  and  C_53
    3  A    between atoms: O_6  and  C_14
    4  A    between atoms: O_6  and  C_53
    5  A    between atoms: C_7  and  C_8
    6  A    between atoms: C_7  and  C_23
    7  A    between atoms: C_7  and  O_43
    8  A    between atoms: C_8  and  C_20
    9  A    between atoms: C_10  and  N_32
   10  A    between atoms: C_11  and  C_29
   11  A    between atoms: C_11  and  C_38
   12  A    between atoms: C_12  and  C_14
   13  A    between atoms: C_17  and  C_23
   14  A    between atoms: C_19  and  O_40
   15  A    between atoms: C_20  and  C_30
   16  A    between atoms: C_27  and  O_31
   17  A    between atoms: C_27  and  C_55
   18  A    between atoms: C_28  and  C_44
   19  A    between atoms: C_28  and  C_49
   20  A    between atoms: O_31  and  C_44
   21  A    between atoms: N_33  and  C_49
   22  A    between atoms: N_33  and  C_52
   23  A    between atoms: C_38  and  C_53
   24  A    between atoms: C_41  and  C_55
   25  A    between atoms: C_45  and  C_49
                            x       y       z     vdW  Elec       q    Type
                         _______ _______ _______ _____ _____    ______ ____

>  <TORSDO>
F 25

$$$$
=
 OpenBabel11052415133D

 55 57  0  0  1  0  0  0  0  0999 V2000
  188.9400  179.2750  140.4350 O   0  0  0  0  0  0  0  0  0  0  0  0
  191.8810  176.3680  142.8500 O   0  0  0  0  0  1  0  0  0  0  0  0
  191.2250  177.0980  141.7000 P   0  0  2  0  0  0  0  0  0  0  0  0
  189.6120  177.7760  142.2150 C   0  0  1  0  0  3  0  0  0  0  0  0
  188.7590  176.9290  139.8740 C   0  0  2  0  0  3  0  0  0  0  0  0
  190.9720  176.0270  140.4050 O   0  0  0  0  0  0  0  0  0  0  0  0
  187.7200  179.1140  141.1210 C   0  0  2  0  0  3  0  0  0  0  0  0
  192.2210  178.3700  141.2030 O   0  0  0  0  0  0  0  0  0  0  0  0
  188.7100  177.9980  140.9930 C   0  0  2  0  0  0  0  0  0  0  0  0
  190.2330  176.7630  139.4610 C   0  0  1  0  0  3  0  0  0  0  0  0
  186.6610  178.9990  140.2160 O   0  0  0  0  0  1  0  0  0  0  0  0
  188.1160  175.7850  142.8210 C   0  0  0  0  0  1  0  0  0  0  0  0
  188.9670  176.9400  143.3370 C   0  0  2  0  0  3  0  0  0  0  0  0
  188.2270  177.7450  144.4190 C   0  0  2  0  0  3  0  0  0  0  0  0
  189.9560  176.9400  145.4170 O   0  0  0  0  0  1  0  0  0  0  0  0
  188.9380  177.7500  145.6280 O   0  0  0  0  0  0  0  0  0  0  0  0
  186.8280  177.1950  144.6660 C   0  0  0  0  0  2  0  0  0  0  0  0
  185.8790  178.2430  145.2100 C   0  0  0  0  0  2  0  0  0  0  0  0
  184.5260  178.1740  144.5090 C   0  0  0  0  0  2  0  0  0  0  0  0
  184.5820  178.7420  143.0860 C   0  0  2  0  0  3  0  0  0  0  0  0
  185.2550  179.9650  143.0420 O   0  0  0  0  0  1  0  0  0  0  0  0
  183.2180  178.8460  142.3830 C   0  0  2  0  0  3  0  0  0  0  0  0
  181.9770  178.9740  143.2820 C   0  0  0  0  0  2  0  0  0  0  0  0
  179.8980  177.8450  143.6070 O   0  0  0  0  0  1  0  0  0  0  0  0
  180.7030  178.4300  142.6350 C   0  0  1  0  0  3  0  0  0  0  0  0
  179.8020  180.8090  142.5670 N   0  0  0  0  0  1  0  0  0  0  0  0
  179.9560  179.5320  141.9440 C   0  0  0  0  0  0  0  0  0  0  0  0
  179.4190  179.3190  140.8260 O   0  0  0  0  0  0  0  0  0  0  0  0
  183.0310  177.9160  141.3140 O   0  0  0  0  0  0  0  0  0  0  0  0
  182.9850  178.2760  139.9620 C   0  0  0  0  0  0  0  0  0  0  0  0
  182.9730  179.4910  139.6370 O   0  0  0  0  0  0  0  0  0  0  0  0
  182.8300  177.2260  138.9170 C   0  0  0  0  0  2  0  0  0  0  0  0
  182.5550  175.9470  139.5510 N   0  0  0  0  0  1  0  0  0  0  0  0
  187.2790  176.1870  138.5070 O   0  0  0  0  0  1  0  0  0  0  0  0
  187.9690  177.2740  138.7710 O   0  0  0  0  0  0  0  0  0  0  0  0
  190.4350  176.2840  138.0170 C   0  0  2  0  0  3  0  0  0  0  0  0
  190.4040  174.8300  137.9120 N   0  0  0  0  0  2  0  0  0  0  0  0
  188.9790  175.0070  135.8650 C   0  0  0  0  0  3  0  0  0  0  0  0
  187.4170  173.2320  135.4670 N   0  0  0  0  0  0  0  0  0  0  0  0
  189.2090  172.9120  137.1050 C   0  0  0  0  0  3  0  0  0  0  0  0
  188.2900  172.2440  136.1170 C   0  0  0  0  0  2  0  0  0  0  0  0
  187.9310  174.5400  135.1790 C   0  0  0  0  0  3  0  0  0  0  0  0
  189.5810  174.1900  136.9410 C   0  0  0  0  0  0  0  0  0  0  0  0
  186.1490  172.8350  134.8660 C   0  0  2  0  0  3  0  0  0  0  0  0
  185.2760  174.0510  134.5940 C   0  0  0  0  0  1  0  0  0  0  0  0
  185.4510  171.9120  135.7470 N   0  0  0  0  0  1  0  0  0  0  0  0
  191.7460  176.8100  137.4280 C   0  0  0  0  0  2  0  0  0  0  0  0
  193.5030  175.6810  138.5930 O   0  0  0  0  0  0  0  0  0  0  0  0
  192.8550  175.8130  137.5160 C   0  0  0  0  0  0  0  0  0  0  0  0
  193.1280  175.0110  136.4050 O   0  0  0  0  0  0  0  0  0  0  0  0
  194.3280  175.1170  135.6470 C   0  0  1  0  0  3  0  0  0  0  0  0
  194.5930  176.5780  135.3440 C   0  0  0  0  0  1  0  0  0  0  0  0
  195.5070  174.5200  136.4150 C   0  0  0  0  0  2  0  0  0  0  0  0
  197.7010  173.5260  135.9130 C   0  0  0  0  0  2  0  0  0  0  0  0
  196.6570  174.2380  135.4970 C   0  0  0  0  0  3  0  0  0  0  0  0
  1  7  1  0  0  0  0
  3  8  2  6  0  0  0
  3  4  1  0  0  0  0
  3  2  1  0  0  0  0
  4 13  1  1  0  0  0
  5 35  1  6  0  0  0
  5  9  1  0  0  0  0
  6  3  1  0  0  0  0
  7 11  1  6  0  0  0
  9  1  1  6  0  0  0
  9  7  1  0  0  0  0
  9  4  1  0  0  0  0
 10 36  1  6  0  0  0
 10  5  1  0  0  0  0
 10  6  1  0  0  0  0
 13 12  1  6  0  0  0
 13 14  1  0  0  0  0
 14 17  1  1  0  0  0
 14 16  1  0  0  0  0
 15 16  1  0  0  0  0
 17 18  1  0  0  0  0
 19 18  1  0  0  0  0
 20 21  1  1  0  0  0
 20 19  1  0  0  0  0
 22 20  1  0  0  0  0
 22 23  1  1  0  0  0
 25 23  1  0  0  0  0
 25 24  1  1  0  0  0
 27 26  1  0  0  0  0
 27 25  1  0  0  0  0
 28 27  2  0  0  0  0
 29 22  1  0  0  0  0
 30 29  1  0  0  0  0
 31 30  2  0  0  0  0
 32 33  1  0  0  0  0
 32 30  1  0  0  0  0
 34 35  1  0  0  0  0
 36 47  1  1  0  0  0
 37 36  1  0  0  0  0
 38 43  1  0  0  0  0
 39 41  1  0  0  0  0
 41 40  1  0  0  0  0
 42 39  1  0  0  0  0
 42 38  2  0  0  0  0
 43 40  2  0  0  0  0
 43 37  1  0  0  0  0
 44 45  1  1  0  0  0
 44 39  1  0  0  0  0
 44 46  1  0  0  0  0
 47 49  1  0  0  0  0
 49 48  2  0  0  0  0
 50 49  1  0  0  0  0
 51 52  1  1  0  0  0
 51 50  1  0  0  0  0
 51 53  1  0  0  0  0
 55 54  2  0  0  0  0
 55 53  1  0  0  0  0
M  END
>  <MODEL>
5

>  <REMARK>
 VINA RESULT:      -5.0      3.386      8.649
  Name = 
  25 active torsions:
  status: ('A' for Active; 'I' for Inactive)
    1  A    between atoms: C_1  and  C_30
    2  A    between atoms: C_1  and  C_53
    3  A    between atoms: O_6  and  C_14
    4  A    between atoms: O_6  and  C_53
    5  A    between atoms: C_7  and  C_8
    6  A    between atoms: C_7  and  C_23
    7  A    between atoms: C_7  and  O_43
    8  A    between atoms: C_8  and  C_20
    9  A    between atoms: C_10  and  N_32
   10  A    between atoms: C_11  and  C_29
   11  A    between atoms: C_11  and  C_38
   12  A    between atoms: C_12  and  C_14
   13  A    between atoms: C_17  and  C_23
   14  A    between atoms: C_19  and  O_40
   15  A    between atoms: C_20  and  C_30
   16  A    between atoms: C_27  and  O_31
   17  A    between atoms: C_27  and  C_55
   18  A    between atoms: C_28  and  C_44
   19  A    between atoms: C_28  and  C_49
   20  A    between atoms: O_31  and  C_44
   21  A    between atoms: N_33  and  C_49
   22  A    between atoms: N_33  and  C_52
   23  A    between atoms: C_38  and  C_53
   24  A    between atoms: C_41  and  C_55
   25  A    between atoms: C_45  and  C_49
                            x       y       z     vdW  Elec       q    Type
                         _______ _______ _______ _____ _____    ______ ____

>  <TORSDO>
F 25

$$$$
=
 OpenBabel11052415133D

 55 57  0  0  1  0  0  0  0  0999 V2000
  188.8380  179.2430  140.4740 O   0  0  0  0  0  0  0  0  0  0  0  0
  191.9730  176.3180  142.6050 O   0  0  0  0  0  1  0  0  0  0  0  0
  191.1980  177.0300  141.5200 P   0  0  2  0  0  0  0  0  0  0  0  0
  189.6860  177.7830  142.2110 C   0  0  1  0  0  3  0  0  0  0  0  0
  188.5130  176.8870  140.0320 C   0  0  2  0  0  3  0  0  0  0  0  0
  190.7460  175.9250  140.3100 O   0  0  0  0  0  0  0  0  0  0  0  0
  187.7120  179.1490  141.3160 C   0  0  2  0  0  3  0  0  0  0  0  0
  192.1600  178.2480  140.8510 O   0  0  0  0  0  0  0  0  0  0  0  0
  188.6410  177.9950  141.1060 C   0  0  2  0  0  0  0  0  0  0  0  0
  189.9150  176.6540  139.4410 C   0  0  1  0  0  3  0  0  0  0  0  0
  186.5420  179.0410  140.5590 O   0  0  0  0  0  1  0  0  0  0  0  0
  188.4040  175.7400  143.0760 C   0  0  0  0  0  1  0  0  0  0  0  0
  189.1660  177.0100  143.4370 C   0  0  2  0  0  3  0  0  0  0  0  0
  188.4000  177.8520  144.4730 C   0  0  2  0  0  3  0  0  0  0  0  0
  189.4190  178.2710  146.3220 O   0  0  0  0  0  1  0  0  0  0  0  0
  188.6160  177.3800  145.7760 O   0  0  0  0  0  0  0  0  0  0  0  0
  186.9040  177.8620  144.1880 C   0  0  0  0  0  2  0  0  0  0  0  0
  186.0800  178.1750  145.4200 C   0  0  0  0  0  2  0  0  0  0  0  0
  184.6200  178.4250  145.0550 C   0  0  0  0  0  2  0  0  0  0  0  0
  184.4780  179.2250  143.7530 C   0  0  2  0  0  3  0  0  0  0  0  0
  184.5330  180.6010  143.9820 O   0  0  0  0  0  1  0  0  0  0  0  0
  183.2450  178.8610  142.9100 C   0  0  2  0  0  3  0  0  0  0  0  0
  182.0060  178.3540  143.6660 C   0  0  0  0  0  2  0  0  0  0  0  0
  180.9150  180.1260  142.4940 O   0  0  0  0  0  1  0  0  0  0  0  0
  180.8340  179.3350  143.6350 C   0  0  1  0  0  3  0  0  0  0  0  0
  178.9320  178.1400  142.4400 N   0  0  0  0  0  1  0  0  0  0  0  0
  179.5310  178.5930  143.6560 C   0  0  0  0  0  0  0  0  0  0  0  0
  178.9320  178.4080  144.7470 O   0  0  0  0  0  0  0  0  0  0  0  0
  183.5330  178.0890  141.7420 O   0  0  0  0  0  0  0  0  0  0  0  0
  183.0110  178.3630  140.4740 C   0  0  0  0  0  0  0  0  0  0  0  0
  181.8280  178.0350  140.1970 O   0  0  0  0  0  0  0  0  0  0  0  0
  183.8880  178.9340  139.4140 C   0  0  0  0  0  2  0  0  0  0  0  0
  183.5280  180.3230  139.1810 N   0  0  0  0  0  1  0  0  0  0  0  0
  187.0300  176.0810  138.7050 O   0  0  0  0  0  1  0  0  0  0  0  0
  187.5980  177.2220  139.0260 O   0  0  0  0  0  0  0  0  0  0  0  0
  189.9150  176.1190  138.0030 C   0  0  2  0  0  3  0  0  0  0  0  0
  190.7360  174.9210  137.8630 N   0  0  0  0  0  2  0  0  0  0  0  0
  193.0010  175.9790  137.8460 C   0  0  0  0  0  3  0  0  0  0  0  0
  194.2970  175.7500  135.8420 N   0  0  0  0  0  0  0  0  0  0  0  0
  192.3320  174.3270  136.1740 C   0  0  0  0  0  3  0  0  0  0  0  0
  193.6890  174.4480  135.5320 C   0  0  0  0  0  2  0  0  0  0  0  0
  194.0680  176.3430  137.1290 C   0  0  0  0  0  3  0  0  0  0  0  0
  192.0410  174.9970  137.2970 C   0  0  0  0  0  0  0  0  0  0  0  0
  195.3350  176.3170  134.9890 C   0  0  2  0  0  3  0  0  0  0  0  0
  196.5370  175.3870  134.9100 C   0  0  0  0  0  1  0  0  0  0  0  0
  195.7470  177.6130  135.5060 N   0  0  0  0  0  1  0  0  0  0  0  0
  190.3860  177.1800  137.0070 C   0  0  0  0  0  2  0  0  0  0  0  0
  190.4030  177.1930  134.6160 O   0  0  0  0  0  0  0  0  0  0  0  0
  189.7260  177.0490  135.6730 C   0  0  0  0  0  0  0  0  0  0  0  0
  188.3680  176.7250  135.6240 O   0  0  0  0  0  0  0  0  0  0  0  0
  187.8380  175.7280  134.7560 C   0  0  1  0  0  3  0  0  0  0  0  0
  188.5640  174.4210  135.0040 C   0  0  0  0  0  1  0  0  0  0  0  0
  186.3390  175.5470  134.9930 C   0  0  0  0  0  2  0  0  0  0  0  0
  185.5320  173.9650  136.6960 C   0  0  0  0  0  2  0  0  0  0  0  0
  186.0360  174.1640  135.4810 C   0  0  0  0  0  3  0  0  0  0  0  0
  1  7  1  0  0  0  0
  3  8  2  6  0  0  0
  3  4  1  0  0  0  0
  3  2  1  0  0  0  0
  4 13  1  1  0  0  0
  5 35  1  6  0  0  0
  5  9  1  0  0  0  0
  6  3  1  0  0  0  0
  7 11  1  6  0  0  0
  9  1  1  6  0  0  0
  9  7  1  0  0  0  0
  9  4  1  0  0  0  0
 10 36  1  6  0  0  0
 10  5  1  0  0  0  0
 10  6  1  0  0  0  0
 13 12  1  6  0  0  0
 13 14  1  0  0  0  0
 14 17  1  6  0  0  0
 14 16  1  0  0  0  0
 16 15  1  0  0  0  0
 17 18  1  0  0  0  0
 19 18  1  0  0  0  0
 20 21  1  1  0  0  0
 20 19  1  0  0  0  0
 22 23  1  1  0  0  0
 22 20  1  0  0  0  0
 25 24  1  6  0  0  0
 25 27  1  0  0  0  0
 25 23  1  0  0  0  0
 26 27  1  0  0  0  0
 27 28  2  0  0  0  0
 29 22  1  0  0  0  0
 30 29  1  0  0  0  0
 31 30  2  0  0  0  0
 32 30  1  0  0  0  0
 33 32  1  0  0  0  0
 34 35  1  0  0  0  0
 36 47  1  6  0  0  0
 37 36  1  0  0  0  0
 39 42  1  0  0  0  0
 40 43  2  0  0  0  0
 41 39  1  0  0  0  0
 41 40  1  0  0  0  0
 42 38  2  0  0  0  0
 43 38  1  0  0  0  0
 43 37  1  0  0  0  0
 44 45  1  1  0  0  0
 44 46  1  0  0  0  0
 44 39  1  0  0  0  0
 48 49  2  0  0  0  0
 49 47  1  0  0  0  0
 50 49  1  0  0  0  0
 51 53  1  0  0  0  0
 51 52  1  1  0  0  0
 51 50  1  0  0  0  0
 53 55  1  0  0  0  0
 55 54  2  0  0  0  0
M  END
>  <MODEL>
6

>  <REMARK>
 VINA RESULT:      -4.6      3.819      8.538
  Name = 
  25 active torsions:
  status: ('A' for Active; 'I' for Inactive)
    1  A    between atoms: C_1  and  C_30
    2  A    between atoms: C_1  and  C_53
    3  A    between atoms: O_6  and  C_14
    4  A    between atoms: O_6  and  C_53
    5  A    between atoms: C_7  and  C_8
    6  A    between atoms: C_7  and  C_23
    7  A    between atoms: C_7  and  O_43
    8  A    between atoms: C_8  and  C_20
    9  A    between atoms: C_10  and  N_32
   10  A    between atoms: C_11  and  C_29
   11  A    between atoms: C_11  and  C_38
   12  A    between atoms: C_12  and  C_14
   13  A    between atoms: C_17  and  C_23
   14  A    between atoms: C_19  and  O_40
   15  A    between atoms: C_20  and  C_30
   16  A    between atoms: C_27  and  O_31
   17  A    between atoms: C_27  and  C_55
   18  A    between atoms: C_28  and  C_44
   19  A    between atoms: C_28  and  C_49
   20  A    between atoms: O_31  and  C_44
   21  A    between atoms: N_33  and  C_49
   22  A    between atoms: N_33  and  C_52
   23  A    between atoms: C_38  and  C_53
   24  A    between atoms: C_41  and  C_55
   25  A    between atoms: C_45  and  C_49
                            x       y       z     vdW  Elec       q    Type
                         _______ _______ _______ _____ _____    ______ ____

>  <TORSDO>
F 25

$$$$
=
 OpenBabel11052415133D

 55 57  0  0  1  0  0  0  0  0999 V2000
  190.2880  178.6030  141.0900 O   0  0  0  0  0  0  0  0  0  0  0  0
  188.9720  177.7110  136.5740 O   0  0  0  0  0  0  0  0  0  0  0  0
  188.9130  178.1790  138.0100 P   0  0  2  0  0  0  0  0  0  0  0  0
  190.2470  177.4070  138.9850 C   0  0  1  0  0  3  0  0  0  0  0  0
  188.4090  177.1000  140.8430 C   0  0  2  0  0  3  0  0  0  0  0  0
  187.4200  177.7460  138.6990 O   0  0  0  0  0  0  0  0  0  0  0  0
  191.0440  177.4610  141.4190 C   0  0  2  0  0  3  0  0  0  0  0  0
  189.0990  179.8590  138.0600 O   0  0  0  0  0  1  0  0  0  0  0  0
  189.8830  177.3970  140.4760 C   0  0  2  0  0  0  0  0  0  0  0  0
  187.5310  178.0910  140.0570 C   0  0  1  0  0  3  0  0  0  0  0  0
  190.7190  177.0110  142.7020 O   0  0  0  0  0  1  0  0  0  0  0  0
  192.1590  175.8380  138.3110 C   0  0  0  0  0  1  0  0  0  0  0  0
  190.6510  176.0310  138.4210 C   0  0  2  0  0  3  0  0  0  0  0  0
  189.9320  175.6110  137.1270 C   0  0  2  0  0  3  0  0  0  0  0  0
  188.0490  174.5820  136.9560 O   0  0  0  0  0  1  0  0  0  0  0  0
  189.3110  174.3620  137.2690 O   0  0  0  0  0  0  0  0  0  0  0  0
  190.8940  175.5570  135.9470 C   0  0  0  0  0  2  0  0  0  0  0  0
  191.4920  174.1800  135.7470 C   0  0  0  0  0  2  0  0  0  0  0  0
  192.8070  174.2580  134.9770 C   0  0  0  0  0  2  0  0  0  0  0  0
  193.5800  172.9340  135.0190 C   0  0  2  0  0  3  0  0  0  0  0  0
  192.9160  171.9700  135.7780 O   0  0  0  0  0  1  0  0  0  0  0  0
  195.0470  173.0630  135.4630 C   0  0  2  0  0  3  0  0  0  0  0  0
  195.5150  174.4510  135.9320 C   0  0  0  0  0  2  0  0  0  0  0  0
  197.4090  175.5360  136.9030 O   0  0  0  0  0  1  0  0  0  0  0  0
  196.6200  174.3920  136.9870 C   0  0  1  0  0  3  0  0  0  0  0  0
  195.9220  173.0030  139.0010 N   0  0  0  0  0  1  0  0  0  0  0  0
  196.0270  174.2760  138.3590 C   0  0  0  0  0  0  0  0  0  0  0  0
  195.5710  175.2980  138.9340 O   0  0  0  0  0  0  0  0  0  0  0  0
  195.9870  172.4280  134.5940 O   0  0  0  0  0  0  0  0  0  0  0  0
  197.0480  171.6310  135.0370 C   0  0  0  0  0  0  0  0  0  0  0  0
  198.1940  172.1310  135.1760 O   0  0  0  0  0  0  0  0  0  0  0  0
  196.8490  170.1670  135.2300 C   0  0  0  0  0  2  0  0  0  0  0  0
  196.2230  169.9280  136.5190 N   0  0  0  0  0  1  0  0  0  0  0  0
  188.4860  176.0240  142.6990 O   0  0  0  0  0  1  0  0  0  0  0  0
  188.1690  177.2050  142.2180 O   0  0  0  0  0  0  0  0  0  0  0  0
  186.1830  178.4060  140.7200 C   0  0  2  0  0  3  0  0  0  0  0  0
  185.3550  179.2770  139.8930 N   0  0  0  0  0  2  0  0  0  0  0  0
  182.9400  178.6980  140.1790 C   0  0  0  0  0  3  0  0  0  0  0  0
  181.9730  177.2220  138.5550 N   0  0  0  0  0  0  0  0  0  0  0  0
  184.1340  178.2750  138.0880 C   0  0  0  0  0  3  0  0  0  0  0  0
  182.8700  177.7090  137.4970 C   0  0  0  0  0  2  0  0  0  0  0  0
  181.9160  177.9240  139.8050 C   0  0  0  0  0  3  0  0  0  0  0  0
  184.1410  178.7980  139.3220 C   0  0  0  0  0  0  0  0  0  0  0  0
  180.9520  176.2200  138.2740 C   0  0  2  0  0  3  0  0  0  0  0  0
  180.2960  175.7400  139.5600 C   0  0  0  0  0  1  0  0  0  0  0  0
  181.5450  175.0920  137.5720 N   0  0  0  0  0  1  0  0  0  0  0  0
  186.3680  179.0370  142.1010 C   0  0  0  0  0  2  0  0  0  0  0  0
  184.6020  177.5890  142.8070 O   0  0  0  0  0  0  0  0  0  0  0  0
  185.3490  178.5670  143.0880 C   0  0  0  0  0  0  0  0  0  0  0  0
  185.2740  179.2020  144.3300 O   0  0  0  0  0  0  0  0  0  0  0  0
  186.1640  178.9150  145.4040 C   0  0  1  0  0  3  0  0  0  0  0  0
  185.3640  178.7690  146.6830 C   0  0  0  0  0  1  0  0  0  0  0  0
  186.9490  177.6320  145.1270 C   0  0  0  0  0  2  0  0  0  0  0  0
  189.3310  177.7380  145.7340 C   0  0  0  0  0  2  0  0  0  0  0  0
  188.0780  177.4750  146.0980 C   0  0  0  0  0  3  0  0  0  0  0  0
  1  7  1  0  0  0  0
  3  2  2  6  0  0  0
  3  8  1  0  0  0  0
  3  6  1  0  0  0  0
  3  4  1  0  0  0  0
  4 13  1  6  0  0  0
  4  9  1  0  0  0  0
  5 35  1  1  0  0  0
  6 10  1  0  0  0  0
  7 11  1  1  0  0  0
  9  5  1  0  0  0  0
  9  1  1  1  0  0  0
  9  7  1  0  0  0  0
 10 36  1  1  0  0  0
 10  5  1  0  0  0  0
 13 12  1  6  0  0  0
 14 17  1  6  0  0  0
 14 16  1  0  0  0  0
 14 13  1  0  0  0  0
 15 16  1  0  0  0  0
 18 17  1  0  0  0  0
 19 20  1  0  0  0  0
 19 18  1  0  0  0  0
 20 22  1  0  0  0  0
 20 21  1  1  0  0  0
 22 23  1  6  0  0  0
 23 25  1  0  0  0  0
 25 24  1  1  0  0  0
 25 27  1  0  0  0  0
 27 28  2  0  0  0  0
 27 26  1  0  0  0  0
 29 30  1  0  0  0  0
 29 22  1  0  0  0  0
 30 31  2  0  0  0  0
 30 32  1  0  0  0  0
 32 33  1  0  0  0  0
 35 34  1  0  0  0  0
 36 47  1  1  0  0  0
 37 36  1  0  0  0  0
 39 42  1  0  0  0  0
 40 43  2  0  0  0  0
 41 40  1  0  0  0  0
 41 39  1  0  0  0  0
 42 38  2  0  0  0  0
 43 37  1  0  0  0  0
 43 38  1  0  0  0  0
 44 39  1  0  0  0  0
 44 45  1  1  0  0  0
 46 44  1  0  0  0  0
 47 49  1  0  0  0  0
 48 49  2  0  0  0  0
 49 50  1  0  0  0  0
 50 51  1  0  0  0  0
 51 52  1  1  0  0  0
 53 51  1  0  0  0  0
 53 55  1  0  0  0  0
 54 55  2  0  0  0  0
M  END
>  <MODEL>
7

>  <REMARK>
 VINA RESULT:      -4.5      4.035      8.395
  Name = 
  25 active torsions:
  status: ('A' for Active; 'I' for Inactive)
    1  A    between atoms: C_1  and  C_30
    2  A    between atoms: C_1  and  C_53
    3  A    between atoms: O_6  and  C_14
    4  A    between atoms: O_6  and  C_53
    5  A    between atoms: C_7  and  C_8
    6  A    between atoms: C_7  and  C_23
    7  A    between atoms: C_7  and  O_43
    8  A    between atoms: C_8  and  C_20
    9  A    between atoms: C_10  and  N_32
   10  A    between atoms: C_11  and  C_29
   11  A    between atoms: C_11  and  C_38
   12  A    between atoms: C_12  and  C_14
   13  A    between atoms: C_17  and  C_23
   14  A    between atoms: C_19  and  O_40
   15  A    between atoms: C_20  and  C_30
   16  A    between atoms: C_27  and  O_31
   17  A    between atoms: C_27  and  C_55
   18  A    between atoms: C_28  and  C_44
   19  A    between atoms: C_28  and  C_49
   20  A    between atoms: O_31  and  C_44
   21  A    between atoms: N_33  and  C_49
   22  A    between atoms: N_33  and  C_52
   23  A    between atoms: C_38  and  C_53
   24  A    between atoms: C_41  and  C_55
   25  A    between atoms: C_45  and  C_49
                            x       y       z     vdW  Elec       q    Type
                         _______ _______ _______ _____ _____    ______ ____

>  <TORSDO>
F 25

$$$$
=
 OpenBabel11052415133D

 55 57  0  0  1  0  0  0  0  0999 V2000
  188.9920  179.4630  141.3050 O   0  0  0  0  0  0  0  0  0  0  0  0
  191.4430  175.9680  143.4730 O   0  0  0  0  0  1  0  0  0  0  0  0
  190.9470  176.9040  142.3950 P   0  0  2  0  0  0  0  0  0  0  0  0
  189.3810  177.6880  142.9060 C   0  0  1  0  0  3  0  0  0  0  0  0
  188.6080  177.2400  140.4310 C   0  0  2  0  0  3  0  0  0  0  0  0
  190.6740  176.0380  140.9580 O   0  0  0  0  0  0  0  0  0  0  0  0
  187.7170  179.3540  141.8960 C   0  0  2  0  0  3  0  0  0  0  0  0
  192.1010  178.1100  142.1260 O   0  0  0  0  0  0  0  0  0  0  0  0
  188.5930  178.1600  141.6760 C   0  0  2  0  0  0  0  0  0  0  0  0
  190.0810  176.9640  140.0810 C   0  0  1  0  0  3  0  0  0  0  0  0
  186.7170  179.4720  140.9270 O   0  0  0  0  0  1  0  0  0  0  0  0
  187.6160  175.8470  143.1630 C   0  0  0  0  0  1  0  0  0  0  0  0
  188.5780  176.7950  143.8710 C   0  0  2  0  0  3  0  0  0  0  0  0
  187.8900  177.5310  145.0340 C   0  0  2  0  0  3  0  0  0  0  0  0
  189.6860  177.7280  146.2040 O   0  0  0  0  0  1  0  0  0  0  0  0
  188.4780  177.2050  146.2650 O   0  0  0  0  0  0  0  0  0  0  0  0
  186.4010  177.2130  145.0930 C   0  0  0  0  0  2  0  0  0  0  0  0
  185.5570  178.4350  145.3930 C   0  0  0  0  0  2  0  0  0  0  0  0
  184.1170  178.2340  144.9340 C   0  0  0  0  0  2  0  0  0  0  0  0
  183.8810  178.7710  143.5170 C   0  0  2  0  0  3  0  0  0  0  0  0
  184.3390  180.0820  143.3780 O   0  0  0  0  0  1  0  0  0  0  0  0
  182.4320  178.6440  143.0170 C   0  0  2  0  0  3  0  0  0  0  0  0
  182.1210  179.2180  141.6250 C   0  0  0  0  0  2  0  0  0  0  0  0
  183.8060  177.6490  140.9900 O   0  0  0  0  0  1  0  0  0  0  0  0
  182.7720  178.4310  140.4870 C   0  0  1  0  0  3  0  0  0  0  0  0
  180.5960  178.1390  139.2000 N   0  0  0  0  0  1  0  0  0  0  0  0
  181.7560  177.5640  139.8040 C   0  0  0  0  0  0  0  0  0  0  0  0
  181.8990  176.3130  139.8020 O   0  0  0  0  0  0  0  0  0  0  0  0
  181.4390  178.9830  143.9880 O   0  0  0  0  0  0  0  0  0  0  0  0
  180.2110  178.3240  144.1130 C   0  0  0  0  0  0  0  0  0  0  0  0
  180.1740  177.0680  144.1640 O   0  0  0  0  0  0  0  0  0  0  0  0
  178.9410  179.1010  144.0650 C   0  0  0  0  0  2  0  0  0  0  0  0
  179.0270  180.2280  144.9790 N   0  0  0  0  0  1  0  0  0  0  0  0
  188.8020  178.6480  138.8220 O   0  0  0  0  0  1  0  0  0  0  0  0
  187.9360  177.8060  139.3410 O   0  0  0  0  0  0  0  0  0  0  0  0
  190.3320  176.6500  138.6000 C   0  0  2  0  0  3  0  0  0  0  0  0
  190.3810  175.2150  138.3440 N   0  0  0  0  0  2  0  0  0  0  0  0
  188.2830  175.3320  136.9890 C   0  0  0  0  0  3  0  0  0  0  0  0
  187.4400  173.2700  136.1030 N   0  0  0  0  0  0  0  0  0  0  0  0
  189.7300  173.3620  136.9660 C   0  0  0  0  0  3  0  0  0  0  0  0
  188.7910  172.7020  135.9910 C   0  0  0  0  0  2  0  0  0  0  0  0
  187.2880  174.6660  136.3950 C   0  0  0  0  0  3  0  0  0  0  0  0
  189.5190  174.6200  137.3770 C   0  0  0  0  0  0  0  0  0  0  0  0
  186.2700  172.5200  135.6600 C   0  0  2  0  0  3  0  0  0  0  0  0
  185.2370  172.4230  136.7740 C   0  0  0  0  0  1  0  0  0  0  0  0
  186.6680  171.1860  135.2380 N   0  0  0  0  0  1  0  0  0  0  0  0
  191.6220  177.3020  138.0960 C   0  0  0  0  0  2  0  0  0  0  0  0
  193.6090  177.2200  139.4230 O   0  0  0  0  0  0  0  0  0  0  0  0
  192.8480  176.6210  138.6120 C   0  0  0  0  0  0  0  0  0  0  0  0
  193.1060  175.3080  138.2120 O   0  0  0  0  0  0  0  0  0  0  0  0
  194.1490  174.9620  137.3070 C   0  0  1  0  0  3  0  0  0  0  0  0
  195.0480  173.9300  137.9590 C   0  0  0  0  0  1  0  0  0  0  0  0
  193.5730  174.4060  136.0050 C   0  0  0  0  0  2  0  0  0  0  0  0
  194.3960  176.4780  134.9650 C   0  0  0  0  0  2  0  0  0  0  0  0
  193.5410  175.4580  134.9400 C   0  0  0  0  0  3  0  0  0  0  0  0
  1  7  1  0  0  0  0
  3  8  2  6  0  0  0
  3  4  1  0  0  0  0
  3  2  1  0  0  0  0
  4 13  1  6  0  0  0
  5 35  1  6  0  0  0
  5  9  1  0  0  0  0
  6  3  1  0  0  0  0
  7 11  1  6  0  0  0
  9  1  1  6  0  0  0
  9  7  1  0  0  0  0
  9  4  1  0  0  0  0
 10 36  1  6  0  0  0
 10  5  1  0  0  0  0
 10  6  1  0  0  0  0
 13 12  1  6  0  0  0
 13 14  1  0  0  0  0
 14 17  1  1  0  0  0
 14 16  1  0  0  0  0
 15 16  1  0  0  0  0
 17 18  1  0  0  0  0
 19 18  1  0  0  0  0
 20 21  1  1  0  0  0
 20 19  1  0  0  0  0
 22 23  1  6  0  0  0
 22 20  1  0  0  0  0
 22 29  1  0  0  0  0
 25 24  1  1  0  0  0
 25 23  1  0  0  0  0
 26 27  1  0  0  0  0
 27 25  1  0  0  0  0
 28 27  2  0  0  0  0
 29 30  1  0  0  0  0
 30 31  2  0  0  0  0
 32 30  1  0  0  0  0
 32 33  1  0  0  0  0
 34 35  1  0  0  0  0
 36 47  1  1  0  0  0
 37 36  1  0  0  0  0
 38 43  1  0  0  0  0
 39 42  1  0  0  0  0
 40 43  2  0  0  0  0
 41 39  1  0  0  0  0
 41 40  1  0  0  0  0
 42 38  2  0  0  0  0
 43 37  1  0  0  0  0
 44 39  1  0  0  0  0
 44 45  1  1  0  0  0
 46 44  1  0  0  0  0
 47 49  1  0  0  0  0
 49 48  2  0  0  0  0
 50 49  1  0  0  0  0
 51 52  1  1  0  0  0
 51 50  1  0  0  0  0
 53 51  1  0  0  0  0
 55 54  2  0  0  0  0
 55 53  1  0  0  0  0
M  END
>  <MODEL>
8

>  <REMARK>
 VINA RESULT:      -4.5      3.356      8.550
  Name = 
  25 active torsions:
  status: ('A' for Active; 'I' for Inactive)
    1  A    between atoms: C_1  and  C_30
    2  A    between atoms: C_1  and  C_53
    3  A    between atoms: O_6  and  C_14
    4  A    between atoms: O_6  and  C_53
    5  A    between atoms: C_7  and  C_8
    6  A    between atoms: C_7  and  C_23
    7  A    between atoms: C_7  and  O_43
    8  A    between atoms: C_8  and  C_20
    9  A    between atoms: C_10  and  N_32
   10  A    between atoms: C_11  and  C_29
   11  A    between atoms: C_11  and  C_38
   12  A    between atoms: C_12  and  C_14
   13  A    between atoms: C_17  and  C_23
   14  A    between atoms: C_19  and  O_40
   15  A    between atoms: C_20  and  C_30
   16  A    between atoms: C_27  and  O_31
   17  A    between atoms: C_27  and  C_55
   18  A    between atoms: C_28  and  C_44
   19  A    between atoms: C_28  and  C_49
   20  A    between atoms: O_31  and  C_44
   21  A    between atoms: N_33  and  C_49
   22  A    between atoms: N_33  and  C_52
   23  A    between atoms: C_38  and  C_53
   24  A    between atoms: C_41  and  C_55
   25  A    between atoms: C_45  and  C_49
                            x       y       z     vdW  Elec       q    Type
                         _______ _______ _______ _____ _____    ______ ____

>  <TORSDO>
F 25

$$$$
=
 OpenBabel11052415133D

 55 57  0  0  1  0  0  0  0  0999 V2000
  188.9630  178.7670  136.5310 O   0  0  0  0  0  0  0  0  0  0  0  0
  190.4360  174.2750  137.2950 O   0  0  0  0  0  1  0  0  0  0  0  0
  189.5920  175.4380  136.8260 P   0  0  2  0  0  0  0  0  0  0  0  0
  190.0600  176.9610  137.7150 C   0  0  1  0  0  3  0  0  0  0  0  0
  187.4700  177.4050  137.8620 C   0  0  2  0  0  3  0  0  0  0  0  0
  187.9500  175.1200  137.1280 O   0  0  0  0  0  0  0  0  0  0  0  0
  189.3070  179.4100  137.7360 C   0  0  2  0  0  3  0  0  0  0  0  0
  189.8340  175.6750  135.1700 O   0  0  0  0  0  0  0  0  0  0  0  0
  188.9020  177.9690  137.6960 C   0  0  2  0  0  0  0  0  0  0  0  0
  187.2800  176.3110  136.7960 C   0  0  1  0  0  3  0  0  0  0  0  0
  188.2700  180.2470  138.1580 O   0  0  0  0  0  1  0  0  0  0  0  0
  189.5610  176.7260  140.2180 C   0  0  0  0  0  1  0  0  0  0  0  0
  190.6160  176.6600  139.1200 C   0  0  2  0  0  3  0  0  0  0  0  0
  191.8850  177.4390  139.5090 C   0  0  2  0  0  3  0  0  0  0  0  0
  193.9940  177.0330  139.3620 O   0  0  0  0  0  1  0  0  0  0  0  0
  192.9290  177.2020  138.6040 O   0  0  0  0  0  0  0  0  0  0  0  0
  192.3520  177.0800  140.9130 C   0  0  0  0  0  2  0  0  0  0  0  0
  191.9750  178.1300  141.9380 C   0  0  0  0  0  2  0  0  0  0  0  0
  191.4400  177.4860  143.2130 C   0  0  0  0  0  2  0  0  0  0  0  0
  190.3290  178.3220  143.8610 C   0  0  2  0  0  3  0  0  0  0  0  0
  190.8460  179.3090  144.7010 O   0  0  0  0  0  1  0  0  0  0  0  0
  189.2490  177.5010  144.5840 C   0  0  2  0  0  3  0  0  0  0  0  0
  187.9760  178.2480  145.0170 C   0  0  0  0  0  2  0  0  0  0  0  0
  185.8470  177.5320  145.8280 O   0  0  0  0  0  1  0  0  0  0  0  0
  186.6910  177.4740  144.7240 C   0  0  1  0  0  3  0  0  0  0  0  0
  184.6030  178.3380  143.5510 N   0  0  0  0  0  1  0  0  0  0  0  0
  186.0010  178.0430  143.5190 C   0  0  0  0  0  0  0  0  0  0  0  0
  186.6460  178.2190  142.4520 O   0  0  0  0  0  0  0  0  0  0  0  0
  189.7490  176.6300  145.6010 O   0  0  0  0  0  0  0  0  0  0  0  0
  189.9800  177.0230  146.9240 C   0  0  0  0  0  0  0  0  0  0  0  0
  190.7630  176.3570  147.6500 O   0  0  0  0  0  0  0  0  0  0  0  0
  189.2090  178.1550  147.5090 C   0  0  0  0  0  2  0  0  0  0  0  0
  188.3400  177.6580  148.5630 N   0  0  0  0  0  1  0  0  0  0  0  0
  186.1740  178.7030  138.9780 O   0  0  0  0  0  1  0  0  0  0  0  0
  186.4890  178.3960  137.7390 O   0  0  0  0  0  0  0  0  0  0  0  0
  185.8230  176.0940  136.3650 C   0  0  2  0  0  3  0  0  0  0  0  0
  184.9770  175.6810  137.4790 N   0  0  0  0  0  2  0  0  0  0  0  0
  182.8840  175.8480  138.8370 C   0  0  0  0  0  3  0  0  0  0  0  0
  180.9280  176.6780  137.7260 N   0  0  0  0  0  0  0  0  0  0  0  0
  183.1220  176.9750  136.6810 C   0  0  0  0  0  3  0  0  0  0  0  0
  181.7280  177.5250  136.8310 C   0  0  0  0  0  2  0  0  0  0  0  0
  181.5630  176.0460  138.8470 C   0  0  0  0  0  3  0  0  0  0  0  0
  183.6810  176.2450  137.6560 C   0  0  0  0  0  0  0  0  0  0  0  0
  179.4710  176.6840  137.6640 C   0  0  2  0  0  3  0  0  0  0  0  0
  178.9340  175.2800  137.4290 C   0  0  0  0  0  1  0  0  0  0  0  0
  179.0240  177.5690  136.5990 N   0  0  0  0  0  1  0  0  0  0  0  0
  185.7160  175.0680  135.2360 C   0  0  0  0  0  2  0  0  0  0  0  0
  186.4590  172.8070  135.4660 O   0  0  0  0  0  0  0  0  0  0  0  0
  185.5780  173.6690  135.7420 C   0  0  0  0  0  0  0  0  0  0  0  0
  184.4860  173.3530  136.5530 O   0  0  0  0  0  0  0  0  0  0  0  0
  183.3540  172.6270  136.0840 C   0  0  1  0  0  3  0  0  0  0  0  0
  183.4940  171.1750  136.4940 C   0  0  0  0  0  1  0  0  0  0  0  0
  182.0620  173.2100  136.6560 C   0  0  0  0  0  2  0  0  0  0  0  0
  180.0960  171.7370  136.5300 C   0  0  0  0  0  2  0  0  0  0  0  0
  181.1790  172.1280  137.1970 C   0  0  0  0  0  3  0  0  0  0  0  0
  1  7  1  0  0  0  0
  3  8  2  6  0  0  0
  3  6  1  0  0  0  0
  3  2  1  0  0  0  0
  3  4  1  0  0  0  0
  4 13  1  1  0  0  0
  5 35  1  6  0  0  0
  7 11  1  1  0  0  0
  9  1  1  6  0  0  0
  9  4  1  0  0  0  0
  9  7  1  0  0  0  0
  9  5  1  0  0  0  0
 10 36  1  1  0  0  0
 10  6  1  0  0  0  0
 10  5  1  0  0  0  0
 13 14  1  0  0  0  0
 13 12  1  1  0  0  0
 14 17  1  1  0  0  0
 16 15  1  0  0  0  0
 16 14  1  0  0  0  0
 17 18  1  0  0  0  0
 18 19  1  0  0  0  0
 19 20  1  0  0  0  0
 20 22  1  0  0  0  0
 20 21  1  1  0  0  0
 22 23  1  1  0  0  0
 22 29  1  0  0  0  0
 25 23  1  0  0  0  0
 25 24  1  1  0  0  0
 27 26  1  0  0  0  0
 27 25  1  0  0  0  0
 28 27  2  0  0  0  0
 29 30  1  0  0  0  0
 30 32  1  0  0  0  0
 30 31  2  0  0  0  0
 32 33  1  0  0  0  0
 35 34  1  0  0  0  0
 36 47  1  6  0  0  0
 36 37  1  0  0  0  0
 37 43  1  0  0  0  0
 38 42  2  0  0  0  0
 39 42  1  0  0  0  0
 40 41  1  0  0  0  0
 40 43  2  0  0  0  0
 41 39  1  0  0  0  0
 43 38  1  0  0  0  0
 44 45  1  6  0  0  0
 44 39  1  0  0  0  0
 46 44  1  0  0  0  0
 47 49  1  0  0  0  0
 48 49  2  0  0  0  0
 49 50  1  0  0  0  0
 51 52  1  1  0  0  0
 51 50  1  0  0  0  0
 51 53  1  0  0  0  0
 53 55  1  0  0  0  0
 54 55  2  0  0  0  0
M  END
>  <MODEL>
9

>  <REMARK>
 VINA RESULT:      -4.2      1.505      2.967
  Name = 
  25 active torsions:
  status: ('A' for Active; 'I' for Inactive)
    1  A    between atoms: C_1  and  C_30
    2  A    between atoms: C_1  and  C_53
    3  A    between atoms: O_6  and  C_14
    4  A    between atoms: O_6  and  C_53
    5  A    between atoms: C_7  and  C_8
    6  A    between atoms: C_7  and  C_23
    7  A    between atoms: C_7  and  O_43
    8  A    between atoms: C_8  and  C_20
    9  A    between atoms: C_10  and  N_32
   10  A    between atoms: C_11  and  C_29
   11  A    between atoms: C_11  and  C_38
   12  A    between atoms: C_12  and  C_14
   13  A    between atoms: C_17  and  C_23
   14  A    between atoms: C_19  and  O_40
   15  A    between atoms: C_20  and  C_30
   16  A    between atoms: C_27  and  O_31
   17  A    between atoms: C_27  and  C_55
   18  A    between atoms: C_28  and  C_44
   19  A    between atoms: C_28  and  C_49
   20  A    between atoms: O_31  and  C_44
   21  A    between atoms: N_33  and  C_49
   22  A    between atoms: N_33  and  C_52
   23  A    between atoms: C_38  and  C_53
   24  A    between atoms: C_41  and  C_55
   25  A    between atoms: C_45  and  C_49
                            x       y       z     vdW  Elec       q    Type
                         _______ _______ _______ _____ _____    ______ ____

>  <TORSDO>
F 25

$$$$
