=
 OpenBabel11052415343D

 37 40  0  0  1  0  0  0  0  0999 V2000
  189.1780  178.7850  137.8310 C   0  0  0  0  0  2  0  0  0  0  0  0
  187.3810  177.5070  139.1920 C   0  0  2  0  0  3  0  0  0  0  0  0
  188.1350  176.0610  136.5400 C   0  0  0  0  0  0  0  0  0  0  0  0
  188.8710  177.6780  138.8400 C   0  0  2  0  0  3  0  0  0  0  0  0
  188.5240  178.5560  136.4720 C   0  0  0  0  0  2  0  0  0  0  0  0
  186.4550  176.9390  138.1430 C   0  0  0  0  0  3  0  0  0  0  0  0
  188.8780  177.1910  135.8830 C   0  0  0  0  0  2  0  0  0  0  0  0
  188.5580  174.8300  136.2900 C   0  0  0  0  0  2  0  0  0  0  0  0
  186.7540  176.2570  137.0290 C   0  0  0  0  0  0  0  0  0  0  0  0
  189.8860  177.8950  140.3220 S   0  0  2  0  0  0  0  0  0  0  0  0
  191.3000  177.6020  139.8370 O   0  0  0  0  0  0  0  0  0  0  0  0
  189.5020  176.5070  141.4230 C   0  0  0  0  0  2  0  0  0  0  0  0
  187.9980  176.3830  143.4000 C   0  0  0  0  0  1  0  0  0  0  0  0
  189.2920  176.9610  142.8610 C   0  0  1  0  0  3  0  0  0  0  0  0
  190.4560  176.4830  143.7280 C   0  0  1  0  0  3  0  0  0  0  0  0
  190.8130  179.0150  144.0790 C   0  0  0  0  0  1  0  0  0  0  0  0
  191.7790  176.9420  143.1400 C   0  0  0  0  0  2  0  0  0  0  0  0
  191.2640  177.5990  144.4050 C   0  0  2  0  0  3  0  0  0  0  0  0
  185.6100  175.7550  136.2040 C   0  0  0  0  0  2  0  0  0  0  0  0
  184.8320  174.6570  136.9210 C   0  0  2  0  0  0  0  0  0  0  0  0
  183.4260  174.4450  136.3780 C   0  0  2  0  0  3  0  0  0  0  0  0
  183.6440  175.1270  137.7260 C   0  0  0  0  0  2  0  0  0  0  0  0
  185.5640  173.4410  137.4750 C   0  0  0  0  0  1  0  0  0  0  0  0
  182.6150  172.6820  135.3220 C   0  0  0  0  0  1  0  0  0  0  0  0
  182.9880  173.1340  136.5880 O   0  0  0  0  0  0  0  0  0  0  0  0
  186.7420  178.6650  139.9620 C   0  0  0  0  0  2  0  0  0  0  0  0
  185.2280  178.7130  139.7910 C   0  0  2  0  0  3  0  0  0  0  0  0
  184.9130  179.7710  138.9340 O   0  0  0  0  0  1  0  0  0  0  0  0
  184.5120  178.8870  141.1380 C   0  0  1  0  0  3  0  0  0  0  0  0
  182.1390  178.7320  141.9340 O   0  0  0  0  0  1  0  0  0  0  0  0
  183.1550  178.2580  141.1100 C   0  0  0  0  0  0  0  0  0  0  0  0
  182.9160  177.3270  140.2990 O   0  0  0  0  0  0  0  0  0  0  0  0
  185.3060  178.2530  142.2740 C   0  0  0  0  0  2  0  0  0  0  0  0
  185.2890  179.1400  143.5040 C   0  0  0  0  0  2  0  0  0  0  0  0
  185.5650  179.1170  145.9530 C   0  0  0  0  0  2  0  0  0  0  0  0
  184.1200  178.7840  145.6510 C   0  0  0  0  0  2  0  0  0  0  0  0
  185.2210  178.2720  144.7430 C   0  0  0  0  0  3  0  0  0  0  0  0
  1  4  1  0  0  0  0
  2 26  1  6  0  0  0
  3  9  1  0  0  0  0
  4  2  1  0  0  0  0
  4 10  1  1  0  0  0
  5  1  1  0  0  0  0
  6  2  1  0  0  0  0
  7  5  1  0  0  0  0
  7  3  1  0  0  0  0
  8  3  2  0  0  0  0
  9  6  2  0  0  0  0
 10 11  2  6  0  0  0
 10 12  1  0  0  0  0
 12 14  1  0  0  0  0
 14 13  1  1  0  0  0
 15 14  1  6  0  0  0
 15 18  1  0  0  0  0
 17 15  1  0  0  0  0
 17 18  1  0  0  0  0
 18 16  1  6  0  0  0
 19 20  1  0  0  0  0
 19  9  1  0  0  0  0
 20 23  1  1  0  0  0
 20 22  1  0  0  0  0
 21 25  1  1  0  0  0
 21 20  1  0  0  0  0
 21 22  1  0  0  0  0
 24 25  1  0  0  0  0
 27 28  1  6  0  0  0
 27 26  1  0  0  0  0
 27 29  1  0  0  0  0
 29 33  1  1  0  0  0
 31 29  1  0  0  0  0
 31 30  1  0  0  0  0
 32 31  2  0  0  0  0
 33 34  1  0  0  0  0
 34 37  1  0  0  0  0
 36 35  1  0  0  0  0
 37 36  1  0  0  0  0
 37 35  1  0  0  0  0
M  END
>  <MODEL>
1

>  <REMARK>
 VINA RESULT:      -6.3      0.000      0.000
  Name = 
  14 active torsions:
  status: ('A' for Active; 'I' for Inactive)
    1  A    between atoms: C_1  and  C_26
    2  A    between atoms: C_2  and  C_35
    3  A    between atoms: C_4  and  C_13
    4  A    between atoms: C_4  and  C_28
    5  A    between atoms: C_5  and  O_23
    6  A    between atoms: C_6  and  S_31
    7  A    between atoms: C_6  and  C_35
    8  A    between atoms: C_10  and  C_28
    9  A    between atoms: C_13  and  C_16
   10  A    between atoms: C_13  and  C_20
   11  A    between atoms: C_14  and  S_31
   12  A    between atoms: C_20  and  C_25
   13  A    between atoms: C_25  and  C_32
   14  A    between atoms: C_26  and  C_36
                            x       y       z     vdW  Elec       q    Type
                         _______ _______ _______ _____ _____    ______ ____

>  <TORSDO>
F 14

$$$$
=
 OpenBabel11052415343D

 37 40  0  0  1  0  0  0  0  0999 V2000
  189.4930  178.1420  137.2830 C   0  0  0  0  0  2  0  0  0  0  0  0
  188.1400  177.0650  139.2140 C   0  0  2  0  0  3  0  0  0  0  0  0
  186.3380  177.9650  136.8400 C   0  0  0  0  0  0  0  0  0  0  0  0
  188.8390  176.8820  137.8530 C   0  0  2  0  0  3  0  0  0  0  0  0
  188.4970  179.2660  137.0150 C   0  0  0  0  0  2  0  0  0  0  0  0
  186.8620  177.8670  139.2650 C   0  0  0  0  0  3  0  0  0  0  0  0
  187.3450  178.8160  136.1170 C   0  0  0  0  0  2  0  0  0  0  0  0
  185.4530  177.3120  136.1000 C   0  0  0  0  0  2  0  0  0  0  0  0
  186.0370  178.2100  138.2660 C   0  0  0  0  0  0  0  0  0  0  0  0
  190.0380  175.5280  137.8930 S   0  0  2  0  0  0  0  0  0  0  0  0
  191.3740  176.2220  137.6640 O   0  0  0  0  0  0  0  0  0  0  0  0
  189.7790  174.5590  136.3830 C   0  0  0  0  0  2  0  0  0  0  0  0
  188.2810  175.4280  134.5980 C   0  0  0  0  0  1  0  0  0  0  0  0
  188.3400  174.6400  135.8930 C   0  0  1  0  0  3  0  0  0  0  0  0
  187.7980  173.2320  135.6500 C   0  0  1  0  0  3  0  0  0  0  0  0
  186.0410  173.9560  137.3970 C   0  0  0  0  0  1  0  0  0  0  0  0
  187.9000  172.3990  136.9160 C   0  0  0  0  0  2  0  0  0  0  0  0
  186.5380  172.8730  136.4510 C   0  0  2  0  0  3  0  0  0  0  0  0
  184.7950  178.9610  138.6300 C   0  0  0  0  0  2  0  0  0  0  0  0
  183.8710  178.1350  139.5180 C   0  0  2  0  0  0  0  0  0  0  0  0
  182.9120  178.9690  140.3550 C   0  0  2  0  0  3  0  0  0  0  0  0
  184.1070  178.2750  141.0030 C   0  0  0  0  0  2  0  0  0  0  0  0
  183.3900  176.7650  139.0540 C   0  0  0  0  0  1  0  0  0  0  0  0
  180.7530  179.2390  140.7330 C   0  0  0  0  0  1  0  0  0  0  0  0
  181.7450  178.2620  140.6560 O   0  0  0  0  0  0  0  0  0  0  0  0
  189.0600  177.3660  140.3980 C   0  0  0  0  0  2  0  0  0  0  0  0
  188.2870  177.7670  141.6490 C   0  0  2  0  0  3  0  0  0  0  0  0
  188.6300  179.0810  141.9800 O   0  0  0  0  0  1  0  0  0  0  0  0
  188.5870  176.8270  142.8250 C   0  0  1  0  0  3  0  0  0  0  0  0
  191.0080  177.4310  143.0750 O   0  0  0  0  0  1  0  0  0  0  0  0
  190.0360  176.4580  142.8640 C   0  0  0  0  0  0  0  0  0  0  0  0
  190.3740  175.2520  142.7570 O   0  0  0  0  0  0  0  0  0  0  0  0
  188.2260  177.4720  144.1580 C   0  0  0  0  0  2  0  0  0  0  0  0
  186.7570  177.2690  144.4760 C   0  0  0  0  0  2  0  0  0  0  0  0
  184.6930  178.5990  144.6820 C   0  0  0  0  0  2  0  0  0  0  0  0
  185.1600  178.2580  146.0800 C   0  0  0  0  0  2  0  0  0  0  0  0
  186.1750  178.5650  144.9970 C   0  0  0  0  0  3  0  0  0  0  0  0
  1  4  1  0  0  0  0
  2  6  1  0  0  0  0
  2 26  1  1  0  0  0
  3  9  1  0  0  0  0
  4 10  1  1  0  0  0
  4  2  1  0  0  0  0
  5  1  1  0  0  0  0
  7  3  1  0  0  0  0
  7  5  1  0  0  0  0
  8  3  2  0  0  0  0
  9 19  1  0  0  0  0
  9  6  2  0  0  0  0
 10 11  2  6  0  0  0
 12 10  1  0  0  0  0
 14 13  1  6  0  0  0
 14 12  1  0  0  0  0
 15 14  1  1  0  0  0
 15 18  1  0  0  0  0
 15 17  1  0  0  0  0
 18 17  1  0  0  0  0
 18 16  1  1  0  0  0
 19 20  1  0  0  0  0
 20 23  1  6  0  0  0
 20 21  1  0  0  0  0
 20 22  1  0  0  0  0
 21 25  1  1  0  0  0
 21 22  1  0  0  0  0
 25 24  1  0  0  0  0
 26 27  1  0  0  0  0
 27 28  1  1  0  0  0
 27 29  1  0  0  0  0
 29 31  1  0  0  0  0
 29 33  1  1  0  0  0
 31 30  1  0  0  0  0
 32 31  2  0  0  0  0
 33 34  1  0  0  0  0
 34 37  1  0  0  0  0
 35 37  1  0  0  0  0
 35 36  1  0  0  0  0
 37 36  1  0  0  0  0
M  END
>  <MODEL>
2

>  <REMARK>
 VINA RESULT:      -6.2      2.105      5.466
  Name = 
  14 active torsions:
  status: ('A' for Active; 'I' for Inactive)
    1  A    between atoms: C_1  and  C_26
    2  A    between atoms: C_2  and  C_35
    3  A    between atoms: C_4  and  C_13
    4  A    between atoms: C_4  and  C_28
    5  A    between atoms: C_5  and  O_23
    6  A    between atoms: C_6  and  S_31
    7  A    between atoms: C_6  and  C_35
    8  A    between atoms: C_10  and  C_28
    9  A    between atoms: C_13  and  C_16
   10  A    between atoms: C_13  and  C_20
   11  A    between atoms: C_14  and  S_31
   12  A    between atoms: C_20  and  C_25
   13  A    between atoms: C_25  and  C_32
   14  A    between atoms: C_26  and  C_36
                            x       y       z     vdW  Elec       q    Type
                         _______ _______ _______ _____ _____    ______ ____

>  <TORSDO>
F 14

$$$$
=
 OpenBabel11052415343D

 37 40  0  0  1  0  0  0  0  0999 V2000
  182.2310  175.5930  139.3270 C   0  0  0  0  0  2  0  0  0  0  0  0
  183.4080  177.8940  139.5030 C   0  0  2  0  0  3  0  0  0  0  0  0
  183.1620  176.8910  136.5660 C   0  0  0  0  0  0  0  0  0  0  0  0
  182.1000  177.1150  139.2630 C   0  0  2  0  0  3  0  0  0  0  0  0
  183.1730  175.0260  138.2690 C   0  0  0  0  0  2  0  0  0  0  0  0
  184.4800  177.8450  138.4410 C   0  0  0  0  0  3  0  0  0  0  0  0
  182.7880  175.4640  136.8570 C   0  0  0  0  0  2  0  0  0  0  0  0
  182.6430  177.4460  135.4800 C   0  0  0  0  0  2  0  0  0  0  0  0
  184.3830  177.4800  137.1550 C   0  0  0  0  0  0  0  0  0  0  0  0
  180.7800  177.6690  140.3680 S   0  0  2  0  0  0  0  0  0  0  0  0
  179.9780  176.4020  140.6350 O   0  0  0  0  0  0  0  0  0  0  0  0
  179.6650  178.6940  139.3720 C   0  0  0  0  0  2  0  0  0  0  0  0
  179.8840  180.4570  141.1130 C   0  0  0  0  0  1  0  0  0  0  0  0
  179.8810  180.1800  139.6220 C   0  0  1  0  0  3  0  0  0  0  0  0
  181.2210  180.6130  139.0270 C   0  0  1  0  0  3  0  0  0  0  0  0
  179.7330  182.2350  137.6800 C   0  0  0  0  0  1  0  0  0  0  0  0
  181.2680  180.3030  137.5410 C   0  0  0  0  0  2  0  0  0  0  0  0
  181.1380  181.7440  137.9910 C   0  0  2  0  0  3  0  0  0  0  0  0
  185.6160  177.5980  136.3140 C   0  0  0  0  0  2  0  0  0  0  0  0
  186.7930  176.8460  136.9230 C   0  0  2  0  0  0  0  0  0  0  0  0
  187.6760  177.7040  137.8180 C   0  0  2  0  0  3  0  0  0  0  0  0
  188.1560  177.2750  136.4340 C   0  0  0  0  0  2  0  0  0  0  0  0
  186.6550  175.3700  137.2780 C   0  0  0  0  0  1  0  0  0  0  0  0
  188.5720  177.8290  139.8330 C   0  0  0  0  0  1  0  0  0  0  0  0
  188.3210  176.9360  138.7910 O   0  0  0  0  0  0  0  0  0  0  0  0
  183.9880  177.8010  140.9160 C   0  0  0  0  0  2  0  0  0  0  0  0
  184.3000  179.1700  141.5090 C   0  0  2  0  0  3  0  0  0  0  0  0
  185.3300  179.7510  140.7630 O   0  0  0  0  0  1  0  0  0  0  0  0
  184.7050  179.0680  142.9860 C   0  0  1  0  0  3  0  0  0  0  0  0
  182.2250  179.1520  143.3490 O   0  0  0  0  0  0  0  0  0  0  0  0
  183.5100  179.1800  143.8800 C   0  0  0  0  0  0  0  0  0  0  0  0
  183.6680  179.2450  145.1260 O   0  0  0  0  0  1  0  0  0  0  0  0
  185.3950  177.7420  143.2820 C   0  0  0  0  0  2  0  0  0  0  0  0
  186.9030  177.9050  143.2720 C   0  0  0  0  0  2  0  0  0  0  0  0
  188.6640  176.1830  143.1920 C   0  0  0  0  0  2  0  0  0  0  0  0
  188.9730  177.1000  144.3540 C   0  0  0  0  0  2  0  0  0  0  0  0
  187.5350  176.7530  144.0250 C   0  0  0  0  0  3  0  0  0  0  0  0
  2 26  1  1  0  0  0
  3  7  1  0  0  0  0
  3  9  1  0  0  0  0
  4  1  1  0  0  0  0
  4  2  1  0  0  0  0
  4 10  1  1  0  0  0
  5  1  1  0  0  0  0
  6  2  1  0  0  0  0
  7  5  1  0  0  0  0
  8  3  2  0  0  0  0
  9  6  2  0  0  0  0
 10 11  2  6  0  0  0
 12 14  1  0  0  0  0
 12 10  1  0  0  0  0
 14 13  1  1  0  0  0
 15 14  1  6  0  0  0
 17 18  1  0  0  0  0
 17 15  1  0  0  0  0
 18 16  1  6  0  0  0
 18 15  1  0  0  0  0
 19 20  1  0  0  0  0
 19  9  1  0  0  0  0
 20 23  1  1  0  0  0
 20 21  1  0  0  0  0
 21 25  1  1  0  0  0
 22 20  1  0  0  0  0
 22 21  1  0  0  0  0
 25 24  1  0  0  0  0
 26 27  1  0  0  0  0
 27 28  1  6  0  0  0
 27 29  1  0  0  0  0
 29 33  1  6  0  0  0
 29 31  1  0  0  0  0
 30 31  2  0  0  0  0
 31 32  1  0  0  0  0
 34 33  1  0  0  0  0
 34 37  1  0  0  0  0
 35 37  1  0  0  0  0
 35 36  1  0  0  0  0
 37 36  1  0  0  0  0
M  END
>  <MODEL>
3

>  <REMARK>
 VINA RESULT:      -6.2      2.985      6.872
  Name = 
  14 active torsions:
  status: ('A' for Active; 'I' for Inactive)
    1  A    between atoms: C_1  and  C_26
    2  A    between atoms: C_2  and  C_35
    3  A    between atoms: C_4  and  C_13
    4  A    between atoms: C_4  and  C_28
    5  A    between atoms: C_5  and  O_23
    6  A    between atoms: C_6  and  S_31
    7  A    between atoms: C_6  and  C_35
    8  A    between atoms: C_10  and  C_28
    9  A    between atoms: C_13  and  C_16
   10  A    between atoms: C_13  and  C_20
   11  A    between atoms: C_14  and  S_31
   12  A    between atoms: C_20  and  C_25
   13  A    between atoms: C_25  and  C_32
   14  A    between atoms: C_26  and  C_36
                            x       y       z     vdW  Elec       q    Type
                         _______ _______ _______ _____ _____    ______ ____

>  <TORSDO>
F 14

$$$$
=
 OpenBabel11052415343D

 37 40  0  0  1  0  0  0  0  0999 V2000
  191.6020  177.3530  141.5600 C   0  0  0  0  0  2  0  0  0  0  0  0
  189.1240  176.7880  141.0570 C   0  0  2  0  0  3  0  0  0  0  0  0
  191.0210  176.0850  138.6910 C   0  0  0  0  0  0  0  0  0  0  0  0
  190.4990  176.2930  141.5430 C   0  0  2  0  0  3  0  0  0  0  0  0
  191.9060  177.9240  140.1790 C   0  0  0  0  0  2  0  0  0  0  0  0
  188.9550  177.1240  139.5950 C   0  0  0  0  0  3  0  0  0  0  0  0
  192.2370  176.8340  139.1610 C   0  0  0  0  0  2  0  0  0  0  0  0
  191.2220  174.9600  138.0200 C   0  0  0  0  0  2  0  0  0  0  0  0
  189.7230  176.7780  138.5520 C   0  0  0  0  0  0  0  0  0  0  0  0
  190.3880  175.4920  143.1610 S   0  0  2  0  0  0  0  0  0  0  0  0
  188.9850  175.8390  143.6400 O   0  0  0  0  0  0  0  0  0  0  0  0
  191.4750  176.4200  144.2770 C   0  0  0  0  0  2  0  0  0  0  0  0
  192.0670  175.7940  146.6100 C   0  0  0  0  0  1  0  0  0  0  0  0
  190.9870  176.3740  145.7180 C   0  0  1  0  0  3  0  0  0  0  0  0
  190.6480  177.7870  146.1920 C   0  0  1  0  0  3  0  0  0  0  0  0
  188.6290  176.5940  147.2690 C   0  0  0  0  0  1  0  0  0  0  0  0
  189.3390  178.2530  145.5800 C   0  0  0  0  0  2  0  0  0  0  0  0
  189.3810  177.8980  147.0530 C   0  0  2  0  0  3  0  0  0  0  0  0
  189.2650  177.2050  137.1930 C   0  0  0  0  0  2  0  0  0  0  0  0
  187.8340  176.7630  136.9090 C   0  0  2  0  0  0  0  0  0  0  0  0
  187.6630  175.2530  136.8190 C   0  0  2  0  0  3  0  0  0  0  0  0
  187.6130  176.1180  135.5620 C   0  0  0  0  0  2  0  0  0  0  0  0
  186.6630  177.5720  137.4530 C   0  0  0  0  0  1  0  0  0  0  0  0
  186.4500  173.4800  137.3280 C   0  0  0  0  0  1  0  0  0  0  0  0
  186.3670  174.8620  137.1650 O   0  0  0  0  0  0  0  0  0  0  0  0
  188.4200  177.7970  141.9680 C   0  0  0  0  0  2  0  0  0  0  0  0
  187.4920  178.7290  141.1970 C   0  0  2  0  0  3  0  0  0  0  0  0
  188.1420  179.9540  141.0220 O   0  0  0  0  0  1  0  0  0  0  0  0
  186.1590  178.9330  141.9300 C   0  0  1  0  0  3  0  0  0  0  0  0
  183.9820  177.9270  141.1940 O   0  0  0  0  0  1  0  0  0  0  0  0
  185.0050  178.8460  140.9810 C   0  0  0  0  0  0  0  0  0  0  0  0
  184.9330  179.6460  140.0140 O   0  0  0  0  0  0  0  0  0  0  0  0
  185.9580  177.8840  143.0180 C   0  0  0  0  0  2  0  0  0  0  0  0
  185.1620  178.4550  144.1760 C   0  0  0  0  0  2  0  0  0  0  0  0
  185.8640  179.3010  146.3810 C   0  0  0  0  0  2  0  0  0  0  0  0
  184.8450  178.2070  146.6130 C   0  0  0  0  0  2  0  0  0  0  0  0
  185.8410  178.0850  145.4780 C   0  0  0  0  0  3  0  0  0  0  0  0
  2  4  1  0  0  0  0
  2 26  1  1  0  0  0
  3  7  1  0  0  0  0
  4  1  1  0  0  0  0
  4 10  1  1  0  0  0
  5  1  1  0  0  0  0
  6  2  1  0  0  0  0
  7  5  1  0  0  0  0
  8  3  2  0  0  0  0
  9  3  1  0  0  0  0
  9  6  2  0  0  0  0
 10 11  2  1  0  0  0
 10 12  1  0  0  0  0
 12 14  1  0  0  0  0
 14 13  1  1  0  0  0
 15 14  1  6  0  0  0
 15 18  1  0  0  0  0
 17 15  1  0  0  0  0
 17 18  1  0  0  0  0
 18 16  1  6  0  0  0
 19  9  1  0  0  0  0
 20 19  1  0  0  0  0
 20 23  1  1  0  0  0
 21 20  1  0  0  0  0
 21 25  1  1  0  0  0
 22 21  1  0  0  0  0
 22 20  1  0  0  0  0
 25 24  1  0  0  0  0
 27 28  1  1  0  0  0
 27 29  1  0  0  0  0
 27 26  1  0  0  0  0
 29 33  1  1  0  0  0
 31 30  1  0  0  0  0
 31 29  1  0  0  0  0
 32 31  2  0  0  0  0
 33 34  1  0  0  0  0
 34 37  1  0  0  0  0
 35 36  1  0  0  0  0
 37 35  1  0  0  0  0
 37 36  1  0  0  0  0
M  END
>  <MODEL>
4

>  <REMARK>
 VINA RESULT:      -6.1      2.208      3.488
  Name = 
  14 active torsions:
  status: ('A' for Active; 'I' for Inactive)
    1  A    between atoms: C_1  and  C_26
    2  A    between atoms: C_2  and  C_35
    3  A    between atoms: C_4  and  C_13
    4  A    between atoms: C_4  and  C_28
    5  A    between atoms: C_5  and  O_23
    6  A    between atoms: C_6  and  S_31
    7  A    between atoms: C_6  and  C_35
    8  A    between atoms: C_10  and  C_28
    9  A    between atoms: C_13  and  C_16
   10  A    between atoms: C_13  and  C_20
   11  A    between atoms: C_14  and  S_31
   12  A    between atoms: C_20  and  C_25
   13  A    between atoms: C_25  and  C_32
   14  A    between atoms: C_26  and  C_36
                            x       y       z     vdW  Elec       q    Type
                         _______ _______ _______ _____ _____    ______ ____

>  <TORSDO>
F 14

$$$$
=
 OpenBabel11052415343D

 37 40  0  0  1  0  0  0  0  0999 V2000
  188.8390  177.8130  136.2160 C   0  0  0  0  0  2  0  0  0  0  0  0
  187.0210  176.8720  137.8040 C   0  0  2  0  0  3  0  0  0  0  0  0
  188.1720  174.7110  135.8820 C   0  0  0  0  0  0  0  0  0  0  0  0
  188.5200  177.0850  137.5230 C   0  0  2  0  0  3  0  0  0  0  0  0
  188.3560  177.0630  134.9780 C   0  0  0  0  0  2  0  0  0  0  0  0
  186.2620  175.8800  136.9550 C   0  0  0  0  0  3  0  0  0  0  0  0
  188.8830  175.6290  134.9280 C   0  0  0  0  0  2  0  0  0  0  0  0
  188.7210  173.5260  136.1070 C   0  0  0  0  0  2  0  0  0  0  0  0
  186.7350  174.9000  136.1720 C   0  0  0  0  0  0  0  0  0  0  0  0
  189.3500  177.9060  138.9040 S   0  0  2  0  0  0  0  0  0  0  0  0
  190.8180  177.5580  138.7030 O   0  0  0  0  0  0  0  0  0  0  0  0
  188.8830  177.0000  140.4040 C   0  0  0  0  0  2  0  0  0  0  0  0
  187.7640  179.0690  141.2110 C   0  0  0  0  0  1  0  0  0  0  0  0
  188.6880  177.9290  141.5940 C   0  0  1  0  0  3  0  0  0  0  0  0
  188.0730  177.1520  142.7580 C   0  0  1  0  0  3  0  0  0  0  0  0
  190.0680  178.1500  144.0560 C   0  0  0  0  0  1  0  0  0  0  0  0
  189.0230  176.0670  143.2330 C   0  0  0  0  0  2  0  0  0  0  0  0
  188.8120  177.2940  144.0970 C   0  0  2  0  0  3  0  0  0  0  0  0
  185.7320  174.0210  135.4940 C   0  0  0  0  0  2  0  0  0  0  0  0
  184.8640  173.2710  136.4980 C   0  0  2  0  0  0  0  0  0  0  0  0
  183.7920  172.4010  135.8570 C   0  0  2  0  0  3  0  0  0  0  0  0
  183.4190  173.7060  136.5550 C   0  0  0  0  0  2  0  0  0  0  0  0
  185.4600  172.7930  137.8170 C   0  0  0  0  0  1  0  0  0  0  0  0
  183.6190  170.1990  135.8670 C   0  0  0  0  0  1  0  0  0  0  0  0
  183.4480  171.3220  136.6760 O   0  0  0  0  0  0  0  0  0  0  0  0
  186.2080  178.1400  138.0770 C   0  0  0  0  0  2  0  0  0  0  0  0
  184.8040  177.8340  138.5860 C   0  0  2  0  0  3  0  0  0  0  0  0
  183.9080  177.9660  137.5220 O   0  0  0  0  0  1  0  0  0  0  0  0
  184.4050  178.7680  139.7380 C   0  0  1  0  0  3  0  0  0  0  0  0
  183.9500  181.0190  138.7300 O   0  0  0  0  0  0  0  0  0  0  0  0
  183.4640  179.8310  139.2670 C   0  0  0  0  0  0  0  0  0  0  0  0
  182.2240  179.6270  139.3070 O   0  0  0  0  0  1  0  0  0  0  0  0
  183.7260  177.9990  140.8650 C   0  0  0  0  0  2  0  0  0  0  0  0
  184.6030  177.9670  142.1020 C   0  0  0  0  0  2  0  0  0  0  0  0
  183.4250  178.7860  144.1050 C   0  0  0  0  0  2  0  0  0  0  0  0
  184.9070  178.9890  144.3300 C   0  0  0  0  0  2  0  0  0  0  0  0
  184.3170  179.1890  142.9480 C   0  0  0  0  0  3  0  0  0  0  0  0
  1  4  1  0  0  0  0
  2 26  1  6  0  0  0
  3  8  2  0  0  0  0
  3  9  1  0  0  0  0
  4  2  1  0  0  0  0
  4 10  1  1  0  0  0
  5  1  1  0  0  0  0
  6  2  1  0  0  0  0
  7  5  1  0  0  0  0
  7  3  1  0  0  0  0
  9  6  2  0  0  0  0
 10 11  2  6  0  0  0
 10 12  1  0  0  0  0
 12 14  1  0  0  0  0
 14 13  1  6  0  0  0
 15 14  1  6  0  0  0
 15 17  1  0  0  0  0
 15 18  1  0  0  0  0
 17 18  1  0  0  0  0
 18 16  1  6  0  0  0
 19  9  1  0  0  0  0
 19 20  1  0  0  0  0
 20 22  1  0  0  0  0
 20 23  1  1  0  0  0
 21 20  1  0  0  0  0
 21 22  1  0  0  0  0
 21 25  1  1  0  0  0
 24 25  1  0  0  0  0
 26 27  1  0  0  0  0
 27 28  1  6  0  0  0
 27 29  1  0  0  0  0
 29 33  1  1  0  0  0
 30 31  2  0  0  0  0
 31 32  1  0  0  0  0
 31 29  1  0  0  0  0
 33 34  1  0  0  0  0
 34 37  1  0  0  0  0
 35 36  1  0  0  0  0
 37 35  1  0  0  0  0
 37 36  1  0  0  0  0
M  END
>  <MODEL>
5

>  <REMARK>
 VINA RESULT:      -6.0      1.440      2.105
  Name = 
  14 active torsions:
  status: ('A' for Active; 'I' for Inactive)
    1  A    between atoms: C_1  and  C_26
    2  A    between atoms: C_2  and  C_35
    3  A    between atoms: C_4  and  C_13
    4  A    between atoms: C_4  and  C_28
    5  A    between atoms: C_5  and  O_23
    6  A    between atoms: C_6  and  S_31
    7  A    between atoms: C_6  and  C_35
    8  A    between atoms: C_10  and  C_28
    9  A    between atoms: C_13  and  C_16
   10  A    between atoms: C_13  and  C_20
   11  A    between atoms: C_14  and  S_31
   12  A    between atoms: C_20  and  C_25
   13  A    between atoms: C_25  and  C_32
   14  A    between atoms: C_26  and  C_36
                            x       y       z     vdW  Elec       q    Type
                         _______ _______ _______ _____ _____    ______ ____

>  <TORSDO>
F 14

$$$$
=
 OpenBabel11052415343D

 37 40  0  0  1  0  0  0  0  0999 V2000
  189.3820  178.3680  137.5150 C   0  0  0  0  0  2  0  0  0  0  0  0
  188.3840  177.6150  139.7850 C   0  0  2  0  0  3  0  0  0  0  0  0
  186.2440  177.7940  137.5300 C   0  0  0  0  0  0  0  0  0  0  0  0
  188.9510  177.2060  138.4120 C   0  0  2  0  0  3  0  0  0  0  0  0
  188.2340  179.3040  137.1530 C   0  0  0  0  0  2  0  0  0  0  0  0
  187.0300  178.2810  139.8350 C   0  0  0  0  0  3  0  0  0  0  0  0
  187.0570  178.5590  136.5230 C   0  0  0  0  0  2  0  0  0  0  0  0
  185.3720  176.9120  137.0620 C   0  0  0  0  0  2  0  0  0  0  0  0
  186.0680  178.3160  138.9020 C   0  0  0  0  0  0  0  0  0  0  0  0
  190.3040  176.0180  138.5750 S   0  0  2  0  0  0  0  0  0  0  0  0
  191.4420  176.8430  139.1610 O   0  0  0  0  0  0  0  0  0  0  0  0
  190.8620  175.6300  136.8940 C   0  0  0  0  0  2  0  0  0  0  0  0
  191.4140  173.2560  136.3980 C   0  0  0  0  0  1  0  0  0  0  0  0
  191.9660  174.5810  136.8870 C   0  0  1  0  0  3  0  0  0  0  0  0
  193.0960  175.0290  135.9600 C   0  0  1  0  0  3  0  0  0  0  0  0
  194.5400  174.6440  138.0640 C   0  0  0  0  0  1  0  0  0  0  0  0
  193.7070  176.3270  136.4580 C   0  0  0  0  0  2  0  0  0  0  0  0
  194.4930  175.0390  136.5960 C   0  0  2  0  0  3  0  0  0  0  0  0
  184.7890  179.0040  139.2610 C   0  0  0  0  0  2  0  0  0  0  0  0
  183.9100  178.1390  140.1580 C   0  0  2  0  0  0  0  0  0  0  0  0
  183.1060  178.9300  141.1800 C   0  0  2  0  0  3  0  0  0  0  0  0
  184.3120  178.1010  141.6130 C   0  0  0  0  0  2  0  0  0  0  0  0
  183.2890  176.8590  139.6120 C   0  0  0  0  0  1  0  0  0  0  0  0
  180.9130  179.1770  141.2750 C   0  0  0  0  0  1  0  0  0  0  0  0
  181.9310  178.2610  141.5370 O   0  0  0  0  0  0  0  0  0  0  0  0
  189.3800  178.2570  140.7530 C   0  0  0  0  0  2  0  0  0  0  0  0
  188.9430  178.1310  142.2070 C   0  0  2  0  0  3  0  0  0  0  0  0
  189.8600  178.8190  143.0070 O   0  0  0  0  0  1  0  0  0  0  0  0
  188.8500  176.6620  142.6450 C   0  0  1  0  0  3  0  0  0  0  0  0
  190.0270  176.6920  144.8590 O   0  0  0  0  0  1  0  0  0  0  0  0
  190.0000  176.2910  143.5280 C   0  0  0  0  0  0  0  0  0  0  0  0
  190.9220  175.5650  143.0760 O   0  0  0  0  0  0  0  0  0  0  0  0
  187.5590  176.3920  143.4090 C   0  0  0  0  0  2  0  0  0  0  0  0
  186.9800  177.6790  143.9630 C   0  0  0  0  0  2  0  0  0  0  0  0
  187.0640  178.2140  146.3670 C   0  0  0  0  0  2  0  0  0  0  0  0
  185.7240  178.6780  145.8410 C   0  0  0  0  0  2  0  0  0  0  0  0
  186.3450  177.4020  145.3090 C   0  0  0  0  0  3  0  0  0  0  0  0
  1  4  1  0  0  0  0
  2  6  1  0  0  0  0
  2 26  1  6  0  0  0
  3  9  1  0  0  0  0
  4 10  1  1  0  0  0
  4  2  1  0  0  0  0
  5  1  1  0  0  0  0
  7  5  1  0  0  0  0
  7  3  1  0  0  0  0
  8  3  2  0  0  0  0
  9 19  1  0  0  0  0
  9  6  2  0  0  0  0
 10 11  2  1  0  0  0
 12 10  1  0  0  0  0
 14 13  1  6  0  0  0
 14 12  1  0  0  0  0
 15 17  1  0  0  0  0
 15 18  1  0  0  0  0
 15 14  1  1  0  0  0
 17 18  1  0  0  0  0
 18 16  1  1  0  0  0
 19 20  1  0  0  0  0
 20 23  1  6  0  0  0
 20 21  1  0  0  0  0
 20 22  1  0  0  0  0
 21 25  1  1  0  0  0
 21 22  1  0  0  0  0
 24 25  1  0  0  0  0
 26 27  1  0  0  0  0
 27 29  1  0  0  0  0
 27 28  1  1  0  0  0
 29 33  1  1  0  0  0
 29 31  1  0  0  0  0
 31 30  1  0  0  0  0
 32 31  2  0  0  0  0
 33 34  1  0  0  0  0
 34 37  1  0  0  0  0
 36 35  1  0  0  0  0
 37 36  1  0  0  0  0
 37 35  1  0  0  0  0
M  END
>  <MODEL>
6

>  <REMARK>
 VINA RESULT:      -5.8      2.606      5.329
  Name = 
  14 active torsions:
  status: ('A' for Active; 'I' for Inactive)
    1  A    between atoms: C_1  and  C_26
    2  A    between atoms: C_2  and  C_35
    3  A    between atoms: C_4  and  C_13
    4  A    between atoms: C_4  and  C_28
    5  A    between atoms: C_5  and  O_23
    6  A    between atoms: C_6  and  S_31
    7  A    between atoms: C_6  and  C_35
    8  A    between atoms: C_10  and  C_28
    9  A    between atoms: C_13  and  C_16
   10  A    between atoms: C_13  and  C_20
   11  A    between atoms: C_14  and  S_31
   12  A    between atoms: C_20  and  C_25
   13  A    between atoms: C_25  and  C_32
   14  A    between atoms: C_26  and  C_36
                            x       y       z     vdW  Elec       q    Type
                         _______ _______ _______ _____ _____    ______ ____

>  <TORSDO>
F 14

$$$$
=
 OpenBabel11052415343D

 37 40  0  0  1  0  0  0  0  0999 V2000
  189.5530  176.3490  141.4800 C   0  0  0  0  0  2  0  0  0  0  0  0
  188.1100  178.2500  142.4880 C   0  0  2  0  0  3  0  0  0  0  0  0
  190.9920  178.1780  143.6620 C   0  0  0  0  0  0  0  0  0  0  0  0
  189.1540  177.8250  141.4380 C   0  0  2  0  0  3  0  0  0  0  0  0
  190.2000  175.9400  142.7990 C   0  0  0  0  0  2  0  0  0  0  0  0
  188.5280  178.3060  143.9380 C   0  0  0  0  0  3  0  0  0  0  0  0
  191.3960  176.8220  143.1550 C   0  0  0  0  0  2  0  0  0  0  0  0
  191.9390  179.1020  143.7460 C   0  0  0  0  0  2  0  0  0  0  0  0
  189.7610  178.3420  144.4630 C   0  0  0  0  0  0  0  0  0  0  0  0
  188.6410  178.2790  139.7640 S   0  0  2  0  0  0  0  0  0  0  0  0
  187.7380  177.1290  139.3380 O   0  0  0  0  0  0  0  0  0  0  0  0
  190.1040  178.1050  138.7070 C   0  0  0  0  0  2  0  0  0  0  0  0
  189.2400  177.9440  136.3800 C   0  0  0  0  0  1  0  0  0  0  0  0
  189.8500  177.1700  137.5320 C   0  0  1  0  0  3  0  0  0  0  0  0
  191.1690  176.5460  137.0760 C   0  0  1  0  0  3  0  0  0  0  0  0
  189.8100  174.3560  137.2180 C   0  0  0  0  0  1  0  0  0  0  0  0
  191.7180  175.6220  138.1490 C   0  0  0  0  0  2  0  0  0  0  0  0
  191.1360  175.0220  136.8850 C   0  0  2  0  0  3  0  0  0  0  0  0
  189.8680  178.4630  145.9500 C   0  0  0  0  0  2  0  0  0  0  0  0
  190.0030  177.1020  146.6230 C   0  0  2  0  0  0  0  0  0  0  0  0
  191.4430  176.6860  146.8880 C   0  0  2  0  0  3  0  0  0  0  0  0
  190.6340  176.0230  145.7760 C   0  0  0  0  0  2  0  0  0  0  0  0
  188.9410  176.6290  147.6090 C   0  0  0  0  0  1  0  0  0  0  0  0
  192.8240  176.0030  148.4700 C   0  0  0  0  0  1  0  0  0  0  0  0
  191.5330  175.8150  147.9780 O   0  0  0  0  0  0  0  0  0  0  0  0
  186.7100  177.6580  142.3120 C   0  0  0  0  0  2  0  0  0  0  0  0
  185.7380  178.6400  141.6670 C   0  0  2  0  0  3  0  0  0  0  0  0
  186.4370  179.8060  141.3430 O   0  0  0  0  0  1  0  0  0  0  0  0
  184.5620  178.9650  142.5990 C   0  0  1  0  0  3  0  0  0  0  0  0
  183.2320  177.6460  140.9320 O   0  0  0  0  0  0  0  0  0  0  0  0
  183.2610  178.5520  141.9870 C   0  0  0  0  0  0  0  0  0  0  0  0
  182.1820  178.9870  142.4650 O   0  0  0  0  0  1  0  0  0  0  0  0
  184.7030  178.2530  143.9390 C   0  0  0  0  0  2  0  0  0  0  0  0
  184.5400  179.2290  145.0890 C   0  0  0  0  0  2  0  0  0  0  0  0
  186.0620  177.6780  146.2490 C   0  0  0  0  0  2  0  0  0  0  0  0
  186.1150  179.0030  146.9780 C   0  0  0  0  0  2  0  0  0  0  0  0
  184.8050  178.5110  146.3940 C   0  0  0  0  0  3  0  0  0  0  0  0
  1  5  1  0  0  0  0
  2 26  1  1  0  0  0
  2  6  1  0  0  0  0
  3  8  2  0  0  0  0
  3  9  1  0  0  0  0
  4 10  1  6  0  0  0
  4  1  1  0  0  0  0
  4  2  1  0  0  0  0
  5  7  1  0  0  0  0
  6  9  2  0  0  0  0
  7  3  1  0  0  0  0
  9 19  1  0  0  0  0
 10 11  2  6  0  0  0
 12 10  1  0  0  0  0
 14 13  1  6  0  0  0
 14 12  1  0  0  0  0
 15 14  1  1  0  0  0
 15 17  1  0  0  0  0
 18 15  1  0  0  0  0
 18 16  1  1  0  0  0
 18 17  1  0  0  0  0
 19 20  1  0  0  0  0
 20 21  1  0  0  0  0
 20 23  1  1  0  0  0
 21 25  1  1  0  0  0
 22 20  1  0  0  0  0
 22 21  1  0  0  0  0
 25 24  1  0  0  0  0
 27 28  1  1  0  0  0
 27 26  1  0  0  0  0
 27 29  1  0  0  0  0
 29 33  1  1  0  0  0
 30 31  2  0  0  0  0
 31 32  1  0  0  0  0
 31 29  1  0  0  0  0
 33 34  1  0  0  0  0
 34 37  1  0  0  0  0
 35 37  1  0  0  0  0
 35 36  1  0  0  0  0
 37 36  1  0  0  0  0
M  END
>  <MODEL>
7

>  <REMARK>
 VINA RESULT:      -5.8      2.951      7.223
  Name = 
  14 active torsions:
  status: ('A' for Active; 'I' for Inactive)
    1  A    between atoms: C_1  and  C_26
    2  A    between atoms: C_2  and  C_35
    3  A    between atoms: C_4  and  C_13
    4  A    between atoms: C_4  and  C_28
    5  A    between atoms: C_5  and  O_23
    6  A    between atoms: C_6  and  S_31
    7  A    between atoms: C_6  and  C_35
    8  A    between atoms: C_10  and  C_28
    9  A    between atoms: C_13  and  C_16
   10  A    between atoms: C_13  and  C_20
   11  A    between atoms: C_14  and  S_31
   12  A    between atoms: C_20  and  C_25
   13  A    between atoms: C_25  and  C_32
   14  A    between atoms: C_26  and  C_36
                            x       y       z     vdW  Elec       q    Type
                         _______ _______ _______ _____ _____    ______ ____

>  <TORSDO>
F 14

$$$$
=
 OpenBabel11052415343D

 37 40  0  0  1  0  0  0  0  0999 V2000
  189.0310  178.8290  139.0710 C   0  0  0  0  0  2  0  0  0  0  0  0
  186.6460  177.8320  139.2500 C   0  0  2  0  0  3  0  0  0  0  0  0
  188.3250  176.5300  136.9750 C   0  0  0  0  0  0  0  0  0  0  0  0
  188.1370  177.7180  139.6220 C   0  0  2  0  0  3  0  0  0  0  0  0
  189.0550  178.8800  137.5460 C   0  0  0  0  0  2  0  0  0  0  0  0
  186.2390  177.5810  137.8180 C   0  0  0  0  0  3  0  0  0  0  0  0
  189.4410  177.5360  136.9290 C   0  0  0  0  0  2  0  0  0  0  0  0
  188.6340  175.2680  136.7120 C   0  0  0  0  0  2  0  0  0  0  0  0
  186.9190  176.9650  136.8410 C   0  0  0  0  0  0  0  0  0  0  0  0
  188.3700  177.5660  141.4090 S   0  0  2  0  0  0  0  0  0  0  0  0
  188.3220  179.0060  141.9030 O   0  0  0  0  0  0  0  0  0  0  0  0
  190.0950  177.0700  141.6680 C   0  0  0  0  0  2  0  0  0  0  0  0
  190.7580  175.2330  143.2080 C   0  0  0  0  0  1  0  0  0  0  0  0
  190.3690  176.6960  143.1180 C   0  0  1  0  0  3  0  0  0  0  0  0
  191.5100  177.5540  143.6640 C   0  0  1  0  0  3  0  0  0  0  0  0
  189.9780  177.7000  145.7360 C   0  0  0  0  0  1  0  0  0  0  0  0
  191.0370  178.9770  143.9040 C   0  0  0  0  0  2  0  0  0  0  0  0
  191.3040  178.0770  145.0940 C   0  0  2  0  0  3  0  0  0  0  0  0
  186.2280  176.8010  135.5240 C   0  0  0  0  0  2  0  0  0  0  0  0
  184.9620  175.9600  135.6460 C   0  0  2  0  0  0  0  0  0  0  0  0
  185.1740  174.6310  136.3570 C   0  0  2  0  0  3  0  0  0  0  0  0
  184.9590  174.6790  134.8460 C   0  0  0  0  0  2  0  0  0  0  0  0
  183.6080  176.6380  135.8120 C   0  0  0  0  0  1  0  0  0  0  0  0
  184.2440  172.8460  137.2680 C   0  0  0  0  0  1  0  0  0  0  0  0
  184.0020  174.1890  136.9780 O   0  0  0  0  0  0  0  0  0  0  0  0
  185.8970  179.0170  139.8650 C   0  0  0  0  0  2  0  0  0  0  0  0
  184.4090  179.0020  139.5300 C   0  0  2  0  0  3  0  0  0  0  0  0
  184.0520  180.2630  139.0470 O   0  0  0  0  0  1  0  0  0  0  0  0
  183.5580  178.6400  140.7550 C   0  0  1  0  0  3  0  0  0  0  0  0
  182.7220  176.5380  139.6720 O   0  0  0  0  0  0  0  0  0  0  0  0
  182.4520  177.7020  140.3830 C   0  0  0  0  0  0  0  0  0  0  0  0
  181.2780  177.9430  140.7630 O   0  0  0  0  0  1  0  0  0  0  0  0
  184.3990  177.9750  141.8390 C   0  0  0  0  0  2  0  0  0  0  0  0
  184.0500  178.5270  143.2080 C   0  0  0  0  0  2  0  0  0  0  0  0
  185.1190  178.9980  145.3770 C   0  0  0  0  0  2  0  0  0  0  0  0
  185.9320  177.9230  144.6890 C   0  0  0  0  0  2  0  0  0  0  0  0
  185.3090  179.0390  143.8740 C   0  0  0  0  0  3  0  0  0  0  0  0
  1  4  1  0  0  0  0
  2  4  1  0  0  0  0
  2 26  1  6  0  0  0
  4 10  1  1  0  0  0
  5  1  1  0  0  0  0
  6  2  1  0  0  0  0
  7  3  1  0  0  0  0
  7  5  1  0  0  0  0
  8  3  2  0  0  0  0
  9  3  1  0  0  0  0
  9  6  2  0  0  0  0
 10 12  1  0  0  0  0
 10 11  2  1  0  0  0
 12 14  1  0  0  0  0
 14 13  1  6  0  0  0
 15 14  1  6  0  0  0
 15 17  1  0  0  0  0
 15 18  1  0  0  0  0
 17 18  1  0  0  0  0
 18 16  1  6  0  0  0
 19 20  1  0  0  0  0
 19  9  1  0  0  0  0
 20 23  1  1  0  0  0
 20 21  1  0  0  0  0
 21 25  1  1  0  0  0
 22 20  1  0  0  0  0
 22 21  1  0  0  0  0
 25 24  1  0  0  0  0
 27 28  1  1  0  0  0
 27 26  1  0  0  0  0
 27 29  1  0  0  0  0
 29 33  1  1  0  0  0
 30 31  2  0  0  0  0
 31 29  1  0  0  0  0
 31 32  1  0  0  0  0
 33 34  1  0  0  0  0
 34 37  1  0  0  0  0
 36 35  1  0  0  0  0
 37 36  1  0  0  0  0
 37 35  1  0  0  0  0
M  END
>  <MODEL>
8

>  <REMARK>
 VINA RESULT:      -5.7      1.338      1.833
  Name = 
  14 active torsions:
  status: ('A' for Active; 'I' for Inactive)
    1  A    between atoms: C_1  and  C_26
    2  A    between atoms: C_2  and  C_35
    3  A    between atoms: C_4  and  C_13
    4  A    between atoms: C_4  and  C_28
    5  A    between atoms: C_5  and  O_23
    6  A    between atoms: C_6  and  S_31
    7  A    between atoms: C_6  and  C_35
    8  A    between atoms: C_10  and  C_28
    9  A    between atoms: C_13  and  C_16
   10  A    between atoms: C_13  and  C_20
   11  A    between atoms: C_14  and  S_31
   12  A    between atoms: C_20  and  C_25
   13  A    between atoms: C_25  and  C_32
   14  A    between atoms: C_26  and  C_36
                            x       y       z     vdW  Elec       q    Type
                         _______ _______ _______ _____ _____    ______ ____

>  <TORSDO>
F 14

$$$$
=
 OpenBabel11052415343D

 37 40  0  0  1  0  0  0  0  0999 V2000
  189.5590  176.4030  141.9690 C   0  0  0  0  0  2  0  0  0  0  0  0
  188.1570  178.0100  143.4410 C   0  0  2  0  0  3  0  0  0  0  0  0
  191.1690  177.9780  144.2280 C   0  0  0  0  0  0  0  0  0  0  0  0
  189.0750  177.8320  142.2160 C   0  0  2  0  0  3  0  0  0  0  0  0
  190.3960  175.8460  143.1160 C   0  0  0  0  0  2  0  0  0  0  0  0
  188.7590  177.8740  144.8190 C   0  0  0  0  0  3  0  0  0  0  0  0
  191.5780  176.7510  143.4630 C   0  0  0  0  0  2  0  0  0  0  0  0
  192.0650  178.9480  144.3450 C   0  0  0  0  0  2  0  0  0  0  0  0
  190.0470  177.9220  145.1890 C   0  0  0  0  0  0  0  0  0  0  0  0
  188.3210  178.4980  140.7130 S   0  0  2  0  0  0  0  0  0  0  0  0
  187.3750  177.3920  140.2640 O   0  0  0  0  0  0  0  0  0  0  0  0
  189.6160  178.5120  139.4450 C   0  0  0  0  0  2  0  0  0  0  0  0
  188.7910  179.1700  137.1920 C   0  0  0  0  0  1  0  0  0  0  0  0
  189.1070  178.0000  138.1040 C   0  0  1  0  0  3  0  0  0  0  0  0
  190.1750  177.1240  137.4480 C   0  0  1  0  0  3  0  0  0  0  0  0
  188.2110  175.4650  137.2160 C   0  0  0  0  0  1  0  0  0  0  0  0
  190.4100  175.8690  138.2700 C   0  0  0  0  0  2  0  0  0  0  0  0
  189.6790  175.7600  136.9470 C   0  0  2  0  0  3  0  0  0  0  0  0
  190.3430  177.8210  146.6520 C   0  0  0  0  0  2  0  0  0  0  0  0
  189.0770  177.6110  147.4750 C   0  0  2  0  0  0  0  0  0  0  0  0
  188.2780  178.8850  147.7100 C   0  0  2  0  0  3  0  0  0  0  0  0
  189.0820  178.2520  148.8430 C   0  0  0  0  0  2  0  0  0  0  0  0
  188.3010  176.3050  147.3630 C   0  0  0  0  0  1  0  0  0  0  0  0
  186.2620  179.7140  147.3510 C   0  0  0  0  0  1  0  0  0  0  0  0
  186.9200  178.6120  147.8970 O   0  0  0  0  0  0  0  0  0  0  0  0
  186.7810  177.3470  143.3420 C   0  0  0  0  0  2  0  0  0  0  0  0
  185.7020  178.1310  144.0800 C   0  0  2  0  0  3  0  0  0  0  0  0
  185.4120  177.4680  145.2760 O   0  0  0  0  0  1  0  0  0  0  0  0
  184.4320  178.2800  143.2320 C   0  0  1  0  0  3  0  0  0  0  0  0
  182.0610  178.6280  143.9710 O   0  0  0  0  0  0  0  0  0  0  0  0
  183.3840  179.0570  143.9640 C   0  0  0  0  0  0  0  0  0  0  0  0
  183.7120  180.0770  144.6220 O   0  0  0  0  0  1  0  0  0  0  0  0
  184.7230  178.9970  141.9180 C   0  0  0  0  0  2  0  0  0  0  0  0
  183.8320  178.4730  140.8080 C   0  0  0  0  0  2  0  0  0  0  0  0
  184.0480  177.9880  138.4020 C   0  0  0  0  0  2  0  0  0  0  0  0
  183.1330  179.1840  138.5480 C   0  0  0  0  0  2  0  0  0  0  0  0
  184.3160  179.0170  139.4810 C   0  0  0  0  0  3  0  0  0  0  0  0
  1  4  1  0  0  0  0
  1  5  1  0  0  0  0
  2 26  1  6  0  0  0
  2  6  1  0  0  0  0
  3  8  2  0  0  0  0
  3  9  1  0  0  0  0
  4 10  1  6  0  0  0
  4  2  1  0  0  0  0
  5  7  1  0  0  0  0
  6  9  2  0  0  0  0
  7  3  1  0  0  0  0
  9 19  1  0  0  0  0
 10 11  2  6  0  0  0
 12 10  1  0  0  0  0
 14 13  1  6  0  0  0
 14 12  1  0  0  0  0
 15 14  1  1  0  0  0
 15 17  1  0  0  0  0
 18 16  1  1  0  0  0
 18 15  1  0  0  0  0
 18 17  1  0  0  0  0
 19 20  1  0  0  0  0
 20 23  1  6  0  0  0
 20 21  1  0  0  0  0
 20 22  1  0  0  0  0
 21 25  1  1  0  0  0
 21 22  1  0  0  0  0
 24 25  1  0  0  0  0
 26 27  1  0  0  0  0
 27 28  1  1  0  0  0
 29 33  1  6  0  0  0
 29 31  1  0  0  0  0
 29 27  1  0  0  0  0
 31 30  2  0  0  0  0
 31 32  1  0  0  0  0
 34 33  1  0  0  0  0
 35 36  1  0  0  0  0
 35 37  1  0  0  0  0
 36 37  1  0  0  0  0
 37 34  1  0  0  0  0
M  END
>  <MODEL>
9

>  <REMARK>
 VINA RESULT:      -5.6      2.577      7.605
  Name = 
  14 active torsions:
  status: ('A' for Active; 'I' for Inactive)
    1  A    between atoms: C_1  and  C_26
    2  A    between atoms: C_2  and  C_35
    3  A    between atoms: C_4  and  C_13
    4  A    between atoms: C_4  and  C_28
    5  A    between atoms: C_5  and  O_23
    6  A    between atoms: C_6  and  S_31
    7  A    between atoms: C_6  and  C_35
    8  A    between atoms: C_10  and  C_28
    9  A    between atoms: C_13  and  C_16
   10  A    between atoms: C_13  and  C_20
   11  A    between atoms: C_14  and  S_31
   12  A    between atoms: C_20  and  C_25
   13  A    between atoms: C_25  and  C_32
   14  A    between atoms: C_26  and  C_36
                            x       y       z     vdW  Elec       q    Type
                         _______ _______ _______ _____ _____    ______ ____

>  <TORSDO>
F 14

$$$$
