=
 OpenBabel11052416533D

 32 36  0  0  1  0  0  0  0  0999 V2000
  186.9610  178.2020  142.0490 C   0  0  0  0  0  0  0  0  0  0  0  0
  186.2720  177.9900  146.8590 C   0  0  0  0  0  3  0  0  0  0  0  0
  184.9140  178.2600  146.6870 C   0  0  0  0  0  3  0  0  0  0  0  0
  185.0380  178.6770  140.5320 C   0  0  0  0  0  0  0  0  0  0  0  0
  183.6760  178.9510  140.3900 C   0  0  0  0  0  0  0  0  0  0  0  0
  189.0620  177.2370  141.2210 N   0  0  0  0  0  0  0  0  0  0  0  0
  188.8140  177.7300  143.5320 O   0  0  0  0  0  0  0  0  0  0  0  0
  181.5250  179.3070  141.1990 C   0  0  0  0  0  0  0  0  0  0  0  0
  187.1130  177.9120  145.7480 C   0  0  0  0  0  3  0  0  0  0  0  0
  187.4570  178.0210  143.3490 C   0  0  0  0  0  0  0  0  0  0  0  0
  186.6060  178.1020  144.4550 C   0  0  0  0  0  0  0  0  0  0  0  0
  184.7170  178.5660  142.9720 C   0  0  0  0  0  0  0  0  0  0  0  0
  181.4730  179.4340  139.5400 S   0  0  0  0  0  0  0  0  0  0  0  0
  189.7390  177.6950  142.4440 C   0  0  1  0  0  3  0  0  0  0  0  0
  183.0780  179.1510  139.1820 N   0  0  0  0  0  2  0  0  0  0  0  0
  184.3970  178.4510  145.4050 C   0  0  0  0  0  3  0  0  0  0  0  0
  185.2310  178.3750  144.2730 C   0  0  0  0  0  0  0  0  0  0  0  0
  183.3470  178.8410  142.7970 C   0  0  0  0  0  3  0  0  0  0  0  0
  187.9710  178.1710  140.9350 C   0  0  0  0  0  2  0  0  0  0  0  0
  185.8200  178.5990  139.3840 O   0  0  0  0  0  1  0  0  0  0  0  0
  180.5580  179.4350  141.9950 O   0  0  0  0  0  0  0  0  0  0  0  0
  185.5840  178.4820  141.8350 C   0  0  0  0  0  0  0  0  0  0  0  0
  182.8410  179.0310  141.5200 C   0  0  0  0  0  0  0  0  0  0  0  0
  191.4640  176.8200  143.9610 N   0  0  0  0  0  0  0  0  0  0  0  0
  190.8660  176.7690  142.8200 C   0  0  0  0  0  3  0  0  0  0  0  0
  191.1030  177.7590  144.9920 C   0  0  0  0  0  2  0  0  0  0  0  0
  190.5130  177.0140  146.1730 C   0  0  0  0  0  2  0  0  0  0  0  0
  191.5920  176.6230  147.1280 C   0  0  0  0  0  0  0  0  0  0  0  0
  192.3510  175.3610  146.9110 C   0  0  0  0  0  1  0  0  0  0  0  0
  191.8390  177.3220  148.0990 O   0  0  0  0  0  0  0  0  0  0  0  0
  189.3640  178.2310  139.0200 C   0  0  0  0  0  1  0  0  0  0  0  0
  189.9840  177.3630  140.0990 C   0  0  0  0  0  2  0  0  0  0  0  0
  1 10  1  0  0  0  0
  3  2  1  0  0  0  0
  4 22  1  0  0  0  0
  5  4  2  0  0  0  0
  5 23  1  0  0  0  0
  6 14  1  0  0  0  0
  8 23  1  0  0  0  0
  8 21  2  0  0  0  0
  9  2  2  0  0  0  0
 10  7  1  0  0  0  0
 10 11  2  0  0  0  0
 11  9  1  0  0  0  0
 12 17  2  0  0  0  0
 13  8  1  0  0  0  0
 14 25  1  1  0  0  0
 14  7  1  0  0  0  0
 15 13  1  0  0  0  0
 15  5  1  0  0  0  0
 16  3  2  0  0  0  0
 17 11  1  0  0  0  0
 17 16  1  0  0  0  0
 18 12  1  0  0  0  0
 19  6  1  0  0  0  0
 19  1  1  0  0  0  0
 20  4  1  0  0  0  0
 22  1  2  0  0  0  0
 22 12  1  0  0  0  0
 23 18  2  0  0  0  0
 24 26  1  0  0  0  0
 25 24  2  0  0  0  0
 26 27  1  0  0  0  0
 27 28  1  0  0  0  0
 28 30  2  0  0  0  0
 29 28  1  0  0  0  0
 31 32  1  0  0  0  0
 32  6  1  0  0  0  0
M  END
>  <MODEL>
1

>  <REMARK>
 VINA RESULT:     -10.2      0.000      0.000
  Name = 
  5 active torsions:
  status: ('A' for Active; 'I' for Inactive)
    1  A    between atoms: C_1  and  C_10
    2  A    between atoms: N_2  and  C_24
    3  A    between atoms: N_8  and  C_23
    4  A    between atoms: C_10  and  C_24
    5  A    between atoms: C_12  and  C_21
                            x       y       z     vdW  Elec       q    Type
                         _______ _______ _______ _____ _____    ______ ____

>  <TORSDO>
F 5

$$$$
=
 OpenBabel11052416533D

 32 36  0  0  1  0  0  0  0  0999 V2000
  188.2440  177.6860  141.9830 C   0  0  0  0  0  0  0  0  0  0  0  0
  183.6470  178.9220  142.9810 C   0  0  0  0  0  3  0  0  0  0  0  0
  183.9050  178.8220  144.3480 C   0  0  0  0  0  3  0  0  0  0  0  0
  189.8400  177.2090  143.8400 C   0  0  0  0  0  0  0  0  0  0  0  0
  190.0690  177.1120  145.2140 C   0  0  0  0  0  0  0  0  0  0  0  0
  189.0120  178.1600  139.6990 N   0  0  0  0  0  0  0  0  0  0  0  0
  186.6880  178.1640  140.1920 O   0  0  0  0  0  0  0  0  0  0  0  0
  189.4340  177.2340  147.4480 C   0  0  0  0  0  0  0  0  0  0  0  0
  184.6620  178.6610  142.0590 C   0  0  0  0  0  3  0  0  0  0  0  0
  186.9530  178.0420  141.5610 C   0  0  0  0  0  0  0  0  0  0  0  0
  185.9450  178.3000  142.4940 C   0  0  0  0  0  0  0  0  0  0  0  0
  187.5050  177.8350  144.3180 C   0  0  0  0  0  0  0  0  0  0  0  0
  191.0400  176.7970  147.3970 S   0  0  0  0  0  0  0  0  0  0  0  0
  187.6630  177.8540  139.1960 C   0  0  1  0  0  3  0  0  0  0  0  0
  191.2760  176.7710  145.7460 N   0  0  0  0  0  2  0  0  0  0  0  0
  185.1790  178.4630  144.7940 C   0  0  0  0  0  3  0  0  0  0  0  0
  186.2150  178.1970  143.8770 C   0  0  0  0  0  0  0  0  0  0  0  0
  187.7680  177.7320  145.6970 C   0  0  0  0  0  3  0  0  0  0  0  0
  189.2360  177.3550  140.9020 C   0  0  0  0  0  2  0  0  0  0  0  0
  190.8970  176.9500  142.9740 O   0  0  0  0  0  1  0  0  0  0  0  0
  188.7320  177.4020  148.4790 O   0  0  0  0  0  0  0  0  0  0  0  0
  188.5440  177.5720  143.3670 C   0  0  0  0  0  0  0  0  0  0  0  0
  189.0350  177.3730  146.1320 C   0  0  0  0  0  0  0  0  0  0  0  0
  186.4930  178.2830  137.0770 N   0  0  0  0  0  0  0  0  0  0  0  0
  187.3460  178.6630  137.9660 C   0  0  0  0  0  3  0  0  0  0  0  0
  185.7510  177.0520  137.1820 C   0  0  0  0  0  2  0  0  0  0  0  0
  184.2710  177.3380  137.0240 C   0  0  0  0  0  2  0  0  0  0  0  0
  183.6840  177.7580  138.3300 C   0  0  0  0  0  0  0  0  0  0  0  0
  183.1010  176.7360  139.2430 C   0  0  0  0  0  1  0  0  0  0  0  0
  183.6590  178.9380  138.6440 O   0  0  0  0  0  0  0  0  0  0  0  0
  190.9750  176.7530  139.4070 C   0  0  0  0  0  1  0  0  0  0  0  0
  189.9920  177.6870  138.7290 C   0  0  0  0  0  2  0  0  0  0  0  0
  1 22  1  0  0  0  0
  2  3  1  0  0  0  0
  3 16  2  0  0  0  0
  4  5  1  0  0  0  0
  5 15  1  0  0  0  0
  5 23  2  0  0  0  0
  6 19  1  0  0  0  0
  7 10  1  0  0  0  0
  8 21  2  0  0  0  0
  9 11  1  0  0  0  0
  9  2  2  0  0  0  0
 10  1  2  0  0  0  0
 10 11  1  0  0  0  0
 11 17  2  0  0  0  0
 12 18  2  0  0  0  0
 13  8  1  0  0  0  0
 14 25  1  6  0  0  0
 14  6  1  0  0  0  0
 14  7  1  0  0  0  0
 15 13  1  0  0  0  0
 17 12  1  0  0  0  0
 17 16  1  0  0  0  0
 18 23  1  0  0  0  0
 19  1  1  0  0  0  0
 20  4  1  0  0  0  0
 22  4  2  0  0  0  0
 22 12  1  0  0  0  0
 23  8  1  0  0  0  0
 24 26  1  0  0  0  0
 24 25  2  0  0  0  0
 27 26  1  0  0  0  0
 27 28  1  0  0  0  0
 28 30  2  0  0  0  0
 28 29  1  0  0  0  0
 32 31  1  0  0  0  0
 32  6  1  0  0  0  0
M  END
>  <MODEL>
2

>  <REMARK>
 VINA RESULT:     -10.2      2.944      7.141
  Name = 
  5 active torsions:
  status: ('A' for Active; 'I' for Inactive)
    1  A    between atoms: C_1  and  C_10
    2  A    between atoms: N_2  and  C_24
    3  A    between atoms: N_8  and  C_23
    4  A    between atoms: C_10  and  C_24
    5  A    between atoms: C_12  and  C_21
                            x       y       z     vdW  Elec       q    Type
                         _______ _______ _______ _____ _____    ______ ____

>  <TORSDO>
F 5

$$$$
=
 OpenBabel11052416533D

 32 36  0  0  1  0  0  0  0  0999 V2000
  188.3030  177.6590  141.9260 C   0  0  0  0  0  0  0  0  0  0  0  0
  183.7180  178.9060  142.9670 C   0  0  0  0  0  3  0  0  0  0  0  0
  183.9870  178.7950  144.3320 C   0  0  0  0  0  3  0  0  0  0  0  0
  189.9110  177.1610  143.7680 C   0  0  0  0  0  0  0  0  0  0  0  0
  190.1490  177.0530  145.1400 C   0  0  0  0  0  0  0  0  0  0  0  0
  189.0560  178.1460  139.6400 N   0  0  0  0  0  0  0  0  0  0  0  0
  186.7360  178.1570  140.1500 O   0  0  0  0  0  0  0  0  0  0  0  0
  189.5310  177.1600  147.3780 C   0  0  0  0  0  0  0  0  0  0  0  0
  184.7250  178.6480  142.0360 C   0  0  0  0  0  3  0  0  0  0  0  0
  187.0110  178.0230  141.5160 C   0  0  0  0  0  0  0  0  0  0  0  0
  186.0100  178.2780  142.4580 C   0  0  0  0  0  0  0  0  0  0  0  0
  187.5820  177.7930  144.2680 C   0  0  0  0  0  0  0  0  0  0  0  0
  191.1350  176.7170  147.3130 S   0  0  0  0  0  0  0  0  0  0  0  0
  187.7030  177.8510  139.1450 C   0  0  1  0  0  3  0  0  0  0  0  0
  191.3590  176.7020  145.6590 N   0  0  0  0  0  2  0  0  0  0  0  0
  185.2620  178.4270  144.7650 C   0  0  0  0  0  3  0  0  0  0  0  0
  186.2900  178.1640  143.8390 C   0  0  0  0  0  0  0  0  0  0  0  0
  187.8550  177.6780  145.6440 C   0  0  0  0  0  3  0  0  0  0  0  0
  189.2860  177.3320  140.8350 C   0  0  0  0  0  2  0  0  0  0  0  0
  190.9600  176.9040  142.8920 O   0  0  0  0  0  1  0  0  0  0  0  0
  188.8370  177.3240  148.4160 O   0  0  0  0  0  0  0  0  0  0  0  0
  188.6120  177.5330  143.3070 C   0  0  0  0  0  0  0  0  0  0  0  0
  189.1230  177.3110  146.0670 C   0  0  0  0  0  0  0  0  0  0  0  0
  186.7350  178.1970  136.9120 N   0  0  0  0  0  0  0  0  0  0  0  0
  187.3800  178.6700  137.9230 C   0  0  0  0  0  3  0  0  0  0  0  0
  186.2500  176.8410  136.8580 C   0  0  0  0  0  2  0  0  0  0  0  0
  186.9130  176.1110  135.7080 C   0  0  0  0  0  2  0  0  0  0  0  0
  188.2710  175.6400  136.1090 C   0  0  0  0  0  0  0  0  0  0  0  0
  189.4670  176.0940  135.3470 C   0  0  0  0  0  1  0  0  0  0  0  0
  188.4050  174.8670  137.0450 O   0  0  0  0  0  0  0  0  0  0  0  0
  190.8590  176.5590  139.2560 C   0  0  0  0  0  1  0  0  0  0  0  0
  190.0270  177.6770  138.6590 C   0  0  0  0  0  2  0  0  0  0  0  0
  1 22  1  0  0  0  0
  2  3  1  0  0  0  0
  3 16  2  0  0  0  0
  4  5  1  0  0  0  0
  5 15  1  0  0  0  0
  5 23  2  0  0  0  0
  6 19  1  0  0  0  0
  7 10  1  0  0  0  0
  8 21  2  0  0  0  0
  9 11  1  0  0  0  0
  9  2  2  0  0  0  0
 10  1  2  0  0  0  0
 10 11  1  0  0  0  0
 11 17  2  0  0  0  0
 12 18  2  0  0  0  0
 13  8  1  0  0  0  0
 14 25  1  6  0  0  0
 14  6  1  0  0  0  0
 14  7  1  0  0  0  0
 15 13  1  0  0  0  0
 17 12  1  0  0  0  0
 17 16  1  0  0  0  0
 18 23  1  0  0  0  0
 19  1  1  0  0  0  0
 20  4  1  0  0  0  0
 22  4  2  0  0  0  0
 22 12  1  0  0  0  0
 23  8  1  0  0  0  0
 24 25  2  0  0  0  0
 26 24  1  0  0  0  0
 27 28  1  0  0  0  0
 27 26  1  0  0  0  0
 28 30  2  0  0  0  0
 29 28  1  0  0  0  0
 32 31  1  0  0  0  0
 32  6  1  0  0  0  0
M  END
>  <MODEL>
3

>  <REMARK>
 VINA RESULT:     -10.0      3.211      7.093
  Name = 
  5 active torsions:
  status: ('A' for Active; 'I' for Inactive)
    1  A    between atoms: C_1  and  C_10
    2  A    between atoms: N_2  and  C_24
    3  A    between atoms: N_8  and  C_23
    4  A    between atoms: C_10  and  C_24
    5  A    between atoms: C_12  and  C_21
                            x       y       z     vdW  Elec       q    Type
                         _______ _______ _______ _____ _____    ______ ____

>  <TORSDO>
F 5

$$$$
=
 OpenBabel11052416533D

 32 36  0  0  1  0  0  0  0  0999 V2000
  187.3050  177.9140  142.1560 C   0  0  0  0  0  0  0  0  0  0  0  0
  183.2640  178.9760  144.6450 C   0  0  0  0  0  3  0  0  0  0  0  0
  183.9450  178.7920  145.8490 C   0  0  0  0  0  3  0  0  0  0  0  0
  189.4100  177.3510  143.3720 C   0  0  0  0  0  0  0  0  0  0  0  0
  190.0650  177.1680  144.5910 C   0  0  0  0  0  0  0  0  0  0  0  0
  187.3060  178.5540  139.7840 N   0  0  0  0  0  0  0  0  0  0  0  0
  185.2600  178.4740  140.9890 O   0  0  0  0  0  0  0  0  0  0  0  0
  190.1740  177.1280  146.9140 C   0  0  0  0  0  0  0  0  0  0  0  0
  183.9330  178.8000  143.4320 C   0  0  0  0  0  3  0  0  0  0  0  0
  185.9480  178.2670  142.1910 C   0  0  0  0  0  0  0  0  0  0  0  0
  185.2880  178.4400  143.4110 C   0  0  0  0  0  0  0  0  0  0  0  0
  187.3490  177.8910  144.6090 C   0  0  0  0  0  0  0  0  0  0  0  0
  191.6800  176.7310  146.3250 S   0  0  0  0  0  0  0  0  0  0  0  0
  185.8680  178.2520  139.7160 C   0  0  1  0  0  3  0  0  0  0  0  0
  191.3780  176.8200  144.6870 N   0  0  0  0  0  2  0  0  0  0  0  0
  185.2940  178.4330  145.8410 C   0  0  0  0  0  3  0  0  0  0  0  0
  185.9850  178.2520  144.6270 C   0  0  0  0  0  0  0  0  0  0  0  0
  188.0370  177.7020  145.8220 C   0  0  0  0  0  3  0  0  0  0  0  0
  187.9020  177.6770  140.7950 C   0  0  0  0  0  2  0  0  0  0  0  0
  190.1360  177.1740  142.1980 O   0  0  0  0  0  1  0  0  0  0  0  0
  189.8360  177.2120  148.1240 O   0  0  0  0  0  0  0  0  0  0  0  0
  188.0300  177.7150  143.3610 C   0  0  0  0  0  0  0  0  0  0  0  0
  189.3760  177.3450  145.8060 C   0  0  0  0  0  0  0  0  0  0  0  0
  184.3150  178.6860  137.8610 N   0  0  0  0  0  0  0  0  0  0  0  0
  185.1750  179.1330  138.7100 C   0  0  0  0  0  3  0  0  0  0  0  0
  183.9230  177.3010  137.8000 C   0  0  0  0  0  2  0  0  0  0  0  0
  182.4160  177.1950  137.9250 C   0  0  0  0  0  2  0  0  0  0  0  0
  182.0500  176.5030  139.1960 C   0  0  0  0  0  0  0  0  0  0  0  0
  180.8920  175.5670  139.2210 C   0  0  0  0  0  1  0  0  0  0  0  0
  182.6810  176.7180  140.2190 O   0  0  0  0  0  0  0  0  0  0  0  0
  189.4290  178.3600  138.6100 C   0  0  0  0  0  1  0  0  0  0  0  0
  187.9270  178.1690  138.5230 C   0  0  0  0  0  2  0  0  0  0  0  0
  1 10  2  0  0  0  0
  1 22  1  0  0  0  0
  2  3  1  0  0  0  0
  4  5  1  0  0  0  0
  5 15  1  0  0  0  0
  5 23  2  0  0  0  0
  6 19  1  0  0  0  0
  7 10  1  0  0  0  0
  8 21  2  0  0  0  0
  9  2  2  0  0  0  0
 10 11  1  0  0  0  0
 11  9  1  0  0  0  0
 11 17  2  0  0  0  0
 12 17  1  0  0  0  0
 12 18  2  0  0  0  0
 13  8  1  0  0  0  0
 14 25  1  6  0  0  0
 14  6  1  0  0  0  0
 14  7  1  0  0  0  0
 15 13  1  0  0  0  0
 16  3  2  0  0  0  0
 17 16  1  0  0  0  0
 19  1  1  0  0  0  0
 20  4  1  0  0  0  0
 22  4  2  0  0  0  0
 22 12  1  0  0  0  0
 23 18  1  0  0  0  0
 23  8  1  0  0  0  0
 24 25  2  0  0  0  0
 26 24  1  0  0  0  0
 26 27  1  0  0  0  0
 27 28  1  0  0  0  0
 28 29  1  0  0  0  0
 28 30  2  0  0  0  0
 32 31  1  0  0  0  0
 32  6  1  0  0  0  0
M  END
>  <MODEL>
4

>  <REMARK>
 VINA RESULT:      -9.7      2.863      7.312
  Name = 
  5 active torsions:
  status: ('A' for Active; 'I' for Inactive)
    1  A    between atoms: C_1  and  C_10
    2  A    between atoms: N_2  and  C_24
    3  A    between atoms: N_8  and  C_23
    4  A    between atoms: C_10  and  C_24
    5  A    between atoms: C_12  and  C_21
                            x       y       z     vdW  Elec       q    Type
                         _______ _______ _______ _____ _____    ______ ____

>  <TORSDO>
F 5

$$$$
=
 OpenBabel11052416533D

 32 36  0  0  1  0  0  0  0  0999 V2000
  185.9720  178.4030  142.5490 C   0  0  0  0  0  0  0  0  0  0  0  0
  189.6330  177.7700  139.4100 C   0  0  0  0  0  3  0  0  0  0  0  0
  190.5050  177.4990  140.4650 C   0  0  0  0  0  3  0  0  0  0  0  0
  186.3690  178.1500  144.9990 C   0  0  0  0  0  0  0  0  0  0  0  0
  187.2650  177.8800  146.0350 C   0  0  0  0  0  0  0  0  0  0  0  0
  183.7120  178.3570  141.5870 N   0  0  0  0  0  0  0  0  0  0  0  0
  185.5980  178.6330  140.1680 O   0  0  0  0  0  0  0  0  0  0  0  0
  189.3580  177.3460  146.8960 C   0  0  0  0  0  0  0  0  0  0  0  0
  188.2930  178.0630  139.6700 C   0  0  0  0  0  3  0  0  0  0  0  0
  186.4680  178.3820  141.2360 C   0  0  0  0  0  0  0  0  0  0  0  0
  187.8120  178.0880  140.9870 C   0  0  0  0  0  0  0  0  0  0  0  0
  188.2070  177.8360  143.3870 C   0  0  0  0  0  0  0  0  0  0  0  0
  188.3050  177.5020  148.1760 S   0  0  0  0  0  0  0  0  0  0  0  0
  184.2320  178.9970  140.3690 C   0  0  1  0  0  3  0  0  0  0  0  0
  186.9050  177.8750  147.3490 N   0  0  0  0  0  2  0  0  0  0  0  0
  190.0370  177.5210  141.7800 C   0  0  0  0  0  3  0  0  0  0  0  0
  188.6890  177.8140  142.0610 C   0  0  0  0  0  0  0  0  0  0  0  0
  189.0850  177.5660  144.4540 C   0  0  0  0  0  3  0  0  0  0  0  0
  184.5320  178.8050  142.7150 C   0  0  0  0  0  2  0  0  0  0  0  0
  185.0440  178.4210  145.3240 O   0  0  0  0  0  1  0  0  0  0  0  0
  190.5830  177.0620  146.9590 O   0  0  0  0  0  0  0  0  0  0  0  0
  186.8300  178.1350  143.6480 C   0  0  0  0  0  0  0  0  0  0  0  0
  188.6140  177.5900  145.7570 C   0  0  0  0  0  0  0  0  0  0  0  0
  182.7650  179.3870  138.4360 N   0  0  0  0  0  0  0  0  0  0  0  0
  183.4520  178.5670  139.1540 C   0  0  0  0  0  3  0  0  0  0  0  0
  182.6850  180.7980  138.7180 C   0  0  0  0  0  2  0  0  0  0  0  0
  181.2330  181.2330  138.7220 C   0  0  0  0  0  2  0  0  0  0  0  0
  180.9470  182.0880  137.5320 C   0  0  0  0  0  0  0  0  0  0  0  0
  180.5060  181.4580  136.2570 C   0  0  0  0  0  1  0  0  0  0  0  0
  181.0940  183.2990  137.5920 O   0  0  0  0  0  0  0  0  0  0  0  0
  182.1630  179.0040  143.3480 C   0  0  0  0  0  1  0  0  0  0  0  0
  182.3740  178.8700  141.8530 C   0  0  0  0  0  2  0  0  0  0  0  0
  1 19  1  0  0  0  0
  1 22  1  0  0  0  0
  2  9  2  0  0  0  0
  2  3  1  0  0  0  0
  3 16  2  0  0  0  0
  4 20  1  0  0  0  0
  4  5  1  0  0  0  0
  5 15  1  0  0  0  0
  6 32  1  0  0  0  0
  6 19  1  0  0  0  0
  7 14  1  0  0  0  0
  7 10  1  0  0  0  0
  8 21  2  0  0  0  0
  8 13  1  0  0  0  0
  9 11  1  0  0  0  0
 10  1  2  0  0  0  0
 11 10  1  0  0  0  0
 11 17  2  0  0  0  0
 12 22  1  0  0  0  0
 12 18  2  0  0  0  0
 14 25  1  6  0  0  0
 14  6  1  0  0  0  0
 15 13  1  0  0  0  0
 16 17  1  0  0  0  0
 17 12  1  0  0  0  0
 18 23  1  0  0  0  0
 22  4  2  0  0  0  0
 23  5  2  0  0  0  0
 23  8  1  0  0  0  0
 24 26  1  0  0  0  0
 24 25  2  0  0  0  0
 26 27  1  0  0  0  0
 28 30  2  0  0  0  0
 28 27  1  0  0  0  0
 29 28  1  0  0  0  0
 32 31  1  0  0  0  0
M  END
>  <MODEL>
5

>  <REMARK>
 VINA RESULT:      -9.6      3.117      8.656
  Name = 
  5 active torsions:
  status: ('A' for Active; 'I' for Inactive)
    1  A    between atoms: C_1  and  C_10
    2  A    between atoms: N_2  and  C_24
    3  A    between atoms: N_8  and  C_23
    4  A    between atoms: C_10  and  C_24
    5  A    between atoms: C_12  and  C_21
                            x       y       z     vdW  Elec       q    Type
                         _______ _______ _______ _____ _____    ______ ____

>  <TORSDO>
F 5

$$$$
=
 OpenBabel11052416533D

 32 36  0  0  1  0  0  0  0  0999 V2000
  186.2720  178.3020  141.3330 C   0  0  0  0  0  0  0  0  0  0  0  0
  187.8660  177.5090  145.8590 C   0  0  0  0  0  3  0  0  0  0  0  0
  186.5770  177.7000  146.3580 C   0  0  0  0  0  3  0  0  0  0  0  0
  183.8620  178.8060  140.9280 C   0  0  0  0  0  0  0  0  0  0  0  0
  182.5840  178.9970  141.4560 C   0  0  0  0  0  0  0  0  0  0  0  0
  187.7720  177.5850  139.5250 N   0  0  0  0  0  0  0  0  0  0  0  0
  188.6050  177.7990  141.7400 O   0  0  0  0  0  0  0  0  0  0  0  0
  181.0390  179.1080  143.1900 C   0  0  0  0  0  0  0  0  0  0  0  0
  188.1060  177.6140  144.4880 C   0  0  0  0  0  3  0  0  0  0  0  0
  187.3110  178.0130  142.2310 C   0  0  0  0  0  0  0  0  0  0  0  0
  187.0600  177.9110  143.6030 C   0  0  0  0  0  0  0  0  0  0  0  0
  184.6960  178.4020  143.2110 C   0  0  0  0  0  0  0  0  0  0  0  0
  180.2310  179.4150  141.7660 S   0  0  0  0  0  0  0  0  0  0  0  0
  188.9290  177.9510  140.3570 C   0  0  1  0  0  3  0  0  0  0  0  0
  181.4970  179.2870  140.6870 N   0  0  0  0  0  2  0  0  0  0  0  0
  185.5280  177.9960  145.4870 C   0  0  0  0  0  3  0  0  0  0  0  0
  185.7510  178.1050  144.1000 C   0  0  0  0  0  0  0  0  0  0  0  0
  183.3960  178.5980  143.7130 C   0  0  0  0  0  3  0  0  0  0  0  0
  186.6600  178.4660  139.8890 C   0  0  0  0  0  2  0  0  0  0  0  0
  184.0320  178.9110  139.5520 O   0  0  0  0  0  1  0  0  0  0  0  0
  180.5420  179.0790  144.3470 O   0  0  0  0  0  0  0  0  0  0  0  0
  184.9480  178.5060  141.8050 C   0  0  0  0  0  0  0  0  0  0  0  0
  182.3580  178.8920  142.8410 C   0  0  0  0  0  0  0  0  0  0  0  0
  191.1800  177.0610  140.7810 N   0  0  0  0  0  0  0  0  0  0  0  0
  190.1140  177.0710  140.0580 C   0  0  0  0  0  3  0  0  0  0  0  0
  191.3370  177.8820  141.9550 C   0  0  0  0  0  2  0  0  0  0  0  0
  191.6750  177.0060  143.1450 C   0  0  0  0  0  2  0  0  0  0  0  0
  191.6060  177.8000  144.4070 C   0  0  0  0  0  0  0  0  0  0  0  0
  191.4760  179.2820  144.3430 C   0  0  0  0  0  1  0  0  0  0  0  0
  191.6770  177.2430  145.4910 O   0  0  0  0  0  0  0  0  0  0  0  0
  186.7980  178.2470  137.3960 C   0  0  0  0  0  1  0  0  0  0  0  0
  188.0760  177.9000  138.1350 C   0  0  0  0  0  2  0  0  0  0  0  0
  1 22  2  0  0  0  0
  1 10  1  0  0  0  0
  2  3  1  0  0  0  0
  4  5  2  0  0  0  0
  4 22  1  0  0  0  0
  5 23  1  0  0  0  0
  6 19  1  0  0  0  0
  6 14  1  0  0  0  0
  7 10  1  0  0  0  0
  8 21  2  0  0  0  0
  9  2  2  0  0  0  0
 10 11  2  0  0  0  0
 11 17  1  0  0  0  0
 11  9  1  0  0  0  0
 12 18  1  0  0  0  0
 12 17  2  0  0  0  0
 13  8  1  0  0  0  0
 14 25  1  6  0  0  0
 14  7  1  0  0  0  0
 15  5  1  0  0  0  0
 15 13  1  0  0  0  0
 16  3  2  0  0  0  0
 17 16  1  0  0  0  0
 19  1  1  0  0  0  0
 20  4  1  0  0  0  0
 22 12  1  0  0  0  0
 23  8  1  0  0  0  0
 23 18  2  0  0  0  0
 24 26  1  0  0  0  0
 25 24  2  0  0  0  0
 26 27  1  0  0  0  0
 27 28  1  0  0  0  0
 28 30  2  0  0  0  0
 29 28  1  0  0  0  0
 31 32  1  0  0  0  0
 32  6  1  0  0  0  0
M  END
>  <MODEL>
6

>  <REMARK>
 VINA RESULT:      -9.5      1.680      2.209
  Name = 
  5 active torsions:
  status: ('A' for Active; 'I' for Inactive)
    1  A    between atoms: C_1  and  C_10
    2  A    between atoms: N_2  and  C_24
    3  A    between atoms: N_8  and  C_23
    4  A    between atoms: C_10  and  C_24
    5  A    between atoms: C_12  and  C_21
                            x       y       z     vdW  Elec       q    Type
                         _______ _______ _______ _____ _____    ______ ____

>  <TORSDO>
F 5

$$$$
=
 OpenBabel11052416533D

 32 36  0  0  1  0  0  0  0  0999 V2000
  186.4850  178.2650  142.7460 C   0  0  0  0  0  0  0  0  0  0  0  0
  190.4680  177.4290  140.0840 C   0  0  0  0  0  3  0  0  0  0  0  0
  191.2100  177.2060  141.2440 C   0  0  0  0  0  3  0  0  0  0  0  0
  186.5970  178.1400  145.2350 C   0  0  0  0  0  0  0  0  0  0  0  0
  187.3650  177.9170  146.3800 C   0  0  0  0  0  0  0  0  0  0  0  0
  184.3490  178.1900  141.5360 N   0  0  0  0  0  0  0  0  0  0  0  0
  186.3880  178.3710  140.3300 O   0  0  0  0  0  0  0  0  0  0  0  0
  189.3370  177.4090  147.5010 C   0  0  0  0  0  0  0  0  0  0  0  0
  189.1130  177.7490  140.1740 C   0  0  0  0  0  3  0  0  0  0  0  0
  187.1270  178.1700  141.5020 C   0  0  0  0  0  0  0  0  0  0  0  0
  188.4850  177.8490  141.4240 C   0  0  0  0  0  0  0  0  0  0  0  0
  188.6010  177.7220  143.8630 C   0  0  0  0  0  0  0  0  0  0  0  0
  188.1480  177.6440  148.6430 S   0  0  0  0  0  0  0  0  0  0  0  0
  185.0130  178.7590  140.3540 C   0  0  1  0  0  3  0  0  0  0  0  0
  186.8570  177.9870  147.6420 N   0  0  0  0  0  2  0  0  0  0  0  0
  190.5970  177.3030  142.4950 C   0  0  0  0  0  3  0  0  0  0  0  0
  189.2300  177.6240  142.6040 C   0  0  0  0  0  0  0  0  0  0  0  0
  189.3480  177.5010  145.0360 C   0  0  0  0  0  3  0  0  0  0  0  0
  185.0420  178.6900  142.7250 C   0  0  0  0  0  2  0  0  0  0  0  0
  185.2480  178.4420  145.3920 O   0  0  0  0  0  1  0  0  0  0  0  0
  190.5430  177.1170  147.7190 O   0  0  0  0  0  0  0  0  0  0  0  0
  187.2080  178.0490  143.9490 C   0  0  0  0  0  0  0  0  0  0  0  0
  188.7310  177.6000  146.2740 C   0  0  0  0  0  0  0  0  0  0  0  0
  185.0490  177.8830  138.0570 N   0  0  0  0  0  0  0  0  0  0  0  0
  184.3700  178.2730  139.0820 C   0  0  0  0  0  3  0  0  0  0  0  0
  186.4900  177.8630  138.0350 C   0  0  0  0  0  2  0  0  0  0  0  0
  186.9870  178.6040  136.8100 C   0  0  0  0  0  2  0  0  0  0  0  0
  188.4720  178.7450  136.8590 C   0  0  0  0  0  0  0  0  0  0  0  0
  189.3370  177.6420  136.3560 C   0  0  0  0  0  1  0  0  0  0  0  0
  188.9810  179.7500  137.3290 O   0  0  0  0  0  0  0  0  0  0  0  0
  182.6130  178.9290  143.0730 C   0  0  0  0  0  1  0  0  0  0  0  0
  182.9970  178.7300  141.6200 C   0  0  0  0  0  2  0  0  0  0  0  0
  1 22  1  0  0  0  0
  2  9  2  0  0  0  0
  2  3  1  0  0  0  0
  3 16  2  0  0  0  0
  4 20  1  0  0  0  0
  4  5  1  0  0  0  0
  5 15  1  0  0  0  0
  6 32  1  0  0  0  0
  6 19  1  0  0  0  0
  7 14  1  0  0  0  0
  7 10  1  0  0  0  0
  8 21  2  0  0  0  0
  8 13  1  0  0  0  0
  9 11  1  0  0  0  0
 10  1  2  0  0  0  0
 11 10  1  0  0  0  0
 11 17  2  0  0  0  0
 12 22  1  0  0  0  0
 12 18  2  0  0  0  0
 14 25  1  6  0  0  0
 14  6  1  0  0  0  0
 15 13  1  0  0  0  0
 16 17  1  0  0  0  0
 17 12  1  0  0  0  0
 18 23  1  0  0  0  0
 19  1  1  0  0  0  0
 22  4  2  0  0  0  0
 23  5  2  0  0  0  0
 23  8  1  0  0  0  0
 24 25  2  0  0  0  0
 26 24  1  0  0  0  0
 27 28  1  0  0  0  0
 27 26  1  0  0  0  0
 28 30  2  0  0  0  0
 29 28  1  0  0  0  0
 32 31  1  0  0  0  0
M  END
>  <MODEL>
7

>  <REMARK>
 VINA RESULT:      -9.3      3.072      7.563
  Name = 
  5 active torsions:
  status: ('A' for Active; 'I' for Inactive)
    1  A    between atoms: C_1  and  C_10
    2  A    between atoms: N_2  and  C_24
    3  A    between atoms: N_8  and  C_23
    4  A    between atoms: C_10  and  C_24
    5  A    between atoms: C_12  and  C_21
                            x       y       z     vdW  Elec       q    Type
                         _______ _______ _______ _____ _____    ______ ____

>  <TORSDO>
F 5

$$$$
=
 OpenBabel11052416533D

 32 36  0  0  1  0  0  0  0  0999 V2000
  188.3160  177.7800  140.1710 C   0  0  0  0  0  0  0  0  0  0  0  0
  190.4670  178.0420  144.5250 C   0  0  0  0  0  3  0  0  0  0  0  0
  191.6800  177.6480  143.9620 C   0  0  0  0  0  3  0  0  0  0  0  0
  189.6350  177.0990  138.1650 C   0  0  0  0  0  0  0  0  0  0  0  0
  190.8610  176.7020  137.6290 C   0  0  0  0  0  0  0  0  0  0  0  0
  186.1440  178.9090  139.9760 N   0  0  0  0  0  0  0  0  0  0  0  0
  187.0520  178.4510  142.1230 O   0  0  0  0  0  0  0  0  0  0  0  0
  193.1220  176.1740  137.7610 C   0  0  0  0  0  0  0  0  0  0  0  0
  189.3330  178.1690  143.7210 C   0  0  0  0  0  3  0  0  0  0  0  0
  188.2600  178.0350  141.5500 C   0  0  0  0  0  0  0  0  0  0  0  0
  189.4010  177.9040  142.3460 C   0  0  0  0  0  0  0  0  0  0  0  0
  190.7000  177.2390  140.3830 C   0  0  0  0  0  0  0  0  0  0  0  0
  192.6510  176.0040  136.1730 S   0  0  0  0  0  0  0  0  0  0  0  0
  185.8430  178.5430  141.3680 C   0  0  1  0  0  3  0  0  0  0  0  0
  191.0410  176.4210  136.3080 N   0  0  0  0  0  2  0  0  0  0  0  0
  191.7610  177.3810  142.5940 C   0  0  0  0  0  3  0  0  0  0  0  0
  190.6280  177.5050  141.7670 C   0  0  0  0  0  0  0  0  0  0  0  0
  191.9230  176.8380  139.8120 C   0  0  0  0  0  3  0  0  0  0  0  0
  187.0180  177.8750  139.4170 C   0  0  0  0  0  2  0  0  0  0  0  0
  188.5460  177.2200  137.3080 O   0  0  0  0  0  1  0  0  0  0  0  0
  194.2740  175.9780  138.2300 O   0  0  0  0  0  0  0  0  0  0  0  0
  189.5340  177.3730  139.5620 C   0  0  0  0  0  0  0  0  0  0  0  0
  191.9950  176.5740  138.4530 C   0  0  0  0  0  0  0  0  0  0  0  0
  184.5170  179.4530  143.2270 N   0  0  0  0  0  0  0  0  0  0  0  0
  184.9630  179.5740  142.0240 C   0  0  0  0  0  3  0  0  0  0  0  0
  184.8290  178.3240  144.0670 C   0  0  0  0  0  2  0  0  0  0  0  0
  184.4210  178.6270  145.4950 C   0  0  0  0  0  2  0  0  0  0  0  0
  185.6180  178.6240  146.3870 C   0  0  0  0  0  0  0  0  0  0  0  0
  186.7360  177.6770  146.1220 C   0  0  0  0  0  1  0  0  0  0  0  0
  185.6750  179.3790  147.3450 O   0  0  0  0  0  0  0  0  0  0  0  0
  185.1250  177.9530  137.9840 C   0  0  0  0  0  1  0  0  0  0  0  0
  184.9140  178.8400  139.1960 C   0  0  0  0  0  2  0  0  0  0  0  0
  1 10  1  0  0  0  0
  3  2  1  0  0  0  0
  4 22  1  0  0  0  0
  5  4  2  0  0  0  0
  5 23  1  0  0  0  0
  6 14  1  0  0  0  0
  8 21  2  0  0  0  0
  8 23  1  0  0  0  0
  9  2  2  0  0  0  0
 10  7  1  0  0  0  0
 10 11  2  0  0  0  0
 11  9  1  0  0  0  0
 12 17  2  0  0  0  0
 13 15  1  0  0  0  0
 13  8  1  0  0  0  0
 14 25  1  1  0  0  0
 14  7  1  0  0  0  0
 15  5  1  0  0  0  0
 16  3  2  0  0  0  0
 17 11  1  0  0  0  0
 17 16  1  0  0  0  0
 18 12  1  0  0  0  0
 19  6  1  0  0  0  0
 19  1  1  0  0  0  0
 20  4  1  0  0  0  0
 22  1  2  0  0  0  0
 22 12  1  0  0  0  0
 23 18  2  0  0  0  0
 24 26  1  0  0  0  0
 25 24  2  0  0  0  0
 26 27  1  0  0  0  0
 27 28  1  0  0  0  0
 28 30  2  0  0  0  0
 29 28  1  0  0  0  0
 31 32  1  0  0  0  0
 32  6  1  0  0  0  0
M  END
>  <MODEL>
8

>  <REMARK>
 VINA RESULT:      -9.1      3.493      6.961
  Name = 
  5 active torsions:
  status: ('A' for Active; 'I' for Inactive)
    1  A    between atoms: C_1  and  C_10
    2  A    between atoms: N_2  and  C_24
    3  A    between atoms: N_8  and  C_23
    4  A    between atoms: C_10  and  C_24
    5  A    between atoms: C_12  and  C_21
                            x       y       z     vdW  Elec       q    Type
                         _______ _______ _______ _____ _____    ______ ____

>  <TORSDO>
F 5

$$$$
=
 OpenBabel11052416533D

 32 36  0  0  1  0  0  0  0  0999 V2000
  184.9590  178.5460  141.0750 C   0  0  0  0  0  0  0  0  0  0  0  0
  184.2080  178.5470  145.8800 C   0  0  0  0  0  3  0  0  0  0  0  0
  185.5630  178.3020  146.1030 C   0  0  0  0  0  3  0  0  0  0  0  0
  187.2530  178.1630  140.1690 C   0  0  0  0  0  0  0  0  0  0  0  0
  188.6030  177.9120  140.4210 C   0  0  0  0  0  0  0  0  0  0  0  0
  183.1680  179.5220  139.7070 N   0  0  0  0  0  0  0  0  0  0  0  0
  182.7420  178.9280  141.9670 O   0  0  0  0  0  0  0  0  0  0  0  0
  190.4310  177.5460  141.8100 C   0  0  0  0  0  0  0  0  0  0  0  0
  183.7260  178.6660  144.5750 C   0  0  0  0  0  3  0  0  0  0  0  0
  184.1000  178.6610  142.1780 C   0  0  0  0  0  0  0  0  0  0  0  0
  184.5940  178.5410  143.4810 C   0  0  0  0  0  0  0  0  0  0  0  0
  186.8440  178.1670  142.5990 C   0  0  0  0  0  0  0  0  0  0  0  0
  190.9690  177.4950  140.2350 S   0  0  0  0  0  0  0  0  0  0  0  0
  182.1750  179.0010  140.6590 C   0  0  1  0  0  3  0  0  0  0  0  0
  189.5320  177.7750  139.4350 N   0  0  0  0  0  2  0  0  0  0  0  0
  186.4370  178.1750  145.0210 C   0  0  0  0  0  3  0  0  0  0  0  0
  185.9680  178.2920  143.6980 C   0  0  0  0  0  0  0  0  0  0  0  0
  188.2110  177.9170  142.8210 C   0  0  0  0  0  3  0  0  0  0  0  0
  184.3180  178.6150  139.7160 C   0  0  0  0  0  2  0  0  0  0  0  0
  186.8380  178.2840  138.8470 O   0  0  0  0  0  1  0  0  0  0  0  0
  191.1270  177.3930  142.8490 O   0  0  0  0  0  0  0  0  0  0  0  0
  186.3440  178.2920  141.2620 C   0  0  0  0  0  0  0  0  0  0  0  0
  189.0730  177.7910  141.7420 C   0  0  0  0  0  0  0  0  0  0  0  0
  179.8200  179.4950  141.1610 N   0  0  0  0  0  0  0  0  0  0  0  0
  180.9650  179.8950  140.7250 C   0  0  0  0  0  3  0  0  0  0  0  0
  179.5900  178.1550  141.6390 C   0  0  0  0  0  2  0  0  0  0  0  0
  179.0000  177.3130  140.5250 C   0  0  0  0  0  2  0  0  0  0  0  0
  179.4810  175.9040  140.6310 C   0  0  0  0  0  0  0  0  0  0  0  0
  180.6130  175.4430  139.7810 C   0  0  0  0  0  1  0  0  0  0  0  0
  178.9370  175.1230  141.3950 O   0  0  0  0  0  0  0  0  0  0  0  0
  182.7600  178.0200  137.8360 C   0  0  0  0  0  1  0  0  0  0  0  0
  182.6170  179.4360  138.3600 C   0  0  0  0  0  2  0  0  0  0  0  0
  1 22  2  0  0  0  0
  1 10  1  0  0  0  0
  2  3  1  0  0  0  0
  4  5  2  0  0  0  0
  4 22  1  0  0  0  0
  5 23  1  0  0  0  0
  6 19  1  0  0  0  0
  6 14  1  0  0  0  0
  7 10  1  0  0  0  0
  8 21  2  0  0  0  0
  9  2  2  0  0  0  0
 10 11  2  0  0  0  0
 11 17  1  0  0  0  0
 11  9  1  0  0  0  0
 12 18  1  0  0  0  0
 12 17  2  0  0  0  0
 13  8  1  0  0  0  0
 14 25  1  1  0  0  0
 14  7  1  0  0  0  0
 15 13  1  0  0  0  0
 15  5  1  0  0  0  0
 16  3  2  0  0  0  0
 17 16  1  0  0  0  0
 19  1  1  0  0  0  0
 20  4  1  0  0  0  0
 22 12  1  0  0  0  0
 23  8  1  0  0  0  0
 23 18  2  0  0  0  0
 24 26  1  0  0  0  0
 25 24  2  0  0  0  0
 27 28  1  0  0  0  0
 27 26  1  0  0  0  0
 28 30  2  0  0  0  0
 29 28  1  0  0  0  0
 31 32  1  0  0  0  0
 32  6  1  0  0  0  0
M  END
>  <MODEL>
9

>  <REMARK>
 VINA RESULT:      -8.9      2.940      7.748
  Name = 
  5 active torsions:
  status: ('A' for Active; 'I' for Inactive)
    1  A    between atoms: C_1  and  C_10
    2  A    between atoms: N_2  and  C_24
    3  A    between atoms: N_8  and  C_23
    4  A    between atoms: C_10  and  C_24
    5  A    between atoms: C_12  and  C_21
                            x       y       z     vdW  Elec       q    Type
                         _______ _______ _______ _____ _____    ______ ____

>  <TORSDO>
F 5

$$$$
