=
 OpenBabel11052413133D

 31 35  0  0  1  0  0  0  0  0999 V2000
  186.5620  178.1150  146.9980 C   0  0  0  0  0  0  0  0  0  0  0  0
  188.0550  178.2930  143.5420 C   0  0  2  0  0  3  0  0  0  0  0  0
  189.3970  177.5860  143.7670 C   0  0  2  0  0  3  0  0  0  0  0  0
  191.6150  177.7520  145.0820 C   0  0  0  0  0  2  0  0  0  0  0  0
  187.0670  178.2450  144.6810 C   0  0  0  0  0  0  0  0  0  0  0  0
  185.2170  178.4010  146.7440 C   0  0  0  0  0  3  0  0  0  0  0  0
  190.2050  178.3070  144.8550 C   0  0  0  0  0  2  0  0  0  0  0  0
  186.0850  178.4410  142.0190 C   0  0  0  0  0  0  0  0  0  0  0  0
  187.0030  177.9020  148.3330 N   0  0  0  0  0  1  0  0  0  0  0  0
  189.3320  176.9460  141.4190 O   0  0  0  0  0  0  0  0  0  0  0  0
  191.6950  176.2240  144.9860 C   0  0  0  0  0  2  0  0  0  0  0  0
  185.3090  178.7420  143.0250 N   0  0  0  0  0  0  0  0  0  0  0  0
  187.3910  177.7330  142.2830 C   0  0  1  0  0  3  0  0  0  0  0  0
  185.6340  178.6300  140.6750 N   0  0  0  0  0  2  0  0  0  0  0  0
  187.4540  178.0560  145.9730 N   0  0  0  0  0  0  0  0  0  0  0  0
  191.5050  175.6640  143.5650 C   0  0  0  0  0  2  0  0  0  0  0  0
  185.7210  178.5380  144.3880 C   0  0  0  0  0  0  0  0  0  0  0  0
  184.7980  178.6160  145.4300 C   0  0  0  0  0  3  0  0  0  0  0  0
  188.3360  177.8450  141.1760 N   0  0  0  0  0  2  0  0  0  0  0  0
  190.1570  177.5160  142.4120 C   0  0  2  0  0  3  0  0  0  0  0  0
  191.4810  176.7400  142.4740 C   0  0  0  0  0  2  0  0  0  0  0  0
  184.5090  180.0490  139.1960 O   0  0  0  0  0  1  0  0  0  0  0  0
  184.3680  179.2730  140.3500 C   0  0  1  0  0  3  0  0  0  0  0  0
  180.6900  178.8190  138.7890 C   0  0  1  0  0  3  0  0  0  0  0  0
  182.9900  177.8900  138.7020 C   0  0  0  0  0  2  0  0  0  0  0  0
  182.0250  178.6040  142.1830 O   0  0  0  0  0  0  0  0  0  0  0  0
  179.7380  179.8470  138.2160 C   0  0  0  0  0  1  0  0  0  0  0  0
  182.0290  178.8920  138.0700 C   0  0  0  0  0  2  0  0  0  0  0  0
  182.0230  178.6080  140.9240 C   0  0  0  0  0  0  0  0  0  0  0  0
  183.2700  178.2190  140.1770 C   0  0  2  0  0  3  0  0  0  0  0  0
  180.8570  179.0470  140.2200 N   0  0  0  0  0  2  0  0  0  0  0  0
  1  9  1  0  0  0  0
  2  3  1  0  0  0  0
  2  5  1  1  0  0  0
  3  7  1  1  0  0  0
  5 15  1  0  0  0  0
  6  1  1  0  0  0  0
  7  4  1  0  0  0  0
  8 13  1  0  0  0  0
  8 12  2  0  0  0  0
 10 20  1  0  0  0  0
 11  4  1  0  0  0  0
 12 17  1  0  0  0  0
 13 19  1  6  0  0  0
 13  2  1  0  0  0  0
 14  8  1  0  0  0  0
 15  1  2  0  0  0  0
 16 11  1  0  0  0  0
 17  5  2  0  0  0  0
 17 18  1  0  0  0  0
 18  6  2  0  0  0  0
 19 10  1  0  0  0  0
 20 21  1  1  0  0  0
 20  3  1  0  0  0  0
 21 16  1  0  0  0  0
 23 22  1  6  0  0  0
 23 14  1  0  0  0  0
 24 27  1  6  0  0  0
 24 31  1  0  0  0  0
 25 30  1  0  0  0  0
 28 25  1  0  0  0  0
 28 24  1  0  0  0  0
 29 26  2  0  0  0  0
 30 23  1  6  0  0  0
 30 29  1  0  0  0  0
 31 29  1  0  0  0  0
M  END
>  <MODEL>
1

>  <REMARK>
 VINA RESULT:      -9.4      0.000      0.000
  Name = 
  2 active torsions:
  status: ('A' for Active; 'I' for Inactive)
    1  A    between atoms: C_9  and  C_22
    2  A    between atoms: C_9  and  N_23
                            x       y       z     vdW  Elec       q    Type
                         _______ _______ _______ _____ _____    ______ ____

>  <TORSDO>
F 2

$$$$
=
 OpenBabel11052413133D

 31 35  0  0  1  0  0  0  0  0999 V2000
  190.4560  176.8000  146.0750 C   0  0  0  0  0  0  0  0  0  0  0  0
  188.1590  177.1160  143.1040 C   0  0  2  0  0  3  0  0  0  0  0  0
  187.0230  177.9550  143.7010 C   0  0  2  0  0  3  0  0  0  0  0  0
  185.1900  177.9400  145.5210 C   0  0  0  0  0  2  0  0  0  0  0  0
  189.3910  176.9410  143.9570 C   0  0  0  0  0  0  0  0  0  0  0  0
  191.6450  176.3780  145.4740 C   0  0  0  0  0  3  0  0  0  0  0  0
  186.4110  177.2420  144.9140 C   0  0  0  0  0  2  0  0  0  0  0  0
  189.6600  176.8700  141.1270 C   0  0  0  0  0  0  0  0  0  0  0  0
  190.3870  176.9430  147.4880 N   0  0  0  0  0  1  0  0  0  0  0  0
  186.6050  178.7920  141.4530 O   0  0  0  0  0  0  0  0  0  0  0  0
  185.3020  179.4690  145.5370 C   0  0  0  0  0  2  0  0  0  0  0  0
  190.6070  176.3880  141.8850 N   0  0  0  0  0  0  0  0  0  0  0  0
  188.5680  177.7030  141.7520 C   0  0  1  0  0  3  0  0  0  0  0  0
  189.7400  176.7500  139.7040 N   0  0  0  0  0  2  0  0  0  0  0  0
  189.3580  177.0580  145.3130 N   0  0  0  0  0  0  0  0  0  0  0  0
  185.2170  180.1270  144.1490 C   0  0  0  0  0  2  0  0  0  0  0  0
  190.5710  176.5170  143.3180 C   0  0  0  0  0  0  0  0  0  0  0  0
  191.6990  176.2340  144.0860 C   0  0  0  0  0  3  0  0  0  0  0  0
  187.3770  177.8060  140.9150 N   0  0  0  0  0  2  0  0  0  0  0  0
  185.9750  178.2380  142.5880 C   0  0  2  0  0  3  0  0  0  0  0  0
  184.8260  179.1600  143.0260 C   0  0  0  0  0  2  0  0  0  0  0  0
  190.2230  174.9430  138.3000 O   0  0  0  0  0  1  0  0  0  0  0  0
  190.7880  175.9910  139.0330 C   0  0  1  0  0  3  0  0  0  0  0  0
  193.5170  175.8570  136.0830 C   0  0  1  0  0  3  0  0  0  0  0  0
  191.2710  176.7530  136.6420 C   0  0  0  0  0  2  0  0  0  0  0  0
  193.5640  177.1640  139.4930 O   0  0  0  0  0  0  0  0  0  0  0  0
  194.2840  174.6810  135.5150 C   0  0  0  0  0  1  0  0  0  0  0  0
  192.0210  175.5830  136.0120 C   0  0  0  0  0  2  0  0  0  0  0  0
  193.0850  176.7600  138.4010 C   0  0  0  0  0  0  0  0  0  0  0  0
  191.6130  176.9140  138.1320 C   0  0  2  0  0  3  0  0  0  0  0  0
  193.9350  176.0980  137.4590 N   0  0  0  0  0  2  0  0  0  0  0  0
  1  9  1  0  0  0  0
  2  3  1  0  0  0  0
  2  5  1  1  0  0  0
  3  7  1  1  0  0  0
  4 11  1  0  0  0  0
  5 15  1  0  0  0  0
  6  1  1  0  0  0  0
  7  4  1  0  0  0  0
  8 13  1  0  0  0  0
  8 12  2  0  0  0  0
 10 20  1  0  0  0  0
 12 17  1  0  0  0  0
 13 19  1  6  0  0  0
 13  2  1  0  0  0  0
 14  8  1  0  0  0  0
 15  1  2  0  0  0  0
 16 11  1  0  0  0  0
 17  5  2  0  0  0  0
 17 18  1  0  0  0  0
 18  6  2  0  0  0  0
 19 10  1  0  0  0  0
 20 21  1  1  0  0  0
 20  3  1  0  0  0  0
 21 16  1  0  0  0  0
 23 22  1  6  0  0  0
 23 14  1  0  0  0  0
 24 27  1  1  0  0  0
 24 31  1  0  0  0  0
 25 30  1  0  0  0  0
 28 24  1  0  0  0  0
 28 25  1  0  0  0  0
 29 26  2  0  0  0  0
 30 29  1  0  0  0  0
 30 23  1  1  0  0  0
 31 29  1  0  0  0  0
M  END
>  <MODEL>
2

>  <REMARK>
 VINA RESULT:      -9.4      3.516      7.557
  Name = 
  2 active torsions:
  status: ('A' for Active; 'I' for Inactive)
    1  A    between atoms: C_9  and  C_22
    2  A    between atoms: C_9  and  N_23
                            x       y       z     vdW  Elec       q    Type
                         _______ _______ _______ _____ _____    ______ ____

>  <TORSDO>
F 2

$$$$
=
 OpenBabel11052413133D

 31 35  0  0  1  0  0  0  0  0999 V2000
  185.2390  178.3560  144.7630 C   0  0  0  0  0  0  0  0  0  0  0  0
  188.8370  177.9100  143.7330 C   0  0  2  0  0  3  0  0  0  0  0  0
  189.4500  177.3810  145.0340 C   0  0  2  0  0  3  0  0  0  0  0  0
  189.9000  178.0050  147.5010 C   0  0  0  0  0  2  0  0  0  0  0  0
  187.3340  178.0270  143.6920 C   0  0  0  0  0  0  0  0  0  0  0  0
  184.5990  178.4690  143.5260 C   0  0  0  0  0  3  0  0  0  0  0  0
  189.2270  178.3810  146.1770 C   0  0  0  0  0  2  0  0  0  0  0  0
  188.7390  177.5670  141.2640 C   0  0  0  0  0  0  0  0  0  0  0  0
  184.4870  178.4700  145.9650 N   0  0  0  0  0  1  0  0  0  0  0  0
  191.1140  176.2490  143.6650 O   0  0  0  0  0  0  0  0  0  0  0  0
  189.8510  176.5040  147.8080 C   0  0  0  0  0  2  0  0  0  0  0  0
  187.5130  178.0110  141.2340 N   0  0  0  0  0  0  0  0  0  0  0  0
  189.3010  177.0410  142.5630 C   0  0  1  0  0  3  0  0  0  0  0  0
  189.4890  177.4260  140.0540 N   0  0  0  0  0  2  0  0  0  0  0  0
  186.5830  178.1520  144.8220 N   0  0  0  0  0  0  0  0  0  0  0  0
  190.7430  175.6390  146.8990 C   0  0  0  0  0  2  0  0  0  0  0  0
  186.7230  178.1390  142.4290 C   0  0  0  0  0  0  0  0  0  0  0  0
  185.3480  178.3630  142.3530 C   0  0  0  0  0  3  0  0  0  0  0  0
  190.7590  176.9900  142.5770 N   0  0  0  0  0  2  0  0  0  0  0  0
  190.9570  177.0840  144.7910 C   0  0  2  0  0  3  0  0  0  0  0  0
  191.6750  176.4500  145.9920 C   0  0  0  0  0  2  0  0  0  0  0  0
  189.0030  179.2750  138.7080 O   0  0  0  0  0  1  0  0  0  0  0  0
  188.9930  177.8790  138.7610 C   0  0  1  0  0  3  0  0  0  0  0  0
  189.4930  174.4490  136.7210 C   0  0  1  0  0  3  0  0  0  0  0  0
  188.9930  176.8610  136.4170 C   0  0  0  0  0  2  0  0  0  0  0  0
  191.6590  176.4070  138.9160 O   0  0  0  0  0  0  0  0  0  0  0  0
  188.9040  173.0750  136.9620 C   0  0  0  0  0  1  0  0  0  0  0  0
  188.3770  175.4780  136.6000 C   0  0  0  0  0  2  0  0  0  0  0  0
  190.6990  176.1530  138.1420 C   0  0  0  0  0  0  0  0  0  0  0  0
  189.8360  177.2770  137.6330 C   0  0  2  0  0  3  0  0  0  0  0  0
  190.3990  174.7940  137.8110 N   0  0  0  0  0  2  0  0  0  0  0  0
  1 15  1  0  0  0  0
  1  9  1  0  0  0  0
  2  5  1  1  0  0  0
  2  3  1  0  0  0  0
  3  7  1  1  0  0  0
  4 11  1  0  0  0  0
  5 15  2  0  0  0  0
  6  1  2  0  0  0  0
  7  4  1  0  0  0  0
 10 20  1  0  0  0  0
 12  8  2  0  0  0  0
 12 17  1  0  0  0  0
 13  8  1  6  0  0  0
 13 19  1  0  0  0  0
 13  2  1  0  0  0  0
 14  8  1  0  0  0  0
 16 11  1  0  0  0  0
 17  5  1  0  0  0  0
 18 17  2  0  0  0  0
 18  6  1  0  0  0  0
 19 10  1  0  0  0  0
 20  3  1  0  0  0  0
 20 21  1  1  0  0  0
 21 16  1  0  0  0  0
 23 22  1  1  0  0  0
 23 14  1  0  0  0  0
 24 27  1  1  0  0  0
 24 31  1  0  0  0  0
 25 28  1  0  0  0  0
 25 30  1  0  0  0  0
 28 24  1  0  0  0  0
 29 26  2  0  0  0  0
 30 29  1  0  0  0  0
 30 23  1  1  0  0  0
 31 29  1  0  0  0  0
M  END
>  <MODEL>
3

>  <REMARK>
 VINA RESULT:      -9.1      3.372      5.381
  Name = 
  2 active torsions:
  status: ('A' for Active; 'I' for Inactive)
    1  A    between atoms: C_9  and  C_22
    2  A    between atoms: C_9  and  N_23
                            x       y       z     vdW  Elec       q    Type
                         _______ _______ _______ _____ _____    ______ ____

>  <TORSDO>
F 2

$$$$
=
 OpenBabel11052413133D

 31 35  0  0  1  0  0  0  0  0999 V2000
  185.4990  178.4100  143.8790 C   0  0  0  0  0  0  0  0  0  0  0  0
  188.5620  178.2860  141.6870 C   0  0  2  0  0  3  0  0  0  0  0  0
  189.5910  177.6910  142.6560 C   0  0  2  0  0  3  0  0  0  0  0  0
  190.8140  178.1360  144.8880 C   0  0  0  0  0  2  0  0  0  0  0  0
  187.1280  178.3080  142.1530 C   0  0  0  0  0  0  0  0  0  0  0  0
  184.4800  178.5840  142.9370 C   0  0  0  0  0  3  0  0  0  0  0  0
  189.7270  178.5770  143.9020 C   0  0  0  0  0  2  0  0  0  0  0  0
  187.6620  178.1430  139.3650 C   0  0  0  0  0  0  0  0  0  0  0  0
  185.1860  178.3750  145.2660 N   0  0  0  0  0  1  0  0  0  0  0  0
  190.7420  176.7880  140.7110 O   0  0  0  0  0  0  0  0  0  0  0  0
  190.9210  176.6150  145.0430 C   0  0  0  0  0  2  0  0  0  0  0  0
  186.4800  178.5080  139.7830 N   0  0  0  0  0  0  0  0  0  0  0  0
  188.6400  177.5490  140.3490 C   0  0  1  0  0  3  0  0  0  0  0  0
  187.9700  178.1520  137.9690 N   0  0  0  0  0  2  0  0  0  0  0  0
  186.7920  178.2890  143.4730 N   0  0  0  0  0  0  0  0  0  0  0  0
  191.4880  175.8890  143.8100 C   0  0  0  0  0  2  0  0  0  0  0  0
  186.1290  178.4840  141.1780 C   0  0  0  0  0  0  0  0  0  0  0  0
  184.8000  178.6240  141.5790 C   0  0  0  0  0  3  0  0  0  0  0  0
  190.0210  177.5920  139.8790 N   0  0  0  0  0  2  0  0  0  0  0  0
  190.9400  177.5140  141.9040 C   0  0  2  0  0  3  0  0  0  0  0  0
  192.0380  176.8310  142.7330 C   0  0  0  0  0  2  0  0  0  0  0  0
  187.4590  179.9600  136.5750 O   0  0  0  0  0  1  0  0  0  0  0  0
  187.0580  178.6770  136.9610 C   0  0  1  0  0  3  0  0  0  0  0  0
  186.9390  174.7570  136.0720 C   0  0  1  0  0  3  0  0  0  0  0  0
  185.7140  176.8880  135.7280 C   0  0  0  0  0  2  0  0  0  0  0  0
  189.3400  177.4210  135.3770 O   0  0  0  0  0  0  0  0  0  0  0  0
  187.1090  173.5480  136.9660 C   0  0  0  0  0  1  0  0  0  0  0  0
  185.8280  175.6480  136.6090 C   0  0  0  0  0  2  0  0  0  0  0  0
  188.2410  176.8850  135.6730 C   0  0  0  0  0  0  0  0  0  0  0  0
  186.9990  177.7310  135.7590 C   0  0  2  0  0  3  0  0  0  0  0  0
  188.1980  175.4910  135.9920 N   0  0  0  0  0  2  0  0  0  0  0  0
  1  9  1  0  0  0  0
  2  5  1  1  0  0  0
  2  3  1  0  0  0  0
  3  7  1  1  0  0  0
  4 11  1  0  0  0  0
  5 15  2  0  0  0  0
  6  1  2  0  0  0  0
  7  4  1  0  0  0  0
  8 12  2  0  0  0  0
 10 20  1  0  0  0  0
 12 17  1  0  0  0  0
 13  8  1  6  0  0  0
 13  2  1  0  0  0  0
 14  8  1  0  0  0  0
 15  1  1  0  0  0  0
 16 11  1  0  0  0  0
 17 18  2  0  0  0  0
 17  5  1  0  0  0  0
 18  6  1  0  0  0  0
 19 13  1  0  0  0  0
 19 10  1  0  0  0  0
 20  3  1  0  0  0  0
 20 21  1  1  0  0  0
 21 16  1  0  0  0  0
 23 22  1  6  0  0  0
 23 14  1  0  0  0  0
 24 28  1  0  0  0  0
 24 27  1  1  0  0  0
 25 30  1  0  0  0  0
 25 28  1  0  0  0  0
 26 29  2  0  0  0  0
 29 30  1  0  0  0  0
 29 31  1  0  0  0  0
 30 23  1  1  0  0  0
 31 24  1  0  0  0  0
M  END
>  <MODEL>
4

>  <REMARK>
 VINA RESULT:      -9.0      3.243      4.613
  Name = 
  2 active torsions:
  status: ('A' for Active; 'I' for Inactive)
    1  A    between atoms: C_9  and  C_22
    2  A    between atoms: C_9  and  N_23
                            x       y       z     vdW  Elec       q    Type
                         _______ _______ _______ _____ _____    ______ ____

>  <TORSDO>
F 2

$$$$
=
 OpenBabel11052413133D

 31 35  0  0  1  0  0  0  0  0999 V2000
  189.8720  177.6670  141.9580 C   0  0  0  0  0  0  0  0  0  0  0  0
  186.2290  178.0670  142.8390 C   0  0  2  0  0  3  0  0  0  0  0  0
  186.3110  178.1990  144.3640 C   0  0  2  0  0  3  0  0  0  0  0  0
  187.0200  176.9380  146.5050 C   0  0  0  0  0  2  0  0  0  0  0  0
  187.5370  178.0860  142.0880 C   0  0  0  0  0  0  0  0  0  0  0  0
  189.8640  177.9210  140.5830 C   0  0  0  0  0  3  0  0  0  0  0  0
  186.9880  176.9640  144.9730 C   0  0  0  0  0  2  0  0  0  0  0  0
  185.1940  179.0290  140.7840 C   0  0  0  0  0  0  0  0  0  0  0  0
  191.0870  177.3130  142.6070 N   0  0  0  0  0  1  0  0  0  0  0  0
  184.2570  179.5020  144.2530 O   0  0  0  0  0  0  0  0  0  0  0  0
  187.2750  178.3120  147.1360 C   0  0  0  0  0  2  0  0  0  0  0  0
  186.2460  178.7070  140.0820 N   0  0  0  0  0  0  0  0  0  0  0  0
  185.3200  179.1620  142.2810 C   0  0  1  0  0  3  0  0  0  0  0  0
  183.9780  179.4100  140.1330 N   0  0  0  0  0  2  0  0  0  0  0  0
  188.7170  177.7400  142.6740 N   0  0  0  0  0  0  0  0  0  0  0  0
  186.1060  179.3030  146.9940 C   0  0  0  0  0  2  0  0  0  0  0  0
  187.4910  178.3460  140.7060 C   0  0  0  0  0  0  0  0  0  0  0  0
  188.6640  178.2590  139.9550 C   0  0  0  0  0  3  0  0  0  0  0  0
  184.0360  179.0910  142.9720 N   0  0  0  0  0  2  0  0  0  0  0  0
  184.8770  178.4250  144.9220 C   0  0  2  0  0  3  0  0  0  0  0  0
  184.8240  178.6760  146.4370 C   0  0  0  0  0  2  0  0  0  0  0  0
  184.6710  178.3910  138.1450 O   0  0  0  0  0  1  0  0  0  0  0  0
  183.8000  179.3400  138.6880 C   0  0  1  0  0  3  0  0  0  0  0  0
  180.0520  180.1730  139.8810 C   0  0  1  0  0  3  0  0  0  0  0  0
  181.5440  180.2420  137.8990 C   0  0  0  0  0  2  0  0  0  0  0  0
  182.0280  177.1030  139.7620 O   0  0  0  0  0  0  0  0  0  0  0  0
  179.5590  180.9280  141.0980 C   0  0  0  0  0  1  0  0  0  0  0  0
  181.0150  181.0420  139.0850 C   0  0  0  0  0  2  0  0  0  0  0  0
  181.6770  178.2800  139.4870 C   0  0  0  0  0  0  0  0  0  0  0  0
  182.3430  179.0100  138.3520 C   0  0  2  0  0  3  0  0  0  0  0  0
  180.6970  178.9330  140.3000 N   0  0  0  0  0  2  0  0  0  0  0  0
  1  9  1  0  0  0  0
  1 15  1  0  0  0  0
  2  5  1  6  0  0  0
  2  3  1  0  0  0  0
  3 20  1  0  0  0  0
  3  7  1  1  0  0  0
  4 11  1  0  0  0  0
  5 15  2  0  0  0  0
  6  1  2  0  0  0  0
  7  4  1  0  0  0  0
 10 20  1  0  0  0  0
 12 17  1  0  0  0  0
 12  8  2  0  0  0  0
 13  8  1  6  0  0  0
 13  2  1  0  0  0  0
 13 19  1  0  0  0  0
 14  8  1  0  0  0  0
 16 11  1  0  0  0  0
 17  5  1  0  0  0  0
 18  6  1  0  0  0  0
 18 17  2  0  0  0  0
 19 10  1  0  0  0  0
 20 21  1  1  0  0  0
 21 16  1  0  0  0  0
 23 22  1  1  0  0  0
 23 14  1  0  0  0  0
 24 31  1  0  0  0  0
 24 27  1  1  0  0  0
 25 30  1  0  0  0  0
 25 28  1  0  0  0  0
 28 24  1  0  0  0  0
 29 26  2  0  0  0  0
 29 31  1  0  0  0  0
 30 23  1  1  0  0  0
 30 29  1  0  0  0  0
M  END
>  <MODEL>
5

>  <REMARK>
 VINA RESULT:      -8.9      2.347      4.381
  Name = 
  2 active torsions:
  status: ('A' for Active; 'I' for Inactive)
    1  A    between atoms: C_9  and  C_22
    2  A    between atoms: C_9  and  N_23
                            x       y       z     vdW  Elec       q    Type
                         _______ _______ _______ _____ _____    ______ ____

>  <TORSDO>
F 2

$$$$
=
 OpenBabel11052413133D

 31 35  0  0  1  0  0  0  0  0999 V2000
  190.8710  177.2900  144.4430 C   0  0  0  0  0  0  0  0  0  0  0  0
  187.5330  177.6730  142.7370 C   0  0  2  0  0  3  0  0  0  0  0  0
  186.6570  178.1330  143.9080 C   0  0  2  0  0  3  0  0  0  0  0  0
  185.7540  177.4000  146.2150 C   0  0  0  0  0  2  0  0  0  0  0  0
  189.0180  177.6010  142.9900 C   0  0  0  0  0  0  0  0  0  0  0  0
  191.7460  177.2430  143.3530 C   0  0  0  0  0  3  0  0  0  0  0  0
  186.6870  177.0950  145.0380 C   0  0  0  0  0  2  0  0  0  0  0  0
  188.1010  178.1160  140.3490 C   0  0  0  0  0  0  0  0  0  0  0  0
  191.3760  177.1500  145.7650 N   0  0  0  0  0  1  0  0  0  0  0  0
  185.2550  179.2700  142.2750 O   0  0  0  0  0  0  0  0  0  0  0  0
  185.6880  178.8890  146.5750 C   0  0  0  0  0  2  0  0  0  0  0  0
  189.3250  177.7070  140.5470 N   0  0  0  0  0  0  0  0  0  0  0  0
  187.2770  178.5730  141.5270 C   0  0  1  0  0  3  0  0  0  0  0  0
  187.5990  178.2820  139.0200 N   0  0  0  0  0  2  0  0  0  0  0  0
  189.5350  177.4530  144.2410 N   0  0  0  0  0  0  0  0  0  0  0  0
  184.9620  179.7630  145.5370 C   0  0  0  0  0  2  0  0  0  0  0  0
  189.8680  177.5560  141.8700 C   0  0  0  0  0  0  0  0  0  0  0  0
  191.2380  177.3740  142.0590 C   0  0  0  0  0  3  0  0  0  0  0  0
  185.8440  178.5820  141.2550 N   0  0  0  0  0  2  0  0  0  0  0  0
  185.2180  178.3960  143.3820 C   0  0  2  0  0  3  0  0  0  0  0  0
  184.2560  178.9620  144.4380 C   0  0  0  0  0  2  0  0  0  0  0  0
  189.4450  178.7520  137.6640 O   0  0  0  0  0  1  0  0  0  0  0  0
  188.3550  177.8950  137.8360 C   0  0  1  0  0  3  0  0  0  0  0  0
  190.6280  175.1670  135.9470 C   0  0  1  0  0  3  0  0  0  0  0  0
  190.3310  176.3020  138.1350 C   0  0  0  0  0  2  0  0  0  0  0  0
  187.0630  175.3700  136.7170 O   0  0  0  0  0  0  0  0  0  0  0  0
  191.3030  175.2280  134.5930 C   0  0  0  0  0  1  0  0  0  0  0  0
  191.0670  176.3500  136.7990 C   0  0  0  0  0  2  0  0  0  0  0  0
  188.2950  175.6130  136.8050 C   0  0  0  0  0  0  0  0  0  0  0  0
  188.8100  176.4370  137.9540 C   0  0  2  0  0  3  0  0  0  0  0  0
  189.1800  175.1620  135.7750 N   0  0  0  0  0  2  0  0  0  0  0  0
  1  9  1  0  0  0  0
  2  5  1  1  0  0  0
  2  3  1  0  0  0  0
  3  7  1  1  0  0  0
  4 11  1  0  0  0  0
  5 15  2  0  0  0  0
  6  1  2  0  0  0  0
  7  4  1  0  0  0  0
  8 12  2  0  0  0  0
 10 20  1  0  0  0  0
 12 17  1  0  0  0  0
 13  8  1  6  0  0  0
 13  2  1  0  0  0  0
 14  8  1  0  0  0  0
 15  1  1  0  0  0  0
 16 11  1  0  0  0  0
 17 18  2  0  0  0  0
 17  5  1  0  0  0  0
 18  6  1  0  0  0  0
 19 13  1  0  0  0  0
 19 10  1  0  0  0  0
 20  3  1  0  0  0  0
 20 21  1  1  0  0  0
 21 16  1  0  0  0  0
 23 22  1  1  0  0  0
 23 14  1  0  0  0  0
 24 27  1  6  0  0  0
 24 28  1  0  0  0  0
 26 29  2  0  0  0  0
 28 25  1  0  0  0  0
 29 30  1  0  0  0  0
 30 23  1  6  0  0  0
 30 25  1  0  0  0  0
 31 24  1  0  0  0  0
 31 29  1  0  0  0  0
M  END
>  <MODEL>
6

>  <REMARK>
 VINA RESULT:      -8.8      3.526      6.439
  Name = 
  2 active torsions:
  status: ('A' for Active; 'I' for Inactive)
    1  A    between atoms: C_9  and  C_22
    2  A    between atoms: C_9  and  N_23
                            x       y       z     vdW  Elec       q    Type
                         _______ _______ _______ _____ _____    ______ ____

>  <TORSDO>
F 2

$$$$
=
 OpenBabel11052413133D

 31 35  0  0  1  0  0  0  0  0999 V2000
  187.5190  177.6170  138.3040 C   0  0  0  0  0  0  0  0  0  0  0  0
  190.9070  176.5870  139.5940 C   0  0  2  0  0  3  0  0  0  0  0  0
  191.6370  176.2780  138.2820 C   0  0  2  0  0  3  0  0  0  0  0  0
  191.5960  174.7230  136.2190 C   0  0  0  0  0  2  0  0  0  0  0  0
  189.5490  177.2320  139.4760 C   0  0  0  0  0  0  0  0  0  0  0  0
  186.9680  178.2520  139.4210 C   0  0  0  0  0  3  0  0  0  0  0  0
  190.8910  175.1920  137.4960 C   0  0  0  0  0  2  0  0  0  0  0  0
  191.1150  177.7450  141.7930 C   0  0  0  0  0  0  0  0  0  0  0  0
  186.7520  177.4810  137.1140 N   0  0  0  0  0  1  0  0  0  0  0  0
  193.7090  176.8510  139.4250 O   0  0  0  0  0  0  0  0  0  0  0  0
  192.2850  175.8550  135.4490 C   0  0  0  0  0  2  0  0  0  0  0  0
  189.8320  177.9890  141.8050 N   0  0  0  0  0  0  0  0  0  0  0  0
  191.7980  177.4590  140.4780 C   0  0  1  0  0  3  0  0  0  0  0  0
  191.8930  177.9050  142.9820 N   0  0  0  0  0  2  0  0  0  0  0  0
  188.7810  177.1120  138.3570 N   0  0  0  0  0  0  0  0  0  0  0  0
  193.5320  176.4300  136.1440 C   0  0  0  0  0  2  0  0  0  0  0  0
  189.0260  177.8640  140.6200 C   0  0  0  0  0  0  0  0  0  0  0  0
  187.7280  178.3730  140.5860 C   0  0  0  0  0  3  0  0  0  0  0  0
  193.0860  176.7910  140.6360 N   0  0  0  0  0  2  0  0  0  0  0  0
  193.1020  175.8720  138.6100 C   0  0  2  0  0  3  0  0  0  0  0  0
  193.9800  175.6310  137.3730 C   0  0  0  0  0  2  0  0  0  0  0  0
  190.3920  179.2690  144.1460 O   0  0  0  0  0  1  0  0  0  0  0  0
  191.3020  178.2160  144.2770 C   0  0  1  0  0  3  0  0  0  0  0  0
  188.8530  177.1010  147.2660 C   0  0  1  0  0  3  0  0  0  0  0  0
  189.0930  177.0400  144.7960 C   0  0  0  0  0  2  0  0  0  0  0  0
  192.3140  176.2950  146.4180 O   0  0  0  0  0  0  0  0  0  0  0  0
  188.3340  177.8900  148.4490 C   0  0  0  0  0  1  0  0  0  0  0  0
  188.5100  177.8210  145.9700 C   0  0  0  0  0  2  0  0  0  0  0  0
  191.1290  176.6860  146.2520 C   0  0  0  0  0  0  0  0  0  0  0  0
  190.6270  176.9710  144.8620 C   0  0  2  0  0  3  0  0  0  0  0  0
  190.2950  176.9180  147.3910 N   0  0  0  0  0  2  0  0  0  0  0  0
  1 15  2  0  0  0  0
  1  6  1  0  0  0  0
  2  5  1  6  0  0  0
  2 13  1  0  0  0  0
  3  7  1  1  0  0  0
  3 20  1  0  0  0  0
  3  2  1  0  0  0  0
  4  7  1  0  0  0  0
  5 17  2  0  0  0  0
  6 18  2  0  0  0  0
  8 12  2  0  0  0  0
  8 14  1  0  0  0  0
  9  1  1  0  0  0  0
 10 19  1  0  0  0  0
 11 16  1  0  0  0  0
 11  4  1  0  0  0  0
 13 19  1  1  0  0  0
 13  8  1  0  0  0  0
 14 23  1  0  0  0  0
 15  5  1  0  0  0  0
 16 21  1  0  0  0  0
 17 12  1  0  0  0  0
 18 17  1  0  0  0  0
 20 21  1  6  0  0  0
 20 10  1  0  0  0  0
 23 22  1  6  0  0  0
 24 31  1  0  0  0  0
 24 27  1  1  0  0  0
 25 30  1  0  0  0  0
 25 28  1  0  0  0  0
 28 24  1  0  0  0  0
 29 26  2  0  0  0  0
 29 31  1  0  0  0  0
 30 23  1  1  0  0  0
 30 29  1  0  0  0  0
M  END
>  <MODEL>
7

>  <REMARK>
 VINA RESULT:      -8.7      4.095      8.225
  Name = 
  2 active torsions:
  status: ('A' for Active; 'I' for Inactive)
    1  A    between atoms: C_9  and  C_22
    2  A    between atoms: C_9  and  N_23
                            x       y       z     vdW  Elec       q    Type
                         _______ _______ _______ _____ _____    ______ ____

>  <TORSDO>
F 2

$$$$
=
 OpenBabel11052413133D

 31 35  0  0  1  0  0  0  0  0999 V2000
  186.9040  178.3850  138.3650 C   0  0  0  0  0  0  0  0  0  0  0  0
  184.1270  179.0750  140.8180 C   0  0  2  0  0  3  0  0  0  0  0  0
  182.8940  178.8320  139.9400 C   0  0  2  0  0  3  0  0  0  0  0  0
  181.6720  179.6820  137.8280 C   0  0  0  0  0  2  0  0  0  0  0  0
  185.4630  178.6990  140.2270 C   0  0  0  0  0  0  0  0  0  0  0  0
  188.0030  178.2290  139.2140 C   0  0  0  0  0  3  0  0  0  0  0  0
  182.9170  179.7600  138.7170 C   0  0  0  0  0  2  0  0  0  0  0  0
  185.1370  178.6040  143.0500 C   0  0  0  0  0  0  0  0  0  0  0  0
  187.0780  178.3070  136.9550 N   0  0  0  0  0  1  0  0  0  0  0  0
  181.6960  178.2350  141.9730 O   0  0  0  0  0  0  0  0  0  0  0  0
  181.1180  178.2610  137.6720 C   0  0  0  0  0  2  0  0  0  0  0  0
  186.3350  178.6280  142.5320 N   0  0  0  0  0  0  0  0  0  0  0  0
  183.9510  178.3480  142.1530 C   0  0  1  0  0  3  0  0  0  0  0  0
  184.9610  178.6560  144.4690 N   0  0  0  0  0  2  0  0  0  0  0  0
  185.6690  178.6280  138.8830 N   0  0  0  0  0  0  0  0  0  0  0  0
  180.4690  177.6880  138.9450 C   0  0  0  0  0  2  0  0  0  0  0  0
  186.5480  178.5490  141.1110 C   0  0  0  0  0  0  0  0  0  0  0  0
  187.8220  178.3150  140.5950 C   0  0  0  0  0  3  0  0  0  0  0  0
  182.6850  178.7700  142.7430 N   0  0  0  0  0  2  0  0  0  0  0  0
  181.6180  179.0260  140.8070 C   0  0  2  0  0  3  0  0  0  0  0  0
  180.3060  178.7130  140.0730 C   0  0  0  0  0  2  0  0  0  0  0  0
  185.6810  179.7480  146.4070 O   0  0  0  0  0  1  0  0  0  0  0  0
  186.0660  178.8640  145.3950 C   0  0  1  0  0  3  0  0  0  0  0  0
  189.0180  177.2670  147.6100 C   0  0  1  0  0  3  0  0  0  0  0  0
  186.5510  177.5200  147.5130 C   0  0  0  0  0  2  0  0  0  0  0  0
  187.8940  176.7530  144.1720 O   0  0  0  0  0  0  0  0  0  0  0  0
  190.3160  177.8790  148.0940 C   0  0  0  0  0  1  0  0  0  0  0  0
  187.8410  178.1210  148.0610 C   0  0  0  0  0  2  0  0  0  0  0  0
  187.8410  177.0980  145.3810 C   0  0  0  0  0  0  0  0  0  0  0  0
  186.5260  177.5240  145.9770 C   0  0  2  0  0  3  0  0  0  0  0  0
  189.0430  177.1470  146.1560 N   0  0  0  0  0  2  0  0  0  0  0  0
  1 15  2  0  0  0  0
  1  6  1  0  0  0  0
  2  5  1  6  0  0  0
  2 13  1  0  0  0  0
  3  7  1  6  0  0  0
  3 20  1  0  0  0  0
  3  2  1  0  0  0  0
  4  7  1  0  0  0  0
  5 17  2  0  0  0  0
  6 18  2  0  0  0  0
  8 14  1  0  0  0  0
  9  1  1  0  0  0  0
 10 19  1  0  0  0  0
 11  4  1  0  0  0  0
 11 16  1  0  0  0  0
 12  8  2  0  0  0  0
 13 19  1  1  0  0  0
 13  8  1  0  0  0  0
 14 23  1  0  0  0  0
 15  5  1  0  0  0  0
 16 21  1  0  0  0  0
 17 12  1  0  0  0  0
 18 17  1  0  0  0  0
 20 21  1  6  0  0  0
 20 10  1  0  0  0  0
 23 22  1  1  0  0  0
 24 28  1  0  0  0  0
 24 27  1  6  0  0  0
 25 28  1  0  0  0  0
 26 29  2  0  0  0  0
 29 30  1  0  0  0  0
 29 31  1  0  0  0  0
 30 23  1  6  0  0  0
 30 25  1  0  0  0  0
 31 24  1  0  0  0  0
M  END
>  <MODEL>
8

>  <REMARK>
 VINA RESULT:      -8.6      2.371      8.599
  Name = 
  2 active torsions:
  status: ('A' for Active; 'I' for Inactive)
    1  A    between atoms: C_9  and  C_22
    2  A    between atoms: C_9  and  N_23
                            x       y       z     vdW  Elec       q    Type
                         _______ _______ _______ _____ _____    ______ ____

>  <TORSDO>
F 2

$$$$
=
 OpenBabel11052413133D

 31 35  0  0  1  0  0  0  0  0999 V2000
  189.5340  177.7580  141.6100 C   0  0  0  0  0  0  0  0  0  0  0  0
  185.9440  178.0490  142.7190 C   0  0  2  0  0  3  0  0  0  0  0  0
  186.1180  178.1970  144.2350 C   0  0  2  0  0  3  0  0  0  0  0  0
  187.0030  176.9790  146.3350 C   0  0  0  0  0  2  0  0  0  0  0  0
  187.2000  178.1030  141.8860 C   0  0  0  0  0  0  0  0  0  0  0  0
  189.4300  178.0000  140.2370 C   0  0  0  0  0  3  0  0  0  0  0  0
  186.8720  176.9900  144.8080 C   0  0  0  0  0  2  0  0  0  0  0  0
  184.7490  178.9590  140.7290 C   0  0  0  0  0  0  0  0  0  0  0  0
  190.7990  177.4500  142.1830 N   0  0  0  0  0  1  0  0  0  0  0  0
  184.0200  179.4320  144.2480 O   0  0  0  0  0  0  0  0  0  0  0  0
  187.2520  178.3650  146.9390 C   0  0  0  0  0  2  0  0  0  0  0  0
  185.7640  178.6650  139.9630 N   0  0  0  0  0  0  0  0  0  0  0  0
  184.9650  179.1100  142.2140 C   0  0  1  0  0  3  0  0  0  0  0  0
  183.4820  179.2950  140.1540 N   0  0  0  0  0  2  0  0  0  0  0  0
  188.4260  177.8010  142.3980 N   0  0  0  0  0  0  0  0  0  0  0  0
  186.0460  179.3170  146.8660 C   0  0  0  0  0  2  0  0  0  0  0  0
  187.0580  178.3490  140.5080 C   0  0  0  0  0  0  0  0  0  0  0  0
  188.1820  178.2940  139.6850 C   0  0  0  0  0  3  0  0  0  0  0  0
  183.7320  179.0030  142.9860 N   0  0  0  0  0  2  0  0  0  0  0  0
  184.7160  178.3820  144.8820 C   0  0  2  0  0  3  0  0  0  0  0  0
  184.7520  178.6440  146.3960 C   0  0  0  0  0  2  0  0  0  0  0  0
  183.7690  178.0320  138.2070 O   0  0  0  0  0  1  0  0  0  0  0  0
  183.2150  179.2060  138.7250 C   0  0  1  0  0  3  0  0  0  0  0  0
  180.5710  180.3030  135.9000 C   0  0  1  0  0  3  0  0  0  0  0  0
  181.2670  178.3730  137.2960 C   0  0  0  0  0  2  0  0  0  0  0  0
  181.2460  181.4630  139.2980 O   0  0  0  0  0  0  0  0  0  0  0  0
  180.7870  181.0390  134.5940 C   0  0  0  0  0  1  0  0  0  0  0  0
  181.4560  179.0650  135.9500 C   0  0  0  0  0  2  0  0  0  0  0  0
  181.2420  180.6900  138.3040 C   0  0  0  0  0  0  0  0  0  0  0  0
  181.7070  179.2680  138.4650 C   0  0  2  0  0  3  0  0  0  0  0  0
  180.8610  181.1920  137.0200 N   0  0  0  0  0  2  0  0  0  0  0  0
  1  9  1  0  0  0  0
  1 15  1  0  0  0  0
  2  5  1  6  0  0  0
  2  3  1  0  0  0  0
  3  7  1  1  0  0  0
  3 20  1  0  0  0  0
  4 11  1  0  0  0  0
  5 15  2  0  0  0  0
  6  1  2  0  0  0  0
  7  4  1  0  0  0  0
 10 20  1  0  0  0  0
 12 17  1  0  0  0  0
 12  8  2  0  0  0  0
 13  8  1  6  0  0  0
 13  2  1  0  0  0  0
 13 19  1  0  0  0  0
 14  8  1  0  0  0  0
 16 11  1  0  0  0  0
 17  5  1  0  0  0  0
 18  6  1  0  0  0  0
 18 17  2  0  0  0  0
 19 10  1  0  0  0  0
 20 21  1  1  0  0  0
 21 16  1  0  0  0  0
 23 22  1  1  0  0  0
 23 14  1  0  0  0  0
 24 27  1  6  0  0  0
 24 28  1  0  0  0  0
 24 31  1  0  0  0  0
 25 30  1  0  0  0  0
 28 25  1  0  0  0  0
 29 30  1  0  0  0  0
 29 26  2  0  0  0  0
 30 23  1  6  0  0  0
 31 29  1  0  0  0  0
M  END
>  <MODEL>
9

>  <REMARK>
 VINA RESULT:      -8.6      2.620      4.615
  Name = 
  2 active torsions:
  status: ('A' for Active; 'I' for Inactive)
    1  A    between atoms: C_9  and  C_22
    2  A    between atoms: C_9  and  N_23
                            x       y       z     vdW  Elec       q    Type
                         _______ _______ _______ _____ _____    ______ ____

>  <TORSDO>
F 2

$$$$
