=
 OpenBabel11052413503D

 27 31  0  0  1  0  0  0  0  0999 V2000
  184.9180  178.6700  139.4380 C   0  0  2  0  0  3  0  0  0  0  0  0
  185.4050  178.4980  140.8370 C   0  0  0  0  0  0  0  0  0  0  0  0
  187.2850  178.2480  139.5250 N   0  0  0  0  0  0  0  0  0  0  0  0
  187.4600  177.8730  144.3580 N   0  0  0  0  0  0  0  0  0  0  0  0
  189.8170  177.4150  145.0470 C   0  0  0  0  0  1  0  0  0  0  0  0
  184.6620  178.5380  142.0300 C   0  0  0  0  0  3  0  0  0  0  0  0
  189.0370  177.7370  142.3660 S   0  0  0  0  0  0  0  0  0  0  0  0
  187.3560  176.8830  137.0890 N   0  0  0  0  0  0  0  0  0  0  0  0
  189.4330  178.6390  138.4410 C   0  0  0  0  0  1  0  0  0  0  0  0
  187.1690  175.6890  136.2760 C   0  0  0  0  0  1  0  0  0  0  0  0
  187.4160  178.0380  142.0460 C   0  0  0  0  0  0  0  0  0  0  0  0
  188.7600  177.6680  144.0350 C   0  0  0  0  0  0  0  0  0  0  0  0
  186.7120  178.0800  143.2440 C   0  0  0  0  0  0  0  0  0  0  0  0
  186.1960  178.4910  138.5770 C   0  0  1  0  0  3  0  0  0  0  0  0
  186.7530  178.2460  140.8370 C   0  0  0  0  0  0  0  0  0  0  0  0
  188.2270  176.4610  138.1890 C   0  0  0  0  0  2  0  0  0  0  0  0
  185.3300  178.3280  143.2550 C   0  0  0  0  0  3  0  0  0  0  0  0
  185.1080  177.7050  136.4950 C   0  0  0  0  0  1  0  0  0  0  0  0
  186.0450  177.2940  137.6270 C   0  0  1  0  0  3  0  0  0  0  0  0
  188.5370  177.6230  139.1270 C   0  0  2  0  0  3  0  0  0  0  0  0
  184.3240  179.9920  139.2350 N   0  0  0  0  0  2  0  0  0  0  0  0
  180.4410  180.7330  137.7850 C   0  0  0  0  0  3  0  0  0  0  0  0
  183.0040  180.2490  138.7410 C   0  0  0  0  0  0  0  0  0  0  0  0
  182.2320  179.1840  138.2700 C   0  0  0  0  0  3  0  0  0  0  0  0
  180.9440  179.4310  137.7890 C   0  0  0  0  0  3  0  0  0  0  0  0
  181.2400  181.7730  138.2640 C   0  0  0  0  0  3  0  0  0  0  0  0
  182.4920  181.5120  138.7280 N   0  0  0  0  0  0  0  0  0  0  0  0
  1 21  1  1  0  0  0
  1  2  1  0  0  0  0
  2  6  1  0  0  0  0
  3 15  1  0  0  0  0
  6 17  2  0  0  0  0
  7 12  1  0  0  0  0
  8 19  1  0  0  0  0
  8 16  1  0  0  0  0
 10  8  1  0  0  0  0
 11  7  1  0  0  0  0
 11 13  2  0  0  0  0
 12  4  2  0  0  0  0
 12  5  1  0  0  0  0
 13 17  1  0  0  0  0
 13  4  1  0  0  0  0
 14  1  1  0  0  0  0
 14  3  1  1  0  0  0
 15  2  2  0  0  0  0
 15 11  1  0  0  0  0
 16 20  1  0  0  0  0
 19 18  1  6  0  0  0
 19 14  1  0  0  0  0
 20  9  1  6  0  0  0
 20  3  1  0  0  0  0
 22 25  1  0  0  0  0
 22 26  2  0  0  0  0
 23 21  1  0  0  0  0
 24 23  1  0  0  0  0
 25 24  2  0  0  0  0
 26 27  1  0  0  0  0
 27 23  2  0  0  0  0
M  END
>  <MODEL>
1

>  <REMARK>
 VINA RESULT:      -7.1      0.000      0.000
  Name = 
  2 active torsions:
  status: ('A' for Active; 'I' for Inactive)
    1  A    between atoms: C_1  and  N_15
    2  A    between atoms: C_9  and  N_15
                            x       y       z     vdW  Elec       q    Type
                         _______ _______ _______ _____ _____    ______ ____

>  <TORSDO>
F 2

$$$$
=
 OpenBabel11052413503D

 27 31  0  0  1  0  0  0  0  0999 V2000
  190.5300  176.9230  139.6420 C   0  0  2  0  0  3  0  0  0  0  0  0
  189.1550  177.2700  139.1780 C   0  0  0  0  0  0  0  0  0  0  0  0
  189.9340  175.7550  137.6250 N   0  0  0  0  0  0  0  0  0  0  0  0
  185.5290  177.7550  137.2750 N   0  0  0  0  0  0  0  0  0  0  0  0
  184.3900  176.8480  135.2450 C   0  0  0  0  0  1  0  0  0  0  0  0
  188.2410  178.1680  139.7570 C   0  0  0  0  0  3  0  0  0  0  0  0
  186.9850  176.0910  136.0160 S   0  0  0  0  0  0  0  0  0  0  0  0
  192.5410  175.6990  136.6240 N   0  0  0  0  0  0  0  0  0  0  0  0
  190.2540  173.7250  136.3140 C   0  0  0  0  0  1  0  0  0  0  0  0
  193.6710  176.3120  135.9400 C   0  0  0  0  0  1  0  0  0  0  0  0
  187.6300  176.7820  137.4040 C   0  0  0  0  0  0  0  0  0  0  0  0
  185.5370  176.9520  136.1830 C   0  0  0  0  0  0  0  0  0  0  0  0
  186.7000  177.6560  137.9550 C   0  0  0  0  0  0  0  0  0  0  0  0
  191.0340  175.9100  138.5800 C   0  0  1  0  0  3  0  0  0  0  0  0
  188.8650  176.5940  138.0210 C   0  0  0  0  0  0  0  0  0  0  0  0
  191.4100  175.8590  135.7070 C   0  0  0  0  0  2  0  0  0  0  0  0
  186.9900  178.3610  139.1350 C   0  0  0  0  0  3  0  0  0  0  0  0
  193.4630  176.3260  138.8230 C   0  0  0  0  0  1  0  0  0  0  0  0
  192.2820  176.4510  137.8660 C   0  0  1  0  0  3  0  0  0  0  0  0
  190.1400  175.2380  136.2800 C   0  0  2  0  0  3  0  0  0  0  0  0
  190.5110  176.3240  140.9770 N   0  0  0  0  0  2  0  0  0  0  0  0
  190.2810  178.4220  144.6210 C   0  0  0  0  0  3  0  0  0  0  0  0
  190.4360  177.0410  142.2150 C   0  0  0  0  0  0  0  0  0  0  0  0
  189.3700  176.7940  143.0840 C   0  0  0  0  0  3  0  0  0  0  0  0
  189.2940  177.4900  144.2920 C   0  0  0  0  0  3  0  0  0  0  0  0
  191.3320  178.6430  143.7290 C   0  0  0  0  0  3  0  0  0  0  0  0
  191.3870  177.9550  142.5560 N   0  0  0  0  0  0  0  0  0  0  0  0
  1 21  1  1  0  0  0
  2  1  1  0  0  0  0
  2  6  1  0  0  0  0
  3 15  1  0  0  0  0
  4 13  1  0  0  0  0
  5 12  1  0  0  0  0
  7 12  1  0  0  0  0
  7 11  1  0  0  0  0
  8 19  1  0  0  0  0
 10  8  1  0  0  0  0
 11 13  2  0  0  0  0
 11 15  1  0  0  0  0
 12  4  2  0  0  0  0
 13 17  1  0  0  0  0
 14  3  1  6  0  0  0
 14  1  1  0  0  0  0
 15  2  2  0  0  0  0
 16 20  1  0  0  0  0
 16  8  1  0  0  0  0
 17  6  2  0  0  0  0
 19 14  1  0  0  0  0
 19 18  1  1  0  0  0
 20  9  1  1  0  0  0
 20  3  1  0  0  0  0
 21 23  1  0  0  0  0
 23 27  2  0  0  0  0
 23 24  1  0  0  0  0
 24 25  2  0  0  0  0
 25 22  1  0  0  0  0
 26 22  2  0  0  0  0
 27 26  1  0  0  0  0
M  END
>  <MODEL>
2

>  <REMARK>
 VINA RESULT:      -6.9      3.478      7.401
  Name = 
  2 active torsions:
  status: ('A' for Active; 'I' for Inactive)
    1  A    between atoms: C_1  and  N_15
    2  A    between atoms: C_9  and  N_15
                            x       y       z     vdW  Elec       q    Type
                         _______ _______ _______ _____ _____    ______ ____

>  <TORSDO>
F 2

$$$$
=
 OpenBabel11052413503D

 27 31  0  0  1  0  0  0  0  0999 V2000
  187.6650  177.7580  143.3570 C   0  0  2  0  0  3  0  0  0  0  0  0
  188.1030  177.8570  141.9350 C   0  0  0  0  0  0  0  0  0  0  0  0
  189.6570  176.4770  142.9320 N   0  0  0  0  0  0  0  0  0  0  0  0
  189.9330  177.6860  138.2430 N   0  0  0  0  0  0  0  0  0  0  0  0
  191.9290  176.5700  137.2380 C   0  0  0  0  0  1  0  0  0  0  0  0
  187.5140  178.5930  140.8910 C   0  0  0  0  0  3  0  0  0  0  0  0
  191.2060  176.2800  139.9390 S   0  0  0  0  0  0  0  0  0  0  0  0
  190.7130  176.8550  145.4900 N   0  0  0  0  0  0  0  0  0  0  0  0
  190.9540  174.5140  143.5710 C   0  0  0  0  0  1  0  0  0  0  0  0
  191.4270  177.6430  146.4850 C   0  0  0  0  0  1  0  0  0  0  0  0
  189.8390  177.0910  140.4820 C   0  0  0  0  0  0  0  0  0  0  0  0
  191.0170  176.8820  138.3680 C   0  0  0  0  0  0  0  0  0  0  0  0
  189.2770  177.7990  139.4260 C   0  0  0  0  0  0  0  0  0  0  0  0
  188.7270  176.8320  144.0070 C   0  0  1  0  0  3  0  0  0  0  0  0
  189.2470  177.1260  141.7430 C   0  0  0  0  0  0  0  0  0  0  0  0
  191.6070  176.8060  144.3300 C   0  0  0  0  0  2  0  0  0  0  0  0
  188.1110  178.5600  139.6140 C   0  0  0  0  0  3  0  0  0  0  0  0
  188.5400  177.6610  146.3330 C   0  0  0  0  0  1  0  0  0  0  0  0
  189.4730  177.5680  145.1290 C   0  0  1  0  0  3  0  0  0  0  0  0
  191.0000  175.9850  143.1980 C   0  0  2  0  0  3  0  0  0  0  0  0
  186.3240  177.1820  143.4670 N   0  0  0  0  0  2  0  0  0  0  0  0
  182.7310  179.3660  143.7060 C   0  0  0  0  0  3  0  0  0  0  0  0
  185.1000  177.9230  143.5440 C   0  0  0  0  0  0  0  0  0  0  0  0
  184.7090  178.4700  144.7680 C   0  0  0  0  0  3  0  0  0  0  0  0
  183.5170  179.1940  144.8460 C   0  0  0  0  0  3  0  0  0  0  0  0
  183.1530  178.8050  142.4980 C   0  0  0  0  0  3  0  0  0  0  0  0
  184.3170  178.1030  142.4430 N   0  0  0  0  0  0  0  0  0  0  0  0
  1 21  1  6  0  0  0
  1 14  1  0  0  0  0
  2  1  1  0  0  0  0
  3 20  1  0  0  0  0
  4 12  2  0  0  0  0
  4 13  1  0  0  0  0
  5 12  1  0  0  0  0
  6  2  2  0  0  0  0
  7 11  1  0  0  0  0
  8 10  1  0  0  0  0
 11 15  2  0  0  0  0
 12  7  1  0  0  0  0
 13 17  2  0  0  0  0
 13 11  1  0  0  0  0
 14  3  1  6  0  0  0
 14 19  1  0  0  0  0
 15  2  1  0  0  0  0
 15  3  1  0  0  0  0
 16  8  1  0  0  0  0
 17  6  1  0  0  0  0
 19  8  1  0  0  0  0
 19 18  1  1  0  0  0
 20  9  1  1  0  0  0
 20 16  1  0  0  0  0
 21 23  1  0  0  0  0
 22 25  1  0  0  0  0
 23 24  1  0  0  0  0
 24 25  2  0  0  0  0
 26 22  2  0  0  0  0
 27 26  1  0  0  0  0
 27 23  2  0  0  0  0
M  END
>  <MODEL>
3

>  <REMARK>
 VINA RESULT:      -6.6      3.224      6.369
  Name = 
  2 active torsions:
  status: ('A' for Active; 'I' for Inactive)
    1  A    between atoms: C_1  and  N_15
    2  A    between atoms: C_9  and  N_15
                            x       y       z     vdW  Elec       q    Type
                         _______ _______ _______ _____ _____    ______ ____

>  <TORSDO>
F 2

$$$$
=
 OpenBabel11052413503D

 27 31  0  0  1  0  0  0  0  0999 V2000
  186.7250  178.2430  141.8260 C   0  0  2  0  0  3  0  0  0  0  0  0
  186.4740  178.1050  143.2900 C   0  0  0  0  0  0  0  0  0  0  0  0
  188.7510  178.4210  143.1110 N   0  0  0  0  0  0  0  0  0  0  0  0
  186.5790  177.7770  147.4000 N   0  0  0  0  0  0  0  0  0  0  0  0
  188.3060  177.8770  149.2020 C   0  0  0  0  0  1  0  0  0  0  0  0
  185.2530  177.8780  143.9470 C   0  0  0  0  0  3  0  0  0  0  0  0
  188.9160  178.1740  146.4740 S   0  0  0  0  0  0  0  0  0  0  0  0
  190.3660  177.2840  141.1350 N   0  0  0  0  0  0  0  0  0  0  0  0
  190.9780  179.4080  143.2180 C   0  0  0  0  0  1  0  0  0  0  0  0
  190.9140  176.1390  140.4220 C   0  0  0  0  0  1  0  0  0  0  0  0
  187.6550  178.0810  145.3680 C   0  0  0  0  0  0  0  0  0  0  0  0
  187.8700  177.9260  147.7830 C   0  0  0  0  0  0  0  0  0  0  0  0
  186.4620  177.8660  146.0500 C   0  0  0  0  0  0  0  0  0  0  0  0
  188.2600  178.4480  141.7310 C   0  0  1  0  0  3  0  0  0  0  0  0
  187.6560  178.1980  143.9790 C   0  0  0  0  0  0  0  0  0  0  0  0
  190.6450  177.0200  142.5490 C   0  0  0  0  0  2  0  0  0  0  0  0
  185.2480  177.7590  145.3530 C   0  0  0  0  0  3  0  0  0  0  0  0
  188.5920  177.5570  139.4440 C   0  0  0  0  0  1  0  0  0  0  0  0
  188.9070  177.3170  140.9170 C   0  0  1  0  0  3  0  0  0  0  0  0
  190.1450  178.1570  143.4340 C   0  0  2  0  0  3  0  0  0  0  0  0
  186.0030  179.3860  141.2640 N   0  0  0  0  0  2  0  0  0  0  0  0
  182.3340  179.1970  139.2070 C   0  0  0  0  0  3  0  0  0  0  0  0
  184.7570  179.3240  140.5590 C   0  0  0  0  0  0  0  0  0  0  0  0
  183.7340  178.5090  141.0520 C   0  0  0  0  0  3  0  0  0  0  0  0
  182.5180  178.4470  140.3690 C   0  0  0  0  0  3  0  0  0  0  0  0
  183.3780  180.0010  138.7430 C   0  0  0  0  0  3  0  0  0  0  0  0
  184.5560  180.0470  139.4220 N   0  0  0  0  0  0  0  0  0  0  0  0
  1 21  1  1  0  0  0
  1  2  1  0  0  0  0
  2  6  2  0  0  0  0
  2 15  1  0  0  0  0
  3 20  1  0  0  0  0
  3 15  1  0  0  0  0
  4 12  2  0  0  0  0
  6 17  1  0  0  0  0
  7 12  1  0  0  0  0
  8 16  1  0  0  0  0
 10  8  1  0  0  0  0
 11 13  1  0  0  0  0
 11  7  1  0  0  0  0
 12  5  1  0  0  0  0
 13  4  1  0  0  0  0
 14  1  1  0  0  0  0
 14  3  1  1  0  0  0
 15 11  2  0  0  0  0
 16 20  1  0  0  0  0
 17 13  2  0  0  0  0
 19 18  1  6  0  0  0
 19  8  1  0  0  0  0
 19 14  1  0  0  0  0
 20  9  1  6  0  0  0
 22 25  1  0  0  0  0
 23 24  1  0  0  0  0
 23 21  1  0  0  0  0
 25 24  2  0  0  0  0
 26 22  2  0  0  0  0
 26 27  1  0  0  0  0
 27 23  2  0  0  0  0
M  END
>  <MODEL>
4

>  <REMARK>
 VINA RESULT:      -6.6      2.285      3.720
  Name = 
  2 active torsions:
  status: ('A' for Active; 'I' for Inactive)
    1  A    between atoms: C_1  and  N_15
    2  A    between atoms: C_9  and  N_15
                            x       y       z     vdW  Elec       q    Type
                         _______ _______ _______ _____ _____    ______ ____

>  <TORSDO>
F 2

$$$$
=
 OpenBabel11052413503D

 27 31  0  0  1  0  0  0  0  0999 V2000
  187.3700  177.7800  141.3680 C   0  0  2  0  0  3  0  0  0  0  0  0
  187.6740  177.5310  142.8080 C   0  0  0  0  0  0  0  0  0  0  0  0
  189.7370  177.7020  141.7930 N   0  0  0  0  0  0  0  0  0  0  0  0
  189.2770  176.8340  146.5430 N   0  0  0  0  0  0  0  0  0  0  0  0
  191.5540  176.6530  147.5540 C   0  0  0  0  0  1  0  0  0  0  0  0
  186.7710  177.3320  143.8670 C   0  0  0  0  0  3  0  0  0  0  0  0
  191.1240  177.1470  144.8210 S   0  0  0  0  0  0  0  0  0  0  0  0
  190.3750  176.6340  139.2920 N   0  0  0  0  0  0  0  0  0  0  0  0
  191.9270  178.5170  141.0990 C   0  0  0  0  0  1  0  0  0  0  0  0
  190.5010  175.5210  138.3610 C   0  0  0  0  0  1  0  0  0  0  0  0
  189.5380  177.2410  144.2750 C   0  0  0  0  0  0  0  0  0  0  0  0
  190.6260  176.8580  146.4130 C   0  0  0  0  0  0  0  0  0  0  0  0
  188.6730  177.0500  145.3460 C   0  0  0  0  0  0  0  0  0  0  0  0
  188.7700  177.8850  140.7080 C   0  0  1  0  0  3  0  0  0  0  0  0
  189.0310  177.4800  142.9990 C   0  0  0  0  0  0  0  0  0  0  0  0
  191.1360  176.2270  140.4760 C   0  0  0  0  0  2  0  0  0  0  0  0
  187.2810  177.0900  145.1600 C   0  0  0  0  0  3  0  0  0  0  0  0
  188.1330  177.1790  138.4220 C   0  0  0  0  0  1  0  0  0  0  0  0
  188.9510  176.7880  139.6480 C   0  0  1  0  0  3  0  0  0  0  0  0
  191.1180  177.3130  141.5460 C   0  0  2  0  0  3  0  0  0  0  0  0
  186.6070  179.0160  141.1880 N   0  0  0  0  0  2  0  0  0  0  0  0
  182.6030  179.2650  139.9080 C   0  0  0  0  0  3  0  0  0  0  0  0
  185.2460  179.1010  140.7470 C   0  0  0  0  0  0  0  0  0  0  0  0
  184.2300  178.6120  141.5720 C   0  0  0  0  0  3  0  0  0  0  0  0
  182.9020  178.6950  141.1460 C   0  0  0  0  0  3  0  0  0  0  0  0
  183.6440  179.7440  139.1100 C   0  0  0  0  0  3  0  0  0  0  0  0
  184.9310  179.6530  139.5420 N   0  0  0  0  0  0  0  0  0  0  0  0
  1 21  1  1  0  0  0
  1  2  1  0  0  0  0
  2 15  2  0  0  0  0
  2  6  1  0  0  0  0
  3 15  1  0  0  0  0
  6 17  2  0  0  0  0
  7 12  1  0  0  0  0
  8 19  1  0  0  0  0
  8 16  1  0  0  0  0
 10  8  1  0  0  0  0
 11  7  1  0  0  0  0
 11 13  2  0  0  0  0
 12  4  2  0  0  0  0
 12  5  1  0  0  0  0
 13  4  1  0  0  0  0
 14  1  1  0  0  0  0
 14  3  1  1  0  0  0
 15 11  1  0  0  0  0
 16 20  1  0  0  0  0
 17 13  1  0  0  0  0
 19 18  1  6  0  0  0
 19 14  1  0  0  0  0
 20  9  1  6  0  0  0
 20  3  1  0  0  0  0
 22 25  1  0  0  0  0
 23 21  1  0  0  0  0
 23 24  1  0  0  0  0
 25 24  2  0  0  0  0
 26 27  1  0  0  0  0
 26 22  2  0  0  0  0
 27 23  2  0  0  0  0
M  END
>  <MODEL>
5

>  <REMARK>
 VINA RESULT:      -6.5      2.177      3.386
  Name = 
  2 active torsions:
  status: ('A' for Active; 'I' for Inactive)
    1  A    between atoms: C_1  and  N_15
    2  A    between atoms: C_9  and  N_15
                            x       y       z     vdW  Elec       q    Type
                         _______ _______ _______ _____ _____    ______ ____

>  <TORSDO>
F 2

$$$$
=
 OpenBabel11052413503D

 27 31  0  0  1  0  0  0  0  0999 V2000
  182.8060  178.6350  140.0240 C   0  0  2  0  0  3  0  0  0  0  0  0
  183.8530  178.6560  141.0860 C   0  0  0  0  0  0  0  0  0  0  0  0
  181.8520  178.6900  142.2320 N   0  0  0  0  0  0  0  0  0  0  0  0
  186.1260  178.7730  144.5260 N   0  0  0  0  0  0  0  0  0  0  0  0
  185.7170  178.8330  146.9900 C   0  0  0  0  0  1  0  0  0  0  0  0
  185.2500  178.6640  140.9330 C   0  0  0  0  0  3  0  0  0  0  0  0
  183.6450  178.7770  145.0920 S   0  0  0  0  0  0  0  0  0  0  0  0
  179.6040  180.1580  141.4650 N   0  0  0  0  0  0  0  0  0  0  0  0
  179.9520  178.0390  143.6120 C   0  0  0  0  0  1  0  0  0  0  0  0
  178.9320  181.4090  141.1390 C   0  0  0  0  0  1  0  0  0  0  0  0
  184.0630  178.7420  143.4660 C   0  0  0  0  0  0  0  0  0  0  0  0
  185.2680  178.7970  145.5750 C   0  0  0  0  0  0  0  0  0  0  0  0
  185.4490  178.7410  143.3490 C   0  0  0  0  0  0  0  0  0  0  0  0
  181.4730  178.6660  140.8170 C   0  0  1  0  0  3  0  0  0  0  0  0
  183.2650  178.7010  142.3240 C   0  0  0  0  0  0  0  0  0  0  0  0
  180.2100  180.3840  142.7800 C   0  0  0  0  0  2  0  0  0  0  0  0
  186.0620  178.7050  142.0860 C   0  0  0  0  0  3  0  0  0  0  0  0
  180.0550  179.7170  139.0810 C   0  0  0  0  0  1  0  0  0  0  0  0
  180.6620  179.9210  140.4660 C   0  0  1  0  0  3  0  0  0  0  0  0
  180.9410  179.1400  143.2730 C   0  0  2  0  0  3  0  0  0  0  0  0
  182.9030  177.4310  139.1980 N   0  0  0  0  0  2  0  0  0  0  0  0
  179.6600  175.0860  137.8890 C   0  0  0  0  0  3  0  0  0  0  0  0
  181.8000  176.6340  138.7480 C   0  0  0  0  0  0  0  0  0  0  0  0
  181.3000  175.6280  139.5780 C   0  0  0  0  0  3  0  0  0  0  0  0
  180.2250  174.8510  139.1430 C   0  0  0  0  0  3  0  0  0  0  0  0
  180.1840  176.1010  137.0850 C   0  0  0  0  0  3  0  0  0  0  0  0
  181.2330  176.8460  137.5270 N   0  0  0  0  0  0  0  0  0  0  0  0
  1 21  1  1  0  0  0
  1 14  1  0  0  0  0
  1  2  1  0  0  0  0
  2 15  1  0  0  0  0
  3 15  1  0  0  0  0
  3 20  1  0  0  0  0
  4 12  2  0  0  0  0
  6  2  2  0  0  0  0
  6 17  1  0  0  0  0
  7 12  1  0  0  0  0
  8 16  1  0  0  0  0
 10  8  1  0  0  0  0
 11  7  1  0  0  0  0
 12  5  1  0  0  0  0
 13 11  1  0  0  0  0
 13  4  1  0  0  0  0
 14  3  1  1  0  0  0
 15 11  2  0  0  0  0
 16 20  1  0  0  0  0
 17 13  2  0  0  0  0
 19 18  1  6  0  0  0
 19 14  1  0  0  0  0
 19  8  1  0  0  0  0
 20  9  1  6  0  0  0
 22 25  1  0  0  0  0
 23 21  1  0  0  0  0
 23 24  1  0  0  0  0
 25 24  2  0  0  0  0
 26 27  1  0  0  0  0
 26 22  2  0  0  0  0
 27 23  2  0  0  0  0
M  END
>  <MODEL>
6

>  <REMARK>
 VINA RESULT:      -6.4      3.390      5.860
  Name = 
  2 active torsions:
  status: ('A' for Active; 'I' for Inactive)
    1  A    between atoms: C_1  and  N_15
    2  A    between atoms: C_9  and  N_15
                            x       y       z     vdW  Elec       q    Type
                         _______ _______ _______ _____ _____    ______ ____

>  <TORSDO>
F 2

$$$$
=
 OpenBabel11052413503D

 27 31  0  0  1  0  0  0  0  0999 V2000
  189.0360  177.4980  141.5300 C   0  0  2  0  0  3  0  0  0  0  0  0
  188.0150  177.7750  140.4780 C   0  0  0  0  0  0  0  0  0  0  0  0
  189.6860  176.6220  139.3850 N   0  0  0  0  0  0  0  0  0  0  0  0
  185.7200  178.1960  137.0770 N   0  0  0  0  0  0  0  0  0  0  0  0
  185.8650  177.5250  134.6760 C   0  0  0  0  0  1  0  0  0  0  0  0
  186.7990  178.4690  140.6060 C   0  0  0  0  0  3  0  0  0  0  0  0
  187.8590  176.9170  136.5610 S   0  0  0  0  0  0  0  0  0  0  0  0
  192.4210  176.9950  139.8140 N   0  0  0  0  0  0  0  0  0  0  0  0
  190.9320  174.8780  138.2250 C   0  0  0  0  0  1  0  0  0  0  0  0
  193.6190  177.8230  139.8430 C   0  0  0  0  0  1  0  0  0  0  0  0
  187.6330  177.4340  138.1430 C   0  0  0  0  0  0  0  0  0  0  0  0
  186.3860  177.5890  136.0650 C   0  0  0  0  0  0  0  0  0  0  0  0
  186.4200  178.1060  138.2370 C   0  0  0  0  0  0  0  0  0  0  0  0
  190.1500  176.7290  140.7700 C   0  0  1  0  0  3  0  0  0  0  0  0
  188.4330  177.2720  139.2730 C   0  0  0  0  0  0  0  0  0  0  0  0
  191.8580  177.1880  138.4750 C   0  0  0  0  0  2  0  0  0  0  0  0
  185.9860  178.6340  139.4650 C   0  0  0  0  0  3  0  0  0  0  0  0
  192.0550  177.3430  142.2280 C   0  0  0  0  0  1  0  0  0  0  0  0
  191.4750  177.5030  140.8260 C   0  0  1  0  0  3  0  0  0  0  0  0
  190.5950  176.3570  138.2800 C   0  0  2  0  0  3  0  0  0  0  0  0
  188.4810  176.6880  142.6160 N   0  0  0  0  0  2  0  0  0  0  0  0
  188.1210  177.8760  146.6400 C   0  0  0  0  0  3  0  0  0  0  0  0
  188.3640  177.0940  143.9850 C   0  0  0  0  0  0  0  0  0  0  0  0
  187.1060  177.4280  144.4930 C   0  0  0  0  0  3  0  0  0  0  0  0
  186.9880  177.8220  145.8270 C   0  0  0  0  0  3  0  0  0  0  0  0
  189.3620  177.5340  146.0990 C   0  0  0  0  0  3  0  0  0  0  0  0
  189.4570  177.1540  144.7960 N   0  0  0  0  0  0  0  0  0  0  0  0
  1 21  1  1  0  0  0
  2  6  1  0  0  0  0
  2  1  1  0  0  0  0
  4 13  1  0  0  0  0
  5 12  1  0  0  0  0
  7 11  1  0  0  0  0
  8 10  1  0  0  0  0
  8 19  1  0  0  0  0
 11 13  2  0  0  0  0
 11 15  1  0  0  0  0
 12  7  1  0  0  0  0
 12  4  2  0  0  0  0
 13 17  1  0  0  0  0
 14  3  1  6  0  0  0
 14 19  1  0  0  0  0
 14  1  1  0  0  0  0
 15  3  1  0  0  0  0
 15  2  2  0  0  0  0
 16  8  1  0  0  0  0
 17  6  2  0  0  0  0
 19 18  1  1  0  0  0
 20  9  1  1  0  0  0
 20 16  1  0  0  0  0
 20  3  1  0  0  0  0
 21 23  1  0  0  0  0
 23 24  1  0  0  0  0
 23 27  2  0  0  0  0
 24 25  2  0  0  0  0
 25 22  1  0  0  0  0
 26 22  2  0  0  0  0
 27 26  1  0  0  0  0
M  END
>  <MODEL>
7

>  <REMARK>
 VINA RESULT:      -6.4      3.045      7.032
  Name = 
  2 active torsions:
  status: ('A' for Active; 'I' for Inactive)
    1  A    between atoms: C_1  and  N_15
    2  A    between atoms: C_9  and  N_15
                            x       y       z     vdW  Elec       q    Type
                         _______ _______ _______ _____ _____    ______ ____

>  <TORSDO>
F 2

$$$$
=
 OpenBabel11052413503D

 27 31  0  0  1  0  0  0  0  0999 V2000
  183.6000  178.5990  139.1680 C   0  0  2  0  0  3  0  0  0  0  0  0
  184.3880  178.6040  140.4340 C   0  0  0  0  0  0  0  0  0  0  0  0
  182.1850  178.5880  141.1150 N   0  0  0  0  0  0  0  0  0  0  0  0
  185.8520  178.6580  144.2900 N   0  0  0  0  0  0  0  0  0  0  0  0
  184.9140  178.6500  146.6050 C   0  0  0  0  0  1  0  0  0  0  0  0
  185.7850  178.6310  140.5910 C   0  0  0  0  0  3  0  0  0  0  0  0
  183.3070  178.6210  144.2990 S   0  0  0  0  0  0  0  0  0  0  0  0
  180.1360  180.0520  139.9070 N   0  0  0  0  0  0  0  0  0  0  0  0
  180.0390  177.8820  142.0310 C   0  0  0  0  0  1  0  0  0  0  0  0
  179.5320  181.3030  139.4710 C   0  0  0  0  0  1  0  0  0  0  0  0
  184.0720  178.6310  142.8040 C   0  0  0  0  0  0  0  0  0  0  0  0
  184.7850  178.6450  145.1260 C   0  0  0  0  0  0  0  0  0  0  0  0
  185.4490  178.6490  142.9940 C   0  0  0  0  0  0  0  0  0  0  0  0
  182.1250  178.5950  139.6510 C   0  0  1  0  0  3  0  0  0  0  0  0
  183.5430  178.6120  141.5150 C   0  0  0  0  0  0  0  0  0  0  0  0
  180.4370  180.2500  141.3270 C   0  0  0  0  0  2  0  0  0  0  0  0
  186.3240  178.6500  141.8950 C   0  0  0  0  0  3  0  0  0  0  0  0
  181.1050  179.6760  137.6710 C   0  0  0  0  0  1  0  0  0  0  0  0
  181.3910  179.8510  139.1590 C   0  0  1  0  0  3  0  0  0  0  0  0
  181.0610  179.0010  141.9410 C   0  0  2  0  0  3  0  0  0  0  0  0
  183.8940  177.4170  138.3570 N   0  0  0  0  0  2  0  0  0  0  0  0
  186.0090  177.3990  134.7160 C   0  0  0  0  0  3  0  0  0  0  0  0
  184.6090  177.4120  137.1160 C   0  0  0  0  0  0  0  0  0  0  0  0
  185.9770  177.6930  137.1150 C   0  0  0  0  0  3  0  0  0  0  0  0
  186.6780  177.6870  135.9070 C   0  0  0  0  0  3  0  0  0  0  0  0
  184.6410  177.1210  134.7550 C   0  0  0  0  0  3  0  0  0  0  0  0
  183.9760  177.1330  135.9420 N   0  0  0  0  0  0  0  0  0  0  0  0
  1 21  1  1  0  0  0
  1 14  1  0  0  0  0
  1  2  1  0  0  0  0
  2  6  2  0  0  0  0
  2 15  1  0  0  0  0
  3 15  1  0  0  0  0
  3 20  1  0  0  0  0
  4 12  2  0  0  0  0
  6 17  1  0  0  0  0
  7 12  1  0  0  0  0
  8 16  1  0  0  0  0
 10  8  1  0  0  0  0
 11 13  1  0  0  0  0
 11  7  1  0  0  0  0
 12  5  1  0  0  0  0
 13  4  1  0  0  0  0
 14  3  1  1  0  0  0
 15 11  2  0  0  0  0
 16 20  1  0  0  0  0
 17 13  2  0  0  0  0
 19 18  1  6  0  0  0
 19 14  1  0  0  0  0
 19  8  1  0  0  0  0
 20  9  1  6  0  0  0
 22 26  2  0  0  0  0
 22 25  1  0  0  0  0
 23 21  1  0  0  0  0
 24 23  1  0  0  0  0
 25 24  2  0  0  0  0
 26 27  1  0  0  0  0
 27 23  2  0  0  0  0
M  END
>  <MODEL>
8

>  <REMARK>
 VINA RESULT:      -6.2      2.570      5.596
  Name = 
  2 active torsions:
  status: ('A' for Active; 'I' for Inactive)
    1  A    between atoms: C_1  and  N_15
    2  A    between atoms: C_9  and  N_15
                            x       y       z     vdW  Elec       q    Type
                         _______ _______ _______ _____ _____    ______ ____

>  <TORSDO>
F 2

$$$$
=
 OpenBabel11052413503D

 27 31  0  0  1  0  0  0  0  0999 V2000
  189.7040  177.2400  139.6060 C   0  0  2  0  0  3  0  0  0  0  0  0
  188.4220  177.8940  139.9980 C   0  0  0  0  0  0  0  0  0  0  0  0
  187.9210  176.7260  138.0750 N   0  0  0  0  0  0  0  0  0  0  0  0
  184.5970  179.3820  140.4040 N   0  0  0  0  0  0  0  0  0  0  0  0
  182.4230  179.2020  139.1860 C   0  0  0  0  0  1  0  0  0  0  0  0
  188.1750  178.7410  141.0930 C   0  0  0  0  0  3  0  0  0  0  0  0
  184.7660  177.8960  138.3450 S   0  0  0  0  0  0  0  0  0  0  0  0
  189.5930  176.5380  135.8450 N   0  0  0  0  0  0  0  0  0  0  0  0
  187.0220  175.0720  136.5260 C   0  0  0  0  0  1  0  0  0  0  0  0
  190.3610  177.1300  134.7580 C   0  0  0  0  0  1  0  0  0  0  0  0
  186.1590  178.1070  139.2580 C   0  0  0  0  0  0  0  0  0  0  0  0
  183.8640  178.8920  139.3750 C   0  0  0  0  0  0  0  0  0  0  0  0
  185.8790  178.9410  140.3360 C   0  0  0  0  0  0  0  0  0  0  0  0
  189.3440  176.4680  138.3100 C   0  0  1  0  0  3  0  0  0  0  0  0
  187.4410  177.5860  139.0910 C   0  0  0  0  0  0  0  0  0  0  0  0
  188.2440  177.0940  135.7030 C   0  0  0  0  0  2  0  0  0  0  0  0
  186.8790  179.2710  141.2650 C   0  0  0  0  0  3  0  0  0  0  0  0
  191.5960  176.4410  137.2800 C   0  0  0  0  0  1  0  0  0  0  0  0
  190.1770  176.9790  137.1260 C   0  0  1  0  0  3  0  0  0  0  0  0
  187.3040  176.5440  136.7700 C   0  0  2  0  0  3  0  0  0  0  0  0
  190.1820  176.3300  140.6480 N   0  0  0  0  0  2  0  0  0  0  0  0
  190.8930  177.3460  144.6730 C   0  0  0  0  0  3  0  0  0  0  0  0
  190.4270  176.6800  142.0160 C   0  0  0  0  0  0  0  0  0  0  0  0
  189.6200  176.1320  143.0160 C   0  0  0  0  0  3  0  0  0  0  0  0
  189.8560  176.4690  144.3500 C   0  0  0  0  0  3  0  0  0  0  0  0
  191.6800  177.8750  143.6480 C   0  0  0  0  0  3  0  0  0  0  0  0
  191.4340  177.5340  142.3540 N   0  0  0  0  0  0  0  0  0  0  0  0
  1  2  1  0  0  0  0
  1 21  1  1  0  0  0
  2  6  1  0  0  0  0
  3 15  1  0  0  0  0
  5 12  1  0  0  0  0
  6 17  2  0  0  0  0
  7 11  1  0  0  0  0
  7 12  1  0  0  0  0
  8 19  1  0  0  0  0
 10  8  1  0  0  0  0
 11 13  2  0  0  0  0
 12  4  2  0  0  0  0
 13  4  1  0  0  0  0
 13 17  1  0  0  0  0
 14  3  1  6  0  0  0
 14  1  1  0  0  0  0
 15 11  1  0  0  0  0
 15  2  2  0  0  0  0
 16  8  1  0  0  0  0
 16 20  1  0  0  0  0
 19 18  1  1  0  0  0
 19 14  1  0  0  0  0
 20  9  1  6  0  0  0
 20  3  1  0  0  0  0
 21 23  1  0  0  0  0
 23 27  2  0  0  0  0
 23 24  1  0  0  0  0
 24 25  2  0  0  0  0
 25 22  1  0  0  0  0
 26 22  2  0  0  0  0
 27 26  1  0  0  0  0
M  END
>  <MODEL>
9

>  <REMARK>
 VINA RESULT:      -6.1      2.315      6.650
  Name = 
  2 active torsions:
  status: ('A' for Active; 'I' for Inactive)
    1  A    between atoms: C_1  and  N_15
    2  A    between atoms: C_9  and  N_15
                            x       y       z     vdW  Elec       q    Type
                         _______ _______ _______ _____ _____    ______ ____

>  <TORSDO>
F 2

$$$$
