=
 OpenBabel11052416113D

 43 48  0  0  1  0  0  0  0  0999 V2000
  188.4840  178.3000  139.4940 C   0  0  0  0  0  0  0  0  0  0  0  0
  183.3810  178.5680  139.8980 C   0  0  2  0  0  3  0  0  0  0  0  0
  182.7110  179.1850  142.6340 C   0  0  1  0  0  3  0  0  0  0  0  0
  186.1390  178.3100  139.0370 C   0  0  0  0  0  0  0  0  0  0  0  0
  188.2830  178.3280  140.9800 C   0  0  0  0  0  2  0  0  0  0  0  0
  189.6510  178.3140  139.0200 O   0  0  0  0  0  0  0  0  0  0  0  0
  185.8560  178.6030  140.4710 C   0  0  0  0  0  0  0  0  0  0  0  0
  187.3610  178.1870  138.6130 N   0  0  0  0  0  0  0  0  0  0  0  0
  186.8710  178.6880  141.3420 C   0  0  0  0  0  3  0  0  0  0  0  0
  184.1010  178.6500  142.3020 C   0  0  0  0  0  2  0  0  0  0  0  0
  184.4710  179.0590  140.8740 C   0  0  2  0  0  3  0  0  0  0  0  0
  183.7920  178.9550  138.4740 C   0  0  0  0  0  2  0  0  0  0  0  0
  182.0770  179.1510  140.2620 N   0  0  0  0  0  0  0  0  0  0  0  0
  181.7120  178.6780  141.5990 C   0  0  0  0  0  2  0  0  0  0  0  0
  185.0140  178.1410  138.0590 C   0  0  0  0  0  2  0  0  0  0  0  0
  182.2880  178.7830  144.0150 C   0  0  0  0  0  0  0  0  0  0  0  0
  183.1610  178.9840  145.1320 N   0  0  0  0  0  2  0  0  0  0  0  0
  181.1480  178.2780  144.2060 O   0  0  0  0  0  0  0  0  0  0  0  0
  184.4300  179.6870  145.0220 C   0  0  0  0  0  2  0  0  0  0  0  0
  185.5760  178.7030  145.1570 C   0  0  0  0  0  2  0  0  0  0  0  0
  186.3270  178.9710  146.4450 C   0  0  0  0  0  2  0  0  0  0  0  0
  186.9700  177.6870  146.9520 C   0  0  2  0  0  3  0  0  0  0  0  0
  189.3690  177.6610  147.2900 C   0  0  0  0  0  2  0  0  0  0  0  0
  188.4570  177.0130  145.0100 C   0  0  0  0  0  0  0  0  0  0  0  0
  187.2320  177.8060  148.4420 C   0  0  0  0  0  2  0  0  0  0  0  0
  188.2790  177.5180  146.3430 N   0  0  0  0  0  0  0  0  0  0  0  0
  187.5640  176.2790  144.5040 O   0  0  0  0  0  0  0  0  0  0  0  0
  188.7270  178.0560  148.6060 C   0  0  0  0  0  2  0  0  0  0  0  0
  189.6470  177.3610  144.2010 C   0  0  0  0  0  0  0  0  0  0  0  0
  191.3190  178.9950  143.5220 C   0  0  0  0  0  3  0  0  0  0  0  0
  191.4530  176.7210  142.7010 C   0  0  0  0  0  3  0  0  0  0  0  0
  191.9600  178.0230  142.7460 C   0  0  0  0  0  3  0  0  0  0  0  0
  190.3030  176.3910  143.4280 C   0  0  0  0  0  3  0  0  0  0  0  0
  190.1720  178.6640  144.2490 C   0  0  0  0  0  3  0  0  0  0  0  0
  181.0530  178.6200  139.3640 C   0  0  0  0  0  2  0  0  0  0  0  0
  179.6640  181.0750  136.7210 C   0  0  0  0  0  2  0  0  0  0  0  0
  179.7770  182.3770  137.5240 C   0  0  1  0  0  3  0  0  0  0  0  0
  180.3520  181.0310  139.5850 C   0  0  0  0  0  2  0  0  0  0  0  0
  180.5530  179.9800  137.3070 C   0  0  0  0  0  2  0  0  0  0  0  0
  180.1990  179.7420  138.7750 C   0  0  1  0  0  3  0  0  0  0  0  0
  179.4660  182.1320  139.0040 C   0  0  0  0  0  2  0  0  0  0  0  0
  180.9240  184.4080  137.2890 C   0  0  0  0  0  1  0  0  0  0  0  0
  181.1020  182.9650  137.3700 N   0  0  0  0  0  2  0  0  0  0  0  0
  1  5  1  0  0  0  0
  2 12  1  6  0  0  0
  2 13  1  0  0  0  0
  2 11  1  0  0  0  0
  3 16  1  1  0  0  0
  4  7  1  0  0  0  0
  5  9  1  0  0  0  0
  6  1  2  0  0  0  0
  7 11  1  0  0  0  0
  7  9  2  0  0  0  0
  8  4  2  0  0  0  0
  8  1  1  0  0  0  0
 10  3  1  0  0  0  0
 11 10  1  1  0  0  0
 13 14  1  0  0  0  0
 14  3  1  0  0  0  0
 15 12  1  0  0  0  0
 15  4  1  0  0  0  0
 16 18  2  0  0  0  0
 16 17  1  0  0  0  0
 19 17  1  0  0  0  0
 19 20  1  0  0  0  0
 20 21  1  0  0  0  0
 22 21  1  6  0  0  0
 22 25  1  0  0  0  0
 23 28  1  0  0  0  0
 24 26  1  0  0  0  0
 25 28  1  0  0  0  0
 26 22  1  0  0  0  0
 26 23  1  0  0  0  0
 27 24  2  0  0  0  0
 29 34  1  0  0  0  0
 29 24  1  0  0  0  0
 30 34  2  0  0  0  0
 31 32  2  0  0  0  0
 31 33  1  0  0  0  0
 32 30  1  0  0  0  0
 33 29  2  0  0  0  0
 35 13  1  0  0  0  0
 36 39  1  0  0  0  0
 36 37  1  0  0  0  0
 37 43  1  1  0  0  0
 37 41  1  0  0  0  0
 39 40  1  0  0  0  0
 40 35  1  1  0  0  0
 40 38  1  0  0  0  0
 41 38  1  0  0  0  0
 42 43  1  0  0  0  0
M  END
>  <MODEL>
1

>  <REMARK>
 VINA RESULT:      -9.3      0.000      0.000
  Name = 
  9 active torsions:
  status: ('A' for Active; 'I' for Inactive)
    1  A    between atoms: C_1  and  N_34
    2  A    between atoms: C_1  and  C_35
    3  A    between atoms: C_2  and  C_13
    4  A    between atoms: C_3  and  C_4
    5  A    between atoms: C_3  and  C_12
    6  A    between atoms: N_6  and  C_17
    7  A    between atoms: C_11  and  C_14
    8  A    between atoms: C_12  and  C_17
    9  A    between atoms: C_19  and  N_37
                            x       y       z     vdW  Elec       q    Type
                         _______ _______ _______ _____ _____    ______ ____

>  <TORSDO>
F 9

$$$$
=
 OpenBabel11052416113D

 43 48  0  0  1  0  0  0  0  0999 V2000
  191.2480  176.3510  147.0320 C   0  0  0  0  0  0  0  0  0  0  0  0
  187.2960  178.1070  144.2780 C   0  0  2  0  0  3  0  0  0  0  0  0
  187.8820  177.7120  141.4820 C   0  0  1  0  0  3  0  0  0  0  0  0
  189.1580  177.2840  146.3460 C   0  0  0  0  0  0  0  0  0  0  0  0
  191.8060  176.3540  145.6400 C   0  0  0  0  0  2  0  0  0  0  0  0
  191.9380  175.8940  147.9810 O   0  0  0  0  0  0  0  0  0  0  0  0
  189.5300  177.0780  144.9170 C   0  0  0  0  0  0  0  0  0  0  0  0
  189.9650  176.9280  147.3000 N   0  0  0  0  0  0  0  0  0  0  0  0
  190.7320  176.5690  144.6130 C   0  0  0  0  0  3  0  0  0  0  0  0
  189.0150  177.6650  142.5030 C   0  0  0  0  0  2  0  0  0  0  0  0
  188.4630  177.1920  143.8500 C   0  0  2  0  0  3  0  0  0  0  0  0
  186.7870  177.6370  145.6450 C   0  0  0  0  0  2  0  0  0  0  0  0
  186.2290  178.0740  143.2620 N   0  0  0  0  0  0  0  0  0  0  0  0
  186.7640  178.6060  142.0070 C   0  0  0  0  0  2  0  0  0  0  0  0
  187.8470  177.9170  146.7060 C   0  0  0  0  0  2  0  0  0  0  0  0
  188.3670  178.2000  140.1510 C   0  0  0  0  0  0  0  0  0  0  0  0
  187.4590  178.3520  139.0550 N   0  0  0  0  0  2  0  0  0  0  0  0
  189.5820  178.4990  139.9920 O   0  0  0  0  0  0  0  0  0  0  0  0
  186.0220  178.1660  139.1930 C   0  0  0  0  0  2  0  0  0  0  0  0
  185.3780  178.1030  137.8210 C   0  0  0  0  0  2  0  0  0  0  0  0
  186.4520  178.1370  136.7540 C   0  0  0  0  0  2  0  0  0  0  0  0
  186.3800  176.8790  135.8990 C   0  0  2  0  0  3  0  0  0  0  0  0
  187.0880  174.7820  136.8840 C   0  0  0  0  0  2  0  0  0  0  0  0
  188.8200  176.2120  135.7000 C   0  0  0  0  0  0  0  0  0  0  0  0
  185.1350  176.0910  136.2620 C   0  0  0  0  0  2  0  0  0  0  0  0
  187.4960  176.0040  136.2180 N   0  0  0  0  0  0  0  0  0  0  0  0
  188.9670  176.8480  134.6190 O   0  0  0  0  0  0  0  0  0  0  0  0
  185.5940  174.9120  137.1120 C   0  0  0  0  0  2  0  0  0  0  0  0
  190.0200  175.7280  136.4190 C   0  0  0  0  0  0  0  0  0  0  0  0
  191.5770  173.9290  136.9310 C   0  0  0  0  0  3  0  0  0  0  0  0
  191.9610  176.1460  137.8260 C   0  0  0  0  0  3  0  0  0  0  0  0
  192.3470  174.8080  137.7000 C   0  0  0  0  0  3  0  0  0  0  0  0
  190.8050  176.6050  137.1850 C   0  0  0  0  0  3  0  0  0  0  0  0
  190.4230  174.3880  136.2900 C   0  0  0  0  0  3  0  0  0  0  0  0
  185.1670  178.9960  143.6600 C   0  0  0  0  0  2  0  0  0  0  0  0
  182.1030  178.2010  141.4410 C   0  0  0  0  0  2  0  0  0  0  0  0
  180.9970  178.7070  142.3750 C   0  0  1  0  0  3  0  0  0  0  0  0
  182.7080  178.9940  144.2130 C   0  0  0  0  0  2  0  0  0  0  0  0
  183.4630  178.7840  141.8210 C   0  0  0  0  0  2  0  0  0  0  0  0
  183.7910  178.4530  143.2770 C   0  0  1  0  0  3  0  0  0  0  0  0
  181.3450  178.4160  143.8380 C   0  0  0  0  0  2  0  0  0  0  0  0
  179.4460  180.4330  142.7140 C   0  0  0  0  0  1  0  0  0  0  0  0
  180.7660  180.1320  142.1770 N   0  0  0  0  0  2  0  0  0  0  0  0
  1  8  1  0  0  0  0
  1  6  2  0  0  0  0
  2 12  1  1  0  0  0
  3 16  1  6  0  0  0
  3 14  1  0  0  0  0
  3 10  1  0  0  0  0
  4 15  1  0  0  0  0
  4  8  2  0  0  0  0
  5  1  1  0  0  0  0
  7  4  1  0  0  0  0
  9  7  2  0  0  0  0
  9  5  1  0  0  0  0
 11 10  1  6  0  0  0
 11  2  1  0  0  0  0
 11  7  1  0  0  0  0
 12 15  1  0  0  0  0
 13 35  1  0  0  0  0
 13  2  1  0  0  0  0
 14 13  1  0  0  0  0
 17 19  1  0  0  0  0
 17 16  1  0  0  0  0
 18 16  2  0  0  0  0
 20 19  1  0  0  0  0
 21 20  1  0  0  0  0
 22 26  1  0  0  0  0
 22 25  1  0  0  0  0
 22 21  1  1  0  0  0
 23 28  1  0  0  0  0
 24 26  1  0  0  0  0
 24 29  1  0  0  0  0
 25 28  1  0  0  0  0
 26 23  1  0  0  0  0
 27 24  2  0  0  0  0
 29 33  1  0  0  0  0
 30 32  2  0  0  0  0
 32 31  1  0  0  0  0
 33 31  2  0  0  0  0
 34 29  2  0  0  0  0
 34 30  1  0  0  0  0
 36 39  1  0  0  0  0
 36 37  1  0  0  0  0
 37 43  1  1  0  0  0
 37 41  1  0  0  0  0
 39 40  1  0  0  0  0
 40 35  1  1  0  0  0
 40 38  1  0  0  0  0
 41 38  1  0  0  0  0
 43 42  1  0  0  0  0
M  END
>  <MODEL>
2

>  <REMARK>
 VINA RESULT:      -9.2      3.116      7.772
  Name = 
  9 active torsions:
  status: ('A' for Active; 'I' for Inactive)
    1  A    between atoms: C_1  and  N_34
    2  A    between atoms: C_1  and  C_35
    3  A    between atoms: C_2  and  C_13
    4  A    between atoms: C_3  and  C_4
    5  A    between atoms: C_3  and  C_12
    6  A    between atoms: N_6  and  C_17
    7  A    between atoms: C_11  and  C_14
    8  A    between atoms: C_12  and  C_17
    9  A    between atoms: C_19  and  N_37
                            x       y       z     vdW  Elec       q    Type
                         _______ _______ _______ _____ _____    ______ ____

>  <TORSDO>
F 9

$$$$
=
 OpenBabel11052416113D

 43 48  0  0  1  0  0  0  0  0999 V2000
  191.0890  176.7020  147.0900 C   0  0  0  0  0  0  0  0  0  0  0  0
  186.8210  178.1500  144.6480 C   0  0  2  0  0  3  0  0  0  0  0  0
  187.2110  177.7650  141.8160 C   0  0  1  0  0  3  0  0  0  0  0  0
  188.8930  177.4810  146.5660 C   0  0  0  0  0  0  0  0  0  0  0  0
  191.5350  176.7270  145.6580 C   0  0  0  0  0  2  0  0  0  0  0  0
  191.8820  176.3040  147.9840 O   0  0  0  0  0  0  0  0  0  0  0  0
  189.1650  177.2850  145.1130 C   0  0  0  0  0  0  0  0  0  0  0  0
  189.7950  177.1920  147.4550 N   0  0  0  0  0  0  0  0  0  0  0  0
  190.3710  176.8560  144.7180 C   0  0  0  0  0  3  0  0  0  0  0  0
  188.4220  177.8080  142.7450 C   0  0  0  0  0  2  0  0  0  0  0  0
  188.0120  177.3130  144.1330 C   0  0  2  0  0  3  0  0  0  0  0  0
  186.4540  177.6630  146.0530 C   0  0  0  0  0  2  0  0  0  0  0  0
  185.6830  178.0330  143.7190 N   0  0  0  0  0  0  0  0  0  0  0  0
  186.0790  178.5870  142.4230 C   0  0  0  0  0  2  0  0  0  0  0  0
  187.5730  178.0260  147.0250 C   0  0  0  0  0  2  0  0  0  0  0  0
  187.5550  178.2710  140.4480 C   0  0  0  0  0  0  0  0  0  0  0  0
  188.8360  177.9970  139.8700 N   0  0  0  0  0  2  0  0  0  0  0  0
  186.7080  178.9300  139.7860 O   0  0  0  0  0  0  0  0  0  0  0  0
  189.8160  177.1280  140.5050 C   0  0  0  0  0  2  0  0  0  0  0  0
  190.9980  176.9240  139.5780 C   0  0  0  0  0  2  0  0  0  0  0  0
  190.6150  175.9680  138.4670 C   0  0  0  0  0  2  0  0  0  0  0  0
  191.0610  176.5240  137.1220 C   0  0  2  0  0  3  0  0  0  0  0  0
  191.8060  174.9620  135.4250 C   0  0  0  0  0  2  0  0  0  0  0  0
  193.5180  175.8910  137.0550 C   0  0  0  0  0  0  0  0  0  0  0  0
  189.9410  176.3650  136.1100 C   0  0  0  0  0  2  0  0  0  0  0  0
  192.1640  175.7300  136.6030 N   0  0  0  0  0  0  0  0  0  0  0  0
  193.8760  176.9970  137.5480 O   0  0  0  0  0  0  0  0  0  0  0  0
  190.3220  175.1920  135.2150 C   0  0  0  0  0  2  0  0  0  0  0  0
  194.4950  174.7810  136.9900 C   0  0  0  0  0  0  0  0  0  0  0  0
  195.2840  172.6290  137.8090 C   0  0  0  0  0  3  0  0  0  0  0  0
  196.3840  173.6780  135.9240 C   0  0  0  0  0  3  0  0  0  0  0  0
  196.2810  172.6160  136.8280 C   0  0  0  0  0  3  0  0  0  0  0  0
  195.4920  174.7540  136.0030 C   0  0  0  0  0  3  0  0  0  0  0  0
  194.3930  173.7030  137.8860 C   0  0  0  0  0  3  0  0  0  0  0  0
  184.5940  178.8840  144.1950 C   0  0  0  0  0  2  0  0  0  0  0  0
  181.7580  178.5650  141.5860 C   0  0  0  0  0  2  0  0  0  0  0  0
  180.5720  178.9470  142.4790 C   0  0  1  0  0  3  0  0  0  0  0  0
  182.0910  178.8730  144.4970 C   0  0  0  0  0  2  0  0  0  0  0  0
  183.0820  179.0330  142.1880 C   0  0  0  0  0  2  0  0  0  0  0  0
  183.2550  178.4570  143.5940 C   0  0  1  0  0  3  0  0  0  0  0  0
  180.7640  178.4090  143.9000 C   0  0  0  0  0  2  0  0  0  0  0  0
  179.2810  180.6960  141.6010 C   0  0  0  0  0  1  0  0  0  0  0  0
  180.3850  180.3930  142.5000 N   0  0  0  0  0  2  0  0  0  0  0  0
  1  8  1  0  0  0  0
  1  6  2  0  0  0  0
  2 12  1  1  0  0  0
  3 16  1  6  0  0  0
  3 14  1  0  0  0  0
  3 10  1  0  0  0  0
  4 15  1  0  0  0  0
  4  8  2  0  0  0  0
  5  1  1  0  0  0  0
  7  4  1  0  0  0  0
  9  7  2  0  0  0  0
  9  5  1  0  0  0  0
 11 10  1  6  0  0  0
 11  2  1  0  0  0  0
 11  7  1  0  0  0  0
 12 15  1  0  0  0  0
 13 35  1  0  0  0  0
 13  2  1  0  0  0  0
 14 13  1  0  0  0  0
 17 16  1  0  0  0  0
 17 19  1  0  0  0  0
 18 16  2  0  0  0  0
 20 19  1  0  0  0  0
 21 20  1  0  0  0  0
 22 21  1  1  0  0  0
 23 26  1  0  0  0  0
 24 27  2  0  0  0  0
 25 22  1  0  0  0  0
 26 24  1  0  0  0  0
 26 22  1  0  0  0  0
 28 23  1  0  0  0  0
 28 25  1  0  0  0  0
 29 24  1  0  0  0  0
 29 34  1  0  0  0  0
 30 34  2  0  0  0  0
 31 33  1  0  0  0  0
 31 32  2  0  0  0  0
 32 30  1  0  0  0  0
 33 29  2  0  0  0  0
 36 39  1  0  0  0  0
 36 37  1  0  0  0  0
 37 43  1  1  0  0  0
 37 41  1  0  0  0  0
 39 40  1  0  0  0  0
 40 35  1  1  0  0  0
 40 38  1  0  0  0  0
 41 38  1  0  0  0  0
 42 43  1  0  0  0  0
M  END
>  <MODEL>
3

>  <REMARK>
 VINA RESULT:      -9.1      3.985      8.061
  Name = 
  9 active torsions:
  status: ('A' for Active; 'I' for Inactive)
    1  A    between atoms: C_1  and  N_34
    2  A    between atoms: C_1  and  C_35
    3  A    between atoms: C_2  and  C_13
    4  A    between atoms: C_3  and  C_4
    5  A    between atoms: C_3  and  C_12
    6  A    between atoms: N_6  and  C_17
    7  A    between atoms: C_11  and  C_14
    8  A    between atoms: C_12  and  C_17
    9  A    between atoms: C_19  and  N_37
                            x       y       z     vdW  Elec       q    Type
                         _______ _______ _______ _____ _____    ______ ____

>  <TORSDO>
F 9

$$$$
=
 OpenBabel11052416113D

 43 48  0  0  1  0  0  0  0  0999 V2000
  191.6220  176.5780  147.3610 C   0  0  0  0  0  0  0  0  0  0  0  0
  189.5130  177.1180  142.7200 C   0  0  2  0  0  3  0  0  0  0  0  0
  186.9670  178.4380  143.0200 C   0  0  1  0  0  3  0  0  0  0  0  0
  191.2030  176.5510  145.0090 C   0  0  0  0  0  0  0  0  0  0  0  0
  190.2200  176.9930  147.6950 C   0  0  0  0  0  2  0  0  0  0  0  0
  192.4660  176.4290  148.2830 O   0  0  0  0  0  0  0  0  0  0  0  0
  189.8850  177.2120  145.2320 C   0  0  0  0  0  0  0  0  0  0  0  0
  191.9880  176.2820  146.0090 N   0  0  0  0  0  0  0  0  0  0  0  0
  189.4830  177.4830  146.4810 C   0  0  0  0  0  3  0  0  0  0  0  0
  187.6260  177.7880  144.2330 C   0  0  0  0  0  2  0  0  0  0  0  0
  189.1450  177.8040  144.0520 C   0  0  2  0  0  3  0  0  0  0  0  0
  191.0380  177.1120  142.5800 C   0  0  0  0  0  2  0  0  0  0  0  0
  188.8690  177.8190  141.5950 N   0  0  0  0  0  0  0  0  0  0  0  0
  187.4160  177.7180  141.7530 C   0  0  0  0  0  2  0  0  0  0  0  0
  191.6410  176.1760  143.6240 C   0  0  0  0  0  2  0  0  0  0  0  0
  185.4730  178.4190  143.1350 C   0  0  0  0  0  0  0  0  0  0  0  0
  184.6510  178.7660  142.0150 N   0  0  0  0  0  2  0  0  0  0  0  0
  184.9260  178.0780  144.2190 O   0  0  0  0  0  0  0  0  0  0  0  0
  185.1950  179.0330  140.6920 C   0  0  0  0  0  2  0  0  0  0  0  0
  184.1620  178.6980  139.6340 C   0  0  0  0  0  2  0  0  0  0  0  0
  183.1900  177.6720  140.1790 C   0  0  0  0  0  2  0  0  0  0  0  0
  181.9940  177.5380  139.2460 C   0  0  2  0  0  3  0  0  0  0  0  0
  180.8420  175.4080  139.1590 C   0  0  0  0  0  2  0  0  0  0  0  0
  182.7920  175.7990  137.5800 C   0  0  0  0  0  0  0  0  0  0  0  0
  180.7110  177.6680  140.0460 C   0  0  0  0  0  2  0  0  0  0  0  0
  181.9600  176.1990  138.6800 N   0  0  0  0  0  0  0  0  0  0  0  0
  183.2220  176.6770  136.7810 O   0  0  0  0  0  0  0  0  0  0  0  0
  180.1440  176.2620  140.2000 C   0  0  0  0  0  2  0  0  0  0  0  0
  183.1860  174.3860  137.3780 C   0  0  0  0  0  0  0  0  0  0  0  0
  182.6470  172.1500  136.5830 C   0  0  0  0  0  3  0  0  0  0  0  0
  184.8600  172.6210  137.4470 C   0  0  0  0  0  3  0  0  0  0  0  0
  183.9400  171.7210  136.8990 C   0  0  0  0  0  3  0  0  0  0  0  0
  184.4850  173.9490  137.6820 C   0  0  0  0  0  3  0  0  0  0  0  0
  182.2740  173.4760  136.8170 C   0  0  0  0  0  3  0  0  0  0  0  0
  189.1800  177.1120  140.3540 C   0  0  0  0  0  2  0  0  0  0  0  0
  187.0750  177.3140  137.1180 C   0  0  0  0  0  2  0  0  0  0  0  0
  187.9990  178.2160  136.2910 C   0  0  1  0  0  3  0  0  0  0  0  0
  189.4140  178.6170  138.3460 C   0  0  0  0  0  2  0  0  0  0  0  0
  187.8240  176.6670  138.2820 C   0  0  0  0  0  2  0  0  0  0  0  0
  188.4600  177.7420  139.1630 C   0  0  1  0  0  3  0  0  0  0  0  0
  188.6730  179.2670  137.1790 C   0  0  0  0  0  2  0  0  0  0  0  0
  188.2850  176.5410  134.6760 C   0  0  0  0  0  1  0  0  0  0  0  0
  188.9990  177.4240  135.5870 N   0  0  0  0  0  2  0  0  0  0  0  0
  1  5  1  0  0  0  0
  1  6  2  0  0  0  0
  2 12  1  6  0  0  0
  2 11  1  0  0  0  0
  3 16  1  1  0  0  0
  3 10  1  0  0  0  0
  4  7  1  0  0  0  0
  4  8  2  0  0  0  0
  7  9  2  0  0  0  0
  8  1  1  0  0  0  0
  9  5  1  0  0  0  0
 11 10  1  1  0  0  0
 11  7  1  0  0  0  0
 12 15  1  0  0  0  0
 13 14  1  0  0  0  0
 13  2  1  0  0  0  0
 14  3  1  0  0  0  0
 15  4  1  0  0  0  0
 16 18  2  0  0  0  0
 17 16  1  0  0  0  0
 19 17  1  0  0  0  0
 20 21  1  0  0  0  0
 20 19  1  0  0  0  0
 22 25  1  0  0  0  0
 22 21  1  1  0  0  0
 23 28  1  0  0  0  0
 24 26  1  0  0  0  0
 25 28  1  0  0  0  0
 26 23  1  0  0  0  0
 26 22  1  0  0  0  0
 27 24  2  0  0  0  0
 29 24  1  0  0  0  0
 29 33  1  0  0  0  0
 30 34  1  0  0  0  0
 30 32  2  0  0  0  0
 31 33  2  0  0  0  0
 32 31  1  0  0  0  0
 34 29  2  0  0  0  0
 35 13  1  0  0  0  0
 36 39  1  0  0  0  0
 37 43  1  1  0  0  0
 37 36  1  0  0  0  0
 37 41  1  0  0  0  0
 38 40  1  0  0  0  0
 39 40  1  0  0  0  0
 40 35  1  1  0  0  0
 41 38  1  0  0  0  0
 42 43  1  0  0  0  0
M  END
>  <MODEL>
4

>  <REMARK>
 VINA RESULT:      -9.1      3.267      8.584
  Name = 
  9 active torsions:
  status: ('A' for Active; 'I' for Inactive)
    1  A    between atoms: C_1  and  N_34
    2  A    between atoms: C_1  and  C_35
    3  A    between atoms: C_2  and  C_13
    4  A    between atoms: C_3  and  C_4
    5  A    between atoms: C_3  and  C_12
    6  A    between atoms: N_6  and  C_17
    7  A    between atoms: C_11  and  C_14
    8  A    between atoms: C_12  and  C_17
    9  A    between atoms: C_19  and  N_37
                            x       y       z     vdW  Elec       q    Type
                         _______ _______ _______ _____ _____    ______ ____

>  <TORSDO>
F 9

$$$$
=
 OpenBabel11052416113D

 43 48  0  0  1  0  0  0  0  0999 V2000
  191.4970  176.7220  147.2630 C   0  0  0  0  0  0  0  0  0  0  0  0
  189.1080  177.2400  142.7570 C   0  0  2  0  0  3  0  0  0  0  0  0
  186.5350  178.4590  143.2200 C   0  0  1  0  0  3  0  0  0  0  0  0
  190.9450  176.7090  144.9390 C   0  0  0  0  0  0  0  0  0  0  0  0
  190.1020  177.0800  147.6820 C   0  0  0  0  0  2  0  0  0  0  0  0
  192.3970  176.5940  148.1340 O   0  0  0  0  0  0  0  0  0  0  0  0
  189.6190  177.3170  145.2450 C   0  0  0  0  0  0  0  0  0  0  0  0
  191.7960  176.4570  145.8880 N   0  0  0  0  0  0  0  0  0  0  0  0
  189.2790  177.5570  146.5190 C   0  0  0  0  0  3  0  0  0  0  0  0
  187.2860  177.8200  144.3840 C   0  0  0  0  0  2  0  0  0  0  0  0
  188.7910  177.8950  144.1180 C   0  0  2  0  0  3  0  0  0  0  0  0
  190.6220  177.2940  142.5310 C   0  0  0  0  0  2  0  0  0  0  0  0
  188.3750  177.9310  141.6810 N   0  0  0  0  0  0  0  0  0  0  0  0
  186.9380  177.7730  141.9190 C   0  0  0  0  0  2  0  0  0  0  0  0
  191.3170  176.3690  143.5260 C   0  0  0  0  0  2  0  0  0  0  0  0
  185.0520  178.3820  143.4190 C   0  0  0  0  0  0  0  0  0  0  0  0
  184.1560  178.6790  142.3430 N   0  0  0  0  0  2  0  0  0  0  0  0
  184.5810  178.0360  144.5360 O   0  0  0  0  0  0  0  0  0  0  0  0
  184.6150  178.9470  140.9880 C   0  0  0  0  0  2  0  0  0  0  0  0
  183.7640  178.1770  139.9960 C   0  0  0  0  0  2  0  0  0  0  0  0
  183.3780  179.0840  138.8460 C   0  0  0  0  0  2  0  0  0  0  0  0
  182.0080  178.6940  138.3090 C   0  0  2  0  0  3  0  0  0  0  0  0
  181.4040  179.4110  136.0740 C   0  0  0  0  0  2  0  0  0  0  0  0
  180.8680  180.9430  138.0280 C   0  0  0  0  0  0  0  0  0  0  0  0
  182.1480  177.5000  137.3820 C   0  0  0  0  0  2  0  0  0  0  0  0
  181.4810  179.7650  137.4790 N   0  0  0  0  0  0  0  0  0  0  0  0
  180.3500  180.8910  139.1780 O   0  0  0  0  0  0  0  0  0  0  0  0
  182.0260  178.0320  135.9590 C   0  0  0  0  0  2  0  0  0  0  0  0
  180.8580  182.2280  137.2910 C   0  0  0  0  0  0  0  0  0  0  0  0
  181.6240  184.5280  137.0740 C   0  0  0  0  0  3  0  0  0  0  0  0
  180.2100  183.5620  135.3630 C   0  0  0  0  0  3  0  0  0  0  0  0
  180.9320  184.6490  135.8650 C   0  0  0  0  0  3  0  0  0  0  0  0
  180.1760  182.3560  136.0720 C   0  0  0  0  0  3  0  0  0  0  0  0
  181.5910  183.3230  137.7810 C   0  0  0  0  0  3  0  0  0  0  0  0
  188.6400  177.2510  140.4150 C   0  0  0  0  0  2  0  0  0  0  0  0
  186.6520  178.3190  137.2750 C   0  0  0  0  0  2  0  0  0  0  0  0
  187.8300  178.6670  136.3570 C   0  0  1  0  0  3  0  0  0  0  0  0
  189.4060  178.4210  138.3170 C   0  0  0  0  0  2  0  0  0  0  0  0
  187.0950  177.4300  138.4360 C   0  0  0  0  0  2  0  0  0  0  0  0
  188.2140  178.1110  139.2260 C   0  0  1  0  0  3  0  0  0  0  0  0
  188.9710  179.3090  137.1530 C   0  0  0  0  0  2  0  0  0  0  0  0
  187.2140  177.0290  134.7970 C   0  0  0  0  0  1  0  0  0  0  0  0
  188.3030  177.4830  135.6510 N   0  0  0  0  0  2  0  0  0  0  0  0
  1  5  1  0  0  0  0
  1  6  2  0  0  0  0
  2 12  1  6  0  0  0
  2 11  1  0  0  0  0
  3 16  1  1  0  0  0
  3 10  1  0  0  0  0
  4  7  1  0  0  0  0
  4  8  2  0  0  0  0
  7  9  2  0  0  0  0
  8  1  1  0  0  0  0
  9  5  1  0  0  0  0
 11 10  1  1  0  0  0
 11  7  1  0  0  0  0
 12 15  1  0  0  0  0
 13 14  1  0  0  0  0
 13  2  1  0  0  0  0
 14  3  1  0  0  0  0
 15  4  1  0  0  0  0
 16 18  2  0  0  0  0
 17 16  1  0  0  0  0
 19 17  1  0  0  0  0
 20 19  1  0  0  0  0
 21 20  1  0  0  0  0
 22 21  1  6  0  0  0
 23 26  1  0  0  0  0
 24 27  2  0  0  0  0
 25 22  1  0  0  0  0
 26 24  1  0  0  0  0
 26 22  1  0  0  0  0
 28 23  1  0  0  0  0
 28 25  1  0  0  0  0
 29 34  1  0  0  0  0
 29 24  1  0  0  0  0
 30 34  2  0  0  0  0
 31 32  2  0  0  0  0
 31 33  1  0  0  0  0
 32 30  1  0  0  0  0
 33 29  2  0  0  0  0
 35 13  1  0  0  0  0
 36 39  1  0  0  0  0
 37 43  1  1  0  0  0
 37 41  1  0  0  0  0
 37 36  1  0  0  0  0
 38 40  1  0  0  0  0
 39 40  1  0  0  0  0
 40 35  1  1  0  0  0
 41 38  1  0  0  0  0
 42 43  1  0  0  0  0
M  END
>  <MODEL>
5

>  <REMARK>
 VINA RESULT:      -9.0      2.339      9.220
  Name = 
  9 active torsions:
  status: ('A' for Active; 'I' for Inactive)
    1  A    between atoms: C_1  and  N_34
    2  A    between atoms: C_1  and  C_35
    3  A    between atoms: C_2  and  C_13
    4  A    between atoms: C_3  and  C_4
    5  A    between atoms: C_3  and  C_12
    6  A    between atoms: N_6  and  C_17
    7  A    between atoms: C_11  and  C_14
    8  A    between atoms: C_12  and  C_17
    9  A    between atoms: C_19  and  N_37
                            x       y       z     vdW  Elec       q    Type
                         _______ _______ _______ _____ _____    ______ ____

>  <TORSDO>
F 9

$$$$
=
 OpenBabel11052416113D

 43 48  0  0  1  0  0  0  0  0999 V2000
  190.7830  176.7120  146.5350 C   0  0  0  0  0  0  0  0  0  0  0  0
  187.3840  178.0830  142.9510 C   0  0  2  0  0  3  0  0  0  0  0  0
  188.5980  177.7360  140.3580 C   0  0  1  0  0  3  0  0  0  0  0  0
  188.8180  177.4440  145.3900 C   0  0  0  0  0  0  0  0  0  0  0  0
  191.6290  176.7630  145.2970 C   0  0  0  0  0  2  0  0  0  0  0  0
  191.2880  176.3240  147.6210 O   0  0  0  0  0  0  0  0  0  0  0  0
  189.5090  177.2690  144.0810 C   0  0  0  0  0  0  0  0  0  0  0  0
  189.4260  177.1670  146.5050 N   0  0  0  0  0  0  0  0  0  0  0  0
  190.7890  176.8730  144.0570 C   0  0  0  0  0  3  0  0  0  0  0  0
  189.4810  177.7980  141.6010 C   0  0  0  0  0  2  0  0  0  0  0  0
  188.6940  177.2800  142.8060 C   0  0  2  0  0  3  0  0  0  0  0  0
  186.6340  177.5720  144.1850 C   0  0  0  0  0  2  0  0  0  0  0  0
  186.5720  177.9480  141.7290 N   0  0  0  0  0  0  0  0  0  0  0  0
  187.3170  178.5250  140.6070 C   0  0  0  0  0  2  0  0  0  0  0  0
  187.4080  177.9520  145.4440 C   0  0  0  0  0  2  0  0  0  0  0  0
  189.3150  178.2640  139.1520 C   0  0  0  0  0  0  0  0  0  0  0  0
  190.3680  177.5100  138.5420 N   0  0  0  0  0  2  0  0  0  0  0  0
  188.9830  179.3740  138.6540 O   0  0  0  0  0  0  0  0  0  0  0  0
  190.7180  176.1630  138.9660 C   0  0  0  0  0  2  0  0  0  0  0  0
  191.2480  175.3740  137.7840 C   0  0  0  0  0  2  0  0  0  0  0  0
  190.2940  174.2440  137.4570 C   0  0  0  0  0  2  0  0  0  0  0  0
  189.9430  174.2680  135.9760 C   0  0  2  0  0  3  0  0  0  0  0  0
  187.7930  175.1730  135.3200 C   0  0  0  0  0  2  0  0  0  0  0  0
  187.9540  172.6970  135.8590 C   0  0  0  0  0  0  0  0  0  0  0  0
  190.1730  175.6620  135.4220 C   0  0  0  0  0  2  0  0  0  0  0  0
  188.5210  174.0150  135.8030 N   0  0  0  0  0  0  0  0  0  0  0  0
  188.6820  171.7000  135.5940 O   0  0  0  0  0  0  0  0  0  0  0  0
  188.8010  176.3060  135.2690 C   0  0  0  0  0  2  0  0  0  0  0  0
  186.5430  172.4750  136.2520 C   0  0  0  0  0  0  0  0  0  0  0  0
  184.4330  171.3070  135.9260 C   0  0  0  0  0  3  0  0  0  0  0  0
  184.6740  172.8720  137.7580 C   0  0  0  0  0  3  0  0  0  0  0  0
  183.8920  171.9660  137.0350 C   0  0  0  0  0  3  0  0  0  0  0  0
  185.9950  173.1220  137.3690 C   0  0  0  0  0  3  0  0  0  0  0  0
  185.7530  171.5570  135.5390 C   0  0  0  0  0  3  0  0  0  0  0  0
  185.3700  178.7680  141.8650 C   0  0  0  0  0  2  0  0  0  0  0  0
  183.3100  178.6360  138.5970 C   0  0  0  0  0  2  0  0  0  0  0  0
  181.9030  178.7440  139.1990 C   0  0  1  0  0  3  0  0  0  0  0  0
  182.8930  178.4670  141.5080 C   0  0  0  0  0  2  0  0  0  0  0  0
  184.3750  179.1170  139.5800 C   0  0  0  0  0  2  0  0  0  0  0  0
  184.2840  178.3260  140.8860 C   0  0  1  0  0  3  0  0  0  0  0  0
  181.8210  177.9900  140.5300 C   0  0  0  0  0  2  0  0  0  0  0  0
  181.1300  180.6490  138.0720 C   0  0  0  0  0  1  0  0  0  0  0  0
  181.5240  180.1400  139.3780 N   0  0  0  0  0  2  0  0  0  0  0  0
  1  6  2  0  0  0  0
  2 12  1  1  0  0  0
  3 16  1  6  0  0  0
  3 14  1  0  0  0  0
  3 10  1  0  0  0  0
  4 15  1  0  0  0  0
  4  8  2  0  0  0  0
  5  1  1  0  0  0  0
  7  4  1  0  0  0  0
  8  1  1  0  0  0  0
  9  7  2  0  0  0  0
  9  5  1  0  0  0  0
 11 10  1  6  0  0  0
 11  2  1  0  0  0  0
 11  7  1  0  0  0  0
 12 15  1  0  0  0  0
 13 35  1  0  0  0  0
 13  2  1  0  0  0  0
 14 13  1  0  0  0  0
 17 19  1  0  0  0  0
 17 16  1  0  0  0  0
 18 16  2  0  0  0  0
 20 19  1  0  0  0  0
 21 20  1  0  0  0  0
 22 21  1  1  0  0  0
 23 26  1  0  0  0  0
 24 29  1  0  0  0  0
 25 22  1  0  0  0  0
 26 24  1  0  0  0  0
 26 22  1  0  0  0  0
 27 24  2  0  0  0  0
 28 23  1  0  0  0  0
 28 25  1  0  0  0  0
 29 33  1  0  0  0  0
 30 32  2  0  0  0  0
 32 31  1  0  0  0  0
 33 31  2  0  0  0  0
 34 30  1  0  0  0  0
 34 29  2  0  0  0  0
 36 37  1  0  0  0  0
 36 39  1  0  0  0  0
 37 43  1  1  0  0  0
 37 41  1  0  0  0  0
 39 40  1  0  0  0  0
 40 38  1  0  0  0  0
 40 35  1  1  0  0  0
 41 38  1  0  0  0  0
 42 43  1  0  0  0  0
M  END
>  <MODEL>
6

>  <REMARK>
 VINA RESULT:      -9.0      3.739      8.420
  Name = 
  9 active torsions:
  status: ('A' for Active; 'I' for Inactive)
    1  A    between atoms: C_1  and  N_34
    2  A    between atoms: C_1  and  C_35
    3  A    between atoms: C_2  and  C_13
    4  A    between atoms: C_3  and  C_4
    5  A    between atoms: C_3  and  C_12
    6  A    between atoms: N_6  and  C_17
    7  A    between atoms: C_11  and  C_14
    8  A    between atoms: C_12  and  C_17
    9  A    between atoms: C_19  and  N_37
                            x       y       z     vdW  Elec       q    Type
                         _______ _______ _______ _____ _____    ______ ____

>  <TORSDO>
F 9

$$$$
=
 OpenBabel11052416113D

 43 48  0  0  1  0  0  0  0  0999 V2000
  190.5130  176.7510  146.4020 C   0  0  0  0  0  0  0  0  0  0  0  0
  187.2230  178.2200  142.7560 C   0  0  2  0  0  3  0  0  0  0  0  0
  188.4600  177.8020  140.1850 C   0  0  1  0  0  3  0  0  0  0  0  0
  188.5950  177.5480  145.2220 C   0  0  0  0  0  0  0  0  0  0  0  0
  191.3780  176.7570  145.1770 C   0  0  0  0  0  2  0  0  0  0  0  0
  190.9870  176.3540  147.4990 O   0  0  0  0  0  0  0  0  0  0  0  0
  189.2980  177.3340  143.9250 C   0  0  0  0  0  0  0  0  0  0  0  0
  189.1750  177.2590  146.3480 N   0  0  0  0  0  0  0  0  0  0  0  0
  190.5620  176.8890  143.9230 C   0  0  0  0  0  3  0  0  0  0  0  0
  189.3270  177.8410  141.4400 C   0  0  0  0  0  2  0  0  0  0  0  0
  188.5030  177.3660  142.6380 C   0  0  2  0  0  3  0  0  0  0  0  0
  186.4350  177.7510  143.9830 C   0  0  0  0  0  2  0  0  0  0  0  0
  186.4240  178.1060  141.5230 N   0  0  0  0  0  0  0  0  0  0  0  0
  187.2070  178.6420  140.4080 C   0  0  0  0  0  2  0  0  0  0  0  0
  187.2050  178.1120  145.2500 C   0  0  0  0  0  2  0  0  0  0  0  0
  189.2150  178.2910  138.9860 C   0  0  0  0  0  0  0  0  0  0  0  0
  190.1060  177.4200  138.2800 N   0  0  0  0  0  2  0  0  0  0  0  0
  189.0560  179.4730  138.5770 O   0  0  0  0  0  0  0  0  0  0  0  0
  190.2390  176.0060  138.5980 C   0  0  0  0  0  2  0  0  0  0  0  0
  189.7770  175.1690  137.4210 C   0  0  0  0  0  2  0  0  0  0  0  0
  188.2660  175.2130  137.3270 C   0  0  0  0  0  2  0  0  0  0  0  0
  187.8380  175.4380  135.8830 C   0  0  2  0  0  3  0  0  0  0  0  0
  186.1210  177.0900  135.4400 C   0  0  0  0  0  2  0  0  0  0  0  0
  185.4110  174.6980  135.9090 C   0  0  0  0  0  0  0  0  0  0  0  0
  188.5170  176.6820  135.3410 C   0  0  0  0  0  2  0  0  0  0  0  0
  186.4130  175.7240  135.8310 N   0  0  0  0  0  0  0  0  0  0  0  0
  185.7050  173.5210  135.5610 O   0  0  0  0  0  0  0  0  0  0  0  0
  187.4650  177.7850  135.3240 C   0  0  0  0  0  2  0  0  0  0  0  0
  184.0500  174.9780  136.4210 C   0  0  0  0  0  0  0  0  0  0  0  0
  182.5250  175.2260  138.3010 C   0  0  0  0  0  3  0  0  0  0  0  0
  181.7460  175.6670  136.0510 C   0  0  0  0  0  3  0  0  0  0  0  0
  181.4990  175.5970  137.4260 C   0  0  0  0  0  3  0  0  0  0  0  0
  183.0170  175.3620  135.5520 C   0  0  0  0  0  3  0  0  0  0  0  0
  183.7950  174.9230  137.8020 C   0  0  0  0  0  3  0  0  0  0  0  0
  185.2530  178.9740  141.6350 C   0  0  0  0  0  2  0  0  0  0  0  0
  182.8540  178.8740  138.6040 C   0  0  0  0  0  2  0  0  0  0  0  0
  181.5250  178.7560  139.3590 C   0  0  1  0  0  3  0  0  0  0  0  0
  182.8010  178.4030  141.5120 C   0  0  0  0  0  2  0  0  0  0  0  0
  183.9660  179.3950  139.5130 C   0  0  0  0  0  2  0  0  0  0  0  0
  184.1170  178.4880  140.7350 C   0  0  1  0  0  3  0  0  0  0  0  0
  181.6830  177.8840  140.6090 C   0  0  0  0  0  2  0  0  0  0  0  0
  180.0820  179.8890  140.8200 C   0  0  0  0  0  1  0  0  0  0  0  0
  181.0140  180.0740  139.7160 N   0  0  0  0  0  2  0  0  0  0  0  0
  1  6  2  0  0  0  0
  2 12  1  1  0  0  0
  3 16  1  6  0  0  0
  3 14  1  0  0  0  0
  3 10  1  0  0  0  0
  4 15  1  0  0  0  0
  4  8  2  0  0  0  0
  5  1  1  0  0  0  0
  7  4  1  0  0  0  0
  8  1  1  0  0  0  0
  9  7  2  0  0  0  0
  9  5  1  0  0  0  0
 11 10  1  6  0  0  0
 11  2  1  0  0  0  0
 11  7  1  0  0  0  0
 12 15  1  0  0  0  0
 13 35  1  0  0  0  0
 13  2  1  0  0  0  0
 14 13  1  0  0  0  0
 17 19  1  0  0  0  0
 17 16  1  0  0  0  0
 18 16  2  0  0  0  0
 20 19  1  0  0  0  0
 21 20  1  0  0  0  0
 22 21  1  1  0  0  0
 23 26  1  0  0  0  0
 24 29  1  0  0  0  0
 25 22  1  0  0  0  0
 26 22  1  0  0  0  0
 26 24  1  0  0  0  0
 27 24  2  0  0  0  0
 28 25  1  0  0  0  0
 28 23  1  0  0  0  0
 29 34  1  0  0  0  0
 31 32  2  0  0  0  0
 32 30  1  0  0  0  0
 33 31  1  0  0  0  0
 33 29  2  0  0  0  0
 34 30  2  0  0  0  0
 36 37  1  0  0  0  0
 36 39  1  0  0  0  0
 37 43  1  1  0  0  0
 37 41  1  0  0  0  0
 39 40  1  0  0  0  0
 40 38  1  0  0  0  0
 40 35  1  1  0  0  0
 41 38  1  0  0  0  0
 43 42  1  0  0  0  0
M  END
>  <MODEL>
7

>  <REMARK>
 VINA RESULT:      -8.9      2.863      8.307
  Name = 
  9 active torsions:
  status: ('A' for Active; 'I' for Inactive)
    1  A    between atoms: C_1  and  N_34
    2  A    between atoms: C_1  and  C_35
    3  A    between atoms: C_2  and  C_13
    4  A    between atoms: C_3  and  C_4
    5  A    between atoms: C_3  and  C_12
    6  A    between atoms: N_6  and  C_17
    7  A    between atoms: C_11  and  C_14
    8  A    between atoms: C_12  and  C_17
    9  A    between atoms: C_19  and  N_37
                            x       y       z     vdW  Elec       q    Type
                         _______ _______ _______ _____ _____    ______ ____

>  <TORSDO>
F 9

$$$$
=
 OpenBabel11052416113D

 43 48  0  0  1  0  0  0  0  0999 V2000
  194.2140  175.5240  136.7900 C   0  0  0  0  0  0  0  0  0  0  0  0
  190.2180  177.4930  139.3270 C   0  0  2  0  0  3  0  0  0  0  0  0
  187.8930  177.3460  137.6270 C   0  0  1  0  0  3  0  0  0  0  0  0
  192.8000  176.5030  138.4480 C   0  0  0  0  0  0  0  0  0  0  0  0
  193.1820  175.6500  135.7090 C   0  0  0  0  0  2  0  0  0  0  0  0
  195.3250  174.9890  136.5340 O   0  0  0  0  0  0  0  0  0  0  0  0
  191.6410  176.4240  137.5130 C   0  0  0  0  0  0  0  0  0  0  0  0
  193.9710  176.0690  138.0920 N   0  0  0  0  0  0  0  0  0  0  0  0
  191.8220  175.9480  136.2730 C   0  0  0  0  0  3  0  0  0  0  0  0
  189.2840  177.2160  137.0130 C   0  0  0  0  0  2  0  0  0  0  0  0
  190.2410  176.6250  138.0510 C   0  0  2  0  0  3  0  0  0  0  0  0
  191.2110  176.9050  140.3340 C   0  0  0  0  0  2  0  0  0  0  0  0
  188.8530  177.5440  139.8790 N   0  0  0  0  0  0  0  0  0  0  0  0
  187.9760  178.1870  138.8970 C   0  0  0  0  0  2  0  0  0  0  0  0
  192.6330  177.0960  139.8160 C   0  0  0  0  0  2  0  0  0  0  0  0
  186.9230  177.9510  136.6580 C   0  0  0  0  0  0  0  0  0  0  0  0
  185.5930  177.4340  136.5380 N   0  0  0  0  0  2  0  0  0  0  0  0
  187.2680  178.9360  135.9490 O   0  0  0  0  0  0  0  0  0  0  0  0
  185.0710  176.3970  137.4150 C   0  0  0  0  0  2  0  0  0  0  0  0
  183.5770  176.5820  137.5960 C   0  0  0  0  0  2  0  0  0  0  0  0
  183.2150  178.0370  137.3830 C   0  0  0  0  0  2  0  0  0  0  0  0
  181.7890  178.2960  137.8510 C   0  0  2  0  0  3  0  0  0  0  0  0
  181.3980  180.1430  139.3690 C   0  0  0  0  0  2  0  0  0  0  0  0
  181.9450  177.8640  140.3470 C   0  0  0  0  0  0  0  0  0  0  0  0
  181.1930  179.4380  137.0510 C   0  0  0  0  0  2  0  0  0  0  0  0
  181.8000  178.7570  139.2300 N   0  0  0  0  0  0  0  0  0  0  0  0
  181.6050  176.6560  140.2180 O   0  0  0  0  0  0  0  0  0  0  0  0
  181.2050  180.6640  137.9570 C   0  0  0  0  0  2  0  0  0  0  0  0
  182.5160  178.3190  141.6350 C   0  0  0  0  0  0  0  0  0  0  0  0
  182.1920  179.0090  143.9460 C   0  0  0  0  0  3  0  0  0  0  0  0
  184.4330  178.7890  143.0570 C   0  0  0  0  0  3  0  0  0  0  0  0
  183.5770  179.0960  144.1200 C   0  0  0  0  0  3  0  0  0  0  0  0
  183.9040  178.3990  141.8220 C   0  0  0  0  0  3  0  0  0  0  0  0
  181.6640  178.6190  142.7120 C   0  0  0  0  0  3  0  0  0  0  0  0
  188.8460  178.4230  141.0460 C   0  0  0  0  0  2  0  0  0  0  0  0
  187.6120  176.3780  144.0860 C   0  0  0  0  0  2  0  0  0  0  0  0
  188.3570  177.1310  145.1950 C   0  0  1  0  0  3  0  0  0  0  0  0
  189.6470  178.4070  143.4360 C   0  0  0  0  0  2  0  0  0  0  0  0
  187.5200  177.2140  142.8100 C   0  0  0  0  0  2  0  0  0  0  0  0
  188.9180  177.6200  142.3440 C   0  0  1  0  0  3  0  0  0  0  0  0
  189.7410  177.5770  144.7160 C   0  0  0  0  0  2  0  0  0  0  0  0
  186.4130  177.7510  146.3500 C   0  0  0  0  0  1  0  0  0  0  0  0
  187.5800  178.2750  145.6540 N   0  0  0  0  0  2  0  0  0  0  0  0
  1  8  1  0  0  0  0
  2 13  1  0  0  0  0
  2 12  1  1  0  0  0
  3 16  1  6  0  0  0
  3 14  1  0  0  0  0
  4 15  1  0  0  0  0
  5  9  1  0  0  0  0
  5  1  1  0  0  0  0
  6  1  2  0  0  0  0
  7 11  1  0  0  0  0
  7  4  1  0  0  0  0
  8  4  2  0  0  0  0
  9  7  2  0  0  0  0
 10  3  1  0  0  0  0
 11 10  1  6  0  0  0
 11  2  1  0  0  0  0
 13 35  1  0  0  0  0
 14 13  1  0  0  0  0
 15 12  1  0  0  0  0
 17 16  1  0  0  0  0
 17 19  1  0  0  0  0
 18 16  2  0  0  0  0
 19 20  1  0  0  0  0
 21 20  1  0  0  0  0
 22 21  1  6  0  0  0
 22 26  1  0  0  0  0
 24 29  1  0  0  0  0
 25 22  1  0  0  0  0
 25 28  1  0  0  0  0
 26 23  1  0  0  0  0
 26 24  1  0  0  0  0
 27 24  2  0  0  0  0
 28 23  1  0  0  0  0
 29 33  2  0  0  0  0
 29 34  1  0  0  0  0
 30 32  1  0  0  0  0
 31 32  2  0  0  0  0
 33 31  1  0  0  0  0
 34 30  2  0  0  0  0
 36 37  1  0  0  0  0
 37 43  1  6  0  0  0
 38 41  1  0  0  0  0
 39 36  1  0  0  0  0
 40 35  1  6  0  0  0
 40 39  1  0  0  0  0
 40 38  1  0  0  0  0
 41 37  1  0  0  0  0
 43 42  1  0  0  0  0
M  END
>  <MODEL>
8

>  <REMARK>
 VINA RESULT:      -8.9      2.980      9.110
  Name = 
  9 active torsions:
  status: ('A' for Active; 'I' for Inactive)
    1  A    between atoms: C_1  and  N_34
    2  A    between atoms: C_1  and  C_35
    3  A    between atoms: C_2  and  C_13
    4  A    between atoms: C_3  and  C_4
    5  A    between atoms: C_3  and  C_12
    6  A    between atoms: N_6  and  C_17
    7  A    between atoms: C_11  and  C_14
    8  A    between atoms: C_12  and  C_17
    9  A    between atoms: C_19  and  N_37
                            x       y       z     vdW  Elec       q    Type
                         _______ _______ _______ _____ _____    ______ ____

>  <TORSDO>
F 9

$$$$
=
 OpenBabel11052416113D

 43 48  0  0  1  0  0  0  0  0999 V2000
  190.8970  176.4470  146.5420 C   0  0  0  0  0  0  0  0  0  0  0  0
  187.4820  178.1420  143.1150 C   0  0  2  0  0  3  0  0  0  0  0  0
  188.5570  177.7280  140.4710 C   0  0  1  0  0  3  0  0  0  0  0  0
  188.9550  177.3540  145.4870 C   0  0  0  0  0  0  0  0  0  0  0  0
  191.6930  176.4430  145.2710 C   0  0  0  0  0  2  0  0  0  0  0  0
  191.4110  176.0040  147.6030 O   0  0  0  0  0  0  0  0  0  0  0  0
  189.5760  177.1390  144.1490 C   0  0  0  0  0  0  0  0  0  0  0  0
  189.5830  177.0140  146.5730 N   0  0  0  0  0  0  0  0  0  0  0  0
  190.8160  176.6380  144.0670 C   0  0  0  0  0  3  0  0  0  0  0  0
  189.4920  177.7010  141.6760 C   0  0  0  0  0  2  0  0  0  0  0  0
  188.7140  177.2350  142.9090 C   0  0  2  0  0  3  0  0  0  0  0  0
  186.7420  177.6800  144.3740 C   0  0  0  0  0  2  0  0  0  0  0  0
  186.6130  178.0910  141.9260 N   0  0  0  0  0  0  0  0  0  0  0  0
  187.3570  178.6170  140.7800 C   0  0  0  0  0  2  0  0  0  0  0  0
  187.5960  177.9780  145.6030 C   0  0  0  0  0  2  0  0  0  0  0  0
  189.2660  178.2100  139.2420 C   0  0  0  0  0  0  0  0  0  0  0  0
  190.1780  177.3550  138.5440 N   0  0  0  0  0  2  0  0  0  0  0  0
  189.0510  179.3720  138.8010 O   0  0  0  0  0  0  0  0  0  0  0  0
  190.3760  175.9580  138.9010 C   0  0  0  0  0  2  0  0  0  0  0  0
  191.2360  175.2770  137.8530 C   0  0  0  0  0  2  0  0  0  0  0  0
  190.5230  174.0470  137.3300 C   0  0  0  0  0  2  0  0  0  0  0  0
  190.2580  174.1920  135.8380 C   0  0  2  0  0  3  0  0  0  0  0  0
  189.5190  176.3450  135.0070 C   0  0  0  0  0  2  0  0  0  0  0  0
  187.7670  174.6710  135.7670 C   0  0  0  0  0  0  0  0  0  0  0  0
  191.4440  174.8680  135.1760 C   0  0  0  0  0  2  0  0  0  0  0  0
  189.1340  175.0890  135.6220 N   0  0  0  0  0  0  0  0  0  0  0  0
  187.4770  173.4510  135.6250 O   0  0  0  0  0  0  0  0  0  0  0  0
  191.0320  176.3100  134.9030 C   0  0  0  0  0  2  0  0  0  0  0  0
  186.6940  175.6320  136.1130 C   0  0  0  0  0  0  0  0  0  0  0  0
  184.4470  176.4890  135.7440 C   0  0  0  0  0  3  0  0  0  0  0  0
  185.8050  177.3970  137.5310 C   0  0  0  0  0  3  0  0  0  0  0  0
  184.6070  177.3810  136.8090 C   0  0  0  0  0  3  0  0  0  0  0  0
  186.8420  176.5230  137.1860 C   0  0  0  0  0  3  0  0  0  0  0  0
  185.4830  175.6160  135.4010 C   0  0  0  0  0  3  0  0  0  0  0  0
  185.4900  179.0060  142.1200 C   0  0  0  0  0  2  0  0  0  0  0  0
  182.5080  177.4530  140.2120 C   0  0  0  0  0  2  0  0  0  0  0  0
  181.3620  178.1260  140.9770 C   0  0  1  0  0  3  0  0  0  0  0  0
  183.0280  179.0060  142.6610 C   0  0  0  0  0  2  0  0  0  0  0  0
  183.8260  178.1990  140.4140 C   0  0  0  0  0  2  0  0  0  0  0  0
  184.1540  178.2970  141.9040 C   0  0  1  0  0  3  0  0  0  0  0  0
  181.7070  178.2660  142.4630 C   0  0  0  0  0  2  0  0  0  0  0  0
  179.6190  179.4430  140.1250 C   0  0  0  0  0  1  0  0  0  0  0  0
  181.0490  179.4270  140.4000 N   0  0  0  0  0  2  0  0  0  0  0  0
  1  8  1  0  0  0  0
  1  6  2  0  0  0  0
  2 12  1  1  0  0  0
  3 16  1  6  0  0  0
  3 14  1  0  0  0  0
  3 10  1  0  0  0  0
  4 15  1  0  0  0  0
  4  8  2  0  0  0  0
  5  1  1  0  0  0  0
  7  4  1  0  0  0  0
  9  7  2  0  0  0  0
  9  5  1  0  0  0  0
 11 10  1  6  0  0  0
 11  2  1  0  0  0  0
 11  7  1  0  0  0  0
 12 15  1  0  0  0  0
 13 35  1  0  0  0  0
 13  2  1  0  0  0  0
 14 13  1  0  0  0  0
 17 19  1  0  0  0  0
 17 16  1  0  0  0  0
 18 16  2  0  0  0  0
 20 19  1  0  0  0  0
 21 20  1  0  0  0  0
 22 21  1  1  0  0  0
 23 26  1  0  0  0  0
 24 29  1  0  0  0  0
 25 22  1  0  0  0  0
 26 24  1  0  0  0  0
 26 22  1  0  0  0  0
 27 24  2  0  0  0  0
 28 23  1  0  0  0  0
 28 25  1  0  0  0  0
 29 33  1  0  0  0  0
 30 32  2  0  0  0  0
 32 31  1  0  0  0  0
 33 31  2  0  0  0  0
 34 30  1  0  0  0  0
 34 29  2  0  0  0  0
 36 39  1  0  0  0  0
 36 37  1  0  0  0  0
 37 43  1  6  0  0  0
 37 41  1  0  0  0  0
 39 40  1  0  0  0  0
 40 35  1  6  0  0  0
 40 38  1  0  0  0  0
 41 38  1  0  0  0  0
 42 43  1  0  0  0  0
M  END
>  <MODEL>
9

>  <REMARK>
 VINA RESULT:      -8.8      3.058      8.298
  Name = 
  9 active torsions:
  status: ('A' for Active; 'I' for Inactive)
    1  A    between atoms: C_1  and  N_34
    2  A    between atoms: C_1  and  C_35
    3  A    between atoms: C_2  and  C_13
    4  A    between atoms: C_3  and  C_4
    5  A    between atoms: C_3  and  C_12
    6  A    between atoms: N_6  and  C_17
    7  A    between atoms: C_11  and  C_14
    8  A    between atoms: C_12  and  C_17
    9  A    between atoms: C_19  and  N_37
                            x       y       z     vdW  Elec       q    Type
                         _______ _______ _______ _____ _____    ______ ____

>  <TORSDO>
F 9

$$$$
