=
 OpenBabel11052416563D

 32 36  0  0  1  0  0  0  0  0999 V2000
  180.2920  179.1930  142.4710 C   0  0  1  0  0  3  0  0  0  0  0  0
  185.3500  178.0630  142.9250 C   0  0  2  0  0  3  0  0  0  0  0  0
  186.3170  178.6440  147.6510 C   0  0  0  0  0  3  0  0  0  0  0  0
  187.5890  178.1020  147.4440 C   0  0  0  0  0  3  0  0  0  0  0  0
  183.1060  178.6400  142.1080 C   0  0  0  0  0  0  0  0  0  0  0  0
  183.5880  178.9360  144.4620 N   0  0  0  0  0  0  0  0  0  0  0  0
  181.2720  179.5190  143.5920 C   0  0  0  0  0  2  0  0  0  0  0  0
  185.4230  178.7670  146.5830 C   0  0  0  0  0  3  0  0  0  0  0  0
  184.9330  178.4660  144.2770 C   0  0  0  0  0  0  0  0  0  0  0  0
  185.8010  178.3620  145.2930 C   0  0  0  0  0  0  0  0  0  0  0  0
  187.5200  177.4550  143.8310 C   0  0  0  0  0  0  0  0  0  0  0  0
  180.9220  179.4370  141.1020 C   0  0  0  0  0  2  0  0  0  0  0  0
  182.6750  178.9940  143.3490 C   0  0  0  0  0  0  0  0  0  0  0  0
  182.1860  178.6180  140.9140 C   0  0  0  0  0  2  0  0  0  0  0  0
  187.9830  177.6970  146.1710 C   0  0  0  0  0  3  0  0  0  0  0  0
  187.1130  177.8280  145.0750 C   0  0  0  0  0  0  0  0  0  0  0  0
  184.4900  178.1480  141.9070 C   0  0  0  0  0  3  0  0  0  0  0  0
  186.6480  177.5840  142.7350 O   0  0  0  0  0  0  0  0  0  0  0  0
  179.7180  177.7850  142.5940 C   0  0  0  0  0  2  0  0  0  0  0  0
  178.9570  177.4170  141.4030 N   0  0  0  0  0  2  0  0  0  0  0  0
  179.2610  176.2660  140.6400 N   0  0  0  0  0  0  0  0  0  0  0  0
  179.6560  176.4010  139.4610 O   0  0  0  0  0  0  0  0  0  0  0  0
  178.9420  175.0070  141.1070 O   0  0  0  0  0  0  0  0  0  0  0  0
  188.9050  176.9340  143.5710 C   0  0  0  0  0  2  0  0  0  0  0  0
  191.2160  177.7620  143.4920 C   0  0  1  0  0  3  0  0  0  0  0  0
  190.8520  177.6160  142.0810 C   0  0  2  0  0  3  0  0  0  0  0  0
  189.8110  178.0350  143.1030 N   0  0  0  0  0  0  0  0  0  0  0  0
  190.0530  176.8780  140.9580 C   0  0  0  0  0  3  0  0  0  0  0  0
  190.8880  176.1520  140.0940 O   0  0  0  0  0  1  0  0  0  0  0  0
  189.2480  177.7550  140.2330 O   0  0  0  0  0  1  0  0  0  0  0  0
  191.5970  176.3610  144.0400 C   0  0  0  0  0  2  0  0  0  0  0  0
  191.6960  176.4120  145.5690 C   0  0  0  0  0  1  0  0  0  0  0  0
  1 19  1  6  0  0  0
  1  7  1  0  0  0  0
  2 17  1  1  0  0  0
  2  9  1  0  0  0  0
  4  3  1  0  0  0  0
  5 13  1  0  0  0  0
  8  3  2  0  0  0  0
  9  6  1  0  0  0  0
  9 10  2  0  0  0  0
 10  8  1  0  0  0  0
 11 16  2  0  0  0  0
 12  1  1  0  0  0  0
 13  7  1  0  0  0  0
 13  6  2  0  0  0  0
 14 12  1  0  0  0  0
 14  5  1  0  0  0  0
 15  4  2  0  0  0  0
 16 10  1  0  0  0  0
 16 15  1  0  0  0  0
 17  5  2  0  0  0  0
 18  2  1  0  0  0  0
 18 11  1  0  0  0  0
 20 19  1  0  0  0  0
 21 23  2  0  0  0  0
 21 20  1  0  0  0  0
 22 21  2  0  0  0  0
 24 11  1  0  0  0  0
 25 31  1  1  0  0  0
 26 28  1  1  0  0  0
 26 27  1  0  0  0  0
 26 25  1  0  0  0  0
 27 25  1  0  0  0  0
 27 24  1  0  0  0  0
 29 28  1  0  0  0  0
 30 28  1  0  0  0  0
 31 32  1  0  0  0  0
M  END
>  <MODEL>
1

>  <REMARK>
 VINA RESULT:      -9.1      0.000      0.000
  Name = 
  7 active torsions:
  status: ('A' for Active; 'I' for Inactive)
    1  A    between atoms: N_1  and  N_10
    2  A    between atoms: C_2  and  C_24
    3  A    between atoms: C_6  and  C_7
    4  A    between atoms: N_10  and  C_24
    5  A    between atoms: C_11  and  C_22
    6  A    between atoms: C_16  and  C_27
    7  A    between atoms: C_27  and  N_32
                            x       y       z     vdW  Elec       q    Type
                         _______ _______ _______ _____ _____    ______ ____

>  <TORSDO>
F 7

$$$$
=
 OpenBabel11052416563D

 32 36  0  0  1  0  0  0  0  0999 V2000
  185.2080  178.4010  137.5460 C   0  0  1  0  0  3  0  0  0  0  0  0
  187.6660  177.7730  142.0880 C   0  0  0  0  0  0  0  0  0  0  0  0
  184.3060  178.7870  145.4490 C   0  0  0  0  0  3  0  0  0  0  0  0
  185.1870  178.3500  146.4430 C   0  0  0  0  0  3  0  0  0  0  0  0
  187.0850  178.0810  139.7210 C   0  0  0  0  0  0  0  0  0  0  0  0
  185.4130  178.5930  141.3950 N   0  0  0  0  0  2  0  0  0  0  0  0
  184.8360  178.8970  138.9380 C   0  0  0  0  0  2  0  0  0  0  0  0
  184.6880  178.7490  144.1050 C   0  0  0  0  0  3  0  0  0  0  0  0
  186.3170  178.2350  142.4520 C   0  0  0  0  0  0  0  0  0  0  0  0
  185.9640  178.2860  143.7440 C   0  0  0  0  0  0  0  0  0  0  0  0
  188.1300  177.4340  144.4480 C   0  0  0  0  0  0  0  0  0  0  0  0
  186.6980  178.5990  137.2710 C   0  0  0  0  0  2  0  0  0  0  0  0
  185.8200  178.4850  140.0170 C   0  0  0  0  0  0  0  0  0  0  0  0
  187.5560  177.8870  138.3020 C   0  0  0  0  0  2  0  0  0  0  0  0
  186.4570  177.8890  146.1040 C   0  0  0  0  0  3  0  0  0  0  0  0
  186.8760  177.8590  144.7630 C   0  0  0  0  0  0  0  0  0  0  0  0
  188.0240  177.7030  140.8040 C   0  0  0  0  0  3  0  0  0  0  0  0
  188.5470  177.4020  143.1050 O   0  0  0  0  0  0  0  0  0  0  0  0
  184.7700  176.9600  137.3060 C   0  0  0  0  0  2  0  0  0  0  0  0
  183.3190  176.8620  137.1750 N   0  0  0  0  0  2  0  0  0  0  0  0
  182.5290  176.1160  138.0800 N   0  0  0  0  0  0  0  0  0  0  0  0
  182.9430  175.9320  139.2450 O   0  0  0  0  0  0  0  0  0  0  0  0
  181.4140  175.4310  137.6410 O   0  0  0  0  0  0  0  0  0  0  0  0
  189.1190  177.0240  145.5020 C   0  0  0  0  0  2  0  0  0  0  0  0
  191.2360  177.6010  146.6040 C   0  0  1  0  0  3  0  0  0  0  0  0
  191.6490  177.1630  145.2680 C   0  0  2  0  0  3  0  0  0  0  0  0
  190.3360  177.8990  145.4640 N   0  0  0  0  0  0  0  0  0  0  0  0
  191.4310  176.2570  144.0140 C   0  0  0  0  0  3  0  0  0  0  0  0
  192.0730  175.0150  144.1310 O   0  0  0  0  0  1  0  0  0  0  0  0
  191.8210  176.8970  142.8390 O   0  0  0  0  0  1  0  0  0  0  0  0
  190.9790  176.3390  147.4680 C   0  0  0  0  0  2  0  0  0  0  0  0
  192.2900  175.5690  147.6660 C   0  0  0  0  0  1  0  0  0  0  0  0
  1 19  1  1  0  0  0
  1  7  1  0  0  0  0
  2  9  1  0  0  0  0
  2 18  1  0  0  0  0
  3  4  1  0  0  0  0
  5 13  2  0  0  0  0
  5 17  1  0  0  0  0
  6  9  1  0  0  0  0
  7 13  1  0  0  0  0
  8  3  2  0  0  0  0
  9 10  2  0  0  0  0
 10  8  1  0  0  0  0
 10 16  1  0  0  0  0
 11 16  2  0  0  0  0
 11 24  1  0  0  0  0
 12  1  1  0  0  0  0
 12 14  1  0  0  0  0
 13  6  1  0  0  0  0
 14  5  1  0  0  0  0
 15  4  2  0  0  0  0
 16 15  1  0  0  0  0
 17  2  2  0  0  0  0
 18 11  1  0  0  0  0
 20 19  1  0  0  0  0
 20 21  1  0  0  0  0
 21 22  2  0  0  0  0
 23 21  2  0  0  0  0
 25 31  1  1  0  0  0
 26 28  1  1  0  0  0
 26 27  1  0  0  0  0
 26 25  1  0  0  0  0
 27 24  1  0  0  0  0
 27 25  1  0  0  0  0
 28 29  1  0  0  0  0
 30 28  1  0  0  0  0
 31 32  1  0  0  0  0
M  END
>  <MODEL>
2

>  <REMARK>
 VINA RESULT:      -8.2      2.819      4.003
  Name = 
  7 active torsions:
  status: ('A' for Active; 'I' for Inactive)
    1  A    between atoms: N_1  and  N_10
    2  A    between atoms: C_2  and  C_24
    3  A    between atoms: C_6  and  C_7
    4  A    between atoms: N_10  and  C_24
    5  A    between atoms: C_11  and  C_22
    6  A    between atoms: C_16  and  C_27
    7  A    between atoms: C_27  and  N_32
                            x       y       z     vdW  Elec       q    Type
                         _______ _______ _______ _____ _____    ______ ____

>  <TORSDO>
F 7

$$$$
=
 OpenBabel11052416563D

 32 36  0  0  1  0  0  0  0  0999 V2000
  187.6060  177.9550  135.7510 C   0  0  1  0  0  3  0  0  0  0  0  0
  188.3240  177.6650  140.8950 C   0  0  0  0  0  0  0  0  0  0  0  0
  184.0670  179.0230  142.8050 C   0  0  0  0  0  3  0  0  0  0  0  0
  184.5320  178.6540  144.0710 C   0  0  0  0  0  3  0  0  0  0  0  0
  188.6060  177.7840  138.4570 C   0  0  0  0  0  0  0  0  0  0  0  0
  186.4870  178.4670  139.4080 N   0  0  0  0  0  2  0  0  0  0  0  0
  186.8020  178.5740  136.8880 C   0  0  0  0  0  2  0  0  0  0  0  0
  184.8850  178.8650  141.6820 C   0  0  0  0  0  3  0  0  0  0  0  0
  186.9560  178.1820  140.7360 C   0  0  0  0  0  0  0  0  0  0  0  0
  186.1840  178.3480  141.8190 C   0  0  0  0  0  0  0  0  0  0  0  0
  187.9340  177.5170  143.2880 C   0  0  0  0  0  0  0  0  0  0  0  0
  189.1070  178.1020  135.9940 C   0  0  0  0  0  2  0  0  0  0  0  0
  187.3360  178.2350  138.2680 C   0  0  0  0  0  0  0  0  0  0  0  0
  189.5250  177.4620  137.3060 C   0  0  0  0  0  2  0  0  0  0  0  0
  185.8180  178.1420  144.2270 C   0  0  0  0  0  3  0  0  0  0  0  0
  186.6700  177.9910  143.1180 C   0  0  0  0  0  0  0  0  0  0  0  0
  189.0970  177.4810  139.8230 C   0  0  0  0  0  3  0  0  0  0  0  0
  188.7840  177.3640  142.1780 O   0  0  0  0  0  0  0  0  0  0  0  0
  187.2090  176.5080  135.4790 C   0  0  0  0  0  2  0  0  0  0  0  0
  185.8300  176.2510  135.8850 N   0  0  0  0  0  2  0  0  0  0  0  0
  185.5090  175.4080  136.9740 N   0  0  0  0  0  0  0  0  0  0  0  0
  186.2640  174.4500  137.2480 O   0  0  0  0  0  0  0  0  0  0  0  0
  184.2860  175.5100  137.6070 O   0  0  0  0  0  0  0  0  0  0  0  0
  188.4810  177.1780  144.6450 C   0  0  0  0  0  2  0  0  0  0  0  0
  189.8810  178.0060  146.4850 C   0  0  1  0  0  3  0  0  0  0  0  0
  190.8520  177.4980  145.5130 C   0  0  2  0  0  3  0  0  0  0  0  0
  189.5590  178.1420  145.0440 N   0  0  0  0  0  0  0  0  0  0  0  0
  191.2370  176.4820  144.3900 C   0  0  0  0  0  3  0  0  0  0  0  0
  191.9930  175.4050  144.8780 O   0  0  0  0  0  1  0  0  0  0  0  0
  191.9030  177.1050  143.3350 O   0  0  0  0  0  1  0  0  0  0  0  0
  189.3190  176.7990  147.2820 C   0  0  0  0  0  2  0  0  0  0  0  0
  188.2260  177.2780  148.2450 C   0  0  0  0  0  1  0  0  0  0  0  0
  1 19  1  1  0  0  0
  1 12  1  0  0  0  0
  1  7  1  0  0  0  0
  2 18  1  0  0  0  0
  3  4  1  0  0  0  0
  4 15  2  0  0  0  0
  5 17  1  0  0  0  0
  6  9  1  0  0  0  0
  7 13  1  0  0  0  0
  8 10  1  0  0  0  0
  8  3  2  0  0  0  0
  9  2  1  0  0  0  0
  9 10  2  0  0  0  0
 10 16  1  0  0  0  0
 11 24  1  0  0  0  0
 12 14  1  0  0  0  0
 13  5  2  0  0  0  0
 13  6  1  0  0  0  0
 14  5  1  0  0  0  0
 16 11  2  0  0  0  0
 16 15  1  0  0  0  0
 17  2  2  0  0  0  0
 18 11  1  0  0  0  0
 19 20  1  0  0  0  0
 20 21  1  0  0  0  0
 21 22  2  0  0  0  0
 21 23  2  0  0  0  0
 24 27  1  0  0  0  0
 25 31  1  1  0  0  0
 26 28  1  1  0  0  0
 26 25  1  0  0  0  0
 27 26  1  0  0  0  0
 27 25  1  0  0  0  0
 28 29  1  0  0  0  0
 30 28  1  0  0  0  0
 31 32  1  0  0  0  0
M  END
>  <MODEL>
3

>  <REMARK>
 VINA RESULT:      -8.2      3.735      5.808
  Name = 
  7 active torsions:
  status: ('A' for Active; 'I' for Inactive)
    1  A    between atoms: N_1  and  N_10
    2  A    between atoms: C_2  and  C_24
    3  A    between atoms: C_6  and  C_7
    4  A    between atoms: N_10  and  C_24
    5  A    between atoms: C_11  and  C_22
    6  A    between atoms: C_16  and  C_27
    7  A    between atoms: C_27  and  N_32
                            x       y       z     vdW  Elec       q    Type
                         _______ _______ _______ _____ _____    ______ ____

>  <TORSDO>
F 7

$$$$
=
 OpenBabel11052416563D

 32 36  0  0  1  0  0  0  0  0999 V2000
  180.2580  178.4760  139.4360 C   0  0  1  0  0  3  0  0  0  0  0  0
  185.0790  178.4760  141.3920 C   0  0  2  0  0  3  0  0  0  0  0  0
  184.4470  178.5430  146.2090 C   0  0  0  0  0  3  0  0  0  0  0  0
  185.8200  178.3440  146.3790 C   0  0  0  0  0  3  0  0  0  0  0  0
  183.0980  178.6410  139.9480 C   0  0  0  0  0  0  0  0  0  0  0  0
  182.7820  178.6820  142.3470 N   0  0  0  0  0  0  0  0  0  0  0  0
  180.7490  178.8450  140.8310 C   0  0  0  0  0  2  0  0  0  0  0  0
  183.9010  178.6180  144.9240 C   0  0  0  0  0  3  0  0  0  0  0  0
  184.1980  178.5650  142.5660 C   0  0  0  0  0  0  0  0  0  0  0  0
  184.7290  178.5100  143.7950 C   0  0  0  0  0  0  0  0  0  0  0  0
  186.9740  178.2500  142.8950 C   0  0  0  0  0  0  0  0  0  0  0  0
  181.1700  179.0610  138.3590 C   0  0  0  0  0  2  0  0  0  0  0  0
  182.2490  178.6960  141.0090 C   0  0  0  0  0  0  0  0  0  0  0  0
  182.6030  178.5900  138.5240 C   0  0  0  0  0  2  0  0  0  0  0  0
  186.6580  178.2360  145.2720 C   0  0  0  0  0  3  0  0  0  0  0  0
  186.1400  178.3280  143.9680 C   0  0  0  0  0  0  0  0  0  0  0  0
  184.5600  178.5150  140.1620 C   0  0  0  0  0  3  0  0  0  0  0  0
  186.4540  178.3410  141.5910 O   0  0  0  0  0  0  0  0  0  0  0  0
  180.0660  176.9720  139.2660 C   0  0  0  0  0  2  0  0  0  0  0  0
  179.3180  176.4040  140.3840 N   0  0  0  0  0  2  0  0  0  0  0  0
  179.3160  175.0180  140.6640 N   0  0  0  0  0  0  0  0  0  0  0  0
  178.9310  174.6220  141.7860 O   0  0  0  0  0  0  0  0  0  0  0  0
  179.9120  174.1240  139.7980 O   0  0  0  0  0  0  0  0  0  0  0  0
  188.4600  178.1050  143.0510 C   0  0  0  0  0  2  0  0  0  0  0  0
  189.7810  176.2840  142.0670 C   0  0  1  0  0  3  0  0  0  0  0  0
  190.3230  176.4110  143.4210 C   0  0  2  0  0  3  0  0  0  0  0  0
  188.8490  176.6600  143.1570 N   0  0  0  0  0  0  0  0  0  0  0  0
  190.6750  177.2970  144.6600 C   0  0  0  0  0  3  0  0  0  0  0  0
  191.7280  178.1870  144.4010 O   0  0  0  0  0  1  0  0  0  0  0  0
  190.9580  176.5230  145.7850 O   0  0  0  0  0  1  0  0  0  0  0  0
  190.4130  177.3940  141.1870 C   0  0  0  0  0  2  0  0  0  0  0  0
  190.9750  176.7790  139.8990 C   0  0  0  0  0  1  0  0  0  0  0  0
  1 19  1  1  0  0  0
  1  7  1  0  0  0  0
  2 17  1  1  0  0  0
  2 18  1  0  0  0  0
  2  9  1  0  0  0  0
  3  4  1  0  0  0  0
  5 17  2  0  0  0  0
  5 13  1  0  0  0  0
  6  9  1  0  0  0  0
  7 13  1  0  0  0  0
  8  3  2  0  0  0  0
  9 10  2  0  0  0  0
 10 16  1  0  0  0  0
 10  8  1  0  0  0  0
 11 24  1  0  0  0  0
 11 16  2  0  0  0  0
 12 14  1  0  0  0  0
 12  1  1  0  0  0  0
 13  6  2  0  0  0  0
 14  5  1  0  0  0  0
 15  4  2  0  0  0  0
 16 15  1  0  0  0  0
 18 11  1  0  0  0  0
 19 20  1  0  0  0  0
 20 21  1  0  0  0  0
 21 22  2  0  0  0  0
 23 21  2  0  0  0  0
 24 27  1  0  0  0  0
 25 31  1  6  0  0  0
 25 27  1  0  0  0  0
 25 26  1  0  0  0  0
 26 28  1  6  0  0  0
 27 26  1  0  0  0  0
 28 30  1  0  0  0  0
 29 28  1  0  0  0  0
 32 31  1  0  0  0  0
M  END
>  <MODEL>
4

>  <REMARK>
 VINA RESULT:      -7.9      1.932      2.755
  Name = 
  7 active torsions:
  status: ('A' for Active; 'I' for Inactive)
    1  A    between atoms: N_1  and  N_10
    2  A    between atoms: C_2  and  C_24
    3  A    between atoms: C_6  and  C_7
    4  A    between atoms: N_10  and  C_24
    5  A    between atoms: C_11  and  C_22
    6  A    between atoms: C_16  and  C_27
    7  A    between atoms: C_27  and  N_32
                            x       y       z     vdW  Elec       q    Type
                         _______ _______ _______ _____ _____    ______ ____

>  <TORSDO>
F 7

$$$$
=
 OpenBabel11052416563D

 32 36  0  0  1  0  0  0  0  0999 V2000
  180.9700  179.2060  139.4280 C   0  0  1  0  0  3  0  0  0  0  0  0
  185.4450  178.1730  141.8720 C   0  0  2  0  0  3  0  0  0  0  0  0
  184.3950  178.6280  146.5940 C   0  0  0  0  0  3  0  0  0  0  0  0
  185.6590  178.1210  146.9110 C   0  0  0  0  0  3  0  0  0  0  0  0
  183.7060  178.7260  140.2270 C   0  0  0  0  0  0  0  0  0  0  0  0
  183.1840  178.9590  142.5790 N   0  0  0  0  0  0  0  0  0  0  0  0
  181.4010  179.5190  140.8560 C   0  0  0  0  0  2  0  0  0  0  0  0
  184.0070  178.7650  145.2590 C   0  0  0  0  0  3  0  0  0  0  0  0
  184.5040  178.5250  142.9460 C   0  0  0  0  0  0  0  0  0  0  0  0
  184.8880  178.4080  144.2250 C   0  0  0  0  0  0  0  0  0  0  0  0
  187.0810  177.5850  143.5690 C   0  0  0  0  0  0  0  0  0  0  0  0
  182.0920  179.5060  138.4370 C   0  0  0  0  0  2  0  0  0  0  0  0
  182.7990  179.0310  141.1930 C   0  0  0  0  0  0  0  0  0  0  0  0
  183.3500  178.7210  138.7620 C   0  0  0  0  0  2  0  0  0  0  0  0
  186.5480  177.7640  145.9000 C   0  0  0  0  0  3  0  0  0  0  0  0
  186.1930  177.9100  144.5470 C   0  0  0  0  0  0  0  0  0  0  0  0
  185.0680  178.2700  140.5950 C   0  0  0  0  0  3  0  0  0  0  0  0
  186.7230  177.7290  142.2160 O   0  0  0  0  0  0  0  0  0  0  0  0
  180.4410  177.7830  139.2790 C   0  0  0  0  0  2  0  0  0  0  0  0
  180.1320  177.4750  137.8860 N   0  0  0  0  0  2  0  0  0  0  0  0
  180.7130  176.3770  137.2090 N   0  0  0  0  0  0  0  0  0  0  0  0
  181.6810  176.5760  136.4420 O   0  0  0  0  0  0  0  0  0  0  0  0
  180.1100  175.1370  137.2320 O   0  0  0  0  0  0  0  0  0  0  0  0
  188.4680  177.1030  143.8820 C   0  0  0  0  0  2  0  0  0  0  0  0
  190.0630  178.3150  145.3030 C   0  0  1  0  0  3  0  0  0  0  0  0
  190.8800  177.8610  144.1750 C   0  0  2  0  0  3  0  0  0  0  0  0
  189.4280  178.2530  143.9640 N   0  0  0  0  0  0  0  0  0  0  0  0
  191.1870  176.8040  143.0660 C   0  0  0  0  0  3  0  0  0  0  0  0
  191.6850  175.6030  143.5930 O   0  0  0  0  0  1  0  0  0  0  0  0
  192.0550  177.3070  142.0980 O   0  0  0  0  0  1  0  0  0  0  0  0
  189.8910  177.1260  146.2850 C   0  0  0  0  0  2  0  0  0  0  0  0
  189.6750  177.6560  147.7080 C   0  0  0  0  0  1  0  0  0  0  0  0
  1 19  1  1  0  0  0
  1  7  1  0  0  0  0
  2 17  1  1  0  0  0
  2 18  1  0  0  0  0
  2  9  1  0  0  0  0
  3  4  1  0  0  0  0
  5 17  2  0  0  0  0
  5 13  1  0  0  0  0
  6  9  1  0  0  0  0
  7 13  1  0  0  0  0
  8  3  2  0  0  0  0
  9 10  2  0  0  0  0
 10 16  1  0  0  0  0
 10  8  1  0  0  0  0
 11 24  1  0  0  0  0
 11 16  2  0  0  0  0
 12 14  1  0  0  0  0
 12  1  1  0  0  0  0
 13  6  2  0  0  0  0
 14  5  1  0  0  0  0
 15  4  2  0  0  0  0
 16 15  1  0  0  0  0
 18 11  1  0  0  0  0
 20 19  1  0  0  0  0
 21 23  2  0  0  0  0
 21 20  1  0  0  0  0
 22 21  2  0  0  0  0
 24 27  1  0  0  0  0
 25 31  1  1  0  0  0
 26 28  1  1  0  0  0
 26 25  1  0  0  0  0
 27 26  1  0  0  0  0
 27 25  1  0  0  0  0
 28 29  1  0  0  0  0
 30 28  1  0  0  0  0
 31 32  1  0  0  0  0
M  END
>  <MODEL>
5

>  <REMARK>
 VINA RESULT:      -7.7      1.939      2.476
  Name = 
  7 active torsions:
  status: ('A' for Active; 'I' for Inactive)
    1  A    between atoms: N_1  and  N_10
    2  A    between atoms: C_2  and  C_24
    3  A    between atoms: C_6  and  C_7
    4  A    between atoms: N_10  and  C_24
    5  A    between atoms: C_11  and  C_22
    6  A    between atoms: C_16  and  C_27
    7  A    between atoms: C_27  and  N_32
                            x       y       z     vdW  Elec       q    Type
                         _______ _______ _______ _____ _____    ______ ____

>  <TORSDO>
F 7

$$$$
=
 OpenBabel11052416563D

 32 36  0  0  1  0  0  0  0  0999 V2000
  188.6950  177.5150  136.5380 C   0  0  1  0  0  3  0  0  0  0  0  0
  188.9210  177.3180  141.7320 C   0  0  0  0  0  0  0  0  0  0  0  0
  184.6670  179.1380  143.2140 C   0  0  0  0  0  3  0  0  0  0  0  0
  184.9790  178.7660  144.5250 C   0  0  0  0  0  3  0  0  0  0  0  0
  189.4280  177.3330  139.3280 C   0  0  0  0  0  0  0  0  0  0  0  0
  187.3110  178.2460  140.0660 N   0  0  0  0  0  2  0  0  0  0  0  0
  187.8580  178.2440  137.5840 C   0  0  0  0  0  2  0  0  0  0  0  0
  185.5610  178.8670  142.1740 C   0  0  0  0  0  3  0  0  0  0  0  0
  187.6310  177.9590  141.4370 C   0  0  0  0  0  0  0  0  0  0  0  0
  186.7860  178.2330  142.4410 C   0  0  0  0  0  0  0  0  0  0  0  0
  188.3080  177.2830  144.0820 C   0  0  0  0  0  0  0  0  0  0  0  0
  190.1750  177.5240  136.9140 C   0  0  0  0  0  2  0  0  0  0  0  0
  188.2320  177.8980  139.0140 C   0  0  0  0  0  0  0  0  0  0  0  0
  190.4100  176.8890  138.2730 C   0  0  0  0  0  2  0  0  0  0  0  0
  186.1890  178.1370  144.8090 C   0  0  0  0  0  3  0  0  0  0  0  0
  187.1170  177.8710  143.7870 C   0  0  0  0  0  0  0  0  0  0  0  0
  189.7650  177.0270  140.7390 C   0  0  0  0  0  3  0  0  0  0  0  0
  189.2350  177.0140  143.0580 O   0  0  0  0  0  0  0  0  0  0  0  0
  188.1830  176.1050  136.2640 C   0  0  0  0  0  2  0  0  0  0  0  0
  189.1710  175.3140  135.5360 N   0  0  0  0  0  2  0  0  0  0  0  0
  189.5610  174.0210  135.9570 N   0  0  0  0  0  0  0  0  0  0  0  0
  189.6360  173.1010  135.1130 O   0  0  0  0  0  0  0  0  0  0  0  0
  189.6680  173.7190  137.2990 O   0  0  0  0  0  0  0  0  0  0  0  0
  188.6970  176.9360  145.4910 C   0  0  0  0  0  2  0  0  0  0  0  0
  189.3850  178.2570  147.4430 C   0  0  1  0  0  3  0  0  0  0  0  0
  190.5470  177.4070  147.1720 C   0  0  2  0  0  3  0  0  0  0  0  0
  189.6890  177.9220  146.0310 N   0  0  0  0  0  0  0  0  0  0  0  0
  191.1480  176.0580  146.6610 C   0  0  0  0  0  3  0  0  0  0  0  0
  191.7670  175.3240  147.6840 O   0  0  0  0  0  1  0  0  0  0  0  0
  192.0310  176.2540  145.6000 O   0  0  0  0  0  1  0  0  0  0  0  0
  188.3400  177.4120  148.2190 C   0  0  0  0  0  2  0  0  0  0  0  0
  187.0520  178.2240  148.4050 C   0  0  0  0  0  1  0  0  0  0  0  0
  1 19  1  1  0  0  0
  1 12  1  0  0  0  0
  1  7  1  0  0  0  0
  2 18  1  0  0  0  0
  3  4  1  0  0  0  0
  4 15  2  0  0  0  0
  5 17  1  0  0  0  0
  6  9  1  0  0  0  0
  7 13  1  0  0  0  0
  8 10  1  0  0  0  0
  8  3  2  0  0  0  0
  9  2  1  0  0  0  0
  9 10  2  0  0  0  0
 10 16  1  0  0  0  0
 11 24  1  0  0  0  0
 12 14  1  0  0  0  0
 13  5  2  0  0  0  0
 13  6  1  0  0  0  0
 14  5  1  0  0  0  0
 16 11  2  0  0  0  0
 16 15  1  0  0  0  0
 17  2  2  0  0  0  0
 18 11  1  0  0  0  0
 20 21  1  0  0  0  0
 20 19  1  0  0  0  0
 21 23  2  0  0  0  0
 22 21  2  0  0  0  0
 24 27  1  0  0  0  0
 25 31  1  1  0  0  0
 26 28  1  1  0  0  0
 26 25  1  0  0  0  0
 27 26  1  0  0  0  0
 27 25  1  0  0  0  0
 28 29  1  0  0  0  0
 30 28  1  0  0  0  0
 31 32  1  0  0  0  0
M  END
>  <MODEL>
6

>  <REMARK>
 VINA RESULT:      -7.6      4.189      6.968
  Name = 
  7 active torsions:
  status: ('A' for Active; 'I' for Inactive)
    1  A    between atoms: N_1  and  N_10
    2  A    between atoms: C_2  and  C_24
    3  A    between atoms: C_6  and  C_7
    4  A    between atoms: N_10  and  C_24
    5  A    between atoms: C_11  and  C_22
    6  A    between atoms: C_16  and  C_27
    7  A    between atoms: C_27  and  N_32
                            x       y       z     vdW  Elec       q    Type
                         _______ _______ _______ _____ _____    ______ ____

>  <TORSDO>
F 7

$$$$
=
 OpenBabel11052416563D

 32 36  0  0  1  0  0  0  0  0999 V2000
  187.9910  177.6470  136.0760 C   0  0  1  0  0  3  0  0  0  0  0  0
  188.0220  178.0910  141.2600 C   0  0  0  0  0  0  0  0  0  0  0  0
  183.3620  178.7600  142.4610 C   0  0  0  0  0  3  0  0  0  0  0  0
  183.7060  178.6390  143.8110 C   0  0  0  0  0  3  0  0  0  0  0  0
  188.6150  177.9890  138.8770 C   0  0  0  0  0  0  0  0  0  0  0  0
  186.2940  178.3290  139.4750 N   0  0  0  0  0  2  0  0  0  0  0  0
  186.9340  178.2140  137.0170 C   0  0  0  0  0  2  0  0  0  0  0  0
  184.3440  178.6460  141.4720 C   0  0  0  0  0  3  0  0  0  0  0  0
  186.6180  178.2980  140.8740 C   0  0  0  0  0  0  0  0  0  0  0  0
  185.6840  178.4240  141.8270 C   0  0  0  0  0  0  0  0  0  0  0  0
  187.3360  178.1380  143.5890 C   0  0  0  0  0  0  0  0  0  0  0  0
  189.3880  178.1220  136.4680 C   0  0  0  0  0  2  0  0  0  0  0  0
  187.3230  178.1480  138.4830 C   0  0  0  0  0  0  0  0  0  0  0  0
  189.7310  177.7340  137.8950 C   0  0  0  0  0  2  0  0  0  0  0  0
  185.0300  178.4210  144.1820 C   0  0  0  0  0  3  0  0  0  0  0  0
  186.0420  178.3220  143.2110 C   0  0  0  0  0  0  0  0  0  0  0  0
  188.9590  177.9490  140.3190 C   0  0  0  0  0  3  0  0  0  0  0  0
  188.3470  178.0370  142.6160 O   0  0  0  0  0  0  0  0  0  0  0  0
  187.9140  176.1280  135.9640 C   0  0  0  0  0  2  0  0  0  0  0  0
  188.9990  175.6020  135.1400 N   0  0  0  0  0  2  0  0  0  0  0  0
  189.8620  174.5770  135.5930 N   0  0  0  0  0  0  0  0  0  0  0  0
  190.5560  174.7710  136.6150 O   0  0  0  0  0  0  0  0  0  0  0  0
  190.0910  173.4560  134.8210 O   0  0  0  0  0  0  0  0  0  0  0  0
  187.7410  178.0730  145.0340 C   0  0  0  0  0  2  0  0  0  0  0  0
  189.9950  177.0970  145.0730 C   0  0  1  0  0  3  0  0  0  0  0  0
  189.5350  176.9640  146.4580 C   0  0  2  0  0  3  0  0  0  0  0  0
  188.5530  176.8410  145.3070 N   0  0  0  0  0  0  0  0  0  0  0  0
  188.6950  177.4990  147.6620 C   0  0  0  0  0  3  0  0  0  0  0  0
  189.4320  178.3610  148.4890 O   0  0  0  0  0  1  0  0  0  0  0  0
  188.1450  176.4600  148.4110 O   0  0  0  0  0  1  0  0  0  0  0  0
  190.4860  178.5530  144.8650 C   0  0  0  0  0  2  0  0  0  0  0  0
  191.5780  178.5830  143.7880 C   0  0  0  0  0  1  0  0  0  0  0  0
  1 19  1  1  0  0  0
  1 12  1  0  0  0  0
  1  7  1  0  0  0  0
  2 18  1  0  0  0  0
  3  4  1  0  0  0  0
  4 15  2  0  0  0  0
  5 17  1  0  0  0  0
  6  9  1  0  0  0  0
  7 13  1  0  0  0  0
  8 10  1  0  0  0  0
  8  3  2  0  0  0  0
  9  2  1  0  0  0  0
  9 10  2  0  0  0  0
 10 16  1  0  0  0  0
 11 24  1  0  0  0  0
 12 14  1  0  0  0  0
 13  5  2  0  0  0  0
 13  6  1  0  0  0  0
 14  5  1  0  0  0  0
 16 11  2  0  0  0  0
 16 15  1  0  0  0  0
 17  2  2  0  0  0  0
 18 11  1  0  0  0  0
 20 21  1  0  0  0  0
 20 19  1  0  0  0  0
 21 22  2  0  0  0  0
 23 21  2  0  0  0  0
 24 27  1  0  0  0  0
 25 31  1  1  0  0  0
 25 27  1  0  0  0  0
 25 26  1  0  0  0  0
 26 28  1  1  0  0  0
 27 26  1  0  0  0  0
 28 30  1  0  0  0  0
 28 29  1  0  0  0  0
 32 31  1  0  0  0  0
M  END
>  <MODEL>
7

>  <REMARK>
 VINA RESULT:      -7.5      3.850      7.014
  Name = 
  7 active torsions:
  status: ('A' for Active; 'I' for Inactive)
    1  A    between atoms: N_1  and  N_10
    2  A    between atoms: C_2  and  C_24
    3  A    between atoms: C_6  and  C_7
    4  A    between atoms: N_10  and  C_24
    5  A    between atoms: C_11  and  C_22
    6  A    between atoms: C_16  and  C_27
    7  A    between atoms: C_27  and  N_32
                            x       y       z     vdW  Elec       q    Type
                         _______ _______ _______ _____ _____    ______ ____

>  <TORSDO>
F 7

$$$$
=
 OpenBabel11052416563D

 32 36  0  0  1  0  0  0  0  0999 V2000
  191.8780  177.2140  143.6050 C   0  0  1  0  0  3  0  0  0  0  0  0
  187.7810  178.2990  140.5880 C   0  0  0  0  0  0  0  0  0  0  0  0
  188.7680  176.1320  136.3540 C   0  0  0  0  0  3  0  0  0  0  0  0
  187.4770  176.4350  135.9120 C   0  0  0  0  0  3  0  0  0  0  0  0
  189.4880  178.2520  142.3550 C   0  0  0  0  0  0  0  0  0  0  0  0
  189.9840  177.1780  140.2430 N   0  0  0  0  0  2  0  0  0  0  0  0
  191.7300  177.1380  142.0890 C   0  0  0  0  0  2  0  0  0  0  0  0
  189.1790  176.5070  137.6360 C   0  0  0  0  0  3  0  0  0  0  0  0
  188.6970  177.5460  139.7190 C   0  0  0  0  0  0  0  0  0  0  0  0
  188.3040  177.2050  138.4840 C   0  0  0  0  0  0  0  0  0  0  0  0
  186.1270  178.2380  138.8100 C   0  0  0  0  0  0  0  0  0  0  0  0
  191.2530  178.4950  144.1550 C   0  0  0  0  0  2  0  0  0  0  0  0
  190.3500  177.5300  141.5910 C   0  0  0  0  0  0  0  0  0  0  0  0
  189.7830  178.6000  143.7920 C   0  0  0  0  0  2  0  0  0  0  0  0
  186.5960  177.1280  136.7380 C   0  0  0  0  0  3  0  0  0  0  0  0
  186.9880  177.5370  138.0250 C   0  0  0  0  0  0  0  0  0  0  0  0
  188.1550  178.6310  141.8260 C   0  0  0  0  0  3  0  0  0  0  0  0
  186.5200  178.6440  140.0990 O   0  0  0  0  0  0  0  0  0  0  0  0
  191.3410  175.9700  144.3040 C   0  0  0  0  0  2  0  0  0  0  0  0
  192.0360  175.7290  145.5660 N   0  0  0  0  0  2  0  0  0  0  0  0
  191.6320  176.3370  146.7770 N   0  0  0  0  0  0  0  0  0  0  0  0
  192.4320  176.3750  147.7380 O   0  0  0  0  0  0  0  0  0  0  0  0
  190.3170  176.7070  146.9750 O   0  0  0  0  0  0  0  0  0  0  0  0
  184.7590  178.6360  138.3340 C   0  0  0  0  0  2  0  0  0  0  0  0
  182.8410  180.1210  138.7190 C   0  0  1  0  0  3  0  0  0  0  0  0
  182.9590  179.3750  139.9740 C   0  0  2  0  0  3  0  0  0  0  0  0
  184.1990  179.7420  139.1790 N   0  0  0  0  0  0  0  0  0  0  0  0
  183.3330  178.0650  140.7400 C   0  0  0  0  0  3  0  0  0  0  0  0
  182.4580  177.0070  140.4500 O   0  0  0  0  0  1  0  0  0  0  0  0
  183.4060  178.2730  142.1160 O   0  0  0  0  0  1  0  0  0  0  0  0
  182.1060  179.2220  137.6900 C   0  0  0  0  0  2  0  0  0  0  0  0
  180.9780  180.0160  137.0190 C   0  0  0  0  0  1  0  0  0  0  0  0
  1 12  1  0  0  0  0
  1 19  1  1  0  0  0
  2 17  2  0  0  0  0
  3  8  2  0  0  0  0
  4  3  1  0  0  0  0
  4 15  2  0  0  0  0
  5 14  1  0  0  0  0
  6 13  1  0  0  0  0
  7  1  1  0  0  0  0
  8 10  1  0  0  0  0
  9  6  1  0  0  0  0
  9  2  1  0  0  0  0
 10  9  2  0  0  0  0
 11 18  1  0  0  0  0
 13  7  1  0  0  0  0
 13  5  2  0  0  0  0
 14 12  1  0  0  0  0
 15 16  1  0  0  0  0
 16 10  1  0  0  0  0
 16 11  2  0  0  0  0
 17  5  1  0  0  0  0
 18  2  1  0  0  0  0
 19 20  1  0  0  0  0
 20 21  1  0  0  0  0
 21 23  2  0  0  0  0
 21 22  2  0  0  0  0
 24 11  1  0  0  0  0
 24 27  1  0  0  0  0
 25 31  1  6  0  0  0
 25 27  1  0  0  0  0
 25 26  1  0  0  0  0
 26 28  1  6  0  0  0
 27 26  1  0  0  0  0
 28 30  1  0  0  0  0
 29 28  1  0  0  0  0
 32 31  1  0  0  0  0
M  END
>  <MODEL>
8

>  <REMARK>
 VINA RESULT:      -7.3      3.579      9.612
  Name = 
  7 active torsions:
  status: ('A' for Active; 'I' for Inactive)
    1  A    between atoms: N_1  and  N_10
    2  A    between atoms: C_2  and  C_24
    3  A    between atoms: C_6  and  C_7
    4  A    between atoms: N_10  and  C_24
    5  A    between atoms: C_11  and  C_22
    6  A    between atoms: C_16  and  C_27
    7  A    between atoms: C_27  and  N_32
                            x       y       z     vdW  Elec       q    Type
                         _______ _______ _______ _____ _____    ______ ____

>  <TORSDO>
F 7

$$$$
=
 OpenBabel11052416563D

 32 36  0  0  1  0  0  0  0  0999 V2000
  180.2080  179.9410  138.5030 C   0  0  1  0  0  3  0  0  0  0  0  0
  184.0760  178.7530  141.7720 C   0  0  0  0  0  0  0  0  0  0  0  0
  187.9770  178.2430  138.9220 C   0  0  0  0  0  3  0  0  0  0  0  0
  188.7810  178.1440  140.0610 C   0  0  0  0  0  3  0  0  0  0  0  0
  181.8960  179.1560  140.7140 C   0  0  0  0  0  0  0  0  0  0  0  0
  183.8370  178.8950  139.2920 N   0  0  0  0  0  2  0  0  0  0  0  0
  181.5710  179.3190  138.2230 C   0  0  0  0  0  2  0  0  0  0  0  0
  186.5970  178.4300  139.0480 C   0  0  0  0  0  3  0  0  0  0  0  0
  184.6860  178.7020  140.4350 C   0  0  0  0  0  0  0  0  0  0  0  0
  186.0070  178.5040  140.3200 C   0  0  0  0  0  0  0  0  0  0  0  0
  186.2810  178.4190  142.7350 C   0  0  0  0  0  0  0  0  0  0  0  0
  179.5630  179.3180  139.7390 C   0  0  0  0  0  2  0  0  0  0  0  0
  182.4290  179.1450  139.4630 C   0  0  0  0  0  0  0  0  0  0  0  0
  180.4430  179.4720  140.9660 C   0  0  0  0  0  2  0  0  0  0  0  0
  188.2130  178.2140  141.3310 C   0  0  0  0  0  3  0  0  0  0  0  0
  186.8260  178.3810  141.4890 C   0  0  0  0  0  0  0  0  0  0  0  0
  182.7640  178.9640  141.9000 C   0  0  0  0  0  3  0  0  0  0  0  0
  184.8930  178.5880  142.8920 O   0  0  0  0  0  0  0  0  0  0  0  0
  180.2710  181.4620  138.5950 C   0  0  0  0  0  2  0  0  0  0  0  0
  181.1640  182.0180  137.5830 N   0  0  0  0  0  2  0  0  0  0  0  0
  180.9860  183.3170  137.0510 N   0  0  0  0  0  0  0  0  0  0  0  0
  180.0300  183.5330  136.2750 O   0  0  0  0  0  0  0  0  0  0  0  0
  181.9540  184.2860  137.2200 O   0  0  0  0  0  0  0  0  0  0  0  0
  187.1130  178.2460  143.9740 C   0  0  0  0  0  2  0  0  0  0  0  0
  187.4910  176.8080  145.9280 C   0  0  1  0  0  3  0  0  0  0  0  0
  186.3380  177.6240  146.3160 C   0  0  2  0  0  3  0  0  0  0  0  0
  186.5260  177.1980  144.8720 N   0  0  0  0  0  0  0  0  0  0  0  0
  185.5510  178.9730  146.2490 C   0  0  0  0  0  3  0  0  0  0  0  0
  185.8610  179.8280  147.3180 O   0  0  0  0  0  1  0  0  0  0  0  0
  184.1740  178.7650  146.1760 O   0  0  0  0  0  1  0  0  0  0  0  0
  188.7740  177.6530  146.1380 C   0  0  0  0  0  2  0  0  0  0  0  0
  188.9860  177.9130  147.6340 C   0  0  0  0  0  1  0  0  0  0  0  0
  1 19  1  1  0  0  0
  1 12  1  0  0  0  0
  2 17  2  0  0  0  0
  2 18  1  0  0  0  0
  3  8  2  0  0  0  0
  3  4  1  0  0  0  0
  4 15  2  0  0  0  0
  5 14  1  0  0  0  0
  5 17  1  0  0  0  0
  6 13  1  0  0  0  0
  6  9  1  0  0  0  0
  7  1  1  0  0  0  0
  7 13  1  0  0  0  0
  8 10  1  0  0  0  0
  9  2  1  0  0  0  0
 10  9  2  0  0  0  0
 10 16  1  0  0  0  0
 11 18  1  0  0  0  0
 11 24  1  0  0  0  0
 12 14  1  0  0  0  0
 13  5  2  0  0  0  0
 15 16  1  0  0  0  0
 16 11  2  0  0  0  0
 20 19  1  0  0  0  0
 21 23  2  0  0  0  0
 21 20  1  0  0  0  0
 22 21  2  0  0  0  0
 24 27  1  0  0  0  0
 25 31  1  6  0  0  0
 25 26  1  0  0  0  0
 26 28  1  6  0  0  0
 27 25  1  0  0  0  0
 27 26  1  0  0  0  0
 28 29  1  0  0  0  0
 30 28  1  0  0  0  0
 31 32  1  0  0  0  0
M  END
>  <MODEL>
9

>  <REMARK>
 VINA RESULT:      -7.3      3.565      5.599
  Name = 
  7 active torsions:
  status: ('A' for Active; 'I' for Inactive)
    1  A    between atoms: N_1  and  N_10
    2  A    between atoms: C_2  and  C_24
    3  A    between atoms: C_6  and  C_7
    4  A    between atoms: N_10  and  C_24
    5  A    between atoms: C_11  and  C_22
    6  A    between atoms: C_16  and  C_27
    7  A    between atoms: C_27  and  N_32
                            x       y       z     vdW  Elec       q    Type
                         _______ _______ _______ _____ _____    ______ ____

>  <TORSDO>
F 7

$$$$
