=
 OpenBabel11052414203D

 34 38  0  0  1  0  0  0  0  0999 V2000
  190.5290  176.0380  142.9190 C   0  0  2  0  0  3  0  0  0  0  0  0
  189.8910  177.7890  144.6950 C   0  0  2  0  0  3  0  0  0  0  0  0
  188.4680  177.4840  142.6430 N   0  0  0  0  0  0  0  0  0  0  0  0
  186.2650  178.5930  142.2090 C   0  0  0  0  0  0  0  0  0  0  0  0
  191.9200  176.5050  144.9720 C   0  0  0  0  0  2  0  0  0  0  0  0
  190.7690  177.1030  145.6550 N   0  0  0  0  0  2  0  0  0  0  0  0
  186.7420  177.5690  144.3550 C   0  0  0  0  0  3  0  0  0  0  0  0
  189.3980  176.8260  143.5870 C   0  0  1  0  0  3  0  0  0  0  0  0
  185.3980  177.9500  144.8240 C   0  0  0  0  0  3  0  0  0  0  0  0
  184.9820  179.1970  142.7130 C   0  0  0  0  0  2  0  0  0  0  0  0
  191.4660  175.4400  143.9710 C   0  0  0  0  0  2  0  0  0  0  0  0
  188.7450  177.6280  141.2170 C   0  0  0  0  0  0  0  0  0  0  0  0
  191.4410  177.0890  141.7600 S   0  0  0  0  0  0  0  0  0  0  0  0
  190.5270  179.0740  144.1720 C   0  0  0  0  0  1  0  0  0  0  0  0
  186.5900  178.7200  140.9600 N   0  0  0  0  0  0  0  0  0  0  0  0
  187.7980  178.1740  140.3960 C   0  0  0  0  0  0  0  0  0  0  0  0
  184.5730  178.6870  144.0830 C   0  0  0  0  0  0  0  0  0  0  0  0
  187.1700  177.8840  143.1260 C   0  0  0  0  0  0  0  0  0  0  0  0
  190.0140  177.0720  140.6260 C   0  0  0  0  0  2  0  0  0  0  0  0
  187.1280  177.5670  136.7170 C   0  0  0  0  0  0  0  0  0  0  0  0
  188.2420  178.1600  136.1160 C   0  0  0  0  0  3  0  0  0  0  0  0
  187.9310  178.2440  138.9150 C   0  0  0  0  0  0  0  0  0  0  0  0
  189.2020  178.7960  136.9080 C   0  0  0  0  0  3  0  0  0  0  0  0
  186.9810  177.5920  138.1070 C   0  0  0  0  0  3  0  0  0  0  0  0
  189.0500  178.8310  138.2980 C   0  0  0  0  0  3  0  0  0  0  0  0
  186.1030  176.8910  135.8840 C   0  0  0  0  0  1  0  0  0  0  0  0
  183.2050  178.9610  144.6370 C   0  0  0  0  0  2  0  0  0  0  0  0
  182.2700  179.6340  143.6280 C   0  0  0  0  0  2  0  0  0  0  0  0
  181.2240  178.6180  143.1770 C   0  0  2  0  0  3  0  0  0  0  0  0
  182.1680  178.5910  140.9910 F   0  0  0  0  0  0  0  0  0  0  0  0
  180.1600  179.8420  141.1950 C   0  0  0  0  0  1  0  0  0  0  0  0
  180.9640  178.6400  141.6680 C   0  0  2  0  0  3  0  0  0  0  0  0
  179.9340  178.6490  144.0140 C   0  0  0  0  0  2  0  0  0  0  0  0
  179.5780  177.3650  144.4330 O   0  0  0  0  0  1  0  0  0  0  0  0
  1  8  1  0  0  0  0
  1 11  1  1  0  0  0
  2 14  1  6  0  0  0
  2  6  1  0  0  0  0
  3 18  1  0  0  0  0
  4 10  1  0  0  0  0
  4 18  1  0  0  0  0
  5  6  1  0  0  0  0
  7  9  1  0  0  0  0
  8  3  1  6  0  0  0
  8  2  1  0  0  0  0
 10 17  1  0  0  0  0
 11  5  1  0  0  0  0
 12  3  1  0  0  0  0
 13  1  1  0  0  0  0
 15  4  2  0  0  0  0
 16 15  1  0  0  0  0
 16 12  2  0  0  0  0
 17 27  1  0  0  0  0
 17  9  2  0  0  0  0
 18  7  2  0  0  0  0
 19 12  1  0  0  0  0
 19 13  1  0  0  0  0
 20 24  1  0  0  0  0
 21 20  2  0  0  0  0
 21 23  1  0  0  0  0
 22 16  1  0  0  0  0
 23 25  2  0  0  0  0
 24 22  2  0  0  0  0
 25 22  1  0  0  0  0
 26 20  1  0  0  0  0
 28 27  1  0  0  0  0
 29 28  1  1  0  0  0
 29 33  1  0  0  0  0
 30 32  1  0  0  0  0
 32 31  1  1  0  0  0
 32 29  1  0  0  0  0
 33 34  1  0  0  0  0
M  END
>  <MODEL>
1

>  <REMARK>
 VINA RESULT:      -9.3      0.000      0.000
  Name = 
  6 active torsions:
  status: ('A' for Active; 'I' for Inactive)
    1  A    between atoms: C_3  and  C_13
    2  A    between atoms: C_3  and  C_29
    3  A    between atoms: C_12  and  C_28
    4  A    between atoms: C_13  and  C_22
    5  A    between atoms: C_20  and  C_22
    6  A    between atoms: C_22  and  C_33
                            x       y       z     vdW  Elec       q    Type
                         _______ _______ _______ _____ _____    ______ ____

>  <TORSDO>
F 6

$$$$
=
 OpenBabel11052414203D

 34 38  0  0  1  0  0  0  0  0999 V2000
  188.0930  177.5770  135.2890 C   0  0  2  0  0  3  0  0  0  0  0  0
  186.5790  176.7640  137.2070 C   0  0  2  0  0  3  0  0  0  0  0  0
  189.0650  176.9580  137.5460 N   0  0  0  0  0  0  0  0  0  0  0  0
  190.2770  176.6440  139.7140 C   0  0  0  0  0  0  0  0  0  0  0  0
  185.6030  177.2510  135.0500 C   0  0  0  0  0  2  0  0  0  0  0  0
  185.4200  177.3320  136.5030 N   0  0  0  0  0  2  0  0  0  0  0  0
  188.2690  177.9970  139.5960 C   0  0  0  0  0  3  0  0  0  0  0  0
  187.8940  177.4780  136.8060 C   0  0  1  0  0  3  0  0  0  0  0  0
  188.3850  178.2780  141.0370 C   0  0  0  0  0  3  0  0  0  0  0  0
  190.3110  176.7150  141.2170 C   0  0  0  0  0  3  0  0  0  0  0  0
  186.8160  178.0730  134.6080 C   0  0  0  0  0  2  0  0  0  0  0  0
  190.2050  176.3210  136.8930 C   0  0  0  0  0  0  0  0  0  0  0  0
  188.6160  175.9830  134.6090 S   0  0  0  0  0  0  0  0  0  0  0  0
  186.6260  175.2440  137.0770 C   0  0  0  0  0  1  0  0  0  0  0  0
  191.2400  176.0550  139.0750 N   0  0  0  0  0  0  0  0  0  0  0  0
  191.2860  175.9420  137.6400 C   0  0  0  0  0  0  0  0  0  0  0  0
  189.3200  177.7090  141.7960 C   0  0  0  0  0  0  0  0  0  0  0  0
  189.1480  177.2100  138.9630 C   0  0  1  0  0  3  0  0  0  0  0  0
  190.2490  176.1870  135.3940 C   0  0  0  0  0  2  0  0  0  0  0  0
  193.9720  173.4880  136.5830 C   0  0  0  0  0  0  0  0  0  0  0  0
  194.9950  174.3410  136.1600 C   0  0  0  0  0  3  0  0  0  0  0  0
  192.5450  175.4060  137.0550 C   0  0  0  0  0  0  0  0  0  0  0  0
  194.8000  175.7250  136.1820 C   0  0  0  0  0  3  0  0  0  0  0  0
  192.7620  174.0150  137.0450 C   0  0  0  0  0  3  0  0  0  0  0  0
  193.5860  176.2530  136.6330 C   0  0  0  0  0  3  0  0  0  0  0  0
  194.1700  172.0180  136.5620 C   0  0  0  0  0  1  0  0  0  0  0  0
  189.3830  178.1190  143.2390 C   0  0  0  0  0  2  0  0  0  0  0  0
  189.4170  176.9280  144.2020 C   0  0  0  0  0  2  0  0  0  0  0  0
  190.1480  177.3490  145.4740 C   0  0  2  0  0  3  0  0  0  0  0  0
  191.8190  175.9650  144.4930 F   0  0  0  0  0  0  0  0  0  0  0  0
  191.8600  176.0500  146.8660 C   0  0  0  0  0  1  0  0  0  0  0  0
  191.5720  176.7950  145.5700 C   0  0  2  0  0  3  0  0  0  0  0  0
  189.3270  177.1350  146.7570 C   0  0  0  0  0  2  0  0  0  0  0  0
  187.9570  177.1930  146.4910 O   0  0  0  0  0  1  0  0  0  0  0  0
  1 11  1  6  0  0  0
  1  8  1  0  0  0  0
  2 14  1  6  0  0  0
  3 18  1  0  0  0  0
  4 10  1  0  0  0  0
  5  6  1  0  0  0  0
  6  2  1  0  0  0  0
  7  9  2  0  0  0  0
  8  2  1  0  0  0  0
  8  3  1  1  0  0  0
  9 17  1  0  0  0  0
 10 17  2  0  0  0  0
 11  5  1  0  0  0  0
 12  3  1  0  0  0  0
 12 16  2  0  0  0  0
 13  1  1  0  0  0  0
 13 19  1  0  0  0  0
 15  4  2  0  0  0  0
 16 15  1  0  0  0  0
 17 27  1  0  0  0  0
 18  7  1  6  0  0  0
 18  4  1  0  0  0  0
 19 12  1  0  0  0  0
 20 24  1  0  0  0  0
 21 23  1  0  0  0  0
 21 20  2  0  0  0  0
 22 16  1  0  0  0  0
 23 25  2  0  0  0  0
 24 22  2  0  0  0  0
 25 22  1  0  0  0  0
 26 20  1  0  0  0  0
 27 28  1  0  0  0  0
 29 28  1  6  0  0  0
 29 32  1  0  0  0  0
 29 33  1  0  0  0  0
 30 32  1  0  0  0  0
 32 31  1  1  0  0  0
 34 33  1  0  0  0  0
M  END
>  <MODEL>
2

>  <REMARK>
 VINA RESULT:      -8.2      4.792      7.929
  Name = 
  6 active torsions:
  status: ('A' for Active; 'I' for Inactive)
    1  A    between atoms: C_3  and  C_13
    2  A    between atoms: C_3  and  C_29
    3  A    between atoms: C_12  and  C_28
    4  A    between atoms: C_13  and  C_22
    5  A    between atoms: C_20  and  C_22
    6  A    between atoms: C_22  and  C_33
                            x       y       z     vdW  Elec       q    Type
                         _______ _______ _______ _____ _____    ______ ____

>  <TORSDO>
F 6

$$$$
=
 OpenBabel11052414203D

 34 38  0  0  1  0  0  0  0  0999 V2000
  187.3590  176.1920  136.5340 C   0  0  2  0  0  3  0  0  0  0  0  0
  189.4480  177.5770  137.1240 C   0  0  2  0  0  3  0  0  0  0  0  0
  187.4820  177.5130  138.6930 N   0  0  0  0  0  0  0  0  0  0  0  0
  187.4030  178.5170  140.9850 C   0  0  0  0  0  0  0  0  0  0  0  0
  189.3550  176.4140  135.0070 C   0  0  0  0  0  2  0  0  0  0  0  0
  190.2120  176.8080  136.1310 N   0  0  0  0  0  2  0  0  0  0  0  0
  189.3040  177.1920  140.2720 C   0  0  0  0  0  3  0  0  0  0  0  0
  188.2310  176.7770  137.6500 C   0  0  1  0  0  3  0  0  0  0  0  0
  189.9270  177.3940  141.5920 C   0  0  0  0  0  3  0  0  0  0  0  0
  188.0930  178.9370  142.2550 C   0  0  0  0  0  3  0  0  0  0  0  0
  188.2250  175.4970  135.4800 C   0  0  0  0  0  2  0  0  0  0  0  0
  186.0850  177.9080  138.5440 C   0  0  0  0  0  0  0  0  0  0  0  0
  186.3330  177.4810  135.7850 S   0  0  0  0  0  0  0  0  0  0  0  0
  189.1060  178.9730  136.6100 C   0  0  0  0  0  1  0  0  0  0  0  0
  186.1730  178.8710  140.7730 N   0  0  0  0  0  0  0  0  0  0  0  0
  185.4390  178.5120  139.5860 C   0  0  0  0  0  0  0  0  0  0  0  0
  189.3840  178.1820  142.5180 C   0  0  0  0  0  0  0  0  0  0  0  0
  188.1180  177.7340  139.9670 C   0  0  1  0  0  3  0  0  0  0  0  0
  185.3180  177.5490  137.2990 C   0  0  0  0  0  2  0  0  0  0  0  0
  182.1920  180.3640  138.9650 C   0  0  0  0  0  0  0  0  0  0  0  0
  181.2820  179.6150  139.7150 C   0  0  0  0  0  3  0  0  0  0  0  0
  183.9860  178.8340  139.5820 C   0  0  0  0  0  0  0  0  0  0  0  0
  181.7160  178.4750  140.3980 C   0  0  0  0  0  3  0  0  0  0  0  0
  183.5380  179.9890  138.9130 C   0  0  0  0  0  3  0  0  0  0  0  0
  183.0600  178.0930  140.3380 C   0  0  0  0  0  3  0  0  0  0  0  0
  181.7400  181.5730  138.2350 C   0  0  0  0  0  1  0  0  0  0  0  0
  190.0730  178.2620  143.8480 C   0  0  0  0  0  2  0  0  0  0  0  0
  189.6610  177.1420  144.8080 C   0  0  0  0  0  2  0  0  0  0  0  0
  188.9860  177.7670  146.0270 C   0  0  2  0  0  3  0  0  0  0  0  0
  189.3790  178.1390  148.3470 F   0  0  0  0  0  0  0  0  0  0  0  0
  190.8780  176.6150  147.3120 C   0  0  0  0  0  1  0  0  0  0  0  0
  189.4650  177.1780  147.3570 C   0  0  2  0  0  3  0  0  0  0  0  0
  187.4550  177.8400  145.9140 C   0  0  0  0  0  2  0  0  0  0  0  0
  186.9830  176.9740  144.9250 O   0  0  0  0  0  1  0  0  0  0  0  0
  1 11  1  6  0  0  0
  1  8  1  0  0  0  0
  2 14  1  6  0  0  0
  2  8  1  0  0  0  0
  3 18  1  0  0  0  0
  4 10  1  0  0  0  0
  5 11  1  0  0  0  0
  5  6  1  0  0  0  0
  6  2  1  0  0  0  0
  7  9  2  0  0  0  0
  8  3  1  6  0  0  0
  9 17  1  0  0  0  0
 10 17  2  0  0  0  0
 12  3  1  0  0  0  0
 12 16  2  0  0  0  0
 13  1  1  0  0  0  0
 13 19  1  0  0  0  0
 15  4  2  0  0  0  0
 16 15  1  0  0  0  0
 17 27  1  0  0  0  0
 18  7  1  1  0  0  0
 18  4  1  0  0  0  0
 19 12  1  0  0  0  0
 20 21  1  0  0  0  0
 21 23  2  0  0  0  0
 22 16  1  0  0  0  0
 22 25  2  0  0  0  0
 24 20  2  0  0  0  0
 24 22  1  0  0  0  0
 25 23  1  0  0  0  0
 26 20  1  0  0  0  0
 27 28  1  0  0  0  0
 29 28  1  6  0  0  0
 29 32  1  0  0  0  0
 32 31  1  6  0  0  0
 32 30  1  0  0  0  0
 33 29  1  0  0  0  0
 34 33  1  0  0  0  0
M  END
>  <MODEL>
3

>  <REMARK>
 VINA RESULT:      -8.2      3.485      7.036
  Name = 
  6 active torsions:
  status: ('A' for Active; 'I' for Inactive)
    1  A    between atoms: C_3  and  C_13
    2  A    between atoms: C_3  and  C_29
    3  A    between atoms: C_12  and  C_28
    4  A    between atoms: C_13  and  C_22
    5  A    between atoms: C_20  and  C_22
    6  A    between atoms: C_22  and  C_33
                            x       y       z     vdW  Elec       q    Type
                         _______ _______ _______ _____ _____    ______ ____

>  <TORSDO>
F 6

$$$$
=
 OpenBabel11052414203D

 34 38  0  0  1  0  0  0  0  0999 V2000
  187.2910  176.2400  136.5160 C   0  0  2  0  0  3  0  0  0  0  0  0
  189.4110  177.5640  137.1330 C   0  0  2  0  0  3  0  0  0  0  0  0
  187.4210  177.5640  138.6730 N   0  0  0  0  0  0  0  0  0  0  0  0
  187.3370  178.5790  140.9600 C   0  0  0  0  0  0  0  0  0  0  0  0
  189.3160  176.3970  135.0190 C   0  0  0  0  0  2  0  0  0  0  0  0
  190.1670  176.7690  136.1550 N   0  0  0  0  0  2  0  0  0  0  0  0
  189.2080  177.1940  140.2810 C   0  0  0  0  0  3  0  0  0  0  0  0
  188.1640  176.8020  137.6440 C   0  0  1  0  0  3  0  0  0  0  0  0
  189.8170  177.3820  141.6090 C   0  0  0  0  0  3  0  0  0  0  0  0
  188.0200  178.9820  142.2390 C   0  0  0  0  0  3  0  0  0  0  0  0
  188.1520  175.5160  135.4780 C   0  0  0  0  0  2  0  0  0  0  0  0
  186.0380  178.0000  138.5010 C   0  0  0  0  0  0  0  0  0  0  0  0
  186.3160  177.5570  135.7480 S   0  0  0  0  0  0  0  0  0  0  0  0
  189.1190  178.9680  136.6100 C   0  0  0  0  0  1  0  0  0  0  0  0
  186.1220  178.9680  140.7280 N   0  0  0  0  0  0  0  0  0  0  0  0
  185.3950  178.6280  139.5320 C   0  0  0  0  0  0  0  0  0  0  0  0
  189.2830  178.1890  142.5240 C   0  0  0  0  0  0  0  0  0  0  0  0
  188.0440  177.7700  139.9560 C   0  0  1  0  0  3  0  0  0  0  0  0
  185.2810  177.6600  137.2450 C   0  0  0  0  0  2  0  0  0  0  0  0
  181.6400  178.3870  139.9740 C   0  0  0  0  0  0  0  0  0  0  0  0
  181.1930  179.5230  139.2950 C   0  0  0  0  0  3  0  0  0  0  0  0
  183.9520  178.9930  139.5040 C   0  0  0  0  0  0  0  0  0  0  0  0
  182.1200  180.3980  138.7200 C   0  0  0  0  0  3  0  0  0  0  0  0
  183.0080  178.1120  140.0630 C   0  0  0  0  0  3  0  0  0  0  0  0
  183.4890  180.1300  138.8180 C   0  0  0  0  0  3  0  0  0  0  0  0
  180.6640  177.4540  140.5880 C   0  0  0  0  0  1  0  0  0  0  0  0
  189.9550  178.2530  143.8650 C   0  0  0  0  0  2  0  0  0  0  0  0
  189.5070  177.1390  144.8160 C   0  0  0  0  0  2  0  0  0  0  0  0
  190.2740  177.2800  146.1290 C   0  0  2  0  0  3  0  0  0  0  0  0
  191.7920  175.8530  144.9740 F   0  0  0  0  0  0  0  0  0  0  0  0
  192.0550  175.8900  147.3330 C   0  0  0  0  0  1  0  0  0  0  0  0
  191.6780  176.6700  146.0830 C   0  0  2  0  0  3  0  0  0  0  0  0
  189.4670  176.8480  147.3640 C   0  0  0  0  0  2  0  0  0  0  0  0
  189.2110  177.9370  148.2010 O   0  0  0  0  0  1  0  0  0  0  0  0
  1 11  1  6  0  0  0
  1  8  1  0  0  0  0
  2 14  1  6  0  0  0
  2  8  1  0  0  0  0
  3 18  1  0  0  0  0
  4 10  1  0  0  0  0
  5 11  1  0  0  0  0
  5  6  1  0  0  0  0
  6  2  1  0  0  0  0
  7  9  2  0  0  0  0
  8  3  1  6  0  0  0
  9 17  1  0  0  0  0
 10 17  2  0  0  0  0
 12  3  1  0  0  0  0
 12 16  2  0  0  0  0
 13  1  1  0  0  0  0
 13 19  1  0  0  0  0
 15  4  2  0  0  0  0
 16 15  1  0  0  0  0
 17 27  1  0  0  0  0
 18  7  1  1  0  0  0
 18  4  1  0  0  0  0
 19 12  1  0  0  0  0
 20 24  1  0  0  0  0
 20 26  1  0  0  0  0
 21 20  2  0  0  0  0
 22 16  1  0  0  0  0
 22 24  2  0  0  0  0
 23 25  2  0  0  0  0
 23 21  1  0  0  0  0
 25 22  1  0  0  0  0
 27 28  1  0  0  0  0
 29 28  1  6  0  0  0
 29 33  1  0  0  0  0
 30 32  1  0  0  0  0
 32 29  1  0  0  0  0
 32 31  1  1  0  0  0
 33 34  1  0  0  0  0
M  END
>  <MODEL>
4

>  <REMARK>
 VINA RESULT:      -8.0      3.813      7.401
  Name = 
  6 active torsions:
  status: ('A' for Active; 'I' for Inactive)
    1  A    between atoms: C_3  and  C_13
    2  A    between atoms: C_3  and  C_29
    3  A    between atoms: C_12  and  C_28
    4  A    between atoms: C_13  and  C_22
    5  A    between atoms: C_20  and  C_22
    6  A    between atoms: C_22  and  C_33
                            x       y       z     vdW  Elec       q    Type
                         _______ _______ _______ _____ _____    ______ ____

>  <TORSDO>
F 6

$$$$
=
 OpenBabel11052414203D

 34 38  0  0  1  0  0  0  0  0999 V2000
  182.3170  179.7480  139.2650 C   0  0  2  0  0  3  0  0  0  0  0  0
  181.6370  178.1680  141.1800 C   0  0  2  0  0  3  0  0  0  0  0  0
  184.0470  178.8190  140.8660 N   0  0  0  0  0  0  0  0  0  0  0  0
  185.9320  178.2540  142.4140 C   0  0  0  0  0  0  0  0  0  0  0  0
  179.9530  178.9460  139.6310 C   0  0  0  0  0  2  0  0  0  0  0  0
  180.2460  178.6200  141.0310 N   0  0  0  0  0  2  0  0  0  0  0  0
  183.8330  179.1110  143.2710 C   0  0  0  0  0  3  0  0  0  0  0  0
  182.6390  179.2330  140.6720 C   0  0  1  0  0  3  0  0  0  0  0  0
  184.3750  179.0440  144.6390 C   0  0  0  0  0  3  0  0  0  0  0  0
  186.4460  177.9550  143.7970 C   0  0  0  0  0  3  0  0  0  0  0  0
  180.8320  180.1010  139.1460 C   0  0  0  0  0  2  0  0  0  0  0  0
  184.9850  178.6350  139.7630 C   0  0  0  0  0  0  0  0  0  0  0  0
  182.7980  178.5320  138.0140 S   0  0  0  0  0  0  0  0  0  0  0  0
  181.8430  176.7780  140.5850 C   0  0  0  0  0  1  0  0  0  0  0  0
  186.7030  178.0720  141.3870 N   0  0  0  0  0  0  0  0  0  0  0  0
  186.2920  178.3330  140.0310 C   0  0  0  0  0  0  0  0  0  0  0  0
  185.5740  178.5260  144.9000 C   0  0  0  0  0  0  0  0  0  0  0  0
  184.5540  178.7230  142.2120 C   0  0  1  0  0  3  0  0  0  0  0  0
  184.5550  178.8920  138.3430 C   0  0  0  0  0  2  0  0  0  0  0  0
  188.0020  177.6400  136.7220 C   0  0  0  0  0  0  0  0  0  0  0  0
  189.3440  177.8780  137.0330 C   0  0  0  0  0  3  0  0  0  0  0  0
  187.3510  178.2540  138.9880 C   0  0  0  0  0  0  0  0  0  0  0  0
  189.6950  178.3040  138.3170 C   0  0  0  0  0  3  0  0  0  0  0  0
  187.0140  177.8080  137.6970 C   0  0  0  0  0  3  0  0  0  0  0  0
  188.7060  178.4830  139.2890 C   0  0  0  0  0  3  0  0  0  0  0  0
  187.6200  177.1900  135.3610 C   0  0  0  0  0  1  0  0  0  0  0  0
  186.0500  178.5680  146.3230 C   0  0  0  0  0  2  0  0  0  0  0  0
  187.0080  177.4240  146.6710 C   0  0  0  0  0  2  0  0  0  0  0  0
  188.4230  177.9880  146.7780 C   0  0  2  0  0  3  0  0  0  0  0  0
  190.4390  176.7350  146.5820 F   0  0  0  0  0  0  0  0  0  0  0  0
  190.0160  178.2330  144.7880 C   0  0  0  0  0  1  0  0  0  0  0  0
  189.4230  177.3060  145.8400 C   0  0  2  0  0  3  0  0  0  0  0  0
  188.9330  178.1050  148.2240 C   0  0  0  0  0  2  0  0  0  0  0  0
  187.9320  177.7660  149.1370 O   0  0  0  0  0  1  0  0  0  0  0  0
  1 11  1  1  0  0  0
  1  8  1  0  0  0  0
  2 14  1  6  0  0  0
  3 18  1  0  0  0  0
  4 10  1  0  0  0  0
  5  6  1  0  0  0  0
  6  2  1  0  0  0  0
  7  9  2  0  0  0  0
  8  3  1  6  0  0  0
  8  2  1  0  0  0  0
  9 17  1  0  0  0  0
 10 17  2  0  0  0  0
 11  5  1  0  0  0  0
 12 16  2  0  0  0  0
 12  3  1  0  0  0  0
 13 19  1  0  0  0  0
 13  1  1  0  0  0  0
 15  4  2  0  0  0  0
 16 15  1  0  0  0  0
 17 27  1  0  0  0  0
 18  4  1  0  0  0  0
 18  7  1  6  0  0  0
 19 12  1  0  0  0  0
 20 21  2  0  0  0  0
 20 24  1  0  0  0  0
 21 23  1  0  0  0  0
 22 25  1  0  0  0  0
 22 16  1  0  0  0  0
 23 25  2  0  0  0  0
 24 22  2  0  0  0  0
 26 20  1  0  0  0  0
 27 28  1  0  0  0  0
 29 28  1  1  0  0  0
 29 33  1  0  0  0  0
 32 31  1  6  0  0  0
 32 30  1  0  0  0  0
 32 29  1  0  0  0  0
 33 34  1  0  0  0  0
M  END
>  <MODEL>
5

>  <REMARK>
 VINA RESULT:      -7.7      3.505      6.908
  Name = 
  6 active torsions:
  status: ('A' for Active; 'I' for Inactive)
    1  A    between atoms: C_3  and  C_13
    2  A    between atoms: C_3  and  C_29
    3  A    between atoms: C_12  and  C_28
    4  A    between atoms: C_13  and  C_22
    5  A    between atoms: C_20  and  C_22
    6  A    between atoms: C_22  and  C_33
                            x       y       z     vdW  Elec       q    Type
                         _______ _______ _______ _____ _____    ______ ____

>  <TORSDO>
F 6

$$$$
=
 OpenBabel11052414203D

 34 38  0  0  1  0  0  0  0  0999 V2000
  189.5750  178.3300  144.3820 C   0  0  2  0  0  3  0  0  0  0  0  0
  190.4040  176.7140  142.5570 C   0  0  2  0  0  3  0  0  0  0  0  0
  188.3070  178.0590  142.2040 N   0  0  0  0  0  0  0  0  0  0  0  0
  186.9810  178.1800  140.0840 C   0  0  0  0  0  0  0  0  0  0  0  0
  191.6070  176.8580  144.6480 C   0  0  0  0  0  2  0  0  0  0  0  0
  191.7290  176.7080  143.1940 N   0  0  0  0  0  2  0  0  0  0  0  0
  189.3970  178.3910  140.0550 C   0  0  0  0  0  3  0  0  0  0  0  0
  189.6210  178.0100  142.8840 C   0  0  1  0  0  3  0  0  0  0  0  0
  189.3540  178.5620  138.5930 C   0  0  0  0  0  3  0  0  0  0  0  0
  186.9070  178.1220  138.5820 C   0  0  0  0  0  2  0  0  0  0  0  0
  190.9670  178.2020  145.0050 C   0  0  0  0  0  2  0  0  0  0  0  0
  187.0380  178.1190  142.9230 C   0  0  0  0  0  0  0  0  0  0  0  0
  188.3840  177.2600  145.2260 S   0  0  0  0  0  0  0  0  0  0  0  0
  189.6370  175.4270  142.8450 C   0  0  0  0  0  1  0  0  0  0  0  0
  185.8890  178.1930  140.7830 N   0  0  0  0  0  0  0  0  0  0  0  0
  185.8700  178.2470  142.2230 C   0  0  0  0  0  0  0  0  0  0  0  0
  188.2220  178.4520  137.9000 C   0  0  0  0  0  0  0  0  0  0  0  0
  188.2820  178.1910  140.7690 C   0  0  0  0  0  0  0  0  0  0  0  0
  187.0130  178.1590  144.4280 C   0  0  0  0  0  2  0  0  0  0  0  0
  182.1460  178.8140  142.6190 C   0  0  0  0  0  0  0  0  0  0  0  0
  182.0290  179.0330  143.9940 C   0  0  0  0  0  3  0  0  0  0  0  0
  184.5410  178.4450  142.8630 C   0  0  0  0  0  0  0  0  0  0  0  0
  183.1630  178.9590  144.8080 C   0  0  0  0  0  3  0  0  0  0  0  0
  183.3950  178.5400  142.0530 C   0  0  0  0  0  3  0  0  0  0  0  0
  184.4110  178.6750  144.2450 C   0  0  0  0  0  3  0  0  0  0  0  0
  180.9470  178.8890  141.7480 C   0  0  0  0  0  1  0  0  0  0  0  0
  188.2890  178.7090  136.4220 C   0  0  0  0  0  2  0  0  0  0  0  0
  189.1280  177.6730  135.6680 C   0  0  0  0  0  2  0  0  0  0  0  0
  188.7050  176.2780  136.1210 C   0  0  2  0  0  3  0  0  0  0  0  0
  189.7730  175.2050  137.9590 F   0  0  0  0  0  0  0  0  0  0  0  0
  191.2450  175.9850  136.2660 C   0  0  0  0  0  1  0  0  0  0  0  0
  189.8740  175.4110  136.5960 C   0  0  2  0  0  3  0  0  0  0  0  0
  187.7850  175.5580  135.1210 C   0  0  0  0  0  2  0  0  0  0  0  0
  186.4410  175.7910  135.4200 O   0  0  0  0  0  1  0  0  0  0  0  0
  1 11  1  1  0  0  0
  1 13  1  0  0  0  0
  2 14  1  1  0  0  0
  2  8  1  0  0  0  0
  2  6  1  0  0  0  0
  3 12  1  0  0  0  0
  4 18  1  0  0  0  0
  4 15  2  0  0  0  0
  5 11  1  0  0  0  0
  6  5  1  0  0  0  0
  7 18  2  0  0  0  0
  8  3  1  1  0  0  0
  8  1  1  0  0  0  0
  9  7  1  0  0  0  0
 10  4  1  0  0  0  0
 12 19  1  0  0  0  0
 15 16  1  0  0  0  0
 16 22  1  0  0  0  0
 16 12  2  0  0  0  0
 17 10  1  0  0  0  0
 17  9  2  0  0  0  0
 18  3  1  0  0  0  0
 19 13  1  0  0  0  0
 20 21  1  0  0  0  0
 21 23  2  0  0  0  0
 22 25  2  0  0  0  0
 24 20  2  0  0  0  0
 24 22  1  0  0  0  0
 25 23  1  0  0  0  0
 26 20  1  0  0  0  0
 27 17  1  0  0  0  0
 28 29  1  0  0  0  0
 28 27  1  0  0  0  0
 29 33  1  6  0  0  0
 29 32  1  0  0  0  0
 32 31  1  1  0  0  0
 32 30  1  0  0  0  0
 33 34  1  0  0  0  0
M  END
>  <MODEL>
6

>  <REMARK>
 VINA RESULT:      -7.5      2.924      7.012
  Name = 
  6 active torsions:
  status: ('A' for Active; 'I' for Inactive)
    1  A    between atoms: C_3  and  C_13
    2  A    between atoms: C_3  and  C_29
    3  A    between atoms: C_12  and  C_28
    4  A    between atoms: C_13  and  C_22
    5  A    between atoms: C_20  and  C_22
    6  A    between atoms: C_22  and  C_33
                            x       y       z     vdW  Elec       q    Type
                         _______ _______ _______ _____ _____    ______ ____

>  <TORSDO>
F 6

$$$$
=
 OpenBabel11052414203D

 34 38  0  0  1  0  0  0  0  0999 V2000
  188.8780  178.7290  138.5850 C   0  0  2  0  0  3  0  0  0  0  0  0
  186.8760  177.5690  137.4550 C   0  0  2  0  0  3  0  0  0  0  0  0
  186.7160  178.3330  139.8460 N   0  0  0  0  0  0  0  0  0  0  0  0
  184.6530  178.2910  141.2640 C   0  0  0  0  0  0  0  0  0  0  0  0
  188.9410  177.8340  136.2260 C   0  0  0  0  0  2  0  0  0  0  0  0
  187.4770  177.8580  136.1440 N   0  0  0  0  0  2  0  0  0  0  0  0
  184.5870  179.1410  138.9940 C   0  0  0  0  0  3  0  0  0  0  0  0
  187.3550  178.5730  138.5330 C   0  0  1  0  0  3  0  0  0  0  0  0
  183.1510  179.4290  139.1540 C   0  0  0  0  0  3  0  0  0  0  0  0
  183.1550  178.3560  141.3980 C   0  0  0  0  0  3  0  0  0  0  0  0
  189.4500  178.9190  137.1780 C   0  0  0  0  0  2  0  0  0  0  0  0
  187.4690  177.9840  141.0480 C   0  0  0  0  0  0  0  0  0  0  0  0
  189.6370  177.3060  139.4070 S   0  0  0  0  0  0  0  0  0  0  0  0
  187.0500  176.1030  137.8410 C   0  0  0  0  0  1  0  0  0  0  0  0
  185.3770  177.9480  142.2840 N   0  0  0  0  0  0  0  0  0  0  0  0
  186.8140  177.8610  142.2420 C   0  0  0  0  0  0  0  0  0  0  0  0
  182.4790  179.0860  140.2520 C   0  0  0  0  0  0  0  0  0  0  0  0
  185.3040  178.5860  139.9790 C   0  0  1  0  0  3  0  0  0  0  0  0
  188.9700  177.8770  141.0050 C   0  0  0  0  0  2  0  0  0  0  0  0
  187.5050  177.8690  145.9670 C   0  0  0  0  0  0  0  0  0  0  0  0
  188.8330  177.4400  146.0180 C   0  0  0  0  0  3  0  0  0  0  0  0
  187.5040  177.6380  143.5420 C   0  0  0  0  0  0  0  0  0  0  0  0
  189.5010  177.1070  144.8370 C   0  0  0  0  0  3  0  0  0  0  0  0
  186.8490  177.9860  144.7380 C   0  0  0  0  0  3  0  0  0  0  0  0
  188.8440  177.2120  143.6070 C   0  0  0  0  0  3  0  0  0  0  0  0
  186.7870  178.2230  147.2170 C   0  0  0  0  0  1  0  0  0  0  0  0
  181.0340  179.4880  140.3310 C   0  0  0  0  0  2  0  0  0  0  0  0
  180.6020  179.9050  141.7400 C   0  0  0  0  0  2  0  0  0  0  0  0
  179.5640  178.9080  142.2480 C   0  0  2  0  0  3  0  0  0  0  0  0
  178.9310  178.6730  144.5330 F   0  0  0  0  0  0  0  0  0  0  0  0
  181.2730  178.7290  144.1460 C   0  0  0  0  0  1  0  0  0  0  0  0
  179.9060  178.3180  143.6190 C   0  0  2  0  0  3  0  0  0  0  0  0
  179.1720  177.8430  141.2110 C   0  0  0  0  0  2  0  0  0  0  0  0
  179.2470  176.5600  141.7590 O   0  0  0  0  0  1  0  0  0  0  0  0
  1 11  1  6  0  0  0
  1 13  1  0  0  0  0
  2 14  1  1  0  0  0
  2  8  1  0  0  0  0
  3 18  1  0  0  0  0
  3 12  1  0  0  0  0
  4 10  1  0  0  0  0
  4 15  2  0  0  0  0
  5 11  1  0  0  0  0
  6  5  1  0  0  0  0
  6  2  1  0  0  0  0
  7  9  2  0  0  0  0
  8  1  1  0  0  0  0
  8  3  1  1  0  0  0
  9 17  1  0  0  0  0
 12 16  2  0  0  0  0
 13 19  1  0  0  0  0
 16 15  1  0  0  0  0
 16 22  1  0  0  0  0
 17 27  1  0  0  0  0
 17 10  2  0  0  0  0
 18  7  1  1  0  0  0
 18  4  1  0  0  0  0
 19 12  1  0  0  0  0
 20 21  1  0  0  0  0
 20 26  1  0  0  0  0
 22 25  2  0  0  0  0
 22 24  1  0  0  0  0
 23 21  2  0  0  0  0
 24 20  2  0  0  0  0
 25 23  1  0  0  0  0
 27 28  1  0  0  0  0
 28 29  1  0  0  0  0
 29 33  1  6  0  0  0
 29 32  1  0  0  0  0
 32 31  1  1  0  0  0
 32 30  1  0  0  0  0
 33 34  1  0  0  0  0
M  END
>  <MODEL>
7

>  <REMARK>
 VINA RESULT:      -7.4      2.086      5.825
  Name = 
  6 active torsions:
  status: ('A' for Active; 'I' for Inactive)
    1  A    between atoms: C_3  and  C_13
    2  A    between atoms: C_3  and  C_29
    3  A    between atoms: C_12  and  C_28
    4  A    between atoms: C_13  and  C_22
    5  A    between atoms: C_20  and  C_22
    6  A    between atoms: C_22  and  C_33
                            x       y       z     vdW  Elec       q    Type
                         _______ _______ _______ _____ _____    ______ ____

>  <TORSDO>
F 6

$$$$
=
 OpenBabel11052414203D

 34 38  0  0  1  0  0  0  0  0999 V2000
  187.6800  176.4260  136.6660 C   0  0  2  0  0  3  0  0  0  0  0  0
  189.5070  177.8360  137.8080 C   0  0  2  0  0  3  0  0  0  0  0  0
  187.2100  177.6720  138.8220 N   0  0  0  0  0  0  0  0  0  0  0  0
  186.5210  178.5920  141.0460 C   0  0  0  0  0  0  0  0  0  0  0  0
  189.9910  176.7470  135.7050 C   0  0  0  0  0  2  0  0  0  0  0  0
  190.5210  177.1200  137.0210 N   0  0  0  0  0  2  0  0  0  0  0  0
  188.5800  177.3360  140.8030 C   0  0  0  0  0  3  0  0  0  0  0  0
  188.2220  176.9910  137.9840 C   0  0  1  0  0  3  0  0  0  0  0  0
  188.8410  177.5040  142.2430 C   0  0  0  0  0  3  0  0  0  0  0  0
  186.8530  178.9820  142.4620 C   0  0  0  0  0  3  0  0  0  0  0  0
  188.8050  175.7900  135.8480 C   0  0  0  0  0  2  0  0  0  0  0  0
  185.8850  178.0410  138.3330 C   0  0  0  0  0  0  0  0  0  0  0  0
  186.8380  177.7180  135.7180 S   0  0  0  0  0  0  0  0  0  0  0  0
  189.2640  179.2410  137.2640 C   0  0  0  0  0  1  0  0  0  0  0  0
  185.3750  178.9250  140.5380 N   0  0  0  0  0  0  0  0  0  0  0  0
  184.9770  178.5930  139.1940 C   0  0  0  0  0  0  0  0  0  0  0  0
  188.0570  178.2470  143.0230 C   0  0  0  0  0  0  0  0  0  0  0  0
  187.4950  177.8620  140.2220 C   0  0  1  0  0  3  0  0  0  0  0  0
  185.4710  177.7100  136.9240 C   0  0  0  0  0  2  0  0  0  0  0  0
  181.7950  180.5230  138.4810 C   0  0  0  0  0  0  0  0  0  0  0  0
  180.8560  179.4970  138.3520 C   0  0  0  0  0  3  0  0  0  0  0  0
  183.5640  178.8830  138.8290 C   0  0  0  0  0  0  0  0  0  0  0  0
  181.2630  178.1640  138.4580 C   0  0  0  0  0  3  0  0  0  0  0  0
  183.1370  180.2210  138.7360 C   0  0  0  0  0  3  0  0  0  0  0  0
  182.6060  177.8600  138.7030 C   0  0  0  0  0  3  0  0  0  0  0  0
  181.3720  181.9400  138.3670 C   0  0  0  0  0  1  0  0  0  0  0  0
  188.3830  178.2950  144.4870 C   0  0  0  0  0  2  0  0  0  0  0  0
  187.7390  177.1570  145.2850 C   0  0  0  0  0  2  0  0  0  0  0  0
  187.0420  177.7510  146.5070 C   0  0  2  0  0  3  0  0  0  0  0  0
  186.0730  179.7750  147.3060 F   0  0  0  0  0  0  0  0  0  0  0  0
  184.7970  178.6420  145.6550 C   0  0  0  0  0  1  0  0  0  0  0  0
  186.1850  178.9780  146.1820 C   0  0  2  0  0  3  0  0  0  0  0  0
  187.9780  177.9670  147.7070 C   0  0  0  0  0  2  0  0  0  0  0  0
  188.9880  177.0020  147.7340 O   0  0  0  0  0  1  0  0  0  0  0  0
  1 11  1  6  0  0  0
  1  8  1  0  0  0  0
  2 14  1  6  0  0  0
  2  8  1  0  0  0  0
  3 18  1  0  0  0  0
  4 10  1  0  0  0  0
  5 11  1  0  0  0  0
  5  6  1  0  0  0  0
  6  2  1  0  0  0  0
  7  9  2  0  0  0  0
  8  3  1  6  0  0  0
  9 17  1  0  0  0  0
 10 17  2  0  0  0  0
 12  3  1  0  0  0  0
 12 16  2  0  0  0  0
 13  1  1  0  0  0  0
 13 19  1  0  0  0  0
 15  4  2  0  0  0  0
 16 15  1  0  0  0  0
 17 27  1  0  0  0  0
 18  7  1  1  0  0  0
 18  4  1  0  0  0  0
 19 12  1  0  0  0  0
 20 24  1  0  0  0  0
 21 23  1  0  0  0  0
 21 20  2  0  0  0  0
 22 16  1  0  0  0  0
 23 25  2  0  0  0  0
 24 22  2  0  0  0  0
 25 22  1  0  0  0  0
 26 20  1  0  0  0  0
 27 28  1  0  0  0  0
 29 28  1  6  0  0  0
 29 33  1  0  0  0  0
 32 31  1  1  0  0  0
 32 29  1  0  0  0  0
 32 30  1  0  0  0  0
 33 34  1  0  0  0  0
M  END
>  <MODEL>
8

>  <REMARK>
 VINA RESULT:      -7.4      3.608      6.316
  Name = 
  6 active torsions:
  status: ('A' for Active; 'I' for Inactive)
    1  A    between atoms: C_3  and  C_13
    2  A    between atoms: C_3  and  C_29
    3  A    between atoms: C_12  and  C_28
    4  A    between atoms: C_13  and  C_22
    5  A    between atoms: C_20  and  C_22
    6  A    between atoms: C_22  and  C_33
                            x       y       z     vdW  Elec       q    Type
                         _______ _______ _______ _____ _____    ______ ____

>  <TORSDO>
F 6

$$$$
=
 OpenBabel11052414203D

 34 38  0  0  1  0  0  0  0  0999 V2000
  190.7440  176.1100  143.1610 C   0  0  2  0  0  3  0  0  0  0  0  0
  189.8740  177.9560  144.7310 C   0  0  2  0  0  3  0  0  0  0  0  0
  188.6440  177.4130  142.6040 N   0  0  0  0  0  0  0  0  0  0  0  0
  186.4330  178.3590  141.9070 C   0  0  0  0  0  0  0  0  0  0  0  0
  191.9340  176.8130  145.2730 C   0  0  0  0  0  2  0  0  0  0  0  0
  190.7010  177.3980  145.8110 N   0  0  0  0  0  2  0  0  0  0  0  0
  186.7790  177.5350  144.1610 C   0  0  0  0  0  3  0  0  0  0  0  0
  189.5230  176.8830  143.6700 C   0  0  1  0  0  3  0  0  0  0  0  0
  185.3840  177.8760  144.4890 C   0  0  0  0  0  3  0  0  0  0  0  0
  185.0840  178.9280  142.2560 C   0  0  0  0  0  2  0  0  0  0  0  0
  191.6170  175.6490  144.3310 C   0  0  0  0  0  2  0  0  0  0  0  0
  189.0320  177.4590  141.1980 C   0  0  0  0  0  0  0  0  0  0  0  0
  191.6960  177.1160  141.9960 S   0  0  0  0  0  0  0  0  0  0  0  0
  190.4870  179.2300  144.1560 C   0  0  0  0  0  1  0  0  0  0  0  0
  186.8550  178.4060  140.6820 N   0  0  0  0  0  0  0  0  0  0  0  0
  188.1310  177.8850  140.2620 C   0  0  0  0  0  0  0  0  0  0  0  0
  184.5880  178.5050  143.6270 C   0  0  0  0  0  0  0  0  0  0  0  0
  187.2920  177.7750  142.9480 C   0  0  0  0  0  0  0  0  0  0  0  0
  190.3710  176.9310  140.7580 C   0  0  0  0  0  2  0  0  0  0  0  0
  189.6290  176.9180  136.9200 C   0  0  0  0  0  0  0  0  0  0  0  0
  189.0640  177.8650  136.0620 C   0  0  0  0  0  3  0  0  0  0  0  0
  188.3830  177.8470  138.7960 C   0  0  0  0  0  0  0  0  0  0  0  0
  188.1580  178.8040  136.5640 C   0  0  0  0  0  3  0  0  0  0  0  0
  189.3070  176.9190  138.2800 C   0  0  0  0  0  3  0  0  0  0  0  0
  187.8270  178.7990  137.9230 C   0  0  0  0  0  3  0  0  0  0  0  0
  190.5900  175.9170  136.3950 C   0  0  0  0  0  1  0  0  0  0  0  0
  183.1660  178.7450  144.0460 C   0  0  0  0  0  2  0  0  0  0  0  0
  182.4270  179.7290  143.1340 C   0  0  0  0  0  2  0  0  0  0  0  0
  181.3390  178.9710  142.3770 C   0  0  2  0  0  3  0  0  0  0  0  0
  179.5120  177.4500  142.5190 F   0  0  0  0  0  0  0  0  0  0  0  0
  179.6980  178.9580  144.3430 C   0  0  0  0  0  1  0  0  0  0  0  0
  180.4290  178.1410  143.2880 C   0  0  2  0  0  3  0  0  0  0  0  0
  181.8650  178.1840  141.1660 C   0  0  0  0  0  2  0  0  0  0  0  0
  181.1240  178.4760  140.0190 O   0  0  0  0  0  1  0  0  0  0  0  0
  1  8  1  0  0  0  0
  1 11  1  1  0  0  0
  2 14  1  6  0  0  0
  2  6  1  0  0  0  0
  3 18  1  0  0  0  0
  4 10  1  0  0  0  0
  4 18  1  0  0  0  0
  5  6  1  0  0  0  0
  7  9  1  0  0  0  0
  8  3  1  6  0  0  0
  8  2  1  0  0  0  0
 10 17  1  0  0  0  0
 11  5  1  0  0  0  0
 12  3  1  0  0  0  0
 13  1  1  0  0  0  0
 15  4  2  0  0  0  0
 16 15  1  0  0  0  0
 16 12  2  0  0  0  0
 17 27  1  0  0  0  0
 17  9  2  0  0  0  0
 18  7  2  0  0  0  0
 19 12  1  0  0  0  0
 19 13  1  0  0  0  0
 20 24  1  0  0  0  0
 21 23  1  0  0  0  0
 21 20  2  0  0  0  0
 22 16  1  0  0  0  0
 23 25  2  0  0  0  0
 24 22  2  0  0  0  0
 25 22  1  0  0  0  0
 26 20  1  0  0  0  0
 28 27  1  0  0  0  0
 29 33  1  6  0  0  0
 29 28  1  0  0  0  0
 29 32  1  0  0  0  0
 30 32  1  0  0  0  0
 32 31  1  1  0  0  0
 34 33  1  0  0  0  0
M  END
>  <MODEL>
9

>  <REMARK>
 VINA RESULT:      -7.4      1.341      1.731
  Name = 
  6 active torsions:
  status: ('A' for Active; 'I' for Inactive)
    1  A    between atoms: C_3  and  C_13
    2  A    between atoms: C_3  and  C_29
    3  A    between atoms: C_12  and  C_28
    4  A    between atoms: C_13  and  C_22
    5  A    between atoms: C_20  and  C_22
    6  A    between atoms: C_22  and  C_33
                            x       y       z     vdW  Elec       q    Type
                         _______ _______ _______ _____ _____    ______ ____

>  <TORSDO>
F 6

$$$$
