=
 OpenBabel11052413573D

 34 38  0  0  1  0  0  0  0  0999 V2000
  190.2450  178.3170  143.0700 C   0  0  1  0  0  3  0  0  0  0  0  0
  188.4540  176.4770  142.7370 C   0  0  1  0  0  3  0  0  0  0  0  0
  188.7430  177.6870  144.9830 C   0  0  0  0  0  0  0  0  0  0  0  0
  187.2780  178.2190  147.6130 C   0  0  0  0  0  3  0  0  0  0  0  0
  188.9490  176.4470  141.4450 F   0  0  0  0  0  0  0  0  0  0  0  0
  186.5200  176.9680  144.1740 C   0  0  0  0  0  2  0  0  0  0  0  0
  189.4060  177.1930  143.7120 C   0  0  2  0  0  3  0  0  0  0  0  0
  186.7520  178.2770  146.3780 C   0  0  0  0  0  0  0  0  0  0  0  0
  189.6390  178.4460  145.9240 C   0  0  1  0  0  3  0  0  0  0  0  0
  190.7360  179.3240  144.1300 C   0  0  0  0  0  2  0  0  0  0  0  0
  187.0680  177.0920  142.7600 C   0  0  0  0  0  2  0  0  0  0  0  0
  188.5980  177.6810  148.0040 C   0  0  0  0  0  3  0  0  0  0  0  0
  189.7010  177.7230  147.2470 C   0  0  0  0  0  0  0  0  0  0  0  0
  187.4040  177.6680  145.1730 C   0  0  0  0  0  0  0  0  0  0  0  0
  190.9200  178.6860  145.3730 O   0  0  0  0  0  0  0  0  0  0  0  0
  192.8710  176.8950  149.1700 C   0  0  0  0  0  0  0  0  0  0  0  0
  193.2580  175.6980  148.5640 C   0  0  0  0  0  3  0  0  0  0  0  0
  190.9200  177.0150  147.7170 C   0  0  0  0  0  0  0  0  0  0  0  0
  192.4860  175.1580  147.5320 C   0  0  0  0  0  3  0  0  0  0  0  0
  191.7110  177.5510  148.7460 C   0  0  0  0  0  3  0  0  0  0  0  0
  191.3260  175.8140  147.1090 C   0  0  0  0  0  3  0  0  0  0  0  0
  193.6200  177.4230  150.1680 F   0  0  0  0  0  0  0  0  0  0  0  0
  191.7430  176.6900  143.2210 C   0  0  0  0  0  1  0  0  0  0  0  0
  191.3450  177.7590  142.4150 O   0  0  0  0  0  0  0  0  0  0  0  0
  185.4640  178.8930  146.2700 N   0  0  0  0  0  2  0  0  0  0  0  0
  184.9350  179.4640  145.0420 C   0  0  0  0  0  2  0  0  0  0  0  0
  183.4920  179.0340  144.8630 C   0  0  0  0  0  2  0  0  0  0  0  0
  181.4290  180.0930  143.2020 O   0  0  0  0  0  1  0  0  0  0  0  0
  183.2620  178.5330  143.4450 C   0  0  1  0  0  3  0  0  0  0  0  0
  181.8270  178.7790  142.9400 C   0  0  2  0  0  3  0  0  0  0  0  0
  182.8920  177.9370  140.9090 O   0  0  0  0  0  0  0  0  0  0  0  0
  183.8970  178.9150  141.0240 C   0  0  0  0  0  2  0  0  0  0  0  0
  184.3120  179.1090  142.4900 C   0  0  0  0  0  2  0  0  0  0  0  0
  181.7170  178.5170  141.4280 C   0  0  0  0  0  2  0  0  0  0  0  0
  1 24  1  1  0  0  0
  1  7  1  0  0  0  0
  1 10  1  0  0  0  0
  2  5  1  6  0  0  0
  2 11  1  0  0  0  0
  2  7  1  0  0  0  0
  3 14  2  0  0  0  0
  4 12  1  0  0  0  0
  6 14  1  0  0  0  0
  7  3  1  1  0  0  0
  8  4  2  0  0  0  0
  9  3  1  6  0  0  0
  9 13  1  0  0  0  0
 10 15  1  0  0  0  0
 11  6  1  0  0  0  0
 13 18  1  0  0  0  0
 13 12  2  0  0  0  0
 14  8  1  0  0  0  0
 15  9  1  0  0  0  0
 16 22  1  0  0  0  0
 17 16  2  0  0  0  0
 18 20  2  0  0  0  0
 19 17  1  0  0  0  0
 20 16  1  0  0  0  0
 21 19  2  0  0  0  0
 21 18  1  0  0  0  0
 24 23  1  0  0  0  0
 25  8  1  0  0  0  0
 26 25  1  0  0  0  0
 27 26  1  0  0  0  0
 29 27  1  1  0  0  0
 30 28  1  6  0  0  0
 30 29  1  0  0  0  0
 31 32  1  0  0  0  0
 31 34  1  0  0  0  0
 32 33  1  0  0  0  0
 33 29  1  0  0  0  0
 34 30  1  0  0  0  0
M  END
>  <MODEL>
1

>  <REMARK>
 VINA RESULT:      -8.1      0.000      0.000
  Name = 
  6 active torsions:
  status: ('A' for Active; 'I' for Inactive)
    1  A    between atoms: C_1  and  O_19
    2  A    between atoms: C_3  and  C_13
    3  A    between atoms: C_3  and  C_17
    4  A    between atoms: C_12  and  C_28
    5  A    between atoms: C_17  and  N_29
    6  A    between atoms: C_18  and  N_29
                            x       y       z     vdW  Elec       q    Type
                         _______ _______ _______ _____ _____    ______ ____

>  <TORSDO>
F 6

$$$$
=
 OpenBabel11052413573D

 34 38  0  0  1  0  0  0  0  0999 V2000
  184.1830  178.0450  138.7970 C   0  0  1  0  0  3  0  0  0  0  0  0
  182.5310  176.0730  139.0910 C   0  0  1  0  0  3  0  0  0  0  0  0
  182.6410  178.0030  140.7800 C   0  0  0  0  0  0  0  0  0  0  0  0
  181.0290  179.3000  143.0310 C   0  0  0  0  0  3  0  0  0  0  0  0
  183.0840  175.6360  137.9010 F   0  0  0  0  0  0  0  0  0  0  0  0
  180.5070  176.8830  140.2290 C   0  0  0  0  0  2  0  0  0  0  0  0
  183.3900  177.1520  139.7740 C   0  0  2  0  0  3  0  0  0  0  0  0
  180.5560  178.8870  141.8430 C   0  0  0  0  0  0  0  0  0  0  0  0
  183.4430  179.1070  141.4150 C   0  0  1  0  0  3  0  0  0  0  0  0
  184.5610  179.3910  139.4490 C   0  0  0  0  0  2  0  0  0  0  0  0
  181.1080  176.5510  138.8710 C   0  0  0  0  0  2  0  0  0  0  0  0
  182.3620  179.0320  143.6110 C   0  0  0  0  0  3  0  0  0  0  0  0
  183.4930  178.8930  142.9080 C   0  0  0  0  0  0  0  0  0  0  0  0
  181.2990  177.9500  140.9390 C   0  0  0  0  0  0  0  0  0  0  0  0
  184.7300  179.2380  140.8410 O   0  0  0  0  0  0  0  0  0  0  0  0
  186.0920  178.4250  145.6390 C   0  0  0  0  0  0  0  0  0  0  0  0
  187.1070  177.7640  144.9440 C   0  0  0  0  0  3  0  0  0  0  0  0
  184.7330  178.4860  143.6190 C   0  0  0  0  0  0  0  0  0  0  0  0
  186.9450  177.4660  143.5890 C   0  0  0  0  0  3  0  0  0  0  0  0
  184.9140  178.7870  144.9790 C   0  0  0  0  0  3  0  0  0  0  0  0
  185.7660  177.8290  142.9300 C   0  0  0  0  0  3  0  0  0  0  0  0
  186.2490  178.7180  146.9520 F   0  0  0  0  0  0  0  0  0  0  0  0
  185.5550  177.7780  137.0760 C   0  0  0  0  0  1  0  0  0  0  0  0
  185.3450  177.3800  138.3990 O   0  0  0  0  0  0  0  0  0  0  0  0
  179.2370  179.3280  141.5020 N   0  0  0  0  0  2  0  0  0  0  0  0
  178.9310  180.6490  140.9770 C   0  0  0  0  0  2  0  0  0  0  0  0
  180.0530  181.1050  140.0640 C   0  0  0  0  0  2  0  0  0  0  0  0
  179.8240  182.9730  137.9220 O   0  0  0  0  0  1  0  0  0  0  0  0
  179.7820  180.6610  138.6340 C   0  0  1  0  0  3  0  0  0  0  0  0
  179.1410  181.7640  137.7700 C   0  0  2  0  0  3  0  0  0  0  0  0
  179.5490  180.0400  136.0880 O   0  0  0  0  0  0  0  0  0  0  0  0
  180.9020  179.9830  136.4680 C   0  0  0  0  0  2  0  0  0  0  0  0
  181.0520  180.0980  137.9920 C   0  0  0  0  0  2  0  0  0  0  0  0
  179.1420  181.3750  136.2810 C   0  0  0  0  0  2  0  0  0  0  0  0
  1 24  1  1  0  0  0
  1 10  1  0  0  0  0
  1  7  1  0  0  0  0
  2  5  1  6  0  0  0
  2  7  1  0  0  0  0
  3 14  2  0  0  0  0
  4 12  1  0  0  0  0
  6 14  1  0  0  0  0
  7  3  1  6  0  0  0
  8  4  2  0  0  0  0
  9  3  1  6  0  0  0
  9 13  1  0  0  0  0
 10 15  1  0  0  0  0
 11  2  1  0  0  0  0
 11  6  1  0  0  0  0
 13 12  2  0  0  0  0
 13 18  1  0  0  0  0
 14  8  1  0  0  0  0
 15  9  1  0  0  0  0
 16 22  1  0  0  0  0
 17 16  2  0  0  0  0
 18 20  2  0  0  0  0
 19 17  1  0  0  0  0
 20 16  1  0  0  0  0
 21 19  2  0  0  0  0
 21 18  1  0  0  0  0
 23 24  1  0  0  0  0
 25  8  1  0  0  0  0
 26 25  1  0  0  0  0
 27 26  1  0  0  0  0
 29 27  1  1  0  0  0
 30 28  1  6  0  0  0
 30 29  1  0  0  0  0
 31 34  1  0  0  0  0
 31 32  1  0  0  0  0
 32 33  1  0  0  0  0
 33 29  1  0  0  0  0
 34 30  1  0  0  0  0
M  END
>  <MODEL>
2

>  <REMARK>
 VINA RESULT:      -8.0      4.356      7.251
  Name = 
  6 active torsions:
  status: ('A' for Active; 'I' for Inactive)
    1  A    between atoms: C_1  and  O_19
    2  A    between atoms: C_3  and  C_13
    3  A    between atoms: C_3  and  C_17
    4  A    between atoms: C_12  and  C_28
    5  A    between atoms: C_17  and  N_29
    6  A    between atoms: C_18  and  N_29
                            x       y       z     vdW  Elec       q    Type
                         _______ _______ _______ _____ _____    ______ ____

>  <TORSDO>
F 6

$$$$
=
 OpenBabel11052413573D

 34 38  0  0  1  0  0  0  0  0999 V2000
  185.7700  179.1860  145.4960 C   0  0  1  0  0  3  0  0  0  0  0  0
  186.8500  176.8890  144.9810 C   0  0  1  0  0  3  0  0  0  0  0  0
  185.8400  178.3510  143.1280 C   0  0  0  0  0  0  0  0  0  0  0  0
  185.8620  178.7070  140.0910 C   0  0  0  0  0  3  0  0  0  0  0  0
  187.0890  176.8720  146.3440 F   0  0  0  0  0  0  0  0  0  0  0  0
  187.8410  176.9530  142.7320 C   0  0  0  0  0  2  0  0  0  0  0  0
  185.7970  177.9400  144.5860 C   0  0  2  0  0  3  0  0  0  0  0  0
  186.9280  178.4890  140.8790 C   0  0  0  0  0  0  0  0  0  0  0  0
  184.8620  179.4230  142.7300 C   0  0  1  0  0  3  0  0  0  0  0  0
  185.1340  180.3920  144.7750 C   0  0  0  0  0  2  0  0  0  0  0  0
  188.1450  177.0850  144.2160 C   0  0  0  0  0  2  0  0  0  0  0  0
  184.4350  178.6080  140.4610 C   0  0  0  0  0  3  0  0  0  0  0  0
  183.9320  178.8850  141.6710 C   0  0  0  0  0  0  0  0  0  0  0  0
  186.8250  177.9720  142.2830 C   0  0  0  0  0  0  0  0  0  0  0  0
  184.1700  179.9600  143.8420 O   0  0  0  0  0  0  0  0  0  0  0  0
  180.5900  178.5520  143.4470 C   0  0  0  0  0  0  0  0  0  0  0  0
  179.7920  178.0130  142.4360 C   0  0  0  0  0  3  0  0  0  0  0  0
  182.4970  178.6030  141.9330 C   0  0  0  0  0  0  0  0  0  0  0  0
  180.3400  177.7610  141.1750 C   0  0  0  0  0  3  0  0  0  0  0  0
  181.9350  178.8420  143.1970 C   0  0  0  0  0  3  0  0  0  0  0  0
  181.6840  178.0510  140.9270 C   0  0  0  0  0  3  0  0  0  0  0  0
  180.0620  178.7940  144.6710 F   0  0  0  0  0  0  0  0  0  0  0  0
  185.8680  179.2970  147.7080 C   0  0  0  0  0  1  0  0  0  0  0  0
  185.0420  178.9000  146.6530 O   0  0  0  0  0  0  0  0  0  0  0  0
  188.2100  178.7000  140.2770 N   0  0  0  0  0  2  0  0  0  0  0  0
  188.5160  178.4000  138.8870 C   0  0  0  0  0  2  0  0  0  0  0  0
  189.1350  177.0190  138.7910 C   0  0  0  0  0  2  0  0  0  0  0  0
  190.8400  176.3140  140.9670 O   0  0  0  0  0  1  0  0  0  0  0  0
  190.6510  177.1260  138.6950 C   0  0  1  0  0  3  0  0  0  0  0  0
  191.3360  177.2630  140.0690 C   0  0  2  0  0  3  0  0  0  0  0  0
  193.2790  177.0360  138.6050 O   0  0  0  0  0  0  0  0  0  0  0  0
  192.7450  175.8490  138.0730 C   0  0  0  0  0  2  0  0  0  0  0  0
  191.2250  175.9640  137.8820 C   0  0  0  0  0  2  0  0  0  0  0  0
  192.8590  177.0870  139.9500 C   0  0  0  0  0  2  0  0  0  0  0  0
  1 24  1  1  0  0  0
  2  5  1  1  0  0  0
  4 12  1  0  0  0  0
  4  8  2  0  0  0  0
  6 11  1  0  0  0  0
  7  3  1  6  0  0  0
  7  2  1  0  0  0  0
  7  1  1  0  0  0  0
  8 14  1  0  0  0  0
  9 13  1  6  0  0  0
  9  3  1  0  0  0  0
  9 15  1  0  0  0  0
 10  1  1  0  0  0  0
 11  2  1  0  0  0  0
 12 13  2  0  0  0  0
 13 18  1  0  0  0  0
 14  6  1  0  0  0  0
 14  3  2  0  0  0  0
 15 10  1  0  0  0  0
 16 22  1  0  0  0  0
 17 16  2  0  0  0  0
 18 20  2  0  0  0  0
 19 17  1  0  0  0  0
 20 16  1  0  0  0  0
 21 19  2  0  0  0  0
 21 18  1  0  0  0  0
 24 23  1  0  0  0  0
 25  8  1  0  0  0  0
 26 25  1  0  0  0  0
 27 26  1  0  0  0  0
 29 27  1  1  0  0  0
 29 30  1  0  0  0  0
 30 28  1  1  0  0  0
 31 34  1  0  0  0  0
 32 31  1  0  0  0  0
 33 32  1  0  0  0  0
 33 29  1  0  0  0  0
 34 30  1  0  0  0  0
M  END
>  <MODEL>
3

>  <REMARK>
 VINA RESULT:      -7.6      3.681      8.808
  Name = 
  6 active torsions:
  status: ('A' for Active; 'I' for Inactive)
    1  A    between atoms: C_1  and  O_19
    2  A    between atoms: C_3  and  C_13
    3  A    between atoms: C_3  and  C_17
    4  A    between atoms: C_12  and  C_28
    5  A    between atoms: C_17  and  N_29
    6  A    between atoms: C_18  and  N_29
                            x       y       z     vdW  Elec       q    Type
                         _______ _______ _______ _____ _____    ______ ____

>  <TORSDO>
F 6

$$$$
=
 OpenBabel11052413573D

 34 38  0  0  1  0  0  0  0  0999 V2000
  185.7750  179.1850  145.5480 C   0  0  1  0  0  3  0  0  0  0  0  0
  186.8450  176.8820  145.0430 C   0  0  1  0  0  3  0  0  0  0  0  0
  185.8630  178.3510  143.1800 C   0  0  0  0  0  0  0  0  0  0  0  0
  185.9160  178.7070  140.1440 C   0  0  0  0  0  3  0  0  0  0  0  0
  187.0710  176.8630  146.4080 F   0  0  0  0  0  0  0  0  0  0  0  0
  187.8580  176.9400  142.8030 C   0  0  0  0  0  2  0  0  0  0  0  0
  185.8030  177.9400  144.6380 C   0  0  2  0  0  3  0  0  0  0  0  0
  186.9740  178.4820  140.9420 C   0  0  0  0  0  0  0  0  0  0  0  0
  184.8960  179.4300  142.7740 C   0  0  1  0  0  3  0  0  0  0  0  0
  185.1540  180.3960  144.8210 C   0  0  0  0  0  2  0  0  0  0  0  0
  188.1490  177.0700  144.2910 C   0  0  0  0  0  2  0  0  0  0  0  0
  184.4850  178.6170  140.5010 C   0  0  0  0  0  3  0  0  0  0  0  0
  183.9730  178.8970  141.7060 C   0  0  0  0  0  0  0  0  0  0  0  0
  186.8540  177.9660  142.3450 C   0  0  0  0  0  0  0  0  0  0  0  0
  184.1960  179.9710  143.8780 O   0  0  0  0  0  0  0  0  0  0  0  0
  180.6130  178.5790  143.4510 C   0  0  0  0  0  0  0  0  0  0  0  0
  179.8200  178.0520  142.4300 C   0  0  0  0  0  3  0  0  0  0  0  0
  182.5330  178.6240  141.9530 C   0  0  0  0  0  0  0  0  0  0  0  0
  180.3760  177.8040  141.1720 C   0  0  0  0  0  3  0  0  0  0  0  0
  181.9620  178.8600  143.2140 C   0  0  0  0  0  3  0  0  0  0  0  0
  181.7250  178.0850  140.9370 C   0  0  0  0  0  3  0  0  0  0  0  0
  180.0770  178.8170  144.6720 F   0  0  0  0  0  0  0  0  0  0  0  0
  185.8590  179.2820  147.7620 C   0  0  0  0  0  1  0  0  0  0  0  0
  185.0340  178.9040  146.6980 O   0  0  0  0  0  0  0  0  0  0  0  0
  188.2630  178.6850  140.3520 N   0  0  0  0  0  2  0  0  0  0  0  0
  188.9730  177.6770  139.5820 C   0  0  0  0  0  2  0  0  0  0  0  0
  189.3810  178.2580  138.2420 C   0  0  0  0  0  2  0  0  0  0  0  0
  187.3620  179.6290  136.7650 O   0  0  0  0  0  1  0  0  0  0  0  0
  188.6070  177.5840  137.1180 C   0  0  1  0  0  3  0  0  0  0  0  0
  187.2380  178.2400  136.8480 C   0  0  2  0  0  3  0  0  0  0  0  0
  187.3520  176.6350  135.0090 O   0  0  0  0  0  0  0  0  0  0  0  0
  188.5990  177.1580  134.6230 C   0  0  0  0  0  2  0  0  0  0  0  0
  189.4590  177.4960  135.8500 C   0  0  0  0  0  2  0  0  0  0  0  0
  186.6200  177.7160  135.5400 C   0  0  0  0  0  2  0  0  0  0  0  0
  1 24  1  1  0  0  0
  2  5  1  1  0  0  0
  4 12  1  0  0  0  0
  4  8  2  0  0  0  0
  6 11  1  0  0  0  0
  7  3  1  6  0  0  0
  7  2  1  0  0  0  0
  7  1  1  0  0  0  0
  8 14  1  0  0  0  0
  9 13  1  6  0  0  0
  9  3  1  0  0  0  0
  9 15  1  0  0  0  0
 10  1  1  0  0  0  0
 11  2  1  0  0  0  0
 12 13  2  0  0  0  0
 13 18  1  0  0  0  0
 14  6  1  0  0  0  0
 14  3  2  0  0  0  0
 15 10  1  0  0  0  0
 16 22  1  0  0  0  0
 17 16  2  0  0  0  0
 18 20  2  0  0  0  0
 19 17  1  0  0  0  0
 20 16  1  0  0  0  0
 21 19  2  0  0  0  0
 21 18  1  0  0  0  0
 24 23  1  0  0  0  0
 25  8  1  0  0  0  0
 26 25  1  0  0  0  0
 27 26  1  0  0  0  0
 29 27  1  1  0  0  0
 30 28  1  6  0  0  0
 30 29  1  0  0  0  0
 31 34  1  0  0  0  0
 32 31  1  0  0  0  0
 32 33  1  0  0  0  0
 33 29  1  0  0  0  0
 34 30  1  0  0  0  0
M  END
>  <MODEL>
4

>  <REMARK>
 VINA RESULT:      -7.4      4.149      8.395
  Name = 
  6 active torsions:
  status: ('A' for Active; 'I' for Inactive)
    1  A    between atoms: C_1  and  O_19
    2  A    between atoms: C_3  and  C_13
    3  A    between atoms: C_3  and  C_17
    4  A    between atoms: C_12  and  C_28
    5  A    between atoms: C_17  and  N_29
    6  A    between atoms: C_18  and  N_29
                            x       y       z     vdW  Elec       q    Type
                         _______ _______ _______ _____ _____    ______ ____

>  <TORSDO>
F 6

$$$$
=
 OpenBabel11052413573D

 34 38  0  0  1  0  0  0  0  0999 V2000
  180.9040  179.9540  139.6200 C   0  0  1  0  0  3  0  0  0  0  0  0
  180.4910  178.0930  141.3720 C   0  0  1  0  0  3  0  0  0  0  0  0
  182.8510  178.9660  140.8620 C   0  0  0  0  0  0  0  0  0  0  0  0
  185.6790  179.0190  142.0240 C   0  0  0  0  0  3  0  0  0  0  0  0
  179.1640  178.2830  141.0320 F   0  0  0  0  0  0  0  0  0  0  0  0
  182.1940  178.2600  143.1390 C   0  0  0  0  0  2  0  0  0  0  0  0
  181.4540  178.7030  140.3370 C   0  0  2  0  0  3  0  0  0  0  0  0
  184.5340  179.2340  142.6940 C   0  0  0  0  0  0  0  0  0  0  0  0
  183.7940  179.6210  139.8890 C   0  0  1  0  0  3  0  0  0  0  0  0
  182.0470  180.8150  139.0420 C   0  0  0  0  0  2  0  0  0  0  0  0
  180.7640  178.6240  142.7670 C   0  0  0  0  0  2  0  0  0  0  0  0
  185.8330  178.4990  140.6500 C   0  0  0  0  0  3  0  0  0  0  0  0
  184.9730  178.7120  139.6460 C   0  0  0  0  0  0  0  0  0  0  0  0
  183.1850  178.8480  142.1680 C   0  0  0  0  0  0  0  0  0  0  0  0
  183.1470  180.0080  138.6910 O   0  0  0  0  0  0  0  0  0  0  0  0
  186.5380  177.5870  136.3720 C   0  0  0  0  0  0  0  0  0  0  0  0
  185.5650  176.7110  135.8860 C   0  0  0  0  0  3  0  0  0  0  0  0
  185.1890  178.0070  138.3550 C   0  0  0  0  0  0  0  0  0  0  0  0
  184.4010  176.4830  136.6250 C   0  0  0  0  0  3  0  0  0  0  0  0
  186.3490  178.2330  137.5970 C   0  0  0  0  0  3  0  0  0  0  0  0
  184.2130  177.1300  137.8500 C   0  0  0  0  0  3  0  0  0  0  0  0
  187.6650  177.8130  135.6550 F   0  0  0  0  0  0  0  0  0  0  0  0
  179.0730  180.5550  138.5240 C   0  0  0  0  0  1  0  0  0  0  0  0
  180.0520  179.5600  138.5860 O   0  0  0  0  0  0  0  0  0  0  0  0
  184.6670  179.7900  144.0070 N   0  0  0  0  0  2  0  0  0  0  0  0
  185.2150  179.0700  145.1450 C   0  0  0  0  0  2  0  0  0  0  0  0
  186.0410  177.8980  144.6530 C   0  0  0  0  0  2  0  0  0  0  0  0
  188.8700  178.2670  144.6620 O   0  0  0  0  0  1  0  0  0  0  0  0
  186.9200  177.3640  145.7750 C   0  0  1  0  0  3  0  0  0  0  0  0
  188.3850  177.1500  145.3460 C   0  0  2  0  0  3  0  0  0  0  0  0
  188.5370  176.7080  147.7450 O   0  0  0  0  0  0  0  0  0  0  0  0
  187.9380  177.9520  148.0160 C   0  0  0  0  0  2  0  0  0  0  0  0
  186.8110  178.2520  147.0170 C   0  0  0  0  0  2  0  0  0  0  0  0
  189.2860  176.8820  146.5640 C   0  0  0  0  0  2  0  0  0  0  0  0
  1 24  1  6  0  0  0
  1  7  1  0  0  0  0
  2  5  1  6  0  0  0
  2 11  1  0  0  0  0
  3 14  2  0  0  0  0
  4  8  2  0  0  0  0
  7  3  1  1  0  0  0
  7  2  1  0  0  0  0
  8 25  1  0  0  0  0
  9 15  1  6  0  0  0
  9  3  1  0  0  0  0
 10  1  1  0  0  0  0
 11  6  1  0  0  0  0
 12  4  1  0  0  0  0
 13  9  1  0  0  0  0
 13 12  2  0  0  0  0
 14  8  1  0  0  0  0
 14  6  1  0  0  0  0
 15 10  1  0  0  0  0
 16 20  1  0  0  0  0
 17 16  2  0  0  0  0
 17 19  1  0  0  0  0
 18 13  1  0  0  0  0
 19 21  2  0  0  0  0
 20 18  2  0  0  0  0
 21 18  1  0  0  0  0
 22 16  1  0  0  0  0
 23 24  1  0  0  0  0
 25 26  1  0  0  0  0
 27 26  1  0  0  0  0
 29 27  1  6  0  0  0
 29 33  1  0  0  0  0
 30 28  1  1  0  0  0
 30 29  1  0  0  0  0
 30 34  1  0  0  0  0
 31 32  1  0  0  0  0
 33 32  1  0  0  0  0
 34 31  1  0  0  0  0
M  END
>  <MODEL>
5

>  <REMARK>
 VINA RESULT:      -7.4      3.774      9.380
  Name = 
  6 active torsions:
  status: ('A' for Active; 'I' for Inactive)
    1  A    between atoms: C_1  and  O_19
    2  A    between atoms: C_3  and  C_13
    3  A    between atoms: C_3  and  C_17
    4  A    between atoms: C_12  and  C_28
    5  A    between atoms: C_17  and  N_29
    6  A    between atoms: C_18  and  N_29
                            x       y       z     vdW  Elec       q    Type
                         _______ _______ _______ _____ _____    ______ ____

>  <TORSDO>
F 6

$$$$
=
 OpenBabel11052413573D

 34 38  0  0  1  0  0  0  0  0999 V2000
  185.7740  179.1710  145.5320 C   0  0  1  0  0  3  0  0  0  0  0  0
  186.8540  176.8750  145.0160 C   0  0  1  0  0  3  0  0  0  0  0  0
  185.8720  178.3520  143.1600 C   0  0  0  0  0  0  0  0  0  0  0  0
  185.9330  178.7280  140.1250 C   0  0  0  0  0  3  0  0  0  0  0  0
  187.0760  176.8480  146.3810 F   0  0  0  0  0  0  0  0  0  0  0  0
  187.8740  176.9510  142.7800 C   0  0  0  0  0  2  0  0  0  0  0  0
  185.8090  177.9310  144.6150 C   0  0  2  0  0  3  0  0  0  0  0  0
  186.9890  178.5010  140.9260 C   0  0  0  0  0  0  0  0  0  0  0  0
  184.9020  179.4300  142.7570 C   0  0  1  0  0  3  0  0  0  0  0  0
  185.1500  180.3840  144.8110 C   0  0  0  0  0  2  0  0  0  0  0  0
  188.1590  177.0720  144.2690 C   0  0  0  0  0  2  0  0  0  0  0  0
  184.5010  178.6300  140.4770 C   0  0  0  0  0  3  0  0  0  0  0  0
  183.9840  178.9010  141.6830 C   0  0  0  0  0  0  0  0  0  0  0  0
  186.8670  177.9760  142.3240 C   0  0  0  0  0  0  0  0  0  0  0  0
  184.1970  179.9610  143.8630 O   0  0  0  0  0  0  0  0  0  0  0  0
  180.6200  178.5620  143.4150 C   0  0  0  0  0  0  0  0  0  0  0  0
  179.8320  178.0360  142.3890 C   0  0  0  0  0  3  0  0  0  0  0  0
  182.5450  178.6210  141.9240 C   0  0  0  0  0  0  0  0  0  0  0  0
  180.3940  177.7950  141.1320 C   0  0  0  0  0  3  0  0  0  0  0  0
  181.9690  178.8490  143.1840 C   0  0  0  0  0  3  0  0  0  0  0  0
  181.7430  178.0820  140.9030 C   0  0  0  0  0  3  0  0  0  0  0  0
  180.0780  178.7930  144.6350 F   0  0  0  0  0  0  0  0  0  0  0  0
  185.8570  179.2380  147.7470 C   0  0  0  0  0  1  0  0  0  0  0  0
  185.0310  178.8800  146.6780 O   0  0  0  0  0  0  0  0  0  0  0  0
  188.2790  178.7130  140.3410 N   0  0  0  0  0  2  0  0  0  0  0  0
  188.6430  178.2920  138.9980 C   0  0  0  0  0  2  0  0  0  0  0  0
  189.9760  177.5710  139.0360 C   0  0  0  0  0  2  0  0  0  0  0  0
  190.8600  174.9360  138.3970 O   0  0  0  0  0  1  0  0  0  0  0  0
  190.4080  177.1850  137.6290 C   0  0  1  0  0  3  0  0  0  0  0  0
  191.3550  175.9700  137.5980 C   0  0  2  0  0  3  0  0  0  0  0  0
  190.9610  176.3070  135.2110 O   0  0  0  0  0  0  0  0  0  0  0  0
  189.5720  176.2560  135.4270 C   0  0  0  0  0  2  0  0  0  0  0  0
  189.1890  176.9840  136.7240 C   0  0  0  0  0  2  0  0  0  0  0  0
  191.5400  175.4460  136.1630 C   0  0  0  0  0  2  0  0  0  0  0  0
  1 24  1  1  0  0  0
  2  5  1  1  0  0  0
  4 12  1  0  0  0  0
  4  8  2  0  0  0  0
  6 11  1  0  0  0  0
  7  3  1  6  0  0  0
  7  2  1  0  0  0  0
  7  1  1  0  0  0  0
  8 14  1  0  0  0  0
  9 13  1  6  0  0  0
  9  3  1  0  0  0  0
  9 15  1  0  0  0  0
 10  1  1  0  0  0  0
 11  2  1  0  0  0  0
 12 13  2  0  0  0  0
 13 18  1  0  0  0  0
 14  6  1  0  0  0  0
 14  3  2  0  0  0  0
 15 10  1  0  0  0  0
 16 22  1  0  0  0  0
 17 16  2  0  0  0  0
 18 20  2  0  0  0  0
 19 17  1  0  0  0  0
 20 16  1  0  0  0  0
 21 19  2  0  0  0  0
 21 18  1  0  0  0  0
 24 23  1  0  0  0  0
 25  8  1  0  0  0  0
 26 27  1  0  0  0  0
 26 25  1  0  0  0  0
 29 27  1  1  0  0  0
 30 29  1  0  0  0  0
 30 28  1  1  0  0  0
 31 32  1  0  0  0  0
 31 34  1  0  0  0  0
 32 33  1  0  0  0  0
 33 29  1  0  0  0  0
 34 30  1  0  0  0  0
M  END
>  <MODEL>
6

>  <REMARK>
 VINA RESULT:      -7.3      4.038      8.827
  Name = 
  6 active torsions:
  status: ('A' for Active; 'I' for Inactive)
    1  A    between atoms: C_1  and  O_19
    2  A    between atoms: C_3  and  C_13
    3  A    between atoms: C_3  and  C_17
    4  A    between atoms: C_12  and  C_28
    5  A    between atoms: C_17  and  N_29
    6  A    between atoms: C_18  and  N_29
                            x       y       z     vdW  Elec       q    Type
                         _______ _______ _______ _____ _____    ______ ____

>  <TORSDO>
F 6

$$$$
=
 OpenBabel11052413573D

 34 38  0  0  1  0  0  0  0  0999 V2000
  185.3400  176.5160  136.3010 C   0  0  1  0  0  3  0  0  0  0  0  0
  187.1610  178.3120  135.8990 C   0  0  1  0  0  3  0  0  0  0  0  0
  186.0780  177.9810  138.2030 C   0  0  0  0  0  0  0  0  0  0  0  0
  186.5100  178.6310  141.1600 C   0  0  0  0  0  3  0  0  0  0  0  0
  187.1550  177.8060  134.6120 F   0  0  0  0  0  0  0  0  0  0  0  0
  188.4540  178.6220  137.9680 C   0  0  0  0  0  2  0  0  0  0  0  0
  185.9150  177.8910  136.6990 C   0  0  2  0  0  3  0  0  0  0  0  0
  187.4380  178.1910  140.2930 C   0  0  0  0  0  0  0  0  0  0  0  0
  184.8950  177.5140  139.0090 C   0  0  1  0  0  3  0  0  0  0  0  0
  184.4900  175.9130  137.4390 C   0  0  0  0  0  2  0  0  0  0  0  0
  188.4400  177.9230  136.6170 C   0  0  0  0  0  2  0  0  0  0  0  0
  185.1460  179.1080  140.8510 C   0  0  0  0  0  3  0  0  0  0  0  0
  184.3810  178.6570  139.8490 C   0  0  0  0  0  0  0  0  0  0  0  0
  187.2630  178.2320  138.8050 C   0  0  0  0  0  0  0  0  0  0  0  0
  183.8880  176.9350  138.2020 O   0  0  0  0  0  0  0  0  0  0  0  0
  181.8020  181.0880  138.4810 C   0  0  0  0  0  0  0  0  0  0  0  0
  180.6390  180.6410  139.1110 C   0  0  0  0  0  3  0  0  0  0  0  0
  183.0850  179.3330  139.5770 C   0  0  0  0  0  0  0  0  0  0  0  0
  180.6920  179.5470  139.9790 C   0  0  0  0  0  3  0  0  0  0  0  0
  183.0170  180.4400  138.7150 C   0  0  0  0  0  3  0  0  0  0  0  0
  181.9080  178.8990  140.2120 C   0  0  0  0  0  3  0  0  0  0  0  0
  181.7520  182.1510  137.6430 F   0  0  0  0  0  0  0  0  0  0  0  0
  183.9350  175.4130  134.9870 C   0  0  0  0  0  1  0  0  0  0  0  0
  184.5510  176.6560  135.1570 O   0  0  0  0  0  0  0  0  0  0  0  0
  188.6710  177.7410  140.8650 N   0  0  0  0  0  2  0  0  0  0  0  0
  189.0800  178.0120  142.2330 C   0  0  0  0  0  2  0  0  0  0  0  0
  189.3360  176.7030  142.9550 C   0  0  0  0  0  2  0  0  0  0  0  0
  190.5570  178.2260  145.0350 O   0  0  0  0  0  1  0  0  0  0  0  0
  188.7580  176.7540  144.3620 C   0  0  1  0  0  3  0  0  0  0  0  0
  189.8050  177.1180  145.4330 C   0  0  2  0  0  3  0  0  0  0  0  0
  187.7580  177.1270  146.7670 O   0  0  0  0  0  0  0  0  0  0  0  0
  187.1670  178.0270  145.8630 C   0  0  0  0  0  2  0  0  0  0  0  0
  187.5400  177.6800  144.4140 C   0  0  0  0  0  2  0  0  0  0  0  0
  189.1340  177.4310  146.7820 C   0  0  0  0  0  2  0  0  0  0  0  0
  1 24  1  6  0  0  0
  1  7  1  0  0  0  0
  1 10  1  0  0  0  0
  2  5  1  6  0  0  0
  2 11  1  0  0  0  0
  2  7  1  0  0  0  0
  3 14  2  0  0  0  0
  3  9  1  0  0  0  0
  6 14  1  0  0  0  0
  7  3  1  1  0  0  0
  8 25  1  0  0  0  0
  8  4  2  0  0  0  0
  9 15  1  6  0  0  0
  9 13  1  0  0  0  0
 10 15  1  0  0  0  0
 11  6  1  0  0  0  0
 12  4  1  0  0  0  0
 13 12  2  0  0  0  0
 14  8  1  0  0  0  0
 16 20  2  0  0  0  0
 16 17  1  0  0  0  0
 17 19  2  0  0  0  0
 18 13  1  0  0  0  0
 18 21  2  0  0  0  0
 19 21  1  0  0  0  0
 20 18  1  0  0  0  0
 22 16  1  0  0  0  0
 23 24  1  0  0  0  0
 25 26  1  0  0  0  0
 26 27  1  0  0  0  0
 29 27  1  6  0  0  0
 29 33  1  0  0  0  0
 29 30  1  0  0  0  0
 30 28  1  6  0  0  0
 30 34  1  0  0  0  0
 31 34  1  0  0  0  0
 32 31  1  0  0  0  0
 33 32  1  0  0  0  0
M  END
>  <MODEL>
7

>  <REMARK>
 VINA RESULT:      -7.3      4.184      9.666
  Name = 
  6 active torsions:
  status: ('A' for Active; 'I' for Inactive)
    1  A    between atoms: C_1  and  O_19
    2  A    between atoms: C_3  and  C_13
    3  A    between atoms: C_3  and  C_17
    4  A    between atoms: C_12  and  C_28
    5  A    between atoms: C_17  and  N_29
    6  A    between atoms: C_18  and  N_29
                            x       y       z     vdW  Elec       q    Type
                         _______ _______ _______ _____ _____    ______ ____

>  <TORSDO>
F 6

$$$$
=
 OpenBabel11052413573D

 34 38  0  0  1  0  0  0  0  0999 V2000
  184.7730  176.9380  137.5940 C   0  0  1  0  0  3  0  0  0  0  0  0
  186.5610  178.6280  138.4000 C   0  0  1  0  0  3  0  0  0  0  0  0
  184.3890  178.2340  139.7110 C   0  0  0  0  0  0  0  0  0  0  0  0
  183.1540  178.6780  142.4730 C   0  0  0  0  0  3  0  0  0  0  0  0
  187.2460  178.2010  137.2760 F   0  0  0  0  0  0  0  0  0  0  0  0
  186.5240  178.7270  140.8570 C   0  0  0  0  0  2  0  0  0  0  0  0
  185.0710  178.2450  138.3570 C   0  0  2  0  0  3  0  0  0  0  0  0
  184.3940  178.2280  142.2130 C   0  0  0  0  0  0  0  0  0  0  0  0
  182.9470  177.8020  139.7040 C   0  0  1  0  0  3  0  0  0  0  0  0
  183.4260  176.3270  138.0330 C   0  0  0  0  0  2  0  0  0  0  0  0
  187.2320  178.1120  139.6590 C   0  0  0  0  0  2  0  0  0  0  0  0
  182.1910  179.2630  141.5170 C   0  0  0  0  0  3  0  0  0  0  0  0
  182.0860  178.9250  140.2260 C   0  0  0  0  0  0  0  0  0  0  0  0
  185.0600  178.3700  140.8770 C   0  0  0  0  0  0  0  0  0  0  0  0
  182.5300  177.3390  138.4330 O   0  0  0  0  0  0  0  0  0  0  0  0
  180.7480  181.5610  137.8400 C   0  0  0  0  0  0  0  0  0  0  0  0
  179.4020  181.1980  137.7520 C   0  0  0  0  0  3  0  0  0  0  0  0
  181.1650  179.7000  139.3550 C   0  0  0  0  0  0  0  0  0  0  0  0
  178.9310  180.0930  138.4660 C   0  0  0  0  0  3  0  0  0  0  0  0
  181.6220  180.8180  138.6390 C   0  0  0  0  0  3  0  0  0  0  0  0
  179.8060  179.3510  139.2650 C   0  0  0  0  0  3  0  0  0  0  0  0
  181.2060  182.6340  137.1510 F   0  0  0  0  0  0  0  0  0  0  0  0
  185.2840  176.0590  135.6240 C   0  0  0  0  0  1  0  0  0  0  0  0
  184.7390  177.1980  136.2220 O   0  0  0  0  0  0  0  0  0  0  0  0
  185.1040  177.6640  143.3200 N   0  0  0  0  0  2  0  0  0  0  0  0
  185.7950  178.4500  144.3300 C   0  0  0  0  0  2  0  0  0  0  0  0
  186.8300  177.5850  145.0250 C   0  0  0  0  0  2  0  0  0  0  0  0
  189.3290  177.0150  146.2750 O   0  0  0  0  0  1  0  0  0  0  0  0
  188.1410  177.6070  144.2520 C   0  0  1  0  0  3  0  0  0  0  0  0
  189.3690  177.8450  145.1520 C   0  0  2  0  0  3  0  0  0  0  0  0
  190.4490  177.3790  143.0100 O   0  0  0  0  0  0  0  0  0  0  0  0
  189.7330  176.1720  142.9070 C   0  0  0  0  0  2  0  0  0  0  0  0
  188.2900  176.3430  143.4020 C   0  0  0  0  0  2  0  0  0  0  0  0
  190.6780  177.5840  144.3860 C   0  0  0  0  0  2  0  0  0  0  0  0
  1 24  1  6  0  0  0
  1 10  1  0  0  0  0
  1  7  1  0  0  0  0
  2  5  1  6  0  0  0
  2 11  1  0  0  0  0
  3 14  2  0  0  0  0
  6 14  1  0  0  0  0
  7  2  1  0  0  0  0
  7  3  1  1  0  0  0
  8  4  2  0  0  0  0
  8 25  1  0  0  0  0
  9 15  1  6  0  0  0
  9  3  1  0  0  0  0
  9 13  1  0  0  0  0
 10 15  1  0  0  0  0
 11  6  1  0  0  0  0
 12  4  1  0  0  0  0
 13 12  2  0  0  0  0
 14  8  1  0  0  0  0
 16 20  1  0  0  0  0
 17 16  2  0  0  0  0
 17 19  1  0  0  0  0
 18 13  1  0  0  0  0
 19 21  2  0  0  0  0
 20 18  2  0  0  0  0
 21 18  1  0  0  0  0
 22 16  1  0  0  0  0
 23 24  1  0  0  0  0
 25 26  1  0  0  0  0
 26 27  1  0  0  0  0
 29 27  1  1  0  0  0
 29 30  1  0  0  0  0
 30 28  1  1  0  0  0
 31 34  1  0  0  0  0
 32 31  1  0  0  0  0
 32 33  1  0  0  0  0
 33 29  1  0  0  0  0
 34 30  1  0  0  0  0
M  END
>  <MODEL>
8

>  <REMARK>
 VINA RESULT:      -7.2      3.657      9.839
  Name = 
  6 active torsions:
  status: ('A' for Active; 'I' for Inactive)
    1  A    between atoms: C_1  and  O_19
    2  A    between atoms: C_3  and  C_13
    3  A    between atoms: C_3  and  C_17
    4  A    between atoms: C_12  and  C_28
    5  A    between atoms: C_17  and  N_29
    6  A    between atoms: C_18  and  N_29
                            x       y       z     vdW  Elec       q    Type
                         _______ _______ _______ _____ _____    ______ ____

>  <TORSDO>
F 6

$$$$
=
 OpenBabel11052413573D

 34 38  0  0  1  0  0  0  0  0999 V2000
  187.5740  179.0110  137.5870 C   0  0  1  0  0  3  0  0  0  0  0  0
  186.0980  177.9410  139.4260 C   0  0  1  0  0  3  0  0  0  0  0  0
  188.6610  177.8260  139.5170 C   0  0  0  0  0  0  0  0  0  0  0  0
  190.9590  177.2780  141.4590 C   0  0  0  0  0  3  0  0  0  0  0  0
  185.0580  178.4500  138.6690 F   0  0  0  0  0  0  0  0  0  0  0  0
  187.2990  178.0250  141.5700 C   0  0  0  0  0  2  0  0  0  0  0  0
  187.4240  177.8980  138.6450 C   0  0  2  0  0  3  0  0  0  0  0  0
  189.8690  178.0270  141.6990 C   0  0  0  0  0  0  0  0  0  0  0  0
  189.9730  177.8480  138.7790 C   0  0  1  0  0  3  0  0  0  0  0  0
  189.0570  179.2630  137.2450 C   0  0  0  0  0  2  0  0  0  0  0  0
  186.2410  178.7160  140.7220 C   0  0  0  0  0  2  0  0  0  0  0  0
  191.1970  176.3800  140.3090 C   0  0  0  0  0  3  0  0  0  0  0  0
  190.7300  176.5760  139.0700 C   0  0  0  0  0  0  0  0  0  0  0  0
  188.6270  177.9700  140.8610 C   0  0  0  0  0  0  0  0  0  0  0  0
  189.8070  178.0780  137.3920 O   0  0  0  0  0  0  0  0  0  0  0  0
  192.4100  174.2100  136.6170 C   0  0  0  0  0  0  0  0  0  0  0  0
  191.3090  173.5400  136.0810 C   0  0  0  0  0  3  0  0  0  0  0  0
  190.9350  175.5130  138.0510 C   0  0  0  0  0  0  0  0  0  0  0  0
  190.0200  173.8550  136.5190 C   0  0  0  0  0  3  0  0  0  0  0  0
  192.2230  175.1930  137.5940 C   0  0  0  0  0  3  0  0  0  0  0  0
  189.8340  174.8380  137.4950 C   0  0  0  0  0  3  0  0  0  0  0  0
  193.6610  173.9090  136.1910 F   0  0  0  0  0  0  0  0  0  0  0  0
  187.3180  177.3490  136.1420 C   0  0  0  0  0  1  0  0  0  0  0  0
  186.8860  178.6470  136.4280 O   0  0  0  0  0  0  0  0  0  0  0  0
  189.9150  178.8480  142.8710 N   0  0  0  0  0  2  0  0  0  0  0  0
  190.5420  178.4480  144.1210 C   0  0  0  0  0  2  0  0  0  0  0  0
  189.7400  177.3280  144.7550 C   0  0  0  0  0  2  0  0  0  0  0  0
  186.9490  176.7510  144.8720 O   0  0  0  0  0  1  0  0  0  0  0  0
  188.8490  177.8780  145.8600 C   0  0  1  0  0  3  0  0  0  0  0  0
  187.3630  177.9500  145.4590 C   0  0  2  0  0  3  0  0  0  0  0  0
  187.2330  178.5580  147.8220 O   0  0  0  0  0  0  0  0  0  0  0  0
  187.9310  177.3860  148.1670 C   0  0  0  0  0  2  0  0  0  0  0  0
  189.0540  177.0970  147.1600 C   0  0  0  0  0  2  0  0  0  0  0  0
  186.4720  178.2400  146.6790 C   0  0  0  0  0  2  0  0  0  0  0  0
  1 24  1  6  0  0  0
  1  7  1  0  0  0  0
  2  5  1  6  0  0  0
  2 11  1  0  0  0  0
  3 14  2  0  0  0  0
  4  8  2  0  0  0  0
  7  2  1  0  0  0  0
  7  3  1  1  0  0  0
  8 25  1  0  0  0  0
  9 15  1  6  0  0  0
  9 13  1  0  0  0  0
  9  3  1  0  0  0  0
 10 15  1  0  0  0  0
 10  1  1  0  0  0  0
 11  6  1  0  0  0  0
 12  4  1  0  0  0  0
 13 12  2  0  0  0  0
 14  6  1  0  0  0  0
 14  8  1  0  0  0  0
 16 20  1  0  0  0  0
 17 19  1  0  0  0  0
 17 16  2  0  0  0  0
 18 13  1  0  0  0  0
 19 21  2  0  0  0  0
 20 18  2  0  0  0  0
 21 18  1  0  0  0  0
 22 16  1  0  0  0  0
 23 24  1  0  0  0  0
 25 26  1  0  0  0  0
 26 27  1  0  0  0  0
 29 27  1  6  0  0  0
 29 33  1  0  0  0  0
 30 28  1  1  0  0  0
 30 29  1  0  0  0  0
 30 34  1  0  0  0  0
 31 32  1  0  0  0  0
 33 32  1  0  0  0  0
 34 31  1  0  0  0  0
M  END
>  <MODEL>
9

>  <REMARK>
 VINA RESULT:      -7.1      4.474      7.939
  Name = 
  6 active torsions:
  status: ('A' for Active; 'I' for Inactive)
    1  A    between atoms: C_1  and  O_19
    2  A    between atoms: C_3  and  C_13
    3  A    between atoms: C_3  and  C_17
    4  A    between atoms: C_12  and  C_28
    5  A    between atoms: C_17  and  N_29
    6  A    between atoms: C_18  and  N_29
                            x       y       z     vdW  Elec       q    Type
                         _______ _______ _______ _____ _____    ______ ____

>  <TORSDO>
F 6

$$$$
