=
 OpenBabel11052414143D

 34 38  0  0  1  0  0  0  0  0999 V2000
  189.9790  177.1240  147.2240 C   0  0  0  0  0  0  0  0  0  0  0  0
  190.9440  176.3270  145.1210 C   0  0  0  0  0  0  0  0  0  0  0  0
  188.7830  177.4410  145.1380 C   0  0  0  0  0  0  0  0  0  0  0  0
  187.7800  177.6200  142.7830 N   0  0  0  0  0  0  0  0  0  0  0  0
  192.1150  175.9760  147.2160 C   0  0  0  0  0  3  0  0  0  0  0  0
  192.0480  175.8350  145.8230 C   0  0  0  0  0  3  0  0  0  0  0  0
  189.8580  176.7050  143.0430 C   0  0  0  0  0  0  0  0  0  0  0  0
  189.9000  176.9570  145.8310 C   0  0  0  0  0  0  0  0  0  0  0  0
  188.2920  177.4310  141.4250 C   0  0  0  0  0  2  0  0  0  0  0  0
  191.0870  176.6240  147.9150 C   0  0  0  0  0  3  0  0  0  0  0  0
  187.8750  178.3040  147.1560 C   0  0  0  0  0  3  0  0  0  0  0  0
  188.9570  177.8030  147.8910 C   0  0  0  0  0  3  0  0  0  0  0  0
  190.8990  176.2570  143.6830 N   0  0  0  0  0  0  0  0  0  0  0  0
  189.6930  176.7860  141.5640 C   0  0  1  0  0  3  0  0  0  0  0  0
  188.7320  177.2090  143.7210 N   0  0  0  0  0  0  0  0  0  0  0  0
  187.8110  178.1190  145.8070 N   0  0  0  0  0  0  0  0  0  0  0  0
  186.3680  177.7000  143.0070 C   0  0  0  0  0  3  0  0  0  0  0  0
  185.5450  178.3310  142.1730 C   0  0  0  0  0  3  0  0  0  0  0  0
  181.1670  179.1620  143.1350 C   0  0  0  0  0  3  0  0  0  0  0  0
  182.1860  178.9310  143.9620 C   0  0  0  0  0  3  0  0  0  0  0  0
  184.0910  178.4230  142.3780 C   0  0  0  0  0  0  0  0  0  0  0  0
  183.6040  178.8340  143.5640 C   0  0  0  0  0  3  0  0  0  0  0  0
  182.0180  178.3130  140.9810 C   0  0  0  0  0  3  0  0  0  0  0  0
  183.2490  177.9000  141.2820 C   0  0  0  0  0  3  0  0  0  0  0  0
  181.3440  179.4440  141.6810 C   0  0  0  0  0  2  0  0  0  0  0  0
  190.7180  177.7230  140.9400 C   0  0  0  0  0  2  0  0  0  0  0  0
  191.3300  177.1190  139.6880 C   0  0  0  0  0  2  0  0  0  0  0  0
  190.5160  176.0920  139.2100 O   0  0  0  0  0  0  0  0  0  0  0  0
  190.1230  176.5110  137.9390 C   0  0  0  0  0  2  0  0  0  0  0  0
  188.6080  176.4830  137.8280 C   0  0  0  0  0  2  0  0  0  0  0  0
  187.6600  178.4050  136.1520 O   0  0  0  0  0  0  0  0  0  0  0  0
  186.5140  178.3250  138.5010 O   0  0  0  0  0  1  0  0  0  0  0  0
  187.9450  178.1630  137.6160 P   0  0  0  0  0  0  0  0  0  0  0  0
  189.0750  179.3000  138.1570 O   0  0  0  0  0  1  0  0  0  0  0  0
  1 12  1  0  0  0  0
  1 10  1  0  0  0  0
  2  6  2  0  0  0  0
  2  8  1  0  0  0  0
  3 16  2  0  0  0  0
  3  8  1  0  0  0  0
  4 17  1  0  0  0  0
  4 15  1  0  0  0  0
  5 10  2  0  0  0  0
  6  5  1  0  0  0  0
  7 13  2  0  0  0  0
  7 15  1  0  0  0  0
  8  1  2  0  0  0  0
  9 14  1  0  0  0  0
  9  4  1  0  0  0  0
 11 12  2  0  0  0  0
 13  2  1  0  0  0  0
 14 26  1  1  0  0  0
 14  7  1  0  0  0  0
 15  3  1  0  0  0  0
 16 11  1  0  0  0  0
 18 21  1  0  0  0  0
 18 17  2  0  0  0  0
 19 20  2  0  0  0  0
 21 22  2  0  0  0  0
 22 20  1  0  0  0  0
 23 24  2  0  0  0  0
 23 25  1  0  0  0  0
 24 21  1  0  0  0  0
 25 19  1  0  0  0  0
 27 26  1  0  0  0  0
 28 27  1  0  0  0  0
 29 28  1  0  0  0  0
 30 29  1  0  0  0  0
 31 33  2  0  0  0  0
 33 30  1  0  0  0  0
 33 34  1  0  0  0  0
 33 32  1  0  0  0  0
M  END
>  <MODEL>
1

>  <REMARK>
 VINA RESULT:      -8.9      0.000      0.000
  Name = 
  8 active torsions:
  status: ('A' for Active; 'I' for Inactive)
    1  A    between atoms: C_3  and  O_13
    2  A    between atoms: C_3  and  C_17
    3  A    between atoms: N_5  and  C_26
    4  A    between atoms: C_12  and  C_28
    5  A    between atoms: O_13  and  C_33
    6  A    between atoms: C_17  and  C_29
    7  A    between atoms: P_20  and  C_34
    8  A    between atoms: C_33  and  C_34
                            x       y       z     vdW  Elec       q    Type
                         _______ _______ _______ _____ _____    ______ ____

>  <TORSDO>
F 8

$$$$
=
 OpenBabel11052414143D

 34 38  0  0  1  0  0  0  0  0999 V2000
  188.4790  177.6820  147.1120 C   0  0  0  0  0  0  0  0  0  0  0  0
  189.3830  177.0860  144.9180 C   0  0  0  0  0  0  0  0  0  0  0  0
  187.1610  178.0530  145.1100 C   0  0  0  0  0  0  0  0  0  0  0  0
  186.0310  178.3170  142.8220 N   0  0  0  0  0  0  0  0  0  0  0  0
  190.6790  176.6800  146.9270 C   0  0  0  0  0  3  0  0  0  0  0  0
  190.5500  176.6240  145.5330 C   0  0  0  0  0  3  0  0  0  0  0  0
  188.1720  177.5250  142.9230 C   0  0  0  0  0  0  0  0  0  0  0  0
  188.3390  177.6000  145.7160 C   0  0  0  0  0  0  0  0  0  0  0  0
  186.4830  178.2490  141.4320 C   0  0  0  0  0  2  0  0  0  0  0  0
  189.6500  177.2130  147.7150 C   0  0  0  0  0  3  0  0  0  0  0  0
  186.3050  178.7240  147.2210 C   0  0  0  0  0  3  0  0  0  0  0  0
  187.4510  178.2480  147.8700 C   0  0  0  0  0  3  0  0  0  0  0  0
  189.2700  177.1060  143.4820 N   0  0  0  0  0  0  0  0  0  0  0  0
  187.9270  177.6890  141.4610 C   0  0  1  0  0  3  0  0  0  0  0  0
  187.0520  177.9090  143.6850 N   0  0  0  0  0  0  0  0  0  0  0  0
  186.1840  178.6220  145.8670 N   0  0  0  0  0  0  0  0  0  0  0  0
  184.6300  178.2890  143.1160 C   0  0  0  0  0  3  0  0  0  0  0  0
  183.7170  178.8300  142.3110 C   0  0  0  0  0  3  0  0  0  0  0  0
  179.3880  179.0940  143.7140 C   0  0  0  0  0  3  0  0  0  0  0  0
  180.4290  178.4970  144.2920 C   0  0  0  0  0  3  0  0  0  0  0  0
  182.2730  178.8100  142.5890 C   0  0  0  0  0  0  0  0  0  0  0  0
  181.8320  178.6040  143.8440 C   0  0  0  0  0  3  0  0  0  0  0  0
  180.1530  179.3790  141.3870 C   0  0  0  0  0  3  0  0  0  0  0  0
  181.3870  178.8740  141.4080 C   0  0  0  0  0  3  0  0  0  0  0  0
  179.5210  180.0370  142.5670 C   0  0  0  0  0  2  0  0  0  0  0  0
  188.8580  178.7300  140.8550 C   0  0  0  0  0  2  0  0  0  0  0  0
  189.3620  178.2930  139.4900 C   0  0  0  0  0  2  0  0  0  0  0  0
  189.0730  179.2730  138.5410 O   0  0  0  0  0  0  0  0  0  0  0  0
  189.0330  178.5910  137.3250 C   0  0  0  0  0  2  0  0  0  0  0  0
  188.2590  177.2930  137.4830 C   0  0  0  0  0  2  0  0  0  0  0  0
  186.4420  177.9680  135.5740 O   0  0  0  0  0  0  0  0  0  0  0  0
  185.6850  176.0580  137.1920 O   0  0  0  0  0  1  0  0  0  0  0  0
  186.5160  177.5200  137.0150 P   0  0  0  0  0  0  0  0  0  0  0  0
  185.8040  178.6970  138.0010 O   0  0  0  0  0  1  0  0  0  0  0  0
  1 10  1  0  0  0  0
  1 12  1  0  0  0  0
  2  6  2  0  0  0  0
  2  8  1  0  0  0  0
  3  8  1  0  0  0  0
  3 16  2  0  0  0  0
  4 17  1  0  0  0  0
  4 15  1  0  0  0  0
  5 10  2  0  0  0  0
  6  5  1  0  0  0  0
  7 13  2  0  0  0  0
  7 15  1  0  0  0  0
  8  1  2  0  0  0  0
  9 14  1  0  0  0  0
  9  4  1  0  0  0  0
 11 12  2  0  0  0  0
 13  2  1  0  0  0  0
 14 26  1  1  0  0  0
 14  7  1  0  0  0  0
 15  3  1  0  0  0  0
 16 11  1  0  0  0  0
 18 21  1  0  0  0  0
 18 17  2  0  0  0  0
 19 20  2  0  0  0  0
 21 22  2  0  0  0  0
 22 20  1  0  0  0  0
 23 24  2  0  0  0  0
 23 25  1  0  0  0  0
 24 21  1  0  0  0  0
 25 19  1  0  0  0  0
 27 26  1  0  0  0  0
 28 27  1  0  0  0  0
 29 30  1  0  0  0  0
 29 28  1  0  0  0  0
 31 33  2  0  0  0  0
 33 32  1  0  0  0  0
 33 30  1  0  0  0  0
 33 34  1  0  0  0  0
M  END
>  <MODEL>
2

>  <REMARK>
 VINA RESULT:      -8.7      1.438      2.002
  Name = 
  8 active torsions:
  status: ('A' for Active; 'I' for Inactive)
    1  A    between atoms: C_3  and  O_13
    2  A    between atoms: C_3  and  C_17
    3  A    between atoms: N_5  and  C_26
    4  A    between atoms: C_12  and  C_28
    5  A    between atoms: O_13  and  C_33
    6  A    between atoms: C_17  and  C_29
    7  A    between atoms: P_20  and  C_34
    8  A    between atoms: C_33  and  C_34
                            x       y       z     vdW  Elec       q    Type
                         _______ _______ _______ _____ _____    ______ ____

>  <TORSDO>
F 8

$$$$
=
 OpenBabel11052414143D

 34 38  0  0  1  0  0  0  0  0999 V2000
  188.2350  177.7790  147.1050 C   0  0  0  0  0  0  0  0  0  0  0  0
  189.1350  177.1880  144.9080 C   0  0  0  0  0  0  0  0  0  0  0  0
  186.9070  178.1400  145.1080 C   0  0  0  0  0  0  0  0  0  0  0  0
  185.7650  178.3940  142.8240 N   0  0  0  0  0  0  0  0  0  0  0  0
  190.4410  176.7910  146.9130 C   0  0  0  0  0  3  0  0  0  0  0  0
  190.3060  176.7330  145.5180 C   0  0  0  0  0  3  0  0  0  0  0  0
  187.9120  177.6170  142.9170 C   0  0  0  0  0  0  0  0  0  0  0  0
  188.0900  177.6940  145.7100 C   0  0  0  0  0  0  0  0  0  0  0  0
  186.2130  178.3280  141.4330 C   0  0  0  0  0  2  0  0  0  0  0  0
  189.4110  177.3180  147.7040 C   0  0  0  0  0  3  0  0  0  0  0  0
  186.0540  178.8060  147.2220 C   0  0  0  0  0  3  0  0  0  0  0  0
  187.2070  178.3390  147.8670 C   0  0  0  0  0  3  0  0  0  0  0  0
  189.0150  177.2050  143.4720 N   0  0  0  0  0  0  0  0  0  0  0  0
  187.6610  177.7780  141.4570 C   0  0  1  0  0  3  0  0  0  0  0  0
  186.7930  177.9940  143.6830 N   0  0  0  0  0  0  0  0  0  0  0  0
  185.9280  178.7020  145.8690 N   0  0  0  0  0  0  0  0  0  0  0  0
  184.3660  178.3570  143.1240 C   0  0  0  0  0  3  0  0  0  0  0  0
  183.4530  178.9540  142.3600 C   0  0  0  0  0  3  0  0  0  0  0  0
  179.1330  179.1560  143.8020 C   0  0  0  0  0  3  0  0  0  0  0  0
  180.1730  178.5160  144.3340 C   0  0  0  0  0  3  0  0  0  0  0  0
  182.0100  178.9260  142.6440 C   0  0  0  0  0  0  0  0  0  0  0  0
  181.5750  178.6420  143.8860 C   0  0  0  0  0  3  0  0  0  0  0  0
  179.8880  179.5880  141.4940 C   0  0  0  0  0  3  0  0  0  0  0  0
  181.1180  179.0740  141.4750 C   0  0  0  0  0  3  0  0  0  0  0  0
  179.2680  180.1720  142.7180 C   0  0  0  0  0  2  0  0  0  0  0  0
  188.5820  178.8250  140.8460 C   0  0  0  0  0  2  0  0  0  0  0  0
  189.0760  178.3940  139.4750 C   0  0  0  0  0  2  0  0  0  0  0  0
  189.1890  177.0050  139.4260 O   0  0  0  0  0  0  0  0  0  0  0  0
  188.9790  176.6780  138.0860 C   0  0  0  0  0  2  0  0  0  0  0  0
  190.1780  177.1010  137.2540 C   0  0  0  0  0  2  0  0  0  0  0  0
  192.4370  175.8950  136.3340 O   0  0  0  0  0  0  0  0  0  0  0  0
  192.5500  176.7010  138.8190 O   0  0  0  0  0  1  0  0  0  0  0  0
  191.6070  176.0250  137.5890 P   0  0  0  0  0  0  0  0  0  0  0  0
  191.0730  174.4920  138.0660 O   0  0  0  0  0  1  0  0  0  0  0  0
  1 10  1  0  0  0  0
  1 12  1  0  0  0  0
  2  6  2  0  0  0  0
  2  8  1  0  0  0  0
  3  8  1  0  0  0  0
  3 16  2  0  0  0  0
  4 17  1  0  0  0  0
  4 15  1  0  0  0  0
  5 10  2  0  0  0  0
  6  5  1  0  0  0  0
  7 13  2  0  0  0  0
  7 15  1  0  0  0  0
  8  1  2  0  0  0  0
  9 14  1  0  0  0  0
  9  4  1  0  0  0  0
 11 12  2  0  0  0  0
 13  2  1  0  0  0  0
 14 26  1  1  0  0  0
 14  7  1  0  0  0  0
 15  3  1  0  0  0  0
 16 11  1  0  0  0  0
 18 21  1  0  0  0  0
 18 17  2  0  0  0  0
 19 20  2  0  0  0  0
 21 22  2  0  0  0  0
 22 20  1  0  0  0  0
 23 25  1  0  0  0  0
 24 23  2  0  0  0  0
 24 21  1  0  0  0  0
 25 19  1  0  0  0  0
 27 26  1  0  0  0  0
 28 27  1  0  0  0  0
 29 28  1  0  0  0  0
 30 33  1  0  0  0  0
 30 29  1  0  0  0  0
 31 33  2  0  0  0  0
 33 34  1  0  0  0  0
 33 32  1  0  0  0  0
M  END
>  <MODEL>
3

>  <REMARK>
 VINA RESULT:      -8.6      1.782      2.679
  Name = 
  8 active torsions:
  status: ('A' for Active; 'I' for Inactive)
    1  A    between atoms: C_3  and  O_13
    2  A    between atoms: C_3  and  C_17
    3  A    between atoms: N_5  and  C_26
    4  A    between atoms: C_12  and  C_28
    5  A    between atoms: O_13  and  C_33
    6  A    between atoms: C_17  and  C_29
    7  A    between atoms: P_20  and  C_34
    8  A    between atoms: C_33  and  C_34
                            x       y       z     vdW  Elec       q    Type
                         _______ _______ _______ _____ _____    ______ ____

>  <TORSDO>
F 8

$$$$
=
 OpenBabel11052414143D

 34 38  0  0  1  0  0  0  0  0999 V2000
  189.9570  177.1970  147.3250 C   0  0  0  0  0  0  0  0  0  0  0  0
  190.9530  176.3680  145.2500 C   0  0  0  0  0  0  0  0  0  0  0  0
  188.7790  177.4550  145.2210 C   0  0  0  0  0  0  0  0  0  0  0  0
  187.7990  177.5720  142.8530 N   0  0  0  0  0  0  0  0  0  0  0  0
  192.1070  176.0760  147.3640 C   0  0  0  0  0  3  0  0  0  0  0  0
  192.0560  175.9040  145.9730 C   0  0  0  0  0  3  0  0  0  0  0  0
  189.8850  176.6890  143.1530 C   0  0  0  0  0  0  0  0  0  0  0  0
  189.8940  177.0000  145.9360 C   0  0  0  0  0  0  0  0  0  0  0  0
  188.3270  177.3600  141.5040 C   0  0  0  0  0  2  0  0  0  0  0  0
  191.0640  176.7260  148.0380 C   0  0  0  0  0  3  0  0  0  0  0  0
  187.8400  178.3500  147.2100 C   0  0  0  0  0  3  0  0  0  0  0  0
  188.9200  177.8770  147.9670 C   0  0  0  0  0  3  0  0  0  0  0  0
  190.9250  176.2670  143.8130 N   0  0  0  0  0  0  0  0  0  0  0  0
  189.7340  176.7350  141.6710 C   0  0  1  0  0  3  0  0  0  0  0  0
  188.7460  177.1920  143.8090 N   0  0  0  0  0  0  0  0  0  0  0  0
  187.7920  178.1350  145.8650 N   0  0  0  0  0  0  0  0  0  0  0  0
  186.3840  177.6390  143.0610 C   0  0  0  0  0  3  0  0  0  0  0  0
  185.5640  178.2550  142.2120 C   0  0  0  0  0  3  0  0  0  0  0  0
  181.1690  179.0320  143.1470 C   0  0  0  0  0  3  0  0  0  0  0  0
  182.1770  178.7700  143.9780 C   0  0  0  0  0  3  0  0  0  0  0  0
  184.1060  178.3340  142.4010 C   0  0  0  0  0  0  0  0  0  0  0  0
  183.6020  178.6940  143.5960 C   0  0  0  0  0  3  0  0  0  0  0  0
  182.0530  178.2770  140.9720 C   0  0  0  0  0  3  0  0  0  0  0  0
  183.2820  177.8550  141.2720 C   0  0  0  0  0  3  0  0  0  0  0  0
  181.3650  179.3750  141.7100 C   0  0  0  0  0  2  0  0  0  0  0  0
  190.7540  177.6720  141.0380 C   0  0  0  0  0  2  0  0  0  0  0  0
  190.7980  177.5030  139.5290 C   0  0  0  0  0  2  0  0  0  0  0  0
  190.7230  176.1500  139.2000 O   0  0  0  0  0  0  0  0  0  0  0  0
  191.3350  176.0530  137.9500 C   0  0  0  0  0  2  0  0  0  0  0  0
  192.8150  176.3760  138.0700 C   0  0  0  0  0  2  0  0  0  0  0  0
  194.4950  174.6350  136.8240 O   0  0  0  0  0  1  0  0  0  0  0  0
  192.5940  175.6060  135.3140 O   0  0  0  0  0  0  0  0  0  0  0  0
  193.7040  175.8940  136.5570 P   0  0  0  0  0  0  0  0  0  0  0  0
  194.7620  177.1300  136.0930 O   0  0  0  0  0  1  0  0  0  0  0  0
  1 12  1  0  0  0  0
  1 10  2  0  0  0  0
  2  8  2  0  0  0  0
  2  6  1  0  0  0  0
  3 16  2  0  0  0  0
  3  8  1  0  0  0  0
  4 17  1  0  0  0  0
  4 15  1  0  0  0  0
  5 10  1  0  0  0  0
  6  5  2  0  0  0  0
  7 15  1  0  0  0  0
  7 13  2  0  0  0  0
  8  1  1  0  0  0  0
  9 14  1  0  0  0  0
  9  4  1  0  0  0  0
 11 12  2  0  0  0  0
 13  2  1  0  0  0  0
 14 26  1  6  0  0  0
 14  7  1  0  0  0  0
 15  3  1  0  0  0  0
 16 11  1  0  0  0  0
 18 21  1  0  0  0  0
 18 17  2  0  0  0  0
 19 20  2  0  0  0  0
 21 22  2  0  0  0  0
 22 20  1  0  0  0  0
 23 24  2  0  0  0  0
 23 25  1  0  0  0  0
 24 21  1  0  0  0  0
 25 19  1  0  0  0  0
 27 26  1  0  0  0  0
 28 27  1  0  0  0  0
 29 30  1  0  0  0  0
 29 28  1  0  0  0  0
 32 33  2  0  0  0  0
 33 31  1  0  0  0  0
 33 30  1  0  0  0  0
 34 33  1  0  0  0  0
M  END
>  <MODEL>
4

>  <REMARK>
 VINA RESULT:      -8.2      1.875      2.526
  Name = 
  8 active torsions:
  status: ('A' for Active; 'I' for Inactive)
    1  A    between atoms: C_3  and  O_13
    2  A    between atoms: C_3  and  C_17
    3  A    between atoms: N_5  and  C_26
    4  A    between atoms: C_12  and  C_28
    5  A    between atoms: O_13  and  C_33
    6  A    between atoms: C_17  and  C_29
    7  A    between atoms: P_20  and  C_34
    8  A    between atoms: C_33  and  C_34
                            x       y       z     vdW  Elec       q    Type
                         _______ _______ _______ _____ _____    ______ ____

>  <TORSDO>
F 8

$$$$
=
 OpenBabel11052414143D

 34 38  0  0  1  0  0  0  0  0999 V2000
  188.2740  177.8430  137.1230 C   0  0  0  0  0  0  0  0  0  0  0  0
  185.8520  177.7230  136.7940 C   0  0  0  0  0  0  0  0  0  0  0  0
  186.7710  178.2580  138.9800 C   0  0  0  0  0  0  0  0  0  0  0  0
  184.9290  178.6390  140.7250 N   0  0  0  0  0  0  0  0  0  0  0  0
  187.3610  177.2690  134.9500 C   0  0  0  0  0  3  0  0  0  0  0  0
  186.0580  177.3860  135.4540 C   0  0  0  0  0  3  0  0  0  0  0  0
  184.3410  178.2210  138.5570 C   0  0  0  0  0  0  0  0  0  0  0  0
  186.9670  177.9330  137.6320 C   0  0  0  0  0  0  0  0  0  0  0  0
  183.4810  178.8440  140.6710 C   0  0  0  0  0  2  0  0  0  0  0  0
  188.4670  177.5020  135.7800 C   0  0  0  0  0  3  0  0  0  0  0  0
  189.1150  178.4710  139.2960 C   0  0  0  0  0  3  0  0  0  0  0  0
  189.3560  178.1130  137.9630 C   0  0  0  0  0  3  0  0  0  0  0  0
  184.5190  177.9220  137.3030 N   0  0  0  0  0  0  0  0  0  0  0  0
  183.0430  178.5420  139.2170 C   0  0  1  0  0  3  0  0  0  0  0  0
  185.4170  178.2970  139.4610 N   0  0  0  0  0  0  0  0  0  0  0  0
  187.8400  178.5390  139.7730 N   0  0  0  0  0  0  0  0  0  0  0  0
  185.5580  178.3310  141.9740 C   0  0  0  0  0  3  0  0  0  0  0  0
  184.9720  178.5600  143.1470 C   0  0  0  0  0  3  0  0  0  0  0  0
  187.4350  177.8780  146.9230 C   0  0  0  0  0  3  0  0  0  0  0  0
  187.6360  177.4200  145.6870 C   0  0  0  0  0  3  0  0  0  0  0  0
  185.5950  178.2480  144.4430 C   0  0  0  0  0  0  0  0  0  0  0  0
  186.8730  177.8290  144.4900 C   0  0  0  0  0  3  0  0  0  0  0  0
  185.0630  178.5510  146.8690 C   0  0  0  0  0  3  0  0  0  0  0  0
  184.6970  178.2800  145.6160 C   0  0  0  0  0  3  0  0  0  0  0  0
  186.4500  178.9500  147.2460 C   0  0  0  0  0  2  0  0  0  0  0  0
  182.4190  179.8010  138.6310 C   0  0  0  0  0  2  0  0  0  0  0  0
  180.9730  179.9570  139.0700 C   0  0  0  0  0  2  0  0  0  0  0  0
  180.7130  181.2910  139.3850 O   0  0  0  0  0  0  0  0  0  0  0  0
  181.1700  182.0120  138.2810 C   0  0  0  0  0  2  0  0  0  0  0  0
  180.1250  183.0310  137.8590 C   0  0  0  0  0  2  0  0  0  0  0  0
  182.2180  184.7220  137.4520 O   0  0  0  0  0  1  0  0  0  0  0  0
  181.1020  183.8030  135.2740 O   0  0  0  0  0  0  0  0  0  0  0  0
  180.8790  184.3500  136.8580 P   0  0  0  0  0  0  0  0  0  0  0  0
  179.8760  185.7120  136.8490 O   0  0  0  0  0  1  0  0  0  0  0  0
  1  8  2  0  0  0  0
  1 12  1  0  0  0  0
  2 13  1  0  0  0  0
  2  8  1  0  0  0  0
  3 15  1  0  0  0  0
  3 16  2  0  0  0  0
  4 17  1  0  0  0  0
  5  6  1  0  0  0  0
  5 10  2  0  0  0  0
  6  2  2  0  0  0  0
  7 14  1  0  0  0  0
  7 15  1  0  0  0  0
  8  3  1  0  0  0  0
  9  4  1  0  0  0  0
 10  1  1  0  0  0  0
 11 16  1  0  0  0  0
 12 11  2  0  0  0  0
 13  7  2  0  0  0  0
 14 26  1  6  0  0  0
 14  9  1  0  0  0  0
 15  4  1  0  0  0  0
 17 18  2  0  0  0  0
 18 21  1  0  0  0  0
 19 25  1  0  0  0  0
 20 19  2  0  0  0  0
 21 22  2  0  0  0  0
 21 24  1  0  0  0  0
 22 20  1  0  0  0  0
 23 25  1  0  0  0  0
 24 23  2  0  0  0  0
 26 27  1  0  0  0  0
 27 28  1  0  0  0  0
 29 28  1  0  0  0  0
 30 29  1  0  0  0  0
 32 33  2  0  0  0  0
 33 31  1  0  0  0  0
 33 30  1  0  0  0  0
 34 33  1  0  0  0  0
M  END
>  <MODEL>
5

>  <REMARK>
 VINA RESULT:      -8.0      4.417      8.385
  Name = 
  8 active torsions:
  status: ('A' for Active; 'I' for Inactive)
    1  A    between atoms: C_3  and  O_13
    2  A    between atoms: C_3  and  C_17
    3  A    between atoms: N_5  and  C_26
    4  A    between atoms: C_12  and  C_28
    5  A    between atoms: O_13  and  C_33
    6  A    between atoms: C_17  and  C_29
    7  A    between atoms: P_20  and  C_34
    8  A    between atoms: C_33  and  C_34
                            x       y       z     vdW  Elec       q    Type
                         _______ _______ _______ _____ _____    ______ ____

>  <TORSDO>
F 8

$$$$
=
 OpenBabel11052414143D

 34 38  0  0  1  0  0  0  0  0999 V2000
  183.5320  178.9320  141.3040 C   0  0  0  0  0  0  0  0  0  0  0  0
  184.9440  178.9370  139.3060 C   0  0  0  0  0  0  0  0  0  0  0  0
  185.8690  178.3060  141.4640 C   0  0  0  0  0  0  0  0  0  0  0  0
  188.3570  177.7020  141.2980 N   0  0  0  0  0  0  0  0  0  0  0  0
  182.6150  179.6010  139.1600 C   0  0  0  0  0  3  0  0  0  0  0  0
  183.8560  179.3760  138.5470 C   0  0  0  0  0  3  0  0  0  0  0  0
  187.2110  178.2340  139.3950 C   0  0  0  0  0  0  0  0  0  0  0  0
  184.7810  178.7330  140.6920 C   0  0  0  0  0  0  0  0  0  0  0  0
  189.2810  177.4190  140.1990 C   0  0  0  0  0  2  0  0  0  0  0  0
  182.4510  179.3750  140.5340 C   0  0  0  0  0  3  0  0  0  0  0  0
  184.4920  178.2050  143.3950 C   0  0  0  0  0  3  0  0  0  0  0  0
  183.3870  178.6660  142.6670 C   0  0  0  0  0  3  0  0  0  0  0  0
  186.2010  178.6280  138.6730 N   0  0  0  0  0  0  0  0  0  0  0  0
  188.5430  177.7950  138.8900 C   0  0  1  0  0  3  0  0  0  0  0  0
  187.1340  178.1580  140.7980 N   0  0  0  0  0  0  0  0  0  0  0  0
  185.6980  178.0320  142.7850 N   0  0  0  0  0  0  0  0  0  0  0  0
  188.8700  177.9590  142.6100 C   0  0  0  0  0  3  0  0  0  0  0  0
  188.9780  177.0090  143.5360 C   0  0  0  0  0  3  0  0  0  0  0  0
  190.0930  177.4180  147.9380 C   0  0  0  0  0  3  0  0  0  0  0  0
  189.0210  177.8720  147.2910 C   0  0  0  0  0  3  0  0  0  0  0  0
  189.5060  177.2460  144.8890 C   0  0  0  0  0  0  0  0  0  0  0  0
  188.6640  177.5500  145.8950 C   0  0  0  0  0  3  0  0  0  0  0  0
  191.6750  176.9580  146.1020 C   0  0  0  0  0  3  0  0  0  0  0  0
  190.9780  177.2790  145.0120 C   0  0  0  0  0  3  0  0  0  0  0  0
  191.0450  176.4330  147.3480 C   0  0  0  0  0  2  0  0  0  0  0  0
  188.4270  176.5460  138.0280 C   0  0  0  0  0  2  0  0  0  0  0  0
  189.7530  176.2020  137.3710 C   0  0  0  0  0  2  0  0  0  0  0  0
  190.2920  175.0580  137.9600 O   0  0  0  0  0  0  0  0  0  0  0  0
  191.0760  174.4800  136.9620 C   0  0  0  0  0  2  0  0  0  0  0  0
  192.0120  175.5200  136.3680 C   0  0  0  0  0  2  0  0  0  0  0  0
  194.6620  176.1290  136.4570 O   0  0  0  0  0  0  0  0  0  0  0  0
  193.3160  176.7420  138.6130 O   0  0  0  0  0  1  0  0  0  0  0  0
  193.5410  175.6450  137.3460 P   0  0  0  0  0  0  0  0  0  0  0  0
  193.9450  174.1290  137.9780 O   0  0  0  0  0  1  0  0  0  0  0  0
  1 12  1  0  0  0  0
  2  8  1  0  0  0  0
  3 16  2  0  0  0  0
  4 17  1  0  0  0  0
  5 10  2  0  0  0  0
  6  5  1  0  0  0  0
  6  2  2  0  0  0  0
  7 15  1  0  0  0  0
  8  1  2  0  0  0  0
  8  3  1  0  0  0  0
  9  4  1  0  0  0  0
 10  1  1  0  0  0  0
 12 11  2  0  0  0  0
 13  2  1  0  0  0  0
 13  7  2  0  0  0  0
 14 26  1  6  0  0  0
 14  7  1  0  0  0  0
 14  9  1  0  0  0  0
 15  4  1  0  0  0  0
 15  3  1  0  0  0  0
 16 11  1  0  0  0  0
 17 18  2  0  0  0  0
 18 21  1  0  0  0  0
 20 19  2  0  0  0  0
 21 24  1  0  0  0  0
 21 22  2  0  0  0  0
 22 20  1  0  0  0  0
 23 25  1  0  0  0  0
 24 23  2  0  0  0  0
 25 19  1  0  0  0  0
 27 28  1  0  0  0  0
 27 26  1  0  0  0  0
 29 28  1  0  0  0  0
 30 29  1  0  0  0  0
 30 33  1  0  0  0  0
 31 33  2  0  0  0  0
 33 34  1  0  0  0  0
 33 32  1  0  0  0  0
M  END
>  <MODEL>
6

>  <REMARK>
 VINA RESULT:      -7.9      2.347      7.067
  Name = 
  8 active torsions:
  status: ('A' for Active; 'I' for Inactive)
    1  A    between atoms: C_3  and  O_13
    2  A    between atoms: C_3  and  C_17
    3  A    between atoms: N_5  and  C_26
    4  A    between atoms: C_12  and  C_28
    5  A    between atoms: O_13  and  C_33
    6  A    between atoms: C_17  and  C_29
    7  A    between atoms: P_20  and  C_34
    8  A    between atoms: C_33  and  C_34
                            x       y       z     vdW  Elec       q    Type
                         _______ _______ _______ _____ _____    ______ ____

>  <TORSDO>
F 8

$$$$
=
 OpenBabel11052414143D

 34 38  0  0  1  0  0  0  0  0999 V2000
  188.5600  177.4120  146.1820 C   0  0  0  0  0  0  0  0  0  0  0  0
  186.4210  178.5890  146.3330 C   0  0  0  0  0  0  0  0  0  0  0  0
  187.2860  177.8850  144.1730 C   0  0  0  0  0  0  0  0  0  0  0  0
  185.7110  178.5330  142.2540 N   0  0  0  0  0  0  0  0  0  0  0  0
  187.7200  178.1490  148.3340 C   0  0  0  0  0  3  0  0  0  0  0  0
  186.5770  178.6790  147.7190 C   0  0  0  0  0  3  0  0  0  0  0  0
  185.0900  178.9850  144.4060 C   0  0  0  0  0  0  0  0  0  0  0  0
  187.4280  177.9680  145.5640 C   0  0  0  0  0  0  0  0  0  0  0  0
  184.3280  179.0040  142.1670 C   0  0  0  0  0  2  0  0  0  0  0  0
  188.7070  177.5110  147.5690 C   0  0  0  0  0  3  0  0  0  0  0  0
  189.3140  176.6590  144.0160 C   0  0  0  0  0  3  0  0  0  0  0  0
  189.5110  176.7520  145.3990 C   0  0  0  0  0  3  0  0  0  0  0  0
  185.2160  179.0610  145.7000 N   0  0  0  0  0  0  0  0  0  0  0  0
  183.8830  179.3460  143.6100 C   0  0  1  0  0  3  0  0  0  0  0  0
  186.1300  178.5060  143.5880 N   0  0  0  0  0  0  0  0  0  0  0  0
  188.2150  177.2180  143.4350 N   0  0  0  0  0  0  0  0  0  0  0  0
  186.5690  178.6280  141.1120 C   0  0  0  0  0  3  0  0  0  0  0  0
  186.2350  178.1310  139.9220 C   0  0  0  0  0  3  0  0  0  0  0  0
  189.3190  178.0310  136.5650 C   0  0  0  0  0  3  0  0  0  0  0  0
  189.4310  178.5110  137.8030 C   0  0  0  0  0  3  0  0  0  0  0  0
  187.0970  178.2200  138.7330 C   0  0  0  0  0  0  0  0  0  0  0  0
  188.4290  178.3520  138.8760 C   0  0  0  0  0  3  0  0  0  0  0  0
  186.8750  177.8860  136.2630 C   0  0  0  0  0  3  0  0  0  0  0  0
  186.3980  178.3080  137.4340 C   0  0  0  0  0  3  0  0  0  0  0  0
  188.1790  177.1770  136.1220 C   0  0  0  0  0  2  0  0  0  0  0  0
  182.6960  178.4620  143.9690 C   0  0  0  0  0  2  0  0  0  0  0  0
  181.3830  179.1070  143.5590 C   0  0  0  0  0  2  0  0  0  0  0  0
  180.8200  178.4030  142.4940 O   0  0  0  0  0  0  0  0  0  0  0  0
  180.8050  179.3120  141.4360 C   0  0  0  0  0  2  0  0  0  0  0  0
  181.3540  178.6560  140.1800 C   0  0  0  0  0  2  0  0  0  0  0  0
  181.5550  179.3440  137.5550 O   0  0  0  0  0  0  0  0  0  0  0  0
  180.8290  181.2830  139.1530 O   0  0  0  0  0  1  0  0  0  0  0  0
  181.7910  179.9100  138.9360 P   0  0  0  0  0  0  0  0  0  0  0  0
  183.4220  180.3330  139.0930 O   0  0  0  0  0  1  0  0  0  0  0  0
  1 10  2  0  0  0  0
  2  6  1  0  0  0  0
  3  8  1  0  0  0  0
  4 15  1  0  0  0  0
  6  5  2  0  0  0  0
  7 13  2  0  0  0  0
  8  1  1  0  0  0  0
  8  2  2  0  0  0  0
  9  4  1  0  0  0  0
  9 14  1  0  0  0  0
 10  5  1  0  0  0  0
 11 12  2  0  0  0  0
 12  1  1  0  0  0  0
 13  2  1  0  0  0  0
 14 26  1  1  0  0  0
 14  7  1  0  0  0  0
 15  3  1  0  0  0  0
 15  7  1  0  0  0  0
 16 11  1  0  0  0  0
 16  3  2  0  0  0  0
 17  4  1  0  0  0  0
 18 17  2  0  0  0  0
 19 20  2  0  0  0  0
 20 22  1  0  0  0  0
 21 22  2  0  0  0  0
 21 18  1  0  0  0  0
 23 24  2  0  0  0  0
 24 21  1  0  0  0  0
 25 23  1  0  0  0  0
 25 19  1  0  0  0  0
 27 26  1  0  0  0  0
 28 27  1  0  0  0  0
 29 28  1  0  0  0  0
 30 29  1  0  0  0  0
 31 33  2  0  0  0  0
 33 34  1  0  0  0  0
 33 32  1  0  0  0  0
 33 30  1  0  0  0  0
M  END
>  <MODEL>
7

>  <REMARK>
 VINA RESULT:      -7.8      2.903      6.319
  Name = 
  8 active torsions:
  status: ('A' for Active; 'I' for Inactive)
    1  A    between atoms: C_3  and  O_13
    2  A    between atoms: C_3  and  C_17
    3  A    between atoms: N_5  and  C_26
    4  A    between atoms: C_12  and  C_28
    5  A    between atoms: O_13  and  C_33
    6  A    between atoms: C_17  and  C_29
    7  A    between atoms: P_20  and  C_34
    8  A    between atoms: C_33  and  C_34
                            x       y       z     vdW  Elec       q    Type
                         _______ _______ _______ _____ _____    ______ ____

>  <TORSDO>
F 8

$$$$
=
 OpenBabel11052414143D

 34 38  0  0  1  0  0  0  0  0999 V2000
  188.5600  177.4040  136.7620 C   0  0  0  0  0  0  0  0  0  0  0  0
  186.1160  177.4430  136.8670 C   0  0  0  0  0  0  0  0  0  0  0  0
  187.4400  178.0840  138.8030 C   0  0  0  0  0  0  0  0  0  0  0  0
  185.9650  178.7470  140.7950 N   0  0  0  0  0  0  0  0  0  0  0  0
  187.2420  176.7250  134.8420 C   0  0  0  0  0  3  0  0  0  0  0  0
  186.0590  176.9830  135.5490 C   0  0  0  0  0  3  0  0  0  0  0  0
  184.9760  178.1980  138.8090 C   0  0  0  0  0  0  0  0  0  0  0  0
  187.3730  177.6350  137.4770 C   0  0  0  0  0  0  0  0  0  0  0  0
  184.5460  179.0570  140.9710 C   0  0  0  0  0  2  0  0  0  0  0  0
  188.4890  176.9400  135.4440 C   0  0  0  0  0  3  0  0  0  0  0  0
  189.8110  178.1420  138.6890 C   0  0  0  0  0  3  0  0  0  0  0  0
  189.7890  177.6590  137.3740 C   0  0  0  0  0  3  0  0  0  0  0  0
  184.9090  177.7850  137.5770 N   0  0  0  0  0  0  0  0  0  0  0  0
  183.8390  178.6710  139.6490 C   0  0  1  0  0  3  0  0  0  0  0  0
  186.1990  178.2660  139.5030 N   0  0  0  0  0  0  0  0  0  0  0  0
  188.6490  178.3460  139.3700 N   0  0  0  0  0  0  0  0  0  0  0  0
  186.7870  178.4950  141.9400 C   0  0  0  0  0  3  0  0  0  0  0  0
  186.3280  177.8830  143.0300 C   0  0  0  0  0  3  0  0  0  0  0  0
  189.3180  177.4370  146.4430 C   0  0  0  0  0  3  0  0  0  0  0  0
  189.4530  177.1260  145.1550 C   0  0  0  0  0  3  0  0  0  0  0  0
  187.1530  177.6080  144.2170 C   0  0  0  0  0  0  0  0  0  0  0  0
  188.4850  177.4580  144.0890 C   0  0  0  0  0  3  0  0  0  0  0  0
  186.8710  177.6110  146.7030 C   0  0  0  0  0  3  0  0  0  0  0  0
  186.4160  177.3660  145.4740 C   0  0  0  0  0  3  0  0  0  0  0  0
  188.1890  178.2560  146.9710 C   0  0  0  0  0  2  0  0  0  0  0  0
  183.1980  179.9220  139.0640 C   0  0  0  0  0  2  0  0  0  0  0  0
  181.6820  179.8250  139.0760 C   0  0  0  0  0  2  0  0  0  0  0  0
  181.2130  179.8920  140.3880 O   0  0  0  0  0  0  0  0  0  0  0  0
  180.1460  178.9940  140.4310 C   0  0  0  0  0  2  0  0  0  0  0  0
  180.3290  178.0250  141.5870 C   0  0  0  0  0  2  0  0  0  0  0  0
  179.6350  178.2300  144.2100 O   0  0  0  0  0  1  0  0  0  0  0  0
  182.0920  178.9350  143.6600 O   0  0  0  0  0  1  0  0  0  0  0  0
  180.4760  178.9230  143.1630 P   0  0  0  0  0  0  0  0  0  0  0  0
  179.9310  180.5130  142.9720 O   0  0  0  0  0  0  0  0  0  0  0  0
  1 12  2  0  0  0  0
  1  8  1  0  0  0  0
  2  8  1  0  0  0  0
  2 13  1  0  0  0  0
  3 16  1  0  0  0  0
  3 15  1  0  0  0  0
  4  9  1  0  0  0  0
  4 17  1  0  0  0  0
  5 10  2  0  0  0  0
  5  6  1  0  0  0  0
  6  2  2  0  0  0  0
  7 15  1  0  0  0  0
  7 14  1  0  0  0  0
  8  3  2  0  0  0  0
 10  1  1  0  0  0  0
 11 16  2  0  0  0  0
 12 11  1  0  0  0  0
 13  7  2  0  0  0  0
 14 26  1  6  0  0  0
 14  9  1  0  0  0  0
 15  4  1  0  0  0  0
 17 18  2  0  0  0  0
 18 21  1  0  0  0  0
 19 25  1  0  0  0  0
 20 19  2  0  0  0  0
 21 24  1  0  0  0  0
 22 21  2  0  0  0  0
 22 20  1  0  0  0  0
 23 25  1  0  0  0  0
 24 23  2  0  0  0  0
 26 27  1  0  0  0  0
 27 28  1  0  0  0  0
 28 29  1  0  0  0  0
 29 30  1  0  0  0  0
 30 33  1  0  0  0  0
 33 32  1  0  0  0  0
 33 31  1  0  0  0  0
 34 33  2  0  0  0  0
M  END
>  <MODEL>
8

>  <REMARK>
 VINA RESULT:      -7.8      3.951      8.444
  Name = 
  8 active torsions:
  status: ('A' for Active; 'I' for Inactive)
    1  A    between atoms: C_3  and  O_13
    2  A    between atoms: C_3  and  C_17
    3  A    between atoms: N_5  and  C_26
    4  A    between atoms: C_12  and  C_28
    5  A    between atoms: O_13  and  C_33
    6  A    between atoms: C_17  and  C_29
    7  A    between atoms: P_20  and  C_34
    8  A    between atoms: C_33  and  C_34
                            x       y       z     vdW  Elec       q    Type
                         _______ _______ _______ _____ _____    ______ ____

>  <TORSDO>
F 8

$$$$
=
 OpenBabel11052414143D

 34 38  0  0  1  0  0  0  0  0999 V2000
  187.0040  177.6480  145.1120 C   0  0  0  0  0  0  0  0  0  0  0  0
  185.1950  178.8120  143.9470 C   0  0  0  0  0  0  0  0  0  0  0  0
  187.0480  177.8560  142.6970 C   0  0  0  0  0  0  0  0  0  0  0  0
  186.8010  178.2450  140.1720 N   0  0  0  0  0  0  0  0  0  0  0  0
  185.1780  178.6360  146.3660 C   0  0  0  0  0  3  0  0  0  0  0  0
  184.5830  179.0740  145.1750 C   0  0  0  0  0  3  0  0  0  0  0  0
  185.1440  178.9530  141.5760 C   0  0  0  0  0  0  0  0  0  0  0  0
  186.4200  178.1120  143.9220 C   0  0  0  0  0  0  0  0  0  0  0  0
  185.7160  178.6860  139.2960 C   0  0  0  0  0  2  0  0  0  0  0  0
  186.3830  177.9190  146.3350 C   0  0  0  0  0  3  0  0  0  0  0  0
  188.7630  176.6420  143.8020 C   0  0  0  0  0  3  0  0  0  0  0  0
  188.1860  176.9070  145.0510 C   0  0  0  0  0  3  0  0  0  0  0  0
  184.5540  179.1890  142.7120 N   0  0  0  0  0  0  0  0  0  0  0  0
  184.5820  179.1990  140.2180 C   0  0  1  0  0  3  0  0  0  0  0  0
  186.4310  178.3880  141.5130 N   0  0  0  0  0  0  0  0  0  0  0  0
  188.1880  177.1130  142.6600 N   0  0  0  0  0  0  0  0  0  0  0  0
  188.1450  178.2070  139.6770 C   0  0  0  0  0  3  0  0  0  0  0  0
  188.7980  177.0670  139.4650 C   0  0  0  0  0  3  0  0  0  0  0  0
  193.2000  176.5190  138.4120 C   0  0  0  0  0  3  0  0  0  0  0  0
  192.6510  177.1350  139.4580 C   0  0  0  0  0  3  0  0  0  0  0  0
  190.1760  177.0010  138.9530 C   0  0  0  0  0  0  0  0  0  0  0  0
  191.2150  177.1200  139.8010 C   0  0  0  0  0  3  0  0  0  0  0  0
  191.3250  176.3930  136.8150 C   0  0  0  0  0  3  0  0  0  0  0  0
  190.3170  176.9560  137.4830 C   0  0  0  0  0  3  0  0  0  0  0  0
  192.4280  175.6450  137.4830 C   0  0  0  0  0  2  0  0  0  0  0  0
  183.3400  178.3540  139.9670 C   0  0  0  0  0  2  0  0  0  0  0  0
  182.4830  178.9450  138.8610 C   0  0  0  0  0  2  0  0  0  0  0  0
  181.8010  180.0640  139.3350 O   0  0  0  0  0  0  0  0  0  0  0  0
  181.5900  180.8580  138.2060 C   0  0  0  0  0  2  0  0  0  0  0  0
  180.6220  181.9810  138.5340 C   0  0  0  0  0  2  0  0  0  0  0  0
  179.3520  184.0460  137.2980 O   0  0  0  0  0  1  0  0  0  0  0  0
  181.9540  184.2700  137.4300 O   0  0  0  0  0  1  0  0  0  0  0  0
  180.6290  183.2420  137.2220 P   0  0  0  0  0  0  0  0  0  0  0  0
  180.7270  182.4950  135.7070 O   0  0  0  0  0  0  0  0  0  0  0  0
  1 10  2  0  0  0  0
  2  6  1  0  0  0  0
  3  8  1  0  0  0  0
  4 15  1  0  0  0  0
  6  5  2  0  0  0  0
  7 13  2  0  0  0  0
  8  2  2  0  0  0  0
  8  1  1  0  0  0  0
  9  4  1  0  0  0  0
  9 14  1  0  0  0  0
 10  5  1  0  0  0  0
 11 12  2  0  0  0  0
 12  1  1  0  0  0  0
 13  2  1  0  0  0  0
 14 26  1  1  0  0  0
 14  7  1  0  0  0  0
 15  7  1  0  0  0  0
 15  3  1  0  0  0  0
 16  3  2  0  0  0  0
 16 11  1  0  0  0  0
 17  4  1  0  0  0  0
 18 17  2  0  0  0  0
 19 20  2  0  0  0  0
 20 22  1  0  0  0  0
 21 18  1  0  0  0  0
 21 22  2  0  0  0  0
 23 25  1  0  0  0  0
 23 24  2  0  0  0  0
 24 21  1  0  0  0  0
 25 19  1  0  0  0  0
 27 28  1  0  0  0  0
 27 26  1  0  0  0  0
 29 30  1  0  0  0  0
 29 28  1  0  0  0  0
 33 31  1  0  0  0  0
 33 32  1  0  0  0  0
 33 30  1  0  0  0  0
 34 33  2  0  0  0  0
M  END
>  <MODEL>
9

>  <REMARK>
 VINA RESULT:      -7.7      3.690      7.565
  Name = 
  8 active torsions:
  status: ('A' for Active; 'I' for Inactive)
    1  A    between atoms: C_3  and  O_13
    2  A    between atoms: C_3  and  C_17
    3  A    between atoms: N_5  and  C_26
    4  A    between atoms: C_12  and  C_28
    5  A    between atoms: O_13  and  C_33
    6  A    between atoms: C_17  and  C_29
    7  A    between atoms: P_20  and  C_34
    8  A    between atoms: C_33  and  C_34
                            x       y       z     vdW  Elec       q    Type
                         _______ _______ _______ _____ _____    ______ ____

>  <TORSDO>
F 8

$$$$
