=
 OpenBabel11052412553D

 31 34  0  0  1  0  0  0  0  0999 V2000
  185.0170  178.4030  145.3230 C   0  0  0  0  0  0  0  0  0  0  0  0
  187.5430  178.0380  142.5430 C   0  0  0  0  0  0  0  0  0  0  0  0
  188.7780  177.6450  143.1500 C   0  0  0  0  0  0  0  0  0  0  0  0
  190.1520  177.7950  145.2690 C   0  0  0  0  0  2  0  0  0  0  0  0
  186.3210  178.2740  143.2560 C   0  0  0  0  0  0  0  0  0  0  0  0
  183.8790  178.7590  144.6020 C   0  0  0  0  0  3  0  0  0  0  0  0
  188.8530  177.3140  144.6250 C   0  0  0  0  0  2  0  0  0  0  0  0
  186.3590  178.5820  140.4520 C   0  0  0  0  0  0  0  0  0  0  0  0
  184.9510  178.2750  146.8010 C   0  0  0  0  0  1  0  0  0  0  0  0
  189.8090  177.6650  140.9860 N   0  0  0  0  0  0  0  0  0  0  0  0
  191.1740  176.8150  145.2660 O   0  0  0  0  0  0  0  0  0  0  0  0
  185.1810  178.7910  141.1640 C   0  0  0  0  0  3  0  0  0  0  0  0
  187.5290  178.2110  141.1310 C   0  0  0  0  0  0  0  0  0  0  0  0
  186.2200  178.1660  144.6550 C   0  0  0  0  0  3  0  0  0  0  0  0
  191.2730  176.1650  144.0130 C   0  0  0  0  0  2  0  0  0  0  0  0
  185.1510  178.6460  142.5430 C   0  0  0  0  0  0  0  0  0  0  0  0
  183.9470  178.8800  143.2150 C   0  0  0  0  0  3  0  0  0  0  0  0
  188.6640  178.0180  140.4140 N   0  0  0  0  0  0  0  0  0  0  0  0
  189.9160  177.4580  142.3190 C   0  0  0  0  0  0  0  0  0  0  0  0
  191.2950  177.1370  142.8350 C   0  0  0  0  0  2  0  0  0  0  0  0
  186.3810  178.7350  139.0260 N   0  0  0  0  0  2  0  0  0  0  0  0
  185.0140  177.2660  137.6340 C   0  0  0  0  0  1  0  0  0  0  0  0
  186.4200  177.6180  138.0920 C   0  0  1  0  0  3  0  0  0  0  0  0
  186.7860  177.8940  135.7540 O   0  0  0  0  0  0  0  0  0  0  0  0
  187.2750  177.9650  136.9130 C   0  0  0  0  0  0  0  0  0  0  0  0
  188.9430  179.6090  137.2220 O   0  0  0  0  0  0  0  0  0  0  0  0
  188.6790  178.3810  137.1230 C   0  0  0  0  0  0  0  0  0  0  0  0
  189.7610  177.4450  137.2210 N   0  0  0  0  0  2  0  0  0  0  0  0
  189.6230  176.0000  137.1210 C   0  0  0  0  0  2  0  0  0  0  0  0
  190.8800  175.3200  137.6290 C   0  0  0  0  0  2  0  0  0  0  0  0
  191.7940  176.3330  138.2920 C   0  0  0  0  0  1  0  0  0  0  0  0
  1  9  1  0  0  0  0
  2  3  1  0  0  0  0
  2  5  1  0  0  0  0
  3  7  1  0  0  0  0
  5 14  2  0  0  0  0
  6  1  2  0  0  0  0
  7  4  1  0  0  0  0
  8 13  1  0  0  0  0
  8 12  2  0  0  0  0
 10 19  1  0  0  0  0
 11  4  1  0  0  0  0
 12 16  1  0  0  0  0
 13  2  2  0  0  0  0
 14  1  1  0  0  0  0
 15 11  1  0  0  0  0
 16 17  2  0  0  0  0
 16  5  1  0  0  0  0
 17  6  1  0  0  0  0
 18 10  2  0  0  0  0
 18 13  1  0  0  0  0
 19 20  1  0  0  0  0
 19  3  2  0  0  0  0
 20 15  1  0  0  0  0
 21  8  1  0  0  0  0
 23 22  1  6  0  0  0
 23 21  1  0  0  0  0
 24 25  2  0  0  0  0
 25 27  1  0  0  0  0
 25 23  1  0  0  0  0
 27 28  1  0  0  0  0
 27 26  2  0  0  0  0
 29 28  1  0  0  0  0
 29 30  1  0  0  0  0
 30 31  1  0  0  0  0
M  END
>  <MODEL>
1

>  <REMARK>
 VINA RESULT:      -9.3      0.000      0.000
  Name = 
  6 active torsions:
  status: ('A' for Active; 'I' for Inactive)
    1  A    between atoms: C_1  and  C_11
    2  A    between atoms: C_9  and  C_22
    3  A    between atoms: C_9  and  N_23
    4  A    between atoms: C_11  and  N_24
    5  A    between atoms: C_15  and  N_23
    6  A    between atoms: C_19  and  C_22
                            x       y       z     vdW  Elec       q    Type
                         _______ _______ _______ _____ _____    ______ ____

>  <TORSDO>
F 6

$$$$
=
 OpenBabel11052412553D

 31 34  0  0  1  0  0  0  0  0999 V2000
  186.2820  178.0320  146.1550 C   0  0  0  0  0  0  0  0  0  0  0  0
  186.5240  178.3290  142.4010 C   0  0  0  0  0  0  0  0  0  0  0  0
  187.8760  178.0210  142.0440 C   0  0  0  0  0  0  0  0  0  0  0  0
  190.2690  178.0790  142.8630 C   0  0  0  0  0  2  0  0  0  0  0  0
  186.0120  178.3210  143.7400 C   0  0  0  0  0  0  0  0  0  0  0  0
  184.9360  178.3300  146.3580 C   0  0  0  0  0  3  0  0  0  0  0  0
  188.8630  177.5220  143.0780 C   0  0  0  0  0  2  0  0  0  0  0  0
  184.2830  178.9750  141.6080 C   0  0  0  0  0  0  0  0  0  0  0  0
  187.1560  177.7160  147.3130 C   0  0  0  0  0  1  0  0  0  0  0  0
  187.3290  178.4350  139.7470 N   0  0  0  0  0  0  0  0  0  0  0  0
  191.0850  177.2410  142.0640 O   0  0  0  0  0  0  0  0  0  0  0  0
  183.8040  178.9470  142.9150 C   0  0  0  0  0  3  0  0  0  0  0  0
  185.6280  178.6720  141.3500 C   0  0  0  0  0  0  0  0  0  0  0  0
  186.8090  178.0300  144.8620 C   0  0  0  0  0  3  0  0  0  0  0  0
  190.3920  176.7680  140.9240 C   0  0  0  0  0  2  0  0  0  0  0  0
  184.6450  178.6300  143.9720 C   0  0  0  0  0  0  0  0  0  0  0  0
  184.1200  178.6290  145.2680 C   0  0  0  0  0  3  0  0  0  0  0  0
  186.0700  178.7100  140.0690 N   0  0  0  0  0  0  0  0  0  0  0  0
  188.2490  178.0800  140.6730 C   0  0  0  0  0  0  0  0  0  0  0  0
  189.6540  177.8720  140.1710 C   0  0  0  0  0  2  0  0  0  0  0  0
  183.4060  179.3040  140.5210 N   0  0  0  0  0  2  0  0  0  0  0  0
  183.0690  176.9320  140.0480 C   0  0  0  0  0  1  0  0  0  0  0  0
  182.5300  178.3410  139.8680 C   0  0  1  0  0  3  0  0  0  0  0  0
  180.6230  177.4250  140.9630 O   0  0  0  0  0  0  0  0  0  0  0  0
  181.1480  178.4410  140.4330 C   0  0  0  0  0  0  0  0  0  0  0  0
  180.0680  180.1660  139.2330 O   0  0  0  0  0  0  0  0  0  0  0  0
  180.4170  179.7250  140.3600 C   0  0  0  0  0  0  0  0  0  0  0  0
  180.0850  180.4970  141.5230 N   0  0  0  0  0  2  0  0  0  0  0  0
  180.4220  180.1310  142.8900 C   0  0  0  0  0  2  0  0  0  0  0  0
  179.2340  179.4620  143.5570 C   0  0  0  0  0  2  0  0  0  0  0  0
  179.6860  178.2430  144.3370 C   0  0  0  0  0  1  0  0  0  0  0  0
  1  6  1  0  0  0  0
  1  9  1  0  0  0  0
  2  5  1  0  0  0  0
  3  2  1  0  0  0  0
  3  7  1  0  0  0  0
  4  7  1  0  0  0  0
  5 16  2  0  0  0  0
  5 14  1  0  0  0  0
  8 12  2  0  0  0  0
 10 18  2  0  0  0  0
 10 19  1  0  0  0  0
 11  4  1  0  0  0  0
 12 16  1  0  0  0  0
 13  8  1  0  0  0  0
 13  2  2  0  0  0  0
 14  1  2  0  0  0  0
 15 11  1  0  0  0  0
 16 17  1  0  0  0  0
 17  6  2  0  0  0  0
 18 13  1  0  0  0  0
 19  3  2  0  0  0  0
 20 19  1  0  0  0  0
 20 15  1  0  0  0  0
 21  8  1  0  0  0  0
 23 22  1  1  0  0  0
 23 25  1  0  0  0  0
 23 21  1  0  0  0  0
 25 24  2  0  0  0  0
 26 27  2  0  0  0  0
 27 25  1  0  0  0  0
 27 28  1  0  0  0  0
 28 29  1  0  0  0  0
 29 30  1  0  0  0  0
 30 31  1  0  0  0  0
M  END
>  <MODEL>
2

>  <REMARK>
 VINA RESULT:      -9.2      3.277      5.817
  Name = 
  6 active torsions:
  status: ('A' for Active; 'I' for Inactive)
    1  A    between atoms: C_1  and  C_11
    2  A    between atoms: C_9  and  C_22
    3  A    between atoms: C_9  and  N_23
    4  A    between atoms: C_11  and  N_24
    5  A    between atoms: C_15  and  N_23
    6  A    between atoms: C_19  and  C_22
                            x       y       z     vdW  Elec       q    Type
                         _______ _______ _______ _____ _____    ______ ____

>  <TORSDO>
F 6

$$$$
=
 OpenBabel11052412553D

 31 34  0  0  1  0  0  0  0  0999 V2000
  184.9670  178.4530  145.5360 C   0  0  0  0  0  0  0  0  0  0  0  0
  187.1760  178.1300  142.4930 C   0  0  0  0  0  0  0  0  0  0  0  0
  188.4630  177.7060  142.9550 C   0  0  0  0  0  0  0  0  0  0  0  0
  190.0570  177.7840  144.9190 C   0  0  0  0  0  2  0  0  0  0  0  0
  186.0410  178.3620  143.3390 C   0  0  0  0  0  0  0  0  0  0  0  0
  183.7640  178.8420  144.9500 C   0  0  0  0  0  3  0  0  0  0  0  0
  188.6900  177.3350  144.4050 C   0  0  0  0  0  2  0  0  0  0  0  0
  185.7850  178.7420  140.5550 C   0  0  0  0  0  0  0  0  0  0  0  0
  185.0560  178.2870  147.0090 C   0  0  0  0  0  1  0  0  0  0  0  0
  189.2580  177.7690  140.6950 N   0  0  0  0  0  0  0  0  0  0  0  0
  191.0580  176.7910  144.7810 O   0  0  0  0  0  0  0  0  0  0  0  0
  184.6920  178.9480  141.3940 C   0  0  0  0  0  3  0  0  0  0  0  0
  187.0150  178.3400  141.0960 C   0  0  0  0  0  0  0  0  0  0  0  0
  186.0880  178.2180  144.7380 C   0  0  0  0  0  3  0  0  0  0  0  0
  191.0130  176.1730  143.5090 C   0  0  0  0  0  2  0  0  0  0  0  0
  184.8070  178.7670  142.7640 C   0  0  0  0  0  0  0  0  0  0  0  0
  183.6850  178.9990  143.5660 C   0  0  0  0  0  3  0  0  0  0  0  0
  188.0640  178.1510  140.2570 N   0  0  0  0  0  0  0  0  0  0  0  0
  189.5030  177.5260  142.0030 C   0  0  0  0  0  0  0  0  0  0  0  0
  190.9240  177.1750  142.3600 C   0  0  0  0  0  2  0  0  0  0  0  0
  185.6570  178.9330  139.1390 N   0  0  0  0  0  2  0  0  0  0  0  0
  183.9190  177.8830  137.7810 C   0  0  0  0  0  1  0  0  0  0  0  0
  185.3800  177.8550  138.1990 C   0  0  1  0  0  3  0  0  0  0  0  0
  187.1540  178.8760  136.9790 O   0  0  0  0  0  0  0  0  0  0  0  0
  186.2640  177.9840  136.9970 C   0  0  0  0  0  0  0  0  0  0  0  0
  185.6290  177.5320  134.7670 O   0  0  0  0  0  0  0  0  0  0  0  0
  186.0780  177.0700  135.8490 C   0  0  0  0  0  0  0  0  0  0  0  0
  186.3880  175.6710  135.9120 N   0  0  0  0  0  2  0  0  0  0  0  0
  186.9050  174.9850  137.0870 C   0  0  0  0  0  2  0  0  0  0  0  0
  186.1240  173.7070  137.3290 C   0  0  0  0  0  2  0  0  0  0  0  0
  184.6500  174.0170  137.5070 C   0  0  0  0  0  1  0  0  0  0  0  0
  1  9  1  0  0  0  0
  2  3  1  0  0  0  0
  2  5  1  0  0  0  0
  3  7  1  0  0  0  0
  5 14  1  0  0  0  0
  6  1  1  0  0  0  0
  7  4  1  0  0  0  0
  8 13  1  0  0  0  0
  8 12  2  0  0  0  0
 10 19  1  0  0  0  0
 11  4  1  0  0  0  0
 12 16  1  0  0  0  0
 13  2  2  0  0  0  0
 14  1  2  0  0  0  0
 15 11  1  0  0  0  0
 16  5  2  0  0  0  0
 16 17  1  0  0  0  0
 17  6  2  0  0  0  0
 18 10  2  0  0  0  0
 18 13  1  0  0  0  0
 19 20  1  0  0  0  0
 19  3  2  0  0  0  0
 20 15  1  0  0  0  0
 21  8  1  0  0  0  0
 23 22  1  6  0  0  0
 23 21  1  0  0  0  0
 24 25  2  0  0  0  0
 25 23  1  0  0  0  0
 26 27  2  0  0  0  0
 27 28  1  0  0  0  0
 27 25  1  0  0  0  0
 28 29  1  0  0  0  0
 29 30  1  0  0  0  0
 30 31  1  0  0  0  0
M  END
>  <MODEL>
3

>  <REMARK>
 VINA RESULT:      -9.2      1.556      2.197
  Name = 
  6 active torsions:
  status: ('A' for Active; 'I' for Inactive)
    1  A    between atoms: C_1  and  C_11
    2  A    between atoms: C_9  and  C_22
    3  A    between atoms: C_9  and  N_23
    4  A    between atoms: C_11  and  N_24
    5  A    between atoms: C_15  and  N_23
    6  A    between atoms: C_19  and  C_22
                            x       y       z     vdW  Elec       q    Type
                         _______ _______ _______ _____ _____    ______ ____

>  <TORSDO>
F 6

$$$$
=
 OpenBabel11052412553D

 31 34  0  0  1  0  0  0  0  0999 V2000
  189.0510  177.1760  146.0720 C   0  0  0  0  0  0  0  0  0  0  0  0
  187.7530  177.9840  142.6220 C   0  0  0  0  0  0  0  0  0  0  0  0
  188.8340  177.7690  141.7090 C   0  0  0  0  0  0  0  0  0  0  0  0
  191.3540  177.7910  141.4830 C   0  0  0  0  0  2  0  0  0  0  0  0
  187.8300  177.7800  144.0400 C   0  0  0  0  0  0  0  0  0  0  0  0
  187.9130  177.4020  146.8430 C   0  0  0  0  0  3  0  0  0  0  0  0
  190.1420  177.1670  142.1730 C   0  0  0  0  0  2  0  0  0  0  0  0
  185.4020  178.6600  142.9050 C   0  0  0  0  0  0  0  0  0  0  0  0
  190.3130  176.7340  146.7200 C   0  0  0  0  0  1  0  0  0  0  0  0
  187.4110  178.4720  139.9120 N   0  0  0  0  0  0  0  0  0  0  0  0
  191.7520  177.0940  140.3160 O   0  0  0  0  0  0  0  0  0  0  0  0
  185.4950  178.4410  144.2770 C   0  0  0  0  0  3  0  0  0  0  0  0
  186.5170  178.4370  142.0840 C   0  0  0  0  0  0  0  0  0  0  0  0
  189.0060  177.3650  144.6900 C   0  0  0  0  0  3  0  0  0  0  0  0
  190.6430  176.7570  139.5030 C   0  0  0  0  0  2  0  0  0  0  0  0
  186.6840  178.0120  144.8470 C   0  0  0  0  0  0  0  0  0  0  0  0
  186.7320  177.8190  146.2310 C   0  0  0  0  0  3  0  0  0  0  0  0
  186.4000  178.6620  140.7510 N   0  0  0  0  0  0  0  0  0  0  0  0
  188.6190  178.0240  140.3270 C   0  0  0  0  0  0  0  0  0  0  0  0
  189.6920  177.9300  139.2730 C   0  0  0  0  0  2  0  0  0  0  0  0
  184.1670  179.1050  142.3240 N   0  0  0  0  0  2  0  0  0  0  0  0
  182.0690  179.1780  143.5700 C   0  0  0  0  0  1  0  0  0  0  0  0
  182.8890  178.4370  142.5270 C   0  0  1  0  0  3  0  0  0  0  0  0
  180.9360  178.7410  141.1980 O   0  0  0  0  0  0  0  0  0  0  0  0
  182.1380  178.3640  141.2350 C   0  0  0  0  0  0  0  0  0  0  0  0
  183.0360  176.6130  139.9280 O   0  0  0  0  0  0  0  0  0  0  0  0
  182.8120  177.8490  140.0230 C   0  0  0  0  0  0  0  0  0  0  0  0
  183.2260  178.6990  138.9440 N   0  0  0  0  0  2  0  0  0  0  0  0
  183.0460  180.1420  138.9040 C   0  0  0  0  0  2  0  0  0  0  0  0
  181.7050  180.4830  138.2830 C   0  0  0  0  0  2  0  0  0  0  0  0
  181.5260  181.9870  138.2090 C   0  0  0  0  0  1  0  0  0  0  0  0
  1  9  1  0  0  0  0
  1  6  1  0  0  0  0
  2  5  1  0  0  0  0
  3  7  1  0  0  0  0
  3  2  1  0  0  0  0
  4  7  1  0  0  0  0
  5 14  1  0  0  0  0
  5 16  2  0  0  0  0
  8 12  2  0  0  0  0
 10 19  1  0  0  0  0
 10 18  2  0  0  0  0
 11  4  1  0  0  0  0
 12 16  1  0  0  0  0
 13  2  2  0  0  0  0
 13  8  1  0  0  0  0
 14  1  2  0  0  0  0
 15 11  1  0  0  0  0
 16 17  1  0  0  0  0
 17  6  2  0  0  0  0
 18 13  1  0  0  0  0
 19  3  2  0  0  0  0
 20 15  1  0  0  0  0
 20 19  1  0  0  0  0
 21 23  1  0  0  0  0
 21  8  1  0  0  0  0
 23 22  1  1  0  0  0
 24 25  2  0  0  0  0
 25 23  1  0  0  0  0
 26 27  2  0  0  0  0
 27 25  1  0  0  0  0
 28 27  1  0  0  0  0
 29 28  1  0  0  0  0
 30 29  1  0  0  0  0
 31 30  1  0  0  0  0
M  END
>  <MODEL>
4

>  <REMARK>
 VINA RESULT:      -9.2      2.961      5.375
  Name = 
  6 active torsions:
  status: ('A' for Active; 'I' for Inactive)
    1  A    between atoms: C_1  and  C_11
    2  A    between atoms: C_9  and  C_22
    3  A    between atoms: C_9  and  N_23
    4  A    between atoms: C_11  and  N_24
    5  A    between atoms: C_15  and  N_23
    6  A    between atoms: C_19  and  C_22
                            x       y       z     vdW  Elec       q    Type
                         _______ _______ _______ _____ _____    ______ ____

>  <TORSDO>
F 6

$$$$
=
 OpenBabel11052412553D

 31 34  0  0  1  0  0  0  0  0999 V2000
  189.0930  177.6210  147.6400 C   0  0  0  0  0  0  0  0  0  0  0  0
  187.7090  177.7260  144.1310 C   0  0  0  0  0  0  0  0  0  0  0  0
  186.3640  178.2070  144.2270 C   0  0  0  0  0  0  0  0  0  0  0  0
  184.3360  178.3170  145.7370 C   0  0  0  0  0  2  0  0  0  0  0  0
  188.5930  177.5470  145.2460 C   0  0  0  0  0  0  0  0  0  0  0  0
  190.3880  177.1650  147.4000 C   0  0  0  0  0  3  0  0  0  0  0  0
  185.8020  178.7000  145.5440 C   0  0  0  0  0  2  0  0  0  0  0  0
  189.5090  176.9340  142.6490 C   0  0  0  0  0  0  0  0  0  0  0  0
  188.6520  177.9090  149.0290 C   0  0  0  0  0  1  0  0  0  0  0  0
  186.1440  177.9700  141.8520 N   0  0  0  0  0  0  0  0  0  0  0  0
  183.4350  179.3100  145.2820 O   0  0  0  0  0  0  0  0  0  0  0  0
  190.3550  176.7810  143.7440 C   0  0  0  0  0  3  0  0  0  0  0  0
  188.1990  177.3990  142.8370 C   0  0  0  0  0  0  0  0  0  0  0  0
  188.2100  177.8060  146.5740 C   0  0  0  0  0  3  0  0  0  0  0  0
  183.8120  179.8210  144.0170 C   0  0  0  0  0  2  0  0  0  0  0  0
  189.9150  177.0760  145.0260 C   0  0  0  0  0  0  0  0  0  0  0  0
  190.7970  176.8940  146.0950 C   0  0  0  0  0  3  0  0  0  0  0  0
  187.3950  177.5340  141.7530 N   0  0  0  0  0  0  0  0  0  0  0  0
  185.5950  178.3240  143.0370 C   0  0  0  0  0  0  0  0  0  0  0  0
  184.1430  178.7260  143.0050 C   0  0  0  0  0  2  0  0  0  0  0  0
  189.9730  176.6250  141.3260 N   0  0  0  0  0  2  0  0  0  0  0  0
  192.1460  177.4620  140.5940 C   0  0  0  0  0  1  0  0  0  0  0  0
  190.6380  177.5860  140.4570 C   0  0  1  0  0  3  0  0  0  0  0  0
  190.8900  176.5580  138.3230 O   0  0  0  0  0  0  0  0  0  0  0  0
  190.2280  177.3590  139.0350 C   0  0  0  0  0  0  0  0  0  0  0  0
  189.0030  179.3330  138.6040 O   0  0  0  0  0  0  0  0  0  0  0  0
  189.0590  178.0800  138.4850 C   0  0  0  0  0  0  0  0  0  0  0  0
  187.9780  177.4120  137.8190 N   0  0  0  0  0  2  0  0  0  0  0  0
  187.8900  175.9750  137.6090 C   0  0  0  0  0  2  0  0  0  0  0  0
  186.5970  175.6320  136.8950 C   0  0  0  0  0  2  0  0  0  0  0  0
  185.6950  176.8490  136.8240 C   0  0  0  0  0  1  0  0  0  0  0  0
  1  9  1  0  0  0  0
  2  3  1  0  0  0  0
  2  5  1  0  0  0  0
  3  7  1  0  0  0  0
  5 14  1  0  0  0  0
  6  1  1  0  0  0  0
  7  4  1  0  0  0  0
  8 13  1  0  0  0  0
  8 12  2  0  0  0  0
 10 19  1  0  0  0  0
 11  4  1  0  0  0  0
 12 16  1  0  0  0  0
 13  2  2  0  0  0  0
 14  1  2  0  0  0  0
 15 11  1  0  0  0  0
 16  5  2  0  0  0  0
 16 17  1  0  0  0  0
 17  6  2  0  0  0  0
 18 10  2  0  0  0  0
 18 13  1  0  0  0  0
 19  3  2  0  0  0  0
 20 19  1  0  0  0  0
 20 15  1  0  0  0  0
 21  8  1  0  0  0  0
 23 22  1  6  0  0  0
 23 21  1  0  0  0  0
 24 25  2  0  0  0  0
 25 23  1  0  0  0  0
 27 26  2  0  0  0  0
 27 25  1  0  0  0  0
 28 27  1  0  0  0  0
 29 28  1  0  0  0  0
 30 29  1  0  0  0  0
 31 30  1  0  0  0  0
M  END
>  <MODEL>
5

>  <REMARK>
 VINA RESULT:      -9.2      2.332      4.945
  Name = 
  6 active torsions:
  status: ('A' for Active; 'I' for Inactive)
    1  A    between atoms: C_1  and  C_11
    2  A    between atoms: C_9  and  C_22
    3  A    between atoms: C_9  and  N_23
    4  A    between atoms: C_11  and  N_24
    5  A    between atoms: C_15  and  N_23
    6  A    between atoms: C_19  and  C_22
                            x       y       z     vdW  Elec       q    Type
                         _______ _______ _______ _____ _____    ______ ____

>  <TORSDO>
F 6

$$$$
=
 OpenBabel11052412553D

 31 34  0  0  1  0  0  0  0  0999 V2000
  185.1010  178.4400  144.5280 C   0  0  0  0  0  0  0  0  0  0  0  0
  188.6740  177.6910  143.5740 C   0  0  0  0  0  0  0  0  0  0  0  0
  189.3830  177.4260  144.7880 C   0  0  0  0  0  0  0  0  0  0  0  0
  189.4600  177.9410  147.2640 C   0  0  0  0  0  2  0  0  0  0  0  0
  187.2780  178.0110  143.4970 C   0  0  0  0  0  0  0  0  0  0  0  0
  184.5300  178.6530  143.2750 C   0  0  0  0  0  3  0  0  0  0  0  0
  188.6580  177.3350  146.1140 C   0  0  0  0  0  2  0  0  0  0  0  0
  188.7900  177.8690  141.1200 C   0  0  0  0  0  0  0  0  0  0  0  0
  184.2660  178.5480  145.7530 C   0  0  0  0  0  1  0  0  0  0  0  0
  191.3890  177.1220  143.5110 N   0  0  0  0  0  0  0  0  0  0  0  0
  190.2680  176.9940  147.9410 O   0  0  0  0  0  0  0  0  0  0  0  0
  187.4300  178.1640  141.0680 C   0  0  0  0  0  3  0  0  0  0  0  0
  189.4080  177.6360  142.3570 C   0  0  0  0  0  0  0  0  0  0  0  0
  186.4570  178.1250  144.6340 C   0  0  0  0  0  3  0  0  0  0  0  0
  190.9610  176.1550  147.0360 C   0  0  0  0  0  2  0  0  0  0  0  0
  186.6770  178.2400  142.2310 C   0  0  0  0  0  0  0  0  0  0  0  0
  185.3180  178.5530  142.1290 C   0  0  0  0  0  3  0  0  0  0  0  0
  190.7350  177.3550  142.3790 N   0  0  0  0  0  0  0  0  0  0  0  0
  190.7730  177.1320  144.7150 C   0  0  0  0  0  0  0  0  0  0  0  0
  191.6570  176.9270  145.9180 C   0  0  0  0  0  2  0  0  0  0  0  0
  189.5610  177.7930  139.9120 N   0  0  0  0  0  2  0  0  0  0  0  0
  189.1560  178.8020  137.7260 C   0  0  0  0  0  1  0  0  0  0  0  0
  188.9820  177.5670  138.5950 C   0  0  1  0  0  3  0  0  0  0  0  0
  190.3860  175.6420  138.6310 O   0  0  0  0  0  0  0  0  0  0  0  0
  189.6310  176.3840  137.9460 C   0  0  0  0  0  0  0  0  0  0  0  0
  190.3450  176.1720  135.7040 O   0  0  0  0  0  0  0  0  0  0  0  0
  189.3830  176.1050  136.5150 C   0  0  0  0  0  0  0  0  0  0  0  0
  188.0880  175.7600  136.0040 N   0  0  0  0  0  2  0  0  0  0  0  0
  186.8790  175.6490  136.8060 C   0  0  0  0  0  2  0  0  0  0  0  0
  185.8880  176.7250  136.4050 C   0  0  0  0  0  2  0  0  0  0  0  0
  185.4620  177.5280  137.6190 C   0  0  0  0  0  1  0  0  0  0  0  0
  1 14  1  0  0  0  0
  1  9  1  0  0  0  0
  2  3  1  0  0  0  0
  3  7  1  0  0  0  0
  4 11  1  0  0  0  0
  5  2  1  0  0  0  0
  5 14  2  0  0  0  0
  6  1  2  0  0  0  0
  7  4  1  0  0  0  0
  8 13  1  0  0  0  0
 10 19  1  0  0  0  0
 12  8  2  0  0  0  0
 12 16  1  0  0  0  0
 13 18  1  0  0  0  0
 13  2  2  0  0  0  0
 15 11  1  0  0  0  0
 16  5  1  0  0  0  0
 17 16  2  0  0  0  0
 17  6  1  0  0  0  0
 18 10  2  0  0  0  0
 19  3  2  0  0  0  0
 19 20  1  0  0  0  0
 20 15  1  0  0  0  0
 21  8  1  0  0  0  0
 23 22  1  6  0  0  0
 23 21  1  0  0  0  0
 25 23  1  0  0  0  0
 25 24  2  0  0  0  0
 26 27  2  0  0  0  0
 27 25  1  0  0  0  0
 28 27  1  0  0  0  0
 28 29  1  0  0  0  0
 30 29  1  0  0  0  0
 30 31  1  0  0  0  0
M  END
>  <MODEL>
6

>  <REMARK>
 VINA RESULT:      -9.1      1.808      2.970
  Name = 
  6 active torsions:
  status: ('A' for Active; 'I' for Inactive)
    1  A    between atoms: C_1  and  C_11
    2  A    between atoms: C_9  and  C_22
    3  A    between atoms: C_9  and  N_23
    4  A    between atoms: C_11  and  N_24
    5  A    between atoms: C_15  and  N_23
    6  A    between atoms: C_19  and  C_22
                            x       y       z     vdW  Elec       q    Type
                         _______ _______ _______ _____ _____    ______ ____

>  <TORSDO>
F 6

$$$$
=
 OpenBabel11052412553D

 31 34  0  0  1  0  0  0  0  0999 V2000
  186.4080  177.9690  146.2370 C   0  0  0  0  0  0  0  0  0  0  0  0
  186.4920  178.3300  142.4820 C   0  0  0  0  0  0  0  0  0  0  0  0
  187.8230  178.0130  142.0620 C   0  0  0  0  0  0  0  0  0  0  0  0
  190.2500  178.0320  142.7770 C   0  0  0  0  0  2  0  0  0  0  0  0
  186.0370  178.3040  143.8420 C   0  0  0  0  0  0  0  0  0  0  0  0
  185.0760  178.2780  146.5040 C   0  0  0  0  0  3  0  0  0  0  0  0
  188.8480  177.4860  143.0430 C   0  0  0  0  0  2  0  0  0  0  0  0
  184.2260  179.0120  141.7980 C   0  0  0  0  0  0  0  0  0  0  0  0
  187.3280  177.6240  147.3520 C   0  0  0  0  0  1  0  0  0  0  0  0
  187.1830  178.4730  139.7980 N   0  0  0  0  0  0  0  0  0  0  0  0
  191.0210  177.1990  141.9290 O   0  0  0  0  0  0  0  0  0  0  0  0
  183.8030  178.9670  143.1240 C   0  0  0  0  0  3  0  0  0  0  0  0
  185.5560  178.7000  141.4770 C   0  0  0  0  0  0  0  0  0  0  0  0
  186.8790  177.9850  144.9230 C   0  0  0  0  0  3  0  0  0  0  0  0
  190.2750  176.7530  140.8130 C   0  0  0  0  0  2  0  0  0  0  0  0
  184.6850  178.6230  144.1380 C   0  0  0  0  0  0  0  0  0  0  0  0
  184.2170  178.6040  145.4550 C   0  0  0  0  0  3  0  0  0  0  0  0
  185.9420  178.7560  140.1780 N   0  0  0  0  0  0  0  0  0  0  0  0
  188.1380  178.0930  140.6780 C   0  0  0  0  0  0  0  0  0  0  0  0
  189.5180  177.8780  140.1110 C   0  0  0  0  0  2  0  0  0  0  0  0
  183.3070  179.3700  140.7560 N   0  0  0  0  0  2  0  0  0  0  0  0
  182.8770  177.0240  140.2300 C   0  0  0  0  0  1  0  0  0  0  0  0
  182.3420  178.4460  140.1750 C   0  0  1  0  0  3  0  0  0  0  0  0
  180.3840  177.4850  141.1330 O   0  0  0  0  0  0  0  0  0  0  0  0
  181.0410  178.5370  140.9090 C   0  0  0  0  0  0  0  0  0  0  0  0
  180.5350  180.1210  142.5870 O   0  0  0  0  0  0  0  0  0  0  0  0
  180.5420  179.8560  141.3550 C   0  0  0  0  0  0  0  0  0  0  0  0
  180.0610  180.8540  140.4440 N   0  0  0  0  0  2  0  0  0  0  0  0
  179.9960  180.7000  138.9980 C   0  0  0  0  0  2  0  0  0  0  0  0
  181.0460  181.5700  138.3350 C   0  0  0  0  0  2  0  0  0  0  0  0
  180.8030  181.6420  136.8400 C   0  0  0  0  0  1  0  0  0  0  0  0
  1  6  1  0  0  0  0
  1  9  1  0  0  0  0
  2  5  1  0  0  0  0
  3  2  1  0  0  0  0
  3  7  1  0  0  0  0
  4  7  1  0  0  0  0
  5 16  2  0  0  0  0
  5 14  1  0  0  0  0
  8 12  2  0  0  0  0
 10 18  2  0  0  0  0
 10 19  1  0  0  0  0
 11  4  1  0  0  0  0
 12 16  1  0  0  0  0
 13  8  1  0  0  0  0
 13  2  2  0  0  0  0
 14  1  2  0  0  0  0
 15 11  1  0  0  0  0
 16 17  1  0  0  0  0
 17  6  2  0  0  0  0
 18 13  1  0  0  0  0
 19  3  2  0  0  0  0
 20 19  1  0  0  0  0
 20 15  1  0  0  0  0
 21  8  1  0  0  0  0
 23 22  1  1  0  0  0
 23 21  1  0  0  0  0
 23 25  1  0  0  0  0
 25 24  2  0  0  0  0
 25 27  1  0  0  0  0
 27 26  2  0  0  0  0
 28 27  1  0  0  0  0
 29 28  1  0  0  0  0
 30 29  1  0  0  0  0
 31 30  1  0  0  0  0
M  END
>  <MODEL>
7

>  <REMARK>
 VINA RESULT:      -9.0      3.644      5.647
  Name = 
  6 active torsions:
  status: ('A' for Active; 'I' for Inactive)
    1  A    between atoms: C_1  and  C_11
    2  A    between atoms: C_9  and  C_22
    3  A    between atoms: C_9  and  N_23
    4  A    between atoms: C_11  and  N_24
    5  A    between atoms: C_15  and  N_23
    6  A    between atoms: C_19  and  C_22
                            x       y       z     vdW  Elec       q    Type
                         _______ _______ _______ _____ _____    ______ ____

>  <TORSDO>
F 6

$$$$
=
 OpenBabel11052412553D

 31 34  0  0  1  0  0  0  0  0999 V2000
  188.7680  177.2370  146.2990 C   0  0  0  0  0  0  0  0  0  0  0  0
  187.6100  178.0850  142.8090 C   0  0  0  0  0  0  0  0  0  0  0  0
  188.7110  177.8310  141.9310 C   0  0  0  0  0  0  0  0  0  0  0  0
  191.2370  177.7640  141.7860 C   0  0  0  0  0  2  0  0  0  0  0  0
  187.6340  177.8800  144.2280 C   0  0  0  0  0  0  0  0  0  0  0  0
  187.6140  177.5040  147.0330 C   0  0  0  0  0  3  0  0  0  0  0  0
  189.9830  177.1840  142.4380 C   0  0  0  0  0  2  0  0  0  0  0  0
  185.2760  178.8430  143.0150 C   0  0  0  0  0  0  0  0  0  0  0  0
  189.9920  176.7530  146.9880 C   0  0  0  0  0  1  0  0  0  0  0  0
  187.3730  178.5800  140.0890 N   0  0  0  0  0  0  0  0  0  0  0  0
  191.6470  177.0520  140.6320 O   0  0  0  0  0  0  0  0  0  0  0  0
  185.3170  178.6230  144.3900 C   0  0  0  0  0  3  0  0  0  0  0  0
  186.4080  178.5790  142.2310 C   0  0  0  0  0  0  0  0  0  0  0  0
  188.7740  177.4260  144.9160 C   0  0  0  0  0  3  0  0  0  0  0  0
  190.5540  176.7530  139.7850 C   0  0  0  0  0  2  0  0  0  0  0  0
  186.4720  178.1530  144.9980 C   0  0  0  0  0  0  0  0  0  0  0  0
  186.4690  177.9610  146.3830 C   0  0  0  0  0  3  0  0  0  0  0  0
  186.3420  178.8060  140.8950 N   0  0  0  0  0  0  0  0  0  0  0  0
  188.5500  178.0910  140.5420 C   0  0  0  0  0  0  0  0  0  0  0  0
  189.6520  177.9570  139.5230 C   0  0  0  0  0  2  0  0  0  0  0  0
  184.0770  179.3300  142.3950 N   0  0  0  0  0  2  0  0  0  0  0  0
  181.9040  179.0020  143.4600 C   0  0  0  0  0  1  0  0  0  0  0  0
  182.8320  178.5750  142.3350 C   0  0  1  0  0  3  0  0  0  0  0  0
  180.9320  179.0250  140.9700 O   0  0  0  0  0  0  0  0  0  0  0  0
  182.1690  178.7870  141.0100 C   0  0  0  0  0  0  0  0  0  0  0  0
  183.4750  179.7650  139.3020 O   0  0  0  0  0  0  0  0  0  0  0  0
  182.9700  178.7100  139.7680 C   0  0  0  0  0  0  0  0  0  0  0  0
  183.1990  177.4800  139.0670 N   0  0  0  0  0  2  0  0  0  0  0  0
  182.6800  176.1820  139.4710 C   0  0  0  0  0  2  0  0  0  0  0  0
  182.4840  175.2980  138.2530 C   0  0  0  0  0  2  0  0  0  0  0  0
  181.0080  175.0500  138.0150 C   0  0  0  0  0  1  0  0  0  0  0  0
  1  9  1  0  0  0  0
  1  6  1  0  0  0  0
  2  5  1  0  0  0  0
  3  7  1  0  0  0  0
  3  2  1  0  0  0  0
  4  7  1  0  0  0  0
  5 14  1  0  0  0  0
  5 16  2  0  0  0  0
  8 12  2  0  0  0  0
 10 19  1  0  0  0  0
 10 18  2  0  0  0  0
 11  4  1  0  0  0  0
 12 16  1  0  0  0  0
 13  2  2  0  0  0  0
 13  8  1  0  0  0  0
 14  1  2  0  0  0  0
 15 11  1  0  0  0  0
 16 17  1  0  0  0  0
 17  6  2  0  0  0  0
 18 13  1  0  0  0  0
 19  3  2  0  0  0  0
 20 15  1  0  0  0  0
 20 19  1  0  0  0  0
 21  8  1  0  0  0  0
 23 21  1  0  0  0  0
 23 22  1  1  0  0  0
 24 25  2  0  0  0  0
 25 23  1  0  0  0  0
 26 27  2  0  0  0  0
 27 25  1  0  0  0  0
 28 29  1  0  0  0  0
 28 27  1  0  0  0  0
 30 29  1  0  0  0  0
 31 30  1  0  0  0  0
M  END
>  <MODEL>
8

>  <REMARK>
 VINA RESULT:      -9.0      2.816      5.021
  Name = 
  6 active torsions:
  status: ('A' for Active; 'I' for Inactive)
    1  A    between atoms: C_1  and  C_11
    2  A    between atoms: C_9  and  C_22
    3  A    between atoms: C_9  and  N_23
    4  A    between atoms: C_11  and  N_24
    5  A    between atoms: C_15  and  N_23
    6  A    between atoms: C_19  and  C_22
                            x       y       z     vdW  Elec       q    Type
                         _______ _______ _______ _____ _____    ______ ____

>  <TORSDO>
F 6

$$$$
=
 OpenBabel11052412553D

 31 34  0  0  1  0  0  0  0  0999 V2000
  186.5960  177.9580  146.0720 C   0  0  0  0  0  0  0  0  0  0  0  0
  186.9060  178.2950  142.3270 C   0  0  0  0  0  0  0  0  0  0  0  0
  188.2420  177.9120  141.9830 C   0  0  0  0  0  0  0  0  0  0  0  0
  190.6230  177.8170  142.8330 C   0  0  0  0  0  2  0  0  0  0  0  0
  186.3760  178.2980  143.6590 C   0  0  0  0  0  0  0  0  0  0  0  0
  185.2670  178.3320  146.2630 C   0  0  0  0  0  3  0  0  0  0  0  0
  189.1840  177.3410  143.0210 C   0  0  0  0  0  2  0  0  0  0  0  0
  184.7180  179.0830  141.5150 C   0  0  0  0  0  0  0  0  0  0  0  0
  187.4340  177.5740  147.2370 C   0  0  0  0  0  1  0  0  0  0  0  0
  187.7520  178.3910  139.6860 N   0  0  0  0  0  0  0  0  0  0  0  0
  191.3990  176.9440  142.0310 O   0  0  0  0  0  0  0  0  0  0  0  0
  184.2200  179.0640  142.8160 C   0  0  0  0  0  3  0  0  0  0  0  0
  186.0470  178.7040  141.2710 C   0  0  0  0  0  0  0  0  0  0  0  0
  187.1390  177.9440  144.7870 C   0  0  0  0  0  3  0  0  0  0  0  0
  190.6950  176.5290  140.8760 C   0  0  0  0  0  2  0  0  0  0  0  0
  185.0270  178.6840  143.8780 C   0  0  0  0  0  0  0  0  0  0  0  0
  184.4850  178.6940  145.1670 C   0  0  0  0  0  3  0  0  0  0  0  0
  186.5070  178.7360  139.9950 N   0  0  0  0  0  0  0  0  0  0  0  0
  188.6370  177.9690  140.6180 C   0  0  0  0  0  0  0  0  0  0  0  0
  190.0340  177.6860  140.1300 C   0  0  0  0  0  2  0  0  0  0  0  0
  183.8770  179.4790  140.4230 N   0  0  0  0  0  2  0  0  0  0  0  0
  182.9210  177.2320  140.4250 C   0  0  0  0  0  1  0  0  0  0  0  0
  183.0080  178.5630  139.6960 C   0  0  1  0  0  3  0  0  0  0  0  0
  181.5200  180.2820  138.9860 O   0  0  0  0  0  0  0  0  0  0  0  0
  181.6440  179.1610  139.5470 C   0  0  0  0  0  0  0  0  0  0  0  0
  179.9100  177.5720  139.3280 O   0  0  0  0  0  0  0  0  0  0  0  0
  180.4640  178.4320  140.0620 C   0  0  0  0  0  0  0  0  0  0  0  0
  179.9180  178.6630  141.3680 N   0  0  0  0  0  2  0  0  0  0  0  0
  180.4370  179.6240  142.3300 C   0  0  0  0  0  2  0  0  0  0  0  0
  180.9540  178.9020  143.5600 C   0  0  0  0  0  2  0  0  0  0  0  0
  179.8280  178.1460  144.2390 C   0  0  0  0  0  1  0  0  0  0  0  0
  1  6  1  0  0  0  0
  1  9  1  0  0  0  0
  2  5  1  0  0  0  0
  3  2  1  0  0  0  0
  3  7  1  0  0  0  0
  4  7  1  0  0  0  0
  5 16  2  0  0  0  0
  5 14  1  0  0  0  0
  8 12  2  0  0  0  0
 10 18  2  0  0  0  0
 10 19  1  0  0  0  0
 11  4  1  0  0  0  0
 12 16  1  0  0  0  0
 13  8  1  0  0  0  0
 13  2  2  0  0  0  0
 14  1  2  0  0  0  0
 15 11  1  0  0  0  0
 16 17  1  0  0  0  0
 17  6  2  0  0  0  0
 18 13  1  0  0  0  0
 19  3  2  0  0  0  0
 20 19  1  0  0  0  0
 20 15  1  0  0  0  0
 21  8  1  0  0  0  0
 23 21  1  0  0  0  0
 23 22  1  1  0  0  0
 24 25  2  0  0  0  0
 25 23  1  0  0  0  0
 25 27  1  0  0  0  0
 26 27  2  0  0  0  0
 27 28  1  0  0  0  0
 28 29  1  0  0  0  0
 29 30  1  0  0  0  0
 30 31  1  0  0  0  0
M  END
>  <MODEL>
9

>  <REMARK>
 VINA RESULT:      -8.9      3.068      5.521
  Name = 
  6 active torsions:
  status: ('A' for Active; 'I' for Inactive)
    1  A    between atoms: C_1  and  C_11
    2  A    between atoms: C_9  and  C_22
    3  A    between atoms: C_9  and  N_23
    4  A    between atoms: C_11  and  N_24
    5  A    between atoms: C_15  and  N_23
    6  A    between atoms: C_19  and  C_22
                            x       y       z     vdW  Elec       q    Type
                         _______ _______ _______ _____ _____    ______ ____

>  <TORSDO>
F 6

$$$$
