=
 OpenBabel11052412503D

 25 28  0  0  1  0  0  0  0  0999 V2000
  186.3200  178.0780  145.2300 C   0  0  0  0  0  0  0  0  0  0  0  0
  186.0440  177.8370  143.8790 C   0  0  0  0  0  0  0  0  0  0  0  0
  184.1300  179.0240  145.6300 C   0  0  0  0  0  3  0  0  0  0  0  0
  187.4290  177.8500  146.0170 C   0  0  0  0  0  0  0  0  0  0  0  0
  187.4040  178.6260  141.7840 C   0  0  2  0  0  3  0  0  0  0  0  0
  189.2560  177.6680  148.0890 C   0  0  0  0  0  3  0  0  0  0  0  0
  183.8290  178.8150  144.2740 C   0  0  0  0  0  3  0  0  0  0  0  0
  187.0910  178.2930  147.2790 C   0  0  0  0  0  0  0  0  0  0  0  0
  187.9860  178.2160  148.3430 C   0  0  0  0  0  3  0  0  0  0  0  0
  184.4680  178.1120  141.9130 C   0  0  1  0  0  3  0  0  0  0  0  0
  182.9940  178.2870  141.5710 C   0  0  0  0  0  1  0  0  0  0  0  0
  187.2850  177.1110  142.7960 S   0  0  0  0  0  0  0  0  0  0  0  0
  189.6000  177.2150  146.7960 C   0  0  0  0  0  3  0  0  0  0  0  0
  185.3890  178.6450  146.0780 C   0  0  0  0  0  0  0  0  0  0  0  0
  185.8630  178.7680  147.3020 O   0  0  0  0  0  0  0  0  0  0  0  0
  185.3070  179.1280  141.1420 C   0  0  0  0  0  2  0  0  0  0  0  0
  188.6800  177.3020  145.7370 C   0  0  0  0  0  3  0  0  0  0  0  0
  186.5070  178.5450  140.7080 O   0  0  0  0  0  0  0  0  0  0  0  0
  184.7650  178.2170  143.3910 C   0  0  0  0  0  0  0  0  0  0  0  0
  188.8280  178.8600  141.2860 C   0  0  0  0  0  2  0  0  0  0  0  0
  189.4070  177.6580  140.5460 C   0  0  2  0  0  3  0  0  0  0  0  0
  190.6160  177.2690  141.1260 O   0  0  0  0  0  1  0  0  0  0  0  0
  189.6220  177.9980  139.1100 C   0  0  0  0  0  0  0  0  0  0  0  0
  189.0590  179.1530  138.5850 O   0  0  0  0  0  1  0  0  0  0  0  0
  190.3260  177.2550  138.3750 O   0  0  0  0  0  0  0  0  0  0  0  0
  1  4  1  0  0  0  0
  1 14  2  0  0  0  0
  2  1  1  0  0  0  0
  3 14  1  0  0  0  0
  4  8  1  0  0  0  0
  5 20  1  6  0  0  0
  5 12  1  0  0  0  0
  6  9  1  0  0  0  0
  7  3  2  0  0  0  0
  8 15  1  0  0  0  0
  8  9  2  0  0  0  0
 10 11  1  1  0  0  0
 10 19  1  0  0  0  0
 12  2  1  0  0  0  0
 13  6  2  0  0  0  0
 14 15  1  0  0  0  0
 16 10  1  0  0  0  0
 17  4  2  0  0  0  0
 17 13  1  0  0  0  0
 18 16  1  0  0  0  0
 18  5  1  0  0  0  0
 19  2  2  0  0  0  0
 19  7  1  0  0  0  0
 21 22  1  1  0  0  0
 21 20  1  0  0  0  0
 23 21  1  0  0  0  0
 24 23  1  0  0  0  0
 25 23  2  0  0  0  0
M  END
>  <MODEL>
1

>  <REMARK>
 VINA RESULT:     -10.0      0.000      0.000
  Name = 
  3 active torsions:
  status: ('A' for Active; 'I' for Inactive)
    1  A    between atoms: C_2  and  C_21
    2  A    between atoms: C_6  and  C_15
    3  A    between atoms: C_15  and  C_21
                            x       y       z     vdW  Elec       q    Type
                         _______ _______ _______ _____ _____    ______ ____

>  <TORSDO>
F 3

$$$$
=
 OpenBabel11052412503D

 25 28  0  0  1  0  0  0  0  0999 V2000
  187.8580  177.6340  145.5870 C   0  0  0  0  0  0  0  0  0  0  0  0
  187.0010  177.6220  144.4800 C   0  0  0  0  0  0  0  0  0  0  0  0
  186.1900  178.6520  147.0130 C   0  0  0  0  0  3  0  0  0  0  0  0
  189.1580  177.2150  145.7720 C   0  0  0  0  0  0  0  0  0  0  0  0
  187.4190  178.6290  142.0980 C   0  0  2  0  0  3  0  0  0  0  0  0
  191.6570  176.5960  146.7900 C   0  0  0  0  0  3  0  0  0  0  0  0
  185.3130  178.6730  145.9170 C   0  0  0  0  0  3  0  0  0  0  0  0
  189.4530  177.4810  147.0940 C   0  0  0  0  0  0  0  0  0  0  0  0
  190.7000  177.1820  147.6360 C   0  0  0  0  0  3  0  0  0  0  0  0
  184.7830  178.2990  143.4560 C   0  0  1  0  0  3  0  0  0  0  0  0
  183.3410  178.6220  143.8220 C   0  0  0  0  0  1  0  0  0  0  0  0
  187.5540  176.9890  142.8880 S   0  0  0  0  0  0  0  0  0  0  0  0
  191.3530  176.3250  145.4370 C   0  0  0  0  0  3  0  0  0  0  0  0
  187.4610  178.1260  146.8150 C   0  0  0  0  0  0  0  0  0  0  0  0
  188.4250  178.0280  147.7090 O   0  0  0  0  0  0  0  0  0  0  0  0
  185.3320  179.3630  142.5080 C   0  0  0  0  0  2  0  0  0  0  0  0
  190.0870  176.6340  144.9110 C   0  0  0  0  0  3  0  0  0  0  0  0
  186.1450  178.7740  141.5280 O   0  0  0  0  0  0  0  0  0  0  0  0
  185.6960  178.1570  144.6520 C   0  0  0  0  0  0  0  0  0  0  0  0
  188.5100  178.8420  141.0500 C   0  0  0  0  0  2  0  0  0  0  0  0
  188.8610  177.5680  140.2880 C   0  0  2  0  0  3  0  0  0  0  0  0
  190.2290  177.3080  140.3830 O   0  0  0  0  0  1  0  0  0  0  0  0
  188.4710  177.7080  138.8550 C   0  0  0  0  0  0  0  0  0  0  0  0
  188.4890  178.9600  138.2570 O   0  0  0  0  0  1  0  0  0  0  0  0
  188.1460  176.6960  138.1790 O   0  0  0  0  0  0  0  0  0  0  0  0
  1  4  1  0  0  0  0
  1 14  2  0  0  0  0
  2 19  2  0  0  0  0
  2  1  1  0  0  0  0
  4  8  1  0  0  0  0
  5 20  1  6  0  0  0
  5 12  1  0  0  0  0
  6  9  1  0  0  0  0
  7  3  2  0  0  0  0
  8  9  2  0  0  0  0
  8 15  1  0  0  0  0
 10 11  1  1  0  0  0
 10 19  1  0  0  0  0
 12  2  1  0  0  0  0
 13  6  2  0  0  0  0
 14  3  1  0  0  0  0
 14 15  1  0  0  0  0
 16 10  1  0  0  0  0
 17 13  1  0  0  0  0
 17  4  2  0  0  0  0
 18  5  1  0  0  0  0
 18 16  1  0  0  0  0
 19  7  1  0  0  0  0
 21 22  1  6  0  0  0
 21 20  1  0  0  0  0
 23 21  1  0  0  0  0
 24 23  1  0  0  0  0
 25 23  2  0  0  0  0
M  END
>  <MODEL>
2

>  <REMARK>
 VINA RESULT:      -9.7      1.243      1.846
  Name = 
  3 active torsions:
  status: ('A' for Active; 'I' for Inactive)
    1  A    between atoms: C_2  and  C_21
    2  A    between atoms: C_6  and  C_15
    3  A    between atoms: C_15  and  C_21
                            x       y       z     vdW  Elec       q    Type
                         _______ _______ _______ _____ _____    ______ ____

>  <TORSDO>
F 3

$$$$
=
 OpenBabel11052412503D

 25 28  0  0  1  0  0  0  0  0999 V2000
  186.2850  178.0590  145.1680 C   0  0  0  0  0  0  0  0  0  0  0  0
  186.1610  177.7900  143.7990 C   0  0  0  0  0  0  0  0  0  0  0  0
  184.0760  179.0390  145.2920 C   0  0  0  0  0  3  0  0  0  0  0  0
  187.2930  177.8360  146.0810 C   0  0  0  0  0  0  0  0  0  0  0  0
  187.7630  178.5130  141.8570 C   0  0  2  0  0  3  0  0  0  0  0  0
  188.8680  177.6810  148.3530 C   0  0  0  0  0  3  0  0  0  0  0  0
  183.9300  178.8020  143.9160 C   0  0  0  0  0  3  0  0  0  0  0  0
  186.8190  178.3120  147.2860 C   0  0  0  0  0  0  0  0  0  0  0  0
  187.5850  178.2500  148.4470 C   0  0  0  0  0  3  0  0  0  0  0  0
  184.8240  178.0370  141.6600 C   0  0  1  0  0  3  0  0  0  0  0  0
  183.4020  178.2210  141.1480 C   0  0  0  0  0  1  0  0  0  0  0  0
  187.5070  177.0240  142.8820 S   0  0  0  0  0  0  0  0  0  0  0  0
  189.3510  177.1940  147.1180 C   0  0  0  0  0  3  0  0  0  0  0  0
  185.2710  178.6570  145.8910 C   0  0  0  0  0  0  0  0  0  0  0  0
  185.6030  178.8030  147.1580 O   0  0  0  0  0  0  0  0  0  0  0  0
  185.7600  179.0250  140.9680 C   0  0  0  0  0  2  0  0  0  0  0  0
  188.5590  177.2670  145.9580 C   0  0  0  0  0  3  0  0  0  0  0  0
  186.9930  178.4170  140.6880 O   0  0  0  0  0  0  0  0  0  0  0  0
  184.9520  178.1730  143.1600 C   0  0  0  0  0  0  0  0  0  0  0  0
  189.2380  178.7190  141.5200 C   0  0  0  0  0  2  0  0  0  0  0  0
  190.1770  178.1440  142.5770 C   0  0  2  0  0  3  0  0  0  0  0  0
  190.5630  179.1410  143.4750 O   0  0  0  0  0  1  0  0  0  0  0  0
  191.3830  177.5580  141.9230 C   0  0  0  0  0  0  0  0  0  0  0  0
  191.5050  177.6020  140.5410 O   0  0  0  0  0  0  0  0  0  0  0  0
  192.2990  177.0420  142.6160 O   0  0  0  0  0  1  0  0  0  0  0  0
  1 14  2  0  0  0  0
  1  4  1  0  0  0  0
  2  1  1  0  0  0  0
  3 14  1  0  0  0  0
  4  8  1  0  0  0  0
  5 20  1  6  0  0  0
  5 12  1  0  0  0  0
  6  9  1  0  0  0  0
  7  3  2  0  0  0  0
  8  9  2  0  0  0  0
 10 11  1  6  0  0  0
 10 19  1  0  0  0  0
 12  2  1  0  0  0  0
 13  6  2  0  0  0  0
 14 15  1  0  0  0  0
 15  8  1  0  0  0  0
 16 10  1  0  0  0  0
 17  4  2  0  0  0  0
 17 13  1  0  0  0  0
 18 16  1  0  0  0  0
 18  5  1  0  0  0  0
 19  2  2  0  0  0  0
 19  7  1  0  0  0  0
 20 21  1  0  0  0  0
 21 22  1  1  0  0  0
 23 21  1  0  0  0  0
 23 25  1  0  0  0  0
 24 23  2  0  0  0  0
M  END
>  <MODEL>
3

>  <REMARK>
 VINA RESULT:      -9.5      1.058      1.575
  Name = 
  3 active torsions:
  status: ('A' for Active; 'I' for Inactive)
    1  A    between atoms: C_2  and  C_21
    2  A    between atoms: C_6  and  C_15
    3  A    between atoms: C_15  and  C_21
                            x       y       z     vdW  Elec       q    Type
                         _______ _______ _______ _____ _____    ______ ____

>  <TORSDO>
F 3

$$$$
=
 OpenBabel11052412503D

 25 28  0  0  1  0  0  0  0  0999 V2000
  187.2290  177.8970  142.6990 C   0  0  0  0  0  0  0  0  0  0  0  0
  188.4320  177.2350  142.4220 C   0  0  0  0  0  0  0  0  0  0  0  0
  186.9900  178.6590  140.4150 C   0  0  0  0  0  3  0  0  0  0  0  0
  186.4800  178.0430  143.8470 C   0  0  0  0  0  0  0  0  0  0  0  0
  190.7450  177.5160  143.6180 C   0  0  2  0  0  3  0  0  0  0  0  0
  184.5620  178.6980  145.7320 C   0  0  0  0  0  3  0  0  0  0  0  0
  188.2040  178.0230  140.1100 C   0  0  0  0  0  3  0  0  0  0  0  0
  185.3840  178.7990  143.4850 C   0  0  0  0  0  0  0  0  0  0  0  0
  184.4020  179.1460  144.4090 C   0  0  0  0  0  3  0  0  0  0  0  0
  190.2920  176.7290  140.7760 C   0  0  1  0  0  3  0  0  0  0  0  0
  190.5780  176.6220  139.2840 C   0  0  0  0  0  1  0  0  0  0  0  0
  189.3300  176.3680  143.7200 S   0  0  0  0  0  0  0  0  0  0  0  0
  185.6850  177.9240  146.1000 C   0  0  0  0  0  3  0  0  0  0  0  0
  186.5280  178.5790  141.7230 C   0  0  0  0  0  0  0  0  0  0  0  0
  185.4250  179.1150  142.2070 O   0  0  0  0  0  0  0  0  0  0  0  0
  191.3760  177.5600  141.4580 C   0  0  0  0  0  2  0  0  0  0  0  0
  186.6650  177.5850  145.1500 C   0  0  0  0  0  3  0  0  0  0  0  0
  191.6930  177.0160  142.7120 O   0  0  0  0  0  0  0  0  0  0  0  0
  188.9300  177.3020  141.0930 C   0  0  0  0  0  0  0  0  0  0  0  0
  191.3770  177.7560  144.9870 C   0  0  0  0  0  2  0  0  0  0  0  0
  190.7210  176.9410  146.0970 C   0  0  2  0  0  3  0  0  0  0  0  0
  189.8640  177.7470  146.8480 O   0  0  0  0  0  1  0  0  0  0  0  0
  191.7650  176.3510  146.9830 C   0  0  0  0  0  0  0  0  0  0  0  0
  192.4040  175.1780  146.6070 O   0  0  0  0  0  0  0  0  0  0  0  0
  192.0870  176.9210  148.0600 O   0  0  0  0  0  1  0  0  0  0  0  0
  1  4  1  0  0  0  0
  2  1  1  0  0  0  0
  2 12  1  0  0  0  0
  3 14  1  0  0  0  0
  4 17  1  0  0  0  0
  5 12  1  0  0  0  0
  5 20  1  1  0  0  0
  6 13  1  0  0  0  0
  7  3  2  0  0  0  0
  7 19  1  0  0  0  0
  8  4  2  0  0  0  0
  8  9  1  0  0  0  0
  9  6  2  0  0  0  0
 10 11  1  6  0  0  0
 10 19  1  0  0  0  0
 10 16  1  0  0  0  0
 14 15  1  0  0  0  0
 14  1  2  0  0  0  0
 15  8  1  0  0  0  0
 16 18  1  0  0  0  0
 17 13  2  0  0  0  0
 18  5  1  0  0  0  0
 19  2  2  0  0  0  0
 20 21  1  0  0  0  0
 21 22  1  1  0  0  0
 21 23  1  0  0  0  0
 23 25  1  0  0  0  0
 24 23  2  0  0  0  0
M  END
>  <MODEL>
4

>  <REMARK>
 VINA RESULT:      -9.5      2.494      5.665
  Name = 
  3 active torsions:
  status: ('A' for Active; 'I' for Inactive)
    1  A    between atoms: C_2  and  C_21
    2  A    between atoms: C_6  and  C_15
    3  A    between atoms: C_15  and  C_21
                            x       y       z     vdW  Elec       q    Type
                         _______ _______ _______ _____ _____    ______ ____

>  <TORSDO>
F 3

$$$$
=
 OpenBabel11052412503D

 25 28  0  0  1  0  0  0  0  0999 V2000
  187.5400  177.9190  145.7750 C   0  0  0  0  0  0  0  0  0  0  0  0
  188.9010  177.7730  145.4770 C   0  0  0  0  0  0  0  0  0  0  0  0
  187.8430  177.1710  148.0560 C   0  0  0  0  0  3  0  0  0  0  0  0
  186.4560  178.3360  145.0340 C   0  0  0  0  0  0  0  0  0  0  0  0
  189.9930  176.3960  143.5340 C   0  0  2  0  0  3  0  0  0  0  0  0
  183.9380  179.0570  144.1370 C   0  0  0  0  0  3  0  0  0  0  0  0
  189.2090  176.9940  147.7820 C   0  0  0  0  0  3  0  0  0  0  0  0
  185.3730  178.2750  145.8870 C   0  0  0  0  0  0  0  0  0  0  0  0
  184.0940  178.6300  145.4670 C   0  0  0  0  0  3  0  0  0  0  0  0
  191.2000  176.9870  146.1980 C   0  0  1  0  0  3  0  0  0  0  0  0
  192.0550  176.7550  147.4360 C   0  0  0  0  0  1  0  0  0  0  0  0
  189.5300  178.1370  143.8290 S   0  0  0  0  0  0  0  0  0  0  0  0
  185.0470  179.1180  143.2650 C   0  0  0  0  0  3  0  0  0  0  0  0
  187.0310  177.6340  147.0270 C   0  0  0  0  0  0  0  0  0  0  0  0
  185.7320  177.8510  147.0810 O   0  0  0  0  0  0  0  0  0  0  0  0
  191.2830  175.7770  145.2710 C   0  0  0  0  0  2  0  0  0  0  0  0
  186.3310  178.7550  143.7110 C   0  0  0  0  0  3  0  0  0  0  0  0
  191.3230  176.1890  143.9300 O   0  0  0  0  0  0  0  0  0  0  0  0
  189.7540  177.2980  146.5080 C   0  0  0  0  0  0  0  0  0  0  0  0
  189.7930  176.0000  142.0730 C   0  0  0  0  0  2  0  0  0  0  0  0
  189.9220  177.1780  141.1120 C   0  0  2  0  0  3  0  0  0  0  0  0
  188.7160  177.3910  140.4420 O   0  0  0  0  0  1  0  0  0  0  0  0
  191.0090  176.9150  140.1260 C   0  0  0  0  0  0  0  0  0  0  0  0
  190.7880  176.0320  139.0780 O   0  0  0  0  0  0  0  0  0  0  0  0
  192.1190  177.5040  140.2240 O   0  0  0  0  0  1  0  0  0  0  0  0
  1 14  1  0  0  0  0
  2  1  2  0  0  0  0
  2 19  1  0  0  0  0
  4  1  1  0  0  0  0
  4  8  1  0  0  0  0
  5 20  1  6  0  0  0
  5 12  1  0  0  0  0
  5 18  1  0  0  0  0
  6  9  1  0  0  0  0
  7  3  1  0  0  0  0
  8 15  1  0  0  0  0
  9  8  2  0  0  0  0
 10 19  1  0  0  0  0
 10 11  1  1  0  0  0
 12  2  1  0  0  0  0
 13 17  1  0  0  0  0
 13  6  2  0  0  0  0
 14 15  1  0  0  0  0
 14  3  2  0  0  0  0
 16 10  1  0  0  0  0
 17  4  2  0  0  0  0
 18 16  1  0  0  0  0
 19  7  2  0  0  0  0
 21 22  1  6  0  0  0
 21 20  1  0  0  0  0
 23 25  1  0  0  0  0
 23 21  1  0  0  0  0
 24 23  2  0  0  0  0
M  END
>  <MODEL>
5

>  <REMARK>
 VINA RESULT:      -8.5      1.622      4.872
  Name = 
  3 active torsions:
  status: ('A' for Active; 'I' for Inactive)
    1  A    between atoms: C_2  and  C_21
    2  A    between atoms: C_6  and  C_15
    3  A    between atoms: C_15  and  C_21
                            x       y       z     vdW  Elec       q    Type
                         _______ _______ _______ _____ _____    ______ ____

>  <TORSDO>
F 3

$$$$
=
 OpenBabel11052412503D

 25 28  0  0  1  0  0  0  0  0999 V2000
  189.5380  177.3440  143.7440 C   0  0  0  0  0  0  0  0  0  0  0  0
  188.4490  177.2240  144.6160 C   0  0  0  0  0  0  0  0  0  0  0  0
  191.1140  177.5990  145.5630 C   0  0  0  0  0  3  0  0  0  0  0  0
  189.6480  177.3200  142.3700 C   0  0  0  0  0  0  0  0  0  0  0  0
  186.2380  178.6280  144.6460 C   0  0  2  0  0  3  0  0  0  0  0  0
  190.5420  177.3580  139.7500 C   0  0  0  0  0  3  0  0  0  0  0  0
  190.0400  177.5030  146.4620 C   0  0  0  0  0  3  0  0  0  0  0  0
  190.9920  177.4790  142.0990 C   0  0  0  0  0  0  0  0  0  0  0  0
  191.4740  177.5030  140.7930 C   0  0  0  0  0  3  0  0  0  0  0  0
  187.5560  177.3270  146.9860 C   0  0  1  0  0  3  0  0  0  0  0  0
  187.9780  177.1420  148.4370 C   0  0  0  0  0  1  0  0  0  0  0  0
  186.7760  177.0140  143.9830 S   0  0  0  0  0  0  0  0  0  0  0  0
  189.1670  177.1960  140.0300 C   0  0  0  0  0  3  0  0  0  0  0  0
  190.8290  177.5180  144.2040 C   0  0  0  0  0  0  0  0  0  0  0  0
  191.6900  177.5970  143.2100 O   0  0  0  0  0  0  0  0  0  0  0  0
  186.7700  178.6270  146.8320 C   0  0  0  0  0  2  0  0  0  0  0  0
  188.7030  177.1740  141.3570 C   0  0  0  0  0  3  0  0  0  0  0  0
  185.7070  178.4550  145.9330 O   0  0  0  0  0  0  0  0  0  0  0  0
  188.7100  177.3060  146.0100 C   0  0  0  0  0  0  0  0  0  0  0  0
  185.2230  179.3050  143.7270 C   0  0  0  0  0  2  0  0  0  0  0  0
  185.2040  178.7130  142.3210 C   0  0  2  0  0  3  0  0  0  0  0  0
  185.6820  179.6440  141.3970 O   0  0  0  0  0  1  0  0  0  0  0  0
  183.8160  178.3060  141.9580 C   0  0  0  0  0  0  0  0  0  0  0  0
  182.7440  178.7780  142.7030 O   0  0  0  0  0  1  0  0  0  0  0  0
  183.6080  177.5550  140.9690 O   0  0  0  0  0  0  0  0  0  0  0  0
  1 14  1  0  0  0  0
  1  2  2  0  0  0  0
  2 19  1  0  0  0  0
  3  7  1  0  0  0  0
  4  1  1  0  0  0  0
  5 20  1  6  0  0  0
  5 18  1  0  0  0  0
  6 13  2  0  0  0  0
  6  9  1  0  0  0  0
  8  4  1  0  0  0  0
  8 15  1  0  0  0  0
  9  8  2  0  0  0  0
 10 11  1  1  0  0  0
 12  2  1  0  0  0  0
 12  5  1  0  0  0  0
 13 17  1  0  0  0  0
 14  3  2  0  0  0  0
 15 14  1  0  0  0  0
 16 10  1  0  0  0  0
 17  4  2  0  0  0  0
 18 16  1  0  0  0  0
 19  7  2  0  0  0  0
 19 10  1  0  0  0  0
 21 22  1  6  0  0  0
 21 20  1  0  0  0  0
 23 21  1  0  0  0  0
 23 24  1  0  0  0  0
 25 23  2  0  0  0  0
M  END
>  <MODEL>
6

>  <REMARK>
 VINA RESULT:      -8.5      1.866      5.993
  Name = 
  3 active torsions:
  status: ('A' for Active; 'I' for Inactive)
    1  A    between atoms: C_2  and  C_21
    2  A    between atoms: C_6  and  C_15
    3  A    between atoms: C_15  and  C_21
                            x       y       z     vdW  Elec       q    Type
                         _______ _______ _______ _____ _____    ______ ____

>  <TORSDO>
F 3

$$$$
=
 OpenBabel11052412503D

 25 28  0  0  1  0  0  0  0  0999 V2000
  185.7960  178.4770  144.6180 C   0  0  0  0  0  0  0  0  0  0  0  0
  187.1250  178.4190  145.0550 C   0  0  0  0  0  0  0  0  0  0  0  0
  184.9270  178.3260  146.8710 C   0  0  0  0  0  3  0  0  0  0  0  0
  185.2220  178.5840  143.3690 C   0  0  0  0  0  0  0  0  0  0  0  0
  189.0040  176.7560  144.3050 C   0  0  2  0  0  3  0  0  0  0  0  0
  183.4820  178.7860  141.2260 C   0  0  0  0  0  3  0  0  0  0  0  0
  186.2480  178.2440  147.3400 C   0  0  0  0  0  3  0  0  0  0  0  0
  183.8590  178.6040  143.5840 C   0  0  0  0  0  0  0  0  0  0  0  0
  182.9570  178.7040  142.5280 C   0  0  0  0  0  3  0  0  0  0  0  0
  188.7610  178.0880  146.9640 C   0  0  1  0  0  3  0  0  0  0  0  0
  188.8940  178.2510  148.4710 C   0  0  0  0  0  1  0  0  0  0  0  0
  188.4880  178.4540  143.8790 S   0  0  0  0  0  0  0  0  0  0  0  0
  184.8770  178.7650  141.0090 C   0  0  0  0  0  3  0  0  0  0  0  0
  184.7330  178.4390  145.4990 C   0  0  0  0  0  0  0  0  0  0  0  0
  183.5790  178.5160  144.8680 O   0  0  0  0  0  0  0  0  0  0  0  0
  189.2650  176.7110  146.5400 C   0  0  0  0  0  2  0  0  0  0  0  0
  185.7700  178.6630  142.0910 C   0  0  0  0  0  3  0  0  0  0  0  0
  189.9650  176.7980  145.3270 O   0  0  0  0  0  0  0  0  0  0  0  0
  187.3540  178.2990  146.4520 C   0  0  0  0  0  0  0  0  0  0  0  0
  189.5400  176.0070  143.0870 C   0  0  0  0  0  2  0  0  0  0  0  0
  189.9330  176.9350  141.9420 C   0  0  2  0  0  3  0  0  0  0  0  0
  189.5540  176.3810  140.7180 O   0  0  0  0  0  1  0  0  0  0  0  0
  191.4060  177.1680  141.9570 C   0  0  0  0  0  0  0  0  0  0  0  0
  192.0610  177.5020  140.7790 O   0  0  0  0  0  0  0  0  0  0  0  0
  192.0570  177.0830  143.0320 O   0  0  0  0  0  1  0  0  0  0  0  0
  1  2  2  0  0  0  0
  1 14  1  0  0  0  0
  2 19  1  0  0  0  0
  3  7  1  0  0  0  0
  4  8  1  0  0  0  0
  4  1  1  0  0  0  0
  5 20  1  6  0  0  0
  5 18  1  0  0  0  0
  6  9  1  0  0  0  0
  8 15  1  0  0  0  0
  9  8  2  0  0  0  0
 10 11  1  1  0  0  0
 12  5  1  0  0  0  0
 12  2  1  0  0  0  0
 13  6  2  0  0  0  0
 13 17  1  0  0  0  0
 14  3  2  0  0  0  0
 15 14  1  0  0  0  0
 16 10  1  0  0  0  0
 17  4  2  0  0  0  0
 18 16  1  0  0  0  0
 19 10  1  0  0  0  0
 19  7  2  0  0  0  0
 21 22  1  6  0  0  0
 21 23  1  0  0  0  0
 21 20  1  0  0  0  0
 23 25  1  0  0  0  0
 24 23  2  0  0  0  0
M  END
>  <MODEL>
7

>  <REMARK>
 VINA RESULT:      -8.1      1.811      4.938
  Name = 
  3 active torsions:
  status: ('A' for Active; 'I' for Inactive)
    1  A    between atoms: C_2  and  C_21
    2  A    between atoms: C_6  and  C_15
    3  A    between atoms: C_15  and  C_21
                            x       y       z     vdW  Elec       q    Type
                         _______ _______ _______ _____ _____    ______ ____

>  <TORSDO>
F 3

$$$$
=
 OpenBabel11052412503D

 25 28  0  0  1  0  0  0  0  0999 V2000
  186.7530  178.1630  142.8350 C   0  0  0  0  0  0  0  0  0  0  0  0
  188.1320  178.1790  142.5910 C   0  0  0  0  0  0  0  0  0  0  0  0
  187.0480  177.4110  145.1150 C   0  0  0  0  0  3  0  0  0  0  0  0
  185.6580  178.4690  142.0550 C   0  0  0  0  0  0  0  0  0  0  0  0
  189.4500  176.9730  140.6760 C   0  0  2  0  0  3  0  0  0  0  0  0
  183.1110  178.9170  141.0650 C   0  0  0  0  0  3  0  0  0  0  0  0
  188.4350  177.3960  144.8960 C   0  0  0  0  0  3  0  0  0  0  0  0
  184.5560  178.2690  142.8620 C   0  0  0  0  0  0  0  0  0  0  0  0
  183.2620  178.4840  142.3950 C   0  0  0  0  0  3  0  0  0  0  0  0
  190.4760  177.6460  143.3950 C   0  0  1  0  0  3  0  0  0  0  0  0
  191.3020  177.4880  144.6640 C   0  0  0  0  0  1  0  0  0  0  0  0
  188.7800  178.6440  140.9770 S   0  0  0  0  0  0  0  0  0  0  0  0
  184.2410  179.1210  140.2410 C   0  0  0  0  0  3  0  0  0  0  0  0
  186.2300  177.7980  144.0600 C   0  0  0  0  0  0  0  0  0  0  0  0
  184.9140  177.8660  144.0640 O   0  0  0  0  0  0  0  0  0  0  0  0
  190.7330  176.4710  142.4550 C   0  0  0  0  0  2  0  0  0  0  0  0
  185.5380  178.8970  140.7350 C   0  0  0  0  0  3  0  0  0  0  0  0
  190.7790  176.9100  141.1230 O   0  0  0  0  0  0  0  0  0  0  0  0
  188.9920  177.7850  143.6500 C   0  0  0  0  0  0  0  0  0  0  0  0
  189.3550  176.5850  139.2010 C   0  0  0  0  0  2  0  0  0  0  0  0
  188.3510  177.4320  138.4250 C   0  0  2  0  0  3  0  0  0  0  0  0
  187.3900  176.6150  137.8270 O   0  0  0  0  0  1  0  0  0  0  0  0
  189.0560  178.2300  137.3820 C   0  0  0  0  0  0  0  0  0  0  0  0
  188.9950  179.6170  137.4190 O   0  0  0  0  0  1  0  0  0  0  0  0
  189.7230  177.6580  136.4800 O   0  0  0  0  0  0  0  0  0  0  0  0
  1 14  1  0  0  0  0
  2  1  2  0  0  0  0
  2 19  1  0  0  0  0
  4  1  1  0  0  0  0
  4  8  1  0  0  0  0
  5 20  1  6  0  0  0
  5 12  1  0  0  0  0
  5 18  1  0  0  0  0
  6  9  1  0  0  0  0
  7  3  1  0  0  0  0
  8 15  1  0  0  0  0
  9  8  2  0  0  0  0
 10 19  1  0  0  0  0
 10 11  1  1  0  0  0
 12  2  1  0  0  0  0
 13 17  1  0  0  0  0
 13  6  2  0  0  0  0
 14 15  1  0  0  0  0
 14  3  2  0  0  0  0
 16 10  1  0  0  0  0
 17  4  2  0  0  0  0
 18 16  1  0  0  0  0
 19  7  2  0  0  0  0
 21 22  1  6  0  0  0
 21 20  1  0  0  0  0
 23 24  1  0  0  0  0
 23 21  1  0  0  0  0
 25 23  2  0  0  0  0
M  END
>  <MODEL>
8

>  <REMARK>
 VINA RESULT:      -7.9      2.003      5.006
  Name = 
  3 active torsions:
  status: ('A' for Active; 'I' for Inactive)
    1  A    between atoms: C_2  and  C_21
    2  A    between atoms: C_6  and  C_15
    3  A    between atoms: C_15  and  C_21
                            x       y       z     vdW  Elec       q    Type
                         _______ _______ _______ _____ _____    ______ ____

>  <TORSDO>
F 3

$$$$
=
 OpenBabel11052412503D

 25 28  0  0  1  0  0  0  0  0999 V2000
  184.6620  178.6360  142.5890 C   0  0  0  0  0  0  0  0  0  0  0  0
  185.7160  178.6500  143.5110 C   0  0  0  0  0  0  0  0  0  0  0  0
  182.9850  178.6390  144.3330 C   0  0  0  0  0  3  0  0  0  0  0  0
  184.6200  178.6270  141.2120 C   0  0  0  0  0  0  0  0  0  0  0  0
  187.7310  176.9850  143.6910 C   0  0  2  0  0  3  0  0  0  0  0  0
  183.8510  178.6110  138.5520 C   0  0  0  0  0  3  0  0  0  0  0  0
  184.0190  178.6320  145.2830 C   0  0  0  0  0  3  0  0  0  0  0  0
  183.2810  178.6270  140.8780 C   0  0  0  0  0  0  0  0  0  0  0  0
  182.8610  178.6180  139.5510 C   0  0  0  0  0  3  0  0  0  0  0  0
  186.4790  178.5170  145.9250 C   0  0  1  0  0  3  0  0  0  0  0  0
  186.0160  178.8020  147.3470 C   0  0  0  0  0  1  0  0  0  0  0  0
  187.4300  178.6290  142.9580 S   0  0  0  0  0  0  0  0  0  0  0  0
  185.2210  178.6120  138.8960 C   0  0  0  0  0  3  0  0  0  0  0  0
  183.3400  178.6390  142.9890 C   0  0  0  0  0  0  0  0  0  0  0  0
  182.5230  178.6330  141.9550 O   0  0  0  0  0  0  0  0  0  0  0  0
  187.1020  177.1250  145.8470 C   0  0  0  0  0  2  0  0  0  0  0  0
  185.6220  178.6210  140.2440 C   0  0  0  0  0  3  0  0  0  0  0  0
  188.2190  177.1350  144.9980 O   0  0  0  0  0  0  0  0  0  0  0  0
  185.3840  178.6470  144.8920 C   0  0  0  0  0  0  0  0  0  0  0  0
  188.6950  176.1580  142.8430 C   0  0  0  0  0  2  0  0  0  0  0  0
  189.8080  176.9930  142.2190 C   0  0  2  0  0  3  0  0  0  0  0  0
  190.1690  176.4690  140.9770 O   0  0  0  0  0  1  0  0  0  0  0  0
  190.9950  177.0160  143.1220 C   0  0  0  0  0  0  0  0  0  0  0  0
  191.6000  178.2260  143.4320 O   0  0  0  0  0  0  0  0  0  0  0  0
  191.4410  175.9480  143.6200 O   0  0  0  0  0  1  0  0  0  0  0  0
  1 14  1  0  0  0  0
  1  2  2  0  0  0  0
  2 19  1  0  0  0  0
  3  7  1  0  0  0  0
  4  1  1  0  0  0  0
  5 20  1  6  0  0  0
  5 18  1  0  0  0  0
  6 13  2  0  0  0  0
  6  9  1  0  0  0  0
  8  4  1  0  0  0  0
  8 15  1  0  0  0  0
  9  8  2  0  0  0  0
 10 11  1  1  0  0  0
 12  2  1  0  0  0  0
 12  5  1  0  0  0  0
 13 17  1  0  0  0  0
 14  3  2  0  0  0  0
 15 14  1  0  0  0  0
 16 10  1  0  0  0  0
 17  4  2  0  0  0  0
 18 16  1  0  0  0  0
 19  7  2  0  0  0  0
 19 10  1  0  0  0  0
 21 22  1  6  0  0  0
 21 20  1  0  0  0  0
 21 23  1  0  0  0  0
 23 24  2  0  0  0  0
 23 25  1  0  0  0  0
M  END
>  <MODEL>
9

>  <REMARK>
 VINA RESULT:      -7.8      2.140      5.393
  Name = 
  3 active torsions:
  status: ('A' for Active; 'I' for Inactive)
    1  A    between atoms: C_2  and  C_21
    2  A    between atoms: C_6  and  C_15
    3  A    between atoms: C_15  and  C_21
                            x       y       z     vdW  Elec       q    Type
                         _______ _______ _______ _____ _____    ______ ____

>  <TORSDO>
F 3

$$$$
