=
 OpenBabel11052416583D

 32 35  0  0  1  0  0  0  0  0999 V2000
  182.9910  179.1120  143.7290 C   0  0  0  0  0  0  0  0  0  0  0  0
  187.6280  177.1830  143.8680 C   0  0  0  0  0  0  0  0  0  0  0  0
  185.4570  178.0200  144.4960 C   0  0  0  0  0  0  0  0  0  0  0  0
  186.1240  177.9850  142.1900 N   0  0  0  0  0  0  0  0  0  0  0  0
  183.9540  178.8130  142.7580 C   0  0  0  0  0  3  0  0  0  0  0  0
  187.3320  177.4500  142.5260 C   0  0  0  0  0  0  0  0  0  0  0  0
  188.3630  177.1970  141.5000 C   0  0  0  0  0  0  0  0  0  0  0  0
  189.7400  176.0590  143.2360 C   0  0  2  0  0  3  0  0  0  0  0  0
  183.2690  178.8640  145.0840 C   0  0  0  0  0  3  0  0  0  0  0  0
  185.1850  178.2680  143.1330 C   0  0  0  0  0  0  0  0  0  0  0  0
  184.4990  178.3190  145.4660 C   0  0  0  0  0  3  0  0  0  0  0  0
  190.5120  176.3410  140.8400 N   0  0  0  0  0  1  0  0  0  0  0  0
  189.5260  176.6070  141.8400 C   0  0  0  0  0  0  0  0  0  0  0  0
  186.6890  177.4760  144.8570 C   0  0  0  0  0  3  0  0  0  0  0  0
  188.8690  176.6480  144.2090 O   0  0  0  0  0  0  0  0  0  0  0  0
  180.6620  178.9300  142.9640 C   0  0  0  0  0  3  0  0  0  0  0  0
  181.7070  179.6820  143.2970 C   0  0  0  0  0  3  0  0  0  0  0  0
  178.9310  178.8480  140.7690 C   0  0  0  0  0  1  0  0  0  0  0  0
  179.0700  179.6780  142.4300 P   0  0  2  0  0  0  0  0  0  0  0  0
  179.7390  181.1670  141.8400 O   0  0  0  0  0  1  0  0  0  0  0  0
  188.1070  177.6150  140.0810 C   0  0  0  0  0  2  0  0  0  0  0  0
  189.0830  178.7010  139.6500 C   0  0  0  0  0  2  0  0  0  0  0  0
  188.7480  179.1720  138.3800 O   0  0  0  0  0  1  0  0  0  0  0  0
  191.1850  176.2310  143.6830 C   0  0  0  0  0  2  0  0  0  0  0  0
  191.2410  177.0680  144.8780 N   0  0  0  0  0  0  0  0  0  0  0  0
  191.2640  179.4740  144.3030 C   0  0  1  0  0  3  0  0  0  0  0  0
  189.9020  179.2180  144.3310 F   0  0  0  0  0  0  0  0  0  0  0  0
  192.0920  178.2250  144.6030 C   0  0  2  0  0  3  0  0  0  0  0  0
  191.8950  178.6930  143.1720 C   0  0  0  0  0  2  0  0  0  0  0  0
  191.8010  176.2910  145.9910 C   0  0  0  0  0  2  0  0  0  0  0  0
  191.3550  176.9530  147.6410 S   0  0  0  0  0  0  0  0  0  0  0  0
  189.5820  176.8500  147.2750 C   0  0  0  0  0  1  0  0  0  0  0  0
  1  9  1  0  0  0  0
  2 15  1  0  0  0  0
  2 14  1  0  0  0  0
  3 14  2  0  0  0  0
  3 11  1  0  0  0  0
  4  6  1  0  0  0  0
  4 10  2  0  0  0  0
  5 10  1  0  0  0  0
  5  1  2  0  0  0  0
  6  2  2  0  0  0  0
  7 13  2  0  0  0  0
  7  6  1  0  0  0  0
  8 24  1  1  0  0  0
  8 15  1  0  0  0  0
  9 11  2  0  0  0  0
 10  3  1  0  0  0  0
 12 13  1  0  0  0  0
 13  8  1  0  0  0  0
 16 17  2  0  0  0  0
 17  1  1  0  0  0  0
 19 18  1  6  0  0  0
 19 16  1  0  0  0  0
 20 19  1  0  0  0  0
 21  7  1  0  0  0  0
 22 21  1  0  0  0  0
 23 22  1  0  0  0  0
 24 25  1  0  0  0  0
 25 30  1  0  0  0  0
 26 27  1  6  0  0  0
 26 28  1  0  0  0  0
 28 25  1  6  0  0  0
 29 26  1  0  0  0  0
 29 28  1  0  0  0  0
 30 31  1  0  0  0  0
 32 31  1  0  0  0  0
M  END
>  <MODEL>
1

>  <REMARK>
 VINA RESULT:      -7.4      0.000      0.000
  Name = 
  9 active torsions:
  status: ('A' for Active; 'I' for Inactive)
    1  A    between atoms: C_2  and  C_24
    2  A    between atoms: C_4  and  C_13
    3  A    between atoms: S_6  and  C_7
    4  A    between atoms: C_7  and  N_32
    5  A    between atoms: C_10  and  P_17
    6  A    between atoms: C_13  and  C_15
    7  A    between atoms: C_16  and  C_27
    8  A    between atoms: C_22  and  N_32
    9  A    between atoms: C_27  and  N_32
                            x       y       z     vdW  Elec       q    Type
                         _______ _______ _______ _____ _____    ______ ____

>  <TORSDO>
F 9

$$$$
=
 OpenBabel11052416583D

 32 35  0  0  1  0  0  0  0  0999 V2000
  182.3070  178.7530  141.8490 C   0  0  0  0  0  0  0  0  0  0  0  0
  186.6320  178.0020  144.2940 C   0  0  0  0  0  0  0  0  0  0  0  0
  184.3390  178.5240  143.7690 C   0  0  0  0  0  0  0  0  0  0  0  0
  185.8600  177.8620  142.0340 N   0  0  0  0  0  0  0  0  0  0  0  0
  183.5930  178.3570  141.4610 C   0  0  0  0  0  3  0  0  0  0  0  0
  186.8710  177.7370  142.9400 C   0  0  0  0  0  0  0  0  0  0  0  0
  188.2380  177.3790  142.5110 C   0  0  0  0  0  0  0  0  0  0  0  0
  188.8920  177.2030  144.9080 C   0  0  2  0  0  3  0  0  0  0  0  0
  182.0450  179.0360  143.2010 C   0  0  0  0  0  3  0  0  0  0  0  0
  184.6100  178.2400  142.4130 C   0  0  0  0  0  0  0  0  0  0  0  0
  183.0580  178.9220  144.1570 C   0  0  0  0  0  3  0  0  0  0  0  0
  190.5240  176.8240  143.0080 N   0  0  0  0  0  1  0  0  0  0  0  0
  189.2090  177.1940  143.4270 C   0  0  0  0  0  0  0  0  0  0  0  0
  185.3620  178.4040  144.7080 C   0  0  0  0  0  3  0  0  0  0  0  0
  187.6710  177.8850  145.2160 O   0  0  0  0  0  0  0  0  0  0  0  0
  180.3620  179.8420  140.8130 C   0  0  0  0  0  3  0  0  0  0  0  0
  181.2620  178.8630  140.8220 C   0  0  0  0  0  3  0  0  0  0  0  0
  180.1150  179.4290  138.0570 C   0  0  0  0  0  1  0  0  0  0  0  0
  179.0700  179.9470  139.5100 P   0  0  2  0  0  0  0  0  0  0  0  0
  179.2030  181.6550  139.2360 O   0  0  0  0  0  1  0  0  0  0  0  0
  188.5340  177.2360  141.0460 C   0  0  0  0  0  2  0  0  0  0  0  0
  188.6340  178.5990  140.3760 C   0  0  0  0  0  2  0  0  0  0  0  0
  187.7920  178.6510  139.2640 O   0  0  0  0  0  1  0  0  0  0  0  0
  190.0290  177.8130  145.7150 C   0  0  0  0  0  2  0  0  0  0  0  0
  190.1380  177.1440  147.0070 N   0  0  0  0  0  0  0  0  0  0  0  0
  192.0460  175.7080  147.6560 C   0  0  1  0  0  3  0  0  0  0  0  0
  192.3130  176.8560  148.3850 F   0  0  0  0  0  0  0  0  0  0  0  0
  190.7780  175.8430  146.8120 C   0  0  2  0  0  3  0  0  0  0  0  0
  192.1470  176.0220  146.1790 C   0  0  0  0  0  2  0  0  0  0  0  0
  188.7960  176.9580  147.5750 C   0  0  0  0  0  2  0  0  0  0  0  0
  188.3570  178.2110  148.8380 S   0  0  0  0  0  0  0  0  0  0  0  0
  186.7730  178.5660  148.0290 C   0  0  0  0  0  1  0  0  0  0  0  0
  1  9  1  0  0  0  0
  2 14  1  0  0  0  0
  2 15  1  0  0  0  0
  3 11  1  0  0  0  0
  3 14  2  0  0  0  0
  4 10  2  0  0  0  0
  4  6  1  0  0  0  0
  5  1  2  0  0  0  0
  5 10  1  0  0  0  0
  6  2  2  0  0  0  0
  7  6  1  0  0  0  0
  7 13  2  0  0  0  0
  8 15  1  0  0  0  0
  8 24  1  1  0  0  0
  9 11  2  0  0  0  0
 10  3  1  0  0  0  0
 12 13  1  0  0  0  0
 13  8  1  0  0  0  0
 16 17  2  0  0  0  0
 17  1  1  0  0  0  0
 19 18  1  6  0  0  0
 19 16  1  0  0  0  0
 20 19  1  0  0  0  0
 21  7  1  0  0  0  0
 22 21  1  0  0  0  0
 23 22  1  0  0  0  0
 24 25  1  0  0  0  0
 25 30  1  0  0  0  0
 26 27  1  1  0  0  0
 28 25  1  1  0  0  0
 28 26  1  0  0  0  0
 29 28  1  0  0  0  0
 29 26  1  0  0  0  0
 30 31  1  0  0  0  0
 32 31  1  0  0  0  0
M  END
>  <MODEL>
2

>  <REMARK>
 VINA RESULT:      -7.3      1.977      2.587
  Name = 
  9 active torsions:
  status: ('A' for Active; 'I' for Inactive)
    1  A    between atoms: C_2  and  C_24
    2  A    between atoms: C_4  and  C_13
    3  A    between atoms: S_6  and  C_7
    4  A    between atoms: C_7  and  N_32
    5  A    between atoms: C_10  and  P_17
    6  A    between atoms: C_13  and  C_15
    7  A    between atoms: C_16  and  C_27
    8  A    between atoms: C_22  and  N_32
    9  A    between atoms: C_27  and  N_32
                            x       y       z     vdW  Elec       q    Type
                         _______ _______ _______ _____ _____    ______ ____

>  <TORSDO>
F 9

$$$$
=
 OpenBabel11052416583D

 32 35  0  0  1  0  0  0  0  0999 V2000
  181.8740  178.7370  141.5240 C   0  0  0  0  0  0  0  0  0  0  0  0
  186.0870  178.2440  144.2170 C   0  0  0  0  0  0  0  0  0  0  0  0
  183.8120  178.6760  143.5500 C   0  0  0  0  0  0  0  0  0  0  0  0
  185.4310  177.9460  141.9360 N   0  0  0  0  0  0  0  0  0  0  0  0
  183.1850  178.3490  141.2250 C   0  0  0  0  0  3  0  0  0  0  0  0
  186.3990  177.9020  142.8960 C   0  0  0  0  0  0  0  0  0  0  0  0
  187.7920  177.5510  142.5560 C   0  0  0  0  0  0  0  0  0  0  0  0
  188.3300  177.5390  144.9880 C   0  0  2  0  0  3  0  0  0  0  0  0
  181.5390  179.0970  142.8420 C   0  0  0  0  0  3  0  0  0  0  0  0
  184.1560  178.3160  142.2290 C   0  0  0  0  0  0  0  0  0  0  0  0
  182.5060  179.0660  143.8510 C   0  0  0  0  0  3  0  0  0  0  0  0
  190.0630  177.0840  143.1970 N   0  0  0  0  0  1  0  0  0  0  0  0
  188.7210  177.4470  143.5270 C   0  0  0  0  0  0  0  0  0  0  0  0
  184.7900  178.6400  144.5430 C   0  0  0  0  0  3  0  0  0  0  0  0
  187.0820  178.2090  145.1930 O   0  0  0  0  0  0  0  0  0  0  0  0
  181.1900  179.0550  139.1850 C   0  0  0  0  0  3  0  0  0  0  0  0
  180.8790  178.7580  140.4430 C   0  0  0  0  0  3  0  0  0  0  0  0
  180.8190  180.1500  136.6380 C   0  0  0  0  0  1  0  0  0  0  0  0
  179.9180  179.0690  137.8580 P   0  0  2  0  0  0  0  0  0  0  0  0
  178.9380  180.3290  138.5360 O   0  0  0  0  0  1  0  0  0  0  0  0
  188.1640  177.3250  141.1190 C   0  0  0  0  0  2  0  0  0  0  0  0
  188.4230  178.6460  140.4100 C   0  0  0  0  0  2  0  0  0  0  0  0
  187.7760  178.6640  139.1740 O   0  0  0  0  0  1  0  0  0  0  0  0
  189.4130  178.2260  145.8080 C   0  0  0  0  0  2  0  0  0  0  0  0
  189.8890  177.3280  146.8560 N   0  0  0  0  0  0  0  0  0  0  0  0
  188.3390  177.3320  148.7840 C   0  0  1  0  0  3  0  0  0  0  0  0
  187.7440  176.3880  147.9640 F   0  0  0  0  0  0  0  0  0  0  0  0
  189.6000  177.9270  148.1580 C   0  0  2  0  0  3  0  0  0  0  0  0
  188.2850  178.6850  148.1070 C   0  0  0  0  0  2  0  0  0  0  0  0
  191.3370  177.1320  146.7090 C   0  0  0  0  0  2  0  0  0  0  0  0
  191.8520  175.3760  146.8170 S   0  0  0  0  0  0  0  0  0  0  0  0
  192.8460  175.6920  148.3010 C   0  0  0  0  0  1  0  0  0  0  0  0
  1  9  1  0  0  0  0
  2 14  1  0  0  0  0
  2 15  1  0  0  0  0
  3 11  1  0  0  0  0
  3 14  2  0  0  0  0
  4 10  2  0  0  0  0
  4  6  1  0  0  0  0
  5  1  2  0  0  0  0
  5 10  1  0  0  0  0
  6  2  2  0  0  0  0
  7  6  1  0  0  0  0
  7 13  2  0  0  0  0
  8 15  1  0  0  0  0
  8 24  1  1  0  0  0
  9 11  2  0  0  0  0
 10  3  1  0  0  0  0
 12 13  1  0  0  0  0
 13  8  1  0  0  0  0
 16 17  2  0  0  0  0
 17  1  1  0  0  0  0
 19 18  1  6  0  0  0
 19 20  1  0  0  0  0
 19 16  1  0  0  0  0
 21  7  1  0  0  0  0
 22 21  1  0  0  0  0
 23 22  1  0  0  0  0
 24 25  1  0  0  0  0
 26 27  1  6  0  0  0
 28 25  1  6  0  0  0
 28 26  1  0  0  0  0
 29 28  1  0  0  0  0
 29 26  1  0  0  0  0
 30 31  1  0  0  0  0
 30 25  1  0  0  0  0
 31 32  1  0  0  0  0
M  END
>  <MODEL>
3

>  <REMARK>
 VINA RESULT:      -7.0      2.212      3.075
  Name = 
  9 active torsions:
  status: ('A' for Active; 'I' for Inactive)
    1  A    between atoms: C_2  and  C_24
    2  A    between atoms: C_4  and  C_13
    3  A    between atoms: S_6  and  C_7
    4  A    between atoms: C_7  and  N_32
    5  A    between atoms: C_10  and  P_17
    6  A    between atoms: C_13  and  C_15
    7  A    between atoms: C_16  and  C_27
    8  A    between atoms: C_22  and  N_32
    9  A    between atoms: C_27  and  N_32
                            x       y       z     vdW  Elec       q    Type
                         _______ _______ _______ _____ _____    ______ ____

>  <TORSDO>
F 9

$$$$
=
 OpenBabel11052416583D

 32 35  0  0  1  0  0  0  0  0999 V2000
  192.0920  176.0490  137.1140 C   0  0  0  0  0  0  0  0  0  0  0  0
  188.2970  177.7930  139.9080 C   0  0  0  0  0  0  0  0  0  0  0  0
  189.6990  177.1750  138.0480 C   0  0  0  0  0  0  0  0  0  0  0  0
  190.4250  176.7730  140.3000 N   0  0  0  0  0  0  0  0  0  0  0  0
  191.8480  176.1290  138.4900 C   0  0  0  0  0  3  0  0  0  0  0  0
  189.2720  177.3110  140.7900 C   0  0  0  0  0  0  0  0  0  0  0  0
  189.0530  177.4470  142.2440 C   0  0  0  0  0  0  0  0  0  0  0  0
  186.7190  178.1780  141.7740 C   0  0  2  0  0  3  0  0  0  0  0  0
  191.1340  176.5370  136.2090 C   0  0  0  0  0  3  0  0  0  0  0  0
  190.6580  176.6880  138.9620 C   0  0  0  0  0  0  0  0  0  0  0  0
  189.9410  177.0980  136.6740 C   0  0  0  0  0  3  0  0  0  0  0  0
  187.6640  178.0260  144.1190 N   0  0  0  0  0  1  0  0  0  0  0  0
  187.8810  177.9190  142.7110 C   0  0  0  0  0  0  0  0  0  0  0  0
  188.5160  177.7320  138.5310 C   0  0  0  0  0  3  0  0  0  0  0  0
  187.1250  178.3540  140.4120 O   0  0  0  0  0  0  0  0  0  0  0  0
  194.2540  174.9420  137.4890 C   0  0  0  0  0  3  0  0  0  0  0  0
  193.3530  175.4520  136.6540 C   0  0  0  0  0  3  0  0  0  0  0  0
  196.7190  174.0950  138.5050 C   0  0  0  0  0  1  0  0  0  0  0  0
  195.8210  174.2010  136.8760 P   0  0  2  0  0  0  0  0  0  0  0  0
  196.5530  175.6870  136.3560 O   0  0  0  0  0  1  0  0  0  0  0  0
  190.1540  177.0660  143.1910 C   0  0  0  0  0  2  0  0  0  0  0  0
  191.2450  178.1270  143.2120 C   0  0  0  0  0  2  0  0  0  0  0  0
  190.9110  179.1420  144.1090 O   0  0  0  0  0  1  0  0  0  0  0  0
  185.9070  179.3860  142.2190 C   0  0  0  0  0  2  0  0  0  0  0  0
  184.5070  179.0090  142.3910 N   0  0  0  0  0  0  0  0  0  0  0  0
  183.0710  178.8030  144.3960 C   0  0  1  0  0  3  0  0  0  0  0  0
  182.3700  179.7440  143.6590 F   0  0  0  0  0  0  0  0  0  0  0  0
  184.3510  178.3550  143.6910 C   0  0  2  0  0  3  0  0  0  0  0  0
  184.4060  179.3850  144.8060 C   0  0  0  0  0  2  0  0  0  0  0  0
  184.1150  178.0850  141.3190 C   0  0  0  0  0  2  0  0  0  0  0  0
  182.6940  178.6780  140.3260 S   0  0  0  0  0  0  0  0  0  0  0  0
  183.7820  179.5680  139.1800 C   0  0  0  0  0  1  0  0  0  0  0  0
  1  5  1  0  0  0  0
  2 15  1  0  0  0  0
  2  6  1  0  0  0  0
  3 14  1  0  0  0  0
  3 10  1  0  0  0  0
  4  6  2  0  0  0  0
  5 10  2  0  0  0  0
  6  7  1  0  0  0  0
  7 13  2  0  0  0  0
  7 21  1  0  0  0  0
  8 24  1  1  0  0  0
  8 13  1  0  0  0  0
  9 11  1  0  0  0  0
  9  1  2  0  0  0  0
 10  4  1  0  0  0  0
 11  3  2  0  0  0  0
 13 12  1  0  0  0  0
 14  2  2  0  0  0  0
 15  8  1  0  0  0  0
 17  1  1  0  0  0  0
 17 16  2  0  0  0  0
 19 16  1  0  0  0  0
 19 18  1  1  0  0  0
 20 19  1  0  0  0  0
 21 22  1  0  0  0  0
 22 23  1  0  0  0  0
 24 25  1  0  0  0  0
 26 27  1  6  0  0  0
 26 29  1  0  0  0  0
 28 25  1  6  0  0  0
 28 26  1  0  0  0  0
 28 29  1  0  0  0  0
 30 25  1  0  0  0  0
 31 30  1  0  0  0  0
 32 31  1  0  0  0  0
M  END
>  <MODEL>
4

>  <REMARK>
 VINA RESULT:      -6.9      5.284      9.571
  Name = 
  9 active torsions:
  status: ('A' for Active; 'I' for Inactive)
    1  A    between atoms: C_2  and  C_24
    2  A    between atoms: C_4  and  C_13
    3  A    between atoms: S_6  and  C_7
    4  A    between atoms: C_7  and  N_32
    5  A    between atoms: C_10  and  P_17
    6  A    between atoms: C_13  and  C_15
    7  A    between atoms: C_16  and  C_27
    8  A    between atoms: C_22  and  N_32
    9  A    between atoms: C_27  and  N_32
                            x       y       z     vdW  Elec       q    Type
                         _______ _______ _______ _____ _____    ______ ____

>  <TORSDO>
F 9

$$$$
=
 OpenBabel11052416583D

 32 35  0  0  1  0  0  0  0  0999 V2000
  187.9760  177.8630  144.1360 C   0  0  0  0  0  0  0  0  0  0  0  0
  183.5730  178.6630  141.8510 C   0  0  0  0  0  0  0  0  0  0  0  0
  185.2700  178.2590  143.5140 C   0  0  0  0  0  0  0  0  0  0  0  0
  185.8640  178.4550  141.1960 N   0  0  0  0  0  0  0  0  0  0  0  0
  187.5880  178.0670  142.8060 C   0  0  0  0  0  3  0  0  0  0  0  0
  184.5590  178.6530  140.8570 C   0  0  0  0  0  0  0  0  0  0  0  0
  184.1540  178.8040  139.4450 C   0  0  0  0  0  0  0  0  0  0  0  0
  181.8510  179.3570  140.2160 C   0  0  2  0  0  3  0  0  0  0  0  0
  187.0030  177.8570  145.1510 C   0  0  0  0  0  3  0  0  0  0  0  0
  186.2410  178.2650  142.4890 C   0  0  0  0  0  0  0  0  0  0  0  0
  185.6550  178.0540  144.8410 C   0  0  0  0  0  3  0  0  0  0  0  0
  182.4860  179.2350  137.7670 N   0  0  0  0  0  1  0  0  0  0  0  0
  182.8690  179.0660  139.1330 C   0  0  0  0  0  0  0  0  0  0  0  0
  183.9300  178.4570  143.1840 C   0  0  0  0  0  3  0  0  0  0  0  0
  182.2380  178.8540  141.5000 O   0  0  0  0  0  0  0  0  0  0  0  0
  189.8250  177.0110  145.5130 C   0  0  0  0  0  3  0  0  0  0  0  0
  189.4000  177.6610  144.4330 C   0  0  0  0  0  3  0  0  0  0  0  0
  191.8910  175.2690  144.7900 C   0  0  0  0  0  1  0  0  0  0  0  0
  191.6170  176.7760  145.8500 P   0  0  2  0  0  0  0  0  0  0  0  0
  191.4260  175.9190  147.3470 O   0  0  0  0  0  1  0  0  0  0  0  0
  185.1840  178.6500  138.3640 C   0  0  0  0  0  2  0  0  0  0  0  0
  185.2040  177.2240  137.8320 C   0  0  0  0  0  2  0  0  0  0  0  0
  185.1040  177.2300  136.4400 O   0  0  0  0  0  1  0  0  0  0  0  0
  180.4800  178.8060  139.8500 C   0  0  0  0  0  2  0  0  0  0  0  0
  180.1100  177.7380  140.7730 N   0  0  0  0  0  0  0  0  0  0  0  0
  180.7050  175.5870  139.7040 C   0  0  1  0  0  3  0  0  0  0  0  0
  181.9330  175.9870  140.2040 F   0  0  0  0  0  0  0  0  0  0  0  0
  179.6020  176.6030  140.0020 C   0  0  2  0  0  3  0  0  0  0  0  0
  180.2610  176.5610  138.6340 C   0  0  0  0  0  2  0  0  0  0  0  0
  179.0690  178.2230  141.6880 C   0  0  0  0  0  2  0  0  0  0  0  0
  179.6800  178.5420  143.3860 S   0  0  0  0  0  0  0  0  0  0  0  0
  179.5170  180.3370  143.1770 C   0  0  0  0  0  1  0  0  0  0  0  0
  1 17  1  0  0  0  0
  1  9  1  0  0  0  0
  2 14  1  0  0  0  0
  3 11  1  0  0  0  0
  4 10  2  0  0  0  0
  5  1  2  0  0  0  0
  6  4  1  0  0  0  0
  6  2  2  0  0  0  0
  7  6  1  0  0  0  0
  8 24  1  6  0  0  0
  8 15  1  0  0  0  0
 10  5  1  0  0  0  0
 10  3  1  0  0  0  0
 11  9  2  0  0  0  0
 12 13  1  0  0  0  0
 13  7  2  0  0  0  0
 13  8  1  0  0  0  0
 14  3  2  0  0  0  0
 15  2  1  0  0  0  0
 16 19  1  0  0  0  0
 17 16  2  0  0  0  0
 19 18  1  6  0  0  0
 19 20  1  0  0  0  0
 21  7  1  0  0  0  0
 22 21  1  0  0  0  0
 23 22  1  0  0  0  0
 24 25  1  0  0  0  0
 25 30  1  0  0  0  0
 26 28  1  0  0  0  0
 26 27  1  1  0  0  0
 28 25  1  1  0  0  0
 29 26  1  0  0  0  0
 29 28  1  0  0  0  0
 30 31  1  0  0  0  0
 32 31  1  0  0  0  0
M  END
>  <MODEL>
5

>  <REMARK>
 VINA RESULT:      -6.6      4.568      8.872
  Name = 
  9 active torsions:
  status: ('A' for Active; 'I' for Inactive)
    1  A    between atoms: C_2  and  C_24
    2  A    between atoms: C_4  and  C_13
    3  A    between atoms: S_6  and  C_7
    4  A    between atoms: C_7  and  N_32
    5  A    between atoms: C_10  and  P_17
    6  A    between atoms: C_13  and  C_15
    7  A    between atoms: C_16  and  C_27
    8  A    between atoms: C_22  and  N_32
    9  A    between atoms: C_27  and  N_32
                            x       y       z     vdW  Elec       q    Type
                         _______ _______ _______ _____ _____    ______ ____

>  <TORSDO>
F 9

$$$$
=
 OpenBabel11052416583D

 32 35  0  0  1  0  0  0  0  0999 V2000
  187.1100  177.8730  144.3220 C   0  0  0  0  0  0  0  0  0  0  0  0
  183.8340  179.0140  140.6880 C   0  0  0  0  0  0  0  0  0  0  0  0
  185.8540  178.4850  141.8910 C   0  0  0  0  0  0  0  0  0  0  0  0
  183.7590  178.6470  143.0500 N   0  0  0  0  0  0  0  0  0  0  0  0
  185.7300  178.1070  144.2890 C   0  0  0  0  0  3  0  0  0  0  0  0
  183.1140  178.9440  141.8860 C   0  0  0  0  0  0  0  0  0  0  0  0
  181.6700  179.2510  141.8730 C   0  0  0  0  0  0  0  0  0  0  0  0
  181.7480  179.2760  139.3830 C   0  0  2  0  0  3  0  0  0  0  0  0
  187.8580  177.9490  143.1340 C   0  0  0  0  0  3  0  0  0  0  0  0
  185.0980  178.4120  143.0810 C   0  0  0  0  0  0  0  0  0  0  0  0
  187.2310  178.2540  141.9220 C   0  0  0  0  0  3  0  0  0  0  0  0
  179.6330  179.7490  140.6940 N   0  0  0  0  0  1  0  0  0  0  0  0
  181.0360  179.4760  140.7050 C   0  0  0  0  0  0  0  0  0  0  0  0
  185.2120  178.7910  140.6920 C   0  0  0  0  0  3  0  0  0  0  0  0
  183.1740  179.3300  139.5010 O   0  0  0  0  0  0  0  0  0  0  0  0
  189.0020  177.1430  145.7110 C   0  0  0  0  0  3  0  0  0  0  0  0
  187.7410  177.5530  145.6100 C   0  0  0  0  0  3  0  0  0  0  0  0
  189.0930  178.2060  148.2970 C   0  0  0  0  0  1  0  0  0  0  0  0
  189.7580  176.7530  147.3410 P   0  0  2  0  0  0  0  0  0  0  0  0
  191.3150  177.4440  147.0080 O   0  0  0  0  0  1  0  0  0  0  0  0
  180.9210  179.3200  143.1720 C   0  0  0  0  0  2  0  0  0  0  0  0
  180.0960  178.0600  143.3920 C   0  0  0  0  0  2  0  0  0  0  0  0
  179.2110  178.2440  144.4550 O   0  0  0  0  0  1  0  0  0  0  0  0
  181.2890  180.2910  138.3470 C   0  0  0  0  0  2  0  0  0  0  0  0
  181.0180  179.6220  137.0790 N   0  0  0  0  0  0  0  0  0  0  0  0
  179.8520  180.8990  135.3090 C   0  0  1  0  0  3  0  0  0  0  0  0
  181.1760  181.0740  134.9390 F   0  0  0  0  0  0  0  0  0  0  0  0
  179.7150  180.0620  136.5810 C   0  0  2  0  0  3  0  0  0  0  0  0
  179.6150  181.5760  136.6420 C   0  0  0  0  0  2  0  0  0  0  0  0
  181.0050  178.1680  137.2880 C   0  0  0  0  0  2  0  0  0  0  0  0
  182.0890  177.2530  136.1280 S   0  0  0  0  0  0  0  0  0  0  0  0
  182.8200  176.2820  137.4750 C   0  0  0  0  0  1  0  0  0  0  0  0
  1 17  1  0  0  0  0
  2 14  2  0  0  0  0
  2  6  1  0  0  0  0
  3 11  2  0  0  0  0
  3 10  1  0  0  0  0
  4 10  1  0  0  0  0
  5  1  1  0  0  0  0
  6  4  2  0  0  0  0
  7  6  1  0  0  0  0
  7 21  1  0  0  0  0
  8 24  1  6  0  0  0
  8 15  1  0  0  0  0
  8 13  1  0  0  0  0
  9  1  2  0  0  0  0
 10  5  2  0  0  0  0
 11  9  1  0  0  0  0
 12 13  1  0  0  0  0
 13  7  2  0  0  0  0
 14  3  1  0  0  0  0
 15  2  1  0  0  0  0
 16 19  1  0  0  0  0
 17 16  2  0  0  0  0
 19 18  1  1  0  0  0
 20 19  1  0  0  0  0
 21 22  1  0  0  0  0
 22 23  1  0  0  0  0
 25 30  1  0  0  0  0
 25 24  1  0  0  0  0
 26 27  1  1  0  0  0
 26 28  1  0  0  0  0
 26 29  1  0  0  0  0
 28 29  1  0  0  0  0
 28 25  1  1  0  0  0
 31 30  1  0  0  0  0
 31 32  1  0  0  0  0
M  END
>  <MODEL>
6

>  <REMARK>
 VINA RESULT:      -6.5      5.238      9.901
  Name = 
  9 active torsions:
  status: ('A' for Active; 'I' for Inactive)
    1  A    between atoms: C_2  and  C_24
    2  A    between atoms: C_4  and  C_13
    3  A    between atoms: S_6  and  C_7
    4  A    between atoms: C_7  and  N_32
    5  A    between atoms: C_10  and  P_17
    6  A    between atoms: C_13  and  C_15
    7  A    between atoms: C_16  and  C_27
    8  A    between atoms: C_22  and  N_32
    9  A    between atoms: C_27  and  N_32
                            x       y       z     vdW  Elec       q    Type
                         _______ _______ _______ _____ _____    ______ ____

>  <TORSDO>
F 9

$$$$
=
 OpenBabel11052416583D

 32 35  0  0  1  0  0  0  0  0999 V2000
  189.2980  177.4010  144.3640 C   0  0  0  0  0  0  0  0  0  0  0  0
  185.7480  178.7320  141.0670 C   0  0  0  0  0  0  0  0  0  0  0  0
  187.8660  178.2230  142.0970 C   0  0  0  0  0  0  0  0  0  0  0  0
  185.8310  178.0450  143.3560 N   0  0  0  0  0  0  0  0  0  0  0  0
  187.9040  177.5170  144.4230 C   0  0  0  0  0  3  0  0  0  0  0  0
  185.1020  178.4390  142.2730 C   0  0  0  0  0  0  0  0  0  0  0  0
  183.6390  178.6180  142.3650 C   0  0  0  0  0  0  0  0  0  0  0  0
  183.5800  178.9840  139.9020 C   0  0  2  0  0  3  0  0  0  0  0  0
  189.9710  177.7010  143.1670 C   0  0  0  0  0  3  0  0  0  0  0  0
  187.1840  177.9260  143.2970 C   0  0  0  0  0  0  0  0  0  0  0  0
  189.2570  178.1100  142.0370 C   0  0  0  0  0  3  0  0  0  0  0  0
  181.5080  179.0910  141.3550 N   0  0  0  0  0  1  0  0  0  0  0  0
  182.9270  178.9430  141.2680 C   0  0  0  0  0  0  0  0  0  0  0  0
  187.1370  178.6300  140.9810 C   0  0  0  0  0  3  0  0  0  0  0  0
  185.0010  179.1460  139.9650 O   0  0  0  0  0  0  0  0  0  0  0  0
  191.2830  176.5480  145.5350 C   0  0  0  0  0  3  0  0  0  0  0  0
  190.0210  176.9660  145.5670 C   0  0  0  0  0  3  0  0  0  0  0  0
  190.8540  174.8560  147.7210 C   0  0  0  0  0  1  0  0  0  0  0  0
  192.1570  176.0130  147.0620 P   0  0  2  0  0  0  0  0  0  0  0  0
  191.7070  177.3760  148.0360 O   0  0  0  0  0  1  0  0  0  0  0  0
  182.9590  178.4470  143.6920 C   0  0  0  0  0  2  0  0  0  0  0  0
  183.3630  179.5530  144.6570 C   0  0  0  0  0  2  0  0  0  0  0  0
  183.8070  179.0030  145.8600 O   0  0  0  0  0  1  0  0  0  0  0  0
  182.9850  180.0860  139.0370 C   0  0  0  0  0  2  0  0  0  0  0  0
  182.1940  179.5010  137.9580 N   0  0  0  0  0  0  0  0  0  0  0  0
  180.2190  180.7370  137.1250 C   0  0  1  0  0  3  0  0  0  0  0  0
  181.1800  181.1110  136.2000 F   0  0  0  0  0  0  0  0  0  0  0  0
  180.7810  179.8000  138.1930 C   0  0  2  0  0  3  0  0  0  0  0  0
  180.5990  181.2790  138.4850 C   0  0  0  0  0  2  0  0  0  0  0  0
  182.3990  178.0470  137.9380 C   0  0  0  0  0  2  0  0  0  0  0  0
  180.8400  177.0880  138.0380 S   0  0  0  0  0  0  0  0  0  0  0  0
  181.5160  175.9990  139.3210 C   0  0  0  0  0  1  0  0  0  0  0  0
  1  5  1  0  0  0  0
  1 17  1  0  0  0  0
  2  6  1  0  0  0  0
  3 10  1  0  0  0  0
  6  7  1  0  0  0  0
  6  4  2  0  0  0  0
  7 21  1  0  0  0  0
  8 24  1  6  0  0  0
  8 15  1  0  0  0  0
  8 13  1  0  0  0  0
  9  1  2  0  0  0  0
 10  4  1  0  0  0  0
 10  5  2  0  0  0  0
 11  3  2  0  0  0  0
 11  9  1  0  0  0  0
 13 12  1  0  0  0  0
 13  7  2  0  0  0  0
 14  2  2  0  0  0  0
 14  3  1  0  0  0  0
 15  2  1  0  0  0  0
 16 17  2  0  0  0  0
 16 19  1  0  0  0  0
 19 18  1  1  0  0  0
 19 20  1  0  0  0  0
 21 22  1  0  0  0  0
 22 23  1  0  0  0  0
 25 24  1  0  0  0  0
 26 27  1  6  0  0  0
 26 28  1  0  0  0  0
 26 29  1  0  0  0  0
 28 25  1  6  0  0  0
 28 29  1  0  0  0  0
 30 25  1  0  0  0  0
 30 31  1  0  0  0  0
 31 32  1  0  0  0  0
M  END
>  <MODEL>
7

>  <REMARK>
 VINA RESULT:      -6.4      5.084      9.407
  Name = 
  9 active torsions:
  status: ('A' for Active; 'I' for Inactive)
    1  A    between atoms: C_2  and  C_24
    2  A    between atoms: C_4  and  C_13
    3  A    between atoms: S_6  and  C_7
    4  A    between atoms: C_7  and  N_32
    5  A    between atoms: C_10  and  P_17
    6  A    between atoms: C_13  and  C_15
    7  A    between atoms: C_16  and  C_27
    8  A    between atoms: C_22  and  N_32
    9  A    between atoms: C_27  and  N_32
                            x       y       z     vdW  Elec       q    Type
                         _______ _______ _______ _____ _____    ______ ____

>  <TORSDO>
F 9

$$$$
=
 OpenBabel11052416583D

 32 35  0  0  1  0  0  0  0  0999 V2000
  183.2610  179.2360  139.1040 C   0  0  0  0  0  0  0  0  0  0  0  0
  186.9110  178.1580  142.3850 C   0  0  0  0  0  0  0  0  0  0  0  0
  185.6850  178.5860  140.3540 C   0  0  0  0  0  0  0  0  0  0  0  0
  184.5770  178.6750  142.4810 N   0  0  0  0  0  0  0  0  0  0  0  0
  183.3190  179.1200  140.4980 C   0  0  0  0  0  3  0  0  0  0  0  0
  185.7390  178.3630  143.1230 C   0  0  0  0  0  0  0  0  0  0  0  0
  185.7740  178.1810  144.5880 C   0  0  0  0  0  0  0  0  0  0  0  0
  188.2540  177.9960  144.4560 C   0  0  2  0  0  3  0  0  0  0  0  0
  184.4220  179.0240  138.3400 C   0  0  0  0  0  3  0  0  0  0  0  0
  184.5240  178.7960  141.1270 C   0  0  0  0  0  0  0  0  0  0  0  0
  185.6300  178.7000  138.9630 C   0  0  0  0  0  3  0  0  0  0  0  0
  186.9760  177.7870  146.6330 N   0  0  0  0  0  1  0  0  0  0  0  0
  186.9430  177.9390  145.2130 C   0  0  0  0  0  0  0  0  0  0  0  0
  186.8820  178.2630  140.9940 C   0  0  0  0  0  3  0  0  0  0  0  0
  188.0940  177.8270  143.0430 O   0  0  0  0  0  0  0  0  0  0  0  0
  181.5180  180.8270  138.4160 C   0  0  0  0  0  3  0  0  0  0  0  0
  181.9780  179.5810  138.4770 C   0  0  0  0  0  3  0  0  0  0  0  0
  180.4650  181.1550  135.8450 C   0  0  0  0  0  1  0  0  0  0  0  0
  179.9080  181.2210  137.6220 P   0  0  2  0  0  0  0  0  0  0  0  0
  180.0200  182.9440  137.7890 O   0  0  0  0  0  1  0  0  0  0  0  0
  184.4930  178.2560  145.3680 C   0  0  0  0  0  2  0  0  0  0  0  0
  183.5990  179.3680  144.8400 C   0  0  0  0  0  2  0  0  0  0  0  0
  182.3190  178.8750  144.5850 O   0  0  0  0  0  1  0  0  0  0  0  0
  189.2410  176.9610  144.9790 C   0  0  0  0  0  2  0  0  0  0  0  0
  190.6050  177.3640  144.6510 N   0  0  0  0  0  0  0  0  0  0  0  0
  191.6910  176.8100  142.4980 C   0  0  1  0  0  3  0  0  0  0  0  0
  191.3780  178.1460  142.3050 F   0  0  0  0  0  0  0  0  0  0  0  0
  191.2340  176.3030  143.8660 C   0  0  2  0  0  3  0  0  0  0  0  0
  190.4120  176.0120  142.6230 C   0  0  0  0  0  2  0  0  0  0  0  0
  191.3610  177.5790  145.8920 C   0  0  0  0  0  2  0  0  0  0  0  0
  190.6390  176.7260  147.3450 S   0  0  0  0  0  0  0  0  0  0  0  0
  192.0770  175.6300  147.4970 C   0  0  0  0  0  1  0  0  0  0  0  0
  1  5  1  0  0  0  0
  2 15  1  0  0  0  0
  2  6  1  0  0  0  0
  3 14  1  0  0  0  0
  3 10  1  0  0  0  0
  4  6  2  0  0  0  0
  5 10  2  0  0  0  0
  6  7  1  0  0  0  0
  7 13  2  0  0  0  0
  7 21  1  0  0  0  0
  8 24  1  1  0  0  0
  8 13  1  0  0  0  0
  9 11  1  0  0  0  0
  9  1  2  0  0  0  0
 10  4  1  0  0  0  0
 11  3  2  0  0  0  0
 13 12  1  0  0  0  0
 14  2  2  0  0  0  0
 15  8  1  0  0  0  0
 16 17  2  0  0  0  0
 17  1  1  0  0  0  0
 19 18  1  6  0  0  0
 19 20  1  0  0  0  0
 19 16  1  0  0  0  0
 22 21  1  0  0  0  0
 23 22  1  0  0  0  0
 25 24  1  0  0  0  0
 25 30  1  0  0  0  0
 26 27  1  1  0  0  0
 26 29  1  0  0  0  0
 26 28  1  0  0  0  0
 28 25  1  1  0  0  0
 29 28  1  0  0  0  0
 30 31  1  0  0  0  0
 31 32  1  0  0  0  0
M  END
>  <MODEL>
8

>  <REMARK>
 VINA RESULT:      -6.2      2.727      4.388
  Name = 
  9 active torsions:
  status: ('A' for Active; 'I' for Inactive)
    1  A    between atoms: C_2  and  C_24
    2  A    between atoms: C_4  and  C_13
    3  A    between atoms: S_6  and  C_7
    4  A    between atoms: C_7  and  N_32
    5  A    between atoms: C_10  and  P_17
    6  A    between atoms: C_13  and  C_15
    7  A    between atoms: C_16  and  C_27
    8  A    between atoms: C_22  and  N_32
    9  A    between atoms: C_27  and  N_32
                            x       y       z     vdW  Elec       q    Type
                         _______ _______ _______ _____ _____    ______ ____

>  <TORSDO>
F 9

$$$$
=
 OpenBabel11052416583D

 32 35  0  0  1  0  0  0  0  0999 V2000
  191.4930  176.4630  137.3490 C   0  0  0  0  0  0  0  0  0  0  0  0
  188.4350  177.5210  141.1930 C   0  0  0  0  0  0  0  0  0  0  0  0
  189.3830  177.3170  138.9860 C   0  0  0  0  0  0  0  0  0  0  0  0
  190.5810  176.5050  140.9010 N   0  0  0  0  0  0  0  0  0  0  0  0
  191.5600  176.2670  138.7340 C   0  0  0  0  0  3  0  0  0  0  0  0
  189.5720  176.9040  141.7270 C   0  0  0  0  0  0  0  0  0  0  0  0
  189.6820  176.7490  143.1910 C   0  0  0  0  0  0  0  0  0  0  0  0
  187.3130  177.4890  143.3970 C   0  0  2  0  0  3  0  0  0  0  0  0
  190.3670  177.0900  136.7890 C   0  0  0  0  0  3  0  0  0  0  0  0
  190.5120  176.6890  139.5550 C   0  0  0  0  0  0  0  0  0  0  0  0
  189.3150  177.5160  137.6060 C   0  0  0  0  0  3  0  0  0  0  0  0
  188.7490  176.9120  145.4020 N   0  0  0  0  0  1  0  0  0  0  0  0
  188.6480  177.0870  143.9880 C   0  0  0  0  0  0  0  0  0  0  0  0
  188.3440  177.7350  139.8170 C   0  0  0  0  0  3  0  0  0  0  0  0
  187.4110  177.9390  142.0410 O   0  0  0  0  0  0  0  0  0  0  0  0
  193.5730  175.2070  136.9770 C   0  0  0  0  0  3  0  0  0  0  0  0
  192.6130  176.0030  136.5160 C   0  0  0  0  0  3  0  0  0  0  0  0
  195.7090  173.4030  137.0660 C   0  0  0  0  0  1  0  0  0  0  0  0
  194.9580  174.6510  135.9040 P   0  0  2  0  0  0  0  0  0  0  0  0
  196.0450  175.9470  136.2950 O   0  0  0  0  0  1  0  0  0  0  0  0
  190.9580  176.2220  143.7820 C   0  0  0  0  0  2  0  0  0  0  0  0
  191.7410  177.3350  144.4630 C   0  0  0  0  0  2  0  0  0  0  0  0
  191.6890  177.1810  145.8490 O   0  0  0  0  0  1  0  0  0  0  0  0
  186.6370  178.5640  144.2370 C   0  0  0  0  0  2  0  0  0  0  0  0
  185.5320  177.9840  144.9950 N   0  0  0  0  0  0  0  0  0  0  0  0
  183.4390  178.8640  144.0120 C   0  0  1  0  0  3  0  0  0  0  0  0
  183.7550  177.8570  143.1140 F   0  0  0  0  0  0  0  0  0  0  0  0
  184.4750  178.9850  145.1290 C   0  0  2  0  0  3  0  0  0  0  0  0
  184.5020  179.9390  143.9480 C   0  0  0  0  0  2  0  0  0  0  0  0
  186.0100  177.5830  146.3240 C   0  0  0  0  0  2  0  0  0  0  0  0
  186.8130  178.9430  147.2530 S   0  0  0  0  0  0  0  0  0  0  0  0
  187.8340  177.7820  148.2000 C   0  0  0  0  0  1  0  0  0  0  0  0
  1  5  1  0  0  0  0
  2  6  1  0  0  0  0
  2 15  1  0  0  0  0
  3 10  1  0  0  0  0
  3 14  1  0  0  0  0
  4  6  2  0  0  0  0
  5 10  2  0  0  0  0
  6  7  1  0  0  0  0
  7 21  1  0  0  0  0
  7 13  2  0  0  0  0
  8 13  1  0  0  0  0
  8 24  1  1  0  0  0
  9  1  2  0  0  0  0
  9 11  1  0  0  0  0
 10  4  1  0  0  0  0
 11  3  2  0  0  0  0
 13 12  1  0  0  0  0
 14  2  2  0  0  0  0
 15  8  1  0  0  0  0
 17 16  2  0  0  0  0
 17  1  1  0  0  0  0
 19 20  1  0  0  0  0
 19 16  1  0  0  0  0
 19 18  1  1  0  0  0
 21 22  1  0  0  0  0
 22 23  1  0  0  0  0
 24 25  1  0  0  0  0
 25 30  1  0  0  0  0
 26 27  1  6  0  0  0
 26 28  1  0  0  0  0
 28 25  1  6  0  0  0
 29 26  1  0  0  0  0
 29 28  1  0  0  0  0
 30 31  1  0  0  0  0
 31 32  1  0  0  0  0
M  END
>  <MODEL>
9

>  <REMARK>
 VINA RESULT:      -6.1      4.679      8.744
  Name = 
  9 active torsions:
  status: ('A' for Active; 'I' for Inactive)
    1  A    between atoms: C_2  and  C_24
    2  A    between atoms: C_4  and  C_13
    3  A    between atoms: S_6  and  C_7
    4  A    between atoms: C_7  and  N_32
    5  A    between atoms: C_10  and  P_17
    6  A    between atoms: C_13  and  C_15
    7  A    between atoms: C_16  and  C_27
    8  A    between atoms: C_22  and  N_32
    9  A    between atoms: C_27  and  N_32
                            x       y       z     vdW  Elec       q    Type
                         _______ _______ _______ _____ _____    ______ ____

>  <TORSDO>
F 9

$$$$
