=
 OpenBabel11052412423D

 25 27  0  0  1  0  0  0  0  0999 V2000
  187.3020  177.9210  146.1970 C   0  0  0  0  0  0  0  0  0  0  0  0
  188.5660  177.4010  145.8540 C   0  0  0  0  0  0  0  0  0  0  0  0
  188.0130  178.1140  148.4570 C   0  0  0  0  0  3  0  0  0  0  0  0
  189.2340  177.6150  148.1400 N   0  0  0  0  0  0  0  0  0  0  0  0
  190.8060  176.7080  146.5190 N   0  0  0  0  0  0  0  0  0  0  0  0
  191.8480  176.5340  147.5170 C   0  0  0  0  0  1  0  0  0  0  0  0
  188.8780  176.9840  144.5140 N   0  0  0  0  0  0  0  0  0  0  0  0
  187.0660  178.2610  147.4950 N   0  0  0  0  0  0  0  0  0  0  0  0
  191.0510  176.3230  145.1920 N   0  0  0  0  0  2  0  0  0  0  0  0
  190.0360  176.4870  144.1940 C   0  0  0  0  0  0  0  0  0  0  0  0
  189.5270  177.2560  146.8620 C   0  0  0  0  0  0  0  0  0  0  0  0
  186.2230  178.1160  145.1920 C   0  0  1  0  0  3  0  0  0  0  0  0
  184.2290  178.5330  143.2870 C   0  0  0  0  0  3  0  0  0  0  0  0
  184.9420  178.5880  145.5550 C   0  0  0  0  0  0  0  0  0  0  0  0
  183.9910  178.7780  144.6020 N   0  0  0  0  0  0  0  0  0  0  0  0
  185.4780  178.0710  142.8790 C   0  0  0  0  0  3  0  0  0  0  0  0
  184.6570  178.8210  146.7600 O   0  0  0  0  0  0  0  0  0  0  0  0
  186.4720  177.8680  143.8340 C   0  0  0  0  0  3  0  0  0  0  0  0
  190.2930  176.0470  142.7940 C   0  0  0  0  0  2  0  0  0  0  0  0
  190.4680  177.2350  141.9000 C   0  0  0  0  0  0  0  0  0  0  0  0
  191.5860  177.6970  141.7360 O   0  0  0  0  0  0  0  0  0  0  0  0
  188.8940  178.9870  141.8370 F   0  0  0  0  0  0  0  0  0  0  0  0
  189.6420  178.1710  139.8770 F   0  0  0  0  0  0  0  0  0  0  0  0
  188.2550  176.9370  141.1490 F   0  0  0  0  0  0  0  0  0  0  0  0
  189.3000  177.8420  141.1760 C   0  0  0  0  0  0  0  0  0  0  0  0
  1  8  1  0  0  0  0
  2  1  2  0  0  0  0
  2 11  1  0  0  0  0
  4  3  1  0  0  0  0
  5 11  1  0  0  0  0
  5  6  1  0  0  0  0
  7  2  1  0  0  0  0
  8  3  2  0  0  0  0
  9  5  1  0  0  0  0
 10  7  2  0  0  0  0
 10  9  1  0  0  0  0
 11  4  2  0  0  0  0
 12 14  1  0  0  0  0
 12  1  1  6  0  0  0
 13 15  2  0  0  0  0
 14 17  2  0  0  0  0
 15 14  1  0  0  0  0
 16 13  1  0  0  0  0
 16 18  2  0  0  0  0
 18 12  1  0  0  0  0
 19 10  1  0  0  0  0
 20 19  1  0  0  0  0
 21 20  2  0  0  0  0
 23 25  1  0  0  0  0
 24 25  1  0  0  0  0
 25 22  1  0  0  0  0
 25 20  1  0  0  0  0
M  END
>  <MODEL>
1

>  <REMARK>
 VINA RESULT:      -9.1      0.000      0.000
  Name = 
  4 active torsions:
  status: ('A' for Active; 'I' for Inactive)
    1  A    between atoms: C_1  and  C_5
    2  A    between atoms: C_6  and  C_15
    3  A    between atoms: C_6  and  C_23
    4  A    between atoms: C_15  and  C_21
                            x       y       z     vdW  Elec       q    Type
                         _______ _______ _______ _____ _____    ______ ____

>  <TORSDO>
F 4

$$$$
=
 OpenBabel11052412423D

 25 27  0  0  1  0  0  0  0  0999 V2000
  185.9750  178.5180  142.4250 C   0  0  0  0  0  0  0  0  0  0  0  0
  187.1970  178.2910  141.7610 C   0  0  0  0  0  0  0  0  0  0  0  0
  184.9300  178.9260  140.3300 C   0  0  0  0  0  3  0  0  0  0  0  0
  186.1010  178.7100  139.6770 N   0  0  0  0  0  0  0  0  0  0  0  0
  188.4770  178.1860  139.6890 N   0  0  0  0  0  0  0  0  0  0  0  0
  188.5780  178.2780  138.2410 C   0  0  0  0  0  1  0  0  0  0  0  0
  188.4080  177.9940  142.4760 N   0  0  0  0  0  0  0  0  0  0  0  0
  184.8770  178.8310  141.6830 N   0  0  0  0  0  0  0  0  0  0  0  0
  189.6240  177.8960  140.4440 N   0  0  0  0  0  2  0  0  0  0  0  0
  189.5420  177.8010  141.8710 C   0  0  0  0  0  0  0  0  0  0  0  0
  187.2300  178.3970  140.3640 C   0  0  0  0  0  0  0  0  0  0  0  0
  185.8450  178.4210  143.9040 C   0  0  1  0  0  3  0  0  0  0  0  0
  185.5700  178.1880  146.6690 C   0  0  0  0  0  3  0  0  0  0  0  0
  184.9360  179.2270  144.6260 C   0  0  0  0  0  0  0  0  0  0  0  0
  184.8270  179.0890  145.9740 N   0  0  0  0  0  0  0  0  0  0  0  0
  186.4770  177.3680  146.0010 C   0  0  0  0  0  3  0  0  0  0  0  0
  184.2300  180.0890  144.0390 O   0  0  0  0  0  0  0  0  0  0  0  0
  186.6080  177.4870  144.6180 C   0  0  0  0  0  3  0  0  0  0  0  0
  190.7700  177.5230  142.6670 C   0  0  0  0  0  2  0  0  0  0  0  0
  190.7420  178.2930  143.9510 C   0  0  0  0  0  0  0  0  0  0  0  0
  190.9660  179.4930  143.9300 O   0  0  0  0  0  0  0  0  0  0  0  0
  191.5740  177.3600  145.9470 F   0  0  0  0  0  0  0  0  0  0  0  0
  189.5950  178.4290  146.0290 F   0  0  0  0  0  0  0  0  0  0  0  0
  189.7510  176.4320  145.0020 F   0  0  0  0  0  0  0  0  0  0  0  0
  190.4080  177.6230  145.2530 C   0  0  0  0  0  0  0  0  0  0  0  0
  2  1  1  0  0  0  0
  2  7  1  0  0  0  0
  3  8  1  0  0  0  0
  4  3  2  0  0  0  0
  4 11  1  0  0  0  0
  5 11  1  0  0  0  0
  5  9  1  0  0  0  0
  6  5  1  0  0  0  0
  8  1  2  0  0  0  0
  9 10  1  0  0  0  0
 10  7  2  0  0  0  0
 10 19  1  0  0  0  0
 11  2  2  0  0  0  0
 12  1  1  6  0  0  0
 12 18  1  0  0  0  0
 12 14  1  0  0  0  0
 14 15  1  0  0  0  0
 15 13  2  0  0  0  0
 16 13  1  0  0  0  0
 17 14  2  0  0  0  0
 18 16  2  0  0  0  0
 19 20  1  0  0  0  0
 20 25  1  0  0  0  0
 21 20  2  0  0  0  0
 24 25  1  0  0  0  0
 25 22  1  0  0  0  0
 25 23  1  0  0  0  0
M  END
>  <MODEL>
2

>  <REMARK>
 VINA RESULT:      -9.0      2.893      5.031
  Name = 
  4 active torsions:
  status: ('A' for Active; 'I' for Inactive)
    1  A    between atoms: C_1  and  C_5
    2  A    between atoms: C_6  and  C_15
    3  A    between atoms: C_6  and  C_23
    4  A    between atoms: C_15  and  C_21
                            x       y       z     vdW  Elec       q    Type
                         _______ _______ _______ _____ _____    ______ ____

>  <TORSDO>
F 4

$$$$
=
 OpenBabel11052412423D

 25 27  0  0  1  0  0  0  0  0999 V2000
  188.9920  177.6510  142.1360 C   0  0  0  0  0  0  0  0  0  0  0  0
  187.6760  177.8920  142.5760 C   0  0  0  0  0  0  0  0  0  0  0  0
  188.3840  178.3820  139.9590 C   0  0  0  0  0  3  0  0  0  0  0  0
  187.1120  178.6190  140.3680 N   0  0  0  0  0  0  0  0  0  0  0  0
  185.3960  178.6090  142.0940 N   0  0  0  0  0  0  0  0  0  0  0  0
  184.3800  179.1200  141.1880 C   0  0  0  0  0  1  0  0  0  0  0  0
  187.2600  177.6130  143.9230 N   0  0  0  0  0  0  0  0  0  0  0  0
  189.3040  177.9040  140.8350 N   0  0  0  0  0  0  0  0  0  0  0  0
  185.0530  178.3200  143.4240 N   0  0  0  0  0  2  0  0  0  0  0  0
  186.0420  177.8170  144.3300 C   0  0  0  0  0  0  0  0  0  0  0  0
  186.7410  178.3830  141.6540 C   0  0  0  0  0  0  0  0  0  0  0  0
  190.0510  177.1360  143.0460 C   0  0  1  0  0  3  0  0  0  0  0  0
  191.9930  176.1460  144.7860 C   0  0  0  0  0  3  0  0  0  0  0  0
  190.7250  177.9790  143.9580 C   0  0  0  0  0  0  0  0  0  0  0  0
  191.6680  177.4650  144.7920 N   0  0  0  0  0  0  0  0  0  0  0  0
  191.3530  175.2730  143.9080 C   0  0  0  0  0  3  0  0  0  0  0  0
  190.4760  179.2130  144.0010 O   0  0  0  0  0  0  0  0  0  0  0  0
  190.3810  175.7730  143.0430 C   0  0  0  0  0  3  0  0  0  0  0  0
  185.6630  177.4830  145.7320 C   0  0  0  0  0  2  0  0  0  0  0  0
  186.3140  178.4360  146.6860 C   0  0  0  0  0  0  0  0  0  0  0  0
  185.7660  179.4990  146.9320 O   0  0  0  0  0  0  0  0  0  0  0  0
  188.6600  178.3290  146.5100 F   0  0  0  0  0  0  0  0  0  0  0  0
  187.7760  178.8480  148.5140 F   0  0  0  0  0  0  0  0  0  0  0  0
  187.5980  176.7500  147.7170 F   0  0  0  0  0  0  0  0  0  0  0  0
  187.6050  178.0890  147.3700 C   0  0  0  0  0  0  0  0  0  0  0  0
  1  2  1  0  0  0  0
  2  7  1  0  0  0  0
  3  4  2  0  0  0  0
  3  8  1  0  0  0  0
  4 11  1  0  0  0  0
  5  9  1  0  0  0  0
  6  5  1  0  0  0  0
  7 10  2  0  0  0  0
  8  1  2  0  0  0  0
  9 10  1  0  0  0  0
 10 19  1  0  0  0  0
 11  5  1  0  0  0  0
 11  2  2  0  0  0  0
 12  1  1  1  0  0  0
 12 14  1  0  0  0  0
 13 15  2  0  0  0  0
 14 17  2  0  0  0  0
 14 15  1  0  0  0  0
 16 13  1  0  0  0  0
 18 12  1  0  0  0  0
 18 16  2  0  0  0  0
 19 20  1  0  0  0  0
 20 21  2  0  0  0  0
 20 25  1  0  0  0  0
 22 25  1  0  0  0  0
 25 24  1  0  0  0  0
 25 23  1  0  0  0  0
M  END
>  <MODEL>
3

>  <REMARK>
 VINA RESULT:      -8.9      2.856      6.600
  Name = 
  4 active torsions:
  status: ('A' for Active; 'I' for Inactive)
    1  A    between atoms: C_1  and  C_5
    2  A    between atoms: C_6  and  C_15
    3  A    between atoms: C_6  and  C_23
    4  A    between atoms: C_15  and  C_21
                            x       y       z     vdW  Elec       q    Type
                         _______ _______ _______ _____ _____    ______ ____

>  <TORSDO>
F 4

$$$$
=
 OpenBabel11052412423D

 25 27  0  0  1  0  0  0  0  0999 V2000
  189.3590  177.9300  142.6810 C   0  0  0  0  0  0  0  0  0  0  0  0
  189.0460  177.6540  144.0270 C   0  0  0  0  0  0  0  0  0  0  0  0
  191.6700  177.7140  143.1900 C   0  0  0  0  0  3  0  0  0  0  0  0
  191.3840  177.4470  144.4890 N   0  0  0  0  0  0  0  0  0  0  0  0
  189.7820  177.1530  146.2970 N   0  0  0  0  0  0  0  0  0  0  0  0
  190.8240  176.8930  147.2760 C   0  0  0  0  0  1  0  0  0  0  0  0
  187.6920  177.6510  144.5090 N   0  0  0  0  0  0  0  0  0  0  0  0
  190.6680  177.9520  142.3050 N   0  0  0  0  0  0  0  0  0  0  0  0
  188.4390  177.1600  146.7050 N   0  0  0  0  0  2  0  0  0  0  0  0
  187.3980  177.4140  145.7530 C   0  0  0  0  0  0  0  0  0  0  0  0
  190.0970  177.4140  144.9230 C   0  0  0  0  0  0  0  0  0  0  0  0
  188.3090  178.1910  141.6600 C   0  0  1  0  0  3  0  0  0  0  0  0
  186.3150  178.6270  139.7600 C   0  0  0  0  0  3  0  0  0  0  0  0
  188.5570  178.0290  140.2780 C   0  0  0  0  0  0  0  0  0  0  0  0
  187.5630  178.2510  139.3770 N   0  0  0  0  0  0  0  0  0  0  0  0
  186.0200  178.7950  141.1110 C   0  0  0  0  0  3  0  0  0  0  0  0
  189.6980  177.6950  139.8620 O   0  0  0  0  0  0  0  0  0  0  0  0
  187.0200  178.5730  142.0570 C   0  0  0  0  0  3  0  0  0  0  0  0
  185.9770  177.4510  146.1990 C   0  0  0  0  0  2  0  0  0  0  0  0
  185.3900  178.8060  145.9510 C   0  0  0  0  0  0  0  0  0  0  0  0
  185.7190  179.7380  146.6670 O   0  0  0  0  0  0  0  0  0  0  0  0
  183.1530  179.1910  145.3180 F   0  0  0  0  0  0  0  0  0  0  0  0
  184.7760  180.1810  144.1110 F   0  0  0  0  0  0  0  0  0  0  0  0
  184.4610  177.9580  143.9580 F   0  0  0  0  0  0  0  0  0  0  0  0
  184.4330  179.0420  144.8170 C   0  0  0  0  0  0  0  0  0  0  0  0
  1  2  1  0  0  0  0
  2  7  1  0  0  0  0
  2 11  2  0  0  0  0
  3  4  2  0  0  0  0
  4 11  1  0  0  0  0
  5  9  1  0  0  0  0
  5  6  1  0  0  0  0
  7 10  2  0  0  0  0
  8  1  2  0  0  0  0
  8  3  1  0  0  0  0
 10 19  1  0  0  0  0
 10  9  1  0  0  0  0
 11  5  1  0  0  0  0
 12 18  1  0  0  0  0
 12  1  1  1  0  0  0
 13 16  1  0  0  0  0
 14 12  1  0  0  0  0
 15 13  2  0  0  0  0
 15 14  1  0  0  0  0
 16 18  2  0  0  0  0
 17 14  2  0  0  0  0
 20 19  1  0  0  0  0
 20 21  2  0  0  0  0
 23 25  1  0  0  0  0
 24 25  1  0  0  0  0
 25 22  1  0  0  0  0
 25 20  1  0  0  0  0
M  END
>  <MODEL>
4

>  <REMARK>
 VINA RESULT:      -8.7      2.701      5.050
  Name = 
  4 active torsions:
  status: ('A' for Active; 'I' for Inactive)
    1  A    between atoms: C_1  and  C_5
    2  A    between atoms: C_6  and  C_15
    3  A    between atoms: C_6  and  C_23
    4  A    between atoms: C_15  and  C_21
                            x       y       z     vdW  Elec       q    Type
                         _______ _______ _______ _____ _____    ______ ____

>  <TORSDO>
F 4

$$$$
=
 OpenBabel11052412423D

 25 27  0  0  1  0  0  0  0  0999 V2000
  185.6160  178.4020  144.3560 C   0  0  0  0  0  0  0  0  0  0  0  0
  186.0290  178.4540  143.0100 C   0  0  0  0  0  0  0  0  0  0  0  0
  183.3780  178.8090  143.6680 C   0  0  0  0  0  3  0  0  0  0  0  0
  183.7620  178.8620  142.3670 N   0  0  0  0  0  0  0  0  0  0  0  0
  185.4860  178.7650  140.6530 N   0  0  0  0  0  0  0  0  0  0  0  0
  184.5350  179.0060  139.5800 C   0  0  0  0  0  1  0  0  0  0  0  0
  187.4090  178.3110  142.6310 N   0  0  0  0  0  0  0  0  0  0  0  0
  184.2970  178.5830  144.6420 N   0  0  0  0  0  0  0  0  0  0  0  0
  186.8470  178.6140  140.3480 N   0  0  0  0  0  2  0  0  0  0  0  0
  187.7980  178.3760  141.3930 C   0  0  0  0  0  0  0  0  0  0  0  0
  185.0650  178.6910  142.0210 C   0  0  0  0  0  0  0  0  0  0  0  0
  186.5690  178.1500  145.4700 C   0  0  1  0  0  3  0  0  0  0  0  0
  188.3360  177.6190  147.5610 C   0  0  0  0  0  3  0  0  0  0  0  0
  186.3270  178.6220  146.7790 C   0  0  0  0  0  0  0  0  0  0  0  0
  187.2100  178.3470  147.7760 N   0  0  0  0  0  0  0  0  0  0  0  0
  188.6170  177.1270  146.2880 C   0  0  0  0  0  3  0  0  0  0  0  0
  185.3060  179.3130  147.0370 O   0  0  0  0  0  0  0  0  0  0  0  0
  187.7280  177.3930  145.2470 C   0  0  0  0  0  3  0  0  0  0  0  0
  189.2460  178.2470  141.0630 C   0  0  0  0  0  2  0  0  0  0  0  0
  189.9220  177.3370  142.0410 C   0  0  0  0  0  0  0  0  0  0  0  0
  189.7440  176.1320  141.9550 O   0  0  0  0  0  0  0  0  0  0  0  0
  192.0550  178.2110  142.5280 F   0  0  0  0  0  0  0  0  0  0  0  0
  190.2990  179.0040  143.6940 F   0  0  0  0  0  0  0  0  0  0  0  0
  191.0440  176.9130  144.0690 F   0  0  0  0  0  0  0  0  0  0  0  0
  190.8400  177.8780  143.0990 C   0  0  0  0  0  0  0  0  0  0  0  0
  1  8  1  0  0  0  0
  2  1  2  0  0  0  0
  3  8  2  0  0  0  0
  4  3  1  0  0  0  0
  5 11  1  0  0  0  0
  6  5  1  0  0  0  0
  7  2  1  0  0  0  0
  9  5  1  0  0  0  0
  9 10  1  0  0  0  0
 10  7  2  0  0  0  0
 11  4  2  0  0  0  0
 11  2  1  0  0  0  0
 12  1  1  1  0  0  0
 12 14  1  0  0  0  0
 13 15  2  0  0  0  0
 14 17  2  0  0  0  0
 14 15  1  0  0  0  0
 16 13  1  0  0  0  0
 18 12  1  0  0  0  0
 18 16  2  0  0  0  0
 19 10  1  0  0  0  0
 19 20  1  0  0  0  0
 20 25  1  0  0  0  0
 21 20  2  0  0  0  0
 22 25  1  0  0  0  0
 25 23  1  0  0  0  0
 25 24  1  0  0  0  0
M  END
>  <MODEL>
5

>  <REMARK>
 VINA RESULT:      -8.6      2.197      4.917
  Name = 
  4 active torsions:
  status: ('A' for Active; 'I' for Inactive)
    1  A    between atoms: C_1  and  C_5
    2  A    between atoms: C_6  and  C_15
    3  A    between atoms: C_6  and  C_23
    4  A    between atoms: C_15  and  C_21
                            x       y       z     vdW  Elec       q    Type
                         _______ _______ _______ _____ _____    ______ ____

>  <TORSDO>
F 4

$$$$
=
 OpenBabel11052412423D

 25 27  0  0  1  0  0  0  0  0999 V2000
  184.2990  178.5150  142.9220 C   0  0  0  0  0  0  0  0  0  0  0  0
  185.4150  178.1210  143.6860 C   0  0  0  0  0  0  0  0  0  0  0  0
  183.2420  179.3030  144.8990 C   0  0  0  0  0  3  0  0  0  0  0  0
  184.3100  178.9280  145.6480 N   0  0  0  0  0  0  0  0  0  0  0  0
  186.5170  177.9230  145.8520 N   0  0  0  0  0  0  0  0  0  0  0  0
  186.5560  178.1270  147.2910 C   0  0  0  0  0  1  0  0  0  0  0  0
  186.5500  177.4680  143.0940 N   0  0  0  0  0  0  0  0  0  0  0  0
  183.2430  179.0950  143.5570 N   0  0  0  0  0  0  0  0  0  0  0  0
  187.5970  177.2940  145.2140 N   0  0  0  0  0  2  0  0  0  0  0  0
  187.5750  177.0860  143.7970 C   0  0  0  0  0  0  0  0  0  0  0  0
  185.3910  178.3430  145.0700 C   0  0  0  0  0  0  0  0  0  0  0  0
  184.2390  178.3250  141.4470 C   0  0  1  0  0  3  0  0  0  0  0  0
  184.1520  177.9130  138.6910 C   0  0  0  0  0  3  0  0  0  0  0  0
  185.1360  178.9790  140.5740 C   0  0  0  0  0  0  0  0  0  0  0  0
  185.0660  178.7580  139.2340 N   0  0  0  0  0  0  0  0  0  0  0  0
  183.2480  177.2410  139.5100 C   0  0  0  0  0  3  0  0  0  0  0  0
  185.9980  179.7840  141.0190 O   0  0  0  0  0  0  0  0  0  0  0  0
  183.2980  177.4480  140.8880 C   0  0  0  0  0  3  0  0  0  0  0  0
  188.7120  176.3900  143.1320 C   0  0  0  0  0  2  0  0  0  0  0  0
  189.8000  177.3650  142.8060 C   0  0  0  0  0  0  0  0  0  0  0  0
  189.8480  177.8510  141.6870 O   0  0  0  0  0  0  0  0  0  0  0  0
  190.4800  179.0350  144.3220 F   0  0  0  0  0  0  0  0  0  0  0  0
  190.8290  176.8850  144.8950 F   0  0  0  0  0  0  0  0  0  0  0  0
  192.0640  177.8280  143.2660 F   0  0  0  0  0  0  0  0  0  0  0  0
  190.8070  177.7810  143.8400 C   0  0  0  0  0  0  0  0  0  0  0  0
  1  8  2  0  0  0  0
  1  2  1  0  0  0  0
  2 11  2  0  0  0  0
  3  4  2  0  0  0  0
  5  6  1  0  0  0  0
  7  2  1  0  0  0  0
  7 10  2  0  0  0  0
  8  3  1  0  0  0  0
  9  5  1  0  0  0  0
 10  9  1  0  0  0  0
 11  4  1  0  0  0  0
 11  5  1  0  0  0  0
 12  1  1  1  0  0  0
 13 15  2  0  0  0  0
 13 16  1  0  0  0  0
 14 17  2  0  0  0  0
 14 12  1  0  0  0  0
 15 14  1  0  0  0  0
 16 18  2  0  0  0  0
 18 12  1  0  0  0  0
 19 10  1  0  0  0  0
 20 19  1  0  0  0  0
 20 25  1  0  0  0  0
 21 20  2  0  0  0  0
 24 25  1  0  0  0  0
 25 22  1  0  0  0  0
 25 23  1  0  0  0  0
M  END
>  <MODEL>
6

>  <REMARK>
 VINA RESULT:      -8.6      2.780      4.354
  Name = 
  4 active torsions:
  status: ('A' for Active; 'I' for Inactive)
    1  A    between atoms: C_1  and  C_5
    2  A    between atoms: C_6  and  C_15
    3  A    between atoms: C_6  and  C_23
    4  A    between atoms: C_15  and  C_21
                            x       y       z     vdW  Elec       q    Type
                         _______ _______ _______ _____ _____    ______ ____

>  <TORSDO>
F 4

$$$$
=
 OpenBabel11052412423D

 25 27  0  0  1  0  0  0  0  0999 V2000
  189.1210  177.0580  143.9710 C   0  0  0  0  0  0  0  0  0  0  0  0
  188.5900  177.4930  142.7400 C   0  0  0  0  0  0  0  0  0  0  0  0
  190.9060  176.0030  142.8100 C   0  0  0  0  0  3  0  0  0  0  0  0
  190.4060  176.4150  141.6180 N   0  0  0  0  0  0  0  0  0  0  0  0
  188.7140  177.5730  140.3070 N   0  0  0  0  0  0  0  0  0  0  0  0
  189.3660  177.2530  139.0480 C   0  0  0  0  0  1  0  0  0  0  0  0
  187.3640  178.2400  142.6620 N   0  0  0  0  0  0  0  0  0  0  0  0
  190.2660  176.3220  143.9650 N   0  0  0  0  0  0  0  0  0  0  0  0
  187.5160  178.3040  140.2970 N   0  0  0  0  0  2  0  0  0  0  0  0
  186.8600  178.6290  141.5280 C   0  0  0  0  0  0  0  0  0  0  0  0
  189.2640  177.1500  141.5610 C   0  0  0  0  0  0  0  0  0  0  0  0
  188.4760  177.3810  145.2720 C   0  0  1  0  0  3  0  0  0  0  0  0
  187.2590  178.0430  147.6920 C   0  0  0  0  0  3  0  0  0  0  0  0
  189.2300  177.5620  146.4530 C   0  0  0  0  0  0  0  0  0  0  0  0
  188.6060  177.8830  147.6170 N   0  0  0  0  0  0  0  0  0  0  0  0
  186.4720  177.8790  146.5540 C   0  0  0  0  0  3  0  0  0  0  0  0
  190.4810  177.4150  146.4490 O   0  0  0  0  0  0  0  0  0  0  0  0
  187.0860  177.5510  145.3460 C   0  0  0  0  0  3  0  0  0  0  0  0
  185.5720  179.3780  141.5070 C   0  0  0  0  0  2  0  0  0  0  0  0
  184.5240  178.6300  142.2710 C   0  0  0  0  0  0  0  0  0  0  0  0
  184.0730  177.5950  141.8050 O   0  0  0  0  0  0  0  0  0  0  0  0
  184.9310  180.0520  144.1040 F   0  0  0  0  0  0  0  0  0  0  0  0
  182.7900  179.6810  143.5120 F   0  0  0  0  0  0  0  0  0  0  0  0
  183.9860  178.0420  144.4880 F   0  0  0  0  0  0  0  0  0  0  0  0
  184.0470  179.1100  143.6110 C   0  0  0  0  0  0  0  0  0  0  0  0
  2  1  2  0  0  0  0
  3  8  2  0  0  0  0
  4  3  1  0  0  0  0
  5 11  1  0  0  0  0
  6  5  1  0  0  0  0
  7  2  1  0  0  0  0
  8  1  1  0  0  0  0
  9  5  1  0  0  0  0
  9 10  1  0  0  0  0
 10  7  2  0  0  0  0
 11  4  2  0  0  0  0
 11  2  1  0  0  0  0
 12  1  1  6  0  0  0
 12 18  1  0  0  0  0
 12 14  1  0  0  0  0
 14 15  1  0  0  0  0
 15 13  2  0  0  0  0
 16 13  1  0  0  0  0
 17 14  2  0  0  0  0
 18 16  2  0  0  0  0
 19 10  1  0  0  0  0
 19 20  1  0  0  0  0
 20 25  1  0  0  0  0
 21 20  2  0  0  0  0
 23 25  1  0  0  0  0
 25 22  1  0  0  0  0
 25 24  1  0  0  0  0
M  END
>  <MODEL>
7

>  <REMARK>
 VINA RESULT:      -8.5      3.011      5.562
  Name = 
  4 active torsions:
  status: ('A' for Active; 'I' for Inactive)
    1  A    between atoms: C_1  and  C_5
    2  A    between atoms: C_6  and  C_15
    3  A    between atoms: C_6  and  C_23
    4  A    between atoms: C_15  and  C_21
                            x       y       z     vdW  Elec       q    Type
                         _______ _______ _______ _____ _____    ______ ____

>  <TORSDO>
F 4

$$$$
=
 OpenBabel11052412423D

 25 27  0  0  1  0  0  0  0  0999 V2000
  189.5040  177.2990  141.7660 C   0  0  0  0  0  0  0  0  0  0  0  0
  188.4950  177.7620  140.8980 C   0  0  0  0  0  0  0  0  0  0  0  0
  190.7250  176.4930  139.8940 C   0  0  0  0  0  3  0  0  0  0  0  0
  189.7610  176.9330  139.0460 N   0  0  0  0  0  0  0  0  0  0  0  0
  187.6180  178.0110  138.6370 N   0  0  0  0  0  0  0  0  0  0  0  0
  187.7220  177.8360  137.1980 C   0  0  0  0  0  1  0  0  0  0  0  0
  187.3010  178.3940  141.3880 N   0  0  0  0  0  0  0  0  0  0  0  0
  190.5900  176.6760  141.2330 N   0  0  0  0  0  0  0  0  0  0  0  0
  186.4770  178.6260  139.1770 N   0  0  0  0  0  2  0  0  0  0  0  0
  186.3590  178.8070  140.5930 C   0  0  0  0  0  0  0  0  0  0  0  0
  188.6530  177.5600  139.5200 C   0  0  0  0  0  0  0  0  0  0  0  0
  189.4240  177.4750  143.2420 C   0  0  1  0  0  3  0  0  0  0  0  0
  189.2250  177.8410  145.9990 C   0  0  0  0  0  3  0  0  0  0  0  0
  190.3340  178.2950  143.9450 C   0  0  0  0  0  0  0  0  0  0  0  0
  190.2110  178.4510  145.2900 N   0  0  0  0  0  0  0  0  0  0  0  0
  188.3010  177.0260  145.3500 C   0  0  0  0  0  3  0  0  0  0  0  0
  191.2760  178.8770  143.3440 O   0  0  0  0  0  0  0  0  0  0  0  0
  188.4030  176.8490  143.9710 C   0  0  0  0  0  3  0  0  0  0  0  0
  185.1310  179.4320  141.1600 C   0  0  0  0  0  2  0  0  0  0  0  0
  184.4090  178.4560  142.0380 C   0  0  0  0  0  0  0  0  0  0  0  0
  183.8420  177.5030  141.5270 O   0  0  0  0  0  0  0  0  0  0  0  0
  184.7260  179.9150  143.8600 F   0  0  0  0  0  0  0  0  0  0  0  0
  183.1570  178.3110  144.0530 F   0  0  0  0  0  0  0  0  0  0  0  0
  185.3380  177.7570  144.0870 F   0  0  0  0  0  0  0  0  0  0  0  0
  184.4030  178.6110  143.5310 C   0  0  0  0  0  0  0  0  0  0  0  0
  2  7  1  0  0  0  0
  2  1  2  0  0  0  0
  3  8  2  0  0  0  0
  4 11  2  0  0  0  0
  4  3  1  0  0  0  0
  5  9  1  0  0  0  0
  5 11  1  0  0  0  0
  6  5  1  0  0  0  0
  8  1  1  0  0  0  0
  9 10  1  0  0  0  0
 10 19  1  0  0  0  0
 10  7  2  0  0  0  0
 11  2  1  0  0  0  0
 12  1  1  6  0  0  0
 12 14  1  0  0  0  0
 12 18  1  0  0  0  0
 14 15  1  0  0  0  0
 15 13  2  0  0  0  0
 16 13  1  0  0  0  0
 17 14  2  0  0  0  0
 18 16  2  0  0  0  0
 19 20  1  0  0  0  0
 20 25  1  0  0  0  0
 21 20  2  0  0  0  0
 25 22  1  0  0  0  0
 25 23  1  0  0  0  0
 25 24  1  0  0  0  0
M  END
>  <MODEL>
8

>  <REMARK>
 VINA RESULT:      -8.5      3.446      6.620
  Name = 
  4 active torsions:
  status: ('A' for Active; 'I' for Inactive)
    1  A    between atoms: C_1  and  C_5
    2  A    between atoms: C_6  and  C_15
    3  A    between atoms: C_6  and  C_23
    4  A    between atoms: C_15  and  C_21
                            x       y       z     vdW  Elec       q    Type
                         _______ _______ _______ _____ _____    ______ ____

>  <TORSDO>
F 4

$$$$
=
 OpenBabel11052412423D

 25 27  0  0  1  0  0  0  0  0999 V2000
  187.8790  177.9650  141.0580 C   0  0  0  0  0  0  0  0  0  0  0  0
  189.2480  177.8310  141.3630 C   0  0  0  0  0  0  0  0  0  0  0  0
  188.3570  177.4970  138.7770 C   0  0  0  0  0  3  0  0  0  0  0  0
  189.6790  177.3650  139.0560 N   0  0  0  0  0  0  0  0  0  0  0  0
  191.5350  177.4120  140.6290 N   0  0  0  0  0  0  0  0  0  0  0  0
  192.5110  177.0960  139.5990 C   0  0  0  0  0  1  0  0  0  0  0  0
  189.7550  178.0350  142.6920 N   0  0  0  0  0  0  0  0  0  0  0  0
  187.4770  177.7940  139.7680 N   0  0  0  0  0  0  0  0  0  0  0  0
  191.9670  177.6190  141.9480 N   0  0  0  0  0  2  0  0  0  0  0  0
  191.0190  177.9310  142.9760 C   0  0  0  0  0  0  0  0  0  0  0  0
  190.1390  177.5280  140.3240 C   0  0  0  0  0  0  0  0  0  0  0  0
  186.8610  178.2790  142.0960 C   0  0  1  0  0  3  0  0  0  0  0  0
  184.9300  178.8130  144.0350 C   0  0  0  0  0  3  0  0  0  0  0  0
  185.7560  179.1170  141.8260 C   0  0  0  0  0  0  0  0  0  0  0  0
  184.8330  179.3590  142.7950 N   0  0  0  0  0  0  0  0  0  0  0  0
  185.9990  177.9770  144.3480 C   0  0  0  0  0  3  0  0  0  0  0  0
  185.6190  179.6620  140.6990 O   0  0  0  0  0  0  0  0  0  0  0  0
  186.9600  177.7110  143.3740 C   0  0  0  0  0  3  0  0  0  0  0  0
  191.4900  178.1800  144.3680 C   0  0  0  0  0  2  0  0  0  0  0  0
  191.1110  177.0360  145.2570 C   0  0  0  0  0  0  0  0  0  0  0  0
  191.8350  176.0540  145.3040 O   0  0  0  0  0  0  0  0  0  0  0  0
  189.5300  178.4120  146.3320 F   0  0  0  0  0  0  0  0  0  0  0  0
  188.8220  176.4430  145.5010 F   0  0  0  0  0  0  0  0  0  0  0  0
  190.1350  176.4830  147.3290 F   0  0  0  0  0  0  0  0  0  0  0  0
  189.8790  177.0920  146.1140 C   0  0  0  0  0  0  0  0  0  0  0  0
  1  2  1  0  0  0  0
  2  7  1  0  0  0  0
  3  4  2  0  0  0  0
  3  8  1  0  0  0  0
  4 11  1  0  0  0  0
  5  9  1  0  0  0  0
  6  5  1  0  0  0  0
  7 10  2  0  0  0  0
  8  1  2  0  0  0  0
  9 10  1  0  0  0  0
 10 19  1  0  0  0  0
 11  5  1  0  0  0  0
 11  2  2  0  0  0  0
 12  1  1  6  0  0  0
 12 18  1  0  0  0  0
 13 16  1  0  0  0  0
 14 12  1  0  0  0  0
 14 15  1  0  0  0  0
 15 13  2  0  0  0  0
 17 14  2  0  0  0  0
 18 16  2  0  0  0  0
 19 20  1  0  0  0  0
 20 21  2  0  0  0  0
 20 25  1  0  0  0  0
 23 25  1  0  0  0  0
 25 22  1  0  0  0  0
 25 24  1  0  0  0  0
M  END
>  <MODEL>
9

>  <REMARK>
 VINA RESULT:      -8.5      3.285      5.217
  Name = 
  4 active torsions:
  status: ('A' for Active; 'I' for Inactive)
    1  A    between atoms: C_1  and  C_5
    2  A    between atoms: C_6  and  C_15
    3  A    between atoms: C_6  and  C_23
    4  A    between atoms: C_15  and  C_21
                            x       y       z     vdW  Elec       q    Type
                         _______ _______ _______ _____ _____    ______ ____

>  <TORSDO>
F 4

$$$$
