=
 OpenBabel11052413263D

 28 31  0  0  1  0  0  0  0  0999 V2000
  187.4400  178.5990  140.3590 C   0  0  1  0  0  3  0  0  0  0  0  0
  189.7590  177.5940  137.7700 C   0  0  0  0  0  2  0  0  0  0  0  0
  187.8880  178.4960  138.9550 N   0  0  0  0  0  0  0  0  0  0  0  0
  188.6960  176.5290  137.8210 C   0  0  0  0  0  2  0  0  0  0  0  0
  189.3410  178.5840  138.8280 C   0  0  0  0  0  2  0  0  0  0  0  0
  187.4690  177.2270  138.3680 C   0  0  0  0  0  2  0  0  0  0  0  0
  185.2720  179.4900  139.6370 O   0  0  0  0  0  1  0  0  0  0  0  0
  185.9250  178.7510  140.6240 C   0  0  2  0  0  3  0  0  0  0  0  0
  185.6390  179.3300  142.0020 C   0  0  0  0  0  2  0  0  0  0  0  0
  184.6120  178.4810  142.7430 C   0  0  2  0  0  3  0  0  0  0  0  0
  181.6360  178.9330  142.9960 C   0  0  0  0  0  2  0  0  0  0  0  0
  183.5830  177.8990  141.7590 C   0  0  0  0  0  2  0  0  0  0  0  0
  184.8450  179.2130  145.1190 C   0  0  0  0  0  1  0  0  0  0  0  0
  183.9790  179.2990  143.8790 C   0  0  2  0  0  3  0  0  0  0  0  0
  182.5720  178.8070  144.2050 C   0  0  0  0  0  2  0  0  0  0  0  0
  182.3520  178.7930  141.6460 C   0  0  0  0  0  2  0  0  0  0  0  0
  188.0560  177.5190  141.2360 C   0  0  0  0  0  2  0  0  0  0  0  0
  189.1440  178.1130  142.1200 C   0  0  0  0  0  2  0  0  0  0  0  0
  187.7580  177.2590  143.9710 C   0  0  0  0  0  3  0  0  0  0  0  0
  190.0250  177.9490  144.6030 C   0  0  2  0  0  0  0  0  0  0  0  0
  188.3330  177.7210  146.3450 C   0  0  0  0  0  0  0  0  0  0  0  0
  188.9490  177.7250  143.5610 C   0  0  0  0  0  0  0  0  0  0  0  0
  191.5430  176.3940  143.2760 C   0  0  0  0  0  1  0  0  0  0  0  0
  189.5690  178.2200  145.9240 O   0  0  0  0  0  0  0  0  0  0  0  0
  191.2850  178.6840  144.2110 C   0  0  0  0  0  2  0  0  0  0  0  0
  187.9330  177.9420  147.5160 O   0  0  0  0  0  0  0  0  0  0  0  0
  187.5000  176.8880  145.4120 C   0  0  0  0  0  2  0  0  0  0  0  0
  191.3480  177.1960  144.5530 C   0  0  1  0  0  3  0  0  0  0  0  0
  1  8  1  0  0  0  0
  1 17  1  1  0  0  0
  2  4  1  0  0  0  0
  2  5  1  0  0  0  0
  3  1  1  0  0  0  0
  4  6  1  0  0  0  0
  5  3  1  0  0  0  0
  6  3  1  0  0  0  0
  8  7  1  6  0  0  0
  8  9  1  0  0  0  0
 10  9  1  6  0  0  0
 10 14  1  0  0  0  0
 11 15  1  0  0  0  0
 12 10  1  0  0  0  0
 14 15  1  0  0  0  0
 14 13  1  1  0  0  0
 16 12  1  0  0  0  0
 16 11  1  0  0  0  0
 17 18  1  0  0  0  0
 18 22  1  0  0  0  0
 19 27  1  0  0  0  0
 20 25  1  6  0  0  0
 20 24  1  0  0  0  0
 21 26  2  0  0  0  0
 22 19  2  0  0  0  0
 22 20  1  0  0  0  0
 24 21  1  0  0  0  0
 25 28  1  0  0  0  0
 27 21  1  0  0  0  0
 28 23  1  6  0  0  0
 28 20  1  0  0  0  0
M  END
>  <MODEL>
1

>  <REMARK>
 VINA RESULT:      -8.5      0.000      0.000
  Name = 
  7 active torsions:
  status: ('A' for Active; 'I' for Inactive)
    1  A    between atoms: C_2  and  C_3
    2  A    between atoms: C_2  and  C_26
    3  A    between atoms: C_10  and  C_13
    4  A    between atoms: C_10  and  C_17
    5  A    between atoms: N_16  and  C_27
    6  A    between atoms: C_17  and  C_27
    7  A    between atoms: C_26  and  C_27
                            x       y       z     vdW  Elec       q    Type
                         _______ _______ _______ _____ _____    ______ ____

>  <TORSDO>
F 7

$$$$
=
 OpenBabel11052413263D

 28 31  0  0  1  0  0  0  0  0999 V2000
  188.5670  177.5470  141.1830 C   0  0  1  0  0  3  0  0  0  0  0  0
  191.4170  176.6420  139.1460 C   0  0  0  0  0  2  0  0  0  0  0  0
  189.5450  177.7830  140.1010 N   0  0  0  0  0  0  0  0  0  0  0  0
  190.1950  176.2460  138.3610 C   0  0  0  0  0  2  0  0  0  0  0  0
  190.8640  177.2390  140.4160 C   0  0  0  0  0  2  0  0  0  0  0  0
  189.0990  177.1660  138.8550 C   0  0  0  0  0  2  0  0  0  0  0  0
  188.7260  175.7280  142.8200 O   0  0  0  0  0  1  0  0  0  0  0  0
  189.1010  177.0430  142.5420 C   0  0  2  0  0  3  0  0  0  0  0  0
  188.7120  177.9640  143.6890 C   0  0  0  0  0  2  0  0  0  0  0  0
  188.3880  177.1600  144.9430 C   0  0  2  0  0  3  0  0  0  0  0  0
  187.2440  178.1440  147.5600 C   0  0  0  0  0  2  0  0  0  0  0  0
  186.8800  177.2070  145.2400 C   0  0  0  0  0  2  0  0  0  0  0  0
  190.5980  176.9330  146.0860 C   0  0  0  0  0  1  0  0  0  0  0  0
  189.2590  177.6420  146.1130 C   0  0  2  0  0  3  0  0  0  0  0  0
  188.5790  177.3930  147.4570 C   0  0  0  0  0  2  0  0  0  0  0  0
  186.5380  178.3340  146.2120 C   0  0  0  0  0  2  0  0  0  0  0  0
  187.6150  178.7220  141.3570 C   0  0  0  0  0  2  0  0  0  0  0  0
  186.2680  178.4090  140.7190 C   0  0  0  0  0  2  0  0  0  0  0  0
  185.3880  179.4380  142.7790 C   0  0  0  0  0  3  0  0  0  0  0  0
  183.6940  178.4510  141.3050 C   0  0  2  0  0  0  0  0  0  0  0  0
  183.1170  178.9000  143.6320 C   0  0  0  0  0  0  0  0  0  0  0  0
  185.1310  178.8170  141.6160 C   0  0  0  0  0  0  0  0  0  0  0  0
  183.8870  179.7920  139.1490 C   0  0  0  0  0  1  0  0  0  0  0  0
  182.8460  178.2420  142.4290 O   0  0  0  0  0  0  0  0  0  0  0  0
  183.4050  177.5560  140.1240 C   0  0  0  0  0  2  0  0  0  0  0  0
  182.3600  178.7330  144.6220 O   0  0  0  0  0  0  0  0  0  0  0  0
  184.2860  179.8380  143.7310 C   0  0  0  0  0  2  0  0  0  0  0  0
  182.9750  179.0220  140.0900 C   0  0  1  0  0  3  0  0  0  0  0  0
  1 17  1  1  0  0  0
  1  8  1  0  0  0  0
  2  5  1  0  0  0  0
  3  5  1  0  0  0  0
  3  1  1  0  0  0  0
  4  6  1  0  0  0  0
  4  2  1  0  0  0  0
  6  3  1  0  0  0  0
  8  7  1  1  0  0  0
  8  9  1  0  0  0  0
 10  9  1  6  0  0  0
 10 12  1  0  0  0  0
 10 14  1  0  0  0  0
 12 16  1  0  0  0  0
 14 13  1  1  0  0  0
 14 15  1  0  0  0  0
 15 11  1  0  0  0  0
 16 11  1  0  0  0  0
 18 17  1  0  0  0  0
 18 22  1  0  0  0  0
 19 27  1  0  0  0  0
 20 25  1  6  0  0  0
 20 22  1  0  0  0  0
 20 24  1  0  0  0  0
 21 27  1  0  0  0  0
 21 26  2  0  0  0  0
 22 19  2  0  0  0  0
 24 21  1  0  0  0  0
 28 23  1  6  0  0  0
 28 25  1  0  0  0  0
 28 20  1  0  0  0  0
M  END
>  <MODEL>
2

>  <REMARK>
 VINA RESULT:      -8.5      2.060      5.549
  Name = 
  7 active torsions:
  status: ('A' for Active; 'I' for Inactive)
    1  A    between atoms: C_2  and  C_3
    2  A    between atoms: C_2  and  C_26
    3  A    between atoms: C_10  and  C_13
    4  A    between atoms: C_10  and  C_17
    5  A    between atoms: N_16  and  C_27
    6  A    between atoms: C_17  and  C_27
    7  A    between atoms: C_26  and  C_27
                            x       y       z     vdW  Elec       q    Type
                         _______ _______ _______ _____ _____    ______ ____

>  <TORSDO>
F 7

$$$$
=
 OpenBabel11052413263D

 28 31  0  0  1  0  0  0  0  0999 V2000
  187.7650  178.5690  140.8460 C   0  0  1  0  0  3  0  0  0  0  0  0
  189.9150  177.0000  138.3960 C   0  0  0  0  0  2  0  0  0  0  0  0
  188.4830  178.5230  139.5560 N   0  0  0  0  0  0  0  0  0  0  0  0
  188.5020  176.7170  137.9590 C   0  0  0  0  0  2  0  0  0  0  0  0
  189.7570  177.8150  139.6550 C   0  0  0  0  0  2  0  0  0  0  0  0
  187.6800  177.8490  138.5390 C   0  0  0  0  0  2  0  0  0  0  0  0
  185.6400  179.7060  140.3870 O   0  0  0  0  0  1  0  0  0  0  0  0
  186.2210  178.5120  140.8160 C   0  0  2  0  0  3  0  0  0  0  0  0
  185.6360  178.0830  142.1540 C   0  0  0  0  0  2  0  0  0  0  0  0
  184.5810  179.0760  142.6260 C   0  0  2  0  0  3  0  0  0  0  0  0
  182.7970  178.9040  145.0590 C   0  0  0  0  0  2  0  0  0  0  0  0
  184.9630  179.6600  143.9970 C   0  0  0  0  0  2  0  0  0  0  0  0
  182.5870  178.5300  141.2240 C   0  0  0  0  0  1  0  0  0  0  0  0
  183.1940  178.4140  142.6080 C   0  0  2  0  0  3  0  0  0  0  0  0
  182.2560  179.0510  143.6300 C   0  0  0  0  0  2  0  0  0  0  0  0
  184.3280  178.8680  145.1370 C   0  0  0  0  0  2  0  0  0  0  0  0
  188.3420  177.5880  141.8560 C   0  0  0  0  0  2  0  0  0  0  0  0
  189.2750  178.3090  142.8200 C   0  0  0  0  0  2  0  0  0  0  0  0
  187.8650  177.6270  144.7230 C   0  0  0  0  0  3  0  0  0  0  0  0
  190.2790  177.6000  145.1570 C   0  0  2  0  0  0  0  0  0  0  0  0
  188.7410  177.6120  147.0500 C   0  0  0  0  0  0  0  0  0  0  0  0
  189.1000  177.8070  144.2280 C   0  0  0  0  0  0  0  0  0  0  0  0
  191.1870  175.8780  143.5150 C   0  0  0  0  0  1  0  0  0  0  0  0
  190.0270  177.8110  146.5410 O   0  0  0  0  0  0  0  0  0  0  0  0
  191.6560  178.0150  144.6970 C   0  0  0  0  0  2  0  0  0  0  0  0
  188.5180  177.7790  148.2760 O   0  0  0  0  0  0  0  0  0  0  0  0
  187.6340  177.1580  146.1400 C   0  0  0  0  0  2  0  0  0  0  0  0
  191.3300  176.5330  144.8790 C   0  0  1  0  0  3  0  0  0  0  0  0
  1 17  1  1  0  0  0
  2  5  1  0  0  0  0
  3  5  1  0  0  0  0
  3  1  1  0  0  0  0
  4  2  1  0  0  0  0
  4  6  1  0  0  0  0
  6  3  1  0  0  0  0
  8  7  1  1  0  0  0
  8  1  1  0  0  0  0
  8  9  1  0  0  0  0
 10  9  1  1  0  0  0
 10 12  1  0  0  0  0
 11 16  1  0  0  0  0
 12 16  1  0  0  0  0
 14 13  1  6  0  0  0
 14 10  1  0  0  0  0
 14 15  1  0  0  0  0
 15 11  1  0  0  0  0
 17 18  1  0  0  0  0
 18 22  1  0  0  0  0
 19 27  1  0  0  0  0
 20 25  1  6  0  0  0
 20 24  1  0  0  0  0
 21 26  2  0  0  0  0
 22 19  2  0  0  0  0
 22 20  1  0  0  0  0
 24 21  1  0  0  0  0
 25 28  1  0  0  0  0
 27 21  1  0  0  0  0
 28 23  1  6  0  0  0
 28 20  1  0  0  0  0
M  END
>  <MODEL>
3

>  <REMARK>
 VINA RESULT:      -8.4      0.812      1.583
  Name = 
  7 active torsions:
  status: ('A' for Active; 'I' for Inactive)
    1  A    between atoms: C_2  and  C_3
    2  A    between atoms: C_2  and  C_26
    3  A    between atoms: C_10  and  C_13
    4  A    between atoms: C_10  and  C_17
    5  A    between atoms: N_16  and  C_27
    6  A    between atoms: C_17  and  C_27
    7  A    between atoms: C_26  and  C_27
                            x       y       z     vdW  Elec       q    Type
                         _______ _______ _______ _____ _____    ______ ____

>  <TORSDO>
F 7

$$$$
=
 OpenBabel11052413263D

 28 31  0  0  1  0  0  0  0  0999 V2000
  186.4570  177.9710  142.9650 C   0  0  1  0  0  3  0  0  0  0  0  0
  183.4180  178.8850  144.7030 C   0  0  0  0  0  2  0  0  0  0  0  0
  185.5870  178.9140  143.6980 N   0  0  0  0  0  0  0  0  0  0  0  0
  184.4160  178.5140  145.7670 C   0  0  0  0  0  2  0  0  0  0  0  0
  184.1710  178.7030  143.4090 C   0  0  0  0  0  2  0  0  0  0  0  0
  185.7700  178.7740  145.1400 C   0  0  0  0  0  2  0  0  0  0  0  0
  186.3850  179.2630  140.8820 O   0  0  0  0  0  1  0  0  0  0  0  0
  187.1980  178.4950  141.7150 C   0  0  2  0  0  3  0  0  0  0  0  0
  187.8610  177.3730  140.9290 C   0  0  0  0  0  2  0  0  0  0  0  0
  188.5740  177.9220  139.6980 C   0  0  2  0  0  3  0  0  0  0  0  0
  189.0500  176.5620  137.0430 C   0  0  0  0  0  2  0  0  0  0  0  0
  187.6010  178.0230  138.5120 C   0  0  0  0  0  2  0  0  0  0  0  0
  190.9940  177.5820  140.2160 C   0  0  0  0  0  1  0  0  0  0  0  0
  189.8220  177.0790  139.3970 C   0  0  2  0  0  3  0  0  0  0  0  0
  190.1830  177.1230  137.9140 C   0  0  0  0  0  2  0  0  0  0  0  0
  187.6530  176.7710  137.6400 C   0  0  0  0  0  2  0  0  0  0  0  0
  187.3940  177.2160  143.8970 C   0  0  0  0  0  2  0  0  0  0  0  0
  188.7180  177.9580  144.0290 C   0  0  0  0  0  2  0  0  0  0  0  0
  189.0750  177.1490  146.3300 C   0  0  0  0  0  3  0  0  0  0  0  0
  191.0490  177.0520  144.8770 C   0  0  2  0  0  0  0  0  0  0  0  0
  191.3560  176.9380  147.2940 C   0  0  0  0  0  0  0  0  0  0  0  0
  189.5800  177.3490  145.1020 C   0  0  0  0  0  0  0  0  0  0  0  0
  190.3740  175.4530  143.0150 C   0  0  0  0  0  1  0  0  0  0  0  0
  191.8890  177.1580  146.0210 O   0  0  0  0  0  0  0  0  0  0  0  0
  191.6940  177.4820  143.5820 C   0  0  0  0  0  2  0  0  0  0  0  0
  192.0980  177.0110  148.3060 O   0  0  0  0  0  0  0  0  0  0  0  0
  189.9070  176.5730  147.4510 C   0  0  0  0  0  2  0  0  0  0  0  0
  191.5010  175.9960  143.8780 C   0  0  1  0  0  3  0  0  0  0  0  0
  1  3  1  0  0  0  0
  1 17  1  1  0  0  0
  2  4  1  0  0  0  0
  3  6  1  0  0  0  0
  5  3  1  0  0  0  0
  5  2  1  0  0  0  0
  6  4  1  0  0  0  0
  8  7  1  6  0  0  0
  8  1  1  0  0  0  0
  9  8  1  0  0  0  0
 10  9  1  1  0  0  0
 11 16  1  0  0  0  0
 11 15  1  0  0  0  0
 12 10  1  0  0  0  0
 14 10  1  0  0  0  0
 14 13  1  1  0  0  0
 15 14  1  0  0  0  0
 16 12  1  0  0  0  0
 17 18  1  0  0  0  0
 18 22  1  0  0  0  0
 19 27  1  0  0  0  0
 20 25  1  6  0  0  0
 20 22  1  0  0  0  0
 20 24  1  0  0  0  0
 21 27  1  0  0  0  0
 21 26  2  0  0  0  0
 22 19  2  0  0  0  0
 24 21  1  0  0  0  0
 25 28  1  0  0  0  0
 28 23  1  6  0  0  0
 28 20  1  0  0  0  0
M  END
>  <MODEL>
4

>  <REMARK>
 VINA RESULT:      -7.9      1.871      5.419
  Name = 
  7 active torsions:
  status: ('A' for Active; 'I' for Inactive)
    1  A    between atoms: C_2  and  C_3
    2  A    between atoms: C_2  and  C_26
    3  A    between atoms: C_10  and  C_13
    4  A    between atoms: C_10  and  C_17
    5  A    between atoms: N_16  and  C_27
    6  A    between atoms: C_17  and  C_27
    7  A    between atoms: C_26  and  C_27
                            x       y       z     vdW  Elec       q    Type
                         _______ _______ _______ _____ _____    ______ ____

>  <TORSDO>
F 7

$$$$
=
 OpenBabel11052413263D

 28 31  0  0  1  0  0  0  0  0999 V2000
  186.4120  177.8350  145.4670 C   0  0  1  0  0  3  0  0  0  0  0  0
  189.1170  177.3500  147.8200 C   0  0  0  0  0  2  0  0  0  0  0  0
  186.9840  177.3510  146.7400 N   0  0  0  0  0  0  0  0  0  0  0  0
  188.3780  178.5800  148.2750 C   0  0  0  0  0  2  0  0  0  0  0  0
  188.3650  176.8990  146.5930 C   0  0  0  0  0  2  0  0  0  0  0  0
  186.9690  178.4060  147.7500 C   0  0  0  0  0  2  0  0  0  0  0  0
  184.1940  178.5620  146.2200 O   0  0  0  0  0  1  0  0  0  0  0  0
  185.3440  178.9500  145.5320 C   0  0  2  0  0  3  0  0  0  0  0  0
  184.9870  179.4830  144.1520 C   0  0  0  0  0  2  0  0  0  0  0  0
  184.1010  178.4950  143.4020 C   0  0  2  0  0  3  0  0  0  0  0  0
  182.9370  178.7510  140.6260 C   0  0  0  0  0  2  0  0  0  0  0  0
  184.8130  177.9840  142.1380 C   0  0  0  0  0  2  0  0  0  0  0  0
  181.8180  178.9390  144.3130 C   0  0  0  0  0  1  0  0  0  0  0  0
  182.7310  179.1310  143.1190 C   0  0  2  0  0  3  0  0  0  0  0  0
  182.0790  178.5270  141.8780 C   0  0  0  0  0  2  0  0  0  0  0  0
  184.4430  178.8170  140.9140 C   0  0  0  0  0  2  0  0  0  0  0  0
  187.4910  178.1520  144.4410 C   0  0  0  0  0  2  0  0  0  0  0  0
  187.9230  176.8830  143.7190 C   0  0  0  0  0  2  0  0  0  0  0  0
  188.1060  177.9700  141.5140 C   0  0  0  0  0  3  0  0  0  0  0  0
  190.0320  176.5930  142.1570 C   0  0  2  0  0  0  0  0  0  0  0  0
  189.7340  177.1830  139.8090 C   0  0  0  0  0  0  0  0  0  0  0  0
  188.6770  177.2030  142.4570 C   0  0  0  0  0  0  0  0  0  0  0  0
  190.9320  177.7230  144.2540 C   0  0  0  0  0  1  0  0  0  0  0  0
  190.3270  176.3740  140.7820 O   0  0  0  0  0  0  0  0  0  0  0  0
  190.5900  175.5500  143.0940 C   0  0  0  0  0  2  0  0  0  0  0  0
  190.0060  177.0050  138.5940 O   0  0  0  0  0  0  0  0  0  0  0  0
  188.8060  178.2930  140.2150 C   0  0  0  0  0  2  0  0  0  0  0  0
  191.2550  176.9230  143.0030 C   0  0  1  0  0  3  0  0  0  0  0  0
  1 17  1  6  0  0  0
  1  8  1  0  0  0  0
  1  3  1  0  0  0  0
  2  4  1  0  0  0  0
  3  6  1  0  0  0  0
  5  3  1  0  0  0  0
  5  2  1  0  0  0  0
  6  4  1  0  0  0  0
  8  7  1  6  0  0  0
  9  8  1  0  0  0  0
 10  9  1  6  0  0  0
 11 16  1  0  0  0  0
 11 15  1  0  0  0  0
 12 10  1  0  0  0  0
 14 10  1  0  0  0  0
 14 13  1  1  0  0  0
 15 14  1  0  0  0  0
 16 12  1  0  0  0  0
 18 17  1  0  0  0  0
 19 22  2  0  0  0  0
 20 22  1  0  0  0  0
 20 28  1  0  0  0  0
 20 25  1  1  0  0  0
 21 27  1  0  0  0  0
 21 24  1  0  0  0  0
 22 18  1  0  0  0  0
 24 20  1  0  0  0  0
 26 21  2  0  0  0  0
 27 19  1  0  0  0  0
 28 25  1  0  0  0  0
 28 23  1  1  0  0  0
M  END
>  <MODEL>
5

>  <REMARK>
 VINA RESULT:      -7.9      2.518      5.369
  Name = 
  7 active torsions:
  status: ('A' for Active; 'I' for Inactive)
    1  A    between atoms: C_2  and  C_3
    2  A    between atoms: C_2  and  C_26
    3  A    between atoms: C_10  and  C_13
    4  A    between atoms: C_10  and  C_17
    5  A    between atoms: N_16  and  C_27
    6  A    between atoms: C_17  and  C_27
    7  A    between atoms: C_26  and  C_27
                            x       y       z     vdW  Elec       q    Type
                         _______ _______ _______ _____ _____    ______ ____

>  <TORSDO>
F 7

$$$$
=
 OpenBabel11052413263D

 28 31  0  0  1  0  0  0  0  0999 V2000
  185.7860  178.8510  142.1700 C   0  0  1  0  0  3  0  0  0  0  0  0
  184.1960  178.2400  138.9790 C   0  0  0  0  0  2  0  0  0  0  0  0
  184.7790  179.1200  141.1230 N   0  0  0  0  0  0  0  0  0  0  0  0
  183.3690  177.5150  140.0070 C   0  0  0  0  0  2  0  0  0  0  0  0
  185.2990  178.8860  139.7790 C   0  0  0  0  0  2  0  0  0  0  0  0
  183.6070  178.2670  141.2990 C   0  0  0  0  0  2  0  0  0  0  0  0
  185.0020  179.5870  144.3740 O   0  0  0  0  0  1  0  0  0  0  0  0
  185.2800  178.4740  143.5800 C   0  0  2  0  0  3  0  0  0  0  0  0
  186.2340  177.5300  144.2980 C   0  0  0  0  0  2  0  0  0  0  0  0
  186.9640  178.2520  145.4250 C   0  0  2  0  0  3  0  0  0  0  0  0
  188.9700  177.1280  147.3840 C   0  0  0  0  0  2  0  0  0  0  0  0
  188.4810  178.2510  145.1730 C   0  0  0  0  0  2  0  0  0  0  0  0
  185.2930  178.2900  147.2810 C   0  0  0  0  0  1  0  0  0  0  0  0
  186.5670  177.6430  146.7790 C   0  0  2  0  0  3  0  0  0  0  0  0
  187.6720  177.8220  147.8180 C   0  0  0  0  0  2  0  0  0  0  0  0
  189.1600  177.0720  145.8630 C   0  0  0  0  0  2  0  0  0  0  0  0
  186.8680  177.8950  141.6890 C   0  0  0  0  0  2  0  0  0  0  0  0
  188.2390  178.5470  141.8020 C   0  0  0  0  0  2  0  0  0  0  0  0
  189.1110  178.4080  139.5010 C   0  0  0  0  0  3  0  0  0  0  0  0
  190.1800  176.8970  141.1090 C   0  0  2  0  0  0  0  0  0  0  0  0
  190.4240  176.4460  138.7240 C   0  0  0  0  0  0  0  0  0  0  0  0
  189.1920  177.9960  140.7760 C   0  0  0  0  0  0  0  0  0  0  0  0
  191.2390  178.4570  142.8200 C   0  0  0  0  0  1  0  0  0  0  0  0
  190.5030  176.0050  140.0480 O   0  0  0  0  0  0  0  0  0  0  0  0
  190.1320  176.2570  142.4760 C   0  0  0  0  0  2  0  0  0  0  0  0
  190.7260  175.6680  137.7840 O   0  0  0  0  0  0  0  0  0  0  0  0
  190.0200  177.8620  138.4260 C   0  0  0  0  0  2  0  0  0  0  0  0
  191.3250  177.1290  142.0860 C   0  0  1  0  0  3  0  0  0  0  0  0
  1 17  1  6  0  0  0
  1  8  1  0  0  0  0
  2  5  1  0  0  0  0
  2  4  1  0  0  0  0
  3  6  1  0  0  0  0
  3  1  1  0  0  0  0
  4  6  1  0  0  0  0
  5  3  1  0  0  0  0
  8  9  1  0  0  0  0
  8  7  1  1  0  0  0
 10  9  1  6  0  0  0
 10 14  1  0  0  0  0
 11 15  1  0  0  0  0
 12 10  1  0  0  0  0
 12 16  1  0  0  0  0
 14 13  1  1  0  0  0
 14 15  1  0  0  0  0
 16 11  1  0  0  0  0
 17 18  1  0  0  0  0
 19 22  2  0  0  0  0
 20 28  1  0  0  0  0
 20 25  1  1  0  0  0
 21 24  1  0  0  0  0
 22 20  1  0  0  0  0
 22 18  1  0  0  0  0
 24 20  1  0  0  0  0
 26 21  2  0  0  0  0
 27 21  1  0  0  0  0
 27 19  1  0  0  0  0
 28 25  1  0  0  0  0
 28 23  1  1  0  0  0
M  END
>  <MODEL>
6

>  <REMARK>
 VINA RESULT:      -7.8      2.502      5.217
  Name = 
  7 active torsions:
  status: ('A' for Active; 'I' for Inactive)
    1  A    between atoms: C_2  and  C_3
    2  A    between atoms: C_2  and  C_26
    3  A    between atoms: C_10  and  C_13
    4  A    between atoms: C_10  and  C_17
    5  A    between atoms: N_16  and  C_27
    6  A    between atoms: C_17  and  C_27
    7  A    between atoms: C_26  and  C_27
                            x       y       z     vdW  Elec       q    Type
                         _______ _______ _______ _____ _____    ______ ____

>  <TORSDO>
F 7

$$$$
=
 OpenBabel11052413263D

 28 31  0  0  1  0  0  0  0  0999 V2000
  188.8720  177.7980  140.8650 C   0  0  1  0  0  3  0  0  0  0  0  0
  189.1080  177.1000  137.3230 C   0  0  0  0  0  2  0  0  0  0  0  0
  189.5380  177.8610  139.5480 N   0  0  0  0  0  0  0  0  0  0  0  0
  188.5530  178.4940  137.4410 C   0  0  0  0  0  2  0  0  0  0  0  0
  189.3080  176.6590  138.7510 C   0  0  0  0  0  2  0  0  0  0  0  0
  189.0560  179.0030  138.7760 C   0  0  0  0  0  2  0  0  0  0  0  0
  191.0310  177.2260  141.8770 O   0  0  0  0  0  1  0  0  0  0  0  0
  189.7650  177.7550  142.1250 C   0  0  2  0  0  3  0  0  0  0  0  0
  189.0950  177.0200  143.2780 C   0  0  0  0  0  2  0  0  0  0  0  0
  189.2850  177.7790  144.5860 C   0  0  2  0  0  3  0  0  0  0  0  0
  190.4630  176.7770  147.1820 C   0  0  0  0  0  2  0  0  0  0  0  0
  190.7800  177.8890  144.9330 C   0  0  0  0  0  2  0  0  0  0  0  0
  187.0330  177.6770  145.6610 C   0  0  0  0  0  1  0  0  0  0  0  0
  188.4450  177.1280  145.6950 C   0  0  2  0  0  3  0  0  0  0  0  0
  189.0520  177.3720  147.0740 C   0  0  0  0  0  2  0  0  0  0  0  0
  191.2240  176.7530  145.8500 C   0  0  0  0  0  2  0  0  0  0  0  0
  187.7680  178.8380  140.9960 C   0  0  0  0  0  2  0  0  0  0  0  0
  186.4200  178.2240  140.6430 C   0  0  0  0  0  2  0  0  0  0  0  0
  185.6800  179.2930  142.7380 C   0  0  0  0  0  3  0  0  0  0  0  0
  183.8760  178.4150  141.3260 C   0  0  2  0  0  0  0  0  0  0  0  0
  183.4140  178.8860  143.6740 C   0  0  0  0  0  0  0  0  0  0  0  0
  185.3430  178.6940  141.5840 C   0  0  0  0  0  0  0  0  0  0  0  0
  184.0670  179.7520  139.1680 C   0  0  0  0  0  1  0  0  0  0  0  0
  183.0600  178.2510  142.4800 O   0  0  0  0  0  0  0  0  0  0  0  0
  183.4900  177.5440  140.1550 C   0  0  0  0  0  2  0  0  0  0  0  0
  182.6860  178.7600  144.6920 O   0  0  0  0  0  0  0  0  0  0  0  0
  184.6400  179.7530  143.7310 C   0  0  0  0  0  2  0  0  0  0  0  0
  183.1470  179.0330  140.1410 C   0  0  1  0  0  3  0  0  0  0  0  0
  1 17  1  1  0  0  0
  1  8  1  0  0  0  0
  2  4  1  0  0  0  0
  2  5  1  0  0  0  0
  3  1  1  0  0  0  0
  4  6  1  0  0  0  0
  5  3  1  0  0  0  0
  6  3  1  0  0  0  0
  8  7  1  6  0  0  0
  8  9  1  0  0  0  0
 10  9  1  6  0  0  0
 10 12  1  0  0  0  0
 10 14  1  0  0  0  0
 12 16  1  0  0  0  0
 14 13  1  1  0  0  0
 14 15  1  0  0  0  0
 15 11  1  0  0  0  0
 16 11  1  0  0  0  0
 18 17  1  0  0  0  0
 18 22  1  0  0  0  0
 19 27  1  0  0  0  0
 20 25  1  6  0  0  0
 20 22  1  0  0  0  0
 20 24  1  0  0  0  0
 21 27  1  0  0  0  0
 21 26  2  0  0  0  0
 22 19  2  0  0  0  0
 24 21  1  0  0  0  0
 28 23  1  6  0  0  0
 28 25  1  0  0  0  0
 28 20  1  0  0  0  0
M  END
>  <MODEL>
7

>  <REMARK>
 VINA RESULT:      -7.7      1.961      5.855
  Name = 
  7 active torsions:
  status: ('A' for Active; 'I' for Inactive)
    1  A    between atoms: C_2  and  C_3
    2  A    between atoms: C_2  and  C_26
    3  A    between atoms: C_10  and  C_13
    4  A    between atoms: C_10  and  C_17
    5  A    between atoms: N_16  and  C_27
    6  A    between atoms: C_17  and  C_27
    7  A    between atoms: C_26  and  C_27
                            x       y       z     vdW  Elec       q    Type
                         _______ _______ _______ _____ _____    ______ ____

>  <TORSDO>
F 7

$$$$
=
 OpenBabel11052413263D

 28 31  0  0  1  0  0  0  0  0999 V2000
  187.9820  178.1560  142.4240 C   0  0  1  0  0  3  0  0  0  0  0  0
  190.5530  176.7470  140.3050 C   0  0  0  0  0  2  0  0  0  0  0  0
  189.1380  178.2510  141.5090 N   0  0  0  0  0  0  0  0  0  0  0  0
  189.4200  177.1330  139.3920 C   0  0  0  0  0  2  0  0  0  0  0  0
  190.0730  177.1420  141.6790 C   0  0  0  0  0  2  0  0  0  0  0  0
  188.6990  178.2510  140.1160 C   0  0  0  0  0  2  0  0  0  0  0  0
  186.3260  179.6260  141.3690 O   0  0  0  0  0  1  0  0  0  0  0  0
  186.5700  178.3290  141.8230 C   0  0  2  0  0  3  0  0  0  0  0  0
  185.4780  177.8860  142.7870 C   0  0  0  0  0  2  0  0  0  0  0  0
  184.3630  178.9230  142.8560 C   0  0  2  0  0  3  0  0  0  0  0  0
  181.7380  178.7610  144.3430 C   0  0  0  0  0  2  0  0  0  0  0  0
  184.1780  179.4220  144.2990 C   0  0  0  0  0  2  0  0  0  0  0  0
  183.0920  178.5650  140.7350 C   0  0  0  0  0  1  0  0  0  0  0  0
  183.0780  178.3520  142.2360 C   0  0  2  0  0  3  0  0  0  0  0  0
  181.8320  179.0030  142.8310 C   0  0  0  0  0  2  0  0  0  0  0  0
  183.1030  178.6240  145.0310 C   0  0  0  0  0  2  0  0  0  0  0  0
  188.0630  176.9290  143.3210 C   0  0  0  0  0  2  0  0  0  0  0  0
  187.8700  177.3270  144.7780 C   0  0  0  0  0  2  0  0  0  0  0  0
  190.3320  177.3980  144.8860 C   0  0  0  0  0  3  0  0  0  0  0  0
  189.2120  176.9180  147.0150 C   0  0  2  0  0  0  0  0  0  0  0  0
  191.5800  176.3800  146.7790 C   0  0  0  0  0  0  0  0  0  0  0  0
  189.1670  177.2570  145.5390 C   0  0  0  0  0  0  0  0  0  0  0  0
  187.8190  179.0000  147.4700 C   0  0  0  0  0  1  0  0  0  0  0  0
  190.3690  176.2190  147.4590 O   0  0  0  0  0  0  0  0  0  0  0  0
  187.9340  176.5290  147.7180 C   0  0  0  0  0  2  0  0  0  0  0  0
  192.6090  175.7790  147.1790 O   0  0  0  0  0  0  0  0  0  0  0  0
  191.6610  177.3030  145.5960 C   0  0  0  0  0  2  0  0  0  0  0  0
  188.6180  177.8510  148.0620 C   0  0  1  0  0  3  0  0  0  0  0  0
  1 17  1  6  0  0  0
  2  5  1  0  0  0  0
  3  5  1  0  0  0  0
  3  1  1  0  0  0  0
  4  6  1  0  0  0  0
  4  2  1  0  0  0  0
  6  3  1  0  0  0  0
  8  7  1  1  0  0  0
  8  1  1  0  0  0  0
  8  9  1  0  0  0  0
 10  9  1  1  0  0  0
 10 12  1  0  0  0  0
 11 16  1  0  0  0  0
 12 16  1  0  0  0  0
 14 13  1  6  0  0  0
 14 15  1  0  0  0  0
 14 10  1  0  0  0  0
 15 11  1  0  0  0  0
 17 18  1  0  0  0  0
 18 22  1  0  0  0  0
 19 22  2  0  0  0  0
 19 27  1  0  0  0  0
 20 24  1  0  0  0  0
 20 25  1  1  0  0  0
 20 28  1  0  0  0  0
 21 26  2  0  0  0  0
 21 24  1  0  0  0  0
 22 20  1  0  0  0  0
 25 28  1  0  0  0  0
 27 21  1  0  0  0  0
 28 23  1  6  0  0  0
M  END
>  <MODEL>
8

>  <REMARK>
 VINA RESULT:      -7.5      1.689      3.194
  Name = 
  7 active torsions:
  status: ('A' for Active; 'I' for Inactive)
    1  A    between atoms: C_2  and  C_3
    2  A    between atoms: C_2  and  C_26
    3  A    between atoms: C_10  and  C_13
    4  A    between atoms: C_10  and  C_17
    5  A    between atoms: N_16  and  C_27
    6  A    between atoms: C_17  and  C_27
    7  A    between atoms: C_26  and  C_27
                            x       y       z     vdW  Elec       q    Type
                         _______ _______ _______ _____ _____    ______ ____

>  <TORSDO>
F 7

$$$$
=
 OpenBabel11052413263D

 28 31  0  0  1  0  0  0  0  0999 V2000
  187.2570  178.1420  139.9440 C   0  0  1  0  0  3  0  0  0  0  0  0
  184.2170  177.9070  137.9960 C   0  0  0  0  0  2  0  0  0  0  0  0
  186.1400  178.7150  139.1650 N   0  0  0  0  0  0  0  0  0  0  0  0
  183.7920  178.2270  139.4040 C   0  0  0  0  0  2  0  0  0  0  0  0
  185.7220  177.8430  138.0690 C   0  0  0  0  0  2  0  0  0  0  0  0
  184.9760  178.9430  140.0170 C   0  0  0  0  0  2  0  0  0  0  0  0
  188.7880  179.2630  138.3900 O   0  0  0  0  0  1  0  0  0  0  0  0
  188.6820  178.2680  139.3620 C   0  0  2  0  0  3  0  0  0  0  0  0
  189.2030  176.9410  138.8260 C   0  0  0  0  0  2  0  0  0  0  0  0
  190.5700  177.1190  138.1770 C   0  0  2  0  0  3  0  0  0  0  0  0
  192.4820  174.9860  137.2150 C   0  0  0  0  0  2  0  0  0  0  0  0
  190.5620  176.5630  136.7430 C   0  0  0  0  0  2  0  0  0  0  0  0
  192.0990  177.5030  140.1140 C   0  0  0  0  0  1  0  0  0  0  0  0
  191.6570  176.4990  139.0680 C   0  0  2  0  0  3  0  0  0  0  0  0
  192.8650  176.0530  138.2490 C   0  0  0  0  0  2  0  0  0  0  0  0
  191.0410  175.1140  136.7040 C   0  0  0  0  0  2  0  0  0  0  0  0
  187.2090  178.5650  141.4050 C   0  0  0  0  0  2  0  0  0  0  0  0
  188.5210  178.2210  142.0970 C   0  0  0  0  0  2  0  0  0  0  0  0
  187.0470  177.5970  143.9720 C   0  0  0  0  0  3  0  0  0  0  0  0
  189.4250  177.7920  144.5410 C   0  0  2  0  0  0  0  0  0  0  0  0
  187.7740  177.8470  146.3360 C   0  0  0  0  0  0  0  0  0  0  0  0
  188.2950  177.8280  143.5320 C   0  0  0  0  0  0  0  0  0  0  0  0
  190.5550  176.0120  143.1140 C   0  0  0  0  0  1  0  0  0  0  0  0
  189.0720  178.1000  145.8850 O   0  0  0  0  0  0  0  0  0  0  0  0
  190.7950  178.2710  144.1250 C   0  0  0  0  0  2  0  0  0  0  0  0
  187.4630  178.1010  147.5270 O   0  0  0  0  0  0  0  0  0  0  0  0
  186.7620  177.2340  145.4090 C   0  0  0  0  0  2  0  0  0  0  0  0
  190.5650  176.7890  144.4190 C   0  0  1  0  0  3  0  0  0  0  0  0
  1 17  1  1  0  0  0
  2  5  1  0  0  0  0
  2  4  1  0  0  0  0
  3  1  1  0  0  0  0
  3  6  1  0  0  0  0
  4  6  1  0  0  0  0
  5  3  1  0  0  0  0
  8  7  1  6  0  0  0
  8  1  1  0  0  0  0
  9  8  1  0  0  0  0
 10  9  1  1  0  0  0
 10 14  1  0  0  0  0
 11 15  1  0  0  0  0
 12 10  1  0  0  0  0
 14 13  1  1  0  0  0
 15 14  1  0  0  0  0
 16 12  1  0  0  0  0
 16 11  1  0  0  0  0
 17 18  1  0  0  0  0
 18 22  1  0  0  0  0
 19 27  1  0  0  0  0
 20 25  1  6  0  0  0
 20 24  1  0  0  0  0
 21 26  2  0  0  0  0
 22 19  2  0  0  0  0
 22 20  1  0  0  0  0
 24 21  1  0  0  0  0
 25 28  1  0  0  0  0
 27 21  1  0  0  0  0
 28 23  1  6  0  0  0
 28 20  1  0  0  0  0
M  END
>  <MODEL>
9

>  <REMARK>
 VINA RESULT:      -7.5      2.039      5.615
  Name = 
  7 active torsions:
  status: ('A' for Active; 'I' for Inactive)
    1  A    between atoms: C_2  and  C_3
    2  A    between atoms: C_2  and  C_26
    3  A    between atoms: C_10  and  C_13
    4  A    between atoms: C_10  and  C_17
    5  A    between atoms: N_16  and  C_27
    6  A    between atoms: C_17  and  C_27
    7  A    between atoms: C_26  and  C_27
                            x       y       z     vdW  Elec       q    Type
                         _______ _______ _______ _____ _____    ______ ____

>  <TORSDO>
F 7

$$$$
