=
 OpenBabel11052414183D

 34 41  0  0  1  0  0  0  0  0999 V2000
  190.2190  177.1700  145.9090 C   0  0  0  0  0  0  0  0  0  0  0  0
  187.8440  177.5060  146.2910 C   0  0  0  0  0  0  0  0  0  0  0  0
  188.7440  177.4200  144.0270 C   0  0  0  0  0  0  0  0  0  0  0  0
  187.2910  178.1470  142.1970 C   0  0  2  0  0  3  0  0  0  0  0  0
  189.3480  177.2480  148.1080 C   0  0  0  0  0  3  0  0  0  0  0  0
  188.0830  177.4360  147.6280 N   0  0  0  0  0  0  0  0  0  0  0  0
  186.4750  178.2950  144.3510 C   0  0  2  0  0  3  0  0  0  0  0  0
  188.9320  177.3640  145.4020 C   0  0  0  0  0  0  0  0  0  0  0  0
  185.7770  178.2110  142.0210 C   0  0  0  0  0  2  0  0  0  0  0  0
  190.4030  177.1170  147.2540 N   0  0  0  0  0  0  0  0  0  0  0  0
  189.8090  177.2440  143.1410 C   0  0  0  0  0  0  0  0  0  0  0  0
  191.2840  177.0130  145.0100 C   0  0  0  0  0  3  0  0  0  0  0  0
  186.4200  177.6800  145.7600 C   0  0  0  0  0  2  0  0  0  0  0  0
  188.1390  177.3380  141.2170 C   0  0  0  0  0  2  0  0  0  0  0  0
  189.5430  177.2640  141.7030 N   0  0  0  0  0  0  0  0  0  0  0  0
  185.2260  178.3210  143.4720 C   0  0  2  0  0  3  0  0  0  0  0  0
  187.3750  177.4710  143.5070 C   0  0  2  0  0  3  0  0  0  0  0  0
  191.0590  177.0490  143.6600 N   0  0  0  0  0  0  0  0  0  0  0  0
  191.3730  176.5200  138.5010 C   0  0  0  0  0  0  0  0  0  0  0  0
  192.6750  176.8870  138.8440 C   0  0  0  0  0  3  0  0  0  0  0  0
  190.5980  177.1530  140.7230 C   0  0  0  0  0  0  0  0  0  0  0  0
  192.9470  177.3810  140.1230 C   0  0  0  0  0  3  0  0  0  0  0  0
  190.3430  176.6480  139.4370 C   0  0  0  0  0  3  0  0  0  0  0  0
  191.9150  177.5110  141.0570 C   0  0  0  0  0  3  0  0  0  0  0  0
  191.0840  175.9880  137.1450 C   0  0  0  0  0  1  0  0  0  0  0  0
  184.4730  179.6330  143.6420 C   0  0  0  0  0  2  0  0  0  0  0  0
  183.1030  179.4240  144.2770 C   0  0  0  0  0  2  0  0  0  0  0  0
  182.1930  178.5960  143.3780 C   0  0  0  0  0  2  0  0  0  0  0  0
  180.0950  178.6620  144.2330 C   0  0  0  0  0  2  0  0  0  0  0  0
  179.4800  178.6780  142.9540 C   0  0  1  0  0  3  0  0  0  0  0  0
  180.3700  177.9820  141.1230 C   0  0  0  0  0  2  0  0  0  0  0  0
  180.9030  179.3400  141.5500 C   0  0  0  0  0  2  0  0  0  0  0  0
  180.8930  179.3420  143.0750 C   0  0  2  0  0  0  0  0  0  0  0  0
  179.6500  177.5070  142.2170 O   0  0  0  0  0  0  0  0  0  0  0  0
  1 10  2  0  0  0  0
  2  6  1  0  0  0  0
  3  8  1  0  0  0  0
  4 14  1  6  0  0  0
  4 17  1  0  0  0  0
  6  5  2  0  0  0  0
  7 13  1  1  0  0  0
  8  1  1  0  0  0  0
  8  2  2  0  0  0  0
  9  4  1  0  0  0  0
  9 16  1  0  0  0  0
 10  5  1  0  0  0  0
 11 18  1  0  0  0  0
 11  3  2  0  0  0  0
 12  1  1  0  0  0  0
 13  2  1  0  0  0  0
 14 15  1  0  0  0  0
 15 11  1  0  0  0  0
 16 26  1  6  0  0  0
 16  7  1  0  0  0  0
 17  3  1  1  0  0  0
 17  7  1  0  0  0  0
 18 12  2  0  0  0  0
 19 20  2  0  0  0  0
 19 23  1  0  0  0  0
 20 22  1  0  0  0  0
 21 24  1  0  0  0  0
 21 15  1  0  0  0  0
 22 24  2  0  0  0  0
 23 21  2  0  0  0  0
 25 19  1  0  0  0  0
 26 27  1  0  0  0  0
 28 27  1  0  0  0  0
 30 33  1  0  0  0  0
 30 29  1  1  0  0  0
 31 32  1  0  0  0  0
 31 34  1  0  0  0  0
 32 33  1  0  0  0  0
 33 28  1  6  0  0  0
 33 29  1  0  0  0  0
 34 30  1  0  0  0  0
M  END
>  <MODEL>
1

>  <REMARK>
 VINA RESULT:     -10.4      0.000      0.000
  Name = 
  5 active torsions:
  status: ('A' for Active; 'I' for Inactive)
    1  A    between atoms: C_3  and  C_13
    2  A    between atoms: C_3  and  C_17
    3  A    between atoms: C_12  and  N_28
    4  A    between atoms: C_13  and  C_33
    5  A    between atoms: C_17  and  C_29
                            x       y       z     vdW  Elec       q    Type
                         _______ _______ _______ _____ _____    ______ ____

>  <TORSDO>
F 5

$$$$
=
 OpenBabel11052414183D

 34 41  0  0  1  0  0  0  0  0999 V2000
  189.1220  177.1330  146.0850 C   0  0  0  0  0  0  0  0  0  0  0  0
  190.9350  177.0830  144.4710 C   0  0  0  0  0  0  0  0  0  0  0  0
  188.6620  177.6340  143.7800 C   0  0  0  0  0  0  0  0  0  0  0  0
  188.1790  177.6660  141.3820 C   0  0  2  0  0  3  0  0  0  0  0  0
  191.3280  176.6020  146.7610 C   0  0  0  0  0  3  0  0  0  0  0  0
  191.7820  176.7520  145.4810 N   0  0  0  0  0  0  0  0  0  0  0  0
  190.3070  177.0720  142.0480 C   0  0  2  0  0  3  0  0  0  0  0  0
  189.5700  177.2870  144.7720 C   0  0  0  0  0  0  0  0  0  0  0  0
  189.0370  177.8900  140.1400 C   0  0  0  0  0  2  0  0  0  0  0  0
  190.0100  176.7910  147.0560 N   0  0  0  0  0  0  0  0  0  0  0  0
  187.3190  177.8740  144.0760 C   0  0  0  0  0  0  0  0  0  0  0  0
  187.7660  177.3570  146.3690 C   0  0  0  0  0  3  0  0  0  0  0  0
  191.4580  177.2850  143.0460 C   0  0  0  0  0  2  0  0  0  0  0  0
  186.9730  178.5650  141.6470 C   0  0  0  0  0  2  0  0  0  0  0  0
  186.4190  178.2840  142.9990 N   0  0  0  0  0  0  0  0  0  0  0  0
  190.4710  177.4810  140.5860 C   0  0  2  0  0  3  0  0  0  0  0  0
  189.1700  177.9410  142.4400 C   0  0  2  0  0  3  0  0  0  0  0  0
  186.9040  177.7220  145.3700 N   0  0  0  0  0  0  0  0  0  0  0  0
  182.7320  178.6570  142.3520 C   0  0  0  0  0  0  0  0  0  0  0  0
  182.2620  178.9480  143.6340 C   0  0  0  0  0  3  0  0  0  0  0  0
  185.0060  178.4880  143.2120 C   0  0  0  0  0  0  0  0  0  0  0  0
  183.1560  179.0150  144.7060 C   0  0  0  0  0  3  0  0  0  0  0  0
  184.0960  178.4340  142.1430 C   0  0  0  0  0  3  0  0  0  0  0  0
  184.5190  178.7890  144.4950 C   0  0  0  0  0  3  0  0  0  0  0  0
  181.7840  178.5920  141.2100 C   0  0  0  0  0  1  0  0  0  0  0  0
  190.9580  176.3070  139.7480 C   0  0  0  0  0  2  0  0  0  0  0  0
  191.5820  176.7660  138.4350 C   0  0  0  0  0  2  0  0  0  0  0  0
  193.0600  176.4030  138.3630 C   0  0  0  0  0  2  0  0  0  0  0  0
  194.5640  174.7130  138.2450 C   0  0  0  0  0  2  0  0  0  0  0  0
  194.6480  174.7690  136.8290 C   0  0  1  0  0  3  0  0  0  0  0  0
  194.1490  176.4680  135.6080 C   0  0  0  0  0  2  0  0  0  0  0  0
  192.9180  175.7300  136.1080 C   0  0  0  0  0  2  0  0  0  0  0  0
  193.2830  175.1750  137.4810 C   0  0  2  0  0  0  0  0  0  0  0  0
  195.2170  175.9400  136.3300 O   0  0  0  0  0  0  0  0  0  0  0  0
  1 12  1  0  0  0  0
  1 10  2  0  0  0  0
  2  8  2  0  0  0  0
  2  6  1  0  0  0  0
  3 11  2  0  0  0  0
  3  8  1  0  0  0  0
  4  9  1  6  0  0  0
  4 14  1  0  0  0  0
  4 17  1  0  0  0  0
  5 10  1  0  0  0  0
  6  5  2  0  0  0  0
  7 17  1  0  0  0  0
  7 13  1  1  0  0  0
  8  1  1  0  0  0  0
  9 16  1  0  0  0  0
 11 18  1  0  0  0  0
 13  2  1  0  0  0  0
 14 15  1  0  0  0  0
 15 21  1  0  0  0  0
 15 11  1  0  0  0  0
 16 26  1  6  0  0  0
 16  7  1  0  0  0  0
 17  3  1  1  0  0  0
 18 12  2  0  0  0  0
 19 20  1  0  0  0  0
 20 22  2  0  0  0  0
 21 24  2  0  0  0  0
 23 19  2  0  0  0  0
 23 21  1  0  0  0  0
 24 22  1  0  0  0  0
 25 19  1  0  0  0  0
 27 26  1  0  0  0  0
 28 27  1  0  0  0  0
 30 33  1  0  0  0  0
 30 29  1  1  0  0  0
 31 32  1  0  0  0  0
 31 34  1  0  0  0  0
 32 33  1  0  0  0  0
 33 29  1  0  0  0  0
 33 28  1  1  0  0  0
 34 30  1  0  0  0  0
M  END
>  <MODEL>
2

>  <REMARK>
 VINA RESULT:     -10.3      3.290      8.728
  Name = 
  5 active torsions:
  status: ('A' for Active; 'I' for Inactive)
    1  A    between atoms: C_3  and  C_13
    2  A    between atoms: C_3  and  C_17
    3  A    between atoms: C_12  and  N_28
    4  A    between atoms: C_13  and  C_33
    5  A    between atoms: C_17  and  C_29
                            x       y       z     vdW  Elec       q    Type
                         _______ _______ _______ _____ _____    ______ ____

>  <TORSDO>
F 5

$$$$
=
 OpenBabel11052414183D

 34 41  0  0  1  0  0  0  0  0999 V2000
  189.0340  177.1360  146.1660 C   0  0  0  0  0  0  0  0  0  0  0  0
  190.8620  177.1270  144.5680 C   0  0  0  0  0  0  0  0  0  0  0  0
  188.5920  177.6670  143.8640 C   0  0  0  0  0  0  0  0  0  0  0  0
  188.1310  177.7290  141.4610 C   0  0  2  0  0  3  0  0  0  0  0  0
  191.2380  176.6160  146.8540 C   0  0  0  0  0  3  0  0  0  0  0  0
  191.7030  176.7890  145.5820 N   0  0  0  0  0  0  0  0  0  0  0  0
  190.2580  177.1450  142.1400 C   0  0  2  0  0  3  0  0  0  0  0  0
  189.4930  177.3140  144.8600 C   0  0  0  0  0  0  0  0  0  0  0  0
  188.9990  177.9790  140.2310 C   0  0  0  0  0  2  0  0  0  0  0  0
  189.9160  176.7900  147.1400 N   0  0  0  0  0  0  0  0  0  0  0  0
  187.2440  177.8900  144.1500 C   0  0  0  0  0  0  0  0  0  0  0  0
  187.6740  177.3440  146.4400 C   0  0  0  0  0  3  0  0  0  0  0  0
  191.3970  177.3540  143.1520 C   0  0  0  0  0  2  0  0  0  0  0  0
  186.9140  178.6130  141.7280 C   0  0  0  0  0  2  0  0  0  0  0  0
  186.3500  178.3070  143.0710 N   0  0  0  0  0  0  0  0  0  0  0  0
  190.4320  177.5760  140.6850 C   0  0  2  0  0  3  0  0  0  0  0  0
  189.1090  177.9980  142.5330 C   0  0  2  0  0  3  0  0  0  0  0  0
  186.8180  177.7160  145.4380 N   0  0  0  0  0  0  0  0  0  0  0  0
  182.6640  178.6360  142.3970 C   0  0  0  0  0  0  0  0  0  0  0  0
  182.1810  178.9240  143.6740 C   0  0  0  0  0  3  0  0  0  0  0  0
  184.9330  178.4960  143.2730 C   0  0  0  0  0  0  0  0  0  0  0  0
  183.0660  179.0040  144.7520 C   0  0  0  0  0  3  0  0  0  0  0  0
  184.0310  178.4280  142.1980 C   0  0  0  0  0  3  0  0  0  0  0  0
  184.4340  178.7940  144.5520 C   0  0  0  0  0  3  0  0  0  0  0  0
  181.7250  178.5570  141.2480 C   0  0  0  0  0  1  0  0  0  0  0  0
  190.9380  176.4190  139.8350 C   0  0  0  0  0  2  0  0  0  0  0  0
  190.9810  176.7790  138.3540 C   0  0  0  0  0  2  0  0  0  0  0  0
  190.2310  175.7560  137.5100 C   0  0  0  0  0  2  0  0  0  0  0  0
  188.2820  174.8200  136.8340 C   0  0  0  0  0  2  0  0  0  0  0  0
  188.0090  175.8520  135.8990 C   0  0  1  0  0  3  0  0  0  0  0  0
  189.4650  177.1680  135.0190 C   0  0  0  0  0  2  0  0  0  0  0  0
  189.1260  177.5490  136.4510 C   0  0  0  0  0  2  0  0  0  0  0  0
  188.8210  176.2440  137.1780 C   0  0  2  0  0  0  0  0  0  0  0  0
  188.8980  175.9100  134.8260 O   0  0  0  0  0  0  0  0  0  0  0  0
  1 12  1  0  0  0  0
  1 10  2  0  0  0  0
  2  8  2  0  0  0  0
  2  6  1  0  0  0  0
  3 11  2  0  0  0  0
  3  8  1  0  0  0  0
  4  9  1  6  0  0  0
  4 14  1  0  0  0  0
  4 17  1  0  0  0  0
  5 10  1  0  0  0  0
  6  5  2  0  0  0  0
  7 17  1  0  0  0  0
  7 13  1  1  0  0  0
  8  1  1  0  0  0  0
  9 16  1  0  0  0  0
 11 18  1  0  0  0  0
 13  2  1  0  0  0  0
 14 15  1  0  0  0  0
 15 21  1  0  0  0  0
 15 11  1  0  0  0  0
 16 26  1  6  0  0  0
 16  7  1  0  0  0  0
 17  3  1  1  0  0  0
 18 12  2  0  0  0  0
 19 20  1  0  0  0  0
 20 22  2  0  0  0  0
 21 24  2  0  0  0  0
 23 19  2  0  0  0  0
 23 21  1  0  0  0  0
 24 22  1  0  0  0  0
 25 19  1  0  0  0  0
 27 26  1  0  0  0  0
 28 27  1  0  0  0  0
 29 33  1  0  0  0  0
 30 29  1  1  0  0  0
 30 33  1  0  0  0  0
 31 32  1  0  0  0  0
 32 33  1  0  0  0  0
 33 28  1  6  0  0  0
 34 31  1  0  0  0  0
 34 30  1  0  0  0  0
M  END
>  <MODEL>
3

>  <REMARK>
 VINA RESULT:     -10.3      2.603      7.367
  Name = 
  5 active torsions:
  status: ('A' for Active; 'I' for Inactive)
    1  A    between atoms: C_3  and  C_13
    2  A    between atoms: C_3  and  C_17
    3  A    between atoms: C_12  and  N_28
    4  A    between atoms: C_13  and  C_33
    5  A    between atoms: C_17  and  C_29
                            x       y       z     vdW  Elec       q    Type
                         _______ _______ _______ _____ _____    ______ ____

>  <TORSDO>
F 5

$$$$
=
 OpenBabel11052414183D

 34 41  0  0  1  0  0  0  0  0999 V2000
  186.9880  177.7130  137.9670 C   0  0  0  0  0  0  0  0  0  0  0  0
  186.7230  178.5450  140.2330 C   0  0  0  0  0  0  0  0  0  0  0  0
  188.8250  177.5430  139.5080 C   0  0  0  0  0  0  0  0  0  0  0  0
  190.4670  176.9750  141.2310 C   0  0  2  0  0  3  0  0  0  0  0  0
  184.9480  178.6890  138.6650 C   0  0  0  0  0  3  0  0  0  0  0  0
  185.4540  178.9140  139.9130 N   0  0  0  0  0  0  0  0  0  0  0  0
  188.4440  177.8530  141.9130 C   0  0  2  0  0  3  0  0  0  0  0  0
  187.5190  177.9340  139.2390 C   0  0  0  0  0  0  0  0  0  0  0  0
  190.7420  177.5040  142.6360 C   0  0  0  0  0  2  0  0  0  0  0  0
  185.7100  178.0930  137.7040 N   0  0  0  0  0  0  0  0  0  0  0  0
  189.6300  176.9730  138.5210 C   0  0  0  0  0  0  0  0  0  0  0  0
  187.8000  177.1210  136.9870 C   0  0  0  0  0  3  0  0  0  0  0  0
  187.2950  178.8340  141.6230 C   0  0  0  0  0  2  0  0  0  0  0  0
  191.5700  177.0050  140.1750 C   0  0  0  0  0  2  0  0  0  0  0  0
  191.0120  176.6260  138.8490 N   0  0  0  0  0  0  0  0  0  0  0  0
  189.3760  178.0890  143.0990 C   0  0  2  0  0  3  0  0  0  0  0  0
  189.4180  177.9180  140.7950 C   0  0  2  0  0  3  0  0  0  0  0  0
  189.0910  176.7710  137.2810 N   0  0  0  0  0  0  0  0  0  0  0  0
  192.4540  174.0650  136.4990 C   0  0  0  0  0  0  0  0  0  0  0  0
  193.6350  174.6960  136.1060 C   0  0  0  0  0  3  0  0  0  0  0  0
  191.8880  175.9750  137.9030 C   0  0  0  0  0  0  0  0  0  0  0  0
  193.9520  175.9610  136.6090 C   0  0  0  0  0  3  0  0  0  0  0  0
  191.5890  174.7000  137.3950 C   0  0  0  0  0  3  0  0  0  0  0  0
  193.0840  176.5940  137.5040 C   0  0  0  0  0  3  0  0  0  0  0  0
  192.1200  172.7180  135.9710 C   0  0  0  0  0  1  0  0  0  0  0  0
  188.8840  177.3390  144.3300 C   0  0  0  0  0  2  0  0  0  0  0  0
  187.5020  176.7350  144.1110 C   0  0  0  0  0  2  0  0  0  0  0  0
  186.5840  176.9980  145.2980 C   0  0  0  0  0  2  0  0  0  0  0  0
  186.7770  178.2290  147.1910 C   0  0  0  0  0  2  0  0  0  0  0  0
  185.7320  179.1170  146.8250 C   0  0  1  0  0  3  0  0  0  0  0  0
  184.1550  178.6920  145.4250 C   0  0  0  0  0  2  0  0  0  0  0  0
  185.4750  179.0020  144.7380 C   0  0  0  0  0  2  0  0  0  0  0  0
  186.5690  178.4830  145.6640 C   0  0  2  0  0  0  0  0  0  0  0  0
  184.4680  178.5310  146.7730 O   0  0  0  0  0  0  0  0  0  0  0  0
  1  8  1  0  0  0  0
  2 13  1  0  0  0  0
  4 14  1  6  0  0  0
  4  9  1  0  0  0  0
  5  6  2  0  0  0  0
  6  2  1  0  0  0  0
  7 13  1  6  0  0  0
  7 16  1  0  0  0  0
  8  3  1  0  0  0  0
  8  2  2  0  0  0  0
  9 16  1  0  0  0  0
 10  1  2  0  0  0  0
 10  5  1  0  0  0  0
 11 15  1  0  0  0  0
 11  3  2  0  0  0  0
 12 18  2  0  0  0  0
 12  1  1  0  0  0  0
 15 14  1  0  0  0  0
 16 26  1  1  0  0  0
 17  3  1  6  0  0  0
 17  4  1  0  0  0  0
 17  7  1  0  0  0  0
 18 11  1  0  0  0  0
 19 23  1  0  0  0  0
 20 19  2  0  0  0  0
 20 22  1  0  0  0  0
 21 15  1  0  0  0  0
 22 24  2  0  0  0  0
 23 21  2  0  0  0  0
 24 21  1  0  0  0  0
 25 19  1  0  0  0  0
 27 26  1  0  0  0  0
 27 28  1  0  0  0  0
 30 29  1  1  0  0  0
 31 34  1  0  0  0  0
 32 31  1  0  0  0  0
 32 33  1  0  0  0  0
 33 28  1  1  0  0  0
 33 30  1  0  0  0  0
 33 29  1  0  0  0  0
 34 30  1  0  0  0  0
M  END
>  <MODEL>
4

>  <REMARK>
 VINA RESULT:     -10.1      3.388      5.822
  Name = 
  5 active torsions:
  status: ('A' for Active; 'I' for Inactive)
    1  A    between atoms: C_3  and  C_13
    2  A    between atoms: C_3  and  C_17
    3  A    between atoms: C_12  and  N_28
    4  A    between atoms: C_13  and  C_33
    5  A    between atoms: C_17  and  C_29
                            x       y       z     vdW  Elec       q    Type
                         _______ _______ _______ _____ _____    ______ ____

>  <TORSDO>
F 5

$$$$
=
 OpenBabel11052414183D

 34 41  0  0  1  0  0  0  0  0999 V2000
  187.2680  178.2320  140.5040 C   0  0  0  0  0  0  0  0  0  0  0  0
  184.9550  178.9310  140.2680 C   0  0  0  0  0  0  0  0  0  0  0  0
  185.9230  178.5430  142.4720 C   0  0  0  0  0  0  0  0  0  0  0  0
  184.3950  178.4150  144.3780 C   0  0  2  0  0  3  0  0  0  0  0  0
  186.3330  178.6130  138.3630 C   0  0  0  0  0  3  0  0  0  0  0  0
  185.1330  178.9500  138.9200 N   0  0  0  0  0  0  0  0  0  0  0  0
  183.4820  178.7070  142.2790 C   0  0  2  0  0  3  0  0  0  0  0  0
  186.0460  178.5710  141.0880 C   0  0  0  0  0  0  0  0  0  0  0  0
  183.0040  178.9800  144.6490 C   0  0  0  0  0  2  0  0  0  0  0  0
  187.3890  178.2580  139.1510 N   0  0  0  0  0  0  0  0  0  0  0  0
  187.0070  178.2240  143.2910 C   0  0  0  0  0  0  0  0  0  0  0  0
  188.3460  177.8940  141.3360 C   0  0  0  0  0  3  0  0  0  0  0  0
  183.6170  179.3450  140.8860 C   0  0  0  0  0  2  0  0  0  0  0  0
  185.5520  178.7560  145.3150 C   0  0  0  0  0  2  0  0  0  0  0  0
  186.8320  178.2580  144.7420 N   0  0  0  0  0  0  0  0  0  0  0  0
  182.3840  179.1680  143.2340 C   0  0  2  0  0  3  0  0  0  0  0  0
  184.6860  179.0460  143.0760 C   0  0  2  0  0  3  0  0  0  0  0  0
  188.1960  177.9010  142.6970 N   0  0  0  0  0  0  0  0  0  0  0  0
  190.1650  177.1280  146.0710 C   0  0  0  0  0  0  0  0  0  0  0  0
  189.9090  177.0890  147.4420 C   0  0  0  0  0  3  0  0  0  0  0  0
  187.8850  177.8800  145.6550 C   0  0  0  0  0  0  0  0  0  0  0  0
  188.6450  177.4390  147.9260 C   0  0  0  0  0  3  0  0  0  0  0  0
  189.1580  177.5160  145.1840 C   0  0  0  0  0  3  0  0  0  0  0  0
  187.6400  177.8290  147.0370 C   0  0  0  0  0  3  0  0  0  0  0  0
  191.5060  176.7490  145.5550 C   0  0  0  0  0  1  0  0  0  0  0  0
  181.1430  178.2970  143.0920 C   0  0  0  0  0  2  0  0  0  0  0  0
  180.2360  178.7810  141.9670 C   0  0  0  0  0  2  0  0  0  0  0  0
  179.8030  177.6300  141.0670 C   0  0  0  0  0  2  0  0  0  0  0  0
  179.2640  178.1000  138.9170 C   0  0  0  0  0  2  0  0  0  0  0  0
  180.0230  177.0190  138.3980 C   0  0  1  0  0  3  0  0  0  0  0  0
  180.6020  175.2550  139.4850 C   0  0  0  0  0  2  0  0  0  0  0  0
  181.4490  176.4650  139.8450 C   0  0  0  0  0  2  0  0  0  0  0  0
  180.5320  177.6780  139.7240 C   0  0  2  0  0  0  0  0  0  0  0  0
  179.5380  175.7570  138.7380 O   0  0  0  0  0  0  0  0  0  0  0  0
  1  8  2  0  0  0  0
  1 12  1  0  0  0  0
  2 13  1  0  0  0  0
  2  8  1  0  0  0  0
  3 11  2  0  0  0  0
  4  9  1  1  0  0  0
  4 14  1  0  0  0  0
  5  6  1  0  0  0  0
  5 10  2  0  0  0  0
  6  2  2  0  0  0  0
  7 13  1  6  0  0  0
  7 17  1  0  0  0  0
  7 16  1  0  0  0  0
  8  3  1  0  0  0  0
 10  1  1  0  0  0  0
 11 15  1  0  0  0  0
 12 18  2  0  0  0  0
 15 14  1  0  0  0  0
 15 21  1  0  0  0  0
 16 26  1  1  0  0  0
 16  9  1  0  0  0  0
 17  3  1  6  0  0  0
 17  4  1  0  0  0  0
 18 11  1  0  0  0  0
 19 20  1  0  0  0  0
 20 22  2  0  0  0  0
 21 24  2  0  0  0  0
 23 21  1  0  0  0  0
 23 19  2  0  0  0  0
 24 22  1  0  0  0  0
 25 19  1  0  0  0  0
 27 26  1  0  0  0  0
 28 27  1  0  0  0  0
 29 33  1  0  0  0  0
 30 34  1  0  0  0  0
 30 29  1  1  0  0  0
 30 33  1  0  0  0  0
 31 32  1  0  0  0  0
 33 32  1  0  0  0  0
 33 28  1  1  0  0  0
 34 31  1  0  0  0  0
M  END
>  <MODEL>
5

>  <REMARK>
 VINA RESULT:      -9.8      2.468      5.766
  Name = 
  5 active torsions:
  status: ('A' for Active; 'I' for Inactive)
    1  A    between atoms: C_3  and  C_13
    2  A    between atoms: C_3  and  C_17
    3  A    between atoms: C_12  and  N_28
    4  A    between atoms: C_13  and  C_33
    5  A    between atoms: C_17  and  C_29
                            x       y       z     vdW  Elec       q    Type
                         _______ _______ _______ _____ _____    ______ ____

>  <TORSDO>
F 5

$$$$
=
 OpenBabel11052414183D

 34 41  0  0  1  0  0  0  0  0999 V2000
  187.6180  178.3130  139.2910 C   0  0  0  0  0  0  0  0  0  0  0  0
  187.8240  177.8720  141.6700 C   0  0  0  0  0  0  0  0  0  0  0  0
  185.6650  178.4340  140.6860 C   0  0  0  0  0  0  0  0  0  0  0  0
  183.8340  179.0010  142.2080 C   0  0  2  0  0  3  0  0  0  0  0  0
  189.7150  177.7630  140.2420 C   0  0  0  0  0  3  0  0  0  0  0  0
  189.1520  177.6510  141.4810 N   0  0  0  0  0  0  0  0  0  0  0  0
  185.9010  178.5410  143.1260 C   0  0  2  0  0  3  0  0  0  0  0  0
  187.0290  178.2050  140.5520 C   0  0  0  0  0  0  0  0  0  0  0  0
  183.5300  178.6490  143.6620 C   0  0  0  0  0  2  0  0  0  0  0  0
  188.9520  178.0910  139.1600 N   0  0  0  0  0  0  0  0  0  0  0  0
  184.8650  178.7270  139.5800 C   0  0  0  0  0  0  0  0  0  0  0  0
  186.8090  178.6270  138.1890 C   0  0  0  0  0  3  0  0  0  0  0  0
  187.1930  177.7090  143.0550 C   0  0  0  0  0  2  0  0  0  0  0  0
  182.8290  178.6520  141.1130 C   0  0  0  0  0  2  0  0  0  0  0  0
  183.4280  178.9110  139.7750 N   0  0  0  0  0  0  0  0  0  0  0  0
  184.9240  178.3470  144.2840 C   0  0  2  0  0  3  0  0  0  0  0  0
  185.0330  178.1690  141.9820 C   0  0  2  0  0  3  0  0  0  0  0  0
  185.4640  178.8220  138.3550 N   0  0  0  0  0  0  0  0  0  0  0  0
  181.1800  180.9320  137.5350 C   0  0  0  0  0  0  0  0  0  0  0  0
  180.7770  179.9640  136.6150 C   0  0  0  0  0  3  0  0  0  0  0  0
  182.5440  179.2780  138.6930 C   0  0  0  0  0  0  0  0  0  0  0  0
  181.2470  178.6530  136.7290 C   0  0  0  0  0  3  0  0  0  0  0  0
  182.0550  180.5890  138.5700 C   0  0  0  0  0  3  0  0  0  0  0  0
  182.1240  178.3130  137.7640 C   0  0  0  0  0  3  0  0  0  0  0  0
  180.6760  182.3250  137.4190 C   0  0  0  0  0  1  0  0  0  0  0  0
  185.2140  179.3350  145.4060 C   0  0  0  0  0  2  0  0  0  0  0  0
  185.4750  178.6270  146.7310 C   0  0  0  0  0  2  0  0  0  0  0  0
  186.9190  178.8080  147.1840 C   0  0  0  0  0  2  0  0  0  0  0  0
  188.1490  177.8780  148.8430 C   0  0  0  0  0  2  0  0  0  0  0  0
  189.0580  177.2620  147.9440 C   0  0  1  0  0  3  0  0  0  0  0  0
  189.4320  177.8800  145.9180 C   0  0  0  0  0  2  0  0  0  0  0  0
  188.1240  177.1200  146.0620 C   0  0  0  0  0  2  0  0  0  0  0  0
  187.5860  177.4580  147.4480 C   0  0  2  0  0  0  0  0  0  0  0  0
  189.8470  178.1550  147.2190 O   0  0  0  0  0  0  0  0  0  0  0  0
  1  8  1  0  0  0  0
  2 13  1  0  0  0  0
  4 14  1  6  0  0  0
  4  9  1  0  0  0  0
  5  6  2  0  0  0  0
  6  2  1  0  0  0  0
  7 13  1  1  0  0  0
  7 16  1  0  0  0  0
  8  3  1  0  0  0  0
  8  2  2  0  0  0  0
  9 16  1  0  0  0  0
 10  1  2  0  0  0  0
 10  5  1  0  0  0  0
 11 15  1  0  0  0  0
 11  3  2  0  0  0  0
 12 18  2  0  0  0  0
 12  1  1  0  0  0  0
 15 14  1  0  0  0  0
 16 26  1  1  0  0  0
 17  3  1  6  0  0  0
 17  4  1  0  0  0  0
 17  7  1  0  0  0  0
 18 11  1  0  0  0  0
 19 23  1  0  0  0  0
 20 22  1  0  0  0  0
 20 19  2  0  0  0  0
 21 15  1  0  0  0  0
 22 24  2  0  0  0  0
 23 21  2  0  0  0  0
 24 21  1  0  0  0  0
 25 19  1  0  0  0  0
 26 27  1  0  0  0  0
 27 28  1  0  0  0  0
 30 29  1  1  0  0  0
 31 32  1  0  0  0  0
 31 34  1  0  0  0  0
 32 33  1  0  0  0  0
 33 28  1  6  0  0  0
 33 30  1  0  0  0  0
 33 29  1  0  0  0  0
 34 30  1  0  0  0  0
M  END
>  <MODEL>
6

>  <REMARK>
 VINA RESULT:      -9.8      3.406      7.783
  Name = 
  5 active torsions:
  status: ('A' for Active; 'I' for Inactive)
    1  A    between atoms: C_3  and  C_13
    2  A    between atoms: C_3  and  C_17
    3  A    between atoms: C_12  and  N_28
    4  A    between atoms: C_13  and  C_33
    5  A    between atoms: C_17  and  C_29
                            x       y       z     vdW  Elec       q    Type
                         _______ _______ _______ _____ _____    ______ ____

>  <TORSDO>
F 5

$$$$
=
 OpenBabel11052414183D

 34 41  0  0  1  0  0  0  0  0999 V2000
  186.4100  178.5680  140.6660 C   0  0  0  0  0  0  0  0  0  0  0  0
  187.6520  177.8550  142.6270 C   0  0  0  0  0  0  0  0  0  0  0  0
  185.2760  178.3780  142.7760 C   0  0  0  0  0  0  0  0  0  0  0  0
  184.3030  178.6240  145.0080 C   0  0  2  0  0  3  0  0  0  0  0  0
  188.7160  178.0560  140.5160 C   0  0  0  0  0  3  0  0  0  0  0  0
  188.7610  177.7540  141.8470 N   0  0  0  0  0  0  0  0  0  0  0  0
  186.5670  178.2030  144.8550 C   0  0  2  0  0  3  0  0  0  0  0  0
  186.4410  178.2650  142.0280 C   0  0  0  0  0  0  0  0  0  0  0  0
  184.6770  178.0760  146.3830 C   0  0  0  0  0  2  0  0  0  0  0  0
  187.5500  178.4580  139.9340 N   0  0  0  0  0  0  0  0  0  0  0  0
  184.0660  178.7470  142.1850 C   0  0  0  0  0  0  0  0  0  0  0  0
  185.1930  178.9560  140.0850 C   0  0  0  0  0  3  0  0  0  0  0  0
  187.7020  177.4800  144.1100 C   0  0  0  0  0  2  0  0  0  0  0  0
  182.9200  178.3410  144.4260 C   0  0  0  0  0  2  0  0  0  0  0  0
  182.8620  178.8030  143.0120 N   0  0  0  0  0  0  0  0  0  0  0  0
  186.2060  177.8010  146.2830 C   0  0  2  0  0  3  0  0  0  0  0  0
  185.2850  177.9130  144.1660 C   0  0  2  0  0  3  0  0  0  0  0  0
  184.0590  179.0330  140.8480 N   0  0  0  0  0  0  0  0  0  0  0  0
  179.9600  179.3400  140.6790 C   0  0  0  0  0  0  0  0  0  0  0  0
  179.1260  180.1370  141.4650 C   0  0  0  0  0  3  0  0  0  0  0  0
  181.5870  179.2360  142.4900 C   0  0  0  0  0  0  0  0  0  0  0  0
  179.5170  180.4900  142.7600 C   0  0  0  0  0  3  0  0  0  0  0  0
  181.1840  178.8970  141.1870 C   0  0  0  0  0  3  0  0  0  0  0  0
  180.7410  180.0440  143.2670 C   0  0  0  0  0  3  0  0  0  0  0  0
  179.5490  178.9690  139.3010 C   0  0  0  0  0  1  0  0  0  0  0  0
  186.9530  178.6620  147.2930 C   0  0  0  0  0  2  0  0  0  0  0  0
  188.0820  177.8930  147.9690 C   0  0  0  0  0  2  0  0  0  0  0  0
  189.3930  178.0430  147.2070 C   0  0  0  0  0  2  0  0  0  0  0  0
  191.2590  177.1320  148.1140 C   0  0  0  0  0  2  0  0  0  0  0  0
  191.6740  176.5470  146.8900 C   0  0  1  0  0  3  0  0  0  0  0  0
  191.0790  177.1880  144.9250 C   0  0  0  0  0  2  0  0  0  0  0  0
  189.9920  176.3950  145.6320 C   0  0  0  0  0  2  0  0  0  0  0  0
  190.1340  176.7090  147.1170 C   0  0  2  0  0  0  0  0  0  0  0  0
  192.0320  177.4640  145.9030 O   0  0  0  0  0  0  0  0  0  0  0  0
  1  8  1  0  0  0  0
  2 13  1  0  0  0  0
  4 14  1  6  0  0  0
  4  9  1  0  0  0  0
  5  6  1  0  0  0  0
  6  2  2  0  0  0  0
  7 13  1  6  0  0  0
  7 16  1  0  0  0  0
  8  2  1  0  0  0  0
  8  3  2  0  0  0  0
 10  5  2  0  0  0  0
 10  1  1  0  0  0  0
 11  3  1  0  0  0  0
 11 15  1  0  0  0  0
 12  1  2  0  0  0  0
 12 18  1  0  0  0  0
 15 14  1  0  0  0  0
 16  9  1  0  0  0  0
 16 26  1  1  0  0  0
 17  3  1  6  0  0  0
 17  7  1  0  0  0  0
 17  4  1  0  0  0  0
 18 11  2  0  0  0  0
 19 23  2  0  0  0  0
 19 20  1  0  0  0  0
 20 22  2  0  0  0  0
 21 15  1  0  0  0  0
 21 24  2  0  0  0  0
 22 24  1  0  0  0  0
 23 21  1  0  0  0  0
 25 19  1  0  0  0  0
 26 27  1  0  0  0  0
 28 27  1  0  0  0  0
 30 33  1  0  0  0  0
 30 29  1  1  0  0  0
 31 32  1  0  0  0  0
 31 34  1  0  0  0  0
 32 33  1  0  0  0  0
 33 28  1  6  0  0  0
 33 29  1  0  0  0  0
 34 30  1  0  0  0  0
M  END
>  <MODEL>
7

>  <REMARK>
 VINA RESULT:      -9.4      3.293      8.590
  Name = 
  5 active torsions:
  status: ('A' for Active; 'I' for Inactive)
    1  A    between atoms: C_3  and  C_13
    2  A    between atoms: C_3  and  C_17
    3  A    between atoms: C_12  and  N_28
    4  A    between atoms: C_13  and  C_33
    5  A    between atoms: C_17  and  C_29
                            x       y       z     vdW  Elec       q    Type
                         _______ _______ _______ _____ _____    ______ ____

>  <TORSDO>
F 5

$$$$
=
 OpenBabel11052414183D

 34 41  0  0  1  0  0  0  0  0999 V2000
  187.6040  178.3220  139.0620 C   0  0  0  0  0  0  0  0  0  0  0  0
  187.8220  177.9080  141.4450 C   0  0  0  0  0  0  0  0  0  0  0  0
  185.6540  178.4360  140.4620 C   0  0  0  0  0  0  0  0  0  0  0  0
  183.8220  178.9980  141.9840 C   0  0  2  0  0  3  0  0  0  0  0  0
  189.7100  177.8050  140.0120 C   0  0  0  0  0  3  0  0  0  0  0  0
  189.1520  177.7000  141.2540 N   0  0  0  0  0  0  0  0  0  0  0  0
  185.8960  178.5700  142.9000 C   0  0  2  0  0  3  0  0  0  0  0  0
  187.0190  178.2210  140.3260 C   0  0  0  0  0  0  0  0  0  0  0  0
  183.5250  178.6580  143.4420 C   0  0  0  0  0  2  0  0  0  0  0  0
  188.9400  178.1130  138.9290 N   0  0  0  0  0  0  0  0  0  0  0  0
  184.8470  178.7090  139.3560 C   0  0  0  0  0  0  0  0  0  0  0  0
  186.7880  178.6160  137.9590 C   0  0  0  0  0  3  0  0  0  0  0  0
  187.1970  177.7520  142.8340 C   0  0  0  0  0  2  0  0  0  0  0  0
  182.8170  178.6270  140.8950 C   0  0  0  0  0  2  0  0  0  0  0  0
  183.4090  178.8780  139.5530 N   0  0  0  0  0  0  0  0  0  0  0  0
  184.9250  178.3790  144.0630 C   0  0  2  0  0  3  0  0  0  0  0  0
  185.0290  178.1780  141.7630 C   0  0  2  0  0  3  0  0  0  0  0  0
  185.4410  178.7970  138.1270 N   0  0  0  0  0  0  0  0  0  0  0  0
  181.3360  178.6360  136.4220 C   0  0  0  0  0  0  0  0  0  0  0  0
  180.8280  179.9320  136.3350 C   0  0  0  0  0  3  0  0  0  0  0  0
  182.5180  179.2240  138.4700 C   0  0  0  0  0  0  0  0  0  0  0  0
  181.1620  180.8800  137.3070 C   0  0  0  0  0  3  0  0  0  0  0  0
  182.1790  178.2860  137.4810 C   0  0  0  0  0  3  0  0  0  0  0  0
  182.0040  180.5270  138.3660 C   0  0  0  0  0  3  0  0  0  0  0  0
  180.9870  177.6300  135.3870 C   0  0  0  0  0  1  0  0  0  0  0  0
  185.2070  179.3810  145.1740 C   0  0  0  0  0  2  0  0  0  0  0  0
  185.6040  178.6900  146.4740 C   0  0  0  0  0  2  0  0  0  0  0  0
  186.7860  177.7510  146.2680 C   0  0  0  0  0  2  0  0  0  0  0  0
  188.9330  177.8880  145.5580 C   0  0  0  0  0  2  0  0  0  0  0  0
  189.4680  177.6530  146.8510 C   0  0  1  0  0  3  0  0  0  0  0  0
  188.4470  176.6770  148.4740 C   0  0  0  0  0  2  0  0  0  0  0  0
  187.9790  178.1090  148.2690 C   0  0  0  0  0  2  0  0  0  0  0  0
  188.0840  178.3810  146.7720 C   0  0  2  0  0  0  0  0  0  0  0  0
  189.2210  176.3760  147.3550 O   0  0  0  0  0  0  0  0  0  0  0  0
  1  8  1  0  0  0  0
  2 13  1  0  0  0  0
  4 14  1  6  0  0  0
  4  9  1  0  0  0  0
  5  6  2  0  0  0  0
  6  2  1  0  0  0  0
  7 13  1  1  0  0  0
  7 16  1  0  0  0  0
  8  3  1  0  0  0  0
  8  2  2  0  0  0  0
  9 16  1  0  0  0  0
 10  1  2  0  0  0  0
 10  5  1  0  0  0  0
 11 15  1  0  0  0  0
 11  3  2  0  0  0  0
 12 18  2  0  0  0  0
 12  1  1  0  0  0  0
 15 14  1  0  0  0  0
 16 26  1  1  0  0  0
 17  3  1  6  0  0  0
 17  4  1  0  0  0  0
 17  7  1  0  0  0  0
 18 11  1  0  0  0  0
 19 23  1  0  0  0  0
 20 19  2  0  0  0  0
 20 22  1  0  0  0  0
 21 15  1  0  0  0  0
 22 24  2  0  0  0  0
 23 21  2  0  0  0  0
 24 21  1  0  0  0  0
 25 19  1  0  0  0  0
 26 27  1  0  0  0  0
 28 27  1  0  0  0  0
 29 33  1  0  0  0  0
 30 29  1  6  0  0  0
 30 34  1  0  0  0  0
 32 31  1  0  0  0  0
 33 28  1  6  0  0  0
 33 30  1  0  0  0  0
 33 32  1  0  0  0  0
 34 31  1  0  0  0  0
M  END
>  <MODEL>
8

>  <REMARK>
 VINA RESULT:      -9.2      3.479      7.759
  Name = 
  5 active torsions:
  status: ('A' for Active; 'I' for Inactive)
    1  A    between atoms: C_3  and  C_13
    2  A    between atoms: C_3  and  C_17
    3  A    between atoms: C_12  and  N_28
    4  A    between atoms: C_13  and  C_33
    5  A    between atoms: C_17  and  C_29
                            x       y       z     vdW  Elec       q    Type
                         _______ _______ _______ _____ _____    ______ ____

>  <TORSDO>
F 5

$$$$
=
 OpenBabel11052414183D

 34 41  0  0  1  0  0  0  0  0999 V2000
  181.8480  178.6290  141.5020 C   0  0  0  0  0  0  0  0  0  0  0  0
  182.6660  178.8740  143.7750 C   0  0  0  0  0  0  0  0  0  0  0  0
  184.2140  178.5600  141.9180 C   0  0  0  0  0  0  0  0  0  0  0  0
  186.5410  178.0280  142.4550 C   0  0  2  0  0  3  0  0  0  0  0  0
  180.3420  178.9390  143.3020 C   0  0  0  0  0  3  0  0  0  0  0  0
  181.3780  179.0020  144.1900 N   0  0  0  0  0  0  0  0  0  0  0  0
  185.0520  178.2530  144.2040 C   0  0  2  0  0  3  0  0  0  0  0  0
  182.9170  178.6890  142.3980 C   0  0  0  0  0  0  0  0  0  0  0  0
  187.4260  178.2930  143.6700 C   0  0  0  0  0  2  0  0  0  0  0  0
  180.5790  178.7550  141.9720 N   0  0  0  0  0  0  0  0  0  0  0  0
  184.4730  178.4140  140.5540 C   0  0  0  0  0  0  0  0  0  0  0  0
  182.1180  178.4640  140.1350 C   0  0  0  0  0  3  0  0  0  0  0  0
  183.8230  178.9830  144.7720 C   0  0  0  0  0  2  0  0  0  0  0  0
  186.9650  178.5360  141.0780 C   0  0  0  0  0  2  0  0  0  0  0  0
  185.8610  178.3310  140.1020 N   0  0  0  0  0  0  0  0  0  0  0  0
  186.4230  178.4360  144.8510 C   0  0  2  0  0  3  0  0  0  0  0  0
  185.3300  178.7760  142.8440 C   0  0  2  0  0  3  0  0  0  0  0  0
  183.4100  178.3640  139.6950 N   0  0  0  0  0  0  0  0  0  0  0  0
  187.8600  178.0680  136.9260 C   0  0  0  0  0  0  0  0  0  0  0  0
  186.8600  177.7530  136.0040 C   0  0  0  0  0  3  0  0  0  0  0  0
  186.2080  178.1170  138.7170 C   0  0  0  0  0  0  0  0  0  0  0  0
  185.5350  177.6240  136.4290 C   0  0  0  0  0  3  0  0  0  0  0  0
  187.5340  178.2530  138.2720 C   0  0  0  0  0  3  0  0  0  0  0  0
  185.2120  177.8070  137.7770 C   0  0  0  0  0  3  0  0  0  0  0  0
  189.2680  178.2120  136.4740 C   0  0  0  0  0  1  0  0  0  0  0  0
  186.6830  177.3470  145.8850 C   0  0  0  0  0  2  0  0  0  0  0  0
  187.8690  177.6860  146.7790 C   0  0  0  0  0  2  0  0  0  0  0  0
  189.0550  176.7690  146.5030 C   0  0  0  0  0  2  0  0  0  0  0  0
  190.4890  177.3630  144.8520 C   0  0  0  0  0  2  0  0  0  0  0  0
  191.6410  177.0960  145.6370 C   0  0  1  0  0  3  0  0  0  0  0  0
  191.7220  175.7910  147.3450 C   0  0  0  0  0  2  0  0  0  0  0  0
  191.0740  177.1280  147.6650 C   0  0  0  0  0  2  0  0  0  0  0  0
  190.3540  177.5670  146.3950 C   0  0  2  0  0  0  0  0  0  0  0  0
  191.8240  175.7510  145.9560 O   0  0  0  0  0  0  0  0  0  0  0  0
  1 10  2  0  0  0  0
  1  8  1  0  0  0  0
  2  6  1  0  0  0  0
  2 13  1  0  0  0  0
  3  8  1  0  0  0  0
  4 14  1  6  0  0  0
  4 17  1  0  0  0  0
  4  9  1  0  0  0  0
  5  6  2  0  0  0  0
  7 13  1  1  0  0  0
  7 16  1  0  0  0  0
  8  2  2  0  0  0  0
  9 16  1  0  0  0  0
 10  5  1  0  0  0  0
 11  3  2  0  0  0  0
 12  1  1  0  0  0  0
 15 11  1  0  0  0  0
 15 14  1  0  0  0  0
 16 26  1  1  0  0  0
 17  3  1  6  0  0  0
 17  7  1  0  0  0  0
 18 12  2  0  0  0  0
 18 11  1  0  0  0  0
 19 23  1  0  0  0  0
 20 22  1  0  0  0  0
 20 19  2  0  0  0  0
 21 15  1  0  0  0  0
 22 24  2  0  0  0  0
 23 21  2  0  0  0  0
 24 21  1  0  0  0  0
 25 19  1  0  0  0  0
 26 27  1  0  0  0  0
 28 27  1  0  0  0  0
 29 33  1  0  0  0  0
 30 29  1  6  0  0  0
 30 34  1  0  0  0  0
 30 33  1  0  0  0  0
 31 32  1  0  0  0  0
 33 28  1  6  0  0  0
 33 32  1  0  0  0  0
 34 31  1  0  0  0  0
M  END
>  <MODEL>
9

>  <REMARK>
 VINA RESULT:      -9.2      3.890      7.581
  Name = 
  5 active torsions:
  status: ('A' for Active; 'I' for Inactive)
    1  A    between atoms: C_3  and  C_13
    2  A    between atoms: C_3  and  C_17
    3  A    between atoms: C_12  and  N_28
    4  A    between atoms: C_13  and  C_33
    5  A    between atoms: C_17  and  C_29
                            x       y       z     vdW  Elec       q    Type
                         _______ _______ _______ _____ _____    ______ ____

>  <TORSDO>
F 5

$$$$
