=
 OpenBabel11052412423D

 25 27  0  0  0  0  0  0  0  0999 V2000
  187.4030  177.8520  145.8190 C   0  0  0  0  0  0  0  0  0  0  0  0
  186.8720  178.0730  144.5320 C   0  0  0  0  0  0  0  0  0  0  0  0
  185.2150  178.3140  146.7510 C   0  0  0  0  0  3  0  0  0  0  0  0
  188.0560  178.0720  141.0500 N   0  0  0  0  0  2  0  0  0  0  0  0
  184.7230  178.5270  145.5030 N   0  0  0  0  0  0  0  0  0  0  0  0
  184.9860  178.6440  143.1200 C   0  0  0  0  0  0  0  0  0  0  0  0
  183.6150  178.9900  142.9430 N   0  0  0  0  0  1  0  0  0  0  0  0
  187.7300  178.2610  139.6640 C   0  0  0  0  0  0  0  0  0  0  0  0
  187.6540  177.9780  143.4200 N   0  0  0  0  0  0  0  0  0  0  0  0
  186.5570  177.9720  146.9280 C   0  0  0  0  0  3  0  0  0  0  0  0
  185.8170  178.5320  142.0040 C   0  0  0  0  0  3  0  0  0  0  0  0
  187.1670  178.1960  142.1680 C   0  0  0  0  0  0  0  0  0  0  0  0
  185.5100  178.4170  144.3980 C   0  0  0  0  0  0  0  0  0  0  0  0
  186.5580  178.5690  139.3150 O   0  0  0  0  0  0  0  0  0  0  0  0
  188.8150  177.4590  146.0210 C   0  0  0  0  0  0  0  0  0  0  0  0
  191.4920  176.6590  146.3240 C   0  0  0  0  0  3  0  0  0  0  0  0
  189.4170  177.4490  147.3000 C   0  0  0  0  0  0  0  0  0  0  0  0
  190.7500  177.0510  147.4400 C   0  0  0  0  0  3  0  0  0  0  0  0
  190.9060  176.6690  145.0590 C   0  0  0  0  0  3  0  0  0  0  0  0
  188.5630  177.9800  148.7430 Cl  0  0  0  0  0  0  0  0  0  0  0  0
  189.5760  177.0670  144.9090 C   0  0  0  0  0  3  0  0  0  0  0  0
  188.7930  178.0910  138.6160 C   0  0  0  0  0  0  0  0  0  0  0  0
  190.0850  177.6280  139.2630 C   0  0  0  0  0  1  0  0  0  0  0  0
  188.3510  177.0560  137.5980 C   0  0  0  0  0  1  0  0  0  0  0  0
  189.0270  179.2990  137.9570 O   0  0  0  0  0  1  0  0  0  0  0  0
  1 15  1  0  0  0  0
  1 10  1  0  0  0  0
  2  1  2  0  0  0  0
  3 10  2  0  0  0  0
  4 12  1  0  0  0  0
  5  3  1  0  0  0  0
  6 13  1  0  0  0  0
  7  6  1  0  0  0  0
  8  4  1  0  0  0  0
  9  2  1  0  0  0  0
 11 12  1  0  0  0  0
 11  6  2  0  0  0  0
 12  9  2  0  0  0  0
 13  2  1  0  0  0  0
 13  5  2  0  0  0  0
 14  8  2  0  0  0  0
 15 17  1  0  0  0  0
 16 18  1  0  0  0  0
 17 18  2  0  0  0  0
 17 20  1  0  0  0  0
 19 16  2  0  0  0  0
 21 19  1  0  0  0  0
 21 15  2  0  0  0  0
 22 23  1  0  0  0  0
 22  8  1  0  0  0  0
 24 22  1  0  0  0  0
 25 22  1  0  0  0  0
M  END
>  <MODEL>
1

>  <REMARK>
 VINA RESULT:     -10.5      0.000      0.000
  Name = 
  2 active torsions:
  status: ('A' for Active; 'I' for Inactive)
    1  A    between atoms: C_1  and  C_5
    2  A    between atoms: C_2  and  C_15
                            x       y       z     vdW  Elec       q    Type
                         _______ _______ _______ _____ _____    ______ ____

>  <TORSDO>
F 2

$$$$
=
 OpenBabel11052412423D

 25 27  0  0  0  0  0  0  0  0999 V2000
  187.1450  177.7400  144.7440 C   0  0  0  0  0  0  0  0  0  0  0  0
  188.1410  177.6400  143.7520 C   0  0  0  0  0  0  0  0  0  0  0  0
  188.7930  177.0970  146.3990 C   0  0  0  0  0  3  0  0  0  0  0  0
  188.4220  178.0650  140.1100 N   0  0  0  0  0  2  0  0  0  0  0  0
  189.7380  177.0030  145.4280 N   0  0  0  0  0  0  0  0  0  0  0  0
  190.4350  177.1560  143.1360 C   0  0  0  0  0  0  0  0  0  0  0  0
  191.7680  176.7800  143.4710 N   0  0  0  0  0  1  0  0  0  0  0  0
  189.2680  178.0160  138.9510 C   0  0  0  0  0  0  0  0  0  0  0  0
  187.8580  177.8850  142.4420 N   0  0  0  0  0  0  0  0  0  0  0  0
  187.4870  177.4670  146.0750 C   0  0  0  0  0  3  0  0  0  0  0  0
  190.1090  177.4200  141.8050 C   0  0  0  0  0  3  0  0  0  0  0  0
  188.8000  177.7870  141.4650 C   0  0  0  0  0  0  0  0  0  0  0  0
  189.4490  177.2620  144.1240 C   0  0  0  0  0  0  0  0  0  0  0  0
  190.4850  177.7050  139.0560 O   0  0  0  0  0  0  0  0  0  0  0  0
  185.7640  178.1610  144.4220 C   0  0  0  0  0  0  0  0  0  0  0  0
  183.1690  178.9800  143.7170 C   0  0  0  0  0  3  0  0  0  0  0  0
  184.8730  178.6390  145.4090 C   0  0  0  0  0  0  0  0  0  0  0  0
  183.5830  179.0430  145.0480 C   0  0  0  0  0  3  0  0  0  0  0  0
  184.0420  178.5060  142.7370 C   0  0  0  0  0  3  0  0  0  0  0  0
  185.3040  178.6960  147.1130 Cl  0  0  0  0  0  0  0  0  0  0  0  0
  185.3300  178.1000  143.0880 C   0  0  0  0  0  3  0  0  0  0  0  0
  188.7010  178.3400  137.5970 C   0  0  0  0  0  0  0  0  0  0  0  0
  189.4180  177.5320  136.5320 C   0  0  0  0  0  1  0  0  0  0  0  0
  187.2230  178.0010  137.5640 C   0  0  0  0  0  1  0  0  0  0  0  0
  188.8580  179.6980  137.3140 O   0  0  0  0  0  1  0  0  0  0  0  0
  1 10  1  0  0  0  0
  2 13  1  0  0  0  0
  2  1  2  0  0  0  0
  4 12  1  0  0  0  0
  5  3  1  0  0  0  0
  6  7  1  0  0  0  0
  6 13  1  0  0  0  0
  8 14  2  0  0  0  0
  8  4  1  0  0  0  0
  9  2  1  0  0  0  0
 10  3  2  0  0  0  0
 11  6  2  0  0  0  0
 12 11  1  0  0  0  0
 12  9  2  0  0  0  0
 13  5  2  0  0  0  0
 15  1  1  0  0  0  0
 15 17  1  0  0  0  0
 16 18  1  0  0  0  0
 17 20  1  0  0  0  0
 18 17  2  0  0  0  0
 19 21  1  0  0  0  0
 19 16  2  0  0  0  0
 21 15  2  0  0  0  0
 22  8  1  0  0  0  0
 23 22  1  0  0  0  0
 24 22  1  0  0  0  0
 25 22  1  0  0  0  0
M  END
>  <MODEL>
2

>  <REMARK>
 VINA RESULT:     -10.4      1.998      4.456
  Name = 
  2 active torsions:
  status: ('A' for Active; 'I' for Inactive)
    1  A    between atoms: C_1  and  C_5
    2  A    between atoms: C_2  and  C_15
                            x       y       z     vdW  Elec       q    Type
                         _______ _______ _______ _____ _____    ______ ____

>  <TORSDO>
F 2

$$$$
=
 OpenBabel11052412423D

 25 27  0  0  0  0  0  0  0  0999 V2000
  188.9380  177.5670  145.0770 C   0  0  0  0  0  0  0  0  0  0  0  0
  187.5720  177.8650  144.8950 C   0  0  0  0  0  0  0  0  0  0  0  0
  188.5790  177.6020  147.4730 C   0  0  0  0  0  3  0  0  0  0  0  0
  185.2510  178.4480  142.1030 N   0  0  0  0  0  2  0  0  0  0  0  0
  187.2660  177.8920  147.2760 N   0  0  0  0  0  0  0  0  0  0  0  0
  185.3900  178.3300  145.8450 C   0  0  0  0  0  0  0  0  0  0  0  0
  184.5220  178.4990  146.9620 N   0  0  0  0  0  1  0  0  0  0  0  0
  183.9100  178.7540  141.6920 C   0  0  0  0  0  0  0  0  0  0  0  0
  187.0430  178.0140  143.6480 N   0  0  0  0  0  0  0  0  0  0  0  0
  189.4320  177.4330  146.3800 C   0  0  0  0  0  3  0  0  0  0  0  0
  184.8830  178.4710  144.5520 C   0  0  0  0  0  3  0  0  0  0  0  0
  185.7300  178.3100  143.4470 C   0  0  0  0  0  0  0  0  0  0  0  0
  186.7450  178.0270  146.0270 C   0  0  0  0  0  0  0  0  0  0  0  0
  183.0000  178.9340  142.5470 O   0  0  0  0  0  0  0  0  0  0  0  0
  189.8480  177.3550  143.9300 C   0  0  0  0  0  0  0  0  0  0  0  0
  191.5650  176.8550  141.7620 C   0  0  0  0  0  3  0  0  0  0  0  0
  190.8390  178.2970  143.5730 C   0  0  0  0  0  0  0  0  0  0  0  0
  191.6870  178.0400  142.4910 C   0  0  0  0  0  3  0  0  0  0  0  0
  190.5870  175.9230  142.1070 C   0  0  0  0  0  3  0  0  0  0  0  0
  191.0180  179.8340  144.4090 Cl  0  0  0  0  0  0  0  0  0  0  0  0
  189.7350  176.1720  143.1850 C   0  0  0  0  0  3  0  0  0  0  0  0
  183.5810  178.8620  140.2290 C   0  0  0  0  0  0  0  0  0  0  0  0
  183.7400  177.5070  139.5650 C   0  0  0  0  0  1  0  0  0  0  0  0
  182.1500  179.3330  140.0560 C   0  0  0  0  0  1  0  0  0  0  0  0
  184.4340  179.7730  139.6030 O   0  0  0  0  0  1  0  0  0  0  0  0
  1 10  1  0  0  0  0
  2  1  2  0  0  0  0
  2 13  1  0  0  0  0
  4 12  1  0  0  0  0
  5  3  1  0  0  0  0
  6 13  1  0  0  0  0
  6  7  1  0  0  0  0
  8  4  1  0  0  0  0
  8 14  2  0  0  0  0
  9  2  1  0  0  0  0
 10  3  2  0  0  0  0
 11  6  2  0  0  0  0
 12  9  2  0  0  0  0
 12 11  1  0  0  0  0
 13  5  2  0  0  0  0
 15  1  1  0  0  0  0
 16 19  2  0  0  0  0
 16 18  1  0  0  0  0
 17 15  1  0  0  0  0
 17 20  1  0  0  0  0
 18 17  2  0  0  0  0
 19 21  1  0  0  0  0
 21 15  2  0  0  0  0
 22  8  1  0  0  0  0
 23 22  1  0  0  0  0
 24 22  1  0  0  0  0
 25 22  1  0  0  0  0
M  END
>  <MODEL>
3

>  <REMARK>
 VINA RESULT:     -10.2      2.568      3.909
  Name = 
  2 active torsions:
  status: ('A' for Active; 'I' for Inactive)
    1  A    between atoms: C_1  and  C_5
    2  A    between atoms: C_2  and  C_15
                            x       y       z     vdW  Elec       q    Type
                         _______ _______ _______ _____ _____    ______ ____

>  <TORSDO>
F 2

$$$$
=
 OpenBabel11052412423D

 25 27  0  0  0  0  0  0  0  0999 V2000
  190.4770  177.0830  145.2180 C   0  0  0  0  0  0  0  0  0  0  0  0
  189.2320  177.3880  145.8030 C   0  0  0  0  0  0  0  0  0  0  0  0
  191.3680  176.6790  147.4340 C   0  0  0  0  0  3  0  0  0  0  0  0
  185.8800  178.4320  144.7070 N   0  0  0  0  0  2  0  0  0  0  0  0
  190.1610  176.9800  147.9790 N   0  0  0  0  0  0  0  0  0  0  0  0
  187.8610  177.6430  147.7870 C   0  0  0  0  0  0  0  0  0  0  0  0
  187.6850  177.5940  149.2000 N   0  0  0  0  0  1  0  0  0  0  0  0
  184.5420  178.7880  145.0880 C   0  0  0  0  0  0  0  0  0  0  0  0
  188.1640  177.7530  145.0390 N   0  0  0  0  0  0  0  0  0  0  0  0
  191.5440  176.7230  146.0500 C   0  0  0  0  0  3  0  0  0  0  0  0
  186.7890  178.0070  146.9720 C   0  0  0  0  0  3  0  0  0  0  0  0
  186.9540  178.0610  145.5810 C   0  0  0  0  0  0  0  0  0  0  0  0
  189.0970  177.3320  147.2070 C   0  0  0  0  0  0  0  0  0  0  0  0
  184.1990  178.7970  146.3020 O   0  0  0  0  0  0  0  0  0  0  0  0
  190.6720  177.0950  143.7510 C   0  0  0  0  0  0  0  0  0  0  0  0
  191.0340  177.0190  140.9650 C   0  0  0  0  0  3  0  0  0  0  0  0
  191.3640  178.1360  143.0930 C   0  0  0  0  0  0  0  0  0  0  0  0
  191.5370  178.0900  141.7060 C   0  0  0  0  0  3  0  0  0  0  0  0
  190.3480  175.9890  141.6080 C   0  0  0  0  0  3  0  0  0  0  0  0
  191.9780  179.5430  143.9500 Cl  0  0  0  0  0  0  0  0  0  0  0  0
  190.1680  176.0270  142.9920 C   0  0  0  0  0  3  0  0  0  0  0  0
  183.5360  179.1540  144.0330 C   0  0  0  0  0  0  0  0  0  0  0  0
  183.9690  178.5920  142.6920 C   0  0  0  0  0  1  0  0  0  0  0  0
  182.1790  178.5800  144.3950 C   0  0  0  0  0  1  0  0  0  0  0  0
  183.4240  180.5410  143.9250 O   0  0  0  0  0  1  0  0  0  0  0  0
  1  2  2  0  0  0  0
  1 10  1  0  0  0  0
  2 13  1  0  0  0  0
  3  5  1  0  0  0  0
  4  8  1  0  0  0  0
  4 12  1  0  0  0  0
  6  7  1  0  0  0  0
  8 14  2  0  0  0  0
  9 12  2  0  0  0  0
  9  2  1  0  0  0  0
 10  3  2  0  0  0  0
 11  6  2  0  0  0  0
 12 11  1  0  0  0  0
 13  6  1  0  0  0  0
 13  5  2  0  0  0  0
 15  1  1  0  0  0  0
 16 19  2  0  0  0  0
 16 18  1  0  0  0  0
 17 15  1  0  0  0  0
 17 20  1  0  0  0  0
 18 17  2  0  0  0  0
 19 21  1  0  0  0  0
 21 15  2  0  0  0  0
 22 24  1  0  0  0  0
 22  8  1  0  0  0  0
 23 22  1  0  0  0  0
 25 22  1  0  0  0  0
M  END
>  <MODEL>
4

>  <REMARK>
 VINA RESULT:      -9.9      3.113      5.659
  Name = 
  2 active torsions:
  status: ('A' for Active; 'I' for Inactive)
    1  A    between atoms: C_1  and  C_5
    2  A    between atoms: C_2  and  C_15
                            x       y       z     vdW  Elec       q    Type
                         _______ _______ _______ _____ _____    ______ ____

>  <TORSDO>
F 2

$$$$
=
 OpenBabel11052412423D

 25 27  0  0  0  0  0  0  0  0999 V2000
  189.4200  177.3420  144.3350 C   0  0  0  0  0  0  0  0  0  0  0  0
  189.1180  177.5350  142.9720 C   0  0  0  0  0  0  0  0  0  0  0  0
  191.6800  176.7410  143.7020 C   0  0  0  0  0  3  0  0  0  0  0  0
  186.2170  178.4950  140.9260 N   0  0  0  0  0  2  0  0  0  0  0  0
  191.3680  176.9290  142.3930 N   0  0  0  0  0  0  0  0  0  0  0  0
  189.8190  177.5020  140.6510 C   0  0  0  0  0  0  0  0  0  0  0  0
  190.8070  177.2950  139.6460 N   0  0  0  0  0  1  0  0  0  0  0  0
  185.6950  178.7380  139.6100 C   0  0  0  0  0  0  0  0  0  0  0  0
  187.8710  177.9110  142.5730 N   0  0  0  0  0  0  0  0  0  0  0  0
  190.7160  176.9460  144.6900 C   0  0  0  0  0  3  0  0  0  0  0  0
  188.5310  177.8930  140.2810 C   0  0  0  0  0  3  0  0  0  0  0  0
  187.5520  178.0960  141.2620 C   0  0  0  0  0  0  0  0  0  0  0  0
  190.1230  177.3170  142.0050 C   0  0  0  0  0  0  0  0  0  0  0  0
  186.4290  178.6070  138.5930 O   0  0  0  0  0  0  0  0  0  0  0  0
  188.4190  177.5840  145.3960 C   0  0  0  0  0  0  0  0  0  0  0  0
  186.4630  178.0970  147.3490 C   0  0  0  0  0  3  0  0  0  0  0  0
  188.7530  177.5460  146.7690 C   0  0  0  0  0  0  0  0  0  0  0  0
  187.7720  177.8010  147.7330 C   0  0  0  0  0  3  0  0  0  0  0  0
  186.1250  178.1330  145.9970 C   0  0  0  0  0  3  0  0  0  0  0  0
  190.3670  177.1280  147.3300 Cl  0  0  0  0  0  0  0  0  0  0  0  0
  187.0970  177.8780  145.0270 C   0  0  0  0  0  3  0  0  0  0  0  0
  184.2600  179.1530  139.4390 C   0  0  0  0  0  0  0  0  0  0  0  0
  183.6130  178.3270  138.3430 C   0  0  0  0  0  1  0  0  0  0  0  0
  183.5040  178.9340  140.7360 C   0  0  0  0  0  1  0  0  0  0  0  0
  184.1810  180.5030  139.0930 O   0  0  0  0  0  1  0  0  0  0  0  0
  1 10  1  0  0  0  0
  1 15  1  0  0  0  0
  2  1  2  0  0  0  0
  3 10  2  0  0  0  0
  4 12  1  0  0  0  0
  5  3  1  0  0  0  0
  6 13  1  0  0  0  0
  7  6  1  0  0  0  0
  8  4  1  0  0  0  0
  9  2  1  0  0  0  0
 11  6  2  0  0  0  0
 11 12  1  0  0  0  0
 12  9  2  0  0  0  0
 13  5  2  0  0  0  0
 13  2  1  0  0  0  0
 14  8  2  0  0  0  0
 15 17  1  0  0  0  0
 16 18  1  0  0  0  0
 17 20  1  0  0  0  0
 17 18  2  0  0  0  0
 19 16  2  0  0  0  0
 21 15  2  0  0  0  0
 21 19  1  0  0  0  0
 22  8  1  0  0  0  0
 22 24  1  0  0  0  0
 23 22  1  0  0  0  0
 25 22  1  0  0  0  0
M  END
>  <MODEL>
5

>  <REMARK>
 VINA RESULT:      -9.7      2.075      4.470
  Name = 
  2 active torsions:
  status: ('A' for Active; 'I' for Inactive)
    1  A    between atoms: C_1  and  C_5
    2  A    between atoms: C_2  and  C_15
                            x       y       z     vdW  Elec       q    Type
                         _______ _______ _______ _____ _____    ______ ____

>  <TORSDO>
F 2

$$$$
=
 OpenBabel11052412423D

 25 27  0  0  0  0  0  0  0  0999 V2000
  183.4140  178.3180  141.4100 C   0  0  0  0  0  0  0  0  0  0  0  0
  184.2840  178.3010  142.5190 C   0  0  0  0  0  0  0  0  0  0  0  0
  181.6200  179.0030  142.8880 C   0  0  0  0  0  3  0  0  0  0  0  0
  187.8150  177.5410  143.2070 N   0  0  0  0  0  2  0  0  0  0  0  0
  182.4740  178.9770  143.9440 N   0  0  0  0  0  0  0  0  0  0  0  0
  184.6480  178.6130  144.8950 C   0  0  0  0  0  0  0  0  0  0  0  0
  184.1800  178.9490  146.1980 N   0  0  0  0  0  1  0  0  0  0  0  0
  188.8620  177.4490  144.1870 C   0  0  0  0  0  0  0  0  0  0  0  0
  185.5940  177.9500  142.3810 N   0  0  0  0  0  0  0  0  0  0  0  0
  182.0750  178.6770  141.6090 C   0  0  0  0  0  3  0  0  0  0  0  0
  185.9840  178.2530  144.7140 C   0  0  0  0  0  3  0  0  0  0  0  0
  186.4520  177.9180  143.4370 C   0  0  0  0  0  0  0  0  0  0  0  0
  183.7830  178.6370  143.7940 C   0  0  0  0  0  0  0  0  0  0  0  0
  188.6340  177.7150  145.3980 O   0  0  0  0  0  0  0  0  0  0  0  0
  183.8860  178.0050  140.0440 C   0  0  0  0  0  0  0  0  0  0  0  0
  184.8170  177.5030  137.4400 C   0  0  0  0  0  3  0  0  0  0  0  0
  183.3050  176.9800  139.2630 C   0  0  0  0  0  0  0  0  0  0  0  0
  183.7770  176.7370  137.9690 C   0  0  0  0  0  3  0  0  0  0  0  0
  185.3980  178.5140  138.2050 C   0  0  0  0  0  3  0  0  0  0  0  0
  182.0290  175.9400  139.8800 Cl  0  0  0  0  0  0  0  0  0  0  0  0
  184.9340  178.7620  139.4990 C   0  0  0  0  0  3  0  0  0  0  0  0
  190.2450  177.0350  143.7680 C   0  0  0  0  0  0  0  0  0  0  0  0
  191.0920  176.7530  144.9950 C   0  0  0  0  0  1  0  0  0  0  0  0
  190.1700  175.7800  142.9180 C   0  0  0  0  0  1  0  0  0  0  0  0
  190.8530  178.0470  143.0230 O   0  0  0  0  0  1  0  0  0  0  0  0
  1 10  2  0  0  0  0
  1  2  1  0  0  0  0
  2 13  2  0  0  0  0
  3  5  2  0  0  0  0
  4 12  1  0  0  0  0
  4  8  1  0  0  0  0
  6  7  1  0  0  0  0
  8 14  2  0  0  0  0
  9  2  1  0  0  0  0
  9 12  2  0  0  0  0
 10  3  1  0  0  0  0
 11  6  2  0  0  0  0
 12 11  1  0  0  0  0
 13  5  1  0  0  0  0
 13  6  1  0  0  0  0
 15  1  1  0  0  0  0
 16 18  2  0  0  0  0
 16 19  1  0  0  0  0
 17 20  1  0  0  0  0
 17 15  2  0  0  0  0
 18 17  1  0  0  0  0
 19 21  2  0  0  0  0
 21 15  1  0  0  0  0
 22  8  1  0  0  0  0
 22 23  1  0  0  0  0
 24 22  1  0  0  0  0
 25 22  1  0  0  0  0
M  END
>  <MODEL>
6

>  <REMARK>
 VINA RESULT:      -9.6      3.586      6.470
  Name = 
  2 active torsions:
  status: ('A' for Active; 'I' for Inactive)
    1  A    between atoms: C_1  and  C_5
    2  A    between atoms: C_2  and  C_15
                            x       y       z     vdW  Elec       q    Type
                         _______ _______ _______ _____ _____    ______ ____

>  <TORSDO>
F 2

$$$$
=
 OpenBabel11052412423D

 25 27  0  0  0  0  0  0  0  0999 V2000
  185.3470  178.3310  144.3800 C   0  0  0  0  0  0  0  0  0  0  0  0
  185.2350  178.4630  142.9810 C   0  0  0  0  0  0  0  0  0  0  0  0
  182.9830  178.8230  144.5700 C   0  0  0  0  0  3  0  0  0  0  0  0
  187.4230  178.2540  140.0330 N   0  0  0  0  0  2  0  0  0  0  0  0
  182.8960  178.9490  143.2200 N   0  0  0  0  0  0  0  0  0  0  0  0
  183.8720  178.9160  141.0280 C   0  0  0  0  0  0  0  0  0  0  0  0
  182.6230  179.2320  140.4200 N   0  0  0  0  0  1  0  0  0  0  0  0
  187.5360  178.3500  138.6040 C   0  0  0  0  0  0  0  0  0  0  0  0
  186.3180  178.3070  142.1690 N   0  0  0  0  0  0  0  0  0  0  0  0
  184.2050  178.5110  145.1690 C   0  0  0  0  0  3  0  0  0  0  0  0
  185.0030  178.7440  140.2280 C   0  0  0  0  0  3  0  0  0  0  0  0
  186.2370  178.4370  140.8170 C   0  0  0  0  0  0  0  0  0  0  0  0
  183.9810  178.7790  142.4170 C   0  0  0  0  0  0  0  0  0  0  0  0
  186.5290  178.6190  137.8960 O   0  0  0  0  0  0  0  0  0  0  0  0
  186.6280  177.9710  145.0280 C   0  0  0  0  0  0  0  0  0  0  0  0
  189.0680  177.2110  146.1970 C   0  0  0  0  0  3  0  0  0  0  0  0
  186.9220  178.3300  146.3630 C   0  0  0  0  0  0  0  0  0  0  0  0
  188.1400  177.9490  146.9350 C   0  0  0  0  0  3  0  0  0  0  0  0
  188.7850  176.8560  144.8780 C   0  0  0  0  0  3  0  0  0  0  0  0
  185.8270  179.3030  147.3360 Cl  0  0  0  0  0  0  0  0  0  0  0  0
  187.5730  177.2340  144.2990 C   0  0  0  0  0  3  0  0  0  0  0  0
  188.8680  178.1260  137.9430 C   0  0  0  0  0  0  0  0  0  0  0  0
  188.8890  176.7630  137.2770 C   0  0  0  0  0  1  0  0  0  0  0  0
  189.1050  179.1950  136.8920 C   0  0  0  0  0  1  0  0  0  0  0  0
  189.8970  178.1840  138.8850 O   0  0  0  0  0  1  0  0  0  0  0  0
  1 15  1  0  0  0  0
  1 10  1  0  0  0  0
  2  1  2  0  0  0  0
  3 10  2  0  0  0  0
  4 12  1  0  0  0  0
  5  3  1  0  0  0  0
  6 13  1  0  0  0  0
  7  6  1  0  0  0  0
  8  4  1  0  0  0  0
  9  2  1  0  0  0  0
 11 12  1  0  0  0  0
 11  6  2  0  0  0  0
 12  9  2  0  0  0  0
 13  2  1  0  0  0  0
 13  5  2  0  0  0  0
 14  8  2  0  0  0  0
 15 17  1  0  0  0  0
 16 18  1  0  0  0  0
 17 18  2  0  0  0  0
 17 20  1  0  0  0  0
 19 16  2  0  0  0  0
 21 19  1  0  0  0  0
 21 15  2  0  0  0  0
 22  8  1  0  0  0  0
 22 25  1  0  0  0  0
 23 22  1  0  0  0  0
 24 22  1  0  0  0  0
M  END
>  <MODEL>
7

>  <REMARK>
 VINA RESULT:      -9.4      1.578      2.340
  Name = 
  2 active torsions:
  status: ('A' for Active; 'I' for Inactive)
    1  A    between atoms: C_1  and  C_5
    2  A    between atoms: C_2  and  C_15
                            x       y       z     vdW  Elec       q    Type
                         _______ _______ _______ _____ _____    ______ ____

>  <TORSDO>
F 2

$$$$
=
 OpenBabel11052412423D

 25 27  0  0  0  0  0  0  0  0999 V2000
  188.4640  177.8010  143.7110 C   0  0  0  0  0  0  0  0  0  0  0  0
  187.1030  178.0280  143.9990 C   0  0  0  0  0  0  0  0  0  0  0  0
  188.9330  177.8800  146.0860 C   0  0  0  0  0  3  0  0  0  0  0  0
  183.9490  178.4280  142.1510 N   0  0  0  0  0  2  0  0  0  0  0  0
  187.6170  178.1020  146.3430 N   0  0  0  0  0  0  0  0  0  0  0  0
  185.3470  178.4130  145.6260 C   0  0  0  0  0  0  0  0  0  0  0  0
  184.8990  178.5680  146.9690 N   0  0  0  0  0  1  0  0  0  0  0  0
  182.5330  178.6590  142.2150 C   0  0  0  0  0  0  0  0  0  0  0  0
  186.1770  178.1200  143.0030 N   0  0  0  0  0  0  0  0  0  0  0  0
  189.3750  177.7240  144.7710 C   0  0  0  0  0  3  0  0  0  0  0  0
  184.4280  178.4960  144.5800 C   0  0  0  0  0  3  0  0  0  0  0  0
  184.8590  178.3470  143.2550 C   0  0  0  0  0  0  0  0  0  0  0  0
  186.6980  178.1800  145.3420 C   0  0  0  0  0  0  0  0  0  0  0  0
  181.9570  178.8170  143.3260 O   0  0  0  0  0  0  0  0  0  0  0  0
  188.9440  177.6040  142.3250 C   0  0  0  0  0  0  0  0  0  0  0  0
  189.7710  177.2650  139.6610 C   0  0  0  0  0  3  0  0  0  0  0  0
  189.9140  176.6290  141.9970 C   0  0  0  0  0  0  0  0  0  0  0  0
  190.3200  176.4700  140.6680 C   0  0  0  0  0  3  0  0  0  0  0  0
  188.8160  178.2310  139.9770 C   0  0  0  0  0  3  0  0  0  0  0  0
  190.6880  175.6280  143.2180 Cl  0  0  0  0  0  0  0  0  0  0  0  0
  188.4060  178.3980  141.3020 C   0  0  0  0  0  3  0  0  0  0  0  0
  181.7250  178.7130  140.9490 C   0  0  0  0  0  0  0  0  0  0  0  0
  180.5150  179.6060  141.1480 C   0  0  0  0  0  1  0  0  0  0  0  0
  182.5730  179.2720  139.8220 C   0  0  0  0  0  1  0  0  0  0  0  0
  181.2890  177.4360  140.5930 O   0  0  0  0  0  1  0  0  0  0  0  0
  1  2  2  0  0  0  0
  1 10  1  0  0  0  0
  2 13  1  0  0  0  0
  3  5  1  0  0  0  0
  4  8  1  0  0  0  0
  4 12  1  0  0  0  0
  6  7  1  0  0  0  0
  8 14  2  0  0  0  0
  9 12  2  0  0  0  0
  9  2  1  0  0  0  0
 10  3  2  0  0  0  0
 11  6  2  0  0  0  0
 12 11  1  0  0  0  0
 13  6  1  0  0  0  0
 13  5  2  0  0  0  0
 15  1  1  0  0  0  0
 16 19  2  0  0  0  0
 16 18  1  0  0  0  0
 17 15  1  0  0  0  0
 17 20  1  0  0  0  0
 18 17  2  0  0  0  0
 19 21  1  0  0  0  0
 21 15  2  0  0  0  0
 22 23  1  0  0  0  0
 22  8  1  0  0  0  0
 24 22  1  0  0  0  0
 25 22  1  0  0  0  0
M  END
>  <MODEL>
8

>  <REMARK>
 VINA RESULT:      -9.2      2.916      5.178
  Name = 
  2 active torsions:
  status: ('A' for Active; 'I' for Inactive)
    1  A    between atoms: C_1  and  C_5
    2  A    between atoms: C_2  and  C_15
                            x       y       z     vdW  Elec       q    Type
                         _______ _______ _______ _____ _____    ______ ____

>  <TORSDO>
F 2

$$$$
=
 OpenBabel11052412423D

 25 27  0  0  0  0  0  0  0  0999 V2000
  187.9980  178.2680  141.9780 C   0  0  0  0  0  0  0  0  0  0  0  0
  188.3680  177.9670  140.6520 C   0  0  0  0  0  0  0  0  0  0  0  0
  185.8350  178.9920  141.1620 C   0  0  0  0  0  3  0  0  0  0  0  0
  191.3070  176.6680  138.8640 N   0  0  0  0  0  2  0  0  0  0  0  0
  186.2120  178.6990  139.8900 N   0  0  0  0  0  0  0  0  0  0  0  0
  187.8170  177.9040  138.2920 C   0  0  0  0  0  0  0  0  0  0  0  0
  186.9130  178.1190  137.2130 N   0  0  0  0  0  1  0  0  0  0  0  0
  191.8900  176.3040  137.6020 C   0  0  0  0  0  0  0  0  0  0  0  0
  189.6050  177.4750  140.3600 N   0  0  0  0  0  0  0  0  0  0  0  0
  186.7180  178.7800  142.2230 C   0  0  0  0  0  3  0  0  0  0  0  0
  189.0910  177.3970  138.0320 C   0  0  0  0  0  3  0  0  0  0  0  0
  189.9890  177.1850  139.0870 C   0  0  0  0  0  0  0  0  0  0  0  0
  187.4450  178.1970  139.6100 C   0  0  0  0  0  0  0  0  0  0  0  0
  191.2330  176.4240  136.5330 O   0  0  0  0  0  0  0  0  0  0  0  0
  188.9100  178.0200  143.1170 C   0  0  0  0  0  0  0  0  0  0  0  0
  190.7180  177.5510  145.2160 C   0  0  0  0  0  3  0  0  0  0  0  0
  188.4780  177.3830  144.3020 C   0  0  0  0  0  0  0  0  0  0  0  0
  189.3860  177.1560  145.3420 C   0  0  0  0  0  3  0  0  0  0  0  0
  191.1510  178.1830  144.0510 C   0  0  0  0  0  3  0  0  0  0  0  0
  186.8040  176.9060  144.5540 Cl  0  0  0  0  0  0  0  0  0  0  0  0
  190.2520  178.4160  143.0080 C   0  0  0  0  0  3  0  0  0  0  0  0
  193.2960  175.7750  137.5520 C   0  0  0  0  0  0  0  0  0  0  0  0
  193.2750  174.2580  137.5590 C   0  0  0  0  0  1  0  0  0  0  0  0
  193.9810  176.2560  136.2870 C   0  0  0  0  0  1  0  0  0  0  0  0
  194.0250  176.2200  138.6560 O   0  0  0  0  0  1  0  0  0  0  0  0
  1 10  1  0  0  0  0
  1 15  1  0  0  0  0
  2  1  2  0  0  0  0
  3 10  2  0  0  0  0
  4 12  1  0  0  0  0
  5  3  1  0  0  0  0
  6 13  1  0  0  0  0
  7  6  1  0  0  0  0
  8  4  1  0  0  0  0
  9  2  1  0  0  0  0
 11  6  2  0  0  0  0
 11 12  1  0  0  0  0
 12  9  2  0  0  0  0
 13  5  2  0  0  0  0
 13  2  1  0  0  0  0
 14  8  2  0  0  0  0
 15 17  1  0  0  0  0
 16 18  1  0  0  0  0
 17 20  1  0  0  0  0
 17 18  2  0  0  0  0
 19 16  2  0  0  0  0
 21 15  2  0  0  0  0
 21 19  1  0  0  0  0
 22 23  1  0  0  0  0
 22  8  1  0  0  0  0
 22 25  1  0  0  0  0
 24 22  1  0  0  0  0
M  END
>  <MODEL>
9

>  <REMARK>
 VINA RESULT:      -9.1      2.901      4.646
  Name = 
  2 active torsions:
  status: ('A' for Active; 'I' for Inactive)
    1  A    between atoms: C_1  and  C_5
    2  A    between atoms: C_2  and  C_15
                            x       y       z     vdW  Elec       q    Type
                         _______ _______ _______ _____ _____    ______ ____

>  <TORSDO>
F 2

$$$$
