=
 OpenBabel11052415083D

 55 61  0  0  1  0  0  0  0  0999 V2000
  184.9140  174.0120  137.4470 C   0  0  0  0  0  3  0  0  0  0  0  0
  185.8450  176.1270  135.8490 C   0  0  0  0  0  0  0  0  0  0  0  0
  184.7260  176.3050  136.6800 C   0  0  0  0  0  3  0  0  0  0  0  0
  186.0270  173.8280  136.6200 C   0  0  0  0  0  3  0  0  0  0  0  0
  184.2510  175.2510  137.4740 C   0  0  0  0  0  0  0  0  0  0  0  0
  186.4910  174.8830  135.8220 C   0  0  0  0  0  3  0  0  0  0  0  0
  183.0740  175.4680  138.3580 C   0  0  2  0  0  3  0  0  0  0  0  0
  180.9550  178.6510  136.8440 C   0  0  0  0  0  2  0  0  0  0  0  0
  180.9080  179.4000  139.2250 C   0  0  2  0  0  3  0  0  0  0  0  0
  181.9120  176.0410  137.5750 C   0  0  2  0  0  3  0  0  0  0  0  0
  180.9390  178.3300  138.1320 C   0  0  0  0  0  0  0  0  0  0  0  0
  183.3750  176.3690  139.3920 O   0  0  0  0  0  0  0  0  0  0  0  0
  182.3280  178.1930  140.4400 N   0  0  2  0  0  0  0  0  0  0  0  0
  181.1070  178.7980  140.4870 O   0  0  0  0  0  0  0  0  0  0  0  0
  181.2010  176.9120  138.5910 C   0  0  2  0  0  3  0  0  0  0  0  0
  182.1420  176.8680  139.8170 C   0  0  1  0  0  3  0  0  0  0  0  0
  181.9880  178.8950  142.7900 C   0  0  0  0  0  2  0  0  0  0  0  0
  183.7560  178.4970  144.5210 C   0  0  2  0  0  3  0  0  0  0  0  0
  184.2170  178.2420  142.0590 C   0  0  0  0  0  2  0  0  0  0  0  0
  184.3880  179.1240  143.2840 C   0  0  1  0  0  3  0  0  0  0  0  0
  182.9940  179.5510  143.7240 C   0  0  1  0  0  3  0  0  0  0  0  0
  182.7330  177.9720  141.8350 C   0  0  2  0  0  3  0  0  0  0  0  0
  184.4060  179.0440  145.7940 C   0  0  2  0  0  3  0  0  0  0  0  0
  185.8970  179.1810  145.5690 C   0  0  0  0  0  1  0  0  0  0  0  0
  184.1680  178.2620  146.9320 O   0  0  0  0  0  1  0  0  0  0  0  0
  181.0560  173.6420  137.5820 N   0  0  0  0  0  2  0  0  0  0  0  0
  180.2360  175.2400  136.0800 O   0  0  0  0  0  0  0  0  0  0  0  0
  180.1640  172.5880  137.1260 C   0  0  0  0  0  1  0  0  0  0  0  0
  181.0130  174.9690  137.0410 C   0  0  0  0  0  0  0  0  0  0  0  0
  179.6280  181.3210  140.4290 C   0  0  0  0  0  2  0  0  0  0  0  0
  179.6540  180.3000  139.2910 C   0  0  0  0  0  3  0  0  0  0  0  0
  180.0310  181.7540  139.0320 C   0  0  0  0  0  2  0  0  0  0  0  0
  186.2950  177.2880  135.0120 C   0  0  0  0  0  2  0  0  0  0  0  0
  187.7100  177.8050  135.3120 C   0  0  0  0  0  2  0  0  0  0  0  0
  187.6690  178.8760  136.3970 C   0  0  0  0  0  2  0  0  0  0  0  0
  188.9660  178.8880  137.1860 C   0  0  0  0  0  2  0  0  0  0  0  0
  188.7070  179.3420  138.4780 O   0  0  0  0  0  0  0  0  0  0  0  0
  187.7570  176.7480  138.8310 O   0  0  0  0  0  0  0  0  0  0  0  0
  188.6980  177.9890  139.5000 P   0  0  1  0  0  0  0  0  0  0  0  0
  190.0940  177.4480  139.7590 O   0  0  0  0  0  1  0  0  0  0  0  0
  188.0030  178.5070  141.1020 C   0  0  0  0  0  2  0  0  0  0  0  0
  189.0090  178.2590  142.2120 C   0  0  0  0  0  2  0  0  0  0  0  0
  188.6330  177.2240  143.2880 C   0  0  2  0  0  0  0  0  0  0  0  0
  191.7260  177.3530  144.5700 C   0  0  0  0  0  2  0  0  0  0  0  0
  189.5090  178.2190  145.4410 C   0  0  0  0  0  0  0  0  0  0  0  0
  190.8890  179.5740  144.0050 O   0  0  0  0  0  1  0  0  0  0  0  0
  190.8960  178.5700  144.9850 C   0  0  2  0  0  3  0  0  0  0  0  0
  189.7110  176.1250  143.4040 C   0  0  2  0  0  3  0  0  0  0  0  0
  187.4170  176.6040  142.9610 O   0  0  0  0  0  1  0  0  0  0  0  0
  191.1620  176.6060  143.3680 C   0  0  1  0  0  3  0  0  0  0  0  0
  189.3140  178.0840  146.6740 O   0  0  0  0  0  0  0  0  0  0  0  0
  189.5170  175.1040  142.4720 O   0  0  0  0  0  1  0  0  0  0  0  0
  188.4650  177.8670  144.5550 O   0  0  0  0  0  0  0  0  0  0  0  0
  191.9250  176.6150  142.0490 C   0  0  0  0  0  2  0  0  0  0  0  0
  192.4270  177.8890  141.7670 O   0  0  0  0  0  1  0  0  0  0  0  0
  1  5  1  0  0  0  0
  2  3  1  0  0  0  0
  3  5  2  0  0  0  0
  4  1  2  0  0  0  0
  6  2  2  0  0  0  0
  6  4  1  0  0  0  0
  7  5  1  6  0  0  0
  7 12  1  0  0  0  0
  8 11  2  0  0  0  0
  9 31  1  1  0  0  0
  9 14  1  0  0  0  0
 10 29  1  1  0  0  0
 10  7  1  0  0  0  0
 10 15  1  0  0  0  0
 11  9  1  0  0  0  0
 13 14  1  1  0  0  0
 13 22  1  0  0  0  0
 15 11  1  6  0  0  0
 15 16  1  0  0  0  0
 16 12  1  6  0  0  0
 16 13  1  0  0  0  0
 18 23  1  1  0  0  0
 20 19  1  6  0  0  0
 20 21  1  0  0  0  0
 20 18  1  0  0  0  0
 21 17  1  6  0  0  0
 21 18  1  0  0  0  0
 22 19  1  6  0  0  0
 22 17  1  0  0  0  0
 23 24  1  6  0  0  0
 23 25  1  0  0  0  0
 27 29  2  0  0  0  0
 28 26  1  0  0  0  0
 29 26  1  0  0  0  0
 31 30  1  0  0  0  0
 32 31  1  0  0  0  0
 32 30  1  0  0  0  0
 33 34  1  0  0  0  0
 33  2  1  0  0  0  0
 34 35  1  0  0  0  0
 35 36  1  0  0  0  0
 36 37  1  0  0  0  0
 37 39  1  0  0  0  0
 39 38  2  6  0  0  0
 39 40  1  0  0  0  0
 39 41  1  0  0  0  0
 41 42  1  0  0  0  0
 42 43  1  0  0  0  0
 43 49  1  6  0  0  0
 43 48  1  0  0  0  0
 43 53  1  0  0  0  0
 44 47  1  0  0  0  0
 45 51  2  0  0  0  0
 47 46  1  6  0  0  0
 47 45  1  0  0  0  0
 48 52  1  6  0  0  0
 50 54  1  6  0  0  0
 50 48  1  0  0  0  0
 50 44  1  0  0  0  0
 53 45  1  0  0  0  0
 55 54  1  0  0  0  0
M  END
>  <MODEL>
1

>  <REMARK>
 VINA RESULT:      -7.2      0.000      0.000
  Name = 
  15 active torsions:
  status: ('A' for Active; 'I' for Inactive)
    1  A    between atoms: C_1  and  C_21
    2  A    between atoms: C_2  and  C_44
    3  A    between atoms: O_8  and  P_20
    4  A    between atoms: O_8  and  C_43
    5  A    between atoms: C_10  and  C_32
    6  A    between atoms: C_11  and  C_38
    7  A    between atoms: C_16  and  C_17
    8  A    between atoms: C_19  and  C_40
    9  A    between atoms: P_20  and  C_42
   10  A    between atoms: C_21  and  C_42
   11  A    between atoms: C_27  and  C_54
   12  A    between atoms: N_33  and  C_52
   13  A    between atoms: C_35  and  C_43
   14  A    between atoms: C_35  and  C_51
   15  A    between atoms: C_51  and  C_54
                            x       y       z     vdW  Elec       q    Type
                         _______ _______ _______ _____ _____    ______ ____

>  <TORSDO>
F 15

$$$$
=
 OpenBabel11052415083D

 55 61  0  0  1  0  0  0  0  0999 V2000
  181.6610  178.8820  142.0200 C   0  0  0  0  0  3  0  0  0  0  0  0
  184.2410  178.5970  143.0940 C   0  0  0  0  0  0  0  0  0  0  0  0
  184.0320  178.4790  141.7090 C   0  0  0  0  0  3  0  0  0  0  0  0
  181.8620  178.9980  143.3990 C   0  0  0  0  0  3  0  0  0  0  0  0
  182.7450  178.6120  141.1680 C   0  0  0  0  0  0  0  0  0  0  0  0
  183.1490  178.8540  143.9350 C   0  0  0  0  0  3  0  0  0  0  0  0
  182.5510  178.5000  139.6970 C   0  0  2  0  0  3  0  0  0  0  0  0
  180.2700  175.1510  138.9990 C   0  0  0  0  0  2  0  0  0  0  0  0
  181.9720  174.6950  137.2300 C   0  0  2  0  0  3  0  0  0  0  0  0
  181.2300  177.8330  139.3780 C   0  0  2  0  0  3  0  0  0  0  0  0
  181.1340  175.6250  138.1090 C   0  0  0  0  0  0  0  0  0  0  0  0
  183.5680  177.7320  139.1070 O   0  0  0  0  0  0  0  0  0  0  0  0
  183.7210  176.0450  137.4790 N   0  0  2  0  0  0  0  0  0  0  0  0
  182.9440  175.4450  136.5330 O   0  0  0  0  0  0  0  0  0  0  0  0
  181.5160  177.0890  138.0890 C   0  0  2  0  0  3  0  0  0  0  0  0
  183.0370  177.2830  137.8960 C   0  0  1  0  0  3  0  0  0  0  0  0
  185.8340  175.2260  136.4800 C   0  0  0  0  0  2  0  0  0  0  0  0
  187.8200  176.7370  136.2460 C   0  0  2  0  0  3  0  0  0  0  0  0
  185.8290  177.3550  137.6610 C   0  0  0  0  0  2  0  0  0  0  0  0
  187.2610  176.8460  137.6600 C   0  0  1  0  0  3  0  0  0  0  0  0
  187.2550  175.5020  136.9440 C   0  0  1  0  0  3  0  0  0  0  0  0
  184.9670  176.4350  136.8030 C   0  0  2  0  0  3  0  0  0  0  0  0
  189.3480  176.8050  136.2640 C   0  0  2  0  0  3  0  0  0  0  0  0
  189.7830  177.8980  137.2180 C   0  0  0  0  0  1  0  0  0  0  0  0
  189.9200  177.0210  135.0040 O   0  0  0  0  0  1  0  0  0  0  0  0
  180.4150  180.1910  138.8620 N   0  0  0  0  0  2  0  0  0  0  0  0
  178.9310  178.4630  139.4060 O   0  0  0  0  0  0  0  0  0  0  0  0
  179.3680  181.1740  138.6380 C   0  0  0  0  0  1  0  0  0  0  0  0
  180.1260  178.8300  139.2080 C   0  0  0  0  0  0  0  0  0  0  0  0
  181.8560  172.4570  135.9040 C   0  0  0  0  0  2  0  0  0  0  0  0
  181.2090  173.8050  136.2220 C   0  0  0  0  0  3  0  0  0  0  0  0
  180.7180  172.5340  136.9040 C   0  0  0  0  0  2  0  0  0  0  0  0
  185.6380  178.4290  143.6140 C   0  0  0  0  0  2  0  0  0  0  0  0
  185.7440  177.9240  145.0610 C   0  0  0  0  0  2  0  0  0  0  0  0
  185.8530  179.0950  146.0310 C   0  0  0  0  0  2  0  0  0  0  0  0
  186.4300  178.6390  147.3580 C   0  0  0  0  0  2  0  0  0  0  0  0
  187.0320  177.3920  147.1860 O   0  0  0  0  0  0  0  0  0  0  0  0
  188.7620  178.2470  149.1940 O   0  0  0  0  0  1  0  0  0  0  0  0
  188.6540  177.5420  147.6560 P   0  0  1  0  0  0  0  0  0  0  0  0
  189.3750  176.2050  147.6880 O   0  0  0  0  0  0  0  0  0  0  0  0
  189.4940  178.5910  146.4270 C   0  0  0  0  0  2  0  0  0  0  0  0
  189.4050  177.9560  145.0510 C   0  0  0  0  0  2  0  0  0  0  0  0
  190.1560  178.6530  143.9010 C   0  0  2  0  0  0  0  0  0  0  0  0
  190.4880  175.7380  142.2800 C   0  0  0  0  0  2  0  0  0  0  0  0
  189.0460  177.7690  141.8080 C   0  0  0  0  0  0  0  0  0  0  0  0
  188.2560  175.9940  143.2310 O   0  0  0  0  0  1  0  0  0  0  0  0
  189.0730  176.3030  142.1340 C   0  0  2  0  0  3  0  0  0  0  0  0
  191.4260  177.8680  143.5110 C   0  0  2  0  0  3  0  0  0  0  0  0
  190.5460  179.9440  144.2890 O   0  0  0  0  0  1  0  0  0  0  0  0
  191.2760  176.3480  143.4330 C   0  0  1  0  0  3  0  0  0  0  0  0
  188.9430  178.0990  140.6010 O   0  0  0  0  0  0  0  0  0  0  0  0
  192.5160  178.2050  144.3170 O   0  0  0  0  0  1  0  0  0  0  0  0
  189.3020  178.7820  142.7600 O   0  0  0  0  0  0  0  0  0  0  0  0
  191.6350  175.4880  144.6390 C   0  0  0  0  0  2  0  0  0  0  0  0
  192.4650  174.4260  144.2690 O   0  0  0  0  0  1  0  0  0  0  0  0
  1  4  1  0  0  0  0
  2 33  1  0  0  0  0
  2  6  1  0  0  0  0
  3  2  2  0  0  0  0
  4  6  2  0  0  0  0
  5  3  1  0  0  0  0
  5  1  2  0  0  0  0
  7  5  1  1  0  0  0
  9 31  1  6  0  0  0
  9 11  1  0  0  0  0
 10 29  1  6  0  0  0
 10  7  1  0  0  0  0
 11  8  2  0  0  0  0
 12  7  1  0  0  0  0
 13 14  1  6  0  0  0
 13 16  1  0  0  0  0
 14  9  1  0  0  0  0
 15 11  1  1  0  0  0
 15 10  1  0  0  0  0
 16 15  1  0  0  0  0
 16 12  1  1  0  0  0
 18 23  1  1  0  0  0
 18 21  1  0  0  0  0
 18 20  1  0  0  0  0
 20 19  1  6  0  0  0
 21 17  1  6  0  0  0
 21 20  1  0  0  0  0
 22 17  1  1  0  0  0
 22 13  1  0  0  0  0
 22 19  1  0  0  0  0
 23 24  1  1  0  0  0
 25 23  1  0  0  0  0
 26 29  1  0  0  0  0
 28 26  1  0  0  0  0
 29 27  2  0  0  0  0
 30 31  1  0  0  0  0
 30 32  1  0  0  0  0
 31 32  1  0  0  0  0
 33 34  1  0  0  0  0
 34 35  1  0  0  0  0
 35 36  1  0  0  0  0
 37 36  1  0  0  0  0
 37 39  1  0  0  0  0
 39 40  2  1  0  0  0
 39 38  1  0  0  0  0
 41 39  1  0  0  0  0
 42 41  1  0  0  0  0
 43 49  1  1  0  0  0
 43 42  1  0  0  0  0
 44 50  1  0  0  0  0
 45 47  1  0  0  0  0
 45 53  1  0  0  0  0
 47 44  1  0  0  0  0
 47 46  1  1  0  0  0
 48 43  1  0  0  0  0
 48 52  1  1  0  0  0
 50 48  1  0  0  0  0
 50 54  1  1  0  0  0
 51 45  2  0  0  0  0
 53 43  1  0  0  0  0
 55 54  1  0  0  0  0
M  END
>  <MODEL>
2

>  <REMARK>
 VINA RESULT:      -6.9      2.060      6.798
  Name = 
  15 active torsions:
  status: ('A' for Active; 'I' for Inactive)
    1  A    between atoms: C_1  and  C_21
    2  A    between atoms: C_2  and  C_44
    3  A    between atoms: O_8  and  P_20
    4  A    between atoms: O_8  and  C_43
    5  A    between atoms: C_10  and  C_32
    6  A    between atoms: C_11  and  C_38
    7  A    between atoms: C_16  and  C_17
    8  A    between atoms: C_19  and  C_40
    9  A    between atoms: P_20  and  C_42
   10  A    between atoms: C_21  and  C_42
   11  A    between atoms: C_27  and  C_54
   12  A    between atoms: N_33  and  C_52
   13  A    between atoms: C_35  and  C_43
   14  A    between atoms: C_35  and  C_51
   15  A    between atoms: C_51  and  C_54
                            x       y       z     vdW  Elec       q    Type
                         _______ _______ _______ _____ _____    ______ ____

>  <TORSDO>
F 15

$$$$
=
 OpenBabel11052415083D

 55 61  0  0  1  0  0  0  0  0999 V2000
  190.8650  177.1800  141.9520 C   0  0  0  0  0  3  0  0  0  0  0  0
  188.1330  177.5660  142.4810 C   0  0  0  0  0  0  0  0  0  0  0  0
  188.5960  177.4940  141.1560 C   0  0  0  0  0  3  0  0  0  0  0  0
  190.4110  177.2520  143.2730 C   0  0  0  0  0  3  0  0  0  0  0  0
  189.9590  177.3100  140.8850 C   0  0  0  0  0  0  0  0  0  0  0  0
  189.0480  177.4460  143.5370 C   0  0  0  0  0  3  0  0  0  0  0  0
  190.4230  177.2210  139.4740 C   0  0  2  0  0  3  0  0  0  0  0  0
  187.8490  174.7120  137.4760 C   0  0  0  0  0  2  0  0  0  0  0  0
  189.9550  173.7080  136.5870 C   0  0  2  0  0  3  0  0  0  0  0  0
  189.2580  176.9820  138.5380 C   0  0  2  0  0  3  0  0  0  0  0  0
  189.1160  174.8740  137.1120 C   0  0  0  0  0  0  0  0  0  0  0  0
  191.3300  176.1620  139.3040 O   0  0  0  0  0  0  0  0  0  0  0  0
  191.7090  174.4640  137.7250 N   0  0  2  0  0  0  0  0  0  0  0  0
  191.3050  174.1050  136.4730 O   0  0  0  0  0  0  0  0  0  0  0  0
  189.8660  176.1490  137.4280 C   0  0  2  0  0  3  0  0  0  0  0  0
  191.2970  175.8640  137.9400 C   0  0  1  0  0  3  0  0  0  0  0  0
  193.7630  175.7640  137.2500 C   0  0  0  0  0  2  0  0  0  0  0  0
  195.9250  174.6100  136.7240 C   0  0  2  0  0  3  0  0  0  0  0  0
  193.7270  173.3810  136.7510 C   0  0  0  0  0  2  0  0  0  0  0  0
  194.8080  174.0040  135.8830 C   0  0  1  0  0  3  0  0  0  0  0  0
  194.8100  175.4980  136.1800 C   0  0  1  0  0  3  0  0  0  0  0  0
  193.1790  174.4340  137.7080 C   0  0  2  0  0  3  0  0  0  0  0  0
  197.2230  174.6920  135.9180 C   0  0  2  0  0  3  0  0  0  0  0  0
  198.0040  173.4090  136.1050 C   0  0  0  0  0  1  0  0  0  0  0  0
  198.0270  175.7900  136.2500 O   0  0  0  0  0  1  0  0  0  0  0  0
  187.6780  178.2520  136.9960 N   0  0  0  0  0  2  0  0  0  0  0  0
  189.1220  179.3610  138.4690 O   0  0  0  0  0  0  0  0  0  0  0  0
  187.0600  179.4720  136.5030 C   0  0  0  0  0  1  0  0  0  0  0  0
  188.6840  178.2630  138.0190 C   0  0  0  0  0  0  0  0  0  0  0  0
  190.0760  171.6770  134.9620 C   0  0  0  0  0  2  0  0  0  0  0  0
  189.5080  173.0660  135.2530 C   0  0  0  0  0  3  0  0  0  0  0  0
  188.6730  171.8200  135.5200 C   0  0  0  0  0  2  0  0  0  0  0  0
  186.6650  177.7800  142.7060 C   0  0  0  0  0  2  0  0  0  0  0  0
  185.9850  178.7470  141.7260 C   0  0  0  0  0  2  0  0  0  0  0  0
  184.4760  178.7620  141.9470 C   0  0  0  0  0  2  0  0  0  0  0  0
  183.7400  178.6470  140.6250 C   0  0  0  0  0  2  0  0  0  0  0  0
  183.3820  177.3150  140.4190 O   0  0  0  0  0  0  0  0  0  0  0  0
  180.9090  178.2590  139.5520 O   0  0  0  0  0  1  0  0  0  0  0  0
  182.2410  177.2840  139.1660 P   0  0  1  0  0  0  0  0  0  0  0  0
  182.8180  177.7590  137.8430 O   0  0  0  0  0  0  0  0  0  0  0  0
  181.7070  175.5560  138.9430 C   0  0  0  0  0  2  0  0  0  0  0  0
  182.6400  174.8420  137.9810 C   0  0  0  0  0  2  0  0  0  0  0  0
  181.9950  174.0550  136.8240 C   0  0  2  0  0  0  0  0  0  0  0  0
  185.0150  173.2030  135.6490 C   0  0  0  0  0  2  0  0  0  0  0  0
  183.2220  171.8450  136.8170 C   0  0  0  0  0  0  0  0  0  0  0  0
  184.9060  173.0160  138.0790 O   0  0  0  0  0  1  0  0  0  0  0  0
  184.6310  172.3620  136.8690 C   0  0  2  0  0  3  0  0  0  0  0  0
  182.6720  174.3910  135.4790 C   0  0  2  0  0  3  0  0  0  0  0  0
  180.6340  174.3800  136.7170 O   0  0  0  0  0  1  0  0  0  0  0  0
  184.1980  174.4810  135.5020 C   0  0  1  0  0  3  0  0  0  0  0  0
  183.0400  170.6840  136.3760 O   0  0  0  0  0  0  0  0  0  0  0  0
  182.1290  175.5360  134.8920 O   0  0  0  0  0  1  0  0  0  0  0  0
  182.0890  172.6490  137.0720 O   0  0  0  0  0  0  0  0  0  0  0  0
  184.8750  175.8340  135.6880 C   0  0  0  0  0  2  0  0  0  0  0  0
  185.9170  176.0040  134.7730 O   0  0  0  0  0  1  0  0  0  0  0  0
  1  4  1  0  0  0  0
  2 33  1  0  0  0  0
  2  6  1  0  0  0  0
  3  2  2  0  0  0  0
  4  6  2  0  0  0  0
  5  3  1  0  0  0  0
  5  1  2  0  0  0  0
  7  5  1  1  0  0  0
  9 31  1  6  0  0  0
  9 11  1  0  0  0  0
 10 29  1  6  0  0  0
 10  7  1  0  0  0  0
 11  8  2  0  0  0  0
 12  7  1  0  0  0  0
 13 14  1  6  0  0  0
 13 16  1  0  0  0  0
 14  9  1  0  0  0  0
 15 11  1  1  0  0  0
 15 16  1  0  0  0  0
 15 10  1  0  0  0  0
 16 12  1  1  0  0  0
 17 22  1  0  0  0  0
 18 23  1  6  0  0  0
 20 21  1  0  0  0  0
 20 18  1  0  0  0  0
 20 19  1  1  0  0  0
 21 18  1  0  0  0  0
 21 17  1  1  0  0  0
 22 19  1  6  0  0  0
 22 13  1  0  0  0  0
 23 24  1  1  0  0  0
 23 25  1  0  0  0  0
 26 29  1  0  0  0  0
 28 26  1  0  0  0  0
 29 27  2  0  0  0  0
 30 31  1  0  0  0  0
 30 32  1  0  0  0  0
 31 32  1  0  0  0  0
 34 35  1  0  0  0  0
 34 33  1  0  0  0  0
 36 35  1  0  0  0  0
 37 36  1  0  0  0  0
 39 40  2  6  0  0  0
 39 38  1  0  0  0  0
 39 37  1  0  0  0  0
 41 39  1  0  0  0  0
 42 41  1  0  0  0  0
 43 49  1  6  0  0  0
 43 53  1  0  0  0  0
 43 42  1  0  0  0  0
 44 47  1  0  0  0  0
 45 47  1  0  0  0  0
 45 53  1  0  0  0  0
 47 46  1  1  0  0  0
 48 52  1  1  0  0  0
 48 50  1  0  0  0  0
 48 43  1  0  0  0  0
 50 44  1  0  0  0  0
 50 54  1  1  0  0  0
 51 45  2  0  0  0  0
 55 54  1  0  0  0  0
M  END
>  <MODEL>
3

>  <REMARK>
 VINA RESULT:      -6.7      4.115     10.582
  Name = 
  15 active torsions:
  status: ('A' for Active; 'I' for Inactive)
    1  A    between atoms: C_1  and  C_21
    2  A    between atoms: C_2  and  C_44
    3  A    between atoms: O_8  and  P_20
    4  A    between atoms: O_8  and  C_43
    5  A    between atoms: C_10  and  C_32
    6  A    between atoms: C_11  and  C_38
    7  A    between atoms: C_16  and  C_17
    8  A    between atoms: C_19  and  C_40
    9  A    between atoms: P_20  and  C_42
   10  A    between atoms: C_21  and  C_42
   11  A    between atoms: C_27  and  C_54
   12  A    between atoms: N_33  and  C_52
   13  A    between atoms: C_35  and  C_43
   14  A    between atoms: C_35  and  C_51
   15  A    between atoms: C_51  and  C_54
                            x       y       z     vdW  Elec       q    Type
                         _______ _______ _______ _____ _____    ______ ____

>  <TORSDO>
F 15

$$$$
=
 OpenBabel11052415083D

 55 61  0  0  1  0  0  0  0  0999 V2000
  181.6010  178.7810  141.6220 C   0  0  0  0  0  3  0  0  0  0  0  0
  184.1400  178.6380  142.8160 C   0  0  0  0  0  0  0  0  0  0  0  0
  183.9890  178.4060  141.4380 C   0  0  0  0  0  3  0  0  0  0  0  0
  181.7430  179.0110  142.9940 C   0  0  0  0  0  3  0  0  0  0  0  0
  182.7240  178.4680  140.8380 C   0  0  0  0  0  0  0  0  0  0  0  0
  183.0100  178.9380  143.5900 C   0  0  0  0  0  3  0  0  0  0  0  0
  182.5920  178.2340  139.3740 C   0  0  2  0  0  3  0  0  0  0  0  0
  180.4710  174.7490  138.8600 C   0  0  0  0  0  2  0  0  0  0  0  0
  182.2570  174.2290  137.1950 C   0  0  2  0  0  3  0  0  0  0  0  0
  181.3120  177.4910  139.0610 C   0  0  2  0  0  3  0  0  0  0  0  0
  181.3500  175.1890  137.9670 C   0  0  0  0  0  0  0  0  0  0  0  0
  183.6600  177.4660  138.8840 O   0  0  0  0  0  0  0  0  0  0  0  0
  183.9420  175.6660  137.4000 N   0  0  2  0  0  0  0  0  0  0  0  0
  183.2260  174.9640  136.4760 O   0  0  0  0  0  0  0  0  0  0  0  0
  181.6760  176.6610  137.8460 C   0  0  2  0  0  3  0  0  0  0  0  0
  183.1950  176.9040  137.6930 C   0  0  1  0  0  3  0  0  0  0  0  0
  186.0800  174.8470  136.4550 C   0  0  0  0  0  2  0  0  0  0  0  0
  188.0580  176.3700  136.2320 C   0  0  2  0  0  3  0  0  0  0  0  0
  186.0360  176.9970  137.5980 C   0  0  0  0  0  2  0  0  0  0  0  0
  187.4720  176.4990  137.6340 C   0  0  1  0  0  3  0  0  0  0  0  0
  187.4900  175.1430  136.9410 C   0  0  1  0  0  3  0  0  0  0  0  0
  185.1970  176.0540  136.7400 C   0  0  2  0  0  3  0  0  0  0  0  0
  189.5850  176.4510  136.2780 C   0  0  2  0  0  3  0  0  0  0  0  0
  189.9970  177.4170  137.3690 C   0  0  0  0  0  1  0  0  0  0  0  0
  190.1680  176.8330  135.0620 O   0  0  0  0  0  1  0  0  0  0  0  0
  180.4270  179.7830  138.3920 N   0  0  0  0  0  2  0  0  0  0  0  0
  178.9890  178.0070  138.9040 O   0  0  0  0  0  0  0  0  0  0  0  0
  179.3530  180.7040  138.0550 C   0  0  0  0  0  1  0  0  0  0  0  0
  180.1760  178.4240  138.7740 C   0  0  0  0  0  0  0  0  0  0  0  0
  182.3480  171.9520  135.9360 C   0  0  0  0  0  2  0  0  0  0  0  0
  181.5700  173.2330  136.2330 C   0  0  0  0  0  3  0  0  0  0  0  0
  181.2330  171.9390  136.9640 C   0  0  0  0  0  2  0  0  0  0  0  0
  185.5170  178.5410  143.4020 C   0  0  0  0  0  2  0  0  0  0  0  0
  185.5860  177.9750  144.8290 C   0  0  0  0  0  2  0  0  0  0  0  0
  185.5030  179.1000  145.8560 C   0  0  0  0  0  2  0  0  0  0  0  0
  186.4550  178.8410  147.0100 C   0  0  0  0  0  2  0  0  0  0  0  0
  187.4780  178.0000  146.5740 O   0  0  0  0  0  0  0  0  0  0  0  0
  189.2540  178.9640  148.4910 O   0  0  0  0  0  0  0  0  0  0  0  0
  188.4180  177.6010  147.9270 P   0  0  1  0  0  0  0  0  0  0  0  0
  187.5860  177.0410  149.0680 O   0  0  0  0  0  1  0  0  0  0  0  0
  189.5990  176.3090  147.4220 C   0  0  0  0  0  2  0  0  0  0  0  0
  189.9470  176.4660  145.9530 C   0  0  0  0  0  2  0  0  0  0  0  0
  191.4310  176.6800  145.5970 C   0  0  2  0  0  0  0  0  0  0  0  0
  190.5990  177.7260  142.5240 C   0  0  0  0  0  2  0  0  0  0  0  0
  191.4910  178.9760  144.5410 C   0  0  0  0  0  0  0  0  0  0  0  0
  189.1240  178.6610  144.2270 O   0  0  0  0  0  1  0  0  0  0  0  0
  190.3550  178.8150  143.5720 C   0  0  2  0  0  3  0  0  0  0  0  0
  191.7640  176.0790  144.2160 C   0  0  2  0  0  3  0  0  0  0  0  0
  192.2520  176.0580  146.5500 O   0  0  0  0  0  1  0  0  0  0  0  0
  190.7340  176.3270  143.1130 C   0  0  1  0  0  3  0  0  0  0  0  0
  192.3430  179.8660  144.3010 O   0  0  0  0  0  0  0  0  0  0  0  0
  192.0660  174.7180  144.2970 O   0  0  0  0  0  1  0  0  0  0  0  0
  191.7420  178.0770  145.6010 O   0  0  0  0  0  0  0  0  0  0  0  0
  189.6600  175.2830  142.8300 C   0  0  0  0  0  2  0  0  0  0  0  0
  188.3840  175.7960  143.0750 O   0  0  0  0  0  1  0  0  0  0  0  0
  1  4  1  0  0  0  0
  2 33  1  0  0  0  0
  2  6  1  0  0  0  0
  3  2  2  0  0  0  0
  4  6  2  0  0  0  0
  5  3  1  0  0  0  0
  5  1  2  0  0  0  0
  7  5  1  1  0  0  0
  9 31  1  6  0  0  0
  9 11  1  0  0  0  0
 10 29  1  6  0  0  0
 10  7  1  0  0  0  0
 11  8  2  0  0  0  0
 12  7  1  0  0  0  0
 13 14  1  6  0  0  0
 13 16  1  0  0  0  0
 14  9  1  0  0  0  0
 15 11  1  1  0  0  0
 15 10  1  0  0  0  0
 16 15  1  0  0  0  0
 16 12  1  1  0  0  0
 18 23  1  1  0  0  0
 18 21  1  0  0  0  0
 18 20  1  0  0  0  0
 20 19  1  6  0  0  0
 21 17  1  6  0  0  0
 21 20  1  0  0  0  0
 22 17  1  1  0  0  0
 22 13  1  0  0  0  0
 22 19  1  0  0  0  0
 23 24  1  1  0  0  0
 25 23  1  0  0  0  0
 26 29  1  0  0  0  0
 28 26  1  0  0  0  0
 29 27  2  0  0  0  0
 30 31  1  0  0  0  0
 30 32  1  0  0  0  0
 31 32  1  0  0  0  0
 33 34  1  0  0  0  0
 34 35  1  0  0  0  0
 35 36  1  0  0  0  0
 37 36  1  0  0  0  0
 37 39  1  0  0  0  0
 39 38  2  1  0  0  0
 39 40  1  0  0  0  0
 41 39  1  0  0  0  0
 42 41  1  0  0  0  0
 43 53  1  0  0  0  0
 43 42  1  0  0  0  0
 43 49  1  1  0  0  0
 44 50  1  0  0  0  0
 44 47  1  0  0  0  0
 45 53  1  0  0  0  0
 47 46  1  1  0  0  0
 47 45  1  0  0  0  0
 48 52  1  1  0  0  0
 48 43  1  0  0  0  0
 50 54  1  1  0  0  0
 50 48  1  0  0  0  0
 51 45  2  0  0  0  0
 54 55  1  0  0  0  0
M  END
>  <MODEL>
4

>  <REMARK>
 VINA RESULT:      -6.7      2.268      6.806
  Name = 
  15 active torsions:
  status: ('A' for Active; 'I' for Inactive)
    1  A    between atoms: C_1  and  C_21
    2  A    between atoms: C_2  and  C_44
    3  A    between atoms: O_8  and  P_20
    4  A    between atoms: O_8  and  C_43
    5  A    between atoms: C_10  and  C_32
    6  A    between atoms: C_11  and  C_38
    7  A    between atoms: C_16  and  C_17
    8  A    between atoms: C_19  and  C_40
    9  A    between atoms: P_20  and  C_42
   10  A    between atoms: C_21  and  C_42
   11  A    between atoms: C_27  and  C_54
   12  A    between atoms: N_33  and  C_52
   13  A    between atoms: C_35  and  C_43
   14  A    between atoms: C_35  and  C_51
   15  A    between atoms: C_51  and  C_54
                            x       y       z     vdW  Elec       q    Type
                         _______ _______ _______ _____ _____    ______ ____

>  <TORSDO>
F 15

$$$$
=
 OpenBabel11052415083D

 55 61  0  0  1  0  0  0  0  0999 V2000
  191.4520  177.1180  141.5050 C   0  0  0  0  0  3  0  0  0  0  0  0
  188.7900  177.3460  142.3730 C   0  0  0  0  0  0  0  0  0  0  0  0
  189.0960  177.4010  141.0030 C   0  0  0  0  0  3  0  0  0  0  0  0
  191.1530  177.0640  142.8710 C   0  0  0  0  0  3  0  0  0  0  0  0
  190.4240  177.2960  140.5640 C   0  0  0  0  0  0  0  0  0  0  0  0
  189.8250  177.1790  143.3030 C   0  0  0  0  0  3  0  0  0  0  0  0
  190.7220  177.3410  139.1060 C   0  0  2  0  0  3  0  0  0  0  0  0
  188.5480  174.3540  137.3010 C   0  0  0  0  0  2  0  0  0  0  0  0
  190.7000  173.8680  136.1330 C   0  0  2  0  0  3  0  0  0  0  0  0
  189.5350  176.8630  138.2990 C   0  0  2  0  0  3  0  0  0  0  0  0
  189.6930  174.8050  136.8030 C   0  0  0  0  0  0  0  0  0  0  0  0
  191.8140  176.5170  138.7860 O   0  0  0  0  0  0  0  0  0  0  0  0
  192.3670  174.9790  137.0990 N   0  0  2  0  0  0  0  0  0  0  0  0
  191.9050  174.5620  135.8860 O   0  0  0  0  0  0  0  0  0  0  0  0
  190.1740  176.2100  137.0890 C   0  0  2  0  0  3  0  0  0  0  0  0
  191.6830  176.2460  137.4220 C   0  0  1  0  0  3  0  0  0  0  0  0
  194.3380  174.6670  135.6320 C   0  0  0  0  0  2  0  0  0  0  0  0
  196.6650  174.8940  136.5360 C   0  0  2  0  0  3  0  0  0  0  0  0
  194.6560  174.7330  138.0460 C   0  0  0  0  0  2  0  0  0  0  0  0
  195.8470  173.9960  137.4570 C   0  0  1  0  0  3  0  0  0  0  0  0
  195.6330  173.9350  135.9510 C   0  0  1  0  0  3  0  0  0  0  0  0
  193.7940  175.2830  136.9140 C   0  0  2  0  0  3  0  0  0  0  0  0
  198.1040  174.3850  136.4270 C   0  0  2  0  0  3  0  0  0  0  0  0
  198.6440  174.1260  137.8180 C   0  0  0  0  0  1  0  0  0  0  0  0
  198.9610  175.2550  135.7400 O   0  0  0  0  0  1  0  0  0  0  0  0
  187.3130  177.7310  137.4060 N   0  0  0  0  0  2  0  0  0  0  0  0
  189.0600  179.1780  137.9890 O   0  0  0  0  0  0  0  0  0  0  0  0
  186.3890  178.8010  137.0640 C   0  0  0  0  0  1  0  0  0  0  0  0
  188.6320  177.9910  137.9060 C   0  0  0  0  0  0  0  0  0  0  0  0
  190.8030  171.7600  134.6080 C   0  0  0  0  0  2  0  0  0  0  0  0
  190.2500  173.1680  134.8310 C   0  0  0  0  0  3  0  0  0  0  0  0
  189.4010  171.9440  135.1550 C   0  0  0  0  0  2  0  0  0  0  0  0
  187.3530  177.4800  142.7810 C   0  0  0  0  0  2  0  0  0  0  0  0
  186.4930  178.3750  141.8750 C   0  0  0  0  0  2  0  0  0  0  0  0
  185.0200  178.2630  142.2530 C   0  0  0  0  0  2  0  0  0  0  0  0
  184.1400  178.8090  141.1430 C   0  0  0  0  0  2  0  0  0  0  0  0
  183.1510  177.8720  140.8460 O   0  0  0  0  0  0  0  0  0  0  0  0
  181.0820  179.2810  142.0660 O   0  0  0  0  0  1  0  0  0  0  0  0
  181.7060  178.7220  140.5920 P   0  0  1  0  0  0  0  0  0  0  0  0
  181.8870  179.9120  139.6640 O   0  0  0  0  0  0  0  0  0  0  0  0
  180.5230  177.5850  139.8030 C   0  0  0  0  0  2  0  0  0  0  0  0
  181.1460  176.9560  138.5700 C   0  0  0  0  0  2  0  0  0  0  0  0
  181.5650  175.4770  138.6660 C   0  0  2  0  0  0  0  0  0  0  0  0
  182.4950  175.4760  135.4460 C   0  0  0  0  0  2  0  0  0  0  0  0
  183.8510  175.4070  137.5870 C   0  0  0  0  0  0  0  0  0  0  0  0
  183.2120  177.5060  136.5930 O   0  0  0  0  0  1  0  0  0  0  0  0
  183.5370  176.1670  136.3300 C   0  0  2  0  0  3  0  0  0  0  0  0
  181.0200  174.6660  137.4710 C   0  0  2  0  0  3  0  0  0  0  0  0
  181.0600  174.9060  139.8430 O   0  0  0  0  0  1  0  0  0  0  0  0
  181.1270  175.3400  136.1020 C   0  0  1  0  0  3  0  0  0  0  0  0
  184.8510  174.6480  137.5790 O   0  0  0  0  0  0  0  0  0  0  0  0
  179.7140  174.2250  137.6920 O   0  0  0  0  0  1  0  0  0  0  0  0
  182.9910  175.3700  138.7080 O   0  0  0  0  0  0  0  0  0  0  0  0
  179.9450  176.1300  135.5520 C   0  0  0  0  0  2  0  0  0  0  0  0
  180.2510  177.4900  135.4570 O   0  0  0  0  0  1  0  0  0  0  0  0
  1  4  1  0  0  0  0
  2 33  1  0  0  0  0
  2  6  1  0  0  0  0
  3  2  2  0  0  0  0
  4  6  2  0  0  0  0
  5  3  1  0  0  0  0
  5  1  2  0  0  0  0
  7  5  1  1  0  0  0
  9 31  1  6  0  0  0
  9 11  1  0  0  0  0
 10 29  1  6  0  0  0
 10  7  1  0  0  0  0
 11  8  2  0  0  0  0
 12  7  1  0  0  0  0
 13 14  1  6  0  0  0
 13 16  1  0  0  0  0
 14  9  1  0  0  0  0
 15 11  1  1  0  0  0
 15 16  1  0  0  0  0
 15 10  1  0  0  0  0
 16 12  1  1  0  0  0
 18 23  1  6  0  0  0
 18 20  1  0  0  0  0
 20 19  1  1  0  0  0
 21 17  1  1  0  0  0
 21 18  1  0  0  0  0
 21 20  1  0  0  0  0
 22 17  1  6  0  0  0
 22 13  1  0  0  0  0
 22 19  1  0  0  0  0
 23 24  1  1  0  0  0
 25 23  1  0  0  0  0
 26 29  1  0  0  0  0
 28 26  1  0  0  0  0
 29 27  2  0  0  0  0
 30 31  1  0  0  0  0
 30 32  1  0  0  0  0
 31 32  1  0  0  0  0
 34 35  1  0  0  0  0
 34 33  1  0  0  0  0
 36 35  1  0  0  0  0
 37 36  1  0  0  0  0
 39 40  2  6  0  0  0
 39 37  1  0  0  0  0
 39 38  1  0  0  0  0
 41 39  1  0  0  0  0
 42 43  1  0  0  0  0
 42 41  1  0  0  0  0
 43 53  1  0  0  0  0
 43 49  1  1  0  0  0
 44 50  1  0  0  0  0
 44 47  1  0  0  0  0
 45 53  1  0  0  0  0
 47 46  1  1  0  0  0
 47 45  1  0  0  0  0
 48 52  1  1  0  0  0
 48 43  1  0  0  0  0
 50 54  1  1  0  0  0
 50 48  1  0  0  0  0
 51 45  2  0  0  0  0
 55 54  1  0  0  0  0
M  END
>  <MODEL>
5

>  <REMARK>
 VINA RESULT:      -6.1      4.171     10.864
  Name = 
  15 active torsions:
  status: ('A' for Active; 'I' for Inactive)
    1  A    between atoms: C_1  and  C_21
    2  A    between atoms: C_2  and  C_44
    3  A    between atoms: O_8  and  P_20
    4  A    between atoms: O_8  and  C_43
    5  A    between atoms: C_10  and  C_32
    6  A    between atoms: C_11  and  C_38
    7  A    between atoms: C_16  and  C_17
    8  A    between atoms: C_19  and  C_40
    9  A    between atoms: P_20  and  C_42
   10  A    between atoms: C_21  and  C_42
   11  A    between atoms: C_27  and  C_54
   12  A    between atoms: N_33  and  C_52
   13  A    between atoms: C_35  and  C_43
   14  A    between atoms: C_35  and  C_51
   15  A    between atoms: C_51  and  C_54
                            x       y       z     vdW  Elec       q    Type
                         _______ _______ _______ _____ _____    ______ ____

>  <TORSDO>
F 15

$$$$
=
 OpenBabel11052415083D

 55 61  0  0  1  0  0  0  0  0999 V2000
  185.2370  178.9830  140.3140 C   0  0  0  0  0  3  0  0  0  0  0  0
  183.7530  178.7760  142.6900 C   0  0  0  0  0  0  0  0  0  0  0  0
  183.1770  178.4140  141.4600 C   0  0  0  0  0  3  0  0  0  0  0  0
  185.8150  179.3480  141.5340 C   0  0  0  0  0  3  0  0  0  0  0  0
  183.9100  178.5230  140.2700 C   0  0  0  0  0  0  0  0  0  0  0  0
  185.0740  179.2450  142.7190 C   0  0  0  0  0  3  0  0  0  0  0  0
  183.2840  178.1180  138.9820 C   0  0  2  0  0  3  0  0  0  0  0  0
  179.5800  176.5520  139.8390 C   0  0  0  0  0  2  0  0  0  0  0  0
  180.2810  174.7470  138.2630 C   0  0  2  0  0  3  0  0  0  0  0  0
  181.7770  178.2320  139.0560 C   0  0  2  0  0  3  0  0  0  0  0  0
  180.2780  176.1910  138.7690 C   0  0  0  0  0  0  0  0  0  0  0  0
  183.5940  176.7850  138.6630 O   0  0  0  0  0  0  0  0  0  0  0  0
  182.4540  174.9110  137.8230 N   0  0  2  0  0  0  0  0  0  0  0  0
  181.2560  174.5980  137.2520 O   0  0  0  0  0  0  0  0  0  0  0  0
  181.2960  177.1200  138.1460 C   0  0  2  0  0  3  0  0  0  0  0  0
  182.5990  176.3780  137.7710 C   0  0  1  0  0  3  0  0  0  0  0  0
  183.1230  172.9270  136.5000 C   0  0  0  0  0  2  0  0  0  0  0  0
  185.5290  172.5040  135.9390 C   0  0  2  0  0  3  0  0  0  0  0  0
  184.8380  174.2160  137.6520 C   0  0  0  0  0  2  0  0  0  0  0  0
  185.4020  172.8230  137.4240 C   0  0  1  0  0  3  0  0  0  0  0  0
  184.3170  172.0130  136.7260 C   0  0  1  0  0  3  0  0  0  0  0  0
  183.4880  174.3350  136.9510 C   0  0  2  0  0  3  0  0  0  0  0  0
  186.5880  171.4240  135.7090 C   0  0  2  0  0  3  0  0  0  0  0  0
  187.8170  172.0600  135.0930 C   0  0  0  0  0  1  0  0  0  0  0  0
  186.1500  170.3640  134.9050 O   0  0  0  0  0  1  0  0  0  0  0  0
  180.5010  180.3990  139.4600 N   0  0  0  0  0  2  0  0  0  0  0  0
  181.5620  179.9530  137.4210 O   0  0  0  0  0  0  0  0  0  0  0  0
  180.0560  181.7270  139.0690 C   0  0  0  0  0  1  0  0  0  0  0  0
  181.2920  179.5720  138.5960 C   0  0  0  0  0  0  0  0  0  0  0  0
  178.9580  173.5990  136.3360 C   0  0  0  0  0  2  0  0  0  0  0  0
  178.9370  174.1800  137.7490 C   0  0  0  0  0  3  0  0  0  0  0  0
  179.0450  172.6750  137.5350 C   0  0  0  0  0  2  0  0  0  0  0  0
  182.9140  178.6520  143.9270 C   0  0  0  0  0  2  0  0  0  0  0  0
  183.6020  179.0760  145.2330 C   0  0  0  0  0  2  0  0  0  0  0  0
  184.8350  178.2180  145.4930 C   0  0  0  0  0  2  0  0  0  0  0  0
  185.7390  178.8780  146.5180 C   0  0  0  0  0  2  0  0  0  0  0  0
  186.1690  177.9140  147.4310 O   0  0  0  0  0  0  0  0  0  0  0  0
  188.5710  178.6300  148.6450 O   0  0  0  0  0  1  0  0  0  0  0  0
  187.8590  177.8350  147.3280 P   0  0  1  0  0  0  0  0  0  0  0  0
  188.3720  176.4050  147.2940 O   0  0  0  0  0  0  0  0  0  0  0  0
  188.3590  178.6340  145.7690 C   0  0  0  0  0  2  0  0  0  0  0  0
  189.5870  177.9460  145.2000 C   0  0  0  0  0  2  0  0  0  0  0  0
  190.2560  178.5940  143.9730 C   0  0  2  0  0  0  0  0  0  0  0  0
  190.5100  175.6110  142.4680 C   0  0  0  0  0  2  0  0  0  0  0  0
  189.0210  177.6080  142.0000 C   0  0  0  0  0  0  0  0  0  0  0  0
  188.3420  175.8950  143.5500 O   0  0  0  0  0  1  0  0  0  0  0  0
  189.0830  176.1590  142.3890 C   0  0  2  0  0  3  0  0  0  0  0  0
  191.5050  177.8000  143.5370 C   0  0  2  0  0  3  0  0  0  0  0  0
  190.6580  179.9040  144.2760 O   0  0  0  0  0  1  0  0  0  0  0  0
  191.3650  176.2780  143.5380 C   0  0  1  0  0  3  0  0  0  0  0  0
  188.8370  177.8820  140.7890 O   0  0  0  0  0  0  0  0  0  0  0  0
  192.6420  178.1810  144.2540 O   0  0  0  0  0  1  0  0  0  0  0  0
  189.3280  178.6650  142.8860 O   0  0  0  0  0  0  0  0  0  0  0  0
  191.8100  175.4760  144.7560 C   0  0  0  0  0  2  0  0  0  0  0  0
  192.3940  174.2660  144.3740 O   0  0  0  0  0  1  0  0  0  0  0  0
  1  4  1  0  0  0  0
  2  6  1  0  0  0  0
  2 33  1  0  0  0  0
  3  2  2  0  0  0  0
  4  6  2  0  0  0  0
  5  1  2  0  0  0  0
  5  3  1  0  0  0  0
  7 10  1  0  0  0  0
  7  5  1  1  0  0  0
  9 31  1  6  0  0  0
  9 11  1  0  0  0  0
 10 29  1  6  0  0  0
 11  8  2  0  0  0  0
 12  7  1  0  0  0  0
 13 14  1  6  0  0  0
 14  9  1  0  0  0  0
 15 11  1  1  0  0  0
 15 10  1  0  0  0  0
 16 13  1  0  0  0  0
 16 15  1  0  0  0  0
 16 12  1  1  0  0  0
 18 23  1  1  0  0  0
 18 21  1  0  0  0  0
 18 20  1  0  0  0  0
 20 19  1  6  0  0  0
 21 17  1  6  0  0  0
 21 20  1  0  0  0  0
 22 17  1  1  0  0  0
 22 19  1  0  0  0  0
 22 13  1  0  0  0  0
 23 24  1  6  0  0  0
 25 23  1  0  0  0  0
 27 29  2  0  0  0  0
 28 26  1  0  0  0  0
 29 26  1  0  0  0  0
 30 32  1  0  0  0  0
 30 31  1  0  0  0  0
 32 31  1  0  0  0  0
 33 34  1  0  0  0  0
 34 35  1  0  0  0  0
 35 36  1  0  0  0  0
 36 37  1  0  0  0  0
 39 40  2  6  0  0  0
 39 37  1  0  0  0  0
 39 38  1  0  0  0  0
 41 39  1  0  0  0  0
 42 41  1  0  0  0  0
 43 49  1  1  0  0  0
 43 42  1  0  0  0  0
 44 50  1  0  0  0  0
 45 47  1  0  0  0  0
 45 53  1  0  0  0  0
 47 44  1  0  0  0  0
 47 46  1  1  0  0  0
 48 50  1  0  0  0  0
 48 43  1  0  0  0  0
 48 52  1  1  0  0  0
 50 54  1  1  0  0  0
 51 45  2  0  0  0  0
 53 43  1  0  0  0  0
 55 54  1  0  0  0  0
M  END
>  <MODEL>
6

>  <REMARK>
 VINA RESULT:      -6.1      2.267      6.968
  Name = 
  15 active torsions:
  status: ('A' for Active; 'I' for Inactive)
    1  A    between atoms: C_1  and  C_21
    2  A    between atoms: C_2  and  C_44
    3  A    between atoms: O_8  and  P_20
    4  A    between atoms: O_8  and  C_43
    5  A    between atoms: C_10  and  C_32
    6  A    between atoms: C_11  and  C_38
    7  A    between atoms: C_16  and  C_17
    8  A    between atoms: C_19  and  C_40
    9  A    between atoms: P_20  and  C_42
   10  A    between atoms: C_21  and  C_42
   11  A    between atoms: C_27  and  C_54
   12  A    between atoms: N_33  and  C_52
   13  A    between atoms: C_35  and  C_43
   14  A    between atoms: C_35  and  C_51
   15  A    between atoms: C_51  and  C_54
                            x       y       z     vdW  Elec       q    Type
                         _______ _______ _______ _____ _____    ______ ____

>  <TORSDO>
F 15

$$$$
=
 OpenBabel11052415083D

 55 61  0  0  1  0  0  0  0  0999 V2000
  184.8670  176.2640  135.4920 C   0  0  0  0  0  3  0  0  0  0  0  0
  187.4870  176.5780  136.4560 C   0  0  0  0  0  0  0  0  0  0  0  0
  186.4140  176.4290  137.3520 C   0  0  0  0  0  3  0  0  0  0  0  0
  185.9300  176.4140  134.5960 C   0  0  0  0  0  3  0  0  0  0  0  0
  185.1040  176.2790  136.8780 C   0  0  0  0  0  0  0  0  0  0  0  0
  187.2360  176.5730  135.0770 C   0  0  0  0  0  3  0  0  0  0  0  0
  183.9860  176.1060  137.8450 C   0  0  2  0  0  3  0  0  0  0  0  0
  181.1250  178.9220  136.9540 C   0  0  0  0  0  2  0  0  0  0  0  0
  181.1240  179.3040  139.4210 C   0  0  2  0  0  3  0  0  0  0  0  0
  182.6680  176.5120  137.2230 C   0  0  2  0  0  3  0  0  0  0  0  0
  181.2870  178.4300  138.1760 C   0  0  0  0  0  0  0  0  0  0  0  0
  184.1780  176.8990  138.9890 O   0  0  0  0  0  0  0  0  0  0  0  0
  182.8630  178.2830  140.3590 N   0  0  2  0  0  0  0  0  0  0  0  0
  181.5510  178.5920  140.5630 O   0  0  0  0  0  0  0  0  0  0  0  0
  181.8780  177.0550  138.3970 C   0  0  2  0  0  3  0  0  0  0  0  0
  182.9070  177.0500  139.5500 C   0  0  1  0  0  3  0  0  0  0  0  0
  182.6670  178.6740  142.7960 C   0  0  0  0  0  2  0  0  0  0  0  0
  184.6270  178.3210  144.3190 C   0  0  2  0  0  3  0  0  0  0  0  0
  184.8780  178.3990  141.8140 C   0  0  0  0  0  2  0  0  0  0  0  0
  185.0590  179.1560  143.1190 C   0  0  1  0  0  3  0  0  0  0  0  0
  183.6720  179.3480  143.7180 C   0  0  1  0  0  3  0  0  0  0  0  0
  183.4220  177.9650  141.6800 C   0  0  2  0  0  3  0  0  0  0  0  0
  185.3250  178.8050  145.5920 C   0  0  2  0  0  3  0  0  0  0  0  0
  186.6400  178.0700  145.7450 C   0  0  0  0  0  1  0  0  0  0  0  0
  184.5560  178.6500  146.7530 O   0  0  0  0  0  1  0  0  0  0  0  0
  181.7630  174.1320  137.3000 N   0  0  0  0  0  2  0  0  0  0  0  0
  181.6010  175.4520  135.3730 O   0  0  0  0  0  0  0  0  0  0  0  0
  181.0470  173.0040  136.7260 C   0  0  0  0  0  1  0  0  0  0  0  0
  181.9730  175.3530  136.5780 C   0  0  0  0  0  0  0  0  0  0  0  0
  179.2770  179.9060  141.1540 C   0  0  0  0  0  2  0  0  0  0  0  0
  179.7180  179.8870  139.6910 C   0  0  0  0  0  3  0  0  0  0  0  0
  179.8250  181.1660  140.5130 C   0  0  0  0  0  2  0  0  0  0  0  0
  188.8640  176.7500  137.0250 C   0  0  0  0  0  2  0  0  0  0  0  0
  188.9400  177.5570  138.3310 C   0  0  0  0  0  2  0  0  0  0  0  0
  189.5430  176.7130  139.4480 C   0  0  0  0  0  2  0  0  0  0  0  0
  191.0590  176.7190  139.3650 C   0  0  0  0  0  2  0  0  0  0  0  0
  191.4380  176.8960  138.0340 O   0  0  0  0  0  0  0  0  0  0  0  0
  193.6870  176.7860  136.3940 O   0  0  0  0  0  0  0  0  0  0  0  0
  193.0180  176.3000  137.8740 P   0  0  1  0  0  0  0  0  0  0  0  0
  193.9320  176.7690  138.9930 O   0  0  0  0  0  1  0  0  0  0  0  0
  192.9370  174.4820  137.9560 C   0  0  0  0  0  2  0  0  0  0  0  0
  194.0830  173.8730  137.1690 C   0  0  0  0  0  2  0  0  0  0  0  0
  195.4480  173.7650  137.8760 C   0  0  2  0  0  0  0  0  0  0  0  0
  196.9080  172.7840  135.0240 C   0  0  0  0  0  2  0  0  0  0  0  0
  197.0480  174.9560  136.3230 C   0  0  0  0  0  0  0  0  0  0  0  0
  195.3450  174.6200  134.6530 O   0  0  0  0  0  1  0  0  0  0  0  0
  196.6550  174.2940  135.0330 C   0  0  2  0  0  3  0  0  0  0  0  0
  196.1540  172.4390  137.5220 C   0  0  2  0  0  3  0  0  0  0  0  0
  195.2770  173.8070  139.2680 O   0  0  0  0  0  1  0  0  0  0  0  0
  196.0880  172.0180  136.0530 C   0  0  1  0  0  3  0  0  0  0  0  0
  198.1850  175.4840  136.3880 O   0  0  0  0  0  0  0  0  0  0  0  0
  195.7380  171.3900  138.3450 O   0  0  0  0  0  1  0  0  0  0  0  0
  196.2830  174.8670  137.5070 O   0  0  0  0  0  0  0  0  0  0  0  0
  194.9960  171.0620  135.5870 C   0  0  0  0  0  2  0  0  0  0  0  0
  194.0790  171.7130  134.7580 O   0  0  0  0  0  1  0  0  0  0  0  0
  1  5  1  0  0  0  0
  2 33  1  0  0  0  0
  2  3  1  0  0  0  0
  4  6  1  0  0  0  0
  4  1  2  0  0  0  0
  5  3  2  0  0  0  0
  6  2  2  0  0  0  0
  7  5  1  6  0  0  0
  7 12  1  0  0  0  0
  8 11  2  0  0  0  0
  9 31  1  1  0  0  0
  9 14  1  0  0  0  0
 10 29  1  1  0  0  0
 10  7  1  0  0  0  0
 10 15  1  0  0  0  0
 11  9  1  0  0  0  0
 13 14  1  1  0  0  0
 13 22  1  0  0  0  0
 15 11  1  6  0  0  0
 15 16  1  0  0  0  0
 16 12  1  6  0  0  0
 16 13  1  0  0  0  0
 18 23  1  1  0  0  0
 20 19  1  6  0  0  0
 20 21  1  0  0  0  0
 20 18  1  0  0  0  0
 21 17  1  6  0  0  0
 21 18  1  0  0  0  0
 22 19  1  6  0  0  0
 22 17  1  0  0  0  0
 23 24  1  1  0  0  0
 23 25  1  0  0  0  0
 27 29  2  0  0  0  0
 28 26  1  0  0  0  0
 29 26  1  0  0  0  0
 31 32  1  0  0  0  0
 31 30  1  0  0  0  0
 32 30  1  0  0  0  0
 33 34  1  0  0  0  0
 34 35  1  0  0  0  0
 36 35  1  0  0  0  0
 37 36  1  0  0  0  0
 39 38  2  6  0  0  0
 39 41  1  0  0  0  0
 39 37  1  0  0  0  0
 39 40  1  0  0  0  0
 42 43  1  0  0  0  0
 42 41  1  0  0  0  0
 43 49  1  1  0  0  0
 44 47  1  0  0  0  0
 44 50  1  0  0  0  0
 45 51  2  0  0  0  0
 45 53  1  0  0  0  0
 47 46  1  1  0  0  0
 47 45  1  0  0  0  0
 48 43  1  0  0  0  0
 48 52  1  1  0  0  0
 50 54  1  6  0  0  0
 50 48  1  0  0  0  0
 53 43  1  0  0  0  0
 55 54  1  0  0  0  0
M  END
>  <MODEL>
7

>  <REMARK>
 VINA RESULT:      -5.8      4.255      5.733
  Name = 
  15 active torsions:
  status: ('A' for Active; 'I' for Inactive)
    1  A    between atoms: C_1  and  C_21
    2  A    between atoms: C_2  and  C_44
    3  A    between atoms: O_8  and  P_20
    4  A    between atoms: O_8  and  C_43
    5  A    between atoms: C_10  and  C_32
    6  A    between atoms: C_11  and  C_38
    7  A    between atoms: C_16  and  C_17
    8  A    between atoms: C_19  and  C_40
    9  A    between atoms: P_20  and  C_42
   10  A    between atoms: C_21  and  C_42
   11  A    between atoms: C_27  and  C_54
   12  A    between atoms: N_33  and  C_52
   13  A    between atoms: C_35  and  C_43
   14  A    between atoms: C_35  and  C_51
   15  A    between atoms: C_51  and  C_54
                            x       y       z     vdW  Elec       q    Type
                         _______ _______ _______ _____ _____    ______ ____

>  <TORSDO>
F 15

$$$$
=
 OpenBabel11052415083D

 55 61  0  0  1  0  0  0  0  0999 V2000
  184.9140  176.1690  135.4720 C   0  0  0  0  0  3  0  0  0  0  0  0
  187.5100  176.5470  136.4760 C   0  0  0  0  0  0  0  0  0  0  0  0
  186.4140  176.4740  137.3520 C   0  0  0  0  0  3  0  0  0  0  0  0
  186.0000  176.2420  134.5940 C   0  0  0  0  0  3  0  0  0  0  0  0
  185.1150  176.2940  136.8570 C   0  0  0  0  0  0  0  0  0  0  0  0
  187.2950  176.4320  135.0950 C   0  0  0  0  0  3  0  0  0  0  0  0
  183.9710  176.2040  137.8050 C   0  0  2  0  0  3  0  0  0  0  0  0
  181.3080  179.1790  136.8240 C   0  0  0  0  0  2  0  0  0  0  0  0
  181.2860  179.5950  139.2850 C   0  0  2  0  0  3  0  0  0  0  0  0
  182.6920  176.6810  137.1530 C   0  0  2  0  0  3  0  0  0  0  0  0
  181.4160  178.6950  138.0550 C   0  0  0  0  0  0  0  0  0  0  0  0
  184.1910  176.9990  138.9420 O   0  0  0  0  0  0  0  0  0  0  0  0
  182.9410  178.4810  140.2690 N   0  0  2  0  0  0  0  0  0  0  0  0
  181.6470  178.8740  140.4440 O   0  0  0  0  0  0  0  0  0  0  0  0
  181.9170  177.2900  138.3050 C   0  0  2  0  0  3  0  0  0  0  0  0
  182.9230  177.2360  139.4770 C   0  0  1  0  0  3  0  0  0  0  0  0
  182.7020  178.8900  142.6990 C   0  0  0  0  0  2  0  0  0  0  0  0
  184.6090  178.4680  144.2700 C   0  0  2  0  0  3  0  0  0  0  0  0
  184.9240  178.5250  141.7720 C   0  0  0  0  0  2  0  0  0  0  0  0
  185.1020  179.2810  143.0790 C   0  0  1  0  0  3  0  0  0  0  0  0
  183.7100  179.5290  143.6420 C   0  0  1  0  0  3  0  0  0  0  0  0
  183.4550  178.1470  141.6050 C   0  0  2  0  0  3  0  0  0  0  0  0
  185.2940  178.9310  145.5580 C   0  0  2  0  0  3  0  0  0  0  0  0
  186.6810  178.3260  145.6250 C   0  0  0  0  0  1  0  0  0  0  0  0
  184.5830  178.6150  146.7230 O   0  0  0  0  0  1  0  0  0  0  0  0
  182.6350  174.4780  135.8770 N   0  0  0  0  0  2  0  0  0  0  0  0
  180.6730  175.5940  136.5010 O   0  0  0  0  0  0  0  0  0  0  0  0
  181.9390  173.3450  135.2880 C   0  0  0  0  0  1  0  0  0  0  0  0
  181.9380  175.5590  136.5100 C   0  0  0  0  0  0  0  0  0  0  0  0
  179.9070  181.4310  140.5140 C   0  0  0  0  0  2  0  0  0  0  0  0
  179.9150  180.2680  139.5210 C   0  0  0  0  0  3  0  0  0  0  0  0
  179.9400  181.7090  139.0230 C   0  0  0  0  0  2  0  0  0  0  0  0
  188.8730  176.7570  137.0660 C   0  0  0  0  0  2  0  0  0  0  0  0
  188.9140  177.6220  138.3340 C   0  0  0  0  0  2  0  0  0  0  0  0
  189.4320  176.8140  139.5190 C   0  0  0  0  0  2  0  0  0  0  0  0
  190.9490  176.7940  139.5310 C   0  0  0  0  0  2  0  0  0  0  0  0
  191.4160  177.0440  138.2400 O   0  0  0  0  0  0  0  0  0  0  0  0
  193.8270  177.1060  136.8480 O   0  0  0  0  0  0  0  0  0  0  0  0
  192.9780  176.3930  138.1300 P   0  0  1  0  0  0  0  0  0  0  0  0
  193.7790  176.5880  139.4060 O   0  0  0  0  0  1  0  0  0  0  0  0
  192.8150  174.6010  137.8520 C   0  0  0  0  0  2  0  0  0  0  0  0
  194.1740  173.9930  137.5570 C   0  0  0  0  0  2  0  0  0  0  0  0
  194.4210  173.4730  136.1280 C   0  0  2  0  0  0  0  0  0  0  0  0
  197.2310  171.9360  137.1130 C   0  0  0  0  0  2  0  0  0  0  0  0
  194.9630  171.0240  136.4430 C   0  0  0  0  0  0  0  0  0  0  0  0
  195.4240  171.6370  138.7250 O   0  0  0  0  0  1  0  0  0  0  0  0
  195.9850  171.1520  137.5350 C   0  0  2  0  0  3  0  0  0  0  0  0
  195.8850  173.7010  135.6980 C   0  0  2  0  0  3  0  0  0  0  0  0
  193.5920  174.1470  135.2170 O   0  0  0  0  0  1  0  0  0  0  0  0
  196.9480  173.3890  136.7520 C   0  0  1  0  0  3  0  0  0  0  0  0
  194.9770  169.9790  135.7470 O   0  0  0  0  0  0  0  0  0  0  0  0
  196.0830  174.9820  135.1770 O   0  0  0  0  0  1  0  0  0  0  0  0
  194.1090  172.0790  136.0490 O   0  0  0  0  0  0  0  0  0  0  0  0
  197.4860  174.5050  137.6410 C   0  0  0  0  0  2  0  0  0  0  0  0
  198.5250  175.1930  137.0080 O   0  0  0  0  0  1  0  0  0  0  0  0
  1  5  1  0  0  0  0
  2 33  1  0  0  0  0
  2  3  1  0  0  0  0
  4  6  1  0  0  0  0
  4  1  2  0  0  0  0
  5  3  2  0  0  0  0
  6  2  2  0  0  0  0
  7  5  1  6  0  0  0
  7 12  1  0  0  0  0
  8 11  2  0  0  0  0
  9 31  1  1  0  0  0
  9 14  1  0  0  0  0
 10 29  1  1  0  0  0
 10  7  1  0  0  0  0
 10 15  1  0  0  0  0
 11  9  1  0  0  0  0
 13 14  1  1  0  0  0
 13 22  1  0  0  0  0
 15 11  1  6  0  0  0
 15 16  1  0  0  0  0
 16 12  1  6  0  0  0
 16 13  1  0  0  0  0
 18 23  1  1  0  0  0
 20 19  1  6  0  0  0
 20 21  1  0  0  0  0
 20 18  1  0  0  0  0
 21 17  1  6  0  0  0
 21 18  1  0  0  0  0
 22 19  1  6  0  0  0
 22 17  1  0  0  0  0
 23 24  1  1  0  0  0
 23 25  1  0  0  0  0
 26 29  1  0  0  0  0
 27 29  2  0  0  0  0
 28 26  1  0  0  0  0
 31 30  1  0  0  0  0
 32 31  1  0  0  0  0
 32 30  1  0  0  0  0
 33 34  1  0  0  0  0
 34 35  1  0  0  0  0
 35 36  1  0  0  0  0
 37 36  1  0  0  0  0
 39 38  2  6  0  0  0
 39 37  1  0  0  0  0
 39 40  1  0  0  0  0
 41 39  1  0  0  0  0
 42 41  1  0  0  0  0
 43 49  1  6  0  0  0
 43 42  1  0  0  0  0
 44 47  1  0  0  0  0
 45 47  1  0  0  0  0
 47 46  1  1  0  0  0
 48 52  1  1  0  0  0
 48 43  1  0  0  0  0
 48 50  1  0  0  0  0
 50 44  1  0  0  0  0
 50 54  1  1  0  0  0
 51 45  2  0  0  0  0
 53 43  1  0  0  0  0
 53 45  1  0  0  0  0
 55 54  1  0  0  0  0
M  END
>  <MODEL>
8

>  <REMARK>
 VINA RESULT:      -5.5      4.276      5.739
  Name = 
  15 active torsions:
  status: ('A' for Active; 'I' for Inactive)
    1  A    between atoms: C_1  and  C_21
    2  A    between atoms: C_2  and  C_44
    3  A    between atoms: O_8  and  P_20
    4  A    between atoms: O_8  and  C_43
    5  A    between atoms: C_10  and  C_32
    6  A    between atoms: C_11  and  C_38
    7  A    between atoms: C_16  and  C_17
    8  A    between atoms: C_19  and  C_40
    9  A    between atoms: P_20  and  C_42
   10  A    between atoms: C_21  and  C_42
   11  A    between atoms: C_27  and  C_54
   12  A    between atoms: N_33  and  C_52
   13  A    between atoms: C_35  and  C_43
   14  A    between atoms: C_35  and  C_51
   15  A    between atoms: C_51  and  C_54
                            x       y       z     vdW  Elec       q    Type
                         _______ _______ _______ _____ _____    ______ ____

>  <TORSDO>
F 15

$$$$
=
 OpenBabel11052415083D

 55 61  0  0  1  0  0  0  0  0999 V2000
  188.6370  177.2360  146.2610 C   0  0  0  0  0  3  0  0  0  0  0  0
  186.3490  178.6040  145.3750 C   0  0  0  0  0  0  0  0  0  0  0  0
  187.1350  177.8710  144.4670 C   0  0  0  0  0  3  0  0  0  0  0  0
  187.8610  177.9640  147.1690 C   0  0  0  0  0  3  0  0  0  0  0  0
  188.2820  177.1940  144.9020 C   0  0  0  0  0  0  0  0  0  0  0  0
  186.7210  178.6480  146.7260 C   0  0  0  0  0  3  0  0  0  0  0  0
  189.0880  176.4120  143.9260 C   0  0  2  0  0  3  0  0  0  0  0  0
  192.4330  178.6270  143.0230 C   0  0  0  0  0  2  0  0  0  0  0  0
  191.8690  178.0130  140.6700 C   0  0  2  0  0  3  0  0  0  0  0  0
  190.5630  176.7170  144.0800 C   0  0  2  0  0  3  0  0  0  0  0  0
  191.9070  177.7500  142.1760 C   0  0  0  0  0  0  0  0  0  0  0  0
  188.7260  176.7200  142.6050 O   0  0  0  0  0  0  0  0  0  0  0  0
  189.8300  177.1300  140.5720 N   0  0  2  0  0  0  0  0  0  0  0  0
  191.0790  177.0300  140.0340 O   0  0  0  0  0  0  0  0  0  0  0  0
  191.1000  176.5700  142.6700 C   0  0  2  0  0  3  0  0  0  0  0  0
  189.8240  176.3510  141.8250 C   0  0  1  0  0  3  0  0  0  0  0  0
  189.6660  175.9200  138.4180 C   0  0  0  0  0  2  0  0  0  0  0  0
  187.5010  175.8180  137.1600 C   0  0  2  0  0  3  0  0  0  0  0  0
  187.8530  177.4020  139.0860 C   0  0  0  0  0  2  0  0  0  0  0  0
  187.7800  177.2580  137.5740 C   0  0  1  0  0  3  0  0  0  0  0  0
  188.9300  176.3510  137.1580 C   0  0  1  0  0  3  0  0  0  0  0  0
  188.9210  176.4590  139.6310 C   0  0  2  0  0  3  0  0  0  0  0  0
  186.8630  175.7730  135.7690 C   0  0  2  0  0  3  0  0  0  0  0  0
  186.2220  177.1130  135.4750 C   0  0  0  0  0  1  0  0  0  0  0  0
  185.9170  174.7510  135.6130 O   0  0  0  0  0  1  0  0  0  0  0  0
  191.4890  176.1610  146.3860 N   0  0  0  0  0  2  0  0  0  0  0  0
  191.6080  174.6400  144.6090 O   0  0  0  0  0  0  0  0  0  0  0  0
  192.0930  175.2560  147.3510 C   0  0  0  0  0  1  0  0  0  0  0  0
  191.2350  175.7740  145.0290 C   0  0  0  0  0  0  0  0  0  0  0  0
  194.1510  176.9020  140.0880 C   0  0  0  0  0  2  0  0  0  0  0  0
  193.2280  178.1120  139.9400 C   0  0  0  0  0  3  0  0  0  0  0  0
  193.3120  177.0650  138.8350 C   0  0  0  0  0  2  0  0  0  0  0  0
  185.1420  179.3210  144.8460 C   0  0  0  0  0  2  0  0  0  0  0  0
  183.8170  178.5540  144.9680 C   0  0  0  0  0  2  0  0  0  0  0  0
  182.6660  179.3810  144.4050 C   0  0  0  0  0  2  0  0  0  0  0  0
  181.9290  178.6070  143.3260 C   0  0  0  0  0  2  0  0  0  0  0  0
  181.4270  179.5070  142.3860 O   0  0  0  0  0  0  0  0  0  0  0  0
  179.2080  178.3640  143.6230 O   0  0  0  0  0  1  0  0  0  0  0  0
  179.7530  179.2570  142.2880 P   0  0  1  0  0  0  0  0  0  0  0  0
  178.9730  180.5600  142.2310 O   0  0  0  0  0  0  0  0  0  0  0  0
  179.4150  178.3460  140.7470 C   0  0  0  0  0  2  0  0  0  0  0  0
  180.7090  178.1020  139.9910 C   0  0  0  0  0  2  0  0  0  0  0  0
  180.6670  178.2350  138.4570 C   0  0  2  0  0  0  0  0  0  0  0  0
  183.8900  177.3430  138.2380 C   0  0  0  0  0  2  0  0  0  0  0  0
  181.7600  176.1150  137.6200 C   0  0  0  0  0  0  0  0  0  0  0  0
  182.6770  175.9620  139.8420 O   0  0  0  0  0  1  0  0  0  0  0  0
  182.9880  176.1310  138.4850 C   0  0  2  0  0  3  0  0  0  0  0  0
  181.8860  179.0230  137.9340 C   0  0  2  0  0  3  0  0  0  0  0  0
  179.5070  178.9180  138.0620 O   0  0  0  0  0  1  0  0  0  0  0  0
  183.2310  178.6760  138.5720 C   0  0  1  0  0  3  0  0  0  0  0  0
  181.8010  175.4480  136.5570 O   0  0  0  0  0  0  0  0  0  0  0  0
  181.6730  180.4030  137.9760 O   0  0  0  0  0  1  0  0  0  0  0  0
  180.6360  176.9390  137.8510 O   0  0  0  0  0  0  0  0  0  0  0  0
  183.7470  179.4980  139.7480 C   0  0  0  0  0  2  0  0  0  0  0  0
  185.1340  179.3810  139.8720 O   0  0  0  0  0  1  0  0  0  0  0  0
  1  4  1  0  0  0  0
  2  6  1  0  0  0  0
  3  5  1  0  0  0  0
  3  2  2  0  0  0  0
  5  1  2  0  0  0  0
  6  4  2  0  0  0  0
  7 10  1  0  0  0  0
  7  5  1  1  0  0  0
  9 31  1  6  0  0  0
  9 11  1  0  0  0  0
 10 29  1  1  0  0  0
 11  8  2  0  0  0  0
 12  7  1  0  0  0  0
 13 14  1  6  0  0  0
 13 16  1  0  0  0  0
 14  9  1  0  0  0  0
 15 11  1  6  0  0  0
 15 10  1  0  0  0  0
 16 12  1  1  0  0  0
 16 15  1  0  0  0  0
 18 23  1  6  0  0  0
 18 20  1  0  0  0  0
 19 22  1  0  0  0  0
 20 19  1  1  0  0  0
 21 18  1  0  0  0  0
 21 20  1  0  0  0  0
 21 17  1  1  0  0  0
 22 17  1  6  0  0  0
 22 13  1  0  0  0  0
 23 24  1  1  0  0  0
 25 23  1  0  0  0  0
 26 28  1  0  0  0  0
 27 29  2  0  0  0  0
 29 26  1  0  0  0  0
 31 30  1  0  0  0  0
 32 31  1  0  0  0  0
 32 30  1  0  0  0  0
 33 34  1  0  0  0  0
 33  2  1  0  0  0  0
 35 34  1  0  0  0  0
 36 35  1  0  0  0  0
 37 36  1  0  0  0  0
 39 40  2  6  0  0  0
 39 37  1  0  0  0  0
 39 38  1  0  0  0  0
 41 39  1  0  0  0  0
 42 41  1  0  0  0  0
 43 49  1  6  0  0  0
 43 42  1  0  0  0  0
 44 47  1  0  0  0  0
 44 50  1  0  0  0  0
 45 53  1  0  0  0  0
 45 47  1  0  0  0  0
 47 46  1  1  0  0  0
 48 52  1  1  0  0  0
 48 43  1  0  0  0  0
 48 50  1  0  0  0  0
 50 54  1  1  0  0  0
 51 45  2  0  0  0  0
 53 43  1  0  0  0  0
 54 55  1  0  0  0  0
M  END
>  <MODEL>
9

>  <REMARK>
 VINA RESULT:      -5.5      3.056     10.472
  Name = 
  15 active torsions:
  status: ('A' for Active; 'I' for Inactive)
    1  A    between atoms: C_1  and  C_21
    2  A    between atoms: C_2  and  C_44
    3  A    between atoms: O_8  and  P_20
    4  A    between atoms: O_8  and  C_43
    5  A    between atoms: C_10  and  C_32
    6  A    between atoms: C_11  and  C_38
    7  A    between atoms: C_16  and  C_17
    8  A    between atoms: C_19  and  C_40
    9  A    between atoms: P_20  and  C_42
   10  A    between atoms: C_21  and  C_42
   11  A    between atoms: C_27  and  C_54
   12  A    between atoms: N_33  and  C_52
   13  A    between atoms: C_35  and  C_43
   14  A    between atoms: C_35  and  C_51
   15  A    between atoms: C_51  and  C_54
                            x       y       z     vdW  Elec       q    Type
                         _______ _______ _______ _____ _____    ______ ____

>  <TORSDO>
F 15

$$$$
