=
 OpenBabel11052416393D

 43 50  0  0  1  0  0  0  0  0999 V2000
  182.0030  179.6340  138.4480 C   0  0  0  0  0  0  0  0  0  0  0  0
  183.9200  176.9580  134.7540 C   0  0  1  0  0  3  0  0  0  0  0  0
  183.6400  176.8390  137.7340 O   0  0  0  0  0  0  0  0  0  0  0  0
  183.3840  178.4940  140.1770 C   0  0  2  0  0  3  0  0  0  0  0  0
  181.4280  176.9440  134.9870 C   0  0  0  0  0  2  0  0  0  0  0  0
  185.1020  176.3790  135.5500 C   0  0  1  0  0  3  0  0  0  0  0  0
  186.1000  175.9910  134.6580 O   0  0  0  0  0  1  0  0  0  0  0  0
  184.9980  177.2490  137.9190 C   0  0  1  0  0  3  0  0  0  0  0  0
  182.6920  176.1090  135.0560 C   0  0  2  0  0  3  0  0  0  0  0  0
  185.6840  177.3720  136.5550 C   0  0  0  0  0  2  0  0  0  0  0  0
  184.7840  178.5810  139.9990 O   0  0  0  0  0  0  0  0  0  0  0  0
  185.0760  178.6220  138.6200 C   0  0  0  0  0  2  0  0  0  0  0  0
  182.7680  177.6380  136.9920 C   0  0  0  0  0  0  0  0  0  0  0  0
  182.2580  178.6540  137.6200 C   0  0  0  0  0  0  0  0  0  0  0  0
  182.6990  179.6540  139.6700 O   0  0  0  0  0  0  0  0  0  0  0  0
  182.7140  177.5620  135.4940 C   0  0  1  0  0  0  0  0  0  0  0  0
  180.4820  182.1570  136.1620 C   0  0  0  0  0  3  0  0  0  0  0  0
  179.4160  183.3250  138.0080 N   0  0  0  0  0  0  0  0  0  0  0  0
  180.1350  184.4690  136.1330 F   0  0  0  0  0  0  0  0  0  0  0  0
  180.4150  181.3710  139.1180 C   0  0  0  0  0  3  0  0  0  0  0  0
  180.7980  180.9780  136.6900 C   0  0  0  0  0  3  0  0  0  0  0  0
  181.0550  180.7220  138.1250 C   0  0  0  0  0  0  0  0  0  0  0  0
  180.4290  183.4100  136.9680 C   0  0  2  0  0  3  0  0  0  0  0  0
  179.4300  182.4620  138.9770 C   0  0  0  0  0  3  0  0  0  0  0  0
  183.0170  178.2900  141.6520 C   0  0  2  0  0  3  0  0  0  0  0  0
  181.6230  178.8210  141.9490 C   0  0  0  0  0  1  0  0  0  0  0  0
  184.0040  179.0360  142.5420 C   0  0  2  0  0  3  0  0  0  0  0  0
  184.5900  178.1090  143.5950 C   0  0  2  0  0  3  0  0  0  0  0  0
  183.4880  179.0770  143.9690 C   0  0  0  0  0  2  0  0  0  0  0  0
  185.9360  178.6570  144.0340 C   0  0  0  0  0  2  0  0  0  0  0  0
  186.7940  177.5670  144.4750 N   0  0  0  0  0  0  0  0  0  0  0  0
  189.1230  177.6690  145.1320 C   0  0  0  0  0  2  0  0  0  0  0  0
  186.8810  177.6410  145.9250 C   0  0  0  0  0  2  0  0  0  0  0  0
  188.1360  177.8530  143.9840 C   0  0  1  0  0  3  0  0  0  0  0  0
  188.2800  177.2330  146.3020 C   0  0  0  0  0  2  0  0  0  0  0  0
  188.4590  176.9650  142.7830 C   0  0  2  0  0  3  0  0  0  0  0  0
  189.1800  175.8270  143.1670 O   0  0  0  0  0  1  0  0  0  0  0  0
  189.1380  177.7870  141.6800 C   0  0  1  0  0  3  0  0  0  0  0  0
  188.6340  177.4620  140.2840 C   0  0  1  0  0  3  0  0  0  0  0  0
  188.1370  178.7010  141.0060 C   0  0  0  0  0  2  0  0  0  0  0  0
  189.6960  177.8600  139.2820 C   0  0  0  0  0  2  0  0  0  0  0  0
  189.1790  177.6470  137.8720 C   0  0  0  0  0  2  0  0  0  0  0  0
  188.9890  178.9900  137.2010 C   0  0  0  0  0  1  0  0  0  0  0  0
  1 15  1  0  0  0  0
  2  9  1  0  0  0  0
  2 16  1  0  0  0  0
  2  6  1  0  0  0  0
  3  8  1  0  0  0  0
  4 25  1  0  0  0  0
  5  9  1  0  0  0  0
  5 16  1  0  0  0  0
  6 10  1  0  0  0  0
  7  6  1  0  0  0  0
  8 12  1  0  0  0  0
  9 16  1  0  0  0  0
 10  8  1  0  0  0  0
 11  4  1  0  0  0  0
 12 11  1  0  0  0  0
 13 14  2  0  0  0  0
 13  3  1  0  0  0  0
 14  1  2  0  0  0  0
 15  4  1  0  0  0  0
 16 13  1  0  0  0  0
 17 21  2  0  0  0  0
 17 23  1  0  0  0  0
 18 24  2  0  0  0  0
 19 23  1  0  0  0  0
 21 22  1  0  0  0  0
 22  1  1  0  0  0  0
 22 20  2  0  0  0  0
 23 18  1  0  0  0  0
 24 20  1  0  0  0  0
 25 26  1  0  0  0  0
 25 27  1  0  0  0  0
 27 28  1  0  0  0  0
 27 29  1  0  0  0  0
 28 29  1  0  0  0  0
 28 30  1  0  0  0  0
 30 31  1  0  0  0  0
 31 33  1  0  0  0  0
 32 35  1  0  0  0  0
 33 35  1  0  0  0  0
 34 31  1  0  0  0  0
 34 32  1  0  0  0  0
 36 37  1  0  0  0  0
 36 34  1  0  0  0  0
 38 36  1  0  0  0  0
 39 40  1  0  0  0  0
 39 38  1  0  0  0  0
 40 38  1  0  0  0  0
 41 39  1  0  0  0  0
 42 41  1  0  0  0  0
 43 42  1  0  0  0  0
M  END
>  <MODEL>
1

>  <REMARK>
 VINA RESULT:      -8.3      0.000      0.000
  Name = 
  9 active torsions:
  status: ('A' for Active; 'I' for Inactive)
    1  A    between atoms: C_1  and  C_35
    2  A    between atoms: C_2  and  C_6
    3  A    between atoms: C_2  and  C_13
    4  A    between atoms: C_3  and  N_4
    5  A    between atoms: C_3  and  C_12
    6  A    between atoms: C_11  and  C_14
    7  A    between atoms: C_14  and  C_22
    8  A    between atoms: C_26  and  C_29
    9  A    between atoms: C_29  and  C_36
                            x       y       z     vdW  Elec       q    Type
                         _______ _______ _______ _____ _____    ______ ____

>  <TORSDO>
F 9

$$$$
=
 OpenBabel11052416393D

 43 50  0  0  1  0  0  0  0  0999 V2000
  188.0250  176.9090  138.3440 C   0  0  0  0  0  0  0  0  0  0  0  0
  189.6980  173.3660  135.3220 C   0  0  1  0  0  3  0  0  0  0  0  0
  190.3850  174.6120  137.9590 O   0  0  0  0  0  0  0  0  0  0  0  0
  190.1980  177.1070  139.5430 C   0  0  2  0  0  3  0  0  0  0  0  0
  187.6300  172.8520  136.6350 C   0  0  0  0  0  2  0  0  0  0  0  0
  191.1900  173.5460  135.6490 C   0  0  1  0  0  3  0  0  0  0  0  0
  191.9480  173.0400  134.5940 O   0  0  0  0  0  1  0  0  0  0  0  0
  191.4390  175.3800  137.3680 C   0  0  1  0  0  3  0  0  0  0  0  0
  189.0850  172.4900  136.4070 C   0  0  2  0  0  3  0  0  0  0  0  0
  191.5740  175.0040  135.8890 C   0  0  0  0  0  2  0  0  0  0  0  0
  191.3130  177.4410  138.7410 O   0  0  0  0  0  0  0  0  0  0  0  0
  191.1400  176.8920  137.4520 C   0  0  0  0  0  2  0  0  0  0  0  0
  189.0850  174.7200  137.4650 C   0  0  0  0  0  0  0  0  0  0  0  0
  188.4080  175.7510  137.8720 C   0  0  0  0  0  0  0  0  0  0  0  0
  188.9770  177.6780  139.0390 O   0  0  0  0  0  0  0  0  0  0  0  0
  188.6280  173.9310  136.2730 C   0  0  1  0  0  0  0  0  0  0  0  0
  184.9590  178.7330  139.4260 C   0  0  0  0  0  3  0  0  0  0  0  0
  183.6640  177.8510  137.5680 N   0  0  0  0  0  0  0  0  0  0  0  0
  182.6680  178.3010  139.6050 F   0  0  0  0  0  0  0  0  0  0  0  0
  185.9240  177.0070  137.0930 C   0  0  0  0  0  3  0  0  0  0  0  0
  186.2160  178.5130  139.0530 C   0  0  0  0  0  3  0  0  0  0  0  0
  186.6620  177.4420  138.1340 C   0  0  0  0  0  0  0  0  0  0  0  0
  183.8310  177.8510  139.0130 C   0  0  2  0  0  3  0  0  0  0  0  0
  184.5610  177.4400  136.7260 C   0  0  0  0  0  3  0  0  0  0  0  0
  190.4020  177.5450  140.9980 C   0  0  2  0  0  3  0  0  0  0  0  0
  191.7700  177.1250  141.5120 C   0  0  0  0  0  1  0  0  0  0  0  0
  189.3470  176.9000  141.8880 C   0  0  2  0  0  3  0  0  0  0  0  0
  189.5630  177.2800  143.3450 C   0  0  2  0  0  3  0  0  0  0  0  0
  190.0030  175.9200  142.8450 C   0  0  0  0  0  2  0  0  0  0  0  0
  188.2410  177.1610  144.0820 C   0  0  0  0  0  2  0  0  0  0  0  0
  188.2470  178.0290  145.2510 N   0  0  0  0  0  0  0  0  0  0  0  0
  187.4630  177.5300  147.4880 C   0  0  0  0  0  2  0  0  0  0  0  0
  189.3770  177.6360  146.0790 C   0  0  0  0  0  2  0  0  0  0  0  0
  187.0570  177.7080  146.0290 C   0  0  1  0  0  3  0  0  0  0  0  0
  188.9470  177.7960  147.5130 C   0  0  0  0  0  2  0  0  0  0  0  0
  185.9960  178.7910  145.8410 C   0  0  2  0  0  3  0  0  0  0  0  0
  185.7110  179.4430  147.0490 O   0  0  0  0  0  1  0  0  0  0  0  0
  184.7600  178.2100  145.1430 C   0  0  1  0  0  3  0  0  0  0  0  0
  183.8990  179.2600  144.4620 C   0  0  1  0  0  3  0  0  0  0  0  0
  184.8530  178.4070  143.6460 C   0  0  0  0  0  2  0  0  0  0  0  0
  182.4940  178.7140  144.3170 C   0  0  0  0  0  2  0  0  0  0  0  0
  181.8410  179.2970  143.0790 C   0  0  0  0  0  2  0  0  0  0  0  0
  180.4270  178.7670  142.9640 C   0  0  0  0  0  1  0  0  0  0  0  0
  1 15  1  0  0  0  0
  2  6  1  0  0  0  0
  2 16  1  0  0  0  0
  2  9  1  0  0  0  0
  4 25  1  0  0  0  0
  6 10  1  0  0  0  0
  7  6  1  0  0  0  0
  8 12  1  0  0  0  0
  8  3  1  0  0  0  0
  9  5  1  0  0  0  0
 10  8  1  0  0  0  0
 11  4  1  0  0  0  0
 12 11  1  0  0  0  0
 13 14  2  0  0  0  0
 13  3  1  0  0  0  0
 14  1  2  0  0  0  0
 15  4  1  0  0  0  0
 16  9  1  0  0  0  0
 16  5  1  0  0  0  0
 16 13  1  0  0  0  0
 18 23  1  0  0  0  0
 20 22  2  0  0  0  0
 21 17  2  0  0  0  0
 22  1  1  0  0  0  0
 22 21  1  0  0  0  0
 23 17  1  0  0  0  0
 23 19  1  0  0  0  0
 24 20  1  0  0  0  0
 24 18  2  0  0  0  0
 25 26  1  0  0  0  0
 25 27  1  0  0  0  0
 27 29  1  0  0  0  0
 27 28  1  0  0  0  0
 28 30  1  0  0  0  0
 29 28  1  0  0  0  0
 30 31  1  0  0  0  0
 31 34  1  0  0  0  0
 31 33  1  0  0  0  0
 32 35  1  0  0  0  0
 33 35  1  0  0  0  0
 34 32  1  0  0  0  0
 36 34  1  0  0  0  0
 36 37  1  0  0  0  0
 38 36  1  0  0  0  0
 39 38  1  0  0  0  0
 40 39  1  0  0  0  0
 40 38  1  0  0  0  0
 41 39  1  0  0  0  0
 42 41  1  0  0  0  0
 43 42  1  0  0  0  0
M  END
>  <MODEL>
2

>  <REMARK>
 VINA RESULT:      -7.7      3.469      6.586
  Name = 
  9 active torsions:
  status: ('A' for Active; 'I' for Inactive)
    1  A    between atoms: C_1  and  C_35
    2  A    between atoms: C_2  and  C_6
    3  A    between atoms: C_2  and  C_13
    4  A    between atoms: C_3  and  N_4
    5  A    between atoms: C_3  and  C_12
    6  A    between atoms: C_11  and  C_14
    7  A    between atoms: C_14  and  C_22
    8  A    between atoms: C_26  and  C_29
    9  A    between atoms: C_29  and  C_36
                            x       y       z     vdW  Elec       q    Type
                         _______ _______ _______ _____ _____    ______ ____

>  <TORSDO>
F 9

$$$$
=
 OpenBabel11052416393D

 43 50  0  0  1  0  0  0  0  0999 V2000
  184.1120  176.1200  137.3270 C   0  0  0  0  0  0  0  0  0  0  0  0
  180.2220  178.7260  138.9280 C   0  0  1  0  0  3  0  0  0  0  0  0
  182.9990  179.1900  137.9050 O   0  0  0  0  0  0  0  0  0  0  0  0
  185.7030  177.9970  137.7070 C   0  0  2  0  0  3  0  0  0  0  0  0
  180.0500  177.7230  136.6410 C   0  0  0  0  0  2  0  0  0  0  0  0
  181.0280  179.8690  139.5690 C   0  0  1  0  0  3  0  0  0  0  0  0
  180.2360  180.4940  140.5320 O   0  0  0  0  0  1  0  0  0  0  0  0
  183.4910  179.4280  139.2280 C   0  0  1  0  0  3  0  0  0  0  0  0
  180.1090  179.0130  137.4370 C   0  0  2  0  0  3  0  0  0  0  0  0
  182.3240  179.3900  140.2190 C   0  0  0  0  0  2  0  0  0  0  0  0
  185.7750  178.4820  139.0330 O   0  0  0  0  0  0  0  0  0  0  0  0
  184.5110  178.3480  139.6460 C   0  0  0  0  0  2  0  0  0  0  0  0
  182.3490  177.9910  137.6110 C   0  0  0  0  0  0  0  0  0  0  0  0
  183.1190  176.9690  137.3870 C   0  0  0  0  0  0  0  0  0  0  0  0
  185.3950  176.5920  137.6580 O   0  0  0  0  0  0  0  0  0  0  0  0
  180.8890  177.7960  137.8990 C   0  0  1  0  0  0  0  0  0  0  0  0
  182.1540  173.2660  135.9400 C   0  0  0  0  0  3  0  0  0  0  0  0
  183.6450  171.6310  136.9480 N   0  0  0  0  0  0  0  0  0  0  0  0
  181.3940  171.1790  136.6710 F   0  0  0  0  0  0  0  0  0  0  0  0
  184.7500  173.7630  137.4810 C   0  0  0  0  0  3  0  0  0  0  0  0
  182.8600  174.3920  135.9880 C   0  0  0  0  0  3  0  0  0  0  0  0
  183.9220  174.6970  136.9730 C   0  0  0  0  0  0  0  0  0  0  0  0
  182.2980  172.1830  136.9540 C   0  0  2  0  0  3  0  0  0  0  0  0
  184.7170  172.3090  137.2210 C   0  0  0  0  0  3  0  0  0  0  0  0
  187.0060  178.2600  136.9410 C   0  0  2  0  0  3  0  0  0  0  0  0
  186.8100  178.0770  135.4440 C   0  0  0  0  0  1  0  0  0  0  0  0
  188.0830  177.2830  137.3980 C   0  0  2  0  0  3  0  0  0  0  0  0
  189.1980  178.0120  138.1300 C   0  0  2  0  0  3  0  0  0  0  0  0
  189.3910  177.5860  136.6900 C   0  0  0  0  0  2  0  0  0  0  0  0
  189.8930  177.0340  139.0600 C   0  0  0  0  0  2  0  0  0  0  0  0
  190.2000  177.6870  140.3240 N   0  0  0  0  0  0  0  0  0  0  0  0
  190.5200  176.6640  142.4970 C   0  0  0  0  0  2  0  0  0  0  0  0
  191.6240  177.5130  140.5680 C   0  0  0  0  0  2  0  0  0  0  0  0
  189.5260  176.9310  141.3720 C   0  0  1  0  0  3  0  0  0  0  0  0
  191.7960  177.3330  142.0530 C   0  0  0  0  0  2  0  0  0  0  0  0
  188.2850  177.6850  141.8500 C   0  0  2  0  0  3  0  0  0  0  0  0
  188.2550  178.9920  141.3450 O   0  0  0  0  0  1  0  0  0  0  0  0
  188.1700  177.6070  143.3770 C   0  0  1  0  0  3  0  0  0  0  0  0
  186.7380  177.6580  143.8810 C   0  0  1  0  0  3  0  0  0  0  0  0
  187.4710  176.3320  143.7930 C   0  0  0  0  0  2  0  0  0  0  0  0
  186.7460  178.1380  145.3160 C   0  0  0  0  0  2  0  0  0  0  0  0
  185.3320  178.4590  145.7600 C   0  0  0  0  0  2  0  0  0  0  0  0
  184.5180  178.8910  144.5590 C   0  0  0  0  0  1  0  0  0  0  0  0
  1 14  2  0  0  0  0
  1 15  1  0  0  0  0
  2  6  1  0  0  0  0
  3  8  1  0  0  0  0
  4 11  1  0  0  0  0
  5  9  1  0  0  0  0
  5 16  1  0  0  0  0
  6 10  1  0  0  0  0
  6  7  1  0  0  0  0
  8 12  1  0  0  0  0
  8 10  1  0  0  0  0
  9 16  1  0  0  0  0
  9  2  1  0  0  0  0
 11 12  1  0  0  0  0
 13 16  1  0  0  0  0
 13  3  1  0  0  0  0
 14 13  2  0  0  0  0
 15  4  1  0  0  0  0
 16  2  1  0  0  0  0
 17 21  2  0  0  0  0
 17 23  1  0  0  0  0
 18 23  1  0  0  0  0
 18 24  2  0  0  0  0
 19 23  1  0  0  0  0
 21 22  1  0  0  0  0
 22  1  1  0  0  0  0
 22 20  2  0  0  0  0
 24 20  1  0  0  0  0
 25 27  1  0  0  0  0
 25  4  1  0  0  0  0
 26 25  1  0  0  0  0
 27 28  1  0  0  0  0
 28 30  1  0  0  0  0
 29 27  1  0  0  0  0
 29 28  1  0  0  0  0
 30 31  1  0  0  0  0
 31 33  1  0  0  0  0
 31 34  1  0  0  0  0
 33 35  1  0  0  0  0
 34 36  1  0  0  0  0
 34 32  1  0  0  0  0
 35 32  1  0  0  0  0
 36 38  1  0  0  0  0
 37 36  1  0  0  0  0
 38 40  1  0  0  0  0
 38 39  1  0  0  0  0
 39 41  1  0  0  0  0
 40 39  1  0  0  0  0
 41 42  1  0  0  0  0
 43 42  1  0  0  0  0
M  END
>  <MODEL>
3

>  <REMARK>
 VINA RESULT:      -7.7      3.454      6.600
  Name = 
  9 active torsions:
  status: ('A' for Active; 'I' for Inactive)
    1  A    between atoms: C_1  and  C_35
    2  A    between atoms: C_2  and  C_6
    3  A    between atoms: C_2  and  C_13
    4  A    between atoms: C_3  and  N_4
    5  A    between atoms: C_3  and  C_12
    6  A    between atoms: C_11  and  C_14
    7  A    between atoms: C_14  and  C_22
    8  A    between atoms: C_26  and  C_29
    9  A    between atoms: C_29  and  C_36
                            x       y       z     vdW  Elec       q    Type
                         _______ _______ _______ _____ _____    ______ ____

>  <TORSDO>
F 9

$$$$
=
 OpenBabel11052416393D

 43 50  0  0  1  0  0  0  0  0999 V2000
  187.8930  176.8580  138.1830 C   0  0  0  0  0  0  0  0  0  0  0  0
  191.1680  174.3870  135.4170 C   0  0  1  0  0  3  0  0  0  0  0  0
  190.6700  175.0480  138.2960 O   0  0  0  0  0  0  0  0  0  0  0  0
  189.4550  177.0470  140.1120 C   0  0  2  0  0  3  0  0  0  0  0  0
  188.9360  173.3100  135.7630 C   0  0  0  0  0  2  0  0  0  0  0  0
  192.3970  174.6780  136.2960 C   0  0  1  0  0  3  0  0  0  0  0  0
  193.5480  174.5420  135.5230 O   0  0  0  0  0  1  0  0  0  0  0  0
  191.6750  176.0660  138.2790 C   0  0  1  0  0  3  0  0  0  0  0  0
  190.4260  173.2060  136.0270 C   0  0  2  0  0  3  0  0  0  0  0  0
  192.3680  176.0750  136.9130 C   0  0  0  0  0  2  0  0  0  0  0  0
  190.6780  177.7060  139.8490 O   0  0  0  0  0  0  0  0  0  0  0  0
  191.0590  177.4620  138.5130 C   0  0  0  0  0  2  0  0  0  0  0  0
  189.6130  175.1000  137.3850 C   0  0  0  0  0  0  0  0  0  0  0  0
  188.6420  175.9060  137.6900 C   0  0  0  0  0  0  0  0  0  0  0  0
  188.3790  177.5560  139.3030 O   0  0  0  0  0  0  0  0  0  0  0  0
  189.7520  174.5650  135.9900 C   0  0  1  0  0  0  0  0  0  0  0  0
  184.4510  178.2840  138.3220 C   0  0  0  0  0  3  0  0  0  0  0  0
  183.8680  177.3340  136.1620 N   0  0  0  0  0  0  0  0  0  0  0  0
  182.2750  177.5910  137.8170 F   0  0  0  0  0  0  0  0  0  0  0  0
  186.2520  176.7670  136.3700 C   0  0  0  0  0  3  0  0  0  0  0  0
  185.7790  178.2210  138.3350 C   0  0  0  0  0  3  0  0  0  0  0  0
  186.5980  177.2430  137.5830 C   0  0  0  0  0  0  0  0  0  0  0  0
  183.6050  177.2970  137.5930 C   0  0  2  0  0  3  0  0  0  0  0  0
  185.0140  177.0590  135.6190 C   0  0  0  0  0  3  0  0  0  0  0  0
  189.0700  177.1490  141.5930 C   0  0  2  0  0  3  0  0  0  0  0  0
  187.9100  178.1120  141.7950 C   0  0  0  0  0  1  0  0  0  0  0  0
  190.2540  177.6600  142.4050 C   0  0  2  0  0  3  0  0  0  0  0  0
  190.0490  177.3910  143.8880 C   0  0  2  0  0  3  0  0  0  0  0  0
  189.8040  178.7770  143.3300 C   0  0  0  0  0  2  0  0  0  0  0  0
  191.4070  177.3350  144.5650 C   0  0  0  0  0  2  0  0  0  0  0  0
  191.2370  177.3050  146.0110 N   0  0  0  0  0  0  0  0  0  0  0  0
  189.9580  175.7280  147.3330 C   0  0  0  0  0  2  0  0  0  0  0  0
  192.1290  176.2810  146.5320 C   0  0  0  0  0  2  0  0  0  0  0  0
  189.8870  176.8220  146.2740 C   0  0  1  0  0  3  0  0  0  0  0  0
  191.4200  175.6280  147.6890 C   0  0  0  0  0  2  0  0  0  0  0  0
  188.9830  177.9830  146.6860 C   0  0  2  0  0  3  0  0  0  0  0  0
  189.3790  178.5290  147.9150 O   0  0  0  0  0  1  0  0  0  0  0  0
  187.5110  177.5540  146.6440 C   0  0  1  0  0  3  0  0  0  0  0  0
  186.6790  178.3400  145.6450 C   0  0  1  0  0  3  0  0  0  0  0  0
  187.1740  176.9470  145.2990 C   0  0  0  0  0  2  0  0  0  0  0  0
  185.2250  178.2640  146.0610 C   0  0  0  0  0  2  0  0  0  0  0  0
  184.3780  179.1030  145.1240 C   0  0  0  0  0  2  0  0  0  0  0  0
  184.5440  178.5930  143.7090 C   0  0  0  0  0  1  0  0  0  0  0  0
  1 15  1  0  0  0  0
  2 16  1  0  0  0  0
  2  9  1  0  0  0  0
  2  6  1  0  0  0  0
  4 25  1  0  0  0  0
  5 16  1  0  0  0  0
  5  9  1  0  0  0  0
  6 10  1  0  0  0  0
  7  6  1  0  0  0  0
  8  3  1  0  0  0  0
  8 12  1  0  0  0  0
 10  8  1  0  0  0  0
 11  4  1  0  0  0  0
 12 11  1  0  0  0  0
 13 14  2  0  0  0  0
 13  3  1  0  0  0  0
 14  1  2  0  0  0  0
 15  4  1  0  0  0  0
 16  9  1  0  0  0  0
 16 13  1  0  0  0  0
 17 21  2  0  0  0  0
 18 23  1  0  0  0  0
 20 22  2  0  0  0  0
 22  1  1  0  0  0  0
 22 21  1  0  0  0  0
 23 19  1  0  0  0  0
 23 17  1  0  0  0  0
 24 18  2  0  0  0  0
 24 20  1  0  0  0  0
 25 26  1  0  0  0  0
 25 27  1  0  0  0  0
 27 29  1  0  0  0  0
 27 28  1  0  0  0  0
 28 30  1  0  0  0  0
 29 28  1  0  0  0  0
 30 31  1  0  0  0  0
 31 34  1  0  0  0  0
 31 33  1  0  0  0  0
 32 35  1  0  0  0  0
 33 35  1  0  0  0  0
 34 36  1  0  0  0  0
 34 32  1  0  0  0  0
 36 37  1  0  0  0  0
 38 36  1  0  0  0  0
 39 41  1  0  0  0  0
 39 38  1  0  0  0  0
 40 39  1  0  0  0  0
 40 38  1  0  0  0  0
 42 41  1  0  0  0  0
 43 42  1  0  0  0  0
M  END
>  <MODEL>
4

>  <REMARK>
 VINA RESULT:      -7.7      3.543      6.582
  Name = 
  9 active torsions:
  status: ('A' for Active; 'I' for Inactive)
    1  A    between atoms: C_1  and  C_35
    2  A    between atoms: C_2  and  C_6
    3  A    between atoms: C_2  and  C_13
    4  A    between atoms: C_3  and  N_4
    5  A    between atoms: C_3  and  C_12
    6  A    between atoms: C_11  and  C_14
    7  A    between atoms: C_14  and  C_22
    8  A    between atoms: C_26  and  C_29
    9  A    between atoms: C_29  and  C_36
                            x       y       z     vdW  Elec       q    Type
                         _______ _______ _______ _____ _____    ______ ____

>  <TORSDO>
F 9

$$$$
=
 OpenBabel11052416393D

 43 50  0  0  1  0  0  0  0  0999 V2000
  182.7230  179.2240  138.9520 C   0  0  0  0  0  0  0  0  0  0  0  0
  184.7120  177.0390  134.9830 C   0  0  1  0  0  3  0  0  0  0  0  0
  184.7970  176.8300  137.9700 O   0  0  0  0  0  0  0  0  0  0  0  0
  184.4900  178.3680  140.4820 C   0  0  2  0  0  3  0  0  0  0  0  0
  182.3160  176.5160  135.4820 C   0  0  0  0  0  2  0  0  0  0  0  0
  186.0670  176.7030  135.6280 C   0  0  1  0  0  3  0  0  0  0  0  0
  187.0170  176.5370  134.6210 O   0  0  0  0  0  1  0  0  0  0  0  0
  186.0580  177.5050  138.0230 C   0  0  1  0  0  3  0  0  0  0  0  0
  183.7210  175.9540  135.3860 C   0  0  2  0  0  3  0  0  0  0  0  0
  186.5470  177.7810  136.5980 C   0  0  0  0  0  2  0  0  0  0  0  0
  185.8150  178.7410  140.1580 O   0  0  0  0  0  0  0  0  0  0  0  0
  185.9360  178.8570  138.7570 C   0  0  0  0  0  2  0  0  0  0  0  0
  183.7050  177.4440  137.3540 C   0  0  0  0  0  0  0  0  0  0  0  0
  183.0750  178.3270  138.0680 C   0  0  0  0  0  0  0  0  0  0  0  0
  183.5340  179.3710  140.0920 O   0  0  0  0  0  0  0  0  0  0  0  0
  183.5000  177.3760  135.8690 C   0  0  1  0  0  0  0  0  0  0  0  0
  180.5900  181.5720  136.9930 C   0  0  0  0  0  3  0  0  0  0  0  0
  179.3690  182.2680  138.9770 N   0  0  0  0  0  0  0  0  0  0  0  0
  179.7400  183.7380  137.2320 F   0  0  0  0  0  0  0  0  0  0  0  0
  180.8200  180.4800  139.8400 C   0  0  0  0  0  3  0  0  0  0  0  0
  181.1800  180.4440  137.3780 C   0  0  0  0  0  3  0  0  0  0  0  0
  181.5460  180.1010  138.7700 C   0  0  0  0  0  0  0  0  0  0  0  0
  180.2950  182.6890  137.9360 C   0  0  2  0  0  3  0  0  0  0  0  0
  179.6130  181.3310  139.8410 C   0  0  0  0  0  3  0  0  0  0  0  0
  184.3390  178.0770  141.9800 C   0  0  2  0  0  3  0  0  0  0  0  0
  183.0310  178.6350  142.5190 C   0  0  0  0  0  1  0  0  0  0  0  0
  185.4810  178.7230  142.7540 C   0  0  2  0  0  3  0  0  0  0  0  0
  185.8640  177.8790  143.9600 C   0  0  2  0  0  3  0  0  0  0  0  0
  185.0100  179.1170  144.1430 C   0  0  0  0  0  2  0  0  0  0  0  0
  187.3040  178.1810  144.3300 C   0  0  0  0  0  2  0  0  0  0  0  0
  187.6730  177.4390  145.5270 N   0  0  0  0  0  0  0  0  0  0  0  0
  189.0100  178.1920  147.4010 C   0  0  0  0  0  2  0  0  0  0  0  0
  186.7930  177.8780  146.5990 C   0  0  0  0  0  2  0  0  0  0  0  0
  189.0090  177.8780  145.9090 C   0  0  1  0  0  3  0  0  0  0  0  0
  187.6100  177.8810  147.8640 C   0  0  0  0  0  2  0  0  0  0  0  0
  190.0410  176.8170  145.5300 C   0  0  2  0  0  3  0  0  0  0  0  0
  190.6380  176.2540  146.6670 O   0  0  0  0  0  1  0  0  0  0  0  0
  191.0450  177.3870  144.5200 C   0  0  1  0  0  3  0  0  0  0  0  0
  190.4910  177.4910  143.1090 C   0  0  1  0  0  3  0  0  0  0  0  0
  190.5680  178.7220  143.9930 C   0  0  0  0  0  2  0  0  0  0  0  0
  191.6500  177.5040  142.1350 C   0  0  0  0  0  2  0  0  0  0  0  0
  191.1310  177.3620  140.7160 C   0  0  0  0  0  2  0  0  0  0  0  0
  189.6180  177.3130  140.7410 C   0  0  0  0  0  1  0  0  0  0  0  0
  1 15  1  0  0  0  0
  2  9  1  0  0  0  0
  2  6  1  0  0  0  0
  2 16  1  0  0  0  0
  3  8  1  0  0  0  0
  4 25  1  0  0  0  0
  5 16  1  0  0  0  0
  6 10  1  0  0  0  0
  7  6  1  0  0  0  0
  8 12  1  0  0  0  0
  9  5  1  0  0  0  0
  9 16  1  0  0  0  0
 10  8  1  0  0  0  0
 11  4  1  0  0  0  0
 12 11  1  0  0  0  0
 13  3  1  0  0  0  0
 13 14  2  0  0  0  0
 14  1  2  0  0  0  0
 15  4  1  0  0  0  0
 16 13  1  0  0  0  0
 17 21  2  0  0  0  0
 17 23  1  0  0  0  0
 18 24  2  0  0  0  0
 19 23  1  0  0  0  0
 20 24  1  0  0  0  0
 21 22  1  0  0  0  0
 22  1  1  0  0  0  0
 22 20  2  0  0  0  0
 23 18  1  0  0  0  0
 25 26  1  0  0  0  0
 25 27  1  0  0  0  0
 27 28  1  0  0  0  0
 27 29  1  0  0  0  0
 28 29  1  0  0  0  0
 28 30  1  0  0  0  0
 30 31  1  0  0  0  0
 31 34  1  0  0  0  0
 31 33  1  0  0  0  0
 32 35  1  0  0  0  0
 33 35  1  0  0  0  0
 34 32  1  0  0  0  0
 36 34  1  0  0  0  0
 36 37  1  0  0  0  0
 38 36  1  0  0  0  0
 39 40  1  0  0  0  0
 39 38  1  0  0  0  0
 40 38  1  0  0  0  0
 41 39  1  0  0  0  0
 42 43  1  0  0  0  0
 42 41  1  0  0  0  0
M  END
>  <MODEL>
5

>  <REMARK>
 VINA RESULT:      -7.5      1.403      1.928
  Name = 
  9 active torsions:
  status: ('A' for Active; 'I' for Inactive)
    1  A    between atoms: C_1  and  C_35
    2  A    between atoms: C_2  and  C_6
    3  A    between atoms: C_2  and  C_13
    4  A    between atoms: C_3  and  N_4
    5  A    between atoms: C_3  and  C_12
    6  A    between atoms: C_11  and  C_14
    7  A    between atoms: C_14  and  C_22
    8  A    between atoms: C_26  and  C_29
    9  A    between atoms: C_29  and  C_36
                            x       y       z     vdW  Elec       q    Type
                         _______ _______ _______ _____ _____    ______ ____

>  <TORSDO>
F 9

$$$$
=
 OpenBabel11052416393D

 43 50  0  0  1  0  0  0  0  0999 V2000
  187.8130  177.6310  144.1120 C   0  0  0  0  0  0  0  0  0  0  0  0
  190.9700  176.3670  147.7070 C   0  0  1  0  0  3  0  0  0  0  0  0
  191.0280  177.3460  144.8760 O   0  0  0  0  0  0  0  0  0  0  0  0
  189.5250  177.3670  142.3240 C   0  0  2  0  0  3  0  0  0  0  0  0
  189.7980  178.5650  147.9500 C   0  0  0  0  0  2  0  0  0  0  0  0
  192.0660  175.8010  146.7880 C   0  0  1  0  0  3  0  0  0  0  0  0
  192.8580  174.9180  147.5200 O   0  0  0  0  0  1  0  0  0  0  0  0
  191.3230  176.0350  144.3850 C   0  0  1  0  0  3  0  0  0  0  0  0
  191.1380  177.8790  147.7580 C   0  0  2  0  0  3  0  0  0  0  0  0
  191.5020  175.0770  145.5670 C   0  0  0  0  0  2  0  0  0  0  0  0
  190.1120  176.0840  142.2220 O   0  0  0  0  0  0  0  0  0  0  0  0
  190.1750  175.4980  143.5040 C   0  0  0  0  0  2  0  0  0  0  0  0
  189.8880  177.5570  145.6540 C   0  0  0  0  0  0  0  0  0  0  0  0
  188.7710  177.6720  145.0020 C   0  0  0  0  0  0  0  0  0  0  0  0
  188.1650  177.3050  142.7900 O   0  0  0  0  0  0  0  0  0  0  0  0
  189.8850  177.2940  147.1320 C   0  0  1  0  0  0  0  0  0  0  0  0
  184.2910  178.5340  143.2880 C   0  0  0  0  0  3  0  0  0  0  0  0
  183.7290  178.8660  145.6300 N   0  0  0  0  0  0  0  0  0  0  0  0
  182.7100  180.1160  143.9730 F   0  0  0  0  0  0  0  0  0  0  0  0
  186.0360  178.0230  145.7480 C   0  0  0  0  0  3  0  0  0  0  0  0
  185.4230  177.8390  143.3430 C   0  0  0  0  0  3  0  0  0  0  0  0
  186.3960  177.8710  144.4580 C   0  0  0  0  0  0  0  0  0  0  0  0
  183.8990  179.5160  144.3390 C   0  0  2  0  0  3  0  0  0  0  0  0
  184.6740  178.2500  146.2710 C   0  0  0  0  0  3  0  0  0  0  0  0
  189.5720  178.1140  140.9860 C   0  0  2  0  0  3  0  0  0  0  0  0
  188.4160  179.0940  140.8640 C   0  0  0  0  0  1  0  0  0  0  0  0
  189.4720  177.1230  139.8330 C   0  0  2  0  0  3  0  0  0  0  0  0
  190.7460  177.1320  139.0010 C   0  0  2  0  0  3  0  0  0  0  0  0
  189.5140  177.8620  138.5080 C   0  0  0  0  0  2  0  0  0  0  0  0
  190.8760  175.7950  138.2930 C   0  0  0  0  0  2  0  0  0  0  0  0
  191.6930  175.9470  137.0980 N   0  0  0  0  0  0  0  0  0  0  0  0
  192.6170  174.2070  135.6880 C   0  0  0  0  0  2  0  0  0  0  0  0
  190.8240  175.7480  135.9480 C   0  0  0  0  0  2  0  0  0  0  0  0
  192.6340  174.8330  137.0780 C   0  0  1  0  0  3  0  0  0  0  0  0
  191.6390  175.0390  134.8990 C   0  0  0  0  0  2  0  0  0  0  0  0
  194.0250  175.3110  137.4920 C   0  0  2  0  0  3  0  0  0  0  0  0
  194.3360  176.5460  136.9090 O   0  0  0  0  0  1  0  0  0  0  0  0
  195.0650  174.2170  137.2210 C   0  0  1  0  0  3  0  0  0  0  0  0
  196.2010  174.1980  138.2300 C   0  0  1  0  0  3  0  0  0  0  0  0
  195.0660  173.1960  138.3380 C   0  0  0  0  0  2  0  0  0  0  0  0
  197.4010  173.5270  137.5960 C   0  0  0  0  0  2  0  0  0  0  0  0
  198.6690  174.2590  137.9920 C   0  0  0  0  0  2  0  0  0  0  0  0
  198.3950  175.1040  139.2170 C   0  0  0  0  0  1  0  0  0  0  0  0
  1 22  1  0  0  0  0
  1 14  2  0  0  0  0
  2  9  1  0  0  0  0
  3 13  1  0  0  0  0
  4 15  1  0  0  0  0
  6  7  1  0  0  0  0
  6  2  1  0  0  0  0
  8  3  1  0  0  0  0
  8 10  1  0  0  0  0
  9  5  1  0  0  0  0
 10  6  1  0  0  0  0
 11  4  1  0  0  0  0
 11 12  1  0  0  0  0
 12  8  1  0  0  0  0
 13 16  1  0  0  0  0
 14 13  2  0  0  0  0
 15  1  1  0  0  0  0
 16  2  1  0  0  0  0
 16  9  1  0  0  0  0
 16  5  1  0  0  0  0
 17 21  2  0  0  0  0
 17 23  1  0  0  0  0
 18 24  2  0  0  0  0
 19 23  1  0  0  0  0
 20 24  1  0  0  0  0
 21 22  1  0  0  0  0
 22 20  2  0  0  0  0
 23 18  1  0  0  0  0
 25  4  1  0  0  0  0
 26 25  1  0  0  0  0
 27 25  1  0  0  0  0
 28 27  1  0  0  0  0
 29 28  1  0  0  0  0
 29 27  1  0  0  0  0
 30 28  1  0  0  0  0
 31 30  1  0  0  0  0
 32 34  1  0  0  0  0
 33 31  1  0  0  0  0
 34 31  1  0  0  0  0
 34 36  1  0  0  0  0
 35 32  1  0  0  0  0
 35 33  1  0  0  0  0
 37 36  1  0  0  0  0
 38 36  1  0  0  0  0
 38 39  1  0  0  0  0
 38 40  1  0  0  0  0
 39 40  1  0  0  0  0
 41 42  1  0  0  0  0
 41 39  1  0  0  0  0
 42 43  1  0  0  0  0
M  END
>  <MODEL>
6

>  <REMARK>
 VINA RESULT:      -7.3      5.318      9.936
  Name = 
  9 active torsions:
  status: ('A' for Active; 'I' for Inactive)
    1  A    between atoms: C_1  and  C_35
    2  A    between atoms: C_2  and  C_6
    3  A    between atoms: C_2  and  C_13
    4  A    between atoms: C_3  and  N_4
    5  A    between atoms: C_3  and  C_12
    6  A    between atoms: C_11  and  C_14
    7  A    between atoms: C_14  and  C_22
    8  A    between atoms: C_26  and  C_29
    9  A    between atoms: C_29  and  C_36
                            x       y       z     vdW  Elec       q    Type
                         _______ _______ _______ _____ _____    ______ ____

>  <TORSDO>
F 9

$$$$
=
 OpenBabel11052416393D

 43 50  0  0  1  0  0  0  0  0999 V2000
  189.2810  176.9140  139.4000 C   0  0  0  0  0  0  0  0  0  0  0  0
  192.5550  174.3720  136.6970 C   0  0  1  0  0  3  0  0  0  0  0  0
  190.0690  175.9980  136.3120 O   0  0  0  0  0  0  0  0  0  0  0  0
  187.5500  176.8570  137.6120 C   0  0  2  0  0  3  0  0  0  0  0  0
  193.3020  176.5850  137.5940 C   0  0  0  0  0  2  0  0  0  0  0  0
  191.5640  173.9000  135.6190 C   0  0  1  0  0  3  0  0  0  0  0  0
  192.0780  172.7610  135.0010 O   0  0  0  0  0  1  0  0  0  0  0  0
  189.2730  174.8190  136.1510 C   0  0  1  0  0  3  0  0  0  0  0  0
  192.9940  175.7860  136.3420 C   0  0  2  0  0  3  0  0  0  0  0  0
  190.1790  173.5850  136.1810 C   0  0  0  0  0  2  0  0  0  0  0  0
  187.1490  175.5700  137.1880 O   0  0  0  0  0  0  0  0  0  0  0  0
  188.2420  174.6840  137.2920 C   0  0  0  0  0  2  0  0  0  0  0  0
  190.8310  176.1700  137.4680 C   0  0  0  0  0  0  0  0  0  0  0  0
  190.1880  176.5990  138.5120 C   0  0  0  0  0  0  0  0  0  0  0  0
  187.9340  176.8760  138.9990 O   0  0  0  0  0  0  0  0  0  0  0  0
  192.1930  175.5560  137.6100 C   0  0  1  0  0  0  0  0  0  0  0  0
  191.6160  177.1470  142.2980 C   0  0  0  0  0  3  0  0  0  0  0  0
  189.7890  177.5130  143.8600 N   0  0  0  0  0  0  0  0  0  0  0  0
  191.7020  176.3880  144.5090 F   0  0  0  0  0  0  0  0  0  0  0  0
  188.6400  177.5050  141.6860 C   0  0  0  0  0  3  0  0  0  0  0  0
  191.0610  177.4000  141.1160 C   0  0  0  0  0  3  0  0  0  0  0  0
  189.6230  177.2590  140.7970 C   0  0  0  0  0  0  0  0  0  0  0  0
  190.8430  176.5980  143.4490 C   0  0  2  0  0  3  0  0  0  0  0  0
  188.7990  177.8790  143.1060 C   0  0  0  0  0  3  0  0  0  0  0  0
  186.4480  177.8960  137.3740 C   0  0  2  0  0  3  0  0  0  0  0  0
  186.9250  179.0010  136.4450 C   0  0  0  0  0  1  0  0  0  0  0  0
  186.0410  178.5350  138.6960 C   0  0  2  0  0  3  0  0  0  0  0  0
  184.6270  178.1280  139.0820 C   0  0  2  0  0  3  0  0  0  0  0  0
  184.8830  179.4920  138.4760 C   0  0  0  0  0  2  0  0  0  0  0  0
  184.4790  178.2470  140.5880 C   0  0  0  0  0  2  0  0  0  0  0  0
  183.1260  177.8800  140.9810 N   0  0  0  0  0  0  0  0  0  0  0  0
  181.2110  179.3320  141.2840 C   0  0  0  0  0  2  0  0  0  0  0  0
  182.3130  177.8600  139.7750 C   0  0  0  0  0  2  0  0  0  0  0  0
  182.6030  178.9730  141.7910 C   0  0  1  0  0  3  0  0  0  0  0  0
  180.9470  178.3660  140.1580 C   0  0  0  0  0  2  0  0  0  0  0  0
  182.6100  178.5840  143.2690 C   0  0  2  0  0  3  0  0  0  0  0  0
  181.3200  178.6280  143.8150 O   0  0  0  0  0  1  0  0  0  0  0  0
  183.6380  179.4260  144.0360 C   0  0  1  0  0  3  0  0  0  0  0  0
  184.7190  178.5970  144.7090 C   0  0  1  0  0  3  0  0  0  0  0  0
  185.0040  179.3070  143.3980 C   0  0  0  0  0  2  0  0  0  0  0  0
  185.3050  179.4020  145.8500 C   0  0  0  0  0  2  0  0  0  0  0  0
  185.9230  178.4680  146.8730 C   0  0  0  0  0  2  0  0  0  0  0  0
  186.8530  177.5030  146.1700 C   0  0  0  0  0  1  0  0  0  0  0  0
  1 22  1  0  0  0  0
  2 16  1  0  0  0  0
  3 13  1  0  0  0  0
  4 15  1  0  0  0  0
  5 16  1  0  0  0  0
  6 10  1  0  0  0  0
  6  2  1  0  0  0  0
  7  6  1  0  0  0  0
  8 10  1  0  0  0  0
  8  3  1  0  0  0  0
  8 12  1  0  0  0  0
  9  2  1  0  0  0  0
  9  5  1  0  0  0  0
  9 16  1  0  0  0  0
 11 12  1  0  0  0  0
 11  4  1  0  0  0  0
 13 16  1  0  0  0  0
 13 14  2  0  0  0  0
 14  1  2  0  0  0  0
 15  1  1  0  0  0  0
 17 23  1  0  0  0  0
 20 24  1  0  0  0  0
 21 17  2  0  0  0  0
 22 21  1  0  0  0  0
 22 20  2  0  0  0  0
 23 18  1  0  0  0  0
 23 19  1  0  0  0  0
 24 18  2  0  0  0  0
 25  4  1  0  0  0  0
 25 27  1  0  0  0  0
 26 25  1  0  0  0  0
 27 28  1  0  0  0  0
 28 30  1  0  0  0  0
 29 27  1  0  0  0  0
 29 28  1  0  0  0  0
 30 31  1  0  0  0  0
 31 34  1  0  0  0  0
 32 34  1  0  0  0  0
 33 35  1  0  0  0  0
 33 31  1  0  0  0  0
 34 36  1  0  0  0  0
 35 32  1  0  0  0  0
 36 37  1  0  0  0  0
 36 38  1  0  0  0  0
 38 39  1  0  0  0  0
 39 41  1  0  0  0  0
 40 38  1  0  0  0  0
 40 39  1  0  0  0  0
 41 42  1  0  0  0  0
 43 42  1  0  0  0  0
M  END
>  <MODEL>
7

>  <REMARK>
 VINA RESULT:      -7.3      3.938      8.535
  Name = 
  9 active torsions:
  status: ('A' for Active; 'I' for Inactive)
    1  A    between atoms: C_1  and  C_35
    2  A    between atoms: C_2  and  C_6
    3  A    between atoms: C_2  and  C_13
    4  A    between atoms: C_3  and  N_4
    5  A    between atoms: C_3  and  C_12
    6  A    between atoms: C_11  and  C_14
    7  A    between atoms: C_14  and  C_22
    8  A    between atoms: C_26  and  C_29
    9  A    between atoms: C_29  and  C_36
                            x       y       z     vdW  Elec       q    Type
                         _______ _______ _______ _____ _____    ______ ____

>  <TORSDO>
F 9

$$$$
=
 OpenBabel11052416393D

 43 50  0  0  1  0  0  0  0  0999 V2000
  189.5490  176.7700  139.8670 C   0  0  0  0  0  0  0  0  0  0  0  0
  192.9330  174.5900  136.9890 C   0  0  1  0  0  3  0  0  0  0  0  0
  190.3840  176.1400  136.7200 O   0  0  0  0  0  0  0  0  0  0  0  0
  187.8280  176.7890  138.0680 C   0  0  2  0  0  3  0  0  0  0  0  0
  193.5860  176.7520  138.0670 C   0  0  0  0  0  2  0  0  0  0  0  0
  191.9660  174.1680  135.8700 C   0  0  1  0  0  3  0  0  0  0  0  0
  192.5280  173.1040  135.1650 O   0  0  0  0  0  1  0  0  0  0  0  0
  189.6370  174.9470  136.4590 C   0  0  1  0  0  3  0  0  0  0  0  0
  193.3150  176.0450  136.7530 C   0  0  2  0  0  3  0  0  0  0  0  0
  190.5930  173.7520  136.3950 C   0  0  0  0  0  2  0  0  0  0  0  0
  187.4810  175.5250  137.5380 O   0  0  0  0  0  0  0  0  0  0  0  0
  188.6090  174.6780  137.5780 C   0  0  0  0  0  2  0  0  0  0  0  0
  191.1340  176.2480  137.8910 C   0  0  0  0  0  0  0  0  0  0  0  0
  190.4710  176.5650  138.9620 C   0  0  0  0  0  0  0  0  0  0  0  0
  188.2050  176.7110  139.4550 O   0  0  0  0  0  0  0  0  0  0  0  0
  192.5200  175.6800  137.9930 C   0  0  1  0  0  0  0  0  0  0  0  0
  189.9070  178.9430  142.8760 C   0  0  0  0  0  3  0  0  0  0  0  0
  191.1940  177.2530  144.0590 N   0  0  0  0  0  0  0  0  0  0  0  0
  191.5820  179.5050  144.4070 F   0  0  0  0  0  0  0  0  0  0  0  0
  190.5510  176.0860  141.9910 C   0  0  0  0  0  3  0  0  0  0  0  0
  189.3360  178.2560  141.8900 C   0  0  0  0  0  3  0  0  0  0  0  0
  189.8710  177.0140  141.2890 C   0  0  0  0  0  0  0  0  0  0  0  0
  191.2320  178.5740  143.4500 C   0  0  2  0  0  3  0  0  0  0  0  0
  190.9390  176.1560  143.4150 C   0  0  0  0  0  3  0  0  0  0  0  0
  186.6850  177.7980  137.9080 C   0  0  2  0  0  3  0  0  0  0  0  0
  186.9500  178.7500  136.7520 C   0  0  0  0  0  1  0  0  0  0  0  0
  186.5410  178.6280  139.1780 C   0  0  2  0  0  3  0  0  0  0  0  0
  185.3400  178.1700  139.9900 C   0  0  2  0  0  3  0  0  0  0  0  0
  185.2450  179.4180  139.1380 C   0  0  0  0  0  2  0  0  0  0  0  0
  185.5610  178.5480  141.4440 C   0  0  0  0  0  2  0  0  0  0  0  0
  184.4480  178.0710  142.2530 N   0  0  0  0  0  0  0  0  0  0  0  0
  182.8970  179.3760  143.5790 C   0  0  0  0  0  2  0  0  0  0  0  0
  183.2300  178.2910  141.4880 C   0  0  0  0  0  2  0  0  0  0  0  0
  184.3520  178.9520  143.4100 C   0  0  1  0  0  3  0  0  0  0  0  0
  182.1560  178.6690  142.4740 C   0  0  0  0  0  2  0  0  0  0  0  0
  184.9090  178.2550  144.6500 C   0  0  2  0  0  3  0  0  0  0  0  0
  184.3380  178.7650  145.8240 O   0  0  0  0  0  1  0  0  0  0  0  0
  186.4420  178.2950  144.6390 C   0  0  1  0  0  3  0  0  0  0  0  0
  187.0780  177.5000  145.7680 C   0  0  1  0  0  3  0  0  0  0  0  0
  187.0070  176.9180  144.3680 C   0  0  0  0  0  2  0  0  0  0  0  0
  188.4710  178.0400  146.0150 C   0  0  0  0  0  2  0  0  0  0  0  0
  189.0600  177.3950  147.2540 C   0  0  0  0  0  2  0  0  0  0  0  0
  188.3040  177.8750  148.4740 C   0  0  0  0  0  1  0  0  0  0  0  0
  1 22  1  0  0  0  0
  2 16  1  0  0  0  0
  3 13  1  0  0  0  0
  4 15  1  0  0  0  0
  6 10  1  0  0  0  0
  6  2  1  0  0  0  0
  7  6  1  0  0  0  0
  8  3  1  0  0  0  0
  8 12  1  0  0  0  0
  9  2  1  0  0  0  0
  9 16  1  0  0  0  0
  9  5  1  0  0  0  0
 10  8  1  0  0  0  0
 11 12  1  0  0  0  0
 11  4  1  0  0  0  0
 13 16  1  0  0  0  0
 13 14  2  0  0  0  0
 14  1  2  0  0  0  0
 15  1  1  0  0  0  0
 16  5  1  0  0  0  0
 17 23  1  0  0  0  0
 20 24  1  0  0  0  0
 21 17  2  0  0  0  0
 22 21  1  0  0  0  0
 22 20  2  0  0  0  0
 23 18  1  0  0  0  0
 23 19  1  0  0  0  0
 24 18  2  0  0  0  0
 25  4  1  0  0  0  0
 25 27  1  0  0  0  0
 26 25  1  0  0  0  0
 27 28  1  0  0  0  0
 28 30  1  0  0  0  0
 29 27  1  0  0  0  0
 29 28  1  0  0  0  0
 30 31  1  0  0  0  0
 31 34  1  0  0  0  0
 33 31  1  0  0  0  0
 33 35  1  0  0  0  0
 34 32  1  0  0  0  0
 34 36  1  0  0  0  0
 35 32  1  0  0  0  0
 36 37  1  0  0  0  0
 38 36  1  0  0  0  0
 38 39  1  0  0  0  0
 39 41  1  0  0  0  0
 40 38  1  0  0  0  0
 40 39  1  0  0  0  0
 41 42  1  0  0  0  0
 42 43  1  0  0  0  0
M  END
>  <MODEL>
8

>  <REMARK>
 VINA RESULT:      -7.3      4.234      8.368
  Name = 
  9 active torsions:
  status: ('A' for Active; 'I' for Inactive)
    1  A    between atoms: C_1  and  C_35
    2  A    between atoms: C_2  and  C_6
    3  A    between atoms: C_2  and  C_13
    4  A    between atoms: C_3  and  N_4
    5  A    between atoms: C_3  and  C_12
    6  A    between atoms: C_11  and  C_14
    7  A    between atoms: C_14  and  C_22
    8  A    between atoms: C_26  and  C_29
    9  A    between atoms: C_29  and  C_36
                            x       y       z     vdW  Elec       q    Type
                         _______ _______ _______ _____ _____    ______ ____

>  <TORSDO>
F 9

$$$$
=
 OpenBabel11052416393D

 43 50  0  0  1  0  0  0  0  0999 V2000
  184.0670  174.7770  137.2680 C   0  0  0  0  0  0  0  0  0  0  0  0
  188.7060  174.9540  135.5570 C   0  0  1  0  0  3  0  0  0  0  0  0
  187.0330  176.1920  137.7120 O   0  0  0  0  0  0  0  0  0  0  0  0
  184.2680  176.9620  138.4440 C   0  0  2  0  0  3  0  0  0  0  0  0
  188.0600  172.9240  136.8700 C   0  0  0  0  0  2  0  0  0  0  0  0
  188.9560  176.4380  135.8790 C   0  0  1  0  0  3  0  0  0  0  0  0
  189.9840  176.9090  135.0640 O   0  0  0  0  0  1  0  0  0  0  0  0
  186.8880  177.4020  136.9610 C   0  0  1  0  0  3  0  0  0  0  0  0
  188.9480  174.1540  136.8300 C   0  0  2  0  0  3  0  0  0  0  0  0
  187.7160  177.3070  135.6760 C   0  0  0  0  0  2  0  0  0  0  0  0
  184.5950  178.0690  137.6280 O   0  0  0  0  0  0  0  0  0  0  0  0
  185.4150  177.6380  136.5640 C   0  0  0  0  0  2  0  0  0  0  0  0
  186.6430  174.9750  137.1510 C   0  0  0  0  0  0  0  0  0  0  0  0
  185.3710  174.7150  137.1920 C   0  0  0  0  0  0  0  0  0  0  0  0
  183.4970  175.9750  137.7350 O   0  0  0  0  0  0  0  0  0  0  0  0
  187.5510  174.2020  136.2400 C   0  0  1  0  0  0  0  0  0  0  0  0
  180.7590  173.2730  136.4350 C   0  0  0  0  0  3  0  0  0  0  0  0
  181.6510  171.0140  136.5500 N   0  0  0  0  0  0  0  0  0  0  0  0
  179.4620  171.4600  137.1420 F   0  0  0  0  0  0  0  0  0  0  0  0
  183.6600  172.3990  136.8580 C   0  0  0  0  0  3  0  0  0  0  0  0
  181.8500  174.0260  136.3360 C   0  0  0  0  0  3  0  0  0  0  0  0
  183.1920  173.6630  136.8440 C   0  0  0  0  0  0  0  0  0  0  0  0
  180.7430  171.9720  137.1630 C   0  0  2  0  0  3  0  0  0  0  0  0
  182.9350  171.1780  136.4540 C   0  0  0  0  0  3  0  0  0  0  0  0
  183.5070  177.3960  139.7020 C   0  0  2  0  0  3  0  0  0  0  0  0
  182.2010  178.0880  139.3420 C   0  0  0  0  0  1  0  0  0  0  0  0
  184.3510  178.3750  140.5090 C   0  0  2  0  0  3  0  0  0  0  0  0
  184.5410  177.8780  141.9340 C   0  0  2  0  0  3  0  0  0  0  0  0
  183.5250  178.9630  141.6400 C   0  0  0  0  0  2  0  0  0  0  0  0
  185.8080  178.4920  142.5000 C   0  0  0  0  0  2  0  0  0  0  0  0
  186.4760  177.5340  143.3690 N   0  0  0  0  0  0  0  0  0  0  0  0
  188.4470  177.8750  144.7350 C   0  0  0  0  0  2  0  0  0  0  0  0
  186.0690  177.8280  144.7350 C   0  0  0  0  0  2  0  0  0  0  0  0
  187.9030  177.8250  143.3120 C   0  0  1  0  0  3  0  0  0  0  0  0
  187.2620  177.5660  145.6150 C   0  0  0  0  0  2  0  0  0  0  0  0
  188.6180  176.7910  142.4440 C   0  0  2  0  0  3  0  0  0  0  0  0
  189.2790  175.8350  143.2270 O   0  0  0  0  0  1  0  0  0  0  0  0
  189.5230  177.4880  141.4210 C   0  0  1  0  0  3  0  0  0  0  0  0
  189.4470  176.8790  140.0310 C   0  0  1  0  0  3  0  0  0  0  0  0
  188.6930  178.1580  140.3480 C   0  0  0  0  0  2  0  0  0  0  0  0
  190.7180  177.2220  139.2830 C   0  0  0  0  0  2  0  0  0  0  0  0
  191.2780  175.9760  138.6230 C   0  0  0  0  0  2  0  0  0  0  0  0
  192.4650  176.3570  137.7650 C   0  0  0  0  0  1  0  0  0  0  0  0
  1 15  1  0  0  0  0
  2  6  1  0  0  0  0
  2 16  1  0  0  0  0
  2  9  1  0  0  0  0
  4 25  1  0  0  0  0
  7  6  1  0  0  0  0
  8  3  1  0  0  0  0
  9  5  1  0  0  0  0
 10  6  1  0  0  0  0
 10  8  1  0  0  0  0
 11  4  1  0  0  0  0
 12  8  1  0  0  0  0
 12 11  1  0  0  0  0
 13 14  2  0  0  0  0
 13  3  1  0  0  0  0
 14  1  2  0  0  0  0
 15  4  1  0  0  0  0
 16  9  1  0  0  0  0
 16  5  1  0  0  0  0
 16 13  1  0  0  0  0
 17 23  1  0  0  0  0
 18 23  1  0  0  0  0
 19 23  1  0  0  0  0
 21 17  2  0  0  0  0
 21 22  1  0  0  0  0
 22 20  2  0  0  0  0
 22  1  1  0  0  0  0
 24 18  2  0  0  0  0
 24 20  1  0  0  0  0
 25 27  1  0  0  0  0
 26 25  1  0  0  0  0
 27 29  1  0  0  0  0
 27 28  1  0  0  0  0
 28 30  1  0  0  0  0
 29 28  1  0  0  0  0
 30 31  1  0  0  0  0
 31 33  1  0  0  0  0
 32 35  1  0  0  0  0
 33 35  1  0  0  0  0
 34 31  1  0  0  0  0
 34 32  1  0  0  0  0
 36 37  1  0  0  0  0
 36 34  1  0  0  0  0
 38 36  1  0  0  0  0
 39 40  1  0  0  0  0
 39 38  1  0  0  0  0
 40 38  1  0  0  0  0
 41 39  1  0  0  0  0
 42 41  1  0  0  0  0
 43 42  1  0  0  0  0
M  END
>  <MODEL>
9

>  <REMARK>
 VINA RESULT:      -7.1      3.608      5.476
  Name = 
  9 active torsions:
  status: ('A' for Active; 'I' for Inactive)
    1  A    between atoms: C_1  and  C_35
    2  A    between atoms: C_2  and  C_6
    3  A    between atoms: C_2  and  C_13
    4  A    between atoms: C_3  and  N_4
    5  A    between atoms: C_3  and  C_12
    6  A    between atoms: C_11  and  C_14
    7  A    between atoms: C_14  and  C_22
    8  A    between atoms: C_26  and  C_29
    9  A    between atoms: C_29  and  C_36
                            x       y       z     vdW  Elec       q    Type
                         _______ _______ _______ _____ _____    ______ ____

>  <TORSDO>
F 9

$$$$
