=
 OpenBabel11052413533D

 27 31  0  0  0  0  0  0  0  0999 V2000
  189.8110  177.4140  142.8040 C   0  0  0  0  0  3  0  0  0  0  0  0
  187.7020  177.6110  144.2250 C   0  0  0  0  0  0  0  0  0  0  0  0
  186.9740  178.2570  141.8610 C   0  0  0  0  0  3  0  0  0  0  0  0
  187.0000  177.4210  145.4050 C   0  0  0  0  0  3  0  0  0  0  0  0
  189.2040  178.2070  139.1870 C   0  0  0  0  0  0  0  0  0  0  0  0
  189.1240  177.4340  144.0650 N   0  0  0  0  0  0  0  0  0  0  0  0
  185.5550  178.0220  143.8970 N   0  0  0  0  0  0  0  0  0  0  0  0
  189.3500  177.7120  141.5890 C   0  0  0  0  0  0  0  0  0  0  0  0
  186.7640  177.9820  143.2840 C   0  0  0  0  0  0  0  0  0  0  0  0
  188.0250  178.4010  139.8100 N   0  0  0  0  0  0  0  0  0  0  0  0
  185.7010  177.6820  145.1670 N   0  0  0  0  0  0  0  0  0  0  0  0
  190.3750  177.6710  140.2550 S   0  0  0  0  0  0  0  0  0  0  0  0
  188.0840  178.1340  141.1440 C   0  0  0  0  0  0  0  0  0  0  0  0
  183.2370  178.8070  144.1800 C   0  0  0  0  0  3  0  0  0  0  0  0
  181.7440  179.0380  142.2890 C   0  0  0  0  0  3  0  0  0  0  0  0
  182.7570  178.5960  141.4380 C   0  0  0  0  0  3  0  0  0  0  0  0
  184.0100  178.2600  141.9580 C   0  0  0  0  0  3  0  0  0  0  0  0
  184.2670  178.3580  143.3350 C   0  0  0  0  0  0  0  0  0  0  0  0
  181.9840  179.1440  143.6620 C   0  0  0  0  0  3  0  0  0  0  0  0
  191.5510  176.7550  147.4580 C   0  0  0  0  0  3  0  0  0  0  0  0
  189.9530  177.2220  145.2270 C   0  0  0  0  0  0  0  0  0  0  0  0
  191.2420  176.6780  145.1060 C   0  0  0  0  0  3  0  0  0  0  0  0
  192.0040  176.4620  146.2110 N   0  0  0  0  0  0  0  0  0  0  0  0
  190.2740  177.2870  147.6310 C   0  0  0  0  0  3  0  0  0  0  0  0
  189.4740  177.5170  146.5130 C   0  0  0  0  0  3  0  0  0  0  0  0
  188.9750  179.6390  137.3320 O   0  0  0  0  0  1  0  0  0  0  0  0
  189.3990  178.3700  137.7220 C   0  0  0  0  0  2  0  0  0  0  0  0
  1  6  1  0  0  0  0
  2  4  1  0  0  0  0
  3  9  1  0  0  0  0
  5 10  2  0  0  0  0
  5 12  1  0  0  0  0
  6  2  1  0  0  0  0
  6 21  1  0  0  0  0
  7 11  1  0  0  0  0
  8  1  2  0  0  0  0
  9  7  1  0  0  0  0
  9  2  2  0  0  0  0
 10 13  1  0  0  0  0
 11  4  2  0  0  0  0
 12  8  1  0  0  0  0
 13  8  1  0  0  0  0
 13  3  2  0  0  0  0
 15 19  2  0  0  0  0
 16 17  2  0  0  0  0
 16 15  1  0  0  0  0
 17 18  1  0  0  0  0
 18  7  1  0  0  0  0
 18 14  2  0  0  0  0
 19 14  1  0  0  0  0
 20 24  1  0  0  0  0
 21 25  1  0  0  0  0
 22 21  2  0  0  0  0
 22 23  1  0  0  0  0
 23 20  2  0  0  0  0
 25 24  2  0  0  0  0
 26 27  1  0  0  0  0
 27  5  1  0  0  0  0
M  END
>  <MODEL>
1

>  <REMARK>
 VINA RESULT:      -9.9      0.000      0.000
  Name = 
  3 active torsions:
  status: ('A' for Active; 'I' for Inactive)
    1  A    between atoms: C_9  and  N_15
    2  A    between atoms: C_13  and  C_22
    3  A    between atoms: C_14  and  N_17
                            x       y       z     vdW  Elec       q    Type
                         _______ _______ _______ _____ _____    ______ ____

>  <TORSDO>
F 3

$$$$
=
 OpenBabel11052413533D

 27 31  0  0  0  0  0  0  0  0999 V2000
  188.1350  177.3500  145.5730 C   0  0  0  0  0  3  0  0  0  0  0  0
  188.1020  177.6740  143.0430 C   0  0  0  0  0  0  0  0  0  0  0  0
  190.5210  177.0690  143.6040 C   0  0  0  0  0  3  0  0  0  0  0  0
  187.4350  177.8610  141.8430 C   0  0  0  0  0  3  0  0  0  0  0  0
  191.5170  176.3640  146.8660 C   0  0  0  0  0  0  0  0  0  0  0  0
  187.5010  177.7590  144.3510 N   0  0  0  0  0  0  0  0  0  0  0  0
  189.5080  177.4280  141.3550 N   0  0  0  0  0  0  0  0  0  0  0  0
  189.4020  176.9910  145.7850 C   0  0  0  0  0  0  0  0  0  0  0  0
  189.4100  177.3920  142.7080 C   0  0  0  0  0  0  0  0  0  0  0  0
  191.6670  176.5440  145.5390 N   0  0  0  0  0  0  0  0  0  0  0  0
  188.3210  177.7060  140.8410 N   0  0  0  0  0  0  0  0  0  0  0  0
  189.9290  176.6060  147.3360 S   0  0  0  0  0  0  0  0  0  0  0  0
  190.5070  176.8950  144.9200 C   0  0  0  0  0  0  0  0  0  0  0  0
  190.5250  176.5460  139.2920 C   0  0  0  0  0  3  0  0  0  0  0  0
  192.8990  176.7500  138.8690 C   0  0  0  0  0  3  0  0  0  0  0  0
  193.0580  177.4060  140.0900 C   0  0  0  0  0  3  0  0  0  0  0  0
  191.9500  177.6310  140.9120 C   0  0  0  0  0  3  0  0  0  0  0  0
  190.6700  177.2020  140.5260 C   0  0  0  0  0  0  0  0  0  0  0  0
  191.6310  176.3200  138.4690 C   0  0  0  0  0  3  0  0  0  0  0  0
  183.5350  179.1550  144.7840 C   0  0  0  0  0  3  0  0  0  0  0  0
  186.1520  178.2510  144.4870 C   0  0  0  0  0  0  0  0  0  0  0  0
  185.6520  178.6560  145.7350 C   0  0  0  0  0  3  0  0  0  0  0  0
  184.3710  179.0960  145.8540 N   0  0  0  0  0  0  0  0  0  0  0  0
  183.9810  178.7550  143.5240 C   0  0  0  0  0  3  0  0  0  0  0  0
  185.2910  178.3000  143.3790 C   0  0  0  0  0  3  0  0  0  0  0  0
  192.8080  176.8710  148.7690 O   0  0  0  0  0  1  0  0  0  0  0  0
  192.6130  175.9210  147.7680 C   0  0  0  0  0  2  0  0  0  0  0  0
  1  8  2  0  0  0  0
  2  6  1  0  0  0  0
  3 13  2  0  0  0  0
  4  2  1  0  0  0  0
  5 12  1  0  0  0  0
  5 27  1  0  0  0  0
  6 21  1  0  0  0  0
  6  1  1  0  0  0  0
  7  9  1  0  0  0  0
  8 12  1  0  0  0  0
  9  2  2  0  0  0  0
  9  3  1  0  0  0  0
 10  5  2  0  0  0  0
 11  7  1  0  0  0  0
 11  4  2  0  0  0  0
 13 10  1  0  0  0  0
 13  8  1  0  0  0  0
 14 18  1  0  0  0  0
 15 16  2  0  0  0  0
 16 17  1  0  0  0  0
 18 17  2  0  0  0  0
 18  7  1  0  0  0  0
 19 15  1  0  0  0  0
 19 14  2  0  0  0  0
 20 23  1  0  0  0  0
 21 22  1  0  0  0  0
 22 23  2  0  0  0  0
 24 20  2  0  0  0  0
 25 24  1  0  0  0  0
 25 21  2  0  0  0  0
 27 26  1  0  0  0  0
M  END
>  <MODEL>
2

>  <REMARK>
 VINA RESULT:      -9.6      3.286      7.292
  Name = 
  3 active torsions:
  status: ('A' for Active; 'I' for Inactive)
    1  A    between atoms: C_9  and  N_15
    2  A    between atoms: C_13  and  C_22
    3  A    between atoms: C_14  and  N_17
                            x       y       z     vdW  Elec       q    Type
                         _______ _______ _______ _____ _____    ______ ____

>  <TORSDO>
F 3

$$$$
=
 OpenBabel11052413533D

 27 31  0  0  0  0  0  0  0  0999 V2000
  188.7660  177.5370  139.6390 C   0  0  0  0  0  3  0  0  0  0  0  0
  189.9210  177.1220  141.8750 C   0  0  0  0  0  0  0  0  0  0  0  0
  187.6420  178.1130  142.4770 C   0  0  0  0  0  3  0  0  0  0  0  0
  190.9470  176.5930  142.6430 C   0  0  0  0  0  3  0  0  0  0  0  0
  185.3090  178.9420  140.0290 C   0  0  0  0  0  0  0  0  0  0  0  0
  189.9120  177.1980  140.4350 N   0  0  0  0  0  0  0  0  0  0  0  0
  189.4040  177.2600  144.0200 N   0  0  0  0  0  0  0  0  0  0  0  0
  187.5780  178.0010  140.0280 C   0  0  0  0  0  0  0  0  0  0  0  0
  188.9520  177.5280  142.7700 C   0  0  0  0  0  0  0  0  0  0  0  0
  185.8020  178.8250  141.2770 N   0  0  0  0  0  0  0  0  0  0  0  0
  190.5990  176.6970  143.9390 N   0  0  0  0  0  0  0  0  0  0  0  0
  186.4000  178.3860  138.8890 S   0  0  0  0  0  0  0  0  0  0  0  0
  187.0610  178.3070  141.2990 C   0  0  0  0  0  0  0  0  0  0  0  0
  189.5300  177.6140  146.4550 C   0  0  0  0  0  3  0  0  0  0  0  0
  187.5400  177.9890  147.7800 C   0  0  0  0  0  3  0  0  0  0  0  0
  186.7570  177.8840  146.6300 C   0  0  0  0  0  3  0  0  0  0  0  0
  187.3610  177.6440  145.3920 C   0  0  0  0  0  3  0  0  0  0  0  0
  188.7550  177.5030  145.2880 C   0  0  0  0  0  0  0  0  0  0  0  0
  188.9280  177.8550  147.6930 C   0  0  0  0  0  3  0  0  0  0  0  0
  193.4280  176.3360  138.2540 C   0  0  0  0  0  3  0  0  0  0  0  0
  191.1110  176.8850  139.6970 C   0  0  0  0  0  0  0  0  0  0  0  0
  192.3470  177.4470  140.0520 C   0  0  0  0  0  3  0  0  0  0  0  0
  193.4660  177.1620  139.3330 N   0  0  0  0  0  0  0  0  0  0  0  0
  192.2220  175.7600  137.8550 C   0  0  0  0  0  3  0  0  0  0  0  0
  191.0620  176.0390  138.5770 C   0  0  0  0  0  3  0  0  0  0  0  0
  184.0040  180.5570  138.9170 O   0  0  0  0  0  1  0  0  0  0  0  0
  183.9350  179.4240  139.7270 C   0  0  0  0  0  2  0  0  0  0  0  0
  1  8  2  0  0  0  0
  1  6  1  0  0  0  0
  2  4  1  0  0  0  0
  2  9  2  0  0  0  0
  3  9  1  0  0  0  0
  4 11  2  0  0  0  0
  5 10  2  0  0  0  0
  6  2  1  0  0  0  0
  7 18  1  0  0  0  0
  8 13  1  0  0  0  0
  9  7  1  0  0  0  0
 10 13  1  0  0  0  0
 11  7  1  0  0  0  0
 12  8  1  0  0  0  0
 12  5  1  0  0  0  0
 13  3  2  0  0  0  0
 14 19  1  0  0  0  0
 16 15  1  0  0  0  0
 17 16  2  0  0  0  0
 18 17  1  0  0  0  0
 18 14  2  0  0  0  0
 19 15  2  0  0  0  0
 20 23  1  0  0  0  0
 21 22  1  0  0  0  0
 21  6  1  0  0  0  0
 23 22  2  0  0  0  0
 24 20  2  0  0  0  0
 24 25  1  0  0  0  0
 25 21  2  0  0  0  0
 26 27  1  0  0  0  0
 27  5  1  0  0  0  0
M  END
>  <MODEL>
3

>  <REMARK>
 VINA RESULT:      -9.5      2.601      5.628
  Name = 
  3 active torsions:
  status: ('A' for Active; 'I' for Inactive)
    1  A    between atoms: C_9  and  N_15
    2  A    between atoms: C_13  and  C_22
    3  A    between atoms: C_14  and  N_17
                            x       y       z     vdW  Elec       q    Type
                         _______ _______ _______ _____ _____    ______ ____

>  <TORSDO>
F 3

$$$$
=
 OpenBabel11052413533D

 27 31  0  0  0  0  0  0  0  0999 V2000
  186.6690  178.1050  140.7680 C   0  0  0  0  0  3  0  0  0  0  0  0
  189.0180  177.4160  141.4840 C   0  0  0  0  0  0  0  0  0  0  0  0
  187.7540  177.8330  143.6670 C   0  0  0  0  0  3  0  0  0  0  0  0
  190.2840  176.9210  141.2130 C   0  0  0  0  0  3  0  0  0  0  0  0
  184.3960  178.7570  143.6820 C   0  0  0  0  0  0  0  0  0  0  0  0
  188.0460  177.8060  140.4930 N   0  0  0  0  0  0  0  0  0  0  0  0
  190.0790  176.9850  143.3750 N   0  0  0  0  0  0  0  0  0  0  0  0
  186.0590  178.2550  141.9450 C   0  0  0  0  0  0  0  0  0  0  0  0
  188.9100  177.4380  142.8590 C   0  0  0  0  0  0  0  0  0  0  0  0
  185.5980  178.4560  144.2120 N   0  0  0  0  0  0  0  0  0  0  0  0
  190.8990  176.6720  142.3840 N   0  0  0  0  0  0  0  0  0  0  0  0
  184.4290  178.6680  142.0120 S   0  0  0  0  0  0  0  0  0  0  0  0
  186.5350  178.1760  143.2650 C   0  0  0  0  0  0  0  0  0  0  0  0
  191.6620  176.1810  145.0830 C   0  0  0  0  0  3  0  0  0  0  0  0
  191.2380  176.4970  147.4440 C   0  0  0  0  0  3  0  0  0  0  0  0
  190.0370  177.1390  147.1410 C   0  0  0  0  0  3  0  0  0  0  0  0
  189.6490  177.3020  145.8080 C   0  0  0  0  0  3  0  0  0  0  0  0
  190.4550  176.8230  144.7610 C   0  0  0  0  0  0  0  0  0  0  0  0
  192.0520  176.0180  146.4150 C   0  0  0  0  0  3  0  0  0  0  0  0
  189.1330  178.0600  136.4160 C   0  0  0  0  0  3  0  0  0  0  0  0
  188.4320  177.8790  139.1050 C   0  0  0  0  0  0  0  0  0  0  0  0
  188.9240  179.0730  138.5530 C   0  0  0  0  0  3  0  0  0  0  0  0
  189.2620  179.1360  137.2380 N   0  0  0  0  0  0  0  0  0  0  0  0
  188.6390  176.8550  136.9140 C   0  0  0  0  0  3  0  0  0  0  0  0
  188.2850  176.7680  138.2600 C   0  0  0  0  0  3  0  0  0  0  0  0
  183.5230  179.0650  145.8470 O   0  0  0  0  0  1  0  0  0  0  0  0
  183.1850  179.0450  144.4950 C   0  0  0  0  0  2  0  0  0  0  0  0
  1  8  2  0  0  0  0
  2  9  2  0  0  0  0
  4  2  1  0  0  0  0
  4 11  2  0  0  0  0
  5 10  2  0  0  0  0
  5 27  1  0  0  0  0
  6  1  1  0  0  0  0
  6  2  1  0  0  0  0
  7 18  1  0  0  0  0
  8 12  1  0  0  0  0
  8 13  1  0  0  0  0
  9  7  1  0  0  0  0
  9  3  1  0  0  0  0
 11  7  1  0  0  0  0
 12  5  1  0  0  0  0
 13  3  2  0  0  0  0
 13 10  1  0  0  0  0
 14 19  1  0  0  0  0
 16 15  1  0  0  0  0
 17 16  2  0  0  0  0
 18 14  2  0  0  0  0
 18 17  1  0  0  0  0
 19 15  2  0  0  0  0
 20 24  2  0  0  0  0
 20 23  1  0  0  0  0
 21  6  1  0  0  0  0
 22 21  1  0  0  0  0
 23 22  2  0  0  0  0
 24 25  1  0  0  0  0
 25 21  2  0  0  0  0
 27 26  1  0  0  0  0
M  END
>  <MODEL>
4

>  <REMARK>
 VINA RESULT:      -9.4      2.656      7.334
  Name = 
  3 active torsions:
  status: ('A' for Active; 'I' for Inactive)
    1  A    between atoms: C_9  and  N_15
    2  A    between atoms: C_13  and  C_22
    3  A    between atoms: C_14  and  N_17
                            x       y       z     vdW  Elec       q    Type
                         _______ _______ _______ _____ _____    ______ ____

>  <TORSDO>
F 3

$$$$
=
 OpenBabel11052413533D

 27 31  0  0  0  0  0  0  0  0999 V2000
  184.3070  178.7610  141.5260 C   0  0  0  0  0  3  0  0  0  0  0  0
  184.3520  178.5960  144.0710 C   0  0  0  0  0  0  0  0  0  0  0  0
  186.7570  178.1410  143.3340 C   0  0  0  0  0  3  0  0  0  0  0  0
  183.7650  178.7520  145.3180 C   0  0  0  0  0  3  0  0  0  0  0  0
  187.6840  178.2310  139.9780 C   0  0  0  0  0  0  0  0  0  0  0  0
  183.6630  178.7020  142.8090 N   0  0  0  0  0  0  0  0  0  0  0  0
  185.8700  178.3280  145.6560 N   0  0  0  0  0  0  0  0  0  0  0  0
  185.5900  178.5660  141.2190 C   0  0  0  0  0  0  0  0  0  0  0  0
  185.6850  178.3380  144.3120 C   0  0  0  0  0  0  0  0  0  0  0  0
  187.8570  178.0660  141.3050 N   0  0  0  0  0  0  0  0  0  0  0  0
  184.7170  178.5800  146.2540 N   0  0  0  0  0  0  0  0  0  0  0  0
  186.1010  178.6320  139.6170 S   0  0  0  0  0  0  0  0  0  0  0  0
  186.7070  178.2460  142.0110 C   0  0  0  0  0  0  0  0  0  0  0  0
  187.1510  178.4670  147.7560 C   0  0  0  0  0  3  0  0  0  0  0  0
  189.4310  177.6690  147.8970 C   0  0  0  0  0  3  0  0  0  0  0  0
  189.3830  177.2980  146.5530 C   0  0  0  0  0  3  0  0  0  0  0  0
  188.2180  177.5120  145.8100 C   0  0  0  0  0  3  0  0  0  0  0  0
  187.0880  178.1020  146.4000 C   0  0  0  0  0  0  0  0  0  0  0  0
  188.3140  178.2530  148.5000 C   0  0  0  0  0  3  0  0  0  0  0  0
  179.4500  179.0270  142.7250 C   0  0  0  0  0  3  0  0  0  0  0  0
  182.2240  178.7930  142.7850 C   0  0  0  0  0  0  0  0  0  0  0  0
  181.5380  179.0900  141.5970 C   0  0  0  0  0  3  0  0  0  0  0  0
  180.1820  179.1960  141.5920 N   0  0  0  0  0  0  0  0  0  0  0  0
  180.0860  178.7410  143.9330 C   0  0  0  0  0  3  0  0  0  0  0  0
  181.4760  178.6280  143.9610 C   0  0  0  0  0  3  0  0  0  0  0  0
  188.9340  179.3780  138.3440 O   0  0  0  0  0  1  0  0  0  0  0  0
  188.7890  178.1490  138.9870 C   0  0  0  0  0  2  0  0  0  0  0  0
  1  6  1  0  0  0  0
  2  9  2  0  0  0  0
  2  4  1  0  0  0  0
  3  9  1  0  0  0  0
  4 11  2  0  0  0  0
  5 10  2  0  0  0  0
  6  2  1  0  0  0  0
  7 11  1  0  0  0  0
  7 18  1  0  0  0  0
  8  1  2  0  0  0  0
  8 13  1  0  0  0  0
  9  7  1  0  0  0  0
 10 13  1  0  0  0  0
 12  5  1  0  0  0  0
 12  8  1  0  0  0  0
 13  3  2  0  0  0  0
 14 19  1  0  0  0  0
 15 19  2  0  0  0  0
 16 15  1  0  0  0  0
 17 18  1  0  0  0  0
 17 16  2  0  0  0  0
 18 14  2  0  0  0  0
 20 24  1  0  0  0  0
 21  6  1  0  0  0  0
 21 25  1  0  0  0  0
 22 21  2  0  0  0  0
 23 22  1  0  0  0  0
 23 20  2  0  0  0  0
 24 25  2  0  0  0  0
 26 27  1  0  0  0  0
 27  5  1  0  0  0  0
M  END
>  <MODEL>
5

>  <REMARK>
 VINA RESULT:      -9.4      2.117      6.581
  Name = 
  3 active torsions:
  status: ('A' for Active; 'I' for Inactive)
    1  A    between atoms: C_9  and  N_15
    2  A    between atoms: C_13  and  C_22
    3  A    between atoms: C_14  and  N_17
                            x       y       z     vdW  Elec       q    Type
                         _______ _______ _______ _____ _____    ______ ____

>  <TORSDO>
F 3

$$$$
=
 OpenBabel11052413533D

 27 31  0  0  0  0  0  0  0  0999 V2000
  191.0970  177.0680  142.6050 C   0  0  0  0  0  3  0  0  0  0  0  0
  189.0040  177.6860  141.2840 C   0  0  0  0  0  0  0  0  0  0  0  0
  188.2430  177.5810  143.7220 C   0  0  0  0  0  3  0  0  0  0  0  0
  188.3640  178.0730  140.1170 C   0  0  0  0  0  3  0  0  0  0  0  0
  190.4730  176.8680  146.3000 C   0  0  0  0  0  0  0  0  0  0  0  0
  190.3760  177.2530  141.3770 N   0  0  0  0  0  0  0  0  0  0  0  0
  186.9130  178.2510  141.7240 N   0  0  0  0  0  0  0  0  0  0  0  0
  190.6410  177.0810  143.8590 C   0  0  0  0  0  0  0  0  0  0  0  0
  188.0670  177.8170  142.2880 C   0  0  0  0  0  0  0  0  0  0  0  0
  189.2810  177.1500  145.7400 N   0  0  0  0  0  0  0  0  0  0  0  0
  187.0970  178.4060  140.4230 N   0  0  0  0  0  0  0  0  0  0  0  0
  191.6810  176.7770  145.1460 S   0  0  0  0  0  0  0  0  0  0  0  0
  189.3510  177.2710  144.3860 C   0  0  0  0  0  0  0  0  0  0  0  0
  184.4540  178.3650  141.6370 C   0  0  0  0  0  3  0  0  0  0  0  0
  183.1540  179.0630  143.5560 C   0  0  0  0  0  3  0  0  0  0  0  0
  184.3300  179.2350  144.2870 C   0  0  0  0  0  3  0  0  0  0  0  0
  185.5680  178.9710  143.6930 C   0  0  0  0  0  3  0  0  0  0  0  0
  185.6460  178.5360  142.3590 C   0  0  0  0  0  0  0  0  0  0  0  0
  183.2150  178.6280  142.2290 C   0  0  0  0  0  3  0  0  0  0  0  0
  192.5960  176.5970  137.8400 C   0  0  0  0  0  3  0  0  0  0  0  0
  191.1320  177.0090  140.1720 C   0  0  0  0  0  0  0  0  0  0  0  0
  192.4840  177.3740  140.0810 C   0  0  0  0  0  3  0  0  0  0  0  0
  193.1790  177.1610  138.9320 N   0  0  0  0  0  0  0  0  0  0  0  0
  191.2530  176.2260  137.8780 C   0  0  0  0  0  3  0  0  0  0  0  0
  190.5200  176.4360  139.0460 C   0  0  0  0  0  3  0  0  0  0  0  0
  192.0510  176.7870  148.0470 O   0  0  0  0  0  1  0  0  0  0  0  0
  190.6860  176.7410  147.7660 C   0  0  0  0  0  2  0  0  0  0  0  0
  1  8  2  0  0  0  0
  2  6  1  0  0  0  0
  2  9  2  0  0  0  0
  3 13  2  0  0  0  0
  4 11  2  0  0  0  0
  4  2  1  0  0  0  0
  5 27  1  0  0  0  0
  6  1  1  0  0  0  0
  7  9  1  0  0  0  0
  7 18  1  0  0  0  0
  8 13  1  0  0  0  0
  8 12  1  0  0  0  0
  9  3  1  0  0  0  0
 10  5  2  0  0  0  0
 11  7  1  0  0  0  0
 12  5  1  0  0  0  0
 13 10  1  0  0  0  0
 14 19  2  0  0  0  0
 14 18  1  0  0  0  0
 15 16  2  0  0  0  0
 17 16  1  0  0  0  0
 18 17  2  0  0  0  0
 19 15  1  0  0  0  0
 20 24  2  0  0  0  0
 20 23  1  0  0  0  0
 21  6  1  0  0  0  0
 22 21  1  0  0  0  0
 23 22  2  0  0  0  0
 24 25  1  0  0  0  0
 25 21  2  0  0  0  0
 27 26  1  0  0  0  0
M  END
>  <MODEL>
6

>  <REMARK>
 VINA RESULT:      -9.3      3.146      5.647
  Name = 
  3 active torsions:
  status: ('A' for Active; 'I' for Inactive)
    1  A    between atoms: C_9  and  N_15
    2  A    between atoms: C_13  and  C_22
    3  A    between atoms: C_14  and  N_17
                            x       y       z     vdW  Elec       q    Type
                         _______ _______ _______ _____ _____    ______ ____

>  <TORSDO>
F 3

$$$$
=
 OpenBabel11052413533D

 27 31  0  0  0  0  0  0  0  0999 V2000
  188.5290  177.4970  145.3500 C   0  0  0  0  0  3  0  0  0  0  0  0
  190.2660  177.1610  143.5110 C   0  0  0  0  0  0  0  0  0  0  0  0
  188.0770  177.6350  142.2790 C   0  0  0  0  0  3  0  0  0  0  0  0
  191.5720  177.0050  143.0770 C   0  0  0  0  0  3  0  0  0  0  0  0
  185.1230  178.3040  143.9990 C   0  0  0  0  0  0  0  0  0  0  0  0
  189.8350  177.1160  144.8870 N   0  0  0  0  0  0  0  0  0  0  0  0
  190.3500  177.3200  141.3080 N   0  0  0  0  0  0  0  0  0  0  0  0
  187.4370  177.7870  144.6420 C   0  0  0  0  0  0  0  0  0  0  0  0
  189.5130  177.3690  142.3740 C   0  0  0  0  0  0  0  0  0  0  0  0
  185.9090  178.1080  142.9230 N   0  0  0  0  0  0  0  0  0  0  0  0
  191.5840  177.1050  141.7350 N   0  0  0  0  0  0  0  0  0  0  0  0
  185.9900  178.1510  145.4210 S   0  0  0  0  0  0  0  0  0  0  0  0
  187.1970  177.8180  143.2570 C   0  0  0  0  0  0  0  0  0  0  0  0
  190.5070  176.5290  138.9810 C   0  0  0  0  0  3  0  0  0  0  0  0
  189.4500  177.7320  137.1660 C   0  0  0  0  0  3  0  0  0  0  0  0
  188.9760  178.6800  138.0730 C   0  0  0  0  0  3  0  0  0  0  0  0
  189.2690  178.5530  139.4330 C   0  0  0  0  0  3  0  0  0  0  0  0
  190.0390  177.4780  139.9060 C   0  0  0  0  0  0  0  0  0  0  0  0
  190.2160  176.6550  137.6190 C   0  0  0  0  0  3  0  0  0  0  0  0
  192.5720  175.9470  147.8870 C   0  0  0  0  0  3  0  0  0  0  0  0
  190.7590  176.7000  145.9120 C   0  0  0  0  0  0  0  0  0  0  0  0
  190.8230  177.3690  147.1440 C   0  0  0  0  0  3  0  0  0  0  0  0
  191.7150  176.9810  148.0940 N   0  0  0  0  0  0  0  0  0  0  0  0
  192.5550  175.2560  146.6760 C   0  0  0  0  0  3  0  0  0  0  0  0
  191.6490  175.6370  145.6870 C   0  0  0  0  0  3  0  0  0  0  0  0
  183.2590  179.1680  145.1510 O   0  0  0  0  0  1  0  0  0  0  0  0
  183.6900  178.6910  143.9140 C   0  0  0  0  0  2  0  0  0  0  0  0
  2  6  1  0  0  0  0
  3  9  1  0  0  0  0
  3 13  2  0  0  0  0
  4  2  1  0  0  0  0
  5 12  1  0  0  0  0
  6  1  1  0  0  0  0
  6 21  1  0  0  0  0
  7 11  1  0  0  0  0
  7  9  1  0  0  0  0
  8  1  2  0  0  0  0
  8 12  1  0  0  0  0
  9  2  2  0  0  0  0
 10 13  1  0  0  0  0
 10  5  2  0  0  0  0
 11  4  2  0  0  0  0
 13  8  1  0  0  0  0
 14 18  1  0  0  0  0
 15 19  1  0  0  0  0
 15 16  2  0  0  0  0
 16 17  1  0  0  0  0
 17 18  2  0  0  0  0
 18  7  1  0  0  0  0
 19 14  2  0  0  0  0
 20 23  1  0  0  0  0
 21 22  1  0  0  0  0
 22 23  2  0  0  0  0
 24 20  2  0  0  0  0
 25 21  2  0  0  0  0
 25 24  1  0  0  0  0
 27  5  1  0  0  0  0
 27 26  1  0  0  0  0
M  END
>  <MODEL>
7

>  <REMARK>
 VINA RESULT:      -9.2      2.699      5.638
  Name = 
  3 active torsions:
  status: ('A' for Active; 'I' for Inactive)
    1  A    between atoms: C_9  and  N_15
    2  A    between atoms: C_13  and  C_22
    3  A    between atoms: C_14  and  N_17
                            x       y       z     vdW  Elec       q    Type
                         _______ _______ _______ _____ _____    ______ ____

>  <TORSDO>
F 3

$$$$
=
 OpenBabel11052413533D

 27 31  0  0  0  0  0  0  0  0999 V2000
  186.6690  178.3540  140.0440 C   0  0  0  0  0  3  0  0  0  0  0  0
  185.7220  178.4110  142.4120 C   0  0  0  0  0  0  0  0  0  0  0  0
  188.1640  177.7070  142.6890 C   0  0  0  0  0  3  0  0  0  0  0  0
  184.7250  178.7210  143.3230 C   0  0  0  0  0  3  0  0  0  0  0  0
  190.3040  177.4280  139.9560 C   0  0  0  0  0  0  0  0  0  0  0  0
  185.5820  178.4580  140.9770 N   0  0  0  0  0  0  0  0  0  0  0  0
  186.4850  178.1670  144.4720 N   0  0  0  0  0  0  0  0  0  0  0  0
  187.9440  178.0330  140.2680 C   0  0  0  0  0  0  0  0  0  0  0  0
  186.8280  178.0720  143.1640 C   0  0  0  0  0  0  0  0  0  0  0  0
  189.9400  177.3680  141.2520 N   0  0  0  0  0  0  0  0  0  0  0  0
  185.2240  178.5590  144.5630 N   0  0  0  0  0  0  0  0  0  0  0  0
  189.0300  177.9170  138.9880 S   0  0  0  0  0  0  0  0  0  0  0  0
  188.6330  177.6980  141.4470 C   0  0  0  0  0  0  0  0  0  0  0  0
  186.8020  178.2470  146.9140 C   0  0  0  0  0  3  0  0  0  0  0  0
  188.8290  177.4250  147.9500 C   0  0  0  0  0  3  0  0  0  0  0  0
  189.3310  177.0850  146.6930 C   0  0  0  0  0  3  0  0  0  0  0  0
  188.5680  177.3260  145.5470 C   0  0  0  0  0  3  0  0  0  0  0  0
  187.2950  177.9120  145.6410 C   0  0  0  0  0  0  0  0  0  0  0  0
  187.5630  178.0060  148.0610 C   0  0  0  0  0  3  0  0  0  0  0  0
  181.7670  178.9940  139.2380 C   0  0  0  0  0  3  0  0  0  0  0  0
  184.2790  178.6590  140.3920 C   0  0  0  0  0  0  0  0  0  0  0  0
  183.1970  177.8350  140.7380 C   0  0  0  0  0  3  0  0  0  0  0  0
  181.9780  178.0200  140.1630 N   0  0  0  0  0  0  0  0  0  0  0  0
  182.8140  179.8320  138.8540 C   0  0  0  0  0  3  0  0  0  0  0  0
  184.0720  179.6610  139.4310 C   0  0  0  0  0  3  0  0  0  0  0  0
  192.6010  177.5550  140.4580 O   0  0  0  0  0  1  0  0  0  0  0  0
  191.6880  177.1730  139.4760 C   0  0  0  0  0  2  0  0  0  0  0  0
  1  8  2  0  0  0  0
  1  6  1  0  0  0  0
  2  9  2  0  0  0  0
  2  4  1  0  0  0  0
  3  9  1  0  0  0  0
  4 11  2  0  0  0  0
  5 10  2  0  0  0  0
  6  2  1  0  0  0  0
  7 11  1  0  0  0  0
  7 18  1  0  0  0  0
  8 13  1  0  0  0  0
  9  7  1  0  0  0  0
 10 13  1  0  0  0  0
 12  5  1  0  0  0  0
 12  8  1  0  0  0  0
 13  3  2  0  0  0  0
 14 19  1  0  0  0  0
 15 19  2  0  0  0  0
 16 15  1  0  0  0  0
 17 18  1  0  0  0  0
 17 16  2  0  0  0  0
 18 14  2  0  0  0  0
 20 23  1  0  0  0  0
 21 22  1  0  0  0  0
 21  6  1  0  0  0  0
 23 22  2  0  0  0  0
 24 20  2  0  0  0  0
 24 25  1  0  0  0  0
 25 21  2  0  0  0  0
 27  5  1  0  0  0  0
 27 26  1  0  0  0  0
M  END
>  <MODEL>
8

>  <REMARK>
 VINA RESULT:      -9.1      2.207      6.303
  Name = 
  3 active torsions:
  status: ('A' for Active; 'I' for Inactive)
    1  A    between atoms: C_9  and  N_15
    2  A    between atoms: C_13  and  C_22
    3  A    between atoms: C_14  and  N_17
                            x       y       z     vdW  Elec       q    Type
                         _______ _______ _______ _____ _____    ______ ____

>  <TORSDO>
F 3

$$$$
=
 OpenBabel11052413533D

 27 31  0  0  0  0  0  0  0  0999 V2000
  189.9480  177.4190  140.8760 C   0  0  0  0  0  3  0  0  0  0  0  0
  187.4890  178.0690  140.6780 C   0  0  0  0  0  0  0  0  0  0  0  0
  187.8700  177.6620  143.1730 C   0  0  0  0  0  3  0  0  0  0  0  0
  186.4040  178.5460  139.9600 C   0  0  0  0  0  3  0  0  0  0  0  0
  191.0020  176.7890  144.4220 C   0  0  0  0  0  0  0  0  0  0  0  0
  188.7630  177.6980  140.1140 N   0  0  0  0  0  0  0  0  0  0  0  0
  185.8010  178.4750  142.0470 N   0  0  0  0  0  0  0  0  0  0  0  0
  190.0850  177.2730  142.1950 C   0  0  0  0  0  0  0  0  0  0  0  0
  187.0850  178.0420  141.9970 C   0  0  0  0  0  0  0  0  0  0  0  0
  189.6850  177.0690  144.4730 N   0  0  0  0  0  0  0  0  0  0  0  0
  185.3980  178.7790  140.8240 N   0  0  0  0  0  0  0  0  0  0  0  0
  191.5830  176.8850  142.8560 S   0  0  0  0  0  0  0  0  0  0  0  0
  189.1560  177.3390  143.2480 C   0  0  0  0  0  0  0  0  0  0  0  0
  183.5500  178.7180  143.0170 C   0  0  0  0  0  3  0  0  0  0  0  0
  183.2200  178.9030  145.4080 C   0  0  0  0  0  3  0  0  0  0  0  0
  184.5990  178.8090  145.6030 C   0  0  0  0  0  3  0  0  0  0  0  0
  185.4520  178.6700  144.5050 C   0  0  0  0  0  3  0  0  0  0  0  0
  184.9400  178.6250  143.1980 C   0  0  0  0  0  0  0  0  0  0  0  0
  182.6940  178.8570  144.1140 C   0  0  0  0  0  3  0  0  0  0  0  0
  189.1620  177.5170  135.9100 C   0  0  0  0  0  3  0  0  0  0  0  0
  188.9150  177.6250  138.6810 C   0  0  0  0  0  0  0  0  0  0  0  0
  189.1860  178.7750  137.9230 C   0  0  0  0  0  3  0  0  0  0  0  0
  189.3050  178.6970  136.5710 N   0  0  0  0  0  0  0  0  0  0  0  0
  188.8830  176.3480  136.6170 C   0  0  0  0  0  3  0  0  0  0  0  0
  188.7560  176.4050  138.0050 C   0  0  0  0  0  3  0  0  0  0  0  0
  191.1750  176.9750  146.7630 O   0  0  0  0  0  1  0  0  0  0  0  0
  191.8340  176.5160  145.6230 C   0  0  0  0  0  2  0  0  0  0  0  0
  1  8  2  0  0  0  0
  2  9  2  0  0  0  0
  3 13  2  0  0  0  0
  4  2  1  0  0  0  0
  4 11  2  0  0  0  0
  5 10  2  0  0  0  0
  5 27  1  0  0  0  0
  6  2  1  0  0  0  0
  6  1  1  0  0  0  0
  7 18  1  0  0  0  0
  8 12  1  0  0  0  0
  8 13  1  0  0  0  0
  9  7  1  0  0  0  0
  9  3  1  0  0  0  0
 11  7  1  0  0  0  0
 12  5  1  0  0  0  0
 13 10  1  0  0  0  0
 14 18  2  0  0  0  0
 14 19  1  0  0  0  0
 15 16  1  0  0  0  0
 17 16  2  0  0  0  0
 18 17  1  0  0  0  0
 19 15  2  0  0  0  0
 20 23  2  0  0  0  0
 20 24  1  0  0  0  0
 21  6  1  0  0  0  0
 22 21  2  0  0  0  0
 23 22  1  0  0  0  0
 24 25  2  0  0  0  0
 25 21  1  0  0  0  0
 27 26  1  0  0  0  0
M  END
>  <MODEL>
9

>  <REMARK>
 VINA RESULT:      -9.0      2.546      5.874
  Name = 
  3 active torsions:
  status: ('A' for Active; 'I' for Inactive)
    1  A    between atoms: C_9  and  N_15
    2  A    between atoms: C_13  and  C_22
    3  A    between atoms: C_14  and  N_17
                            x       y       z     vdW  Elec       q    Type
                         _______ _______ _______ _____ _____    ______ ____

>  <TORSDO>
F 3

$$$$
