=
 OpenBabel11052414283D

 32 36  0  0  1  0  0  0  0  0999 V2000
  187.0620  178.6800  142.7340 C   0  0  1  0  0  3  0  0  0  0  0  0
  188.9410  177.1180  142.4630 N   0  0  2  0  0  0  0  0  0  0  0  0
  185.7790  178.9800  143.4910 C   0  0  0  0  0  2  0  0  0  0  0  0
  187.6100  177.2930  143.0550 C   0  0  1  0  0  3  0  0  0  0  0  0
  189.9040  178.1780  142.8380 C   0  0  1  0  0  3  0  0  0  0  0  0
  188.7660  177.1720  141.0010 C   0  0  1  0  0  3  0  0  0  0  0  0
  192.4410  177.4690  140.2950 C   0  0  0  0  0  0  0  0  0  0  0  0
  191.2830  177.5140  140.8970 C   0  0  0  0  0  0  0  0  0  0  0  0
  189.8350  178.6540  144.3010 C   0  0  2  0  0  3  0  0  0  0  0  0
  187.5450  176.8740  144.5360 C   0  0  1  0  0  3  0  0  0  0  0  0
  191.3020  177.7950  142.3730 C   0  0  0  0  0  2  0  0  0  0  0  0
  188.8570  176.4490  145.2050 C   0  0  0  0  0  2  0  0  0  0  0  0
  186.4850  177.5340  145.4270 C   0  0  0  0  0  2  0  0  0  0  0  0
  188.2620  178.4920  140.5590 N   0  0  0  0  0  2  0  0  0  0  0  0
  190.7950  179.6170  144.5500 F   0  0  0  0  0  0  0  0  0  0  0  0
  186.9850  178.8490  141.2100 C   0  0  1  0  0  3  0  0  0  0  0  0
  190.0840  176.7970  140.2960 C   0  0  2  0  0  3  0  0  0  0  0  0
  189.9010  177.5580  145.3610 C   0  0  0  0  0  2  0  0  0  0  0  0
  186.1050  178.9460  144.9800 C   0  0  0  0  0  2  0  0  0  0  0  0
  193.5380  177.4250  139.7240 O   0  0  0  0  0  0  0  0  0  0  0  0
  184.1800  179.0490  138.6490 C   0  0  2  0  0  3  0  0  0  0  0  0
  184.0120  180.3980  138.9630 O   0  0  0  0  0  1  0  0  0  0  0  0
  183.2980  177.9110  140.6460 C   0  0  0  0  0  3  0  0  0  0  0  0
  185.7650  178.2060  140.5280 C   0  0  1  0  0  3  0  0  0  0  0  0
  183.1340  178.2290  139.3550 C   0  0  0  0  0  0  0  0  0  0  0  0
  184.5050  178.4150  141.3780 C   0  0  0  0  0  2  0  0  0  0  0  0
  185.5990  178.6040  139.0390 C   0  0  1  0  0  3  0  0  0  0  0  0
  185.9970  177.5410  138.2290 O   0  0  0  0  0  1  0  0  0  0  0  0
  181.9720  177.6910  138.5890 C   0  0  0  0  0  2  0  0  0  0  0  0
  182.1680  177.8930  137.2220 O   0  0  0  0  0  1  0  0  0  0  0  0
  190.1750  175.7570  138.1380 O   0  0  0  0  0  1  0  0  0  0  0  0
  189.9560  176.9750  138.7830 C   0  0  0  0  0  2  0  0  0  0  0  0
  1  4  1  0  0  0  0
  1  3  1  1  0  0  0
  2  5  1  0  0  0  0
  2  4  1  0  0  0  0
  3 19  1  0  0  0  0
  4 10  1  0  0  0  0
  5  9  1  0  0  0  0
  6  2  1  0  0  0  0
  7  8  2  0  0  0  0
  8 11  1  0  0  0  0
  9 15  1  0  0  0  0
  9 18  1  0  0  0  0
 10 12  1  0  0  0  0
 10 13  1  0  0  0  0
 11  5  1  0  0  0  0
 12 18  1  0  0  0  0
 14  6  1  0  0  0  0
 14 16  1  0  0  0  0
 16  1  1  0  0  0  0
 17  8  1  0  0  0  0
 17  6  1  0  0  0  0
 19 13  1  0  0  0  0
 20  7  2  0  0  0  0
 21 22  1  0  0  0  0
 21 27  1  0  0  0  0
 21 25  1  0  0  0  0
 23 26  1  0  0  0  0
 24 16  1  0  0  0  0
 24 26  1  0  0  0  0
 25 23  2  0  0  0  0
 27 24  1  0  0  0  0
 28 27  1  0  0  0  0
 29 25  1  0  0  0  0
 30 29  1  0  0  0  0
 31 32  1  0  0  0  0
 32 17  1  0  0  0  0
M  END
>  <MODEL>
1

>  <REMARK>
 VINA RESULT:      -8.1      0.000      0.000
  Name = 
  3 active torsions:
  status: ('A' for Active; 'I' for Inactive)
    1  A    between atoms: C_7  and  C_19
    2  A    between atoms: C_16  and  C_27
    3  A    between atoms: C_28  and  C_32
                            x       y       z     vdW  Elec       q    Type
                         _______ _______ _______ _____ _____    ______ ____

>  <TORSDO>
F 3

$$$$
=
 OpenBabel11052414283D

 32 36  0  0  1  0  0  0  0  0999 V2000
  187.5310  178.4950  141.2550 C   0  0  1  0  0  3  0  0  0  0  0  0
  189.4150  176.9730  141.6770 N   0  0  2  0  0  0  0  0  0  0  0  0
  186.1000  178.8510  141.6210 C   0  0  0  0  0  2  0  0  0  0  0  0
  187.9780  177.1820  141.8900 C   0  0  1  0  0  3  0  0  0  0  0  0
  190.2560  178.1050  142.1300 C   0  0  1  0  0  3  0  0  0  0  0  0
  189.6120  176.8260  140.2250 C   0  0  1  0  0  3  0  0  0  0  0  0
  193.3480  177.1470  140.4200 C   0  0  0  0  0  0  0  0  0  0  0  0
  192.0760  177.2340  140.7030 C   0  0  0  0  0  0  0  0  0  0  0  0
  189.8230  178.7700  143.4500 C   0  0  2  0  0  3  0  0  0  0  0  0
  187.5440  176.9630  143.3510 C   0  0  1  0  0  3  0  0  0  0  0  0
  191.7240  177.7100  142.0840 C   0  0  0  0  0  2  0  0  0  0  0  0
  188.6460  176.6740  144.3770 C   0  0  0  0  0  2  0  0  0  0  0  0
  186.2960  177.7000  143.8510 C   0  0  0  0  0  2  0  0  0  0  0  0
  189.2380  178.0580  139.4940 N   0  0  0  0  0  2  0  0  0  0  0  0
  190.6910  179.7890  143.7950 F   0  0  0  0  0  0  0  0  0  0  0  0
  187.8390  178.4570  139.7520 C   0  0  1  0  0  3  0  0  0  0  0  0
  191.0650  176.4040  139.9270 C   0  0  2  0  0  3  0  0  0  0  0  0
  189.6190  177.8270  144.6340 C   0  0  0  0  0  2  0  0  0  0  0  0
  186.0420  179.0270  143.1340 C   0  0  0  0  0  2  0  0  0  0  0  0
  194.5530  177.0640  140.1510 O   0  0  0  0  0  0  0  0  0  0  0  0
  186.6370  177.3670  136.3120 C   0  0  2  0  0  3  0  0  0  0  0  0
  186.9770  178.6240  135.8120 O   0  0  0  0  0  1  0  0  0  0  0  0
  184.6520  177.8450  137.6870 C   0  0  0  0  0  3  0  0  0  0  0  0
  186.8270  177.6890  138.8830 C   0  0  1  0  0  3  0  0  0  0  0  0
  185.1560  177.3050  136.5690 C   0  0  0  0  0  0  0  0  0  0  0  0
  185.5730  178.5380  138.6450 C   0  0  0  0  0  2  0  0  0  0  0  0
  187.4410  177.0880  137.5930 C   0  0  1  0  0  3  0  0  0  0  0  0
  187.6040  175.7120  137.7540 O   0  0  0  0  0  1  0  0  0  0  0  0
  184.2700  176.5580  135.6280 C   0  0  0  0  0  2  0  0  0  0  0  0
  184.9140  175.4040  135.1820 O   0  0  0  0  0  1  0  0  0  0  0  0
  191.0820  175.0930  137.9200 O   0  0  0  0  0  1  0  0  0  0  0  0
  191.3200  176.3740  138.4200 C   0  0  0  0  0  2  0  0  0  0  0  0
  1  3  1  6  0  0  0
  1  4  1  0  0  0  0
  2  4  1  0  0  0  0
  2  5  1  0  0  0  0
  3 19  1  0  0  0  0
  4 10  1  0  0  0  0
  5  9  1  0  0  0  0
  6  2  1  0  0  0  0
  7  8  2  0  0  0  0
  8 11  1  0  0  0  0
  9 15  1  0  0  0  0
  9 18  1  0  0  0  0
 10 13  1  0  0  0  0
 10 12  1  0  0  0  0
 11  5  1  0  0  0  0
 12 18  1  0  0  0  0
 14 16  1  0  0  0  0
 14  6  1  0  0  0  0
 16  1  1  0  0  0  0
 17  6  1  0  0  0  0
 17  8  1  0  0  0  0
 19 13  1  0  0  0  0
 20  7  2  0  0  0  0
 21 25  1  0  0  0  0
 21 27  1  0  0  0  0
 22 21  1  0  0  0  0
 23 26  1  0  0  0  0
 24 16  1  0  0  0  0
 25 23  2  0  0  0  0
 26 24  1  0  0  0  0
 27 28  1  0  0  0  0
 27 24  1  0  0  0  0
 29 25  1  0  0  0  0
 30 29  1  0  0  0  0
 31 32  1  0  0  0  0
 32 17  1  0  0  0  0
M  END
>  <MODEL>
2

>  <REMARK>
 VINA RESULT:      -8.0      1.758      2.191
  Name = 
  3 active torsions:
  status: ('A' for Active; 'I' for Inactive)
    1  A    between atoms: C_7  and  C_19
    2  A    between atoms: C_16  and  C_27
    3  A    between atoms: C_28  and  C_32
                            x       y       z     vdW  Elec       q    Type
                         _______ _______ _______ _____ _____    ______ ____

>  <TORSDO>
F 3

$$$$
=
 OpenBabel11052414283D

 32 36  0  0  1  0  0  0  0  0999 V2000
  190.9130  177.7480  140.2610 C   0  0  1  0  0  3  0  0  0  0  0  0
  188.6270  177.0710  139.6600 N   0  0  2  0  0  0  0  0  0  0  0  0
  192.3790  177.3510  140.2620 C   0  0  0  0  0  2  0  0  0  0  0  0
  190.0040  176.5970  139.8380 C   0  0  1  0  0  3  0  0  0  0  0  0
  188.5070  178.2210  138.7350 C   0  0  1  0  0  3  0  0  0  0  0  0
  188.1550  177.5120  140.9830 C   0  0  1  0  0  3  0  0  0  0  0  0
  185.1020  179.2270  139.6300 C   0  0  0  0  0  0  0  0  0  0  0  0
  186.2900  178.6930  139.7210 C   0  0  0  0  0  0  0  0  0  0  0  0
  189.4070  178.1700  137.4860 C   0  0  2  0  0  3  0  0  0  0  0  0
  190.5100  175.7460  138.6580 C   0  0  1  0  0  3  0  0  0  0  0  0
  187.0400  178.4930  138.4350 C   0  0  0  0  0  2  0  0  0  0  0  0
  189.5820  175.6000  137.4460 C   0  0  0  0  0  2  0  0  0  0  0  0
  192.0200  175.7020  138.3940 C   0  0  0  0  0  2  0  0  0  0  0  0
  188.9470  178.6550  141.4930 N   0  0  0  0  0  2  0  0  0  0  0  0
  189.1920  179.2720  136.6800 F   0  0  0  0  0  0  0  0  0  0  0  0
  190.3880  178.3440  141.5750 C   0  0  1  0  0  3  0  0  0  0  0  0
  186.6500  177.8390  140.9280 C   0  0  2  0  0  3  0  0  0  0  0  0
  189.3260  176.8880  136.6610 C   0  0  0  0  0  2  0  0  0  0  0  0
  192.7530  176.9700  138.8340 C   0  0  0  0  0  2  0  0  0  0  0  0
  183.9760  179.7320  139.5440 O   0  0  0  0  0  0  0  0  0  0  0  0
  189.3830  176.9210  144.9560 C   0  0  2  0  0  3  0  0  0  0  0  0
  188.6030  178.0540  145.1830 O   0  0  0  0  0  1  0  0  0  0  0  0
  191.6780  177.7900  145.1560 C   0  0  0  0  0  3  0  0  0  0  0  0
  190.7630  177.5730  142.8540 C   0  0  1  0  0  3  0  0  0  0  0  0
  190.6930  177.0510  145.6850 C   0  0  0  0  0  0  0  0  0  0  0  0
  191.4410  178.5080  143.8620 C   0  0  0  0  0  2  0  0  0  0  0  0
  189.5980  176.7390  143.4450 C   0  0  1  0  0  3  0  0  0  0  0  0
  189.8030  175.3890  143.1590 O   0  0  0  0  0  1  0  0  0  0  0  0
  190.9230  176.2780  146.9410 C   0  0  0  0  0  2  0  0  0  0  0  0
  191.9960  176.8230  147.6470 O   0  0  0  0  0  1  0  0  0  0  0  0
  184.9250  177.8970  142.5910 O   0  0  0  0  0  1  0  0  0  0  0  0
  186.1740  178.4220  142.2580 C   0  0  0  0  0  2  0  0  0  0  0  0
  1  3  1  1  0  0  0
  1 16  1  0  0  0  0
  2  4  1  0  0  0  0
  2  6  1  0  0  0  0
  4  1  1  0  0  0  0
  5  2  1  0  0  0  0
  6 14  1  0  0  0  0
  7  8  2  0  0  0  0
  8 17  1  0  0  0  0
  9  5  1  0  0  0  0
 10  4  1  0  0  0  0
 11  5  1  0  0  0  0
 11  8  1  0  0  0  0
 12 10  1  0  0  0  0
 13 10  1  0  0  0  0
 13 19  1  0  0  0  0
 14 16  1  0  0  0  0
 15  9  1  0  0  0  0
 16 24  1  0  0  0  0
 17  6  1  0  0  0  0
 17 32  1  0  0  0  0
 18 12  1  0  0  0  0
 18  9  1  0  0  0  0
 19  3  1  0  0  0  0
 20  7  2  0  0  0  0
 21 22  1  0  0  0  0
 21 25  1  0  0  0  0
 23 25  2  0  0  0  0
 24 27  1  0  0  0  0
 24 26  1  0  0  0  0
 25 29  1  0  0  0  0
 26 23  1  0  0  0  0
 27 21  1  0  0  0  0
 28 27  1  0  0  0  0
 29 30  1  0  0  0  0
 32 31  1  0  0  0  0
M  END
>  <MODEL>
3

>  <REMARK>
 VINA RESULT:      -7.4      2.996      7.417
  Name = 
  3 active torsions:
  status: ('A' for Active; 'I' for Inactive)
    1  A    between atoms: C_7  and  C_19
    2  A    between atoms: C_16  and  C_27
    3  A    between atoms: C_28  and  C_32
                            x       y       z     vdW  Elec       q    Type
                         _______ _______ _______ _____ _____    ______ ____

>  <TORSDO>
F 3

$$$$
=
 OpenBabel11052414283D

 32 36  0  0  1  0  0  0  0  0999 V2000
  183.8160  178.4700  138.6580 C   0  0  1  0  0  3  0  0  0  0  0  0
  183.4040  177.5260  140.8900 N   0  0  2  0  0  0  0  0  0  0  0  0
  183.6030  178.2970  137.1640 C   0  0  0  0  0  2  0  0  0  0  0  0
  183.3660  177.2460  139.4500 C   0  0  1  0  0  3  0  0  0  0  0  0
  182.6410  178.7330  141.2830 C   0  0  1  0  0  3  0  0  0  0  0  0
  184.8150  177.7570  141.2420 C   0  0  1  0  0  3  0  0  0  0  0  0
  184.0300  179.1280  144.6480 C   0  0  0  0  0  0  0  0  0  0  0  0
  183.9220  178.7700  143.3960 C   0  0  0  0  0  0  0  0  0  0  0  0
  181.3010  178.9410  140.5540 C   0  0  2  0  0  3  0  0  0  0  0  0
  182.0440  176.6020  138.9920 C   0  0  1  0  0  3  0  0  0  0  0  0
  182.5440  178.8140  142.8000 C   0  0  0  0  0  2  0  0  0  0  0  0
  180.9380  176.4440  140.0410 C   0  0  0  0  0  2  0  0  0  0  0  0
  181.6070  176.8090  137.5370 C   0  0  0  0  0  2  0  0  0  0  0  0
  185.3630  178.9480  140.5520 N   0  0  0  0  0  2  0  0  0  0  0  0
  180.6600  180.0750  141.0190 F   0  0  0  0  0  0  0  0  0  0  0  0
  185.2420  178.8460  139.0830 C   0  0  1  0  0  3  0  0  0  0  0  0
  184.9710  177.8610  142.7720 C   0  0  2  0  0  3  0  0  0  0  0  0
  180.3440  177.7520  140.5680 C   0  0  0  0  0  2  0  0  0  0  0  0
  182.1070  178.1210  136.9300 C   0  0  0  0  0  2  0  0  0  0  0  0
  184.1340  179.4670  145.8330 O   0  0  0  0  0  0  0  0  0  0  0  0
  188.8760  178.5390  138.0020 C   0  0  2  0  0  3  0  0  0  0  0  0
  188.8500  179.8720  137.5910 O   0  0  0  0  0  1  0  0  0  0  0  0
  187.4870  177.4190  136.3050 C   0  0  0  0  0  3  0  0  0  0  0  0
  186.3700  178.0150  138.4460 C   0  0  1  0  0  3  0  0  0  0  0  0
  188.7090  177.6360  136.8090 C   0  0  0  0  0  0  0  0  0  0  0  0
  186.3080  178.1140  136.9170 C   0  0  0  0  0  2  0  0  0  0  0  0
  187.7710  178.3000  139.0440 C   0  0  1  0  0  3  0  0  0  0  0  0
  188.1380  177.2490  139.8850 O   0  0  0  0  0  1  0  0  0  0  0  0
  189.8910  176.9110  136.2570 C   0  0  0  0  0  2  0  0  0  0  0  0
  190.8870  176.8140  137.2280 O   0  0  0  0  0  1  0  0  0  0  0  0
  187.1910  177.0790  143.2240 O   0  0  0  0  0  1  0  0  0  0  0  0
  186.4060  178.2300  143.1450 C   0  0  0  0  0  2  0  0  0  0  0  0
  1  3  1  6  0  0  0
  1 16  1  0  0  0  0
  1  4  1  0  0  0  0
  2  6  1  0  0  0  0
  2  5  1  0  0  0  0
  4  2  1  0  0  0  0
  5 11  1  0  0  0  0
  6 17  1  0  0  0  0
  7 20  2  0  0  0  0
  8  7  2  0  0  0  0
  9 18  1  0  0  0  0
  9 15  1  0  0  0  0
  9  5  1  0  0  0  0
 10  4  1  0  0  0  0
 10 12  1  0  0  0  0
 11  8  1  0  0  0  0
 12 18  1  0  0  0  0
 13 10  1  0  0  0  0
 14  6  1  0  0  0  0
 16 14  1  0  0  0  0
 17 32  1  0  0  0  0
 17  8  1  0  0  0  0
 19  3  1  0  0  0  0
 19 13  1  0  0  0  0
 21 27  1  0  0  0  0
 22 21  1  0  0  0  0
 23 25  2  0  0  0  0
 23 26  1  0  0  0  0
 24 27  1  0  0  0  0
 24 16  1  0  0  0  0
 25 21  1  0  0  0  0
 26 24  1  0  0  0  0
 27 28  1  0  0  0  0
 29 25  1  0  0  0  0
 29 30  1  0  0  0  0
 32 31  1  0  0  0  0
M  END
>  <MODEL>
4

>  <REMARK>
 VINA RESULT:      -7.2      3.537      7.146
  Name = 
  3 active torsions:
  status: ('A' for Active; 'I' for Inactive)
    1  A    between atoms: C_7  and  C_19
    2  A    between atoms: C_16  and  C_27
    3  A    between atoms: C_28  and  C_32
                            x       y       z     vdW  Elec       q    Type
                         _______ _______ _______ _____ _____    ______ ____

>  <TORSDO>
F 3

$$$$
=
 OpenBabel11052414283D

 32 36  0  0  1  0  0  0  0  0999 V2000
  186.1980  178.6970  143.4440 C   0  0  1  0  0  3  0  0  0  0  0  0
  187.4300  177.5050  141.6820 N   0  0  2  0  0  0  0  0  0  0  0  0
  185.6600  178.6290  144.8630 C   0  0  0  0  0  2  0  0  0  0  0  0
  186.7460  177.3540  142.9710 C   0  0  1  0  0  3  0  0  0  0  0  0
  188.4840  178.5460  141.6850 C   0  0  1  0  0  3  0  0  0  0  0  0
  186.4070  177.9090  140.7020 C   0  0  1  0  0  3  0  0  0  0  0  0
  188.9080  178.8360  138.0600 C   0  0  0  0  0  0  0  0  0  0  0  0
  188.3590  178.5800  139.2160 C   0  0  0  0  0  0  0  0  0  0  0  0
  189.3450  178.6180  142.9590 C   0  0  2  0  0  3  0  0  0  0  0  0
  187.5700  176.5650  144.0060 C   0  0  1  0  0  3  0  0  0  0  0  0
  189.2860  178.4740  140.3940 C   0  0  0  0  0  2  0  0  0  0  0  0
  188.9910  176.1510  143.6070 C   0  0  0  0  0  2  0  0  0  0  0  0
  187.3100  176.8360  145.4930 C   0  0  0  0  0  2  0  0  0  0  0  0
  185.8170  179.2250  141.0390 N   0  0  0  0  0  2  0  0  0  0  0  0
  190.3130  179.5990  142.8420 F   0  0  0  0  0  0  0  0  0  0  0  0
  185.2220  179.2400  142.3910 C   0  0  1  0  0  3  0  0  0  0  0  0
  187.0010  177.8960  139.2800 C   0  0  2  0  0  3  0  0  0  0  0  0
  189.9770  177.3040  143.4110 C   0  0  0  0  0  2  0  0  0  0  0  0
  186.8200  178.2560  145.7780 C   0  0  0  0  0  2  0  0  0  0  0  0
  189.4270  179.0780  136.9630 O   0  0  0  0  0  0  0  0  0  0  0  0
  181.7250  179.0150  140.9130 C   0  0  2  0  0  3  0  0  0  0  0  0
  181.7600  180.3870  140.6610 O   0  0  0  0  0  1  0  0  0  0  0  0
  181.5150  178.9160  143.3640 C   0  0  0  0  0  3  0  0  0  0  0  0
  183.8030  178.6450  142.4280 C   0  0  1  0  0  3  0  0  0  0  0  0
  180.9360  178.7490  142.1670 C   0  0  0  0  0  0  0  0  0  0  0  0
  182.9290  179.4060  143.4320 C   0  0  0  0  0  2  0  0  0  0  0  0
  183.1600  178.4760  141.0280 C   0  0  1  0  0  3  0  0  0  0  0  0
  183.1860  177.1290  140.6650 O   0  0  0  0  0  1  0  0  0  0  0  0
  179.5500  178.2060  142.0700 C   0  0  0  0  0  2  0  0  0  0  0  0
  178.9310  178.2520  143.3190 O   0  0  0  0  0  1  0  0  0  0  0  0
  185.0610  177.4490  137.9450 O   0  0  0  0  0  1  0  0  0  0  0  0
  185.9910  178.4380  138.2680 C   0  0  0  0  0  2  0  0  0  0  0  0
  1  3  1  1  0  0  0
  2  5  1  0  0  0  0
  2  4  1  0  0  0  0
  3 19  1  0  0  0  0
  4  1  1  0  0  0  0
  4 10  1  0  0  0  0
  5  9  1  0  0  0  0
  6 14  1  0  0  0  0
  6  2  1  0  0  0  0
  7  8  2  0  0  0  0
  8 17  1  0  0  0  0
  8 11  1  0  0  0  0
  9 18  1  0  0  0  0
 10 13  1  0  0  0  0
 11  5  1  0  0  0  0
 12 10  1  0  0  0  0
 13 19  1  0  0  0  0
 14 16  1  0  0  0  0
 15  9  1  0  0  0  0
 16 24  1  0  0  0  0
 16  1  1  0  0  0  0
 17  6  1  0  0  0  0
 18 12  1  0  0  0  0
 20  7  2  0  0  0  0
 21 27  1  0  0  0  0
 21 25  1  0  0  0  0
 22 21  1  0  0  0  0
 23 26  1  0  0  0  0
 24 26  1  0  0  0  0
 25 23  2  0  0  0  0
 27 24  1  0  0  0  0
 28 27  1  0  0  0  0
 29 25  1  0  0  0  0
 29 30  1  0  0  0  0
 31 32  1  0  0  0  0
 32 17  1  0  0  0  0
M  END
>  <MODEL>
5

>  <REMARK>
 VINA RESULT:      -7.1      2.333      3.155
  Name = 
  3 active torsions:
  status: ('A' for Active; 'I' for Inactive)
    1  A    between atoms: C_7  and  C_19
    2  A    between atoms: C_16  and  C_27
    3  A    between atoms: C_28  and  C_32
                            x       y       z     vdW  Elec       q    Type
                         _______ _______ _______ _____ _____    ______ ____

>  <TORSDO>
F 3

$$$$
=
 OpenBabel11052414283D

 32 36  0  0  1  0  0  0  0  0999 V2000
  185.1640  179.1800  140.8000 C   0  0  1  0  0  3  0  0  0  0  0  0
  185.0310  177.7990  142.8300 N   0  0  2  0  0  0  0  0  0  0  0  0
  184.5230  179.5090  139.4630 C   0  0  0  0  0  2  0  0  0  0  0  0
  184.5220  177.9650  141.4630 C   0  0  1  0  0  3  0  0  0  0  0  0
  184.8890  179.0100  143.6700 C   0  0  1  0  0  3  0  0  0  0  0  0
  186.4680  177.5020  142.7150 C   0  0  1  0  0  3  0  0  0  0  0  0
  187.1470  178.0090  146.3720 C   0  0  0  0  0  0  0  0  0  0  0  0
  186.5960  178.0700  145.1900 C   0  0  0  0  0  0  0  0  0  0  0  0
  183.5760  179.7950  143.4920 C   0  0  2  0  0  3  0  0  0  0  0  0
  182.9860  177.8880  141.3740 C   0  0  1  0  0  3  0  0  0  0  0  0
  185.2240  178.6780  145.1170 C   0  0  0  0  0  2  0  0  0  0  0  0
  182.2100  177.7630  142.6900 C   0  0  0  0  0  2  0  0  0  0  0  0
  182.2930  178.6200  140.2180 C   0  0  0  0  0  2  0  0  0  0  0  0
  187.2130  178.6290  142.1070 N   0  0  0  0  0  2  0  0  0  0  0  0
  183.5350  180.8830  144.3430 F   0  0  0  0  0  0  0  0  0  0  0  0
  186.6870  178.9910  140.7740 C   0  0  1  0  0  3  0  0  0  0  0  0
  187.0420  177.1160  144.0920 C   0  0  2  0  0  3  0  0  0  0  0  0
  182.2910  178.9800  143.6150 C   0  0  0  0  0  2  0  0  0  0  0  0
  183.0600  179.8470  139.7250 C   0  0  0  0  0  2  0  0  0  0  0  0
  187.6710  177.9500  147.4920 O   0  0  0  0  0  0  0  0  0  0  0  0
  189.1660  178.4050  137.9500 C   0  0  2  0  0  3  0  0  0  0  0  0
  189.0550  179.7500  137.5950 O   0  0  0  0  0  1  0  0  0  0  0  0
  186.9950  177.4760  137.2530 C   0  0  0  0  0  3  0  0  0  0  0  0
  187.2290  178.0880  139.6520 C   0  0  1  0  0  3  0  0  0  0  0  0
  188.3140  177.5660  137.0360 C   0  0  0  0  0  0  0  0  0  0  0  0
  186.3840  178.2480  138.3820 C   0  0  0  0  0  2  0  0  0  0  0  0
  188.7550  178.2260  139.4200 C   0  0  1  0  0  3  0  0  0  0  0  0
  189.4070  177.1160  139.9580 O   0  0  0  0  0  1  0  0  0  0  0  0
  188.9570  176.7610  135.9560 C   0  0  0  0  0  2  0  0  0  0  0  0
  190.2810  176.4800  136.2940 O   0  0  0  0  0  1  0  0  0  0  0  0
  188.8660  175.8330  143.2110 O   0  0  0  0  0  1  0  0  0  0  0  0
  188.5580  176.9320  144.0140 C   0  0  0  0  0  2  0  0  0  0  0  0
  1  3  1  6  0  0  0
  1  4  1  0  0  0  0
  2  5  1  0  0  0  0
  3 19  1  0  0  0  0
  4  2  1  0  0  0  0
  5 11  1  0  0  0  0
  6  2  1  0  0  0  0
  6 17  1  0  0  0  0
  7 20  2  0  0  0  0
  8  7  2  0  0  0  0
  9 18  1  0  0  0  0
  9  5  1  0  0  0  0
  9 15  1  0  0  0  0
 10  4  1  0  0  0  0
 10 12  1  0  0  0  0
 11  8  1  0  0  0  0
 12 18  1  0  0  0  0
 13 10  1  0  0  0  0
 14  6  1  0  0  0  0
 16  1  1  0  0  0  0
 16 14  1  0  0  0  0
 17  8  1  0  0  0  0
 19 13  1  0  0  0  0
 21 27  1  0  0  0  0
 22 21  1  0  0  0  0
 23 26  1  0  0  0  0
 24 16  1  0  0  0  0
 25 23  2  0  0  0  0
 25 21  1  0  0  0  0
 26 24  1  0  0  0  0
 27 24  1  0  0  0  0
 27 28  1  0  0  0  0
 29 30  1  0  0  0  0
 29 25  1  0  0  0  0
 31 32  1  0  0  0  0
 32 17  1  0  0  0  0
M  END
>  <MODEL>
6

>  <REMARK>
 VINA RESULT:      -6.8      2.972      5.654
  Name = 
  3 active torsions:
  status: ('A' for Active; 'I' for Inactive)
    1  A    between atoms: C_7  and  C_19
    2  A    between atoms: C_16  and  C_27
    3  A    between atoms: C_28  and  C_32
                            x       y       z     vdW  Elec       q    Type
                         _______ _______ _______ _____ _____    ______ ____

>  <TORSDO>
F 3

$$$$
=
 OpenBabel11052414283D

 32 36  0  0  1  0  0  0  0  0999 V2000
  189.6090  177.4050  138.4660 C   0  0  1  0  0  3  0  0  0  0  0  0
  187.1710  177.0910  138.3900 N   0  0  2  0  0  0  0  0  0  0  0  0
  190.9640  176.7740  138.1950 C   0  0  0  0  0  2  0  0  0  0  0  0
  188.4660  176.4050  138.3150 C   0  0  1  0  0  3  0  0  0  0  0  0
  187.0350  178.2130  137.4330 C   0  0  1  0  0  3  0  0  0  0  0  0
  187.0640  177.6490  139.7490 C   0  0  1  0  0  3  0  0  0  0  0  0
  184.0920  179.7920  138.9310 C   0  0  0  0  0  0  0  0  0  0  0  0
  185.1770  179.0750  138.8150 C   0  0  0  0  0  0  0  0  0  0  0  0
  187.6310  177.9720  136.0340 C   0  0  2  0  0  3  0  0  0  0  0  0
  188.5740  175.4420  137.1180 C   0  0  1  0  0  3  0  0  0  0  0  0
  185.5980  178.7100  137.4200 C   0  0  0  0  0  2  0  0  0  0  0  0
  187.4000  175.4080  136.1340 C   0  0  0  0  0  2  0  0  0  0  0  0
  189.9700  175.1420  136.5560 C   0  0  0  0  0  2  0  0  0  0  0  0
  188.1100  178.6640  140.0080 N   0  0  0  0  0  2  0  0  0  0  0  0
  187.4220  179.0660  135.2150 F   0  0  0  0  0  0  0  0  0  0  0  0
  189.4720  178.1240  139.8150 C   0  0  1  0  0  3  0  0  0  0  0  0
  185.6490  178.2150  139.9780 C   0  0  2  0  0  3  0  0  0  0  0  0
  187.1830  176.6930  135.3310 C   0  0  0  0  0  2  0  0  0  0  0  0
  190.9640  176.2870  136.7510 C   0  0  0  0  0  2  0  0  0  0  0  0
  183.0640  180.4720  139.0420 O   0  0  0  0  0  0  0  0  0  0  0  0
  190.0290  177.9260  143.5730 C   0  0  2  0  0  3  0  0  0  0  0  0
  190.3590  179.2820  143.5790 O   0  0  0  0  0  1  0  0  0  0  0  0
  191.9730  176.8970  142.4670 C   0  0  0  0  0  3  0  0  0  0  0  0
  189.9870  177.3470  141.0400 C   0  0  1  0  0  3  0  0  0  0  0  0
  191.2850  177.0970  143.5990 C   0  0  0  0  0  0  0  0  0  0  0  0
  191.5000  177.5390  141.1980 C   0  0  0  0  0  2  0  0  0  0  0  0
  189.1750  177.6110  142.3340 C   0  0  1  0  0  3  0  0  0  0  0  0
  188.3530  176.5140  142.5970 O   0  0  0  0  0  1  0  0  0  0  0  0
  191.7010  176.4220  144.8630 C   0  0  0  0  0  2  0  0  0  0  0  0
  191.7360  177.3460  145.9080 O   0  0  0  0  0  1  0  0  0  0  0  0
  184.6770  178.2280  142.1700 O   0  0  0  0  0  1  0  0  0  0  0  0
  185.5610  178.9140  141.3350 C   0  0  0  0  0  2  0  0  0  0  0  0
  1  3  1  1  0  0  0
  1 16  1  0  0  0  0
  2  6  1  0  0  0  0
  4  2  1  0  0  0  0
  4  1  1  0  0  0  0
  5  2  1  0  0  0  0
  6 17  1  0  0  0  0
  6 14  1  0  0  0  0
  7 20  2  0  0  0  0
  8  7  2  0  0  0  0
  8 17  1  0  0  0  0
  9  5  1  0  0  0  0
 10  4  1  0  0  0  0
 11  5  1  0  0  0  0
 11  8  1  0  0  0  0
 12 10  1  0  0  0  0
 13 19  1  0  0  0  0
 13 10  1  0  0  0  0
 15  9  1  0  0  0  0
 16 14  1  0  0  0  0
 16 24  1  0  0  0  0
 17 32  1  0  0  0  0
 18  9  1  0  0  0  0
 18 12  1  0  0  0  0
 19  3  1  0  0  0  0
 21 22  1  0  0  0  0
 21 25  1  0  0  0  0
 23 25  2  0  0  0  0
 24 26  1  0  0  0  0
 24 27  1  0  0  0  0
 25 29  1  0  0  0  0
 26 23  1  0  0  0  0
 27 28  1  0  0  0  0
 27 21  1  0  0  0  0
 29 30  1  0  0  0  0
 32 31  1  0  0  0  0
M  END
>  <MODEL>
7

>  <REMARK>
 VINA RESULT:      -6.7      3.150      7.731
  Name = 
  3 active torsions:
  status: ('A' for Active; 'I' for Inactive)
    1  A    between atoms: C_7  and  C_19
    2  A    between atoms: C_16  and  C_27
    3  A    between atoms: C_28  and  C_32
                            x       y       z     vdW  Elec       q    Type
                         _______ _______ _______ _____ _____    ______ ____

>  <TORSDO>
F 3

$$$$
=
 OpenBabel11052414283D

 32 36  0  0  1  0  0  0  0  0999 V2000
  188.4990  177.9530  140.7480 C   0  0  1  0  0  3  0  0  0  0  0  0
  190.2710  176.3120  140.2890 N   0  0  2  0  0  0  0  0  0  0  0  0
  187.3120  178.3030  141.6290 C   0  0  0  0  0  2  0  0  0  0  0  0
  189.0140  176.5410  141.0100 C   0  0  1  0  0  3  0  0  0  0  0  0
  191.3130  177.3270  140.5700 C   0  0  1  0  0  3  0  0  0  0  0  0
  189.9560  176.3840  138.8520 C   0  0  1  0  0  3  0  0  0  0  0  0
  193.5540  176.5260  137.7870 C   0  0  0  0  0  0  0  0  0  0  0  0
  192.4640  176.6170  138.5010 C   0  0  0  0  0  0  0  0  0  0  0  0
  191.4100  177.7950  142.0340 C   0  0  2  0  0  3  0  0  0  0  0  0
  189.0780  176.1150  142.4890 C   0  0  1  0  0  3  0  0  0  0  0  0
  192.6400  176.8870  139.9680 C   0  0  0  0  0  2  0  0  0  0  0  0
  190.4290  175.6290  143.0240 C   0  0  0  0  0  2  0  0  0  0  0  0
  188.1400  176.8140  143.4820 C   0  0  0  0  0  2  0  0  0  0  0  0
  189.4700  177.7290  138.4650 N   0  0  0  0  0  2  0  0  0  0  0  0
  192.4310  178.7140  142.1890 F   0  0  0  0  0  0  0  0  0  0  0  0
  188.2810  178.1360  139.2400 C   0  0  1  0  0  3  0  0  0  0  0  0
  191.1800  175.9570  138.0180 C   0  0  2  0  0  3  0  0  0  0  0  0
  191.5310  176.6890  143.0800 C   0  0  0  0  0  2  0  0  0  0  0  0
  187.7810  178.2450  143.0780 C   0  0  0  0  0  2  0  0  0  0  0  0
  194.5860  176.4380  137.1100 O   0  0  0  0  0  0  0  0  0  0  0  0
  186.1450  177.1590  136.2490 C   0  0  2  0  0  3  0  0  0  0  0  0
  186.5930  178.2970  135.5770 O   0  0  0  0  0  1  0  0  0  0  0  0
  184.6510  178.0940  137.9680 C   0  0  0  0  0  3  0  0  0  0  0  0
  186.9720  177.5520  138.6800 C   0  0  1  0  0  3  0  0  0  0  0  0
  184.7760  177.4130  136.8210 C   0  0  0  0  0  0  0  0  0  0  0  0
  185.8790  178.6280  138.6410 C   0  0  0  0  0  2  0  0  0  0  0  0
  187.1510  176.7810  137.3480 C   0  0  1  0  0  3  0  0  0  0  0  0
  187.0840  175.4090  137.5930 O   0  0  0  0  0  1  0  0  0  0  0  0
  183.5750  176.8210  136.1620 C   0  0  0  0  0  2  0  0  0  0  0  0
  183.9560  175.7540  135.3470 O   0  0  0  0  0  1  0  0  0  0  0  0
  190.1350  175.0990  136.0390 O   0  0  0  0  0  1  0  0  0  0  0  0
  190.9120  176.1510  136.5260 C   0  0  0  0  0  2  0  0  0  0  0  0
  1  4  1  0  0  0  0
  1  3  1  1  0  0  0
  2  5  1  0  0  0  0
  2  4  1  0  0  0  0
  3 19  1  0  0  0  0
  4 10  1  0  0  0  0
  5  9  1  0  0  0  0
  6  2  1  0  0  0  0
  7  8  2  0  0  0  0
  8 11  1  0  0  0  0
  9 15  1  0  0  0  0
  9 18  1  0  0  0  0
 10 12  1  0  0  0  0
 10 13  1  0  0  0  0
 11  5  1  0  0  0  0
 12 18  1  0  0  0  0
 14  6  1  0  0  0  0
 14 16  1  0  0  0  0
 16  1  1  0  0  0  0
 17  8  1  0  0  0  0
 17  6  1  0  0  0  0
 19 13  1  0  0  0  0
 20  7  2  0  0  0  0
 21 25  1  0  0  0  0
 21 27  1  0  0  0  0
 22 21  1  0  0  0  0
 23 26  1  0  0  0  0
 24 16  1  0  0  0  0
 25 23  2  0  0  0  0
 26 24  1  0  0  0  0
 27 28  1  0  0  0  0
 27 24  1  0  0  0  0
 29 25  1  0  0  0  0
 30 29  1  0  0  0  0
 31 32  1  0  0  0  0
 32 17  1  0  0  0  0
M  END
>  <MODEL>
8

>  <REMARK>
 VINA RESULT:      -6.7      2.208      2.880
  Name = 
  3 active torsions:
  status: ('A' for Active; 'I' for Inactive)
    1  A    between atoms: C_7  and  C_19
    2  A    between atoms: C_16  and  C_27
    3  A    between atoms: C_28  and  C_32
                            x       y       z     vdW  Elec       q    Type
                         _______ _______ _______ _____ _____    ______ ____

>  <TORSDO>
F 3

$$$$
=
 OpenBabel11052414283D

 32 36  0  0  1  0  0  0  0  0999 V2000
  188.5490  176.9120  138.5870 C   0  0  1  0  0  3  0  0  0  0  0  0
  190.2060  176.8510  136.7720 N   0  0  2  0  0  0  0  0  0  0  0  0
  187.4160  177.6990  139.2250 C   0  0  0  0  0  2  0  0  0  0  0  0
  189.2560  177.7060  137.4930 C   0  0  1  0  0  3  0  0  0  0  0  0
  189.6020  175.6110  136.2340 C   0  0  1  0  0  3  0  0  0  0  0  0
  191.2430  176.4570  137.7410 C   0  0  1  0  0  3  0  0  0  0  0  0
  192.7090  173.8120  135.5160 C   0  0  0  0  0  0  0  0  0  0  0  0
  191.8770  174.6620  136.0550 C   0  0  0  0  0  0  0  0  0  0  0  0
  188.1890  175.7620  135.6390 C   0  0  2  0  0  3  0  0  0  0  0  0
  188.3410  178.5180  136.5570 C   0  0  1  0  0  3  0  0  0  0  0  0
  190.5920  174.9080  135.3170 C   0  0  0  0  0  2  0  0  0  0  0  0
  188.4610  178.2550  135.0520 C   0  0  0  0  0  2  0  0  0  0  0  0
  186.9670  178.9480  137.0870 C   0  0  0  0  0  2  0  0  0  0  0  0
  190.6790  175.6480  138.8470 N   0  0  0  0  0  2  0  0  0  0  0  0
  187.7360  174.5550  135.1390 F   0  0  0  0  0  0  0  0  0  0  0  0
  189.5970  176.3550  139.5600 C   0  0  1  0  0  3  0  0  0  0  0  0
  192.3890  175.7200  137.0210 C   0  0  2  0  0  3  0  0  0  0  0  0
  188.0210  176.8620  134.5950 C   0  0  0  0  0  2  0  0  0  0  0  0
  186.3920  177.9960  138.1360 C   0  0  0  0  0  2  0  0  0  0  0  0
  193.4980  173.0070  135.0050 O   0  0  0  0  0  0  0  0  0  0  0  0
  191.6470  177.0240  142.6930 C   0  0  2  0  0  3  0  0  0  0  0  0
  191.2040  175.8120  143.2230 O   0  0  0  0  0  1  0  0  0  0  0  0
  189.6310  178.4340  142.7960 C   0  0  0  0  0  3  0  0  0  0  0  0
  190.1220  177.3460  140.6150 C   0  0  1  0  0  3  0  0  0  0  0  0
  190.8490  178.1580  143.2800 C   0  0  0  0  0  0  0  0  0  0  0  0
  189.0660  177.5800  141.7020 C   0  0  0  0  0  2  0  0  0  0  0  0
  191.5280  176.9900  141.1610 C   0  0  1  0  0  3  0  0  0  0  0  0
  192.4750  177.8460  140.5970 O   0  0  0  0  0  1  0  0  0  0  0  0
  191.4590  179.0280  144.3290 C   0  0  0  0  0  2  0  0  0  0  0  0
  191.7910  178.2650  145.4480 O   0  0  0  0  0  1  0  0  0  0  0  0
  194.6890  175.6300  137.6910 O   0  0  0  0  0  1  0  0  0  0  0  0
  193.4090  175.1910  138.0290 C   0  0  0  0  0  2  0  0  0  0  0  0
  1  3  1  1  0  0  0
  1 16  1  0  0  0  0
  2  4  1  0  0  0  0
  2  6  1  0  0  0  0
  4  1  1  0  0  0  0
  5  2  1  0  0  0  0
  6 14  1  0  0  0  0
  7  8  2  0  0  0  0
  8 17  1  0  0  0  0
  9  5  1  0  0  0  0
 10 13  1  0  0  0  0
 10  4  1  0  0  0  0
 11  8  1  0  0  0  0
 11  5  1  0  0  0  0
 12 10  1  0  0  0  0
 13 19  1  0  0  0  0
 14 16  1  0  0  0  0
 15  9  1  0  0  0  0
 16 24  1  0  0  0  0
 17  6  1  0  0  0  0
 17 32  1  0  0  0  0
 18 12  1  0  0  0  0
 18  9  1  0  0  0  0
 19  3  1  0  0  0  0
 20  7  2  0  0  0  0
 21 22  1  0  0  0  0
 21 25  1  0  0  0  0
 23 25  2  0  0  0  0
 24 27  1  0  0  0  0
 24 26  1  0  0  0  0
 25 29  1  0  0  0  0
 26 23  1  0  0  0  0
 27 21  1  0  0  0  0
 28 27  1  0  0  0  0
 29 30  1  0  0  0  0
 31 32  1  0  0  0  0
M  END
>  <MODEL>
9

>  <REMARK>
 VINA RESULT:      -6.6      4.318      7.419
  Name = 
  3 active torsions:
  status: ('A' for Active; 'I' for Inactive)
    1  A    between atoms: C_7  and  C_19
    2  A    between atoms: C_16  and  C_27
    3  A    between atoms: C_28  and  C_32
                            x       y       z     vdW  Elec       q    Type
                         _______ _______ _______ _____ _____    ______ ____

>  <TORSDO>
F 3

$$$$
