=
 OpenBabel11052414153D

 34 40  0  0  1  0  0  0  0  0999 V2000
  189.7810  176.8880  136.8880 C   0  0  2  0  0  3  0  0  0  0  0  0
  188.0480  178.3320  137.5090 C   0  0  2  0  0  3  0  0  0  0  0  0
  189.5860  177.5170  139.2930 C   0  0  1  0  0  3  0  0  0  0  0  0
  188.6290  177.9950  141.7140 C   0  0  2  0  0  0  0  0  0  0  0  0
  187.6360  177.4700  136.4110 N   0  0  0  0  0  0  0  0  0  0  0  0
  187.2120  178.3350  135.3210 C   0  0  0  0  0  1  0  0  0  0  0  0
  187.3680  178.4150  139.8640 C   0  0  0  0  0  0  0  0  0  0  0  0
  189.2670  177.6890  137.9950 C   0  0  1  0  0  3  0  0  0  0  0  0
  187.2440  178.4180  142.1950 C   0  0  0  0  0  2  0  0  0  0  0  0
  188.7240  176.7520  135.9570 O   0  0  0  0  0  0  0  0  0  0  0  0
  191.2830  175.7720  138.5050 C   0  0  0  0  0  2  0  0  0  0  0  0
  190.2610  175.5310  137.3920 C   0  0  0  0  0  2  0  0  0  0  0  0
  187.0220  178.4170  138.5110 O   0  0  0  0  0  0  0  0  0  0  0  0
  189.1120  176.6920  142.3010 C   0  0  0  0  0  2  0  0  0  0  0  0
  189.9190  177.9790  142.5130 C   0  0  2  0  0  3  0  0  0  0  0  0
  186.5470  178.6340  140.8810 C   0  0  0  0  0  0  0  0  0  0  0  0
  188.6780  178.0660  140.2630 N   0  0  0  0  0  0  0  0  0  0  0  0
  190.6590  176.5280  139.6910 C   0  0  0  0  0  2  0  0  0  0  0  0
  189.6920  178.4840  143.9280 C   0  0  0  0  0  2  0  0  0  0  0  0
  191.5520  176.6830  147.3160 N   0  0  0  0  0  2  0  0  0  0  0  0
  191.9500  176.1810  146.0020 C   0  0  0  0  0  2  0  0  0  0  0  0
  191.5670  177.1840  144.9170 C   0  0  0  0  0  2  0  0  0  0  0  0
  189.6120  177.8230  146.3440 C   0  0  0  0  0  2  0  0  0  0  0  0
  190.0590  177.4110  144.9400 C   0  0  0  0  0  3  0  0  0  0  0  0
  190.0940  176.7860  147.3570 C   0  0  0  0  0  2  0  0  0  0  0  0
  185.0920  178.9310  140.7380 C   0  0  0  0  0  2  0  0  0  0  0  0
  184.1310  177.9690  141.9490 S   0  0  0  0  0  0  0  0  0  0  0  0
  183.8650  179.4130  143.0130 C   0  0  0  0  0  2  0  0  0  0  0  0
  183.0240  179.0140  144.2090 C   0  0  0  0  0  2  0  0  0  0  0  0
  183.8290  178.3750  145.1510 O   0  0  0  0  0  0  0  0  0  0  0  0
  186.2010  177.2280  145.6430 C   0  0  0  0  0  1  0  0  0  0  0  0
  186.1300  178.7420  145.7840 C   0  0  1  0  0  3  0  0  0  0  0  0
  184.7830  179.3330  145.5130 C   0  0  2  0  0  3  0  0  0  0  0  0
  185.2340  179.0700  146.8200 O   0  0  0  0  0  0  0  0  0  0  0  0
  1 12  1  1  0  0  0
  1  8  1  0  0  0  0
  2  8  1  0  0  0  0
  2 13  1  1  0  0  0
  3 18  1  1  0  0  0
  3 17  1  0  0  0  0
  4  9  1  1  0  0  0
  4 14  1  0  0  0  0
  4 15  1  0  0  0  0
  5  2  1  0  0  0  0
  6  5  1  0  0  0  0
  7 17  1  0  0  0  0
  7 16  2  0  0  0  0
  8  3  1  0  0  0  0
 10  5  1  0  0  0  0
 10  1  1  0  0  0  0
 11 18  1  0  0  0  0
 12 11  1  0  0  0  0
 13  7  1  0  0  0  0
 14 15  1  0  0  0  0
 15 19  1  0  0  0  0
 16  9  1  0  0  0  0
 17  4  1  0  0  0  0
 19 24  1  0  0  0  0
 20 25  1  0  0  0  0
 21 20  1  0  0  0  0
 22 24  1  0  0  0  0
 22 21  1  0  0  0  0
 23 25  1  0  0  0  0
 24 23  1  0  0  0  0
 26 16  1  0  0  0  0
 26 27  1  0  0  0  0
 27 28  1  0  0  0  0
 28 29  1  0  0  0  0
 29 30  1  0  0  0  0
 30 33  1  0  0  0  0
 31 32  1  0  0  0  0
 32 34  1  0  0  0  0
 33 32  1  0  0  0  0
 33 34  1  0  0  0  0
M  END
>  <MODEL>
1

>  <REMARK>
 VINA RESULT:      -8.4      0.000      0.000
  Name = 
  8 active torsions:
  status: ('A' for Active; 'I' for Inactive)
    1  A    between atoms: S_3  and  C_13
    2  A    between atoms: S_3  and  C_17
    3  A    between atoms: C_12  and  C_27
    4  A    between atoms: C_12  and  C_28
    5  A    between atoms: C_13  and  C_33
    6  A    between atoms: C_17  and  C_29
    7  A    between atoms: C_20  and  O_34
    8  A    between atoms: C_33  and  O_34
                            x       y       z     vdW  Elec       q    Type
                         _______ _______ _______ _____ _____    ______ ____

>  <TORSDO>
F 8

$$$$
=
 OpenBabel11052414153D

 34 40  0  0  1  0  0  0  0  0999 V2000
  189.0230  177.2170  141.2710 C   0  0  2  0  0  3  0  0  0  0  0  0
  188.6930  176.3010  143.3980 C   0  0  2  0  0  3  0  0  0  0  0  0
  186.8710  177.7020  142.4340 C   0  0  1  0  0  3  0  0  0  0  0  0
  185.0780  178.3810  144.2590 C   0  0  2  0  0  0  0  0  0  0  0  0
  190.0950  176.6300  143.1870 N   0  0  0  0  0  0  0  0  0  0  0  0
  190.8590  175.4090  143.3930 C   0  0  0  0  0  1  0  0  0  0  0  0
  186.9860  177.2880  144.8560 C   0  0  0  0  0  0  0  0  0  0  0  0
  188.0190  177.0090  142.3110 C   0  0  1  0  0  3  0  0  0  0  0  0
  185.0970  178.3000  145.7830 C   0  0  0  0  0  2  0  0  0  0  0  0
  190.2860  177.0070  141.8730 O   0  0  0  0  0  0  0  0  0  0  0  0
  187.4650  178.8190  140.2100 C   0  0  0  0  0  2  0  0  0  0  0  0
  188.9040  178.6230  140.6930 C   0  0  0  0  0  2  0  0  0  0  0  0
  188.2540  176.7250  144.6990 O   0  0  0  0  0  0  0  0  0  0  0  0
  184.8700  179.7750  143.7210 C   0  0  0  0  0  2  0  0  0  0  0  0
  183.8850  178.6550  143.3640 C   0  0  2  0  0  3  0  0  0  0  0  0
  186.4010  177.5850  146.0080 C   0  0  0  0  0  0  0  0  0  0  0  0
  186.2390  177.6880  143.7250 N   0  0  0  0  0  0  0  0  0  0  0  0
  186.4590  178.6920  141.3680 C   0  0  0  0  0  2  0  0  0  0  0  0
  182.6150  178.8270  144.1820 C   0  0  0  0  0  2  0  0  0  0  0  0
  179.3510  178.3700  141.4780 N   0  0  0  0  0  2  0  0  0  0  0  0
  180.5320  179.0660  140.9720 C   0  0  0  0  0  2  0  0  0  0  0  0
  181.7400  178.7650  141.8560 C   0  0  0  0  0  2  0  0  0  0  0  0
  180.1530  178.5890  143.7840 C   0  0  0  0  0  2  0  0  0  0  0  0
  181.4540  179.2190  143.2840 C   0  0  0  0  0  3  0  0  0  0  0  0
  179.0250  178.9010  142.8010 C   0  0  0  0  0  2  0  0  0  0  0  0
  187.0140  177.3530  147.3480 C   0  0  0  0  0  2  0  0  0  0  0  0
  187.2770  178.9380  148.2040 S   0  0  0  0  0  0  0  0  0  0  0  0
  188.9880  178.5190  148.6340 C   0  0  0  0  0  2  0  0  0  0  0  0
  189.5600  177.5860  147.5860 C   0  0  0  0  0  2  0  0  0  0  0  0
  190.8390  177.1840  147.9690 O   0  0  0  0  0  0  0  0  0  0  0  0
  193.0980  175.9670  148.7460 C   0  0  0  0  0  1  0  0  0  0  0  0
  192.3820  175.3760  147.5390 C   0  0  1  0  0  3  0  0  0  0  0  0
  191.1360  176.0980  147.1360 C   0  0  2  0  0  3  0  0  0  0  0  0
  192.3690  176.3250  146.4980 O   0  0  0  0  0  0  0  0  0  0  0  0
  1 12  1  1  0  0  0
  1 10  1  0  0  0  0
  1  8  1  0  0  0  0
  2 13  1  1  0  0  0
  3 18  1  1  0  0  0
  3 17  1  0  0  0  0
  4 14  1  6  0  0  0
  4  9  1  0  0  0  0
  5  6  1  0  0  0  0
  5  2  1  0  0  0  0
  7 16  2  0  0  0  0
  8  3  1  0  0  0  0
  8  2  1  0  0  0  0
  9 16  1  0  0  0  0
 10  5  1  0  0  0  0
 11 12  1  0  0  0  0
 11 18  1  0  0  0  0
 13  7  1  0  0  0  0
 15 14  1  0  0  0  0
 15 19  1  0  0  0  0
 15  4  1  0  0  0  0
 16 26  1  0  0  0  0
 17  4  1  0  0  0  0
 17  7  1  0  0  0  0
 20 25  1  0  0  0  0
 21 20  1  0  0  0  0
 21 22  1  0  0  0  0
 22 24  1  0  0  0  0
 24 23  1  0  0  0  0
 24 19  1  0  0  0  0
 25 23  1  0  0  0  0
 26 27  1  0  0  0  0
 27 28  1  0  0  0  0
 29 30  1  0  0  0  0
 29 28  1  0  0  0  0
 32 31  1  0  0  0  0
 33 32  1  0  0  0  0
 33 30  1  0  0  0  0
 34 33  1  0  0  0  0
 34 32  1  0  0  0  0
M  END
>  <MODEL>
2

>  <REMARK>
 VINA RESULT:      -8.1      3.444      7.470
  Name = 
  8 active torsions:
  status: ('A' for Active; 'I' for Inactive)
    1  A    between atoms: S_3  and  C_13
    2  A    between atoms: S_3  and  C_17
    3  A    between atoms: C_12  and  C_27
    4  A    between atoms: C_12  and  C_28
    5  A    between atoms: C_13  and  C_33
    6  A    between atoms: C_17  and  C_29
    7  A    between atoms: C_20  and  O_34
    8  A    between atoms: C_33  and  O_34
                            x       y       z     vdW  Elec       q    Type
                         _______ _______ _______ _____ _____    ______ ____

>  <TORSDO>
F 8

$$$$
=
 OpenBabel11052414153D

 34 40  0  0  1  0  0  0  0  0999 V2000
  179.8790  178.7080  141.7690 C   0  0  2  0  0  3  0  0  0  0  0  0
  181.2240  178.0600  139.9680 C   0  0  2  0  0  3  0  0  0  0  0  0
  182.3190  178.3980  142.1810 C   0  0  1  0  0  3  0  0  0  0  0  0
  184.9550  178.5100  141.9700 C   0  0  2  0  0  0  0  0  0  0  0  0
  180.1360  178.9180  139.5210 N   0  0  0  0  0  0  0  0  0  0  0  0
  179.3960  178.1810  138.5080 C   0  0  0  0  0  1  0  0  0  0  0  0
  183.6440  178.4300  140.1090 C   0  0  0  0  0  0  0  0  0  0  0  0
  181.2190  178.2480  141.4180 C   0  0  1  0  0  3  0  0  0  0  0  0
  185.8730  178.6680  140.7610 C   0  0  0  0  0  2  0  0  0  0  0  0
  179.2680  179.1450  140.5700 O   0  0  0  0  0  0  0  0  0  0  0  0
  180.7680  179.3240  143.9930 C   0  0  0  0  0  2  0  0  0  0  0  0
  179.9570  179.8300  142.7990 C   0  0  0  0  0  2  0  0  0  0  0  0
  182.4670  178.4420  139.3570 O   0  0  0  0  0  0  0  0  0  0  0  0
  185.1200  179.5890  143.0120 C   0  0  0  0  0  2  0  0  0  0  0  0
  185.3470  178.1180  143.3820 C   0  0  2  0  0  3  0  0  0  0  0  0
  184.8710  178.6150  139.6420 C   0  0  0  0  0  0  0  0  0  0  0  0
  183.5900  178.3050  141.5160 N   0  0  0  0  0  0  0  0  0  0  0  0
  182.2040  178.9530  143.5830 C   0  0  0  0  0  2  0  0  0  0  0  0
  186.8400  177.8520  143.4810 C   0  0  0  0  0  2  0  0  0  0  0  0
  188.4590  177.9840  147.4240 N   0  0  0  0  0  2  0  0  0  0  0  0
  189.0810  177.0490  146.4880 C   0  0  0  0  0  2  0  0  0  0  0  0
  188.7190  177.4220  145.0530 C   0  0  0  0  0  2  0  0  0  0  0  0
  186.5330  178.2660  145.9330 C   0  0  0  0  0  2  0  0  0  0  0  0
  187.2040  177.3830  144.8800 C   0  0  0  0  0  3  0  0  0  0  0  0
  187.0060  177.8490  147.3250 C   0  0  0  0  0  2  0  0  0  0  0  0
  185.1960  178.8620  138.2070 C   0  0  0  0  0  2  0  0  0  0  0  0
  185.1040  177.3080  137.2630 S   0  0  0  0  0  0  0  0  0  0  0  0
  186.6750  177.6310  136.4160 C   0  0  0  0  0  2  0  0  0  0  0  0
  187.7060  176.6110  136.8550 C   0  0  0  0  0  2  0  0  0  0  0  0
  188.0790  176.8650  138.1740 O   0  0  0  0  0  0  0  0  0  0  0  0
  189.2300  177.2630  140.5630 C   0  0  0  0  0  1  0  0  0  0  0  0
  189.8200  178.0240  139.3830 C   0  0  1  0  0  3  0  0  0  0  0  0
  189.1350  177.7800  138.0760 C   0  0  2  0  0  3  0  0  0  0  0  0
  188.8490  178.9070  138.8690 O   0  0  0  0  0  0  0  0  0  0  0  0
  1 12  1  1  0  0  0
  2 13  1  6  0  0  0
  2  8  1  0  0  0  0
  3 18  1  6  0  0  0
  4  9  1  6  0  0  0
  4 14  1  0  0  0  0
  4 15  1  0  0  0  0
  5  2  1  0  0  0  0
  5 10  1  0  0  0  0
  6  5  1  0  0  0  0
  7 17  1  0  0  0  0
  8  1  1  0  0  0  0
  8  3  1  0  0  0  0
 10  1  1  0  0  0  0
 12 11  1  0  0  0  0
 13  7  1  0  0  0  0
 14 15  1  0  0  0  0
 15 19  1  0  0  0  0
 16  7  2  0  0  0  0
 16  9  1  0  0  0  0
 17  4  1  0  0  0  0
 17  3  1  0  0  0  0
 18 11  1  0  0  0  0
 19 24  1  0  0  0  0
 21 20  1  0  0  0  0
 22 21  1  0  0  0  0
 23 25  1  0  0  0  0
 24 22  1  0  0  0  0
 24 23  1  0  0  0  0
 25 20  1  0  0  0  0
 26 16  1  0  0  0  0
 27 26  1  0  0  0  0
 28 29  1  0  0  0  0
 28 27  1  0  0  0  0
 29 30  1  0  0  0  0
 32 31  1  0  0  0  0
 33 30  1  0  0  0  0
 33 34  1  0  0  0  0
 33 32  1  0  0  0  0
 34 32  1  0  0  0  0
M  END
>  <MODEL>
3

>  <REMARK>
 VINA RESULT:      -7.8      3.170      6.962
  Name = 
  8 active torsions:
  status: ('A' for Active; 'I' for Inactive)
    1  A    between atoms: S_3  and  C_13
    2  A    between atoms: S_3  and  C_17
    3  A    between atoms: C_12  and  C_27
    4  A    between atoms: C_12  and  C_28
    5  A    between atoms: C_13  and  C_33
    6  A    between atoms: C_17  and  C_29
    7  A    between atoms: C_20  and  O_34
    8  A    between atoms: C_33  and  O_34
                            x       y       z     vdW  Elec       q    Type
                         _______ _______ _______ _____ _____    ______ ____

>  <TORSDO>
F 8

$$$$
=
 OpenBabel11052414153D

 34 40  0  0  1  0  0  0  0  0999 V2000
  189.3960  176.8650  146.0930 C   0  0  2  0  0  3  0  0  0  0  0  0
  187.4040  177.2910  144.9420 C   0  0  2  0  0  3  0  0  0  0  0  0
  189.4450  176.7940  143.6010 C   0  0  1  0  0  3  0  0  0  0  0  0
  189.1170  177.3990  141.0450 C   0  0  2  0  0  0  0  0  0  0  0  0
  187.4740  178.0760  146.1670 N   0  0  0  0  0  0  0  0  0  0  0  0
  186.2940  177.7510  146.9530 C   0  0  0  0  0  1  0  0  0  0  0  0
  187.5220  177.9380  142.5800 C   0  0  0  0  0  0  0  0  0  0  0  0
  188.7780  176.8220  144.7710 C   0  0  1  0  0  3  0  0  0  0  0  0
  188.0480  178.2130  140.3220 C   0  0  0  0  0  2  0  0  0  0  0  0
  188.5720  177.6810  146.9040 O   0  0  0  0  0  0  0  0  0  0  0  0
  191.5870  176.5760  144.9830 C   0  0  0  0  0  2  0  0  0  0  0  0
  190.8130  177.4190  145.9990 C   0  0  0  0  0  2  0  0  0  0  0  0
  186.9440  178.0920  143.8420 O   0  0  0  0  0  0  0  0  0  0  0  0
  190.5190  177.9240  140.8580 C   0  0  0  0  0  2  0  0  0  0  0  0
  190.1660  176.4960  140.4260 C   0  0  2  0  0  3  0  0  0  0  0  0
  187.1010  178.4990  141.4550 C   0  0  0  0  0  0  0  0  0  0  0  0
  188.7190  177.2020  142.4290 N   0  0  0  0  0  0  0  0  0  0  0  0
  190.9500  176.6520  143.5840 C   0  0  0  0  0  2  0  0  0  0  0  0
  190.0250  176.4510  138.9130 C   0  0  0  0  0  2  0  0  0  0  0  0
  192.6500  174.8680  135.9490 N   0  0  0  0  0  2  0  0  0  0  0  0
  191.6500  173.9540  136.4990 C   0  0  0  0  0  2  0  0  0  0  0  0
  190.5350  174.7420  137.1800 C   0  0  0  0  0  2  0  0  0  0  0  0
  192.2510  176.4680  137.7620 C   0  0  0  0  0  2  0  0  0  0  0  0
  191.1210  175.5920  138.3030 C   0  0  0  0  0  3  0  0  0  0  0  0
  193.2810  175.5920  137.0520 C   0  0  0  0  0  2  0  0  0  0  0  0
  185.9150  179.3970  141.3550 C   0  0  0  0  0  2  0  0  0  0  0  0
  184.4300  178.4340  140.9280 S   0  0  0  0  0  0  0  0  0  0  0  0
  184.4360  179.0250  139.2140 C   0  0  0  0  0  2  0  0  0  0  0  0
  184.8960  177.9120  138.2950 C   0  0  0  0  0  2  0  0  0  0  0  0
  185.8650  178.4010  137.4200 O   0  0  0  0  0  0  0  0  0  0  0  0
  188.4140  178.6660  136.6320 C   0  0  0  0  0  1  0  0  0  0  0  0
  187.7060  177.3760  136.2400 C   0  0  1  0  0  3  0  0  0  0  0  0
  186.2830  177.2820  136.6890 C   0  0  2  0  0  3  0  0  0  0  0  0
  186.6280  177.6810  135.3850 O   0  0  0  0  0  0  0  0  0  0  0  0
  1 12  1  6  0  0  0
  1 10  1  0  0  0  0
  2 13  1  6  0  0  0
  2  5  1  0  0  0  0
  3 18  1  1  0  0  0
  3  8  1  0  0  0  0
  4  9  1  6  0  0  0
  4 17  1  0  0  0  0
  5 10  1  0  0  0  0
  5  6  1  0  0  0  0
  7 13  1  0  0  0  0
  8  2  1  0  0  0  0
  8  1  1  0  0  0  0
  9 16  1  0  0  0  0
 11 12  1  0  0  0  0
 14  4  1  0  0  0  0
 15 14  1  0  0  0  0
 15  4  1  0  0  0  0
 16  7  2  0  0  0  0
 17  7  1  0  0  0  0
 17  3  1  0  0  0  0
 18 11  1  0  0  0  0
 19 15  1  0  0  0  0
 20 21  1  0  0  0  0
 20 25  1  0  0  0  0
 21 22  1  0  0  0  0
 22 24  1  0  0  0  0
 23 24  1  0  0  0  0
 24 19  1  0  0  0  0
 25 23  1  0  0  0  0
 26 16  1  0  0  0  0
 27 26  1  0  0  0  0
 28 27  1  0  0  0  0
 29 28  1  0  0  0  0
 30 29  1  0  0  0  0
 32 31  1  0  0  0  0
 32 33  1  0  0  0  0
 33 30  1  0  0  0  0
 34 32  1  0  0  0  0
 34 33  1  0  0  0  0
M  END
>  <MODEL>
4

>  <REMARK>
 VINA RESULT:      -7.6      2.153      7.384
  Name = 
  8 active torsions:
  status: ('A' for Active; 'I' for Inactive)
    1  A    between atoms: S_3  and  C_13
    2  A    between atoms: S_3  and  C_17
    3  A    between atoms: C_12  and  C_27
    4  A    between atoms: C_12  and  C_28
    5  A    between atoms: C_13  and  C_33
    6  A    between atoms: C_17  and  C_29
    7  A    between atoms: C_20  and  O_34
    8  A    between atoms: C_33  and  O_34
                            x       y       z     vdW  Elec       q    Type
                         _______ _______ _______ _____ _____    ______ ____

>  <TORSDO>
F 8

$$$$
=
 OpenBabel11052414153D

 34 40  0  0  1  0  0  0  0  0999 V2000
  191.7390  177.1690  141.9680 C   0  0  2  0  0  3  0  0  0  0  0  0
  189.4780  177.3590  142.5400 C   0  0  2  0  0  3  0  0  0  0  0  0
  190.0530  177.0580  140.1350 C   0  0  1  0  0  3  0  0  0  0  0  0
  187.9930  177.5780  138.5560 C   0  0  2  0  0  0  0  0  0  0  0  0
  190.3060  178.1700  143.4220 N   0  0  0  0  0  0  0  0  0  0  0  0
  190.0370  177.7350  144.7840 C   0  0  0  0  0  1  0  0  0  0  0  0
  187.8670  177.9710  140.7960 C   0  0  0  0  0  0  0  0  0  0  0  0
  190.3840  177.0370  141.4400 C   0  0  1  0  0  3  0  0  0  0  0  0
  186.6530  178.2590  138.8220 C   0  0  0  0  0  2  0  0  0  0  0  0
  191.6380  177.9080  143.1720 O   0  0  0  0  0  0  0  0  0  0  0  0
  192.5620  177.0950  139.6380 C   0  0  0  0  0  2  0  0  0  0  0  0
  192.6370  177.8700  140.9550 C   0  0  0  0  0  2  0  0  0  0  0  0
  188.3150  178.0870  142.1140 O   0  0  0  0  0  0  0  0  0  0  0  0
  188.8190  178.2450  137.4850 C   0  0  0  0  0  2  0  0  0  0  0  0
  188.3950  176.7800  137.3300 C   0  0  2  0  0  3  0  0  0  0  0  0
  186.7360  178.4630  140.3100 C   0  0  0  0  0  0  0  0  0  0  0  0
  188.6850  177.3650  139.8160 N   0  0  0  0  0  0  0  0  0  0  0  0
  191.1310  177.0780  139.0740 C   0  0  0  0  0  2  0  0  0  0  0  0
  187.2500  176.6920  136.3340 C   0  0  0  0  0  2  0  0  0  0  0  0
  185.8310  172.9990  137.9230 N   0  0  0  0  0  2  0  0  0  0  0  0
  186.9880  172.9310  137.0320 C   0  0  0  0  0  2  0  0  0  0  0  0
  187.6410  174.3060  136.9110 C   0  0  0  0  0  2  0  0  0  0  0  0
  185.3630  175.2990  137.2160 C   0  0  0  0  0  2  0  0  0  0  0  0
  186.6300  175.3050  136.3580 C   0  0  0  0  0  3  0  0  0  0  0  0
  184.8250  173.8730  137.3200 C   0  0  0  0  0  2  0  0  0  0  0  0
  185.7380  179.2280  141.1120 C   0  0  0  0  0  2  0  0  0  0  0  0
  184.0490  178.6860  140.6990 S   0  0  0  0  0  0  0  0  0  0  0  0
  183.5750  178.5490  142.4430 C   0  0  0  0  0  2  0  0  0  0  0  0
  184.5830  179.2860  143.3020 C   0  0  0  0  0  2  0  0  0  0  0  0
  184.9830  178.4660  144.3560 O   0  0  0  0  0  0  0  0  0  0  0  0
  186.6320  177.5010  146.2380 C   0  0  0  0  0  1  0  0  0  0  0  0
  185.9410  178.8230  146.5450 C   0  0  1  0  0  3  0  0  0  0  0  0
  185.0210  179.3120  145.4710 C   0  0  2  0  0  3  0  0  0  0  0  0
  184.5480  178.6160  146.5990 O   0  0  0  0  0  0  0  0  0  0  0  0
  1 12  1  6  0  0  0
  1 10  1  0  0  0  0
  2 13  1  6  0  0  0
  2  5  1  0  0  0  0
  3 18  1  6  0  0  0
  3  8  1  0  0  0  0
  4 14  1  6  0  0  0
  4  9  1  0  0  0  0
  4 17  1  0  0  0  0
  5  6  1  0  0  0  0
  7 13  1  0  0  0  0
  8  1  1  0  0  0  0
  8  2  1  0  0  0  0
  9 16  1  0  0  0  0
 10  5  1  0  0  0  0
 11 12  1  0  0  0  0
 15 14  1  0  0  0  0
 15  4  1  0  0  0  0
 16  7  2  0  0  0  0
 16 26  1  0  0  0  0
 17  3  1  0  0  0  0
 17  7  1  0  0  0  0
 18 11  1  0  0  0  0
 19 24  1  0  0  0  0
 19 15  1  0  0  0  0
 21 20  1  0  0  0  0
 22 21  1  0  0  0  0
 23 25  1  0  0  0  0
 24 22  1  0  0  0  0
 24 23  1  0  0  0  0
 25 20  1  0  0  0  0
 27 26  1  0  0  0  0
 27 28  1  0  0  0  0
 28 29  1  0  0  0  0
 29 30  1  0  0  0  0
 30 33  1  0  0  0  0
 31 32  1  0  0  0  0
 32 34  1  0  0  0  0
 33 32  1  0  0  0  0
 33 34  1  0  0  0  0
M  END
>  <MODEL>
5

>  <REMARK>
 VINA RESULT:      -7.6      2.542      5.854
  Name = 
  8 active torsions:
  status: ('A' for Active; 'I' for Inactive)
    1  A    between atoms: S_3  and  C_13
    2  A    between atoms: S_3  and  C_17
    3  A    between atoms: C_12  and  C_27
    4  A    between atoms: C_12  and  C_28
    5  A    between atoms: C_13  and  C_33
    6  A    between atoms: C_17  and  C_29
    7  A    between atoms: C_20  and  O_34
    8  A    between atoms: C_33  and  O_34
                            x       y       z     vdW  Elec       q    Type
                         _______ _______ _______ _____ _____    ______ ____

>  <TORSDO>
F 8

$$$$
=
 OpenBabel11052414153D

 34 40  0  0  1  0  0  0  0  0999 V2000
  190.0500  177.1130  145.1370 C   0  0  2  0  0  3  0  0  0  0  0  0
  187.7670  177.3240  144.6720 C   0  0  2  0  0  3  0  0  0  0  0  0
  189.3400  177.1520  142.7470 C   0  0  1  0  0  3  0  0  0  0  0  0
  188.1790  177.8150  140.4620 C   0  0  2  0  0  0  0  0  0  0  0  0
  188.1210  178.0600  145.8770 N   0  0  0  0  0  0  0  0  0  0  0  0
  187.2830  177.5520  146.9530 C   0  0  0  0  0  1  0  0  0  0  0  0
  187.0820  178.0780  142.4410 C   0  0  0  0  0  0  0  0  0  0  0  0
  189.0650  177.0450  144.0610 C   0  0  1  0  0  3  0  0  0  0  0  0
  186.8560  178.5120  140.1590 C   0  0  0  0  0  2  0  0  0  0  0  0
  189.4290  177.7800  146.2190 O   0  0  0  0  0  0  0  0  0  0  0  0
  191.8130  177.1570  143.4030 C   0  0  0  0  0  2  0  0  0  0  0  0
  191.2990  177.8500  144.6670 C   0  0  0  0  0  2  0  0  0  0  0  0
  186.9060  178.1040  143.8270 O   0  0  0  0  0  0  0  0  0  0  0  0
  189.3890  178.5250  139.9070 C   0  0  0  0  0  2  0  0  0  0  0  0
  189.0810  177.0820  139.4880 C   0  0  2  0  0  3  0  0  0  0  0  0
  186.2770  178.6260  141.5420 C   0  0  0  0  0  0  0  0  0  0  0  0
  188.2490  177.5110  141.8820 N   0  0  0  0  0  0  0  0  0  0  0  0
  190.7740  177.2080  142.2690 C   0  0  0  0  0  2  0  0  0  0  0  0
  188.4890  177.0820  138.0880 C   0  0  0  0  0  2  0  0  0  0  0  0
  190.0800  173.2710  137.0290 N   0  0  0  0  0  2  0  0  0  0  0  0
  191.0280  174.3810  137.1090 C   0  0  0  0  0  2  0  0  0  0  0  0
  190.4250  175.5310  137.9100 C   0  0  0  0  0  2  0  0  0  0  0  0
  188.1870  174.8270  137.0380 C   0  0  0  0  0  2  0  0  0  0  0  0
  189.1410  176.0060  137.2360 C   0  0  0  0  0  3  0  0  0  0  0  0
  188.9040  173.7120  136.2800 C   0  0  0  0  0  2  0  0  0  0  0  0
  185.0250  179.3660  141.8730 C   0  0  0  0  0  2  0  0  0  0  0  0
  183.6340  178.2040  142.0490 S   0  0  0  0  0  0  0  0  0  0  0  0
  183.1430  178.9020  143.6490 C   0  0  0  0  0  2  0  0  0  0  0  0
  181.6620  178.6700  143.8700 C   0  0  0  0  0  2  0  0  0  0  0  0
  180.9800  178.8350  142.6650 O   0  0  0  0  0  0  0  0  0  0  0  0
  180.0840  180.2700  140.5860 C   0  0  0  0  0  1  0  0  0  0  0  0
  179.2730  180.3480  141.8720 C   0  0  1  0  0  3  0  0  0  0  0  0
  179.8200  179.5420  143.0070 C   0  0  2  0  0  3  0  0  0  0  0  0
  180.0660  180.9230  142.8850 O   0  0  0  0  0  0  0  0  0  0  0  0
  1 12  1  6  0  0  0
  1 10  1  0  0  0  0
  2 13  1  6  0  0  0
  2  5  1  0  0  0  0
  3 18  1  1  0  0  0
  3  8  1  0  0  0  0
  4 14  1  1  0  0  0
  4 17  1  0  0  0  0
  5 10  1  0  0  0  0
  5  6  1  0  0  0  0
  7 13  1  0  0  0  0
  8  2  1  0  0  0  0
  8  1  1  0  0  0  0
  9  4  1  0  0  0  0
  9 16  1  0  0  0  0
 11 12  1  0  0  0  0
 15 14  1  0  0  0  0
 15  4  1  0  0  0  0
 16 26  1  0  0  0  0
 16  7  2  0  0  0  0
 17  7  1  0  0  0  0
 17  3  1  0  0  0  0
 18 11  1  0  0  0  0
 19 15  1  0  0  0  0
 20 21  1  0  0  0  0
 21 22  1  0  0  0  0
 23 24  1  0  0  0  0
 24 22  1  0  0  0  0
 24 19  1  0  0  0  0
 25 20  1  0  0  0  0
 25 23  1  0  0  0  0
 26 27  1  0  0  0  0
 27 28  1  0  0  0  0
 28 29  1  0  0  0  0
 30 33  1  0  0  0  0
 30 29  1  0  0  0  0
 31 32  1  0  0  0  0
 32 34  1  0  0  0  0
 32 33  1  0  0  0  0
 34 33  1  0  0  0  0
M  END
>  <MODEL>
6

>  <REMARK>
 VINA RESULT:      -7.6      2.537      6.599
  Name = 
  8 active torsions:
  status: ('A' for Active; 'I' for Inactive)
    1  A    between atoms: S_3  and  C_13
    2  A    between atoms: S_3  and  C_17
    3  A    between atoms: C_12  and  C_27
    4  A    between atoms: C_12  and  C_28
    5  A    between atoms: C_13  and  C_33
    6  A    between atoms: C_17  and  C_29
    7  A    between atoms: C_20  and  O_34
    8  A    between atoms: C_33  and  O_34
                            x       y       z     vdW  Elec       q    Type
                         _______ _______ _______ _____ _____    ______ ____

>  <TORSDO>
F 8

$$$$
=
 OpenBabel11052414153D

 34 40  0  0  1  0  0  0  0  0999 V2000
  189.4030  176.8660  145.7120 C   0  0  2  0  0  3  0  0  0  0  0  0
  187.4750  177.1420  144.4160 C   0  0  2  0  0  3  0  0  0  0  0  0
  189.6310  176.7420  143.2320 C   0  0  1  0  0  3  0  0  0  0  0  0
  189.4470  177.2680  140.6440 C   0  0  2  0  0  0  0  0  0  0  0  0
  187.4110  177.9570  145.6210 N   0  0  0  0  0  0  0  0  0  0  0  0
  186.2000  177.5770  146.3330 C   0  0  0  0  0  1  0  0  0  0  0  0
  187.7180  177.7410  142.0510 C   0  0  0  0  0  0  0  0  0  0  0  0
  188.8830  176.7550  144.3520 C   0  0  1  0  0  3  0  0  0  0  0  0
  188.3840  177.9960  139.8270 C   0  0  0  0  0  2  0  0  0  0  0  0
  188.4760  177.6480  146.4420 O   0  0  0  0  0  0  0  0  0  0  0  0
  191.6800  176.6890  144.7630 C   0  0  0  0  0  2  0  0  0  0  0  0
  190.7870  177.5060  145.7000 C   0  0  0  0  0  2  0  0  0  0  0  0
  187.0450  177.8870  143.2660 O   0  0  0  0  0  0  0  0  0  0  0  0
  190.8240  177.8740  140.5400 C   0  0  0  0  0  2  0  0  0  0  0  0
  190.5890  176.4170  140.1230 C   0  0  2  0  0  3  0  0  0  0  0  0
  187.3450  178.2480  140.8850 C   0  0  0  0  0  0  0  0  0  0  0  0
  188.9660  177.0780  142.0030 N   0  0  0  0  0  0  0  0  0  0  0  0
  191.1390  176.6940  143.3220 C   0  0  0  0  0  2  0  0  0  0  0  0
  190.5580  176.3300  138.6060 C   0  0  0  0  0  2  0  0  0  0  0  0
  193.3550  174.6270  135.8750 N   0  0  0  0  0  2  0  0  0  0  0  0
  192.3320  173.7310  136.4130 C   0  0  0  0  0  2  0  0  0  0  0  0
  191.1750  174.5420  136.9910 C   0  0  0  0  0  2  0  0  0  0  0  0
  192.8450  176.3100  137.5820 C   0  0  0  0  0  2  0  0  0  0  0  0
  191.6910  175.4510  138.1010 C   0  0  0  0  0  3  0  0  0  0  0  0
  193.9190  175.4090  136.9740 C   0  0  0  0  0  2  0  0  0  0  0  0
  186.1160  179.0690  140.6790 C   0  0  0  0  0  2  0  0  0  0  0  0
  185.3210  178.6280  139.1020 S   0  0  0  0  0  0  0  0  0  0  0  0
  183.6560  178.9010  139.7670 C   0  0  0  0  0  2  0  0  0  0  0  0
  183.4120  177.9560  140.9260 C   0  0  0  0  0  2  0  0  0  0  0  0
  182.7570  178.6370  141.9510 O   0  0  0  0  0  0  0  0  0  0  0  0
  181.4060  178.8460  144.2580 C   0  0  0  0  0  1  0  0  0  0  0  0
  182.9110  178.6390  144.3620 C   0  0  1  0  0  3  0  0  0  0  0  0
  183.6220  178.5430  143.0490 C   0  0  2  0  0  3  0  0  0  0  0  0
  183.5710  179.7420  143.7850 O   0  0  0  0  0  0  0  0  0  0  0  0
  1 12  1  6  0  0  0
  1 10  1  0  0  0  0
  2 13  1  6  0  0  0
  2  5  1  0  0  0  0
  3 18  1  1  0  0  0
  3  8  1  0  0  0  0
  4  9  1  6  0  0  0
  4 17  1  0  0  0  0
  5  6  1  0  0  0  0
  5 10  1  0  0  0  0
  7 13  1  0  0  0  0
  8  2  1  0  0  0  0
  8  1  1  0  0  0  0
  9 16  1  0  0  0  0
 11 12  1  0  0  0  0
 14  4  1  0  0  0  0
 15 14  1  0  0  0  0
 15  4  1  0  0  0  0
 16  7  2  0  0  0  0
 17  7  1  0  0  0  0
 17  3  1  0  0  0  0
 18 11  1  0  0  0  0
 19 15  1  0  0  0  0
 20 21  1  0  0  0  0
 20 25  1  0  0  0  0
 21 22  1  0  0  0  0
 22 24  1  0  0  0  0
 23 24  1  0  0  0  0
 24 19  1  0  0  0  0
 25 23  1  0  0  0  0
 26 16  1  0  0  0  0
 27 28  1  0  0  0  0
 27 26  1  0  0  0  0
 28 29  1  0  0  0  0
 29 30  1  0  0  0  0
 30 33  1  0  0  0  0
 31 32  1  0  0  0  0
 33 34  1  0  0  0  0
 33 32  1  0  0  0  0
 34 32  1  0  0  0  0
M  END
>  <MODEL>
7

>  <REMARK>
 VINA RESULT:      -7.6      2.616      6.422
  Name = 
  8 active torsions:
  status: ('A' for Active; 'I' for Inactive)
    1  A    between atoms: S_3  and  C_13
    2  A    between atoms: S_3  and  C_17
    3  A    between atoms: C_12  and  C_27
    4  A    between atoms: C_12  and  C_28
    5  A    between atoms: C_13  and  C_33
    6  A    between atoms: C_17  and  C_29
    7  A    between atoms: C_20  and  O_34
    8  A    between atoms: C_33  and  O_34
                            x       y       z     vdW  Elec       q    Type
                         _______ _______ _______ _____ _____    ______ ____

>  <TORSDO>
F 8

$$$$
=
 OpenBabel11052414153D

 34 40  0  0  1  0  0  0  0  0999 V2000
  189.8490  177.0210  136.9750 C   0  0  2  0  0  3  0  0  0  0  0  0
  188.0520  178.3790  137.6100 C   0  0  2  0  0  3  0  0  0  0  0  0
  189.6160  177.6010  139.3880 C   0  0  1  0  0  3  0  0  0  0  0  0
  188.6280  177.9970  141.8120 C   0  0  2  0  0  0  0  0  0  0  0  0
  187.6830  177.5180  136.4960 N   0  0  0  0  0  0  0  0  0  0  0  0
  187.2270  178.3820  135.4180 C   0  0  0  0  0  1  0  0  0  0  0  0
  187.3580  178.3930  139.9620 C   0  0  0  0  0  0  0  0  0  0  0  0
  189.2960  177.7810  138.0920 C   0  0  1  0  0  3  0  0  0  0  0  0
  187.2240  178.3520  142.2930 C   0  0  0  0  0  2  0  0  0  0  0  0
  188.8030  176.8550  136.0350 O   0  0  0  0  0  0  0  0  0  0  0  0
  191.3900  175.9450  138.5810 C   0  0  0  0  0  2  0  0  0  0  0  0
  190.3850  175.6790  137.4590 C   0  0  0  0  0  2  0  0  0  0  0  0
  187.0190  178.4030  138.6080 O   0  0  0  0  0  0  0  0  0  0  0  0
  189.1640  176.7070  142.3800 C   0  0  0  0  0  2  0  0  0  0  0  0
  189.9130  178.0230  142.6170 C   0  0  2  0  0  3  0  0  0  0  0  0
  186.5240  178.5590  140.9780 C   0  0  0  0  0  0  0  0  0  0  0  0
  188.6810  178.0940  140.3630 N   0  0  0  0  0  0  0  0  0  0  0  0
  190.7290  176.6540  139.7750 C   0  0  0  0  0  2  0  0  0  0  0  0
  189.6590  178.4950  144.0400 C   0  0  0  0  0  2  0  0  0  0  0  0
  191.2460  176.6590  147.5450 N   0  0  0  0  0  2  0  0  0  0  0  0
  191.8600  176.2870  146.2720 C   0  0  0  0  0  2  0  0  0  0  0  0
  191.5160  177.3190  145.2000 C   0  0  0  0  0  2  0  0  0  0  0  0
  189.3380  177.6680  146.3830 C   0  0  0  0  0  2  0  0  0  0  0  0
  190.0020  177.3970  145.0320 C   0  0  0  0  0  3  0  0  0  0  0  0
  189.7920  176.6170  147.3950 C   0  0  0  0  0  2  0  0  0  0  0  0
  185.0580  178.7960  140.8330 C   0  0  0  0  0  2  0  0  0  0  0  0
  184.2260  178.6050  142.4410 S   0  0  0  0  0  0  0  0  0  0  0  0
  182.5770  178.6580  141.6910 C   0  0  0  0  0  2  0  0  0  0  0  0
  182.6500  178.1420  140.2680 C   0  0  0  0  0  2  0  0  0  0  0  0
  181.4060  177.6370  139.8920 O   0  0  0  0  0  0  0  0  0  0  0  0
  179.2560  176.0360  139.8550 C   0  0  0  0  0  1  0  0  0  0  0  0
  179.3630  177.0120  141.0190 C   0  0  1  0  0  3  0  0  0  0  0  0
  180.5720  177.8930  140.9870 C   0  0  2  0  0  3  0  0  0  0  0  0
  179.3170  178.3300  140.5230 O   0  0  0  0  0  0  0  0  0  0  0  0
  1 12  1  1  0  0  0
  1  8  1  0  0  0  0
  2  8  1  0  0  0  0
  2 13  1  1  0  0  0
  3 18  1  6  0  0  0
  3 17  1  0  0  0  0
  4  9  1  1  0  0  0
  4 14  1  0  0  0  0
  4 15  1  0  0  0  0
  5  2  1  0  0  0  0
  6  5  1  0  0  0  0
  7 17  1  0  0  0  0
  7 16  2  0  0  0  0
  8  3  1  0  0  0  0
 10  5  1  0  0  0  0
 10  1  1  0  0  0  0
 11 18  1  0  0  0  0
 12 11  1  0  0  0  0
 13  7  1  0  0  0  0
 14 15  1  0  0  0  0
 15 19  1  0  0  0  0
 16  9  1  0  0  0  0
 17  4  1  0  0  0  0
 19 24  1  0  0  0  0
 21 20  1  0  0  0  0
 22 21  1  0  0  0  0
 23 25  1  0  0  0  0
 24 22  1  0  0  0  0
 24 23  1  0  0  0  0
 25 20  1  0  0  0  0
 26 16  1  0  0  0  0
 26 27  1  0  0  0  0
 28 27  1  0  0  0  0
 29 28  1  0  0  0  0
 30 29  1  0  0  0  0
 30 33  1  0  0  0  0
 31 32  1  0  0  0  0
 33 32  1  0  0  0  0
 34 33  1  0  0  0  0
 34 32  1  0  0  0  0
M  END
>  <MODEL>
8

>  <REMARK>
 VINA RESULT:      -7.5      2.269      3.098
  Name = 
  8 active torsions:
  status: ('A' for Active; 'I' for Inactive)
    1  A    between atoms: S_3  and  C_13
    2  A    between atoms: S_3  and  C_17
    3  A    between atoms: C_12  and  C_27
    4  A    between atoms: C_12  and  C_28
    5  A    between atoms: C_13  and  C_33
    6  A    between atoms: C_17  and  C_29
    7  A    between atoms: C_20  and  O_34
    8  A    between atoms: C_33  and  O_34
                            x       y       z     vdW  Elec       q    Type
                         _______ _______ _______ _____ _____    ______ ____

>  <TORSDO>
F 8

$$$$
=
 OpenBabel11052414153D

 34 40  0  0  1  0  0  0  0  0999 V2000
  189.8370  177.1450  145.1780 C   0  0  2  0  0  3  0  0  0  0  0  0
  187.5740  177.3380  144.6150 C   0  0  2  0  0  3  0  0  0  0  0  0
  189.2320  177.1980  142.7600 C   0  0  1  0  0  3  0  0  0  0  0  0
  188.1660  177.8690  140.4320 C   0  0  2  0  0  0  0  0  0  0  0  0
  187.8680  178.0670  145.8400 N   0  0  0  0  0  0  0  0  0  0  0  0
  186.9880  177.5410  146.8740 C   0  0  0  0  0  1  0  0  0  0  0  0
  186.9800  178.1040  142.3620 C   0  0  0  0  0  0  0  0  0  0  0  0
  188.9010  177.0770  144.0600 C   0  0  1  0  0  3  0  0  0  0  0  0
  186.8510  178.5550  140.0750 C   0  0  0  0  0  2  0  0  0  0  0  0
  189.1620  177.7970  146.2370 O   0  0  0  0  0  0  0  0  0  0  0  0
  191.6740  177.2210  143.5240 C   0  0  0  0  0  2  0  0  0  0  0  0
  191.0980  177.8990  144.7700 C   0  0  0  0  0  2  0  0  0  0  0  0
  186.7430  178.1160  143.7390 O   0  0  0  0  0  0  0  0  0  0  0  0
  189.3920  178.5950  139.9350 C   0  0  0  0  0  2  0  0  0  0  0  0
  189.1180  177.1520  139.4920 C   0  0  2  0  0  3  0  0  0  0  0  0
  186.2100  178.6510  141.4320 C   0  0  0  0  0  0  0  0  0  0  0  0
  188.1770  177.5530  141.8500 N   0  0  0  0  0  0  0  0  0  0  0  0
  190.6850  177.2720  142.3460 C   0  0  0  0  0  2  0  0  0  0  0  0
  188.5880  177.1590  138.0670 C   0  0  0  0  0  2  0  0  0  0  0  0
  190.2530  173.3830  136.9960 N   0  0  0  0  0  2  0  0  0  0  0  0
  191.1940  174.4850  137.1930 C   0  0  0  0  0  2  0  0  0  0  0  0
  190.5290  175.6070  137.9860 C   0  0  0  0  0  2  0  0  0  0  0  0
  188.3670  174.9470  136.9120 C   0  0  0  0  0  2  0  0  0  0  0  0
  189.3050  176.1130  137.2300 C   0  0  0  0  0  3  0  0  0  0  0  0
  189.1420  173.8570  136.1720 C   0  0  0  0  0  2  0  0  0  0  0  0
  184.9370  179.3760  141.7140 C   0  0  0  0  0  2  0  0  0  0  0  0
  183.5220  178.2380  141.5830 S   0  0  0  0  0  0  0  0  0  0  0  0
  182.9290  179.0150  140.0560 C   0  0  0  0  0  2  0  0  0  0  0  0
  181.4460  179.3010  140.1750 C   0  0  0  0  0  2  0  0  0  0  0  0
  181.0950  179.3880  141.5210 O   0  0  0  0  0  0  0  0  0  0  0  0
  180.2890  178.6450  143.9680 C   0  0  0  0  0  1  0  0  0  0  0  0
  179.2130  178.7540  142.8950 C   0  0  1  0  0  3  0  0  0  0  0  0
  179.7140  179.1570  141.5450 C   0  0  2  0  0  3  0  0  0  0  0  0
  179.4740  177.8120  141.8810 O   0  0  0  0  0  0  0  0  0  0  0  0
  1 12  1  6  0  0  0
  1 10  1  0  0  0  0
  2 13  1  6  0  0  0
  2  5  1  0  0  0  0
  3 18  1  1  0  0  0
  3  8  1  0  0  0  0
  4 14  1  1  0  0  0
  4 17  1  0  0  0  0
  5 10  1  0  0  0  0
  5  6  1  0  0  0  0
  7 13  1  0  0  0  0
  8  2  1  0  0  0  0
  8  1  1  0  0  0  0
  9  4  1  0  0  0  0
  9 16  1  0  0  0  0
 11 12  1  0  0  0  0
 15 14  1  0  0  0  0
 15  4  1  0  0  0  0
 16 26  1  0  0  0  0
 16  7  2  0  0  0  0
 17  7  1  0  0  0  0
 17  3  1  0  0  0  0
 18 11  1  0  0  0  0
 19 15  1  0  0  0  0
 20 21  1  0  0  0  0
 21 22  1  0  0  0  0
 23 24  1  0  0  0  0
 24 22  1  0  0  0  0
 24 19  1  0  0  0  0
 25 23  1  0  0  0  0
 25 20  1  0  0  0  0
 27 26  1  0  0  0  0
 28 29  1  0  0  0  0
 28 27  1  0  0  0  0
 29 30  1  0  0  0  0
 30 33  1  0  0  0  0
 32 31  1  0  0  0  0
 33 34  1  0  0  0  0
 33 32  1  0  0  0  0
 34 32  1  0  0  0  0
M  END
>  <MODEL>
9

>  <REMARK>
 VINA RESULT:      -7.3      2.592      6.626
  Name = 
  8 active torsions:
  status: ('A' for Active; 'I' for Inactive)
    1  A    between atoms: S_3  and  C_13
    2  A    between atoms: S_3  and  C_17
    3  A    between atoms: C_12  and  C_27
    4  A    between atoms: C_12  and  C_28
    5  A    between atoms: C_13  and  C_33
    6  A    between atoms: C_17  and  C_29
    7  A    between atoms: C_20  and  O_34
    8  A    between atoms: C_33  and  O_34
                            x       y       z     vdW  Elec       q    Type
                         _______ _______ _______ _____ _____    ______ ____

>  <TORSDO>
F 8

$$$$
