=
 OpenBabel11052412263D

 30 31  0  0  1  0  0  0  0  0999 V2000
  189.2680  178.1170  141.7320 C   0  0  2  0  0  3  0  0  0  0  0  0
  189.7730  177.5930  143.0920 C   0  0  1  0  0  3  0  0  0  0  0  0
  189.8550  176.0920  143.0770 C   0  0  0  0  0  0  0  0  0  0  0  0
  191.1510  175.4110  143.3660 C   0  0  0  0  0  2  0  0  0  0  0  0
  191.5940  177.5200  145.2120 S   0  0  0  0  0  0  0  0  0  0  0  0
  188.8560  175.4250  142.8590 O   0  0  0  0  0  0  0  0  0  0  0  0
  191.6030  175.7310  144.7820 C   0  0  0  0  0  2  0  0  0  0  0  0
  190.9230  179.7270  143.7940 C   0  0  0  0  0  1  0  0  0  0  0  0
  191.0820  178.2300  143.6010 C   0  0  2  0  0  3  0  0  0  0  0  0
  187.0840  178.5600  140.2660 O   0  0  0  0  0  0  0  0  0  0  0  0
  187.5680  178.7820  141.6930 S   0  0  1  0  0  0  0  0  0  0  0  0
  186.5490  177.6760  142.6850 C   0  0  0  0  0  2  0  0  0  0  0  0
  183.4740  179.1390  144.4610 C   0  0  2  0  0  3  0  0  0  0  0  0
  183.7140  178.5400  145.8440 C   0  0  0  0  0  2  0  0  0  0  0  0
  182.1190  179.0490  144.1450 O   0  0  0  0  0  1  0  0  0  0  0  0
  186.0440  177.8790  145.1490 C   0  0  1  0  0  3  0  0  0  0  0  0
  185.5980  179.9310  146.3520 O   0  0  0  0  0  1  0  0  0  0  0  0
  184.2900  178.3870  143.4180 C   0  0  0  0  0  2  0  0  0  0  0  0
  185.1960  178.6000  146.2080 C   0  0  1  0  0  3  0  0  0  0  0  0
  185.7830  178.4550  143.7440 C   0  0  2  0  0  3  0  0  0  0  0  0
  187.5200  177.9500  145.5380 C   0  0  0  0  0  2  0  0  0  0  0  0
  187.7480  177.3700  146.9230 C   0  0  0  0  0  2  0  0  0  0  0  0
  187.9940  178.3850  147.8290 F   0  0  0  0  0  0  0  0  0  0  0  0
  189.4940  177.0980  140.6230 C   0  0  0  0  0  2  0  0  0  0  0  0
  190.4490  177.6390  139.5680 C   0  0  1  0  0  3  0  0  0  0  0  0
  192.6520  176.5490  138.3520 S   0  0  0  0  0  1  0  0  0  0  0  0
  191.8630  177.1690  139.8670 C   0  0  0  0  0  2  0  0  0  0  0  0
  190.0240  177.1500  138.1900 C   0  0  0  0  0  2  0  0  0  0  0  0
  189.3110  178.2500  137.4210 C   0  0  0  0  0  2  0  0  0  0  0  0
  189.2590  179.4030  138.1830 F   0  0  0  0  0  0  0  0  0  0  0  0
  1 24  1  6  0  0  0
  2  1  1  6  0  0  0
  2  9  1  0  0  0  0
  3  2  1  0  0  0  0
  3  4  1  0  0  0  0
  4  7  1  0  0  0  0
  6  3  2  0  0  0  0
  7  5  1  0  0  0  0
  9  8  1  1  0  0  0
  9  5  1  0  0  0  0
 11 10  2  6  0  0  0
 11  1  1  0  0  0  0
 11 12  1  0  0  0  0
 13 15  1  6  0  0  0
 13 14  1  0  0  0  0
 14 19  1  0  0  0  0
 16 21  1  1  0  0  0
 16 19  1  0  0  0  0
 18 20  1  0  0  0  0
 18 13  1  0  0  0  0
 19 17  1  6  0  0  0
 20 12  1  6  0  0  0
 20 16  1  0  0  0  0
 21 22  1  0  0  0  0
 22 23  1  0  0  0  0
 25 28  1  6  0  0  0
 25 27  1  0  0  0  0
 25 24  1  0  0  0  0
 26 27  1  0  0  0  0
 29 30  1  0  0  0  0
 29 28  1  0  0  0  0
M  END
>  <MODEL>
1

>  <REMARK>
 VINA RESULT:      -6.9      0.000      0.000
  Name = 
  11 active torsions:
  status: ('A' for Active; 'I' for Inactive)
    1  A    between atoms: C_3  and  C_11
    2  A    between atoms: C_3  and  C_19
    3  A    between atoms: S_4  and  C_13
    4  A    between atoms: S_4  and  C_23
    5  A    between atoms: C_5  and  C_9
    6  A    between atoms: C_6  and  C_8
    7  A    between atoms: C_6  and  C_9
    8  A    between atoms: C_6  and  C_21
    9  A    between atoms: C_7  and  C_13
   10  A    between atoms: C_8  and  C_13
   11  A    between atoms: C_23  and  C_29
                            x       y       z     vdW  Elec       q    Type
                         _______ _______ _______ _____ _____    ______ ____

>  <TORSDO>
F 11

$$$$
=
 OpenBabel11052412263D

 30 31  0  0  1  0  0  0  0  0999 V2000
  186.8370  177.9440  142.1640 C   0  0  2  0  0  3  0  0  0  0  0  0
  185.5120  178.7180  142.3230 C   0  0  1  0  0  3  0  0  0  0  0  0
  184.7630  178.7460  141.0210 C   0  0  0  0  0  0  0  0  0  0  0  0
  183.3750  178.2010  140.9460 C   0  0  0  0  0  2  0  0  0  0  0  0
  183.0650  179.2330  143.5700 S   0  0  0  0  0  0  0  0  0  0  0  0
  185.2730  179.2410  140.0290 O   0  0  0  0  0  0  0  0  0  0  0  0
  182.4520  179.0010  141.8510 C   0  0  0  0  0  2  0  0  0  0  0  0
  185.3220  178.4160  144.8220 C   0  0  0  0  0  1  0  0  0  0  0  0
  184.6140  178.2570  143.4880 C   0  0  2  0  0  3  0  0  0  0  0  0
  188.0100  175.8510  143.3300 O   0  0  0  0  0  0  0  0  0  0  0  0
  187.5750  177.2650  143.6890 S   0  0  1  0  0  0  0  0  0  0  0  0
  189.1220  178.1490  143.9630 C   0  0  0  0  0  2  0  0  0  0  0  0
  188.8240  177.6980  147.7650 C   0  0  2  0  0  3  0  0  0  0  0  0
  189.6060  176.3940  147.8930 C   0  0  0  0  0  2  0  0  0  0  0  0
  187.6970  177.6450  148.5840 O   0  0  0  0  0  1  0  0  0  0  0  0
  190.4270  176.6590  145.5260 C   0  0  1  0  0  3  0  0  0  0  0  0
  191.7390  177.3820  147.4270 O   0  0  0  0  0  1  0  0  0  0  0  0
  188.3930  177.9080  146.3200 C   0  0  0  0  0  2  0  0  0  0  0  0
  190.8340  176.4110  146.9860 C   0  0  1  0  0  3  0  0  0  0  0  0
  189.6070  177.9570  145.3920 C   0  0  2  0  0  3  0  0  0  0  0  0
  191.6720  176.6680  144.6400 C   0  0  0  0  0  2  0  0  0  0  0  0
  191.8460  175.3370  143.9280 C   0  0  0  0  0  2  0  0  0  0  0  0
  190.7590  175.0890  143.1110 F   0  0  0  0  0  0  0  0  0  0  0  0
  187.8550  178.7410  141.3590 C   0  0  0  0  0  2  0  0  0  0  0  0
  188.5480  177.8610  140.3280 C   0  0  1  0  0  3  0  0  0  0  0  0
  187.7070  177.8920  137.7180 S   0  0  0  0  0  1  0  0  0  0  0  0
  188.7240  178.6320  139.0300 C   0  0  0  0  0  2  0  0  0  0  0  0
  189.9080  177.4230  140.8550 C   0  0  0  0  0  2  0  0  0  0  0  0
  190.8500  177.0850  139.7110 C   0  0  0  0  0  2  0  0  0  0  0  0
  192.1300  177.5120  140.0100 F   0  0  0  0  0  0  0  0  0  0  0  0
  1 24  1  1  0  0  0
  1 11  1  0  0  0  0
  2  1  1  6  0  0  0
  2  9  1  0  0  0  0
  3  2  1  0  0  0  0
  4  3  1  0  0  0  0
  4  7  1  0  0  0  0
  6  3  2  0  0  0  0
  7  5  1  0  0  0  0
  9  5  1  0  0  0  0
  9  8  1  1  0  0  0
 11 10  2  6  0  0  0
 11 12  1  0  0  0  0
 13 14  1  0  0  0  0
 13 15  1  1  0  0  0
 16 21  1  6  0  0  0
 16 19  1  0  0  0  0
 18 13  1  0  0  0  0
 19 17  1  1  0  0  0
 19 14  1  0  0  0  0
 20 12  1  6  0  0  0
 20 16  1  0  0  0  0
 20 18  1  0  0  0  0
 22 21  1  0  0  0  0
 23 22  1  0  0  0  0
 25 27  1  6  0  0  0
 25 28  1  0  0  0  0
 25 24  1  0  0  0  0
 26 27  1  0  0  0  0
 29 30  1  0  0  0  0
 29 28  1  0  0  0  0
M  END
>  <MODEL>
2

>  <REMARK>
 VINA RESULT:      -6.5      2.652      5.532
  Name = 
  11 active torsions:
  status: ('A' for Active; 'I' for Inactive)
    1  A    between atoms: C_3  and  C_11
    2  A    between atoms: C_3  and  C_19
    3  A    between atoms: S_4  and  C_13
    4  A    between atoms: S_4  and  C_23
    5  A    between atoms: C_5  and  C_9
    6  A    between atoms: C_6  and  C_8
    7  A    between atoms: C_6  and  C_9
    8  A    between atoms: C_6  and  C_21
    9  A    between atoms: C_7  and  C_13
   10  A    between atoms: C_8  and  C_13
   11  A    between atoms: C_23  and  C_29
                            x       y       z     vdW  Elec       q    Type
                         _______ _______ _______ _____ _____    ______ ____

>  <TORSDO>
F 11

$$$$
=
 OpenBabel11052412263D

 30 31  0  0  1  0  0  0  0  0999 V2000
  187.9460  178.2550  141.7560 C   0  0  2  0  0  3  0  0  0  0  0  0
  188.5570  177.5560  140.5240 C   0  0  1  0  0  3  0  0  0  0  0  0
  188.0040  178.1480  139.2580 C   0  0  0  0  0  0  0  0  0  0  0  0
  188.9260  178.7350  138.2420 C   0  0  0  0  0  2  0  0  0  0  0  0
  190.7100  176.6580  138.9840 S   0  0  0  0  0  0  0  0  0  0  0  0
  186.8020  178.1230  139.0430 O   0  0  0  0  0  0  0  0  0  0  0  0
  189.8560  177.6610  137.7000 C   0  0  0  0  0  2  0  0  0  0  0  0
  190.6350  176.7210  141.6900 C   0  0  0  0  0  1  0  0  0  0  0  0
  190.0980  177.4920  140.4970 C   0  0  2  0  0  3  0  0  0  0  0  0
  188.0420  175.8200  142.8420 O   0  0  0  0  0  0  0  0  0  0  0  0
  187.8250  177.2620  143.2830 S   0  0  1  0  0  0  0  0  0  0  0  0
  189.2790  177.6460  144.2760 C   0  0  0  0  0  2  0  0  0  0  0  0
  186.8980  178.3440  147.2080 C   0  0  2  0  0  3  0  0  0  0  0  0
  187.4900  177.3560  148.2100 C   0  0  0  0  0  2  0  0  0  0  0  0
  185.5070  178.2950  147.2740 O   0  0  0  0  0  1  0  0  0  0  0  0
  189.4970  177.0510  146.7180 C   0  0  1  0  0  3  0  0  0  0  0  0
  189.5030  178.6050  148.5740 O   0  0  0  0  0  1  0  0  0  0  0  0
  187.3530  177.9910  145.7980 C   0  0  0  0  0  2  0  0  0  0  0  0
  189.0160  177.3670  148.1420 C   0  0  1  0  0  3  0  0  0  0  0  0
  188.8780  178.0220  145.6950 C   0  0  2  0  0  3  0  0  0  0  0  0
  191.0250  177.0640  146.6780 C   0  0  0  0  0  2  0  0  0  0  0  0
  191.6020  175.8900  147.4490 C   0  0  0  0  0  2  0  0  0  0  0  0
  192.4790  175.1810  146.6490 F   0  0  0  0  0  0  0  0  0  0  0  0
  186.6190  178.9210  141.4180 C   0  0  0  0  0  2  0  0  0  0  0  0
  185.5130  178.4400  142.3460 C   0  0  1  0  0  3  0  0  0  0  0  0
  183.6680  179.0580  144.2790 S   0  0  0  0  0  1  0  0  0  0  0  0
  185.0800  179.5760  143.2590 C   0  0  0  0  0  2  0  0  0  0  0  0
  184.3240  177.9580  141.5260 C   0  0  0  0  0  2  0  0  0  0  0  0
  183.9070  179.0070  140.5080 C   0  0  0  0  0  2  0  0  0  0  0  0
  182.5290  179.0440  140.4040 F   0  0  0  0  0  0  0  0  0  0  0  0
  1 24  1  6  0  0  0
  1 11  1  0  0  0  0
  2  1  1  1  0  0  0
  3  2  1  0  0  0  0
  4  3  1  0  0  0  0
  5  9  1  0  0  0  0
  6  3  2  0  0  0  0
  7  4  1  0  0  0  0
  7  5  1  0  0  0  0
  9  2  1  0  0  0  0
  9  8  1  1  0  0  0
 11 10  2  6  0  0  0
 11 12  1  0  0  0  0
 13 15  1  6  0  0  0
 13 14  1  0  0  0  0
 16 21  1  1  0  0  0
 16 19  1  0  0  0  0
 18 13  1  0  0  0  0
 19 14  1  0  0  0  0
 19 17  1  6  0  0  0
 20 12  1  6  0  0  0
 20 18  1  0  0  0  0
 20 16  1  0  0  0  0
 21 22  1  0  0  0  0
 23 22  1  0  0  0  0
 25 24  1  6  0  0  0
 25 27  1  0  0  0  0
 27 26  1  0  0  0  0
 28 25  1  0  0  0  0
 29 28  1  0  0  0  0
 30 29  1  0  0  0  0
M  END
>  <MODEL>
3

>  <REMARK>
 VINA RESULT:      -6.4      2.581      5.256
  Name = 
  11 active torsions:
  status: ('A' for Active; 'I' for Inactive)
    1  A    between atoms: C_3  and  C_11
    2  A    between atoms: C_3  and  C_19
    3  A    between atoms: S_4  and  C_13
    4  A    between atoms: S_4  and  C_23
    5  A    between atoms: C_5  and  C_9
    6  A    between atoms: C_6  and  C_8
    7  A    between atoms: C_6  and  C_9
    8  A    between atoms: C_6  and  C_21
    9  A    between atoms: C_7  and  C_13
   10  A    between atoms: C_8  and  C_13
   11  A    between atoms: C_23  and  C_29
                            x       y       z     vdW  Elec       q    Type
                         _______ _______ _______ _____ _____    ______ ____

>  <TORSDO>
F 11

$$$$
=
 OpenBabel11052412263D

 30 31  0  0  1  0  0  0  0  0999 V2000
  182.9320  178.9190  140.8130 C   0  0  2  0  0  3  0  0  0  0  0  0
  181.7980  178.4830  139.8620 C   0  0  1  0  0  3  0  0  0  0  0  0
  181.2130  179.6780  139.1640 C   0  0  0  0  0  0  0  0  0  0  0  0
  181.2000  179.7410  137.6730 C   0  0  0  0  0  2  0  0  0  0  0  0
  180.7510  176.9420  137.7790 S   0  0  0  0  0  0  0  0  0  0  0  0
  180.7180  180.5870  139.8120 O   0  0  0  0  0  0  0  0  0  0  0  0
  180.3540  178.6090  137.1110 C   0  0  0  0  0  2  0  0  0  0  0  0
  182.5730  176.0960  139.5940 C   0  0  0  0  0  1  0  0  0  0  0  0
  182.1650  177.3640  138.8670 C   0  0  2  0  0  3  0  0  0  0  0  0
  184.8470  179.8970  139.2340 O   0  0  0  0  0  0  0  0  0  0  0  0
  184.6380  178.7310  140.1910 S   0  0  1  0  0  0  0  0  0  0  0  0
  185.7420  179.0840  141.5710 C   0  0  0  0  0  2  0  0  0  0  0  0
  189.0800  177.4820  140.5480 C   0  0  2  0  0  3  0  0  0  0  0  0
  189.7640  177.5130  141.9110 C   0  0  0  0  0  2  0  0  0  0  0  0
  189.9930  177.8480  139.5610 O   0  0  0  0  0  1  0  0  0  0  0  0
  187.5640  178.0800  142.9990 C   0  0  1  0  0  3  0  0  0  0  0  0
  188.3870  175.8070  142.8780 O   0  0  0  0  0  1  0  0  0  0  0  0
  187.9020  178.4470  140.5330 C   0  0  0  0  0  2  0  0  0  0  0  0
  188.7800  177.1420  143.0180 C   0  0  1  0  0  3  0  0  0  0  0  0
  186.8860  178.0810  141.6160 C   0  0  2  0  0  3  0  0  0  0  0  0
  186.5970  177.6900  144.1170 C   0  0  0  0  0  2  0  0  0  0  0  0
  187.2410  177.8650  145.4820 C   0  0  0  0  0  2  0  0  0  0  0  0
  186.5150  177.1840  146.4410 F   0  0  0  0  0  0  0  0  0  0  0  0
  182.7710  178.2980  142.1940 C   0  0  0  0  0  2  0  0  0  0  0  0
  182.1130  179.2730  143.1610 C   0  0  1  0  0  3  0  0  0  0  0  0
  179.4050  179.5230  143.5100 S   0  0  0  0  0  1  0  0  0  0  0  0
  180.9350  178.6010  143.8450 C   0  0  0  0  0  2  0  0  0  0  0  0
  183.1260  179.7260  144.2040 C   0  0  0  0  0  2  0  0  0  0  0  0
  183.4270  178.6070  145.1870 C   0  0  0  0  0  2  0  0  0  0  0  0
  184.3000  179.0550  146.1610 F   0  0  0  0  0  0  0  0  0  0  0  0
  1 24  1  1  0  0  0
  2  1  1  6  0  0  0
  3  6  2  0  0  0  0
  3  2  1  0  0  0  0
  4  3  1  0  0  0  0
  5  9  1  0  0  0  0
  7  4  1  0  0  0  0
  7  5  1  0  0  0  0
  9  8  1  1  0  0  0
  9  2  1  0  0  0  0
 11 10  2  6  0  0  0
 11  1  1  0  0  0  0
 11 12  1  0  0  0  0
 13 15  1  6  0  0  0
 13 14  1  0  0  0  0
 14 19  1  0  0  0  0
 16 19  1  0  0  0  0
 16 21  1  1  0  0  0
 18 13  1  0  0  0  0
 18 20  1  0  0  0  0
 19 17  1  6  0  0  0
 20 12  1  1  0  0  0
 20 16  1  0  0  0  0
 21 22  1  0  0  0  0
 22 23  1  0  0  0  0
 25 24  1  6  0  0  0
 25 27  1  0  0  0  0
 25 28  1  0  0  0  0
 26 27  1  0  0  0  0
 28 29  1  0  0  0  0
 29 30  1  0  0  0  0
M  END
>  <MODEL>
4

>  <REMARK>
 VINA RESULT:      -6.1      3.850      8.396
  Name = 
  11 active torsions:
  status: ('A' for Active; 'I' for Inactive)
    1  A    between atoms: C_3  and  C_11
    2  A    between atoms: C_3  and  C_19
    3  A    between atoms: S_4  and  C_13
    4  A    between atoms: S_4  and  C_23
    5  A    between atoms: C_5  and  C_9
    6  A    between atoms: C_6  and  C_8
    7  A    between atoms: C_6  and  C_9
    8  A    between atoms: C_6  and  C_21
    9  A    between atoms: C_7  and  C_13
   10  A    between atoms: C_8  and  C_13
   11  A    between atoms: C_23  and  C_29
                            x       y       z     vdW  Elec       q    Type
                         _______ _______ _______ _____ _____    ______ ____

>  <TORSDO>
F 11

$$$$
=
 OpenBabel11052412263D

 30 31  0  0  1  0  0  0  0  0999 V2000
  182.5340  178.6630  139.8770 C   0  0  2  0  0  3  0  0  0  0  0  0
  181.9460  177.8500  138.7060 C   0  0  1  0  0  3  0  0  0  0  0  0
  181.8650  176.3940  139.0680 C   0  0  0  0  0  0  0  0  0  0  0  0
  180.5530  175.6840  139.0210 C   0  0  0  0  0  2  0  0  0  0  0  0
  179.9970  177.3220  136.7730 S   0  0  0  0  0  0  0  0  0  0  0  0
  182.8750  175.7790  139.3720 O   0  0  0  0  0  0  0  0  0  0  0  0
  180.0140  175.6790  137.6000 C   0  0  0  0  0  2  0  0  0  0  0  0
  180.7550  179.7850  137.6060 C   0  0  0  0  0  1  0  0  0  0  0  0
  180.6080  178.3730  138.1460 C   0  0  2  0  0  3  0  0  0  0  0  0
  184.5650  180.2740  139.2460 O   0  0  0  0  0  0  0  0  0  0  0  0
  184.3440  178.9050  139.8760 S   0  0  1  0  0  0  0  0  0  0  0  0
  184.8470  179.1190  141.5930 C   0  0  0  0  0  2  0  0  0  0  0  0
  188.3950  177.6890  141.2500 C   0  0  2  0  0  3  0  0  0  0  0  0
  188.8690  177.9360  142.6800 C   0  0  0  0  0  2  0  0  0  0  0  0
  189.4180  178.0120  140.3590 O   0  0  0  0  0  1  0  0  0  0  0  0
  186.5010  178.4430  143.3740 C   0  0  1  0  0  3  0  0  0  0  0  0
  187.4790  176.2470  143.6580 O   0  0  0  0  0  1  0  0  0  0  0  0
  187.1720  178.5460  140.9520 C   0  0  0  0  0  2  0  0  0  0  0  0
  187.7600  177.6170  143.6790 C   0  0  1  0  0  3  0  0  0  0  0  0
  186.0340  178.2270  141.9220 C   0  0  2  0  0  3  0  0  0  0  0  0
  185.4090  178.1080  144.3900 C   0  0  0  0  0  2  0  0  0  0  0  0
  185.6830  178.7750  145.7270 C   0  0  0  0  0  2  0  0  0  0  0  0
  186.3020  177.8850  146.5840 F   0  0  0  0  0  0  0  0  0  0  0  0
  182.0430  178.1410  141.2210 C   0  0  0  0  0  2  0  0  0  0  0  0
  181.2770  179.2160  141.9790 C   0  0  1  0  0  3  0  0  0  0  0  0
  179.3470  180.9270  141.0490 S   0  0  0  0  0  1  0  0  0  0  0  0
  179.8300  179.2390  141.5140 C   0  0  0  0  0  2  0  0  0  0  0  0
  181.3330  178.9320  143.4740 C   0  0  0  0  0  2  0  0  0  0  0  0
  179.9550  178.5770  144.0100 C   0  0  0  0  0  2  0  0  0  0  0  0
  179.9440  177.2690  144.4580 F   0  0  0  0  0  0  0  0  0  0  0  0
  1 24  1  1  0  0  0
  2  3  1  0  0  0  0
  2  1  1  1  0  0  0
  3  6  2  0  0  0  0
  4  3  1  0  0  0  0
  5  7  1  0  0  0  0
  5  9  1  0  0  0  0
  7  4  1  0  0  0  0
  9  8  1  6  0  0  0
  9  2  1  0  0  0  0
 11 10  2  6  0  0  0
 11  1  1  0  0  0  0
 11 12  1  0  0  0  0
 13 15  1  6  0  0  0
 13 14  1  0  0  0  0
 14 19  1  0  0  0  0
 16 19  1  0  0  0  0
 16 21  1  1  0  0  0
 18 13  1  0  0  0  0
 18 20  1  0  0  0  0
 19 17  1  6  0  0  0
 20 12  1  6  0  0  0
 20 16  1  0  0  0  0
 21 22  1  0  0  0  0
 22 23  1  0  0  0  0
 25 24  1  6  0  0  0
 25 28  1  0  0  0  0
 26 27  1  0  0  0  0
 27 25  1  0  0  0  0
 28 29  1  0  0  0  0
 29 30  1  0  0  0  0
M  END
>  <MODEL>
5

>  <REMARK>
 VINA RESULT:      -5.9      4.609      8.535
  Name = 
  11 active torsions:
  status: ('A' for Active; 'I' for Inactive)
    1  A    between atoms: C_3  and  C_11
    2  A    between atoms: C_3  and  C_19
    3  A    between atoms: S_4  and  C_13
    4  A    between atoms: S_4  and  C_23
    5  A    between atoms: C_5  and  C_9
    6  A    between atoms: C_6  and  C_8
    7  A    between atoms: C_6  and  C_9
    8  A    between atoms: C_6  and  C_21
    9  A    between atoms: C_7  and  C_13
   10  A    between atoms: C_8  and  C_13
   11  A    between atoms: C_23  and  C_29
                            x       y       z     vdW  Elec       q    Type
                         _______ _______ _______ _____ _____    ______ ____

>  <TORSDO>
F 11

$$$$
=
 OpenBabel11052412263D

 30 31  0  0  1  0  0  0  0  0999 V2000
  187.9010  178.2600  141.2550 C   0  0  2  0  0  3  0  0  0  0  0  0
  188.5110  177.5490  140.0290 C   0  0  1  0  0  3  0  0  0  0  0  0
  187.7240  177.8740  138.7910 C   0  0  0  0  0  0  0  0  0  0  0  0
  188.4020  178.5010  137.6180 C   0  0  0  0  0  2  0  0  0  0  0  0
  190.6310  176.8970  138.3290 S   0  0  0  0  0  0  0  0  0  0  0  0
  186.5360  177.5990  138.7270 O   0  0  0  0  0  0  0  0  0  0  0  0
  189.4670  177.5650  137.0710 C   0  0  0  0  0  2  0  0  0  0  0  0
  190.8200  177.2610  141.0050 C   0  0  0  0  0  1  0  0  0  0  0  0
  190.0220  177.7730  139.8200 C   0  0  2  0  0  3  0  0  0  0  0  0
  188.5720  175.9980  142.5020 O   0  0  0  0  0  0  0  0  0  0  0  0
  187.9110  177.3310  142.8270 S   0  0  1  0  0  0  0  0  0  0  0  0
  189.0850  178.1560  143.9170 C   0  0  0  0  0  2  0  0  0  0  0  0
  190.8230  176.6880  147.0120 C   0  0  2  0  0  3  0  0  0  0  0  0
  189.9990  177.3980  148.0820 C   0  0  0  0  0  2  0  0  0  0  0  0
  192.1670  176.6920  147.3810 O   0  0  0  0  0  1  0  0  0  0  0  0
  188.3390  178.1120  146.3270 C   0  0  1  0  0  3  0  0  0  0  0  0
  188.0020  176.1360  147.6830 O   0  0  0  0  0  1  0  0  0  0  0  0
  190.6610  177.3980  145.6740 C   0  0  0  0  0  2  0  0  0  0  0  0
  188.5230  177.4330  147.6920 C   0  0  1  0  0  3  0  0  0  0  0  0
  189.1930  177.4230  145.2460 C   0  0  2  0  0  3  0  0  0  0  0  0
  186.8550  178.1370  145.9630 C   0  0  0  0  0  2  0  0  0  0  0  0
  186.0450  178.8640  147.0220 C   0  0  0  0  0  2  0  0  0  0  0  0
  184.8190  178.2460  147.1900 F   0  0  0  0  0  0  0  0  0  0  0  0
  186.5180  178.8170  140.9460 C   0  0  0  0  0  2  0  0  0  0  0  0
  185.5120  178.4090  142.0130 C   0  0  1  0  0  3  0  0  0  0  0  0
  183.7960  179.2250  143.9900 S   0  0  0  0  0  1  0  0  0  0  0  0
  185.2150  179.5940  142.9170 C   0  0  0  0  0  2  0  0  0  0  0  0
  184.2260  177.9300  141.3520 C   0  0  0  0  0  2  0  0  0  0  0  0
  183.7620  178.9150  140.2920 C   0  0  0  0  0  2  0  0  0  0  0  0
  183.2610  178.2330  139.1990 F   0  0  0  0  0  0  0  0  0  0  0  0
  1 24  1  6  0  0  0
  1 11  1  0  0  0  0
  2  1  1  1  0  0  0
  3  2  1  0  0  0  0
  4  3  1  0  0  0  0
  5  9  1  0  0  0  0
  6  3  2  0  0  0  0
  7  4  1  0  0  0  0
  7  5  1  0  0  0  0
  9  2  1  0  0  0  0
  9  8  1  1  0  0  0
 11 10  2  6  0  0  0
 11 12  1  0  0  0  0
 13 15  1  1  0  0  0
 13 14  1  0  0  0  0
 16 21  1  6  0  0  0
 16 19  1  0  0  0  0
 18 13  1  0  0  0  0
 19 17  1  6  0  0  0
 19 14  1  0  0  0  0
 20 12  1  6  0  0  0
 20 18  1  0  0  0  0
 20 16  1  0  0  0  0
 21 22  1  0  0  0  0
 22 23  1  0  0  0  0
 25 24  1  6  0  0  0
 25 27  1  0  0  0  0
 27 26  1  0  0  0  0
 28 25  1  0  0  0  0
 29 28  1  0  0  0  0
 30 29  1  0  0  0  0
M  END
>  <MODEL>
6

>  <REMARK>
 VINA RESULT:      -5.8      2.684      5.715
  Name = 
  11 active torsions:
  status: ('A' for Active; 'I' for Inactive)
    1  A    between atoms: C_3  and  C_11
    2  A    between atoms: C_3  and  C_19
    3  A    between atoms: S_4  and  C_13
    4  A    between atoms: S_4  and  C_23
    5  A    between atoms: C_5  and  C_9
    6  A    between atoms: C_6  and  C_8
    7  A    between atoms: C_6  and  C_9
    8  A    between atoms: C_6  and  C_21
    9  A    between atoms: C_7  and  C_13
   10  A    between atoms: C_8  and  C_13
   11  A    between atoms: C_23  and  C_29
                            x       y       z     vdW  Elec       q    Type
                         _______ _______ _______ _____ _____    ______ ____

>  <TORSDO>
F 11

$$$$
=
 OpenBabel11052412263D

 30 31  0  0  1  0  0  0  0  0999 V2000
  187.5420  177.7540  143.0450 C   0  0  2  0  0  3  0  0  0  0  0  0
  186.0480  177.7990  143.4300 C   0  0  1  0  0  3  0  0  0  0  0  0
  185.8950  177.8530  144.9240 C   0  0  0  0  0  0  0  0  0  0  0  0
  185.1500  178.9810  145.5580 C   0  0  0  0  0  2  0  0  0  0  0  0
  183.4690  178.8630  143.2760 S   0  0  0  0  0  0  0  0  0  0  0  0
  186.3500  176.9610  145.6210 O   0  0  0  0  0  0  0  0  0  0  0  0
  183.7010  178.9730  145.0980 C   0  0  0  0  0  2  0  0  0  0  0  0
  185.2280  178.7110  141.2240 C   0  0  0  0  0  1  0  0  0  0  0  0
  185.2190  178.8940  142.7310 C   0  0  2  0  0  3  0  0  0  0  0  0
  188.8750  179.5860  141.6360 O   0  0  0  0  0  0  0  0  0  0  0  0
  187.9770  178.3810  141.3870 S   0  0  1  0  0  0  0  0  0  0  0  0
  189.0690  177.1610  140.6340 C   0  0  0  0  0  2  0  0  0  0  0  0
  187.5780  178.1440  137.2330 C   0  0  2  0  0  3  0  0  0  0  0  0
  188.8850  178.3550  136.4740 C   0  0  0  0  0  2  0  0  0  0  0  0
  186.6780  179.1540  136.8990 O   0  0  0  0  0  1  0  0  0  0  0  0
  190.1510  177.2590  138.3570 C   0  0  1  0  0  3  0  0  0  0  0  0
  189.4590  176.0300  136.3900 O   0  0  0  0  0  1  0  0  0  0  0  0
  187.8360  178.1700  138.7340 C   0  0  0  0  0  2  0  0  0  0  0  0
  189.9020  177.2770  136.8410 C   0  0  1  0  0  3  0  0  0  0  0  0
  188.8330  177.0800  139.1330 C   0  0  2  0  0  3  0  0  0  0  0  0
  191.1740  176.1760  138.6960 C   0  0  0  0  0  2  0  0  0  0  0  0
  192.5840  176.6320  138.3620 C   0  0  0  0  0  2  0  0  0  0  0  0
  193.4860  175.6170  138.6220 F   0  0  0  0  0  0  0  0  0  0  0  0
  188.1410  176.3770  143.2960 C   0  0  0  0  0  2  0  0  0  0  0  0
  189.3570  176.4660  144.2080 C   0  0  1  0  0  3  0  0  0  0  0  0
  191.6570  177.5340  143.1660 S   0  0  0  0  0  1  0  0  0  0  0  0
  190.6070  176.0770  143.4370 C   0  0  0  0  0  2  0  0  0  0  0  0
  189.5000  177.8870  144.7380 C   0  0  0  0  0  2  0  0  0  0  0  0
  189.4670  177.9040  146.2570 C   0  0  0  0  0  2  0  0  0  0  0  0
  189.3970  176.6120  146.7440 F   0  0  0  0  0  0  0  0  0  0  0  0
  1 24  1  6  0  0  0
  2  1  1  1  0  0  0
  2  3  1  0  0  0  0
  3  4  1  0  0  0  0
  3  6  2  0  0  0  0
  5  7  1  0  0  0  0
  7  4  1  0  0  0  0
  9  8  1  6  0  0  0
  9  5  1  0  0  0  0
  9  2  1  0  0  0  0
 11 10  2  1  0  0  0
 11  1  1  0  0  0  0
 12 11  1  0  0  0  0
 13 15  1  1  0  0  0
 13 18  1  0  0  0  0
 14 19  1  0  0  0  0
 14 13  1  0  0  0  0
 16 21  1  6  0  0  0
 16 20  1  0  0  0  0
 18 20  1  0  0  0  0
 19 17  1  1  0  0  0
 19 16  1  0  0  0  0
 20 12  1  1  0  0  0
 22 23  1  0  0  0  0
 22 21  1  0  0  0  0
 25 24  1  6  0  0  0
 25 28  1  0  0  0  0
 26 27  1  0  0  0  0
 27 25  1  0  0  0  0
 28 29  1  0  0  0  0
 29 30  1  0  0  0  0
M  END
>  <MODEL>
7

>  <REMARK>
 VINA RESULT:      -5.7      2.324      7.161
  Name = 
  11 active torsions:
  status: ('A' for Active; 'I' for Inactive)
    1  A    between atoms: C_3  and  C_11
    2  A    between atoms: C_3  and  C_19
    3  A    between atoms: S_4  and  C_13
    4  A    between atoms: S_4  and  C_23
    5  A    between atoms: C_5  and  C_9
    6  A    between atoms: C_6  and  C_8
    7  A    between atoms: C_6  and  C_9
    8  A    between atoms: C_6  and  C_21
    9  A    between atoms: C_7  and  C_13
   10  A    between atoms: C_8  and  C_13
   11  A    between atoms: C_23  and  C_29
                            x       y       z     vdW  Elec       q    Type
                         _______ _______ _______ _____ _____    ______ ____

>  <TORSDO>
F 11

$$$$
=
 OpenBabel11052412263D

 30 31  0  0  1  0  0  0  0  0999 V2000
  187.4670  177.7640  143.2340 C   0  0  2  0  0  3  0  0  0  0  0  0
  185.9990  177.8020  143.7050 C   0  0  1  0  0  3  0  0  0  0  0  0
  185.9320  177.9060  145.2020 C   0  0  0  0  0  0  0  0  0  0  0  0
  185.2100  179.0450  145.8410 C   0  0  0  0  0  2  0  0  0  0  0  0
  183.3990  178.8270  143.6690 S   0  0  0  0  0  0  0  0  0  0  0  0
  186.4410  177.0440  145.9010 O   0  0  0  0  0  0  0  0  0  0  0  0
  183.7370  179.0030  145.4690 C   0  0  0  0  0  2  0  0  0  0  0  0
  185.0360  178.6270  141.5220 C   0  0  0  0  0  1  0  0  0  0  0  0
  185.1120  178.8620  143.0200 C   0  0  2  0  0  3  0  0  0  0  0  0
  189.0780  179.2600  141.7220 O   0  0  0  0  0  0  0  0  0  0  0  0
  187.8090  178.4330  141.5690 S   0  0  1  0  0  0  0  0  0  0  0  0
  188.3050  177.0420  140.5360 C   0  0  0  0  0  2  0  0  0  0  0  0
  191.0650  177.1280  137.8660 C   0  0  2  0  0  3  0  0  0  0  0  0
  190.1800  176.9750  136.6320 C   0  0  0  0  0  2  0  0  0  0  0  0
  192.2060  176.3400  137.7190 O   0  0  0  0  0  1  0  0  0  0  0  0
  188.1400  177.4100  138.0460 C   0  0  1  0  0  3  0  0  0  0  0  0
  189.2250  179.1680  136.7850 O   0  0  0  0  0  1  0  0  0  0  0  0
  190.3030  176.6920  139.1110 C   0  0  0  0  0  2  0  0  0  0  0  0
  188.9070  177.8060  136.7750 C   0  0  1  0  0  3  0  0  0  0  0  0
  189.0360  177.5280  139.2930 C   0  0  2  0  0  3  0  0  0  0  0  0
  186.8700  178.2530  138.1630 C   0  0  0  0  0  2  0  0  0  0  0  0
  185.7060  177.5890  137.4480 C   0  0  0  0  0  2  0  0  0  0  0  0
  184.6740  177.3540  138.3380 F   0  0  0  0  0  0  0  0  0  0  0  0
  188.0750  176.3800  143.4130 C   0  0  0  0  0  2  0  0  0  0  0  0
  189.4020  176.4560  144.1550 C   0  0  1  0  0  3  0  0  0  0  0  0
  191.6800  177.5020  143.0440 S   0  0  0  0  0  1  0  0  0  0  0  0
  190.5380  176.0990  143.2100 C   0  0  0  0  0  2  0  0  0  0  0  0
  189.6080  177.8630  144.7000 C   0  0  0  0  0  2  0  0  0  0  0  0
  189.8060  177.8360  146.2060 C   0  0  0  0  0  2  0  0  0  0  0  0
  189.2890  176.6670  146.7310 F   0  0  0  0  0  0  0  0  0  0  0  0
  1 24  1  6  0  0  0
  2  1  1  6  0  0  0
  2  3  1  0  0  0  0
  3  4  1  0  0  0  0
  3  6  2  0  0  0  0
  5  7  1  0  0  0  0
  7  4  1  0  0  0  0
  9  8  1  6  0  0  0
  9  5  1  0  0  0  0
  9  2  1  0  0  0  0
 11 10  2  1  0  0  0
 11  1  1  0  0  0  0
 12 11  1  0  0  0  0
 13 15  1  6  0  0  0
 13 18  1  0  0  0  0
 14 19  1  0  0  0  0
 14 13  1  0  0  0  0
 16 21  1  1  0  0  0
 16 20  1  0  0  0  0
 18 20  1  0  0  0  0
 19 17  1  1  0  0  0
 19 16  1  0  0  0  0
 20 12  1  1  0  0  0
 22 21  1  0  0  0  0
 22 23  1  0  0  0  0
 24 25  1  0  0  0  0
 25 27  1  6  0  0  0
 25 28  1  0  0  0  0
 26 27  1  0  0  0  0
 28 29  1  0  0  0  0
 29 30  1  0  0  0  0
M  END
>  <MODEL>
8

>  <REMARK>
 VINA RESULT:      -5.5      2.449      7.334
  Name = 
  11 active torsions:
  status: ('A' for Active; 'I' for Inactive)
    1  A    between atoms: C_3  and  C_11
    2  A    between atoms: C_3  and  C_19
    3  A    between atoms: S_4  and  C_13
    4  A    between atoms: S_4  and  C_23
    5  A    between atoms: C_5  and  C_9
    6  A    between atoms: C_6  and  C_8
    7  A    between atoms: C_6  and  C_9
    8  A    between atoms: C_6  and  C_21
    9  A    between atoms: C_7  and  C_13
   10  A    between atoms: C_8  and  C_13
   11  A    between atoms: C_23  and  C_29
                            x       y       z     vdW  Elec       q    Type
                         _______ _______ _______ _____ _____    ______ ____

>  <TORSDO>
F 11

$$$$
=
 OpenBabel11052412263D

 30 31  0  0  1  0  0  0  0  0999 V2000
  182.2340  179.0120  140.3630 C   0  0  2  0  0  3  0  0  0  0  0  0
  181.4380  179.3180  139.0780 C   0  0  1  0  0  3  0  0  0  0  0  0
  180.9890  180.7520  139.0700 C   0  0  0  0  0  0  0  0  0  0  0  0
  181.3830  181.6520  137.9470 C   0  0  0  0  0  2  0  0  0  0  0  0
  181.1100  179.3560  136.3030 S   0  0  0  0  0  0  0  0  0  0  0  0
  180.2750  181.1770  139.9640 O   0  0  0  0  0  0  0  0  0  0  0  0
  180.8030  181.1390  136.6380 C   0  0  0  0  0  2  0  0  0  0  0  0
  182.4150  177.4410  137.7020 C   0  0  0  0  0  1  0  0  0  0  0  0
  182.1390  178.9320  137.7600 C   0  0  2  0  0  3  0  0  0  0  0  0
  184.4750  180.1210  139.4310 O   0  0  0  0  0  0  0  0  0  0  0  0
  184.0460  178.8710  140.1880 S   0  0  1  0  0  0  0  0  0  0  0  0
  184.7510  179.0840  141.8330 C   0  0  0  0  0  2  0  0  0  0  0  0
  188.2980  177.7870  141.1370 C   0  0  2  0  0  3  0  0  0  0  0  0
  188.8680  177.9430  142.5430 C   0  0  0  0  0  2  0  0  0  0  0  0
  189.2450  178.2020  140.2020 O   0  0  0  0  0  1  0  0  0  0  0  0
  186.5450  178.3300  143.4380 C   0  0  1  0  0  3  0  0  0  0  0  0
  187.5930  176.1480  143.4890 O   0  0  0  0  0  1  0  0  0  0  0  0
  187.0360  178.6270  140.9890 C   0  0  0  0  0  2  0  0  0  0  0  0
  187.8420  177.5210  143.5920 C   0  0  1  0  0  3  0  0  0  0  0  0
  185.9800  178.2050  142.0110 C   0  0  2  0  0  3  0  0  0  0  0  0
  185.5380  177.8910  144.5000 C   0  0  0  0  0  2  0  0  0  0  0  0
  185.9740  178.3360  145.8850 C   0  0  0  0  0  2  0  0  0  0  0  0
  184.9160  178.2420  146.7700 F   0  0  0  0  0  0  0  0  0  0  0  0
  181.6520  177.8190  141.1090 C   0  0  0  0  0  2  0  0  0  0  0  0
  180.2570  178.1280  141.6330 C   0  0  1  0  0  3  0  0  0  0  0  0
  180.1600  175.7900  140.2040 S   0  0  0  0  0  1  0  0  0  0  0  0
  179.2990  177.0210  141.2270 C   0  0  0  0  0  2  0  0  0  0  0  0
  180.2910  178.2480  143.1510 C   0  0  0  0  0  2  0  0  0  0  0  0
  181.3780  179.2140  143.5940 C   0  0  0  0  0  2  0  0  0  0  0  0
  182.3720  178.5310  144.2690 F   0  0  0  0  0  0  0  0  0  0  0  0
  1 24  1  6  0  0  0
  2  1  1  1  0  0  0
  3  2  1  0  0  0  0
  3  6  2  0  0  0  0
  4  3  1  0  0  0  0
  5  7  1  0  0  0  0
  5  9  1  0  0  0  0
  7  4  1  0  0  0  0
  9  8  1  1  0  0  0
  9  2  1  0  0  0  0
 11 10  2  6  0  0  0
 11  1  1  0  0  0  0
 11 12  1  0  0  0  0
 13 15  1  6  0  0  0
 13 14  1  0  0  0  0
 14 19  1  0  0  0  0
 16 19  1  0  0  0  0
 16 21  1  1  0  0  0
 18 13  1  0  0  0  0
 18 20  1  0  0  0  0
 19 17  1  6  0  0  0
 20 12  1  1  0  0  0
 20 16  1  0  0  0  0
 21 22  1  0  0  0  0
 22 23  1  0  0  0  0
 25 24  1  1  0  0  0
 25 28  1  0  0  0  0
 26 27  1  0  0  0  0
 27 25  1  0  0  0  0
 28 29  1  0  0  0  0
 29 30  1  0  0  0  0
M  END
>  <MODEL>
9

>  <REMARK>
 VINA RESULT:      -5.5      4.516      8.606
  Name = 
  11 active torsions:
  status: ('A' for Active; 'I' for Inactive)
    1  A    between atoms: C_3  and  C_11
    2  A    between atoms: C_3  and  C_19
    3  A    between atoms: S_4  and  C_13
    4  A    between atoms: S_4  and  C_23
    5  A    between atoms: C_5  and  C_9
    6  A    between atoms: C_6  and  C_8
    7  A    between atoms: C_6  and  C_9
    8  A    between atoms: C_6  and  C_21
    9  A    between atoms: C_7  and  C_13
   10  A    between atoms: C_8  and  C_13
   11  A    between atoms: C_23  and  C_29
                            x       y       z     vdW  Elec       q    Type
                         _______ _______ _______ _____ _____    ______ ____

>  <TORSDO>
F 11

$$$$
