=
 OpenBabel11052413123D

 31 35  0  0  1  0  0  0  0  0999 V2000
  190.4740  176.7950  146.3760 C   0  0  0  0  0  0  0  0  0  0  0  0
  188.0450  177.6900  143.6350 C   0  0  0  0  0  0  0  0  0  0  0  0
  186.7580  177.8150  144.2610 C   0  0  0  0  0  0  0  0  0  0  0  0
  186.1070  178.5440  146.5330 C   0  0  0  0  0  3  0  0  0  0  0  0
  189.2460  177.3410  144.3320 C   0  0  0  0  0  0  0  0  0  0  0  0
  191.6550  176.6600  145.6500 C   0  0  0  0  0  3  0  0  0  0  0  0
  186.5210  177.3940  145.6800 C   0  0  0  0  0  2  0  0  0  0  0  0
  189.3530  177.7770  141.5390 C   0  0  0  0  0  0  0  0  0  0  0  0
  190.4760  176.5960  147.7150 F   0  0  0  0  0  0  0  0  0  0  0  0
  185.7680  178.4320  142.1300 C   0  0  0  0  0  3  0  0  0  0  0  0
  184.9440  179.1690  146.3660 C   0  0  0  0  0  3  0  0  0  0  0  0
  190.5000  177.4220  142.2440 C   0  0  0  0  0  3  0  0  0  0  0  0
  188.1320  177.9180  142.2280 C   0  0  0  0  0  0  0  0  0  0  0  0
  189.2880  177.1340  145.7230 C   0  0  0  0  0  3  0  0  0  0  0  0
  183.9820  178.8640  145.2920 C   0  0  0  0  0  3  0  0  0  0  0  0
  190.4630  177.2100  143.6140 C   0  0  0  0  0  0  0  0  0  0  0  0
  191.6490  176.8690  144.2710 C   0  0  0  0  0  3  0  0  0  0  0  0
  186.9930  178.2770  141.5030 C   0  0  0  0  0  3  0  0  0  0  0  0
  185.6370  178.2250  143.4980 C   0  0  0  0  0  0  0  0  0  0  0  0
  184.2850  178.4460  144.0580 C   0  0  0  0  0  3  0  0  0  0  0  0
  190.4000  175.9650  139.4510 O   0  0  0  0  0  0  0  0  0  0  0  0
  189.8770  177.0650  139.1240 C   0  0  0  0  0  0  0  0  0  0  0  0
  189.3990  177.9830  140.1150 N   0  0  0  0  0  2  0  0  0  0  0  0
  188.8450  176.9790  134.9350 N   0  0  0  0  0  0  0  0  0  0  0  0
  190.3830  176.3640  136.8040 C   0  0  0  0  0  2  0  0  0  0  0  0
  187.7230  178.6710  138.0290 O   0  0  0  0  0  1  0  0  0  0  0  0
  188.0950  175.7280  134.9850 C   0  0  0  0  0  1  0  0  0  0  0  0
  190.2420  176.7460  135.3280 C   0  0  0  0  0  2  0  0  0  0  0  0
  188.2920  177.6380  137.2810 C   0  0  2  0  0  3  0  0  0  0  0  0
  189.7520  177.4380  137.6820 C   0  0  1  0  0  3  0  0  0  0  0  0
  188.2050  177.9860  135.7920 C   0  0  0  0  0  2  0  0  0  0  0  0
  1  9  1  0  0  0  0
  2  3  1  0  0  0  0
  2  5  1  0  0  0  0
  3  7  1  0  0  0  0
  5 14  2  0  0  0  0
  6  1  2  0  0  0  0
  7  4  1  0  0  0  0
  8 13  1  0  0  0  0
  8 12  2  0  0  0  0
 10 19  1  0  0  0  0
 11  4  2  0  0  0  0
 12 16  1  0  0  0  0
 13  2  2  0  0  0  0
 14  1  1  0  0  0  0
 15 11  1  0  0  0  0
 16 17  2  0  0  0  0
 16  5  1  0  0  0  0
 17  6  1  0  0  0  0
 18 10  2  0  0  0  0
 18 13  1  0  0  0  0
 19 20  1  0  0  0  0
 19  3  2  0  0  0  0
 20 15  2  0  0  0  0
 22 21  2  0  0  0  0
 22 23  1  0  0  0  0
 23  8  1  0  0  0  0
 24 27  1  0  0  0  0
 24 28  1  0  0  0  0
 24 31  1  0  0  0  0
 25 30  1  0  0  0  0
 28 25  1  0  0  0  0
 29 30  1  0  0  0  0
 29 26  1  1  0  0  0
 30 22  1  1  0  0  0
 31 29  1  0  0  0  0
M  END
>  <MODEL>
1

>  <REMARK>
 VINA RESULT:     -11.9      0.000      0.000
  Name = 
  2 active torsions:
  status: ('A' for Active; 'I' for Inactive)
    1  A    between atoms: C_9  and  C_22
    2  A    between atoms: C_15  and  N_23
                            x       y       z     vdW  Elec       q    Type
                         _______ _______ _______ _____ _____    ______ ____

>  <TORSDO>
F 2

$$$$
=
 OpenBabel11052413123D

 31 35  0  0  1  0  0  0  0  0999 V2000
  185.2540  178.6290  145.0450 C   0  0  0  0  0  0  0  0  0  0  0  0
  188.6410  177.5280  143.8080 C   0  0  0  0  0  0  0  0  0  0  0  0
  189.4800  177.4210  144.9690 C   0  0  0  0  0  0  0  0  0  0  0  0
  188.9620  176.8230  147.3120 C   0  0  0  0  0  3  0  0  0  0  0  0
  187.2700  177.9390  143.8430 C   0  0  0  0  0  0  0  0  0  0  0  0
  184.5560  178.7380  143.8450 C   0  0  0  0  0  3  0  0  0  0  0  0
  189.0440  177.9250  146.3120 C   0  0  0  0  0  2  0  0  0  0  0  0
  188.4610  177.3330  141.3500 C   0  0  0  0  0  0  0  0  0  0  0  0
  184.6350  178.9100  146.2160 F   0  0  0  0  0  0  0  0  0  0  0  0
  191.3230  176.6580  143.5830 C   0  0  0  0  0  3  0  0  0  0  0  0
  190.0410  176.1700  147.7390 C   0  0  0  0  0  3  0  0  0  0  0  0
  187.1340  177.7490  141.4170 C   0  0  0  0  0  3  0  0  0  0  0  0
  189.2110  177.2150  142.5360 C   0  0  0  0  0  0  0  0  0  0  0  0
  186.5920  178.2310  145.0410 C   0  0  0  0  0  3  0  0  0  0  0  0
  191.4050  176.3930  147.2280 C   0  0  0  0  0  3  0  0  0  0  0  0
  186.5360  178.0450  142.6330 C   0  0  0  0  0  0  0  0  0  0  0  0
  185.1960  178.4450  142.6410 C   0  0  0  0  0  3  0  0  0  0  0  0
  190.5410  176.7930  142.4470 C   0  0  0  0  0  3  0  0  0  0  0  0
  190.8080  176.9460  144.8410 C   0  0  0  0  0  0  0  0  0  0  0  0
  191.7310  176.7390  145.9790 C   0  0  0  0  0  3  0  0  0  0  0  0
  188.9430  179.1580  139.0740 O   0  0  0  0  0  0  0  0  0  0  0  0
  189.3330  177.9610  139.0130 C   0  0  0  0  0  0  0  0  0  0  0  0
  189.0760  177.0410  140.0820 N   0  0  0  0  0  2  0  0  0  0  0  0
  191.2040  175.3650  136.1180 N   0  0  0  0  0  0  0  0  0  0  0  0
  191.3110  176.6950  138.2290 C   0  0  0  0  0  2  0  0  0  0  0  0
  188.0780  177.3120  136.4790 O   0  0  0  0  0  1  0  0  0  0  0  0
  190.8600  174.1140  136.7850 C   0  0  0  0  0  1  0  0  0  0  0  0
  192.0540  176.1860  136.9910 C   0  0  0  0  0  2  0  0  0  0  0  0
  189.1830  176.5890  136.9320 C   0  0  2  0  0  3  0  0  0  0  0  0
  190.0700  177.4710  137.8080 C   0  0  1  0  0  3  0  0  0  0  0  0
  189.9820  176.0820  135.7280 C   0  0  0  0  0  2  0  0  0  0  0  0
  1  9  1  0  0  0  0
  2  5  1  0  0  0  0
  2  3  1  0  0  0  0
  3  7  1  0  0  0  0
  4 11  2  0  0  0  0
  5 14  2  0  0  0  0
  6  1  2  0  0  0  0
  7  4  1  0  0  0  0
  8 12  2  0  0  0  0
  8 13  1  0  0  0  0
 10 19  1  0  0  0  0
 12 16  1  0  0  0  0
 13  2  2  0  0  0  0
 14  1  1  0  0  0  0
 15 11  1  0  0  0  0
 16 17  2  0  0  0  0
 16  5  1  0  0  0  0
 17  6  1  0  0  0  0
 18 13  1  0  0  0  0
 18 10  2  0  0  0  0
 19  3  2  0  0  0  0
 19 20  1  0  0  0  0
 20 15  2  0  0  0  0
 22 21  2  0  0  0  0
 22 23  1  0  0  0  0
 23  8  1  0  0  0  0
 24 27  1  0  0  0  0
 24 28  1  0  0  0  0
 28 25  1  0  0  0  0
 29 26  1  6  0  0  0
 29 30  1  0  0  0  0
 30 25  1  0  0  0  0
 30 22  1  1  0  0  0
 31 24  1  0  0  0  0
 31 29  1  0  0  0  0
M  END
>  <MODEL>
2

>  <REMARK>
 VINA RESULT:     -11.5      1.789      4.241
  Name = 
  2 active torsions:
  status: ('A' for Active; 'I' for Inactive)
    1  A    between atoms: C_9  and  C_22
    2  A    between atoms: C_15  and  N_23
                            x       y       z     vdW  Elec       q    Type
                         _______ _______ _______ _____ _____    ______ ____

>  <TORSDO>
F 2

$$$$
=
 OpenBabel11052413123D

 31 35  0  0  1  0  0  0  0  0999 V2000
  190.6760  177.1500  142.1070 C   0  0  0  0  0  0  0  0  0  0  0  0
  187.4100  177.9450  143.8140 C   0  0  0  0  0  0  0  0  0  0  0  0
  187.6040  177.6630  145.2090 C   0  0  0  0  0  0  0  0  0  0  0  0
  189.6130  177.8110  146.6440 C   0  0  0  0  0  3  0  0  0  0  0  0
  188.4130  177.7580  142.8100 C   0  0  0  0  0  0  0  0  0  0  0  0
  190.3520  177.4160  140.7780 C   0  0  0  0  0  3  0  0  0  0  0  0
  188.8260  176.9540  145.7130 C   0  0  0  0  0  2  0  0  0  0  0  0
  185.8570  178.6960  142.0430 C   0  0  0  0  0  0  0  0  0  0  0  0
  191.9190  176.7220  142.4270 F   0  0  0  0  0  0  0  0  0  0  0  0
  185.3430  178.4090  145.6880 C   0  0  0  0  0  3  0  0  0  0  0  0
  189.1490  178.1770  147.8360 C   0  0  0  0  0  3  0  0  0  0  0  0
  186.8500  178.4900  141.0890 C   0  0  0  0  0  3  0  0  0  0  0  0
  186.1330  178.4330  143.3990 C   0  0  0  0  0  0  0  0  0  0  0  0
  189.7170  177.3230  143.1070 C   0  0  0  0  0  3  0  0  0  0  0  0
  187.8010  177.8580  148.3380 C   0  0  0  0  0  3  0  0  0  0  0  0
  188.1090  178.0350  141.4520 C   0  0  0  0  0  0  0  0  0  0  0  0
  189.0710  177.8600  140.4520 C   0  0  0  0  0  3  0  0  0  0  0  0
  185.1240  178.6490  144.3410 C   0  0  0  0  0  3  0  0  0  0  0  0
  186.5710  177.9390  146.1370 C   0  0  0  0  0  0  0  0  0  0  0  0
  186.6920  177.7450  147.5990 C   0  0  0  0  0  3  0  0  0  0  0  0
  183.7070  177.1940  140.6780 O   0  0  0  0  0  0  0  0  0  0  0  0
  183.5120  178.3890  141.0310 C   0  0  0  0  0  0  0  0  0  0  0  0
  184.5490  179.1560  141.6560 N   0  0  0  0  0  2  0  0  0  0  0  0
  179.2930  178.9700  140.3440 N   0  0  0  0  0  0  0  0  0  0  0  0
  181.5960  178.5540  139.4730 C   0  0  0  0  0  2  0  0  0  0  0  0
  181.7070  179.2450  143.1350 O   0  0  0  0  0  1  0  0  0  0  0  0
  178.9310  177.5580  140.3950 C   0  0  0  0  0  1  0  0  0  0  0  0
  180.2320  179.2100  139.2400 C   0  0  0  0  0  2  0  0  0  0  0  0
  181.2100  178.7440  141.9300 C   0  0  2  0  0  3  0  0  0  0  0  0
  182.1860  179.0350  140.7920 C   0  0  1  0  0  3  0  0  0  0  0  0
  179.8560  179.3940  141.6330 C   0  0  0  0  0  2  0  0  0  0  0  0
  1  9  1  0  0  0  0
  1 14  1  0  0  0  0
  2  3  1  0  0  0  0
  3  7  1  0  0  0  0
  3 19  2  0  0  0  0
  4 11  2  0  0  0  0
  5 14  2  0  0  0  0
  5  2  1  0  0  0  0
  6  1  2  0  0  0  0
  7  4  1  0  0  0  0
  8 13  1  0  0  0  0
 10 19  1  0  0  0  0
 11 15  1  0  0  0  0
 12 16  1  0  0  0  0
 12  8  2  0  0  0  0
 13  2  2  0  0  0  0
 13 18  1  0  0  0  0
 16  5  1  0  0  0  0
 17  6  1  0  0  0  0
 17 16  2  0  0  0  0
 18 10  2  0  0  0  0
 19 20  1  0  0  0  0
 20 15  2  0  0  0  0
 21 22  2  0  0  0  0
 22 23  1  0  0  0  0
 23  8  1  0  0  0  0
 24 27  1  0  0  0  0
 24 31  1  0  0  0  0
 25 30  1  0  0  0  0
 28 25  1  0  0  0  0
 28 24  1  0  0  0  0
 29 26  1  1  0  0  0
 30 22  1  1  0  0  0
 30 29  1  0  0  0  0
 31 29  1  0  0  0  0
M  END
>  <MODEL>
3

>  <REMARK>
 VINA RESULT:     -11.1      3.781      6.100
  Name = 
  2 active torsions:
  status: ('A' for Active; 'I' for Inactive)
    1  A    between atoms: C_9  and  C_22
    2  A    between atoms: C_15  and  N_23
                            x       y       z     vdW  Elec       q    Type
                         _______ _______ _______ _____ _____    ______ ____

>  <TORSDO>
F 2

$$$$
=
 OpenBabel11052413123D

 31 35  0  0  1  0  0  0  0  0999 V2000
  188.8430  177.2680  147.5040 C   0  0  0  0  0  0  0  0  0  0  0  0
  187.5370  177.8180  144.0110 C   0  0  0  0  0  0  0  0  0  0  0  0
  186.1100  177.9350  144.1270 C   0  0  0  0  0  0  0  0  0  0  0  0
  184.6830  178.8200  145.9430 C   0  0  0  0  0  3  0  0  0  0  0  0
  188.4160  177.5840  145.1170 C   0  0  0  0  0  0  0  0  0  0  0  0
  190.2080  177.1280  147.2580 C   0  0  0  0  0  3  0  0  0  0  0  0
  185.3890  177.6230  145.4050 C   0  0  0  0  0  2  0  0  0  0  0  0
  189.5040  177.7920  142.5140 C   0  0  0  0  0  0  0  0  0  0  0  0
  188.3720  177.1810  148.7700 F   0  0  0  0  0  0  0  0  0  0  0  0
  185.9340  178.3270  141.7360 C   0  0  0  0  0  3  0  0  0  0  0  0
  183.6470  179.3740  145.3180 C   0  0  0  0  0  3  0  0  0  0  0  0
  190.3300  177.5500  143.6080 C   0  0  0  0  0  3  0  0  0  0  0  0
  188.1170  177.9330  142.7100 C   0  0  0  0  0  0  0  0  0  0  0  0
  187.9630  177.4960  146.4450 C   0  0  0  0  0  3  0  0  0  0  0  0
  183.1350  178.9360  144.0080 C   0  0  0  0  0  3  0  0  0  0  0  0
  189.8110  177.4510  144.8900 C   0  0  0  0  0  0  0  0  0  0  0  0
  190.6900  177.2210  145.9530 C   0  0  0  0  0  3  0  0  0  0  0  0
  187.3050  178.1770  141.5990 C   0  0  0  0  0  3  0  0  0  0  0  0
  185.3290  178.2290  142.9830 C   0  0  0  0  0  0  0  0  0  0  0  0
  183.8630  178.4320  143.0060 C   0  0  0  0  0  3  0  0  0  0  0  0
  190.6100  175.6270  140.8310 O   0  0  0  0  0  0  0  0  0  0  0  0
  190.5420  176.8020  140.3780 C   0  0  0  0  0  0  0  0  0  0  0  0
  190.0510  177.8800  141.1850 N   0  0  0  0  0  2  0  0  0  0  0  0
  191.7040  176.3160  136.2510 N   0  0  0  0  0  0  0  0  0  0  0  0
  192.2880  176.3650  138.6790 C   0  0  0  0  0  2  0  0  0  0  0  0
  188.7460  177.4150  138.1840 O   0  0  0  0  0  1  0  0  0  0  0  0
  191.5150  174.8700  136.2060 C   0  0  0  0  0  1  0  0  0  0  0  0
  192.7320  176.6600  137.2440 C   0  0  0  0  0  2  0  0  0  0  0  0
  189.9220  176.6970  137.9620 C   0  0  2  0  0  3  0  0  0  0  0  0
  190.9870  177.0960  138.9820 C   0  0  1  0  0  3  0  0  0  0  0  0
  190.4280  176.9820  136.5450 C   0  0  0  0  0  2  0  0  0  0  0  0
  1  9  1  0  0  0  0
  2  3  1  0  0  0  0
  2  5  1  0  0  0  0
  3  7  1  0  0  0  0
  5 14  1  0  0  0  0
  6  1  1  0  0  0  0
  7  4  1  0  0  0  0
  8 13  1  0  0  0  0
  8 12  2  0  0  0  0
 10 19  1  0  0  0  0
 11  4  2  0  0  0  0
 12 16  1  0  0  0  0
 13  2  2  0  0  0  0
 14  1  2  0  0  0  0
 15 11  1  0  0  0  0
 16  5  2  0  0  0  0
 16 17  1  0  0  0  0
 17  6  2  0  0  0  0
 18 10  2  0  0  0  0
 18 13  1  0  0  0  0
 19 20  1  0  0  0  0
 19  3  2  0  0  0  0
 20 15  2  0  0  0  0
 22 21  2  0  0  0  0
 22 23  1  0  0  0  0
 23  8  1  0  0  0  0
 24 31  1  0  0  0  0
 24 28  1  0  0  0  0
 25 30  1  0  0  0  0
 27 24  1  0  0  0  0
 28 25  1  0  0  0  0
 29 26  1  1  0  0  0
 29 30  1  0  0  0  0
 30 22  1  1  0  0  0
 31 29  1  0  0  0  0
M  END
>  <MODEL>
4

>  <REMARK>
 VINA RESULT:     -10.6      1.420      1.825
  Name = 
  2 active torsions:
  status: ('A' for Active; 'I' for Inactive)
    1  A    between atoms: C_9  and  C_22
    2  A    between atoms: C_15  and  N_23
                            x       y       z     vdW  Elec       q    Type
                         _______ _______ _______ _____ _____    ______ ____

>  <TORSDO>
F 2

$$$$
=
 OpenBabel11052413123D

 31 35  0  0  1  0  0  0  0  0999 V2000
  186.2740  177.9190  146.5670 C   0  0  0  0  0  0  0  0  0  0  0  0
  186.7690  178.2430  142.8430 C   0  0  0  0  0  0  0  0  0  0  0  0
  188.1410  177.9030  142.5870 C   0  0  0  0  0  0  0  0  0  0  0  0
  189.6790  176.3380  143.7290 C   0  0  0  0  0  3  0  0  0  0  0  0
  186.1760  178.2610  144.1470 C   0  0  0  0  0  0  0  0  0  0  0  0
  184.9420  178.3110  146.6920 C   0  0  0  0  0  3  0  0  0  0  0  0
  189.1350  177.7250  143.6960 C   0  0  0  0  0  2  0  0  0  0  0  0
  184.6010  178.9760  141.9080 C   0  0  0  0  0  0  0  0  0  0  0  0
  186.9810  177.5660  147.6650 F   0  0  0  0  0  0  0  0  0  0  0  0
  187.7860  178.2090  140.2040 C   0  0  0  0  0  3  0  0  0  0  0  0
  190.4500  175.8540  142.7580 C   0  0  0  0  0  3  0  0  0  0  0  0
  184.0590  178.9970  143.1900 C   0  0  0  0  0  3  0  0  0  0  0  0
  185.9460  178.5950  141.7310 C   0  0  0  0  0  0  0  0  0  0  0  0
  186.8780  177.8930  145.3090 C   0  0  0  0  0  3  0  0  0  0  0  0
  190.7850  176.5820  141.5210 C   0  0  0  0  0  3  0  0  0  0  0  0
  184.8180  178.6450  144.2960 C   0  0  0  0  0  0  0  0  0  0  0  0
  184.2160  178.6710  145.5580 C   0  0  0  0  0  3  0  0  0  0  0  0
  186.4710  178.5780  140.4360 C   0  0  0  0  0  3  0  0  0  0  0  0
  188.6210  177.8530  141.2560 C   0  0  0  0  0  0  0  0  0  0  0  0
  189.9960  177.4530  140.8820 C   0  0  0  0  0  3  0  0  0  0  0  0
  182.6970  177.3300  140.3580 O   0  0  0  0  0  0  0  0  0  0  0  0
  182.8620  178.5440  140.0630 C   0  0  0  0  0  0  0  0  0  0  0  0
  183.8100  179.3570  140.7680 N   0  0  0  0  0  2  0  0  0  0  0  0
  179.9370  179.1520  136.9500 N   0  0  0  0  0  0  0  0  0  0  0  0
  182.1610  178.3000  137.7010 C   0  0  0  0  0  2  0  0  0  0  0  0
  180.5100  180.1970  140.4540 O   0  0  0  0  0  1  0  0  0  0  0  0
  179.2570  177.8720  137.1230 C   0  0  0  0  0  1  0  0  0  0  0  0
  181.3400  178.9310  136.5740 C   0  0  0  0  0  2  0  0  0  0  0  0
  180.6090  179.3480  139.3490 C   0  0  2  0  0  3  0  0  0  0  0  0
  182.0720  179.1620  138.9550 C   0  0  1  0  0  3  0  0  0  0  0  0
  179.8280  179.9510  138.1780 C   0  0  0  0  0  2  0  0  0  0  0  0
  1  6  1  0  0  0  0
  1  9  1  0  0  0  0
  2  5  1  0  0  0  0
  3  2  1  0  0  0  0
  3  7  1  0  0  0  0
  5 16  2  0  0  0  0
  5 14  1  0  0  0  0
  7  4  1  0  0  0  0
  8 12  2  0  0  0  0
 10 18  2  0  0  0  0
 10 19  1  0  0  0  0
 11  4  2  0  0  0  0
 12 16  1  0  0  0  0
 13  8  1  0  0  0  0
 13  2  2  0  0  0  0
 14  1  2  0  0  0  0
 15 11  1  0  0  0  0
 16 17  1  0  0  0  0
 17  6  2  0  0  0  0
 18 13  1  0  0  0  0
 19  3  2  0  0  0  0
 20 19  1  0  0  0  0
 20 15  2  0  0  0  0
 22 21  2  0  0  0  0
 22 23  1  0  0  0  0
 23  8  1  0  0  0  0
 24 27  1  0  0  0  0
 24 31  1  0  0  0  0
 25 30  1  0  0  0  0
 28 24  1  0  0  0  0
 28 25  1  0  0  0  0
 29 26  1  1  0  0  0
 30 29  1  0  0  0  0
 30 22  1  1  0  0  0
 31 29  1  0  0  0  0
M  END
>  <MODEL>
5

>  <REMARK>
 VINA RESULT:     -10.3      4.099      6.346
  Name = 
  2 active torsions:
  status: ('A' for Active; 'I' for Inactive)
    1  A    between atoms: C_9  and  C_22
    2  A    between atoms: C_15  and  N_23
                            x       y       z     vdW  Elec       q    Type
                         _______ _______ _______ _____ _____    ______ ____

>  <TORSDO>
F 2

$$$$
=
 OpenBabel11052413123D

 31 35  0  0  1  0  0  0  0  0999 V2000
  189.8900  177.3710  141.9150 C   0  0  0  0  0  0  0  0  0  0  0  0
  186.3620  178.2160  142.9390 C   0  0  0  0  0  0  0  0  0  0  0  0
  186.2910  178.0030  144.3580 C   0  0  0  0  0  0  0  0  0  0  0  0
  187.9960  178.2390  146.1340 C   0  0  0  0  0  3  0  0  0  0  0  0
  187.5360  177.9900  142.1510 C   0  0  0  0  0  0  0  0  0  0  0  0
  189.8220  177.5690  140.5370 C   0  0  0  0  0  3  0  0  0  0  0  0
  187.3970  177.3310  145.1160 C   0  0  0  0  0  2  0  0  0  0  0  0
  185.1690  178.8660  140.8740 C   0  0  0  0  0  0  0  0  0  0  0  0
  191.0520  176.9700  142.4830 F   0  0  0  0  0  0  0  0  0  0  0  0
  183.9800  178.7500  144.3680 C   0  0  0  0  0  3  0  0  0  0  0  0
  187.3170  178.6580  147.2000 C   0  0  0  0  0  3  0  0  0  0  0  0
  186.3230  178.6240  140.1340 C   0  0  0  0  0  3  0  0  0  0  0  0
  185.1860  178.6710  142.2690 C   0  0  0  0  0  0  0  0  0  0  0  0
  188.7620  177.5820  142.7080 C   0  0  0  0  0  3  0  0  0  0  0  0
  185.8980  178.3510  147.4550 C   0  0  0  0  0  3  0  0  0  0  0  0
  187.4920  178.1980  140.7480 C   0  0  0  0  0  0  0  0  0  0  0  0
  188.6240  177.9840  139.9560 C   0  0  0  0  0  3  0  0  0  0  0  0
  184.0180  178.9230  142.9940 C   0  0  0  0  0  3  0  0  0  0  0  0
  185.1020  178.3130  145.0620 C   0  0  0  0  0  0  0  0  0  0  0  0
  184.9470  178.1920  146.5280 C   0  0  0  0  0  3  0  0  0  0  0  0
  182.9460  177.2090  139.8470 O   0  0  0  0  0  0  0  0  0  0  0  0
  182.8770  178.4660  139.7760 C   0  0  0  0  0  0  0  0  0  0  0  0
  183.9570  179.2940  140.2260 N   0  0  0  0  0  2  0  0  0  0  0  0
  180.2130  181.3940  138.0600 N   0  0  0  0  0  0  0  0  0  0  0  0
  181.2630  180.3220  140.0560 C   0  0  0  0  0  2  0  0  0  0  0  0
  182.1800  178.4590  136.9600 O   0  0  0  0  0  1  0  0  0  0  0  0
  181.1980  182.4670  137.9730 C   0  0  0  0  0  1  0  0  0  0  0  0
  180.0240  180.9960  139.4620 C   0  0  0  0  0  2  0  0  0  0  0  0
  181.8870  179.5630  137.7630 C   0  0  2  0  0  3  0  0  0  0  0  0
  181.6600  179.1200  139.2070 C   0  0  1  0  0  3  0  0  0  0  0  0
  180.6320  180.2570  137.2290 C   0  0  0  0  0  2  0  0  0  0  0  0
  1  9  1  0  0  0  0
  1 14  1  0  0  0  0
  2  3  1  0  0  0  0
  3 19  2  0  0  0  0
  3  7  1  0  0  0  0
  4 11  2  0  0  0  0
  5 14  2  0  0  0  0
  5  2  1  0  0  0  0
  6  1  2  0  0  0  0
  7  4  1  0  0  0  0
  8 13  1  0  0  0  0
 10 19  1  0  0  0  0
 11 15  1  0  0  0  0
 12 16  1  0  0  0  0
 12  8  2  0  0  0  0
 13  2  2  0  0  0  0
 13 18  1  0  0  0  0
 16  5  1  0  0  0  0
 17  6  1  0  0  0  0
 17 16  2  0  0  0  0
 18 10  2  0  0  0  0
 19 20  1  0  0  0  0
 20 15  2  0  0  0  0
 22 21  2  0  0  0  0
 22 23  1  0  0  0  0
 23  8  1  0  0  0  0
 24 28  1  0  0  0  0
 27 24  1  0  0  0  0
 28 25  1  0  0  0  0
 29 26  1  6  0  0  0
 29 30  1  0  0  0  0
 30 22  1  1  0  0  0
 30 25  1  0  0  0  0
 31 29  1  0  0  0  0
 31 24  1  0  0  0  0
M  END
>  <MODEL>
6

>  <REMARK>
 VINA RESULT:     -10.0      4.020      5.834
  Name = 
  2 active torsions:
  status: ('A' for Active; 'I' for Inactive)
    1  A    between atoms: C_9  and  C_22
    2  A    between atoms: C_15  and  N_23
                            x       y       z     vdW  Elec       q    Type
                         _______ _______ _______ _____ _____    ______ ____

>  <TORSDO>
F 2

$$$$
=
 OpenBabel11052413123D

 31 35  0  0  1  0  0  0  0  0999 V2000
  189.1140  177.4720  146.7860 C   0  0  0  0  0  0  0  0  0  0  0  0
  187.6770  178.0600  143.3500 C   0  0  0  0  0  0  0  0  0  0  0  0
  188.7910  178.0810  142.4440 C   0  0  0  0  0  0  0  0  0  0  0  0
  190.9640  176.9010  142.4960 C   0  0  0  0  0  3  0  0  0  0  0  0
  187.7960  177.8770  144.7660 C   0  0  0  0  0  0  0  0  0  0  0  0
  187.9610  177.5170  147.5670 C   0  0  0  0  0  3  0  0  0  0  0  0
  190.2090  178.1100  142.9310 C   0  0  0  0  0  2  0  0  0  0  0  0
  185.2300  178.2700  143.6400 C   0  0  0  0  0  0  0  0  0  0  0  0
  190.3180  177.2610  147.3680 F   0  0  0  0  0  0  0  0  0  0  0  0
  187.2770  178.3860  140.5690 C   0  0  0  0  0  3  0  0  0  0  0  0
  191.2490  176.6630  141.2180 C   0  0  0  0  0  3  0  0  0  0  0  0
  185.3820  178.1040  145.0140 C   0  0  0  0  0  3  0  0  0  0  0  0
  186.3670  178.2420  142.8090 C   0  0  0  0  0  0  0  0  0  0  0  0
  189.0280  177.6480  145.4040 C   0  0  0  0  0  3  0  0  0  0  0  0
  190.7930  177.5010  140.0940 C   0  0  0  0  0  3  0  0  0  0  0  0
  186.6330  177.9060  145.5790 C   0  0  0  0  0  0  0  0  0  0  0  0
  186.7230  177.7310  146.9640 C   0  0  0  0  0  3  0  0  0  0  0  0
  186.1940  178.4080  141.4320 C   0  0  0  0  0  3  0  0  0  0  0  0
  188.5680  178.2060  141.0520 C   0  0  0  0  0  0  0  0  0  0  0  0
  189.6400  178.1740  140.0310 C   0  0  0  0  0  3  0  0  0  0  0  0
  182.7960  179.3270  144.9430 O   0  0  0  0  0  0  0  0  0  0  0  0
  182.7780  179.0420  143.7150 C   0  0  0  0  0  0  0  0  0  0  0  0
  183.9290  178.4890  143.0650 N   0  0  0  0  0  2  0  0  0  0  0  0
  179.4140  178.4100  141.0880 N   0  0  0  0  0  0  0  0  0  0  0  0
  181.8150  179.0030  141.4350 C   0  0  0  0  0  2  0  0  0  0  0  0
  180.0800  178.6760  144.7180 O   0  0  0  0  0  1  0  0  0  0  0  0
  179.6780  176.9980  140.8350 C   0  0  0  0  0  1  0  0  0  0  0  0
  180.5410  179.2260  140.6160 C   0  0  0  0  0  2  0  0  0  0  0  0
  180.3910  178.3870  143.3880 C   0  0  2  0  0  3  0  0  0  0  0  0
  181.5400  179.2710  142.9090 C   0  0  1  0  0  3  0  0  0  0  0  0
  179.1540  178.6270  142.5170 C   0  0  0  0  0  2  0  0  0  0  0  0
  1  9  1  0  0  0  0
  1  6  1  0  0  0  0
  2  5  1  0  0  0  0
  3  7  1  0  0  0  0
  3  2  1  0  0  0  0
  4  7  1  0  0  0  0
  5 14  1  0  0  0  0
  5 16  2  0  0  0  0
  8 12  2  0  0  0  0
 10 19  1  0  0  0  0
 10 18  2  0  0  0  0
 11  4  2  0  0  0  0
 12 16  1  0  0  0  0
 13  2  2  0  0  0  0
 13  8  1  0  0  0  0
 14  1  2  0  0  0  0
 15 11  1  0  0  0  0
 16 17  1  0  0  0  0
 17  6  2  0  0  0  0
 18 13  1  0  0  0  0
 19  3  2  0  0  0  0
 20 15  2  0  0  0  0
 20 19  1  0  0  0  0
 22 21  2  0  0  0  0
 23  8  1  0  0  0  0
 23 22  1  0  0  0  0
 24 31  1  0  0  0  0
 25 30  1  0  0  0  0
 27 24  1  0  0  0  0
 28 24  1  0  0  0  0
 28 25  1  0  0  0  0
 29 26  1  1  0  0  0
 30 29  1  0  0  0  0
 30 22  1  1  0  0  0
 31 29  1  0  0  0  0
M  END
>  <MODEL>
7

>  <REMARK>
 VINA RESULT:     -10.0      3.896      7.021
  Name = 
  2 active torsions:
  status: ('A' for Active; 'I' for Inactive)
    1  A    between atoms: C_9  and  C_22
    2  A    between atoms: C_15  and  N_23
                            x       y       z     vdW  Elec       q    Type
                         _______ _______ _______ _____ _____    ______ ____

>  <TORSDO>
F 2

$$$$
=
 OpenBabel11052413123D

 31 35  0  0  1  0  0  0  0  0999 V2000
  187.1490  178.4360  147.6670 C   0  0  0  0  0  0  0  0  0  0  0  0
  187.6620  177.8780  143.9740 C   0  0  0  0  0  0  0  0  0  0  0  0
  189.0760  177.7080  143.7830 C   0  0  0  0  0  0  0  0  0  0  0  0
  190.8220  176.7540  145.2520 C   0  0  0  0  0  3  0  0  0  0  0  0
  187.0470  178.1310  145.2420 C   0  0  0  0  0  0  0  0  0  0  0  0
  185.7700  178.6280  147.7170 C   0  0  0  0  0  3  0  0  0  0  0  0
  190.0620  177.9810  144.8790 C   0  0  0  0  0  2  0  0  0  0  0  0
  185.4240  177.9910  142.9300 C   0  0  0  0  0  0  0  0  0  0  0  0
  187.8820  178.4920  148.8040 F   0  0  0  0  0  0  0  0  0  0  0  0
  188.7240  177.3370  141.4090 C   0  0  0  0  0  3  0  0  0  0  0  0
  191.6800  176.1690  144.4190 C   0  0  0  0  0  3  0  0  0  0  0  0
  184.8590  178.2500  144.1760 C   0  0  0  0  0  3  0  0  0  0  0  0
  186.8150  177.7980  142.8260 C   0  0  0  0  0  0  0  0  0  0  0  0
  187.7750  178.1880  146.4450 C   0  0  0  0  0  3  0  0  0  0  0  0
  191.9180  176.6030  143.0310 C   0  0  0  0  0  3  0  0  0  0  0  0
  185.6420  178.3170  145.3180 C   0  0  0  0  0  0  0  0  0  0  0  0
  185.0180  178.5660  146.5450 C   0  0  0  0  0  3  0  0  0  0  0  0
  187.3630  177.5370  141.5670 C   0  0  0  0  0  3  0  0  0  0  0  0
  189.5840  177.4000  142.4990 C   0  0  0  0  0  0  0  0  0  0  0  0
  191.0130  177.1440  142.2090 C   0  0  0  0  0  3  0  0  0  0  0  0
  185.3060  179.9080  140.6830 O   0  0  0  0  0  0  0  0  0  0  0  0
  184.6010  178.8640  140.6540 C   0  0  0  0  0  0  0  0  0  0  0  0
  184.6040  177.9370  141.7480 N   0  0  0  0  0  2  0  0  0  0  0  0
  182.2510  176.7760  137.6990 N   0  0  0  0  0  0  0  0  0  0  0  0
  184.4500  177.6370  138.5100 C   0  0  0  0  0  2  0  0  0  0  0  0
  181.7000  178.8410  140.7200 O   0  0  0  0  0  1  0  0  0  0  0  0
  182.4280  175.4450  138.2710 C   0  0  0  0  0  1  0  0  0  0  0  0
  183.5520  177.3350  137.3070 C   0  0  0  0  0  2  0  0  0  0  0  0
  182.4010  177.9590  139.8950 C   0  0  2  0  0  3  0  0  0  0  0  0
  183.7330  178.5750  139.4720 C   0  0  1  0  0  3  0  0  0  0  0  0
  181.5560  177.6480  138.6560 C   0  0  0  0  0  2  0  0  0  0  0  0
  1  6  1  0  0  0  0
  1  9  1  0  0  0  0
  2  5  1  0  0  0  0
  3  2  1  0  0  0  0
  3  7  1  0  0  0  0
  5 16  2  0  0  0  0
  5 14  1  0  0  0  0
  7  4  1  0  0  0  0
  8 12  2  0  0  0  0
 10 18  2  0  0  0  0
 10 19  1  0  0  0  0
 11  4  2  0  0  0  0
 12 16  1  0  0  0  0
 13  8  1  0  0  0  0
 13  2  2  0  0  0  0
 14  1  2  0  0  0  0
 15 11  1  0  0  0  0
 16 17  1  0  0  0  0
 17  6  2  0  0  0  0
 18 13  1  0  0  0  0
 19  3  2  0  0  0  0
 20 19  1  0  0  0  0
 20 15  2  0  0  0  0
 22 21  2  0  0  0  0
 22 23  1  0  0  0  0
 23  8  1  0  0  0  0
 24 27  1  0  0  0  0
 24 31  1  0  0  0  0
 25 30  1  0  0  0  0
 28 24  1  0  0  0  0
 28 25  1  0  0  0  0
 29 26  1  1  0  0  0
 30 29  1  0  0  0  0
 30 22  1  1  0  0  0
 31 29  1  0  0  0  0
M  END
>  <MODEL>
8

>  <REMARK>
 VINA RESULT:      -9.9      3.195      5.492
  Name = 
  2 active torsions:
  status: ('A' for Active; 'I' for Inactive)
    1  A    between atoms: C_9  and  C_22
    2  A    between atoms: C_15  and  N_23
                            x       y       z     vdW  Elec       q    Type
                         _______ _______ _______ _____ _____    ______ ____

>  <TORSDO>
F 2

$$$$
=
 OpenBabel11052413123D

 31 35  0  0  1  0  0  0  0  0999 V2000
  191.0220  176.7180  146.6450 C   0  0  0  0  0  0  0  0  0  0  0  0
  188.1270  177.3750  144.3220 C   0  0  0  0  0  0  0  0  0  0  0  0
  186.9950  177.6620  145.1590 C   0  0  0  0  0  0  0  0  0  0  0  0
  186.8330  178.7310  147.3830 C   0  0  0  0  0  3  0  0  0  0  0  0
  189.4310  177.0530  144.8180 C   0  0  0  0  0  0  0  0  0  0  0  0
  192.0310  176.4140  145.7330 C   0  0  0  0  0  3  0  0  0  0  0  0
  187.0320  177.4530  146.6430 C   0  0  0  0  0  2  0  0  0  0  0  0
  188.9940  177.0980  142.0240 C   0  0  0  0  0  0  0  0  0  0  0  0
  191.2850  176.7030  147.9730 F   0  0  0  0  0  0  0  0  0  0  0  0
  185.6210  178.0420  143.1920 C   0  0  0  0  0  3  0  0  0  0  0  0
  185.6800  179.3960  147.3540 C   0  0  0  0  0  3  0  0  0  0  0  0
  190.2470  176.7740  142.5390 C   0  0  0  0  0  3  0  0  0  0  0  0
  187.9400  177.4050  142.9060 C   0  0  0  0  0  0  0  0  0  0  0  0
  189.7420  177.0350  146.1900 C   0  0  0  0  0  3  0  0  0  0  0  0
  184.5150  179.0060  146.5410 C   0  0  0  0  0  3  0  0  0  0  0  0
  190.4760  176.7530  143.9070 C   0  0  0  0  0  0  0  0  0  0  0  0
  191.7580  176.4340  144.3660 C   0  0  0  0  0  3  0  0  0  0  0  0
  186.6910  177.7300  142.3700 C   0  0  0  0  0  3  0  0  0  0  0  0
  185.7590  178.0310  144.5750 C   0  0  0  0  0  0  0  0  0  0  0  0
  184.5530  178.4070  145.3460 C   0  0  0  0  0  3  0  0  0  0  0  0
  190.7020  176.0000  139.8750 O   0  0  0  0  0  0  0  0  0  0  0  0
  189.5930  176.5260  139.5890 C   0  0  0  0  0  0  0  0  0  0  0  0
  188.7630  177.1050  140.6030 N   0  0  0  0  0  2  0  0  0  0  0  0
  188.0020  177.9160  135.8260 N   0  0  0  0  0  0  0  0  0  0  0  0
  187.6570  176.9700  138.1120 C   0  0  0  0  0  2  0  0  0  0  0  0
  191.2960  177.1260  137.3170 O   0  0  0  0  0  1  0  0  0  0  0  0
  187.8060  179.3000  136.2430 C   0  0  0  0  0  1  0  0  0  0  0  0
  187.1850  177.0190  136.6560 C   0  0  0  0  0  2  0  0  0  0  0  0
  189.9590  177.5290  137.3310 C   0  0  2  0  0  3  0  0  0  0  0  0
  189.1240  176.5640  138.1700 C   0  0  1  0  0  3  0  0  0  0  0  0
  189.4270  177.5640  135.8960 C   0  0  0  0  0  2  0  0  0  0  0  0
  1  9  1  0  0  0  0
  2  5  1  0  0  0  0
  2  3  1  0  0  0  0
  3  7  1  0  0  0  0
  5 14  2  0  0  0  0
  6  1  2  0  0  0  0
  7  4  1  0  0  0  0
  8 12  2  0  0  0  0
  8 13  1  0  0  0  0
 10 19  1  0  0  0  0
 11  4  2  0  0  0  0
 12 16  1  0  0  0  0
 13  2  2  0  0  0  0
 14  1  1  0  0  0  0
 15 11  1  0  0  0  0
 16 17  2  0  0  0  0
 16  5  1  0  0  0  0
 17  6  1  0  0  0  0
 18 13  1  0  0  0  0
 18 10  2  0  0  0  0
 19  3  2  0  0  0  0
 19 20  1  0  0  0  0
 20 15  2  0  0  0  0
 22 21  2  0  0  0  0
 22 23  1  0  0  0  0
 23  8  1  0  0  0  0
 24 31  1  0  0  0  0
 24 27  1  0  0  0  0
 24 28  1  0  0  0  0
 25 30  1  0  0  0  0
 28 25  1  0  0  0  0
 29 26  1  6  0  0  0
 29 30  1  0  0  0  0
 30 22  1  1  0  0  0
 31 29  1  0  0  0  0
M  END
>  <MODEL>
9

>  <REMARK>
 VINA RESULT:      -9.9      1.213      1.595
  Name = 
  2 active torsions:
  status: ('A' for Active; 'I' for Inactive)
    1  A    between atoms: C_9  and  C_22
    2  A    between atoms: C_15  and  N_23
                            x       y       z     vdW  Elec       q    Type
                         _______ _______ _______ _____ _____    ______ ____

>  <TORSDO>
F 2

$$$$
