=
 OpenBabel11052414343D

 32 37  0  0  1  0  0  0  0  0999 V2000
  184.6890  178.4880  142.8800 C   0  0  0  0  0  0  0  0  0  0  0  0
  187.0060  177.9180  143.3350 C   0  0  0  0  0  0  0  0  0  0  0  0
  183.4160  178.8350  143.3650 C   0  0  0  0  0  3  0  0  0  0  0  0
  185.7250  178.2550  143.7910 C   0  0  0  0  0  0  0  0  0  0  0  0
  188.0410  177.7320  144.2590 C   0  0  0  0  0  3  0  0  0  0  0  0
  187.2880  177.5800  141.8970 C   0  0  1  0  0  3  0  0  0  0  0  0
  185.4830  178.3750  145.1820 C   0  0  0  0  0  0  0  0  0  0  0  0
  186.5270  178.1930  146.0910 C   0  0  0  0  0  3  0  0  0  0  0  0
  184.2050  178.6890  145.6460 C   0  0  0  0  0  3  0  0  0  0  0  0
  186.1600  177.8150  140.9530 N   0  0  1  0  0  0  0  0  0  0  0  0
  185.0070  178.6060  141.4070 C   0  0  1  0  0  3  0  0  0  0  0  0
  187.3010  178.7480  141.0280 C   0  0  2  0  0  3  0  0  0  0  0  0
  187.8080  177.8800  145.6310 C   0  0  0  0  0  0  0  0  0  0  0  0
  183.1700  178.9140  144.7370 C   0  0  0  0  0  3  0  0  0  0  0  0
  182.1000  179.5630  139.1700 C   0  0  0  0  0  0  0  0  0  0  0  0
  180.1410  176.7190  138.6130 O   0  0  0  0  0  1  0  0  0  0  0  0
  181.7680  180.5290  138.2760 F   0  0  0  0  0  0  0  0  0  0  0  0
  182.1680  176.5870  139.7890 C   0  0  0  0  0  3  0  0  0  0  0  0
  183.8280  178.3470  140.5080 C   0  0  0  0  0  0  0  0  0  0  0  0
  180.9940  178.7520  139.7550 C   0  0  0  0  0  2  0  0  0  0  0  0
  183.3130  177.1090  140.5610 C   0  0  0  0  0  3  0  0  0  0  0  0
  183.3810  179.3960  139.5380 C   0  0  0  0  0  0  0  0  0  0  0  0
  184.4030  180.3310  138.9730 C   0  0  0  0  0  1  0  0  0  0  0  0
  181.1340  177.3170  139.3770 C   0  0  0  0  0  0  0  0  0  0  0  0
  189.4520  177.7350  140.3020 C   0  0  0  0  0  2  0  0  0  0  0  0
  188.5410  176.5600  138.4080 C   0  0  0  0  0  2  0  0  0  0  0  0
  187.5460  177.6350  138.8100 C   0  0  2  0  0  3  0  0  0  0  0  0
  187.1820  178.4760  137.6010 C   0  0  0  0  0  1  0  0  0  0  0  0
  189.8390  176.8800  139.1200 C   0  0  0  0  0  2  0  0  0  0  0  0
  188.2290  178.5040  139.8510 C   0  0  1  0  0  3  0  0  0  0  0  0
  188.9260  177.7030  146.5980 C   0  0  0  0  0  2  0  0  0  0  0  0
  188.4260  177.9080  148.0150 C   0  0  0  0  0  1  0  0  0  0  0  0
  1  3  2  0  0  0  0
  1  4  1  0  0  0  0
  2  4  2  0  0  0  0
  2  5  1  0  0  0  0
  3 14  1  0  0  0  0
  4  7  1  0  0  0  0
  5 13  2  0  0  0  0
  6  2  1  1  0  0  0
  7  9  1  0  0  0  0
  7  8  2  0  0  0  0
 10 12  1  0  0  0  0
 10 11  1  0  0  0  0
 10  6  1  0  0  0  0
 11  1  1  0  0  0  0
 12  6  1  0  0  0  0
 13  8  1  0  0  0  0
 13 31  1  0  0  0  0
 14  9  2  0  0  0  0
 15 22  2  0  0  0  0
 15 20  1  0  0  0  0
 16 24  1  0  0  0  0
 17 15  1  0  0  0  0
 18 21  1  0  0  0  0
 19 21  2  0  0  0  0
 19 11  1  0  0  0  0
 22 19  1  0  0  0  0
 23 22  1  0  0  0  0
 24 20  1  0  0  0  0
 24 18  2  0  0  0  0
 26 27  1  0  0  0  0
 26 29  1  0  0  0  0
 27 30  1  0  0  0  0
 28 27  1  0  0  0  0
 29 25  1  0  0  0  0
 30 25  1  0  0  0  0
 30 12  1  0  0  0  0
 31 32  1  0  0  0  0
M  END
>  <MODEL>
1

>  <REMARK>
 VINA RESULT:      -8.8      0.000      0.000
  Name = 
  3 active torsions:
  status: ('A' for Active; 'I' for Inactive)
    1  A    between atoms: C_13  and  C_29
    2  A    between atoms: C_16  and  C_27
    3  A    between atoms: C_28  and  C_32
                            x       y       z     vdW  Elec       q    Type
                         _______ _______ _______ _____ _____    ______ ____

>  <TORSDO>
F 3

$$$$
=
 OpenBabel11052414343D

 32 37  0  0  1  0  0  0  0  0999 V2000
  186.8310  178.1700  139.9910 C   0  0  0  0  0  0  0  0  0  0  0  0
  186.7060  178.1300  142.4170 C   0  0  0  0  0  0  0  0  0  0  0  0
  186.1910  178.3580  138.7540 C   0  0  0  0  0  3  0  0  0  0  0  0
  186.0890  178.3030  141.1700 C   0  0  0  0  0  0  0  0  0  0  0  0
  185.9580  178.3110  143.5860 C   0  0  0  0  0  3  0  0  0  0  0  0
  188.1030  177.5940  142.5590 C   0  0  1  0  0  3  0  0  0  0  0  0
  184.7120  178.6270  141.1060 C   0  0  0  0  0  0  0  0  0  0  0  0
  183.9820  178.8110  142.2800 C   0  0  0  0  0  3  0  0  0  0  0  0
  184.0860  178.7800  139.8670 C   0  0  0  0  0  3  0  0  0  0  0  0
  188.8610  177.4400  141.2870 N   0  0  1  0  0  0  0  0  0  0  0  0
  188.3380  178.0740  140.0680 C   0  0  1  0  0  3  0  0  0  0  0  0
  189.1270  178.5660  142.2040 C   0  0  2  0  0  3  0  0  0  0  0  0
  184.6050  178.6620  143.5220 C   0  0  0  0  0  0  0  0  0  0  0  0
  184.8240  178.6390  138.6910 C   0  0  0  0  0  3  0  0  0  0  0  0
  188.8910  177.5220  136.3580 C   0  0  0  0  0  0  0  0  0  0  0  0
  190.7800  174.6080  135.9360 O   0  0  0  0  0  1  0  0  0  0  0  0
  188.8840  178.2350  135.2030 F   0  0  0  0  0  0  0  0  0  0  0  0
  190.3400  175.4720  138.0740 C   0  0  0  0  0  3  0  0  0  0  0  0
  188.9690  177.4420  138.8560 C   0  0  0  0  0  0  0  0  0  0  0  0
  188.7750  176.0390  136.2570 C   0  0  0  0  0  2  0  0  0  0  0  0
  189.6300  176.2940  139.0730 C   0  0  0  0  0  3  0  0  0  0  0  0
  188.9470  178.1550  137.5410 C   0  0  0  0  0  0  0  0  0  0  0  0
  188.9520  179.6510  137.5380 C   0  0  0  0  0  1  0  0  0  0  0  0
  190.0000  175.3760  136.7890 C   0  0  0  0  0  0  0  0  0  0  0  0
  190.0710  178.0910  144.4530 C   0  0  0  0  0  2  0  0  0  0  0  0
  191.3960  176.2000  143.7660 C   0  0  0  0  0  2  0  0  0  0  0  0
  191.0330  176.9910  142.5200 C   0  0  2  0  0  3  0  0  0  0  0  0
  192.2860  177.2950  141.7220 C   0  0  0  0  0  1  0  0  0  0  0  0
  191.0870  177.0910  144.9510 C   0  0  0  0  0  2  0  0  0  0  0  0
  190.3970  178.2870  142.9880 C   0  0  1  0  0  3  0  0  0  0  0  0
  183.8310  178.8740  144.7750 C   0  0  0  0  0  2  0  0  0  0  0  0
  184.7170  178.6370  145.9830 C   0  0  0  0  0  1  0  0  0  0  0  0
  1 11  1  0  0  0  0
  1  4  1  0  0  0  0
  2  5  1  0  0  0  0
  3  1  2  0  0  0  0
  4  2  2  0  0  0  0
  6  2  1  6  0  0  0
  7  4  1  0  0  0  0
  7  8  2  0  0  0  0
  8 13  1  0  0  0  0
  9  7  1  0  0  0  0
 10 12  1  0  0  0  0
 10  6  1  0  0  0  0
 11 10  1  0  0  0  0
 12  6  1  0  0  0  0
 12 30  1  0  0  0  0
 13  5  2  0  0  0  0
 13 31  1  0  0  0  0
 14  3  1  0  0  0  0
 14  9  2  0  0  0  0
 15 22  2  0  0  0  0
 16 24  1  0  0  0  0
 17 15  1  0  0  0  0
 18 21  1  0  0  0  0
 19 21  2  0  0  0  0
 19 11  1  0  0  0  0
 20 15  1  0  0  0  0
 20 24  1  0  0  0  0
 22 19  1  0  0  0  0
 23 22  1  0  0  0  0
 24 18  2  0  0  0  0
 25 29  1  0  0  0  0
 26 29  1  0  0  0  0
 27 30  1  0  0  0  0
 27 26  1  0  0  0  0
 28 27  1  0  0  0  0
 30 25  1  0  0  0  0
 31 32  1  0  0  0  0
M  END
>  <MODEL>
2

>  <REMARK>
 VINA RESULT:      -8.5      3.044      5.740
  Name = 
  3 active torsions:
  status: ('A' for Active; 'I' for Inactive)
    1  A    between atoms: C_13  and  C_29
    2  A    between atoms: C_16  and  C_27
    3  A    between atoms: C_28  and  C_32
                            x       y       z     vdW  Elec       q    Type
                         _______ _______ _______ _____ _____    ______ ____

>  <TORSDO>
F 3

$$$$
=
 OpenBabel11052414343D

 32 37  0  0  1  0  0  0  0  0999 V2000
  183.6610  178.6050  141.9650 C   0  0  0  0  0  0  0  0  0  0  0  0
  185.6190  178.3120  143.3710 C   0  0  0  0  0  0  0  0  0  0  0  0
  182.2810  178.8480  141.8560 C   0  0  0  0  0  3  0  0  0  0  0  0
  184.2440  178.5430  143.2350 C   0  0  0  0  0  0  0  0  0  0  0  0
  186.1930  178.2990  144.6480 C   0  0  0  0  0  3  0  0  0  0  0  0
  186.4890  177.9100  142.2130 C   0  0  1  0  0  3  0  0  0  0  0  0
  183.4450  178.7310  144.3900 C   0  0  0  0  0  0  0  0  0  0  0  0
  184.0330  178.7210  145.6550 C   0  0  0  0  0  3  0  0  0  0  0  0
  182.0700  178.9400  144.2630 C   0  0  0  0  0  3  0  0  0  0  0  0
  185.8360  177.9610  140.8750 N   0  0  1  0  0  0  0  0  0  0  0  0
  184.5470  178.6560  140.7410 C   0  0  1  0  0  3  0  0  0  0  0  0
  186.7790  179.0120  141.3060 C   0  0  2  0  0  3  0  0  0  0  0  0
  185.4080  178.5140  145.7860 C   0  0  0  0  0  0  0  0  0  0  0  0
  181.4870  178.9930  142.9960 C   0  0  0  0  0  3  0  0  0  0  0  0
  181.8880  178.7610  138.0410 C   0  0  0  0  0  0  0  0  0  0  0  0
  182.1330  175.8460  136.1230 O   0  0  0  0  0  1  0  0  0  0  0  0
  181.1220  179.6740  137.3910 F   0  0  0  0  0  0  0  0  0  0  0  0
  183.6980  176.3290  137.8050 C   0  0  0  0  0  3  0  0  0  0  0  0
  183.8620  178.2140  139.4750 C   0  0  0  0  0  0  0  0  0  0  0  0
  181.4560  177.3340  137.9920 C   0  0  0  0  0  2  0  0  0  0  0  0
  184.2070  177.0010  139.0160 C   0  0  0  0  0  3  0  0  0  0  0  0
  182.9620  179.1590  138.7420 C   0  0  0  0  0  0  0  0  0  0  0  0
  183.2490  180.6250  138.8170 C   0  0  0  0  0  1  0  0  0  0  0  0
  182.4770  176.4980  137.2990 C   0  0  0  0  0  0  0  0  0  0  0  0
  189.0650  178.0780  141.5830 C   0  0  0  0  0  2  0  0  0  0  0  0
  189.0720  176.8350  139.5190 C   0  0  0  0  0  2  0  0  0  0  0  0
  187.9670  177.8740  139.4320 C   0  0  2  0  0  3  0  0  0  0  0  0
  188.1190  178.6790  138.1560 C   0  0  0  0  0  1  0  0  0  0  0  0
  189.9400  177.2200  140.6990 C   0  0  0  0  0  2  0  0  0  0  0  0
  188.1220  178.7870  140.6350 C   0  0  1  0  0  3  0  0  0  0  0  0
  186.0390  178.5210  147.1340 C   0  0  0  0  0  2  0  0  0  0  0  0
  187.4160  177.8910  147.0700 C   0  0  0  0  0  1  0  0  0  0  0  0
  1  4  1  0  0  0  0
  2  5  1  0  0  0  0
  3  1  2  0  0  0  0
  3 14  1  0  0  0  0
  4  2  2  0  0  0  0
  4  7  1  0  0  0  0
  5 13  2  0  0  0  0
  6  2  1  1  0  0  0
  7  8  2  0  0  0  0
  8 13  1  0  0  0  0
  9  7  1  0  0  0  0
 10 12  1  0  0  0  0
 10  6  1  0  0  0  0
 11 10  1  0  0  0  0
 11  1  1  0  0  0  0
 12  6  1  0  0  0  0
 13 31  1  0  0  0  0
 14  9  2  0  0  0  0
 15 22  2  0  0  0  0
 16 24  1  0  0  0  0
 17 15  1  0  0  0  0
 18 21  1  0  0  0  0
 19 11  1  0  0  0  0
 20 15  1  0  0  0  0
 21 19  2  0  0  0  0
 22 23  1  0  0  0  0
 22 19  1  0  0  0  0
 24 18  2  0  0  0  0
 24 20  1  0  0  0  0
 26 29  1  0  0  0  0
 27 26  1  0  0  0  0
 27 30  1  0  0  0  0
 28 27  1  0  0  0  0
 29 25  1  0  0  0  0
 30 12  1  0  0  0  0
 30 25  1  0  0  0  0
 32 31  1  0  0  0  0
M  END
>  <MODEL>
3

>  <REMARK>
 VINA RESULT:      -8.1      1.370      1.820
  Name = 
  3 active torsions:
  status: ('A' for Active; 'I' for Inactive)
    1  A    between atoms: C_13  and  C_29
    2  A    between atoms: C_16  and  C_27
    3  A    between atoms: C_28  and  C_32
                            x       y       z     vdW  Elec       q    Type
                         _______ _______ _______ _____ _____    ______ ____

>  <TORSDO>
F 3

$$$$
=
 OpenBabel11052414343D

 32 37  0  0  1  0  0  0  0  0999 V2000
  186.6870  177.9970  143.6280 C   0  0  0  0  0  0  0  0  0  0  0  0
  186.1810  178.6550  141.3450 C   0  0  0  0  0  0  0  0  0  0  0  0
  186.2370  177.7260  144.9320 C   0  0  0  0  0  3  0  0  0  0  0  0
  185.7610  178.3890  142.6560 C   0  0  0  0  0  0  0  0  0  0  0  0
  185.2340  179.0030  140.3750 C   0  0  0  0  0  3  0  0  0  0  0  0
  187.6330  178.7480  140.9660 C   0  0  1  0  0  3  0  0  0  0  0  0
  184.3890  178.5030  142.9900 C   0  0  0  0  0  0  0  0  0  0  0  0
  183.4570  178.8440  142.0100 C   0  0  0  0  0  3  0  0  0  0  0  0
  183.9660  178.2600  144.2980 C   0  0  0  0  0  3  0  0  0  0  0  0
  188.5970  178.3480  142.0280 N   0  0  1  0  0  0  0  0  0  0  0  0
  188.0940  177.6350  143.2110 C   0  0  1  0  0  3  0  0  0  0  0  0
  188.2900  177.4510  140.8980 C   0  0  2  0  0  3  0  0  0  0  0  0
  183.8760  179.0860  140.6990 C   0  0  0  0  0  0  0  0  0  0  0  0
  184.8910  177.8780  145.2710 C   0  0  0  0  0  3  0  0  0  0  0  0
  191.5260  178.1980  144.7220 C   0  0  0  0  0  0  0  0  0  0  0  0
  191.4760  177.0930  148.0400 O   0  0  0  0  0  1  0  0  0  0  0  0
  192.6260  178.9640  144.5110 F   0  0  0  0  0  0  0  0  0  0  0  0
  189.5210  177.1280  146.7420 C   0  0  0  0  0  3  0  0  0  0  0  0
  189.1010  177.7290  144.3270 C   0  0  0  0  0  0  0  0  0  0  0  0
  191.6820  176.9800  145.5680 C   0  0  0  0  0  2  0  0  0  0  0  0
  188.7350  177.1750  145.4930 C   0  0  0  0  0  3  0  0  0  0  0  0
  190.3600  178.5150  144.1350 C   0  0  0  0  0  0  0  0  0  0  0  0
  190.3330  179.6970  143.2180 C   0  0  0  0  0  1  0  0  0  0  0  0
  190.8510  177.0840  146.8010 C   0  0  0  0  0  0  0  0  0  0  0  0
  190.5550  176.5960  140.3360 C   0  0  0  0  0  2  0  0  0  0  0  0
  190.0350  176.0080  138.0590 C   0  0  0  0  0  2  0  0  0  0  0  0
  188.9640  176.9690  138.5460 C   0  0  2  0  0  3  0  0  0  0  0  0
  188.8190  178.1160  137.5650 C   0  0  0  0  0  1  0  0  0  0  0  0
  191.1710  176.0790  139.0580 C   0  0  0  0  0  2  0  0  0  0  0  0
  189.4260  177.5010  139.8920 C   0  0  1  0  0  3  0  0  0  0  0  0
  182.8800  179.4330  139.6500 C   0  0  0  0  0  2  0  0  0  0  0  0
  183.1480  178.6310  138.3910 C   0  0  0  0  0  1  0  0  0  0  0  0
  1  3  1  0  0  0  0
  2  4  1  0  0  0  0
  3 14  2  0  0  0  0
  4  7  1  0  0  0  0
  4  1  2  0  0  0  0
  5 13  1  0  0  0  0
  5  2  2  0  0  0  0
  6  2  1  1  0  0  0
  6 10  1  0  0  0  0
  7  9  2  0  0  0  0
  8  7  1  0  0  0  0
  9 14  1  0  0  0  0
 10 11  1  0  0  0  0
 11  1  1  0  0  0  0
 11 19  1  0  0  0  0
 12  6  1  0  0  0  0
 12 10  1  0  0  0  0
 13  8  2  0  0  0  0
 15 20  1  0  0  0  0
 17 15  1  0  0  0  0
 18 24  2  0  0  0  0
 19 21  2  0  0  0  0
 20 24  1  0  0  0  0
 21 18  1  0  0  0  0
 22 19  1  0  0  0  0
 22 15  2  0  0  0  0
 23 22  1  0  0  0  0
 24 16  1  0  0  0  0
 26 27  1  0  0  0  0
 26 29  1  0  0  0  0
 27 30  1  0  0  0  0
 28 27  1  0  0  0  0
 29 25  1  0  0  0  0
 30 25  1  0  0  0  0
 30 12  1  0  0  0  0
 31 13  1  0  0  0  0
 32 31  1  0  0  0  0
M  END
>  <MODEL>
4

>  <REMARK>
 VINA RESULT:      -7.6      3.758      6.847
  Name = 
  3 active torsions:
  status: ('A' for Active; 'I' for Inactive)
    1  A    between atoms: C_13  and  C_29
    2  A    between atoms: C_16  and  C_27
    3  A    between atoms: C_28  and  C_32
                            x       y       z     vdW  Elec       q    Type
                         _______ _______ _______ _____ _____    ______ ____

>  <TORSDO>
F 3

$$$$
=
 OpenBabel11052414343D

 32 37  0  0  1  0  0  0  0  0999 V2000
  185.3850  178.1850  138.7980 C   0  0  0  0  0  0  0  0  0  0  0  0
  187.2630  178.3740  140.3270 C   0  0  0  0  0  0  0  0  0  0  0  0
  184.8870  177.7880  137.5450 C   0  0  0  0  0  3  0  0  0  0  0  0
  186.7420  177.9970  139.0820 C   0  0  0  0  0  0  0  0  0  0  0  0
  188.6130  178.1370  140.6100 C   0  0  0  0  0  3  0  0  0  0  0  0
  186.4730  179.1790  141.3220 C   0  0  1  0  0  3  0  0  0  0  0  0
  187.5920  177.4080  138.1140 C   0  0  0  0  0  0  0  0  0  0  0  0
  188.9340  177.1720  138.4140 C   0  0  0  0  0  3  0  0  0  0  0  0
  187.0860  177.0490  136.8630 C   0  0  0  0  0  3  0  0  0  0  0  0
  185.0380  179.3840  140.9820 N   0  0  1  0  0  0  0  0  0  0  0  0
  184.4400  178.5750  139.9110 C   0  0  1  0  0  3  0  0  0  0  0  0
  185.4480  178.4000  142.0030 C   0  0  2  0  0  3  0  0  0  0  0  0
  189.4450  177.5280  139.6650 C   0  0  0  0  0  0  0  0  0  0  0  0
  185.7340  177.2450  136.5770 C   0  0  0  0  0  3  0  0  0  0  0  0
  180.8310  178.6670  138.7520 C   0  0  0  0  0  0  0  0  0  0  0  0
  180.1730  181.8280  137.4070 O   0  0  0  0  0  1  0  0  0  0  0  0
  179.6620  178.0160  138.9840 F   0  0  0  0  0  0  0  0  0  0  0  0
  182.2280  181.3480  138.4340 C   0  0  0  0  0  3  0  0  0  0  0  0
  183.1710  179.2290  139.4300 C   0  0  0  0  0  0  0  0  0  0  0  0
  180.9400  179.4680  137.4990 C   0  0  0  0  0  2  0  0  0  0  0  0
  183.3000  180.4800  138.9600 C   0  0  0  0  0  3  0  0  0  0  0  0
  181.8570  178.5360  139.6090 C   0  0  0  0  0  0  0  0  0  0  0  0
  181.6830  177.6240  140.7810 C   0  0  0  0  0  1  0  0  0  0  0  0
  181.1350  180.9120  137.8120 C   0  0  0  0  0  0  0  0  0  0  0  0
  183.7280  179.2870  143.5630 C   0  0  0  0  0  2  0  0  0  0  0  0
  184.3950  177.9450  145.4480 C   0  0  0  0  0  2  0  0  0  0  0  0
  185.5430  177.9520  144.4530 C   0  0  2  0  0  3  0  0  0  0  0  0
  186.8270  178.3550  145.1530 C   0  0  0  0  0  1  0  0  0  0  0  0
  183.4490  179.0500  145.0270 C   0  0  0  0  0  2  0  0  0  0  0  0
  185.1990  178.9750  143.3860 C   0  0  1  0  0  3  0  0  0  0  0  0
  190.8720  177.2610  139.9910 C   0  0  0  0  0  2  0  0  0  0  0  0
  191.1280  177.5190  141.4640 C   0  0  0  0  0  1  0  0  0  0  0  0
  1  4  1  0  0  0  0
  1 11  1  0  0  0  0
  2  5  1  0  0  0  0
  3  1  2  0  0  0  0
  4  2  2  0  0  0  0
  6  2  1  6  0  0  0
  6 12  1  0  0  0  0
  7  8  2  0  0  0  0
  7  4  1  0  0  0  0
  8 13  1  0  0  0  0
  9  7  1  0  0  0  0
 10  6  1  0  0  0  0
 10 12  1  0  0  0  0
 11 10  1  0  0  0  0
 12 30  1  0  0  0  0
 13 31  1  0  0  0  0
 13  5  2  0  0  0  0
 14  9  2  0  0  0  0
 14  3  1  0  0  0  0
 15 17  1  0  0  0  0
 15 22  2  0  0  0  0
 16 24  1  0  0  0  0
 18 21  1  0  0  0  0
 19 22  1  0  0  0  0
 19 11  1  0  0  0  0
 20 24  1  0  0  0  0
 20 15  1  0  0  0  0
 21 19  2  0  0  0  0
 22 23  1  0  0  0  0
 24 18  2  0  0  0  0
 25 29  1  0  0  0  0
 27 28  1  0  0  0  0
 27 26  1  0  0  0  0
 29 26  1  0  0  0  0
 30 25  1  0  0  0  0
 30 27  1  0  0  0  0
 31 32  1  0  0  0  0
M  END
>  <MODEL>
5

>  <REMARK>
 VINA RESULT:      -7.6      1.714      5.508
  Name = 
  3 active torsions:
  status: ('A' for Active; 'I' for Inactive)
    1  A    between atoms: C_13  and  C_29
    2  A    between atoms: C_16  and  C_27
    3  A    between atoms: C_28  and  C_32
                            x       y       z     vdW  Elec       q    Type
                         _______ _______ _______ _____ _____    ______ ____

>  <TORSDO>
F 3

$$$$
=
 OpenBabel11052414343D

 32 37  0  0  1  0  0  0  0  0999 V2000
  185.8930  178.4110  141.7300 C   0  0  0  0  0  0  0  0  0  0  0  0
  184.5700  178.3890  143.7670 C   0  0  0  0  0  0  0  0  0  0  0  0
  185.9510  178.5530  140.3330 C   0  0  0  0  0  3  0  0  0  0  0  0
  184.6550  178.5160  142.3740 C   0  0  0  0  0  0  0  0  0  0  0  0
  183.3300  178.5420  144.3980 C   0  0  0  0  0  3  0  0  0  0  0  0
  185.7270  177.9290  144.6080 C   0  0  1  0  0  3  0  0  0  0  0  0
  183.4830  178.7670  141.6180 C   0  0  0  0  0  0  0  0  0  0  0  0
  182.2560  178.9230  142.2620 C   0  0  0  0  0  3  0  0  0  0  0  0
  183.5570  178.8730  140.2280 C   0  0  0  0  0  3  0  0  0  0  0  0
  187.0270  177.8030  143.8920 N   0  0  1  0  0  0  0  0  0  0  0  0
  187.1600  178.3960  142.5530 C   0  0  1  0  0  3  0  0  0  0  0  0
  186.7520  178.9500  144.7790 C   0  0  2  0  0  3  0  0  0  0  0  0
  182.1780  178.8190  143.6540 C   0  0  0  0  0  0  0  0  0  0  0  0
  184.7910  178.7600  139.5850 C   0  0  0  0  0  3  0  0  0  0  0  0
  190.3590  176.3780  142.2840 C   0  0  0  0  0  0  0  0  0  0  0  0
  191.8050  176.9970  139.1600 O   0  0  0  0  0  1  0  0  0  0  0  0
  190.9300  175.2810  142.8440 F   0  0  0  0  0  0  0  0  0  0  0  0
  189.7020  177.8760  139.7200 C   0  0  0  0  0  3  0  0  0  0  0  0
  188.3390  177.7860  141.8430 C   0  0  0  0  0  0  0  0  0  0  0  0
  191.2500  177.3280  141.5570 C   0  0  0  0  0  2  0  0  0  0  0  0
  188.6140  178.2880  140.6290 C   0  0  0  0  0  3  0  0  0  0  0  0
  189.0440  176.6070  142.4380 C   0  0  0  0  0  0  0  0  0  0  0  0
  188.2570  175.6490  143.2750 C   0  0  0  0  0  1  0  0  0  0  0  0
  190.8810  177.3990  140.1150 C   0  0  0  0  0  0  0  0  0  0  0  0
  186.4600  178.5130  147.2080 C   0  0  0  0  0  2  0  0  0  0  0  0
  188.0650  176.7210  147.3270 C   0  0  0  0  0  2  0  0  0  0  0  0
  188.3320  177.4990  146.0500 C   0  0  2  0  0  3  0  0  0  0  0  0
  189.7940  177.8940  145.9840 C   0  0  0  0  0  1  0  0  0  0  0  0
  187.1460  177.5770  148.1740 C   0  0  0  0  0  2  0  0  0  0  0  0
  187.4670  178.7460  146.1020 C   0  0  1  0  0  3  0  0  0  0  0  0
  180.8720  179.0030  144.3440 C   0  0  0  0  0  2  0  0  0  0  0  0
  179.7350  178.6000  143.4250 C   0  0  0  0  0  1  0  0  0  0  0  0
  1  4  1  0  0  0  0
  1 11  1  0  0  0  0
  2  5  1  0  0  0  0
  3  1  2  0  0  0  0
  4  2  2  0  0  0  0
  6  2  1  6  0  0  0
  6 12  1  0  0  0  0
  7  8  2  0  0  0  0
  7  4  1  0  0  0  0
  8 13  1  0  0  0  0
  9  7  1  0  0  0  0
 10  6  1  0  0  0  0
 10 12  1  0  0  0  0
 11 10  1  0  0  0  0
 12 30  1  0  0  0  0
 13 31  1  0  0  0  0
 13  5  2  0  0  0  0
 14  9  2  0  0  0  0
 14  3  1  0  0  0  0
 15 22  2  0  0  0  0
 15 17  1  0  0  0  0
 16 24  1  0  0  0  0
 18 24  2  0  0  0  0
 18 21  1  0  0  0  0
 19 22  1  0  0  0  0
 19 11  1  0  0  0  0
 20 15  1  0  0  0  0
 21 19  2  0  0  0  0
 22 23  1  0  0  0  0
 24 20  1  0  0  0  0
 25 29  1  0  0  0  0
 26 29  1  0  0  0  0
 27 30  1  0  0  0  0
 27 26  1  0  0  0  0
 28 27  1  0  0  0  0
 30 25  1  0  0  0  0
 32 31  1  0  0  0  0
M  END
>  <MODEL>
6

>  <REMARK>
 VINA RESULT:      -7.3      3.316      7.024
  Name = 
  3 active torsions:
  status: ('A' for Active; 'I' for Inactive)
    1  A    between atoms: C_13  and  C_29
    2  A    between atoms: C_16  and  C_27
    3  A    between atoms: C_28  and  C_32
                            x       y       z     vdW  Elec       q    Type
                         _______ _______ _______ _____ _____    ______ ____

>  <TORSDO>
F 3

$$$$
=
 OpenBabel11052414343D

 32 37  0  0  1  0  0  0  0  0999 V2000
  184.3380  178.8610  142.3020 C   0  0  0  0  0  0  0  0  0  0  0  0
  186.5240  178.0340  142.9640 C   0  0  0  0  0  0  0  0  0  0  0  0
  183.0610  179.3190  142.6700 C   0  0  0  0  0  3  0  0  0  0  0  0
  185.2410  178.4850  143.3020 C   0  0  0  0  0  0  0  0  0  0  0  0
  187.4300  177.7060  143.9790 C   0  0  0  0  0  3  0  0  0  0  0  0
  186.9240  177.7260  141.5480 C   0  0  1  0  0  3  0  0  0  0  0  0
  184.8650  178.5750  144.6650 C   0  0  0  0  0  0  0  0  0  0  0  0
  185.7810  178.2500  145.6660 C   0  0  0  0  0  3  0  0  0  0  0  0
  183.5810  179.0030  145.0100 C   0  0  0  0  0  3  0  0  0  0  0  0
  185.9330  178.1140  140.5050 N   0  0  1  0  0  0  0  0  0  0  0  0
  184.8230  179.0020  140.8780 C   0  0  1  0  0  3  0  0  0  0  0  0
  187.1470  178.9190  140.7430 C   0  0  2  0  0  3  0  0  0  0  0  0
  187.0670  177.8240  145.3250 C   0  0  0  0  0  0  0  0  0  0  0  0
  182.6770  179.3690  144.0120 C   0  0  0  0  0  3  0  0  0  0  0  0
  182.6420  177.2510  138.3180 C   0  0  0  0  0  0  0  0  0  0  0  0
  180.8780  179.6730  136.5140 O   0  0  0  0  0  1  0  0  0  0  0  0
  182.0900  176.0290  138.1050 F   0  0  0  0  0  0  0  0  0  0  0  0
  182.2220  180.2620  138.3470 C   0  0  0  0  0  3  0  0  0  0  0  0
  183.7270  178.9030  139.8500 C   0  0  0  0  0  0  0  0  0  0  0  0
  182.7520  178.1740  137.1520 C   0  0  0  0  0  2  0  0  0  0  0  0
  183.2820  180.0690  139.3550 C   0  0  0  0  0  3  0  0  0  0  0  0
  183.1150  177.5750  139.5330 C   0  0  0  0  0  0  0  0  0  0  0  0
  183.0550  176.5390  140.6100 C   0  0  0  0  0  1  0  0  0  0  0  0
  181.9350  179.4010  137.3720 C   0  0  0  0  0  0  0  0  0  0  0  0
  189.3150  177.8210  140.2260 C   0  0  0  0  0  2  0  0  0  0  0  0
  188.5350  176.6520  138.2700 C   0  0  0  0  0  2  0  0  0  0  0  0
  187.5480  177.7680  138.5690 C   0  0  2  0  0  3  0  0  0  0  0  0
  187.3250  178.6040  137.3240 C   0  0  0  0  0  1  0  0  0  0  0  0
  189.7750  176.9360  139.0920 C   0  0  0  0  0  2  0  0  0  0  0  0
  188.1670  178.6260  139.6580 C   0  0  1  0  0  3  0  0  0  0  0  0
  188.0510  177.4940  146.3920 C   0  0  0  0  0  2  0  0  0  0  0  0
  189.3960  177.1600  145.7770 C   0  0  0  0  0  1  0  0  0  0  0  0
  1  3  2  0  0  0  0
  1  4  1  0  0  0  0
  2  4  2  0  0  0  0
  2  5  1  0  0  0  0
  3 14  1  0  0  0  0
  4  7  1  0  0  0  0
  5 13  2  0  0  0  0
  6  2  1  1  0  0  0
  7  9  1  0  0  0  0
  7  8  2  0  0  0  0
 10 12  1  0  0  0  0
 10 11  1  0  0  0  0
 10  6  1  0  0  0  0
 11  1  1  0  0  0  0
 12  6  1  0  0  0  0
 13  8  1  0  0  0  0
 13 31  1  0  0  0  0
 14  9  2  0  0  0  0
 15 22  2  0  0  0  0
 16 24  1  0  0  0  0
 17 15  1  0  0  0  0
 18 21  1  0  0  0  0
 19 11  1  0  0  0  0
 20 24  1  0  0  0  0
 20 15  1  0  0  0  0
 21 19  2  0  0  0  0
 22 19  1  0  0  0  0
 22 23  1  0  0  0  0
 24 18  2  0  0  0  0
 26 27  1  0  0  0  0
 26 29  1  0  0  0  0
 27 30  1  0  0  0  0
 28 27  1  0  0  0  0
 29 25  1  0  0  0  0
 30 25  1  0  0  0  0
 30 12  1  0  0  0  0
 32 31  1  0  0  0  0
M  END
>  <MODEL>
7

>  <REMARK>
 VINA RESULT:      -7.1      1.367      1.969
  Name = 
  3 active torsions:
  status: ('A' for Active; 'I' for Inactive)
    1  A    between atoms: C_13  and  C_29
    2  A    between atoms: C_16  and  C_27
    3  A    between atoms: C_28  and  C_32
                            x       y       z     vdW  Elec       q    Type
                         _______ _______ _______ _____ _____    ______ ____

>  <TORSDO>
F 3

$$$$
=
 OpenBabel11052414343D

 32 37  0  0  1  0  0  0  0  0999 V2000
  190.4390  176.5880  143.3420 C   0  0  0  0  0  0  0  0  0  0  0  0
  188.9450  177.8560  144.7780 C   0  0  0  0  0  0  0  0  0  0  0  0
  191.4930  175.6670  143.2130 C   0  0  0  0  0  3  0  0  0  0  0  0
  190.0010  176.9470  144.6210 C   0  0  0  0  0  0  0  0  0  0  0  0
  188.4910  178.1690  146.0640 C   0  0  0  0  0  3  0  0  0  0  0  0
  188.3820  178.6440  143.6280 C   0  0  1  0  0  3  0  0  0  0  0  0
  190.6150  176.3800  145.7650 C   0  0  0  0  0  0  0  0  0  0  0  0
  190.1460  176.6970  147.0400 C   0  0  0  0  0  3  0  0  0  0  0  0
  191.6810  175.4900  145.6180 C   0  0  0  0  0  3  0  0  0  0  0  0
  188.8840  178.2570  142.2810 N   0  0  1  0  0  0  0  0  0  0  0  0
  189.6260  176.9960  142.1360 C   0  0  1  0  0  3  0  0  0  0  0  0
  187.5440  177.8470  142.7440 C   0  0  2  0  0  3  0  0  0  0  0  0
  189.0780  177.5860  147.1910 C   0  0  0  0  0  0  0  0  0  0  0  0
  192.1240  175.1390  144.3410 C   0  0  0  0  0  3  0  0  0  0  0  0
  190.3240  176.1470  138.5070 C   0  0  0  0  0  0  0  0  0  0  0  0
  193.6410  176.9900  137.7850 O   0  0  0  0  0  1  0  0  0  0  0  0
  189.6410  175.9430  137.3520 F   0  0  0  0  0  0  0  0  0  0  0  0
  192.6800  177.5080  139.8630 C   0  0  0  0  0  3  0  0  0  0  0  0
  190.4100  177.0150  140.8510 C   0  0  0  0  0  0  0  0  0  0  0  0
  191.7220  175.6330  138.5850 C   0  0  0  0  0  2  0  0  0  0  0  0
  191.6930  177.3970  140.9550 C   0  0  0  0  0  3  0  0  0  0  0  0
  189.7230  176.7450  139.5490 C   0  0  0  0  0  0  0  0  0  0  0  0
  188.2840  177.1280  139.4060 C   0  0  0  0  0  1  0  0  0  0  0  0
  192.6870  176.7540  138.7650 C   0  0  0  0  0  0  0  0  0  0  0  0
  186.5040  178.5320  140.5930 C   0  0  0  0  0  2  0  0  0  0  0  0
  184.2260  178.2530  141.3250 C   0  0  0  0  0  2  0  0  0  0  0  0
  185.1050  178.3310  142.5620 C   0  0  2  0  0  3  0  0  0  0  0  0
  184.5640  179.3830  143.5110 C   0  0  0  0  0  1  0  0  0  0  0  0
  185.0700  178.7270  140.1610 C   0  0  0  0  0  2  0  0  0  0  0  0
  186.4940  178.7290  142.0940 C   0  0  1  0  0  3  0  0  0  0  0  0
  188.5660  177.9110  148.5500 C   0  0  0  0  0  2  0  0  0  0  0  0
  187.2320  178.6260  148.4480 C   0  0  0  0  0  1  0  0  0  0  0  0
  1  4  1  0  0  0  0
  2  5  1  0  0  0  0
  3  1  2  0  0  0  0
  3 14  1  0  0  0  0
  4  2  2  0  0  0  0
  4  7  1  0  0  0  0
  5 13  2  0  0  0  0
  6  2  1  1  0  0  0
  7  8  2  0  0  0  0
  8 13  1  0  0  0  0
  9  7  1  0  0  0  0
 10 12  1  0  0  0  0
 10  6  1  0  0  0  0
 11 10  1  0  0  0  0
 11  1  1  0  0  0  0
 12  6  1  0  0  0  0
 13 31  1  0  0  0  0
 14  9  2  0  0  0  0
 15 20  1  0  0  0  0
 15 22  2  0  0  0  0
 16 24  1  0  0  0  0
 17 15  1  0  0  0  0
 18 21  1  0  0  0  0
 19 21  2  0  0  0  0
 19 11  1  0  0  0  0
 20 24  1  0  0  0  0
 22 19  1  0  0  0  0
 23 22  1  0  0  0  0
 24 18  2  0  0  0  0
 25 30  1  0  0  0  0
 26 27  1  0  0  0  0
 27 28  1  0  0  0  0
 29 25  1  0  0  0  0
 29 26  1  0  0  0  0
 30 27  1  0  0  0  0
 30 12  1  0  0  0  0
 32 31  1  0  0  0  0
M  END
>  <MODEL>
8

>  <REMARK>
 VINA RESULT:      -7.0      3.529      6.726
  Name = 
  3 active torsions:
  status: ('A' for Active; 'I' for Inactive)
    1  A    between atoms: C_13  and  C_29
    2  A    between atoms: C_16  and  C_27
    3  A    between atoms: C_28  and  C_32
                            x       y       z     vdW  Elec       q    Type
                         _______ _______ _______ _____ _____    ______ ____

>  <TORSDO>
F 3

$$$$
=
 OpenBabel11052414343D

 32 37  0  0  1  0  0  0  0  0999 V2000
  188.0590  177.5330  142.2470 C   0  0  0  0  0  0  0  0  0  0  0  0
  185.8700  178.5850  142.2880 C   0  0  0  0  0  0  0  0  0  0  0  0
  189.1090  176.9090  142.9430 C   0  0  0  0  0  3  0  0  0  0  0  0
  186.9360  177.9690  142.9580 C   0  0  0  0  0  0  0  0  0  0  0  0
  184.7350  178.9740  143.0090 C   0  0  0  0  0  3  0  0  0  0  0  0
  185.9560  179.0030  140.8460 C   0  0  1  0  0  3  0  0  0  0  0  0
  186.8650  177.7740  144.3600 C   0  0  0  0  0  0  0  0  0  0  0  0
  185.7240  178.1610  145.0630 C   0  0  0  0  0  3  0  0  0  0  0  0
  187.9310  177.1800  145.0370 C   0  0  0  0  0  3  0  0  0  0  0  0
  187.1740  178.5460  140.1210 N   0  0  1  0  0  0  0  0  0  0  0  0
  188.0220  177.5150  140.7370 C   0  0  1  0  0  3  0  0  0  0  0  0
  185.8710  177.8820  139.9200 C   0  0  2  0  0  3  0  0  0  0  0  0
  184.6540  178.7540  144.3880 C   0  0  0  0  0  0  0  0  0  0  0  0
  189.0560  176.7530  144.3290 C   0  0  0  0  0  3  0  0  0  0  0  0
  190.4960  177.1450  137.8880 C   0  0  0  0  0  0  0  0  0  0  0  0
  193.7290  177.0980  139.2210 O   0  0  0  0  0  1  0  0  0  0  0  0
  190.5560  177.3540  136.5480 F   0  0  0  0  0  0  0  0  0  0  0  0
  191.8600  177.5030  140.5820 C   0  0  0  0  0  3  0  0  0  0  0  0
  189.3830  177.5270  140.0950 C   0  0  0  0  0  0  0  0  0  0  0  0
  191.5150  176.2410  138.4940 C   0  0  0  0  0  2  0  0  0  0  0  0
  190.4280  177.4950  140.9380 C   0  0  0  0  0  3  0  0  0  0  0  0
  189.5120  177.7010  138.6140 C   0  0  0  0  0  0  0  0  0  0  0  0
  188.4760  178.5050  137.8940 C   0  0  0  0  0  1  0  0  0  0  0  0
  192.3680  176.9830  139.4660 C   0  0  0  0  0  0  0  0  0  0  0  0
  185.4390  177.2740  137.5490 C   0  0  0  0  0  2  0  0  0  0  0  0
  183.1090  177.8830  137.5630 C   0  0  0  0  0  2  0  0  0  0  0  0
  183.7710  178.5520  138.7560 C   0  0  2  0  0  3  0  0  0  0  0  0
  183.4570  180.0350  138.7530 C   0  0  0  0  0  1  0  0  0  0  0  0
  184.2250  177.4000  136.6610 C   0  0  0  0  0  2  0  0  0  0  0  0
  185.2670  178.3440  138.6060 C   0  0  1  0  0  3  0  0  0  0  0  0
  183.4290  179.1510  145.1340 C   0  0  0  0  0  2  0  0  0  0  0  0
  182.2050  178.9850  144.2560 C   0  0  0  0  0  1  0  0  0  0  0  0
  1  3  2  0  0  0  0
  1  4  1  0  0  0  0
  2  4  2  0  0  0  0
  2  5  1  0  0  0  0
  3 14  1  0  0  0  0
  4  7  1  0  0  0  0
  5 13  2  0  0  0  0
  6  2  1  1  0  0  0
  7  9  1  0  0  0  0
  7  8  2  0  0  0  0
 10 11  1  0  0  0  0
 10  6  1  0  0  0  0
 11  1  1  0  0  0  0
 12 10  1  0  0  0  0
 12  6  1  0  0  0  0
 13  8  1  0  0  0  0
 13 31  1  0  0  0  0
 14  9  2  0  0  0  0
 15 20  1  0  0  0  0
 15 22  2  0  0  0  0
 16 24  1  0  0  0  0
 17 15  1  0  0  0  0
 18 21  1  0  0  0  0
 19 11  1  0  0  0  0
 19 21  2  0  0  0  0
 20 24  1  0  0  0  0
 22 19  1  0  0  0  0
 23 22  1  0  0  0  0
 24 18  2  0  0  0  0
 25 30  1  0  0  0  0
 26 27  1  0  0  0  0
 28 27  1  0  0  0  0
 29 25  1  0  0  0  0
 29 26  1  0  0  0  0
 30 27  1  0  0  0  0
 30 12  1  0  0  0  0
 32 31  1  0  0  0  0
M  END
>  <MODEL>
9

>  <REMARK>
 VINA RESULT:      -6.9      3.307      6.192
  Name = 
  3 active torsions:
  status: ('A' for Active; 'I' for Inactive)
    1  A    between atoms: C_13  and  C_29
    2  A    between atoms: C_16  and  C_27
    3  A    between atoms: C_28  and  C_32
                            x       y       z     vdW  Elec       q    Type
                         _______ _______ _______ _____ _____    ______ ____

>  <TORSDO>
F 3

$$$$
