=
 OpenBabel11052414533D

 55 61  0  0  1  0  0  0  0  0999 V2000
  189.1650  176.8010  138.6700 C   0  0  0  0  0  2  0  0  0  0  0  0
  184.3370  177.5600  141.1070 O   0  0  0  0  0  0  0  0  0  0  0  0
  187.5830  179.5850  141.5640 C   0  0  0  0  0  1  0  0  0  0  0  0
  189.8200  178.8970  143.4750 C   0  0  0  0  0  2  0  0  0  0  0  0
  190.6080  179.1400  144.7550 C   0  0  0  0  0  2  0  0  0  0  0  0
  189.8970  176.3990  143.9690 C   0  0  1  0  0  3  0  0  0  0  0  0
  190.7920  176.6960  145.1750 C   0  0  0  0  0  2  0  0  0  0  0  0
  187.1980  178.1300  141.7940 C   0  0  2  0  0  3  0  0  0  0  0  0
  191.5770  177.9930  144.9860 C   0  0  0  0  0  2  0  0  0  0  0  0
  186.7280  176.5840  138.1480 O   0  0  0  0  0  0  0  0  0  0  0  0
  189.0270  177.5850  143.5360 C   0  0  2  0  0  3  0  0  0  0  0  0
  186.1380  178.9470  135.8480 C   0  0  0  0  0  3  0  0  0  0  0  0
  188.7470  176.2950  140.0490 C   0  0  0  0  0  2  0  0  0  0  0  0
  188.2490  177.8550  136.7060 C   0  0  0  0  0  3  0  0  0  0  0  0
  190.6180  176.4280  141.4700 C   0  0  1  0  0  3  0  0  0  0  0  0
  184.7580  178.1510  139.9090 C   0  0  0  0  0  2  0  0  0  0  0  0
  190.6540  175.7040  142.8330 C   0  0  0  0  0  2  0  0  0  0  0  0
  184.7310  178.4590  142.1070 C   0  0  0  0  0  2  0  0  0  0  0  0
  186.0330  178.0010  142.7630 C   0  0  0  0  0  2  0  0  0  0  0  0
  185.6070  176.4710  137.2750 C   0  0  0  0  0  2  0  0  0  0  0  0
  183.9130  177.6600  138.7390 C   0  0  2  0  0  3  0  0  0  0  0  0
  187.9830  177.1200  137.8020 C   0  0  0  0  0  0  0  0  0  0  0  0
  188.3810  177.2320  142.1890 C   0  0  2  0  0  3  0  0  0  0  0  0
  189.3610  177.1110  141.0930 N   0  0  2  0  0  0  0  0  0  0  0  0
  184.6910  177.6830  137.4050 C   0  0  1  0  0  3  0  0  0  0  0  0
  185.4420  178.9910  137.1650 C   0  0  0  0  0  2  0  0  0  0  0  0
  187.3590  178.4390  135.6750 C   0  0  0  0  0  3  0  0  0  0  0  0
  181.2530  180.4780  138.6670 C   0  0  1  0  0  3  0  0  0  0  0  0
  178.9350  179.0060  136.3370 C   0  0  0  0  0  3  0  0  0  0  0  0
  179.6040  179.9620  136.9320 C   0  0  0  0  0  0  0  0  0  0  0  0
  182.1300  175.3250  138.2170 O   0  0  0  0  0  0  0  0  0  0  0  0
  182.5200  178.3390  138.7490 C   0  0  2  0  0  0  0  0  0  0  0  0
  179.6640  177.9840  135.5250 C   0  0  0  0  0  2  0  0  0  0  0  0
  179.5190  176.5970  136.1440 C   0  0  0  0  0  2  0  0  0  0  0  0
  181.5160  176.2090  137.6360 C   0  0  0  0  0  0  0  0  0  0  0  0
  182.4760  179.6900  138.1660 C   0  0  1  0  0  3  0  0  0  0  0  0
  181.3610  177.5660  138.2580 C   0  0  2  0  0  3  0  0  0  0  0  0
  181.6840  181.5890  139.3750 F   0  0  0  0  0  0  0  0  0  0  0  0
  180.8880  175.9260  136.2950 C   0  0  0  0  0  2  0  0  0  0  0  0
  182.0320  178.5350  137.3640 N   0  0  2  0  0  0  0  0  0  0  0  0
  180.3240  180.8780  137.5410 C   0  0  0  0  0  0  0  0  0  0  0  0
  180.1370  182.3210  137.1900 C   0  0  0  0  0  2  0  0  0  0  0  0
  181.3040  181.5060  134.8660 O   0  0  0  0  0  1  0  0  0  0  0  0
  181.1670  184.0970  135.2050 O   0  0  0  0  0  1  0  0  0  0  0  0
  180.4130  182.5970  135.4150 P   0  0  0  0  0  0  0  0  0  0  0  0
  178.9310  182.5860  134.5960 O   0  0  0  0  0  0  0  0  0  0  0  0
  192.4820  177.7350  142.1460 O   0  0  0  0  0  0  0  0  0  0  0  0
  191.8310  177.2790  141.2200 C   0  0  0  0  0  0  0  0  0  0  0  0
  192.2570  177.5500  139.8190 C   0  0  0  0  0  2  0  0  0  0  0  0
  193.0500  176.1050  137.9090 C   0  0  0  0  0  0  0  0  0  0  0  0
  192.2190  176.3140  139.0520 N   0  0  0  0  0  2  0  0  0  0  0  0
  193.8320  177.0130  137.5110 O   0  0  0  0  0  0  0  0  0  0  0  0
  192.9590  174.8320  137.1370 C   0  0  0  0  0  3  0  0  0  0  0  0
  191.5710  174.2310  137.2560 C   0  0  0  0  0  1  0  0  0  0  0  0
  193.9980  173.8360  137.6170 C   0  0  0  0  0  1  0  0  0  0  0  0
  1 13  1  0  0  0  0
  2 18  1  0  0  0  0
  4  5  1  0  0  0  0
  5  9  1  0  0  0  0
  6 17  1  6  0  0  0
  6  7  1  0  0  0  0
  8  3  1  1  0  0  0
  8 23  1  0  0  0  0
  8 19  1  0  0  0  0
  9  7  1  0  0  0  0
 11  4  1  6  0  0  0
 11  6  1  0  0  0  0
 12 26  1  0  0  0  0
 13 24  1  0  0  0  0
 14 22  2  0  0  0  0
 15 48  1  1  0  0  0
 15 17  1  0  0  0  0
 16  2  1  0  0  0  0
 18 19  1  0  0  0  0
 20 25  1  0  0  0  0
 20 10  1  0  0  0  0
 21 32  1  0  0  0  0
 21 16  1  1  0  0  0
 22 10  1  0  0  0  0
 22  1  1  0  0  0  0
 23 11  1  0  0  0  0
 24 15  1  0  0  0  0
 24 23  1  0  0  0  0
 25 21  1  0  0  0  0
 26 25  1  0  0  0  0
 27 12  2  0  0  0  0
 27 14  1  0  0  0  0
 28 38  1  0  0  0  0
 29 30  2  0  0  0  0
 30 41  2  0  0  0  0
 33 34  1  0  0  0  0
 33 29  1  0  0  0  0
 34 39  1  0  0  0  0
 35 31  2  0  0  0  0
 35 37  1  0  0  0  0
 36 28  1  0  0  0  0
 36 32  1  0  0  0  0
 37 32  1  0  0  0  0
 39 35  1  0  0  0  0
 40 36  1  0  0  0  0
 40 37  1  0  0  0  0
 40 32  1  0  0  0  0
 41 28  1  0  0  0  0
 42 41  1  0  0  0  0
 43 45  1  0  0  0  0
 44 45  1  0  0  0  0
 45 42  1  0  0  0  0
 46 45  2  0  0  0  0
 48 47  2  0  0  0  0
 49 48  1  0  0  0  0
 50 51  1  0  0  0  0
 51 49  1  0  0  0  0
 52 50  2  0  0  0  0
 53 54  1  0  0  0  0
 53 55  1  0  0  0  0
 53 50  1  0  0  0  0
M  END
>  <MODEL>
1

>  <REMARK>
 VINA RESULT:      -4.5      0.000      0.000
  Name = 
  7 active torsions:
  status: ('A' for Active; 'I' for Inactive)
    1  A    between atoms: C_8  and  C_43
    2  A    between atoms: C_10  and  C_32
    3  A    between atoms: P_29  and  C_38
    4  A    between atoms: C_33  and  C_52
    5  A    between atoms: C_34  and  N_39
    6  A    between atoms: C_34  and  C_52
    7  A    between atoms: C_38  and  C_53
                            x       y       z     vdW  Elec       q    Type
                         _______ _______ _______ _____ _____    ______ ____

>  <TORSDO>
F 7

$$$$
=
 OpenBabel11052414533D

 55 61  0  0  1  0  0  0  0  0999 V2000
  188.4730  178.4660  140.7100 C   0  0  0  0  0  2  0  0  0  0  0  0
  186.0850  177.3220  135.9340 O   0  0  0  0  0  0  0  0  0  0  0  0
  188.2490  175.0120  138.1310 C   0  0  0  0  0  1  0  0  0  0  0  0
  191.2660  174.8490  138.0570 C   0  0  0  0  0  2  0  0  0  0  0  0
  192.5580  174.1350  137.6860 C   0  0  0  0  0  2  0  0  0  0  0  0
  192.3020  177.0280  137.2390 C   0  0  1  0  0  3  0  0  0  0  0  0
  193.6170  176.2790  137.0030 C   0  0  0  0  0  2  0  0  0  0  0  0
  188.4950  176.3340  137.4160 C   0  0  2  0  0  3  0  0  0  0  0  0
  193.7400  175.0600  137.9170 C   0  0  0  0  0  2  0  0  0  0  0  0
  186.3840  179.0340  139.4560 O   0  0  0  0  0  0  0  0  0  0  0  0
  191.0640  176.1240  137.2280 C   0  0  2  0  0  3  0  0  0  0  0  0
  183.9190  177.6230  141.2300 C   0  0  0  0  0  3  0  0  0  0  0  0
  189.1220  178.5170  139.3270 C   0  0  0  0  0  2  0  0  0  0  0  0
  186.3210  178.1990  141.7590 C   0  0  0  0  0  3  0  0  0  0  0  0
  191.3450  177.7730  139.5390 C   0  0  1  0  0  3  0  0  0  0  0  0
  185.5240  177.1310  137.2040 C   0  0  0  0  0  2  0  0  0  0  0  0
  192.3840  177.9990  138.4200 C   0  0  0  0  0  2  0  0  0  0  0  0
  186.7330  176.1150  135.6440 C   0  0  0  0  0  2  0  0  0  0  0  0
  188.2310  176.2250  135.9230 C   0  0  0  0  0  2  0  0  0  0  0  0
  185.0490  179.5180  139.3380 C   0  0  0  0  0  2  0  0  0  0  0  0
  184.3230  178.0470  137.4060 C   0  0  2  0  0  3  0  0  0  0  0  0
  186.9780  178.5470  140.6370 C   0  0  0  0  0  0  0  0  0  0  0  0
  189.8690  176.9550  137.7170 C   0  0  2  0  0  3  0  0  0  0  0  0
  189.9850  177.3550  139.1330 N   0  0  2  0  0  0  0  0  0  0  0  0
  184.1050  178.4070  138.8920 C   0  0  1  0  0  3  0  0  0  0  0  0
  184.1690  177.1990  139.8230 C   0  0  0  0  0  2  0  0  0  0  0  0
  184.8740  178.0620  142.0500 C   0  0  0  0  0  3  0  0  0  0  0  0
  182.0620  175.5840  135.4440 C   0  0  1  0  0  3  0  0  0  0  0  0
  178.9320  176.2560  137.0940 C   0  0  0  0  0  3  0  0  0  0  0  0
  179.8490  175.5410  136.4910 C   0  0  0  0  0  0  0  0  0  0  0  0
  182.2930  180.1450  138.0290 O   0  0  0  0  0  0  0  0  0  0  0  0
  183.0930  177.5150  136.6270 C   0  0  2  0  0  0  0  0  0  0  0  0
  179.2210  176.8590  138.4310 C   0  0  0  0  0  2  0  0  0  0  0  0
  179.2080  178.3830  138.3530 C   0  0  0  0  0  2  0  0  0  0  0  0
  181.5790  179.1530  137.9720 C   0  0  0  0  0  0  0  0  0  0  0  0
  182.9420  176.0500  136.6170 C   0  0  1  0  0  3  0  0  0  0  0  0
  181.7760  178.1310  136.8910 C   0  0  2  0  0  3  0  0  0  0  0  0
  182.8130  174.7830  134.5990 F   0  0  0  0  0  0  0  0  0  0  0  0
  180.4760  178.9680  138.9820 C   0  0  0  0  0  2  0  0  0  0  0  0
  182.1410  176.8590  137.5530 N   0  0  2  0  0  0  0  0  0  0  0  0
  180.8150  174.8640  135.9100 C   0  0  0  0  0  0  0  0  0  0  0  0
  180.6260  173.4100  135.6150 C   0  0  0  0  0  2  0  0  0  0  0  0
  180.0920  171.1130  136.9810 O   0  0  0  0  0  0  0  0  0  0  0  0
  180.2780  173.2730  138.4470 O   0  0  0  0  0  1  0  0  0  0  0  0
  180.8610  172.4080  137.1140 P   0  0  0  0  0  0  0  0  0  0  0  0
  182.5060  172.0740  137.3290 O   0  0  0  0  0  1  0  0  0  0  0  0
  193.0720  176.9090  140.9200 O   0  0  0  0  0  0  0  0  0  0  0  0
  191.8760  176.9610  140.6860 C   0  0  0  0  0  0  0  0  0  0  0  0
  190.9230  176.2280  141.5650 C   0  0  0  0  0  2  0  0  0  0  0  0
  191.2560  176.6010  144.0380 C   0  0  0  0  0  0  0  0  0  0  0  0
  190.6980  176.9930  142.7820 N   0  0  0  0  0  2  0  0  0  0  0  0
  191.9470  175.5490  144.1320 O   0  0  0  0  0  0  0  0  0  0  0  0
  190.9770  177.4010  145.2660 C   0  0  0  0  0  3  0  0  0  0  0  0
  191.4030  176.6400  146.5080 C   0  0  0  0  0  1  0  0  0  0  0  0
  189.5050  177.7560  145.3550 C   0  0  0  0  0  1  0  0  0  0  0  0
  2 16  1  0  0  0  0
  5  9  1  0  0  0  0
  5  4  1  0  0  0  0
  6  7  1  1  0  0  0
  6 17  1  0  0  0  0
  7  9  1  0  0  0  0
  8 23  1  0  0  0  0
  8  3  1  6  0  0  0
 10 22  1  0  0  0  0
 11  6  1  0  0  0  0
 11 23  1  0  0  0  0
 11  4  1  1  0  0  0
 12 27  2  0  0  0  0
 13  1  1  0  0  0  0
 14 27  1  0  0  0  0
 15 48  1  1  0  0  0
 17 15  1  0  0  0  0
 18 19  1  0  0  0  0
 18  2  1  0  0  0  0
 19  8  1  0  0  0  0
 20 10  1  0  0  0  0
 21 16  1  1  0  0  0
 21 25  1  0  0  0  0
 22  1  1  0  0  0  0
 22 14  2  0  0  0  0
 23 24  1  0  0  0  0
 24 13  1  0  0  0  0
 24 15  1  0  0  0  0
 25 20  1  0  0  0  0
 25 26  1  0  0  0  0
 26 12  1  0  0  0  0
 28 41  1  0  0  0  0
 28 36  1  0  0  0  0
 29 33  1  0  0  0  0
 30 29  2  0  0  0  0
 32 37  1  0  0  0  0
 32 21  1  0  0  0  0
 32 40  1  0  0  0  0
 34 33  1  0  0  0  0
 34 39  1  0  0  0  0
 35 31  2  0  0  0  0
 35 39  1  0  0  0  0
 36 32  1  0  0  0  0
 36 40  1  0  0  0  0
 37 40  1  0  0  0  0
 37 35  1  0  0  0  0
 38 28  1  0  0  0  0
 41 30  2  0  0  0  0
 42 41  1  0  0  0  0
 42 45  1  0  0  0  0
 43 45  2  0  0  0  0
 45 46  1  0  0  0  0
 45 44  1  0  0  0  0
 48 47  2  0  0  0  0
 48 49  1  0  0  0  0
 49 51  1  0  0  0  0
 50 52  2  0  0  0  0
 50 53  1  0  0  0  0
 51 50  1  0  0  0  0
 53 55  1  0  0  0  0
 53 54  1  0  0  0  0
M  END
>  <MODEL>
2

>  <REMARK>
 VINA RESULT:      -2.9      2.694      6.042
  Name = 
  7 active torsions:
  status: ('A' for Active; 'I' for Inactive)
    1  A    between atoms: C_8  and  C_43
    2  A    between atoms: C_10  and  C_32
    3  A    between atoms: P_29  and  C_38
    4  A    between atoms: C_33  and  C_52
    5  A    between atoms: C_34  and  N_39
    6  A    between atoms: C_34  and  C_52
    7  A    between atoms: C_38  and  C_53
                            x       y       z     vdW  Elec       q    Type
                         _______ _______ _______ _____ _____    ______ ____

>  <TORSDO>
F 7

$$$$
=
 OpenBabel11052414533D

 55 61  0  0  1  0  0  0  0  0999 V2000
  189.1070  178.1480  138.9860 C   0  0  0  0  0  2  0  0  0  0  0  0
  185.4690  176.6290  135.2060 O   0  0  0  0  0  0  0  0  0  0  0  0
  187.8330  174.3960  137.2750 C   0  0  0  0  0  1  0  0  0  0  0  0
  190.6910  173.7340  136.5540 C   0  0  0  0  0  2  0  0  0  0  0  0
  191.7540  172.7670  136.0510 C   0  0  0  0  0  2  0  0  0  0  0  0
  191.7360  175.5470  135.1000 C   0  0  1  0  0  3  0  0  0  0  0  0
  192.8500  174.5650  134.7290 C   0  0  0  0  0  2  0  0  0  0  0  0
  188.0430  175.5220  136.2720 C   0  0  2  0  0  3  0  0  0  0  0  0
  193.0560  173.5120  135.8170 C   0  0  0  0  0  2  0  0  0  0  0  0
  186.8500  178.8320  138.1500 O   0  0  0  0  0  0  0  0  0  0  0  0
  190.4370  174.8680  135.5530 C   0  0  2  0  0  3  0  0  0  0  0  0
  184.7650  178.1570  140.6830 C   0  0  0  0  0  3  0  0  0  0  0  0
  189.3850  177.8620  137.5110 C   0  0  0  0  0  2  0  0  0  0  0  0
  187.2740  178.4150  140.5270 C   0  0  0  0  0  3  0  0  0  0  0  0
  191.4860  176.8110  137.3590 C   0  0  1  0  0  3  0  0  0  0  0  0
  185.2300  176.7460  136.5820 C   0  0  0  0  0  2  0  0  0  0  0  0
  192.2270  176.6750  136.0120 C   0  0  0  0  0  2  0  0  0  0  0  0
  185.8760  175.3010  135.0270 C   0  0  0  0  0  2  0  0  0  0  0  0
  187.3990  175.2100  134.9300 C   0  0  0  0  0  2  0  0  0  0  0  0
  185.5950  179.5000  138.2430 C   0  0  0  0  0  2  0  0  0  0  0  0
  184.2350  177.8670  136.8620 C   0  0  2  0  0  3  0  0  0  0  0  0
  187.6610  178.4590  139.2390 C   0  0  0  0  0  0  0  0  0  0  0  0
  189.5110  175.9520  136.1220 C   0  0  2  0  0  3  0  0  0  0  0  0
  190.0280  176.5580  137.3640 N   0  0  2  0  0  0  0  0  0  0  0  0
  184.4450  178.5000  138.2550 C   0  0  1  0  0  3  0  0  0  0  0  0
  184.6000  177.4690  139.3720 C   0  0  0  0  0  2  0  0  0  0  0  0
  185.9420  178.5650  141.1600 C   0  0  0  0  0  3  0  0  0  0  0  0
  181.3400  175.5880  135.6610 C   0  0  1  0  0  3  0  0  0  0  0  0
  178.9440  176.3070  138.2520 C   0  0  0  0  0  3  0  0  0  0  0  0
  179.5800  175.5840  137.3630 C   0  0  0  0  0  0  0  0  0  0  0  0
  182.6250  180.0120  138.1700 O   0  0  0  0  0  0  0  0  0  0  0  0
  182.7950  177.4200  136.5060 C   0  0  2  0  0  0  0  0  0  0  0  0
  179.6770  176.8360  139.4420 C   0  0  0  0  0  2  0  0  0  0  0  0
  179.7190  178.3610  139.4180 C   0  0  0  0  0  2  0  0  0  0  0  0
  181.8800  179.0530  138.3160 C   0  0  0  0  0  0  0  0  0  0  0  0
  182.5720  175.9640  136.5000 C   0  0  1  0  0  3  0  0  0  0  0  0
  181.6660  178.0750  137.1990 C   0  0  2  0  0  3  0  0  0  0  0  0
  181.7370  174.7960  134.5940 F   0  0  0  0  0  0  0  0  0  0  0  0
  181.1510  178.8660  139.6230 C   0  0  0  0  0  2  0  0  0  0  0  0
  182.1570  176.7600  137.6700 N   0  0  2  0  0  0  0  0  0  0  0  0
  180.2720  174.8970  136.4820 C   0  0  0  0  0  0  0  0  0  0  0  0
  179.9230  173.4660  136.2190 C   0  0  0  0  0  2  0  0  0  0  0  0
  182.2900  172.7040  137.3340 O   0  0  0  0  0  1  0  0  0  0  0  0
  180.6050  170.7630  136.8420 O   0  0  0  0  0  0  0  0  0  0  0  0
  180.8170  172.3620  137.3530 P   0  0  0  0  0  0  0  0  0  0  0  0
  180.2130  172.5410  138.9240 O   0  0  0  0  0  1  0  0  0  0  0  0
  192.3170  174.9130  138.5180 O   0  0  0  0  0  0  0  0  0  0  0  0
  192.1910  176.1260  138.4950 C   0  0  0  0  0  0  0  0  0  0  0  0
  192.7660  176.9450  139.5980 C   0  0  0  0  0  2  0  0  0  0  0  0
  191.6560  177.2020  141.8490 C   0  0  0  0  0  0  0  0  0  0  0  0
  191.6920  177.4460  140.4430 N   0  0  0  0  0  2  0  0  0  0  0  0
  192.5560  176.5090  142.4020 O   0  0  0  0  0  0  0  0  0  0  0  0
  190.5220  177.7120  142.6730 C   0  0  0  0  0  3  0  0  0  0  0  0
  191.0290  178.3000  143.9770 C   0  0  0  0  0  1  0  0  0  0  0  0
  189.5230  176.6060  142.9570 C   0  0  0  0  0  1  0  0  0  0  0  0
  1 22  1  0  0  0  0
  2 16  1  0  0  0  0
  5  4  1  0  0  0  0
  6  7  1  1  0  0  0
  6 11  1  0  0  0  0
  6 17  1  0  0  0  0
  7  9  1  0  0  0  0
  8  3  1  1  0  0  0
  9  5  1  0  0  0  0
 10 20  1  0  0  0  0
 10 22  1  0  0  0  0
 11 23  1  0  0  0  0
 11  4  1  1  0  0  0
 12 27  2  0  0  0  0
 13  1  1  0  0  0  0
 14 27  1  0  0  0  0
 15 24  1  0  0  0  0
 15 48  1  1  0  0  0
 17 15  1  0  0  0  0
 18  2  1  0  0  0  0
 19 18  1  0  0  0  0
 19  8  1  0  0  0  0
 20 25  1  0  0  0  0
 21 16  1  1  0  0  0
 21 25  1  0  0  0  0
 22 14  2  0  0  0  0
 23  8  1  0  0  0  0
 23 24  1  0  0  0  0
 24 13  1  0  0  0  0
 25 26  1  0  0  0  0
 26 12  1  0  0  0  0
 28 41  1  0  0  0  0
 28 36  1  0  0  0  0
 29 33  1  0  0  0  0
 30 29  2  0  0  0  0
 31 35  2  0  0  0  0
 32 21  1  0  0  0  0
 32 37  1  0  0  0  0
 32 40  1  0  0  0  0
 34 33  1  0  0  0  0
 34 39  1  0  0  0  0
 35 39  1  0  0  0  0
 36 32  1  0  0  0  0
 36 40  1  0  0  0  0
 37 40  1  0  0  0  0
 37 35  1  0  0  0  0
 38 28  1  0  0  0  0
 41 30  2  0  0  0  0
 42 41  1  0  0  0  0
 42 45  1  0  0  0  0
 43 45  1  0  0  0  0
 44 45  2  0  0  0  0
 45 46  1  0  0  0  0
 48 47  2  0  0  0  0
 48 49  1  0  0  0  0
 49 51  1  0  0  0  0
 50 52  2  0  0  0  0
 50 53  1  0  0  0  0
 51 50  1  0  0  0  0
 53 55  1  0  0  0  0
 53 54  1  0  0  0  0
M  END
>  <MODEL>
3

>  <REMARK>
 VINA RESULT:      -2.6      2.793      6.285
  Name = 
  7 active torsions:
  status: ('A' for Active; 'I' for Inactive)
    1  A    between atoms: C_8  and  C_43
    2  A    between atoms: C_10  and  C_32
    3  A    between atoms: P_29  and  C_38
    4  A    between atoms: C_33  and  C_52
    5  A    between atoms: C_34  and  N_39
    6  A    between atoms: C_34  and  C_52
    7  A    between atoms: C_38  and  C_53
                            x       y       z     vdW  Elec       q    Type
                         _______ _______ _______ _____ _____    ______ ____

>  <TORSDO>
F 7

$$$$
=
 OpenBabel11052414533D

 55 61  0  0  1  0  0  0  0  0999 V2000
  189.0720  178.1730  138.7420 C   0  0  0  0  0  2  0  0  0  0  0  0
  185.3660  176.4510  135.1190 O   0  0  0  0  0  0  0  0  0  0  0  0
  187.7830  174.3340  137.2470 C   0  0  0  0  0  1  0  0  0  0  0  0
  190.6300  173.6490  136.5020 C   0  0  0  0  0  2  0  0  0  0  0  0
  191.6870  172.6620  136.0270 C   0  0  0  0  0  2  0  0  0  0  0  0
  191.6350  175.3920  134.9380 C   0  0  1  0  0  3  0  0  0  0  0  0
  192.7460  174.3960  134.5940 C   0  0  0  0  0  2  0  0  0  0  0  0
  187.9670  175.4100  136.1850 C   0  0  2  0  0  3  0  0  0  0  0  0
  192.9810  173.4010  135.7290 C   0  0  0  0  0  2  0  0  0  0  0  0
  186.7950  178.8050  137.9190 O   0  0  0  0  0  0  0  0  0  0  0  0
  190.3490  174.7310  135.4510 C   0  0  2  0  0  3  0  0  0  0  0  0
  184.7660  178.2490  140.5260 C   0  0  0  0  0  3  0  0  0  0  0  0
  189.3220  177.8140  137.2780 C   0  0  0  0  0  2  0  0  0  0  0  0
  187.2690  178.5090  140.3050 C   0  0  0  0  0  3  0  0  0  0  0  0
  191.4240  176.7660  137.1360 C   0  0  1  0  0  3  0  0  0  0  0  0
  185.1550  176.6360  136.4910 C   0  0  0  0  0  2  0  0  0  0  0  0
  192.1390  176.5660  135.7820 C   0  0  0  0  0  2  0  0  0  0  0  0
  185.7770  175.1170  134.9970 C   0  0  0  0  0  2  0  0  0  0  0  0
  187.2970  175.0280  134.8740 C   0  0  0  0  0  2  0  0  0  0  0  0
  185.5390  179.4720  138.0040 C   0  0  0  0  0  2  0  0  0  0  0  0
  184.1600  177.7650  136.7350 C   0  0  2  0  0  3  0  0  0  0  0  0
  187.6300  178.4900  139.0080 C   0  0  0  0  0  0  0  0  0  0  0  0
  189.4290  175.8380  135.9840 C   0  0  2  0  0  3  0  0  0  0  0  0
  189.9680  176.5080  137.1840 N   0  0  2  0  0  0  0  0  0  0  0  0
  184.3940  178.4680  138.0900 C   0  0  1  0  0  3  0  0  0  0  0  0
  184.5770  177.4960  139.2530 C   0  0  0  0  0  2  0  0  0  0  0  0
  185.9500  178.6860  140.9570 C   0  0  0  0  0  3  0  0  0  0  0  0
  181.2580  175.4310  135.6600 C   0  0  1  0  0  3  0  0  0  0  0  0
  178.9350  176.1600  138.3150 C   0  0  0  0  0  3  0  0  0  0  0  0
  179.5530  175.4320  137.4180 C   0  0  0  0  0  0  0  0  0  0  0  0
  182.5640  179.9100  138.0610 O   0  0  0  0  0  0  0  0  0  0  0  0
  182.7150  177.2940  136.4320 C   0  0  2  0  0  0  0  0  0  0  0  0
  179.6990  176.7170  139.4730 C   0  0  0  0  0  2  0  0  0  0  0  0
  179.7210  178.2420  139.4250 C   0  0  0  0  0  2  0  0  0  0  0  0
  181.8360  178.9440  138.2460 C   0  0  0  0  0  0  0  0  0  0  0  0
  182.5110  175.8360  136.4550 C   0  0  1  0  0  3  0  0  0  0  0  0
  181.6000  177.9460  137.1500 C   0  0  2  0  0  3  0  0  0  0  0  0
  181.6320  174.6290  134.5940 F   0  0  0  0  0  0  0  0  0  0  0  0
  181.1510  178.7680  139.5770 C   0  0  0  0  0  2  0  0  0  0  0  0
  182.1220  176.6450  137.6250 N   0  0  2  0  0  0  0  0  0  0  0  0
  180.2250  174.7400  136.5250 C   0  0  0  0  0  0  0  0  0  0  0  0
  179.8870  173.3010  136.2950 C   0  0  0  0  0  2  0  0  0  0  0  0
  180.5800  171.7320  138.4120 O   0  0  0  0  0  1  0  0  0  0  0  0
  182.5400  173.0870  137.3310 O   0  0  0  0  0  1  0  0  0  0  0  0
  181.1130  172.2130  137.0810 P   0  0  0  0  0  0  0  0  0  0  0  0
  181.4270  170.8840  136.0810 O   0  0  0  0  0  0  0  0  0  0  0  0
  191.5610  175.5020  139.1410 O   0  0  0  0  0  0  0  0  0  0  0  0
  192.1560  176.1420  138.2900 C   0  0  0  0  0  0  0  0  0  0  0  0
  193.6350  176.2890  138.3820 C   0  0  0  0  0  2  0  0  0  0  0  0
  195.3520  174.6740  137.4810 C   0  0  0  0  0  0  0  0  0  0  0  0
  194.2570  174.9730  138.3480 N   0  0  0  0  0  2  0  0  0  0  0  0
  195.7990  175.5490  136.6880 O   0  0  0  0  0  0  0  0  0  0  0  0
  195.9420  173.3040  137.4600 C   0  0  0  0  0  3  0  0  0  0  0  0
  195.0510  172.3260  138.2040 C   0  0  0  0  0  1  0  0  0  0  0  0
  197.3310  173.3060  138.0690 C   0  0  0  0  0  1  0  0  0  0  0  0
  1 22  1  0  0  0  0
  2 16  1  0  0  0  0
  5  4  1  0  0  0  0
  6  7  1  1  0  0  0
  6 11  1  0  0  0  0
  6 17  1  0  0  0  0
  7  9  1  0  0  0  0
  8  3  1  1  0  0  0
  9  5  1  0  0  0  0
 10 20  1  0  0  0  0
 10 22  1  0  0  0  0
 11 23  1  0  0  0  0
 11  4  1  1  0  0  0
 12 27  2  0  0  0  0
 13  1  1  0  0  0  0
 14 27  1  0  0  0  0
 15 24  1  0  0  0  0
 15 48  1  1  0  0  0
 17 15  1  0  0  0  0
 18  2  1  0  0  0  0
 19 18  1  0  0  0  0
 19  8  1  0  0  0  0
 20 25  1  0  0  0  0
 21 16  1  1  0  0  0
 21 25  1  0  0  0  0
 22 14  2  0  0  0  0
 23  8  1  0  0  0  0
 23 24  1  0  0  0  0
 24 13  1  0  0  0  0
 25 26  1  0  0  0  0
 26 12  1  0  0  0  0
 28 36  1  0  0  0  0
 28 41  1  0  0  0  0
 29 33  1  0  0  0  0
 30 29  2  0  0  0  0
 31 35  2  0  0  0  0
 32 36  1  0  0  0  0
 32 21  1  0  0  0  0
 32 37  1  0  0  0  0
 32 40  1  0  0  0  0
 34 33  1  0  0  0  0
 34 39  1  0  0  0  0
 35 39  1  0  0  0  0
 36 40  1  0  0  0  0
 37 40  1  0  0  0  0
 37 35  1  0  0  0  0
 38 28  1  0  0  0  0
 41 30  2  0  0  0  0
 42 41  1  0  0  0  0
 42 45  1  0  0  0  0
 45 44  1  0  0  0  0
 45 43  1  0  0  0  0
 46 45  2  0  0  0  0
 48 49  1  0  0  0  0
 48 47  2  0  0  0  0
 50 51  1  0  0  0  0
 51 49  1  0  0  0  0
 52 50  2  0  0  0  0
 53 50  1  0  0  0  0
 53 55  1  0  0  0  0
 53 54  1  0  0  0  0
M  END
>  <MODEL>
4

>  <REMARK>
 VINA RESULT:      -2.2      3.468      6.109
  Name = 
  7 active torsions:
  status: ('A' for Active; 'I' for Inactive)
    1  A    between atoms: C_8  and  C_43
    2  A    between atoms: C_10  and  C_32
    3  A    between atoms: P_29  and  C_38
    4  A    between atoms: C_33  and  C_52
    5  A    between atoms: C_34  and  N_39
    6  A    between atoms: C_34  and  C_52
    7  A    between atoms: C_38  and  C_53
                            x       y       z     vdW  Elec       q    Type
                         _______ _______ _______ _____ _____    ______ ____

>  <TORSDO>
F 7

$$$$
=
 OpenBabel11052414533D

 55 61  0  0  1  0  0  0  0  0999 V2000
  185.7640  177.0550  135.9870 C   0  0  0  0  0  2  0  0  0  0  0  0
  185.5560  179.3240  140.9500 O   0  0  0  0  0  0  0  0  0  0  0  0
  183.5140  176.3470  139.6020 C   0  0  0  0  0  1  0  0  0  0  0  0
  180.9280  176.5570  138.0540 C   0  0  0  0  0  2  0  0  0  0  0  0
  179.4150  176.4210  137.9530 C   0  0  0  0  0  2  0  0  0  0  0  0
  180.7530  178.7780  136.8180 C   0  0  1  0  0  3  0  0  0  0  0  0
  179.2530  178.5250  136.6380 C   0  0  0  0  0  2  0  0  0  0  0  0
  183.6480  177.8100  139.2030 C   0  0  2  0  0  3  0  0  0  0  0  0
  178.9310  177.0310  136.6490 C   0  0  0  0  0  2  0  0  0  0  0  0
  187.3010  178.1390  137.6370 O   0  0  0  0  0  0  0  0  0  0  0  0
  181.3700  178.0260  138.0020 C   0  0  2  0  0  3  0  0  0  0  0  0
  189.3300  175.6750  138.6540 C   0  0  0  0  0  3  0  0  0  0  0  0
  184.7680  178.1080  136.4700 C   0  0  0  0  0  2  0  0  0  0  0  0
  187.7890  175.9410  136.6690 C   0  0  0  0  0  3  0  0  0  0  0  0
  182.6780  177.6310  135.4980 C   0  0  1  0  0  3  0  0  0  0  0  0
  186.3780  178.2570  140.5640 C   0  0  0  0  0  2  0  0  0  0  0  0
  181.5290  178.6630  135.5030 C   0  0  0  0  0  2  0  0  0  0  0  0
  184.3840  178.7190  141.4230 C   0  0  0  0  0  2  0  0  0  0  0  0
  183.2940  178.7420  140.3520 C   0  0  0  0  0  2  0  0  0  0  0  0
  188.5760  178.4440  138.1950 C   0  0  0  0  0  2  0  0  0  0  0  0
  187.8470  178.6630  140.6130 C   0  0  2  0  0  3  0  0  0  0  0  0
  187.0090  177.0270  136.8240 C   0  0  0  0  0  0  0  0  0  0  0  0
  182.8950  178.1720  137.9130 C   0  0  2  0  0  3  0  0  0  0  0  0
  183.4720  177.4890  136.7380 N   0  0  2  0  0  0  0  0  0  0  0  0
  188.7060  177.8720  139.6020 C   0  0  1  0  0  3  0  0  0  0  0  0
  188.4430  176.3680  139.6300 C   0  0  0  0  0  2  0  0  0  0  0  0
  189.0230  175.5090  137.3660 C   0  0  0  0  0  3  0  0  0  0  0  0
  187.7660  178.4750  144.4830 C   0  0  1  0  0  3  0  0  0  0  0  0
  190.7600  176.5450  145.0160 C   0  0  0  0  0  3  0  0  0  0  0  0
  189.5380  176.9610  145.2360 C   0  0  0  0  0  0  0  0  0  0  0  0
  190.8020  178.5810  140.2050 O   0  0  0  0  0  0  0  0  0  0  0  0
  188.3520  178.7090  142.0770 C   0  0  2  0  0  0  0  0  0  0  0  0
  191.0770  175.8050  143.7570 C   0  0  0  0  0  2  0  0  0  0  0  0
  192.0540  176.5980  142.8940 C   0  0  0  0  0  2  0  0  0  0  0  0
  190.7030  177.9510  141.2490 C   0  0  0  0  0  0  0  0  0  0  0  0
  187.5280  177.9720  143.0490 C   0  0  1  0  0  3  0  0  0  0  0  0
  189.7770  178.4140  142.3350 C   0  0  2  0  0  3  0  0  0  0  0  0
  186.5870  179.0040  144.9840 F   0  0  0  0  0  0  0  0  0  0  0  0
  191.5360  176.7120  141.4560 C   0  0  0  0  0  2  0  0  0  0  0  0
  188.7600  177.3560  142.5240 N   0  0  2  0  0  0  0  0  0  0  0  0
  188.3060  177.3910  145.3930 C   0  0  0  0  0  0  0  0  0  0  0  0
  187.4840  176.8850  146.5360 C   0  0  0  0  0  2  0  0  0  0  0  0
  187.4720  177.0210  149.2580 O   0  0  0  0  0  1  0  0  0  0  0  0
  186.8160  179.2320  148.0220 O   0  0  0  0  0  0  0  0  0  0  0  0
  187.8000  177.8550  148.0410 P   0  0  0  0  0  0  0  0  0  0  0  0
  189.4270  178.3200  148.0920 O   0  0  0  0  0  1  0  0  0  0  0  0
  181.1120  176.0440  134.6830 O   0  0  0  0  0  0  0  0  0  0  0  0
  182.2810  176.3050  134.9160 C   0  0  0  0  0  0  0  0  0  0  0  0
  183.3350  175.3030  134.5960 C   0  0  0  0  0  2  0  0  0  0  0  0
  183.3390  173.4750  136.3350 C   0  0  0  0  0  0  0  0  0  0  0  0
  182.9190  173.9910  135.0710 N   0  0  0  0  0  2  0  0  0  0  0  0
  184.1180  174.1410  137.0730 O   0  0  0  0  0  0  0  0  0  0  0  0
  182.9090  172.1150  136.7710 C   0  0  0  0  0  3  0  0  0  0  0  0
  183.1070  171.1060  135.6540 C   0  0  0  0  0  1  0  0  0  0  0  0
  181.4560  172.1240  137.2090 C   0  0  0  0  0  1  0  0  0  0  0  0
  1 13  1  0  0  0  0
  1 22  1  0  0  0  0
  2 18  1  0  0  0  0
  5  4  1  0  0  0  0
  6 17  1  6  0  0  0
  6 11  1  0  0  0  0
  7  9  1  0  0  0  0
  7  6  1  0  0  0  0
  8  3  1  1  0  0  0
  8 19  1  0  0  0  0
  9  5  1  0  0  0  0
 10 20  1  0  0  0  0
 11  4  1  6  0  0  0
 12 26  1  0  0  0  0
 13 24  1  0  0  0  0
 14 22  2  0  0  0  0
 14 27  1  0  0  0  0
 15 48  1  1  0  0  0
 15 17  1  0  0  0  0
 15 24  1  0  0  0  0
 16  2  1  0  0  0  0
 19 18  1  0  0  0  0
 20 25  1  0  0  0  0
 21 16  1  1  0  0  0
 21 32  1  0  0  0  0
 22 10  1  0  0  0  0
 23 11  1  0  0  0  0
 23  8  1  0  0  0  0
 24 23  1  0  0  0  0
 25 26  1  0  0  0  0
 25 21  1  0  0  0  0
 27 12  2  0  0  0  0
 28 38  1  0  0  0  0
 28 41  1  0  0  0  0
 29 30  2  0  0  0  0
 30 41  2  0  0  0  0
 31 35  2  0  0  0  0
 32 37  1  0  0  0  0
 32 40  1  0  0  0  0
 32 36  1  0  0  0  0
 33 29  1  0  0  0  0
 34 33  1  0  0  0  0
 35 39  1  0  0  0  0
 35 37  1  0  0  0  0
 36 28  1  0  0  0  0
 37 40  1  0  0  0  0
 39 34  1  0  0  0  0
 40 36  1  0  0  0  0
 41 42  1  0  0  0  0
 42 45  1  0  0  0  0
 44 45  2  0  0  0  0
 45 46  1  0  0  0  0
 45 43  1  0  0  0  0
 47 48  2  0  0  0  0
 49 48  1  0  0  0  0
 49 51  1  0  0  0  0
 50 53  1  0  0  0  0
 50 52  2  0  0  0  0
 51 50  1  0  0  0  0
 53 55  1  0  0  0  0
 54 53  1  0  0  0  0
M  END
>  <MODEL>
5

>  <REMARK>
 VINA RESULT:      -1.8      3.598     10.034
  Name = 
  7 active torsions:
  status: ('A' for Active; 'I' for Inactive)
    1  A    between atoms: C_8  and  C_43
    2  A    between atoms: C_10  and  C_32
    3  A    between atoms: P_29  and  C_38
    4  A    between atoms: C_33  and  C_52
    5  A    between atoms: C_34  and  N_39
    6  A    between atoms: C_34  and  C_52
    7  A    between atoms: C_38  and  C_53
                            x       y       z     vdW  Elec       q    Type
                         _______ _______ _______ _____ _____    ______ ____

>  <TORSDO>
F 7

$$$$
