=
 OpenBabel11052415593D

 34 37  0  0  1  0  0  0  0  0999 V2000
  190.0160  176.5570  143.5210 C   0  0  1  0  0  3  0  0  0  0  0  0
  187.5150  178.0070  146.0980 C   0  0  0  0  0  2  0  0  0  0  0  0
  189.8220  177.3380  146.2380 O   0  0  0  0  0  0  0  0  0  0  0  0
  191.0810  177.0160  145.7260 C   0  0  0  0  0  0  0  0  0  0  0  0
  191.3130  176.9550  144.2470 C   0  0  2  0  0  3  0  0  0  0  0  0
  192.0530  176.8720  146.5130 O   0  0  0  0  0  0  0  0  0  0  0  0
  186.1550  177.3970  145.7850 C   0  0  0  0  0  2  0  0  0  0  0  0
  185.5280  177.9210  144.4810 C   0  0  2  0  0  3  0  0  0  0  0  0
  186.5240  178.1140  143.3270 C   0  0  0  0  0  2  0  0  0  0  0  0
  188.6140  177.1360  145.5030 C   0  0  2  0  0  3  0  0  0  0  0  0
  187.5450  176.9910  143.2260 C   0  0  0  0  0  2  0  0  0  0  0  0
  188.8060  177.3790  143.9970 C   0  0  2  0  0  3  0  0  0  0  0  0
  184.7440  179.2100  144.7310 C   0  0  2  0  0  3  0  0  0  0  0  0
  183.8030  179.0230  145.8230 N   0  0  0  0  0  1  0  0  0  0  0  0
  184.0390  179.5780  143.5840 O   0  0  0  0  0  1  0  0  0  0  0  0
  191.8630  178.3010  143.7890 C   0  0  0  0  0  2  0  0  0  0  0  0
  190.9350  179.3050  144.0590 O   0  0  0  0  0  1  0  0  0  0  0  0
  190.1730  176.4660  141.9960 C   0  0  0  0  0  2  0  0  0  0  0  0
  189.6650  177.6610  141.3380 N   0  0  0  0  0  2  0  0  0  0  0  0
  190.9590  176.3840  139.7280 C   0  0  0  0  0  1  0  0  0  0  0  0
  190.2180  177.6810  139.9920 C   0  0  1  0  0  3  0  0  0  0  0  0
  186.7720  178.4450  138.6090 N   0  0  0  0  0  2  0  0  0  0  0  0
  188.9980  176.7080  138.0840 N   0  0  0  0  0  2  0  0  0  0  0  0
  185.6900  175.8120  134.8910 C   0  0  2  0  0  3  0  0  0  0  0  0
  184.9820  176.2310  136.1860 C   0  0  1  0  0  3  0  0  0  0  0  0
  185.5140  177.5410  136.7480 C   0  0  0  0  0  2  0  0  0  0  0  0
  185.4230  174.3450  134.6060 C   0  0  0  0  0  1  0  0  0  0  0  0
  186.6250  177.2690  137.7540 C   0  0  1  0  0  3  0  0  0  0  0  0
  183.6130  176.3550  135.9490 O   0  0  0  0  0  1  0  0  0  0  0  0
  187.8930  175.7270  136.1650 C   0  0  0  0  0  2  0  0  0  0  0  0
  187.9730  176.9530  137.0690 C   0  0  2  0  0  3  0  0  0  0  0  0
  187.1980  176.0820  134.8580 C   0  0  0  0  0  2  0  0  0  0  0  0
  189.1230  177.8850  138.9460 C   0  0  1  0  0  3  0  0  0  0  0  0
  187.7870  178.1750  139.6240 C   0  0  0  0  0  2  0  0  0  0  0  0
  1 18  1  6  0  0  0
  1 12  1  0  0  0  0
  1  5  1  0  0  0  0
  4  3  1  0  0  0  0
  4  6  2  0  0  0  0
  5 16  1  6  0  0  0
  5  4  1  0  0  0  0
  7  2  1  0  0  0  0
  8 13  1  1  0  0  0
  8  7  1  0  0  0  0
  9  8  1  0  0  0  0
 10  2  1  1  0  0  0
 10  3  1  0  0  0  0
 11  9  1  0  0  0  0
 12 11  1  6  0  0  0
 12 10  1  0  0  0  0
 13 15  1  6  0  0  0
 13 14  1  0  0  0  0
 16 17  1  0  0  0  0
 19 18  1  0  0  0  0
 21 20  1  6  0  0  0
 21 19  1  0  0  0  0
 22 34  1  0  0  0  0
 23 33  1  0  0  0  0
 24 27  1  1  0  0  0
 24 25  1  0  0  0  0
 25 29  1  6  0  0  0
 25 26  1  0  0  0  0
 28 26  1  6  0  0  0
 28 22  1  0  0  0  0
 31 30  1  6  0  0  0
 31 28  1  0  0  0  0
 31 23  1  0  0  0  0
 32 24  1  0  0  0  0
 32 30  1  0  0  0  0
 33 34  1  0  0  0  0
 33 21  1  1  0  0  0
M  END
>  <MODEL>
1

>  <REMARK>
 VINA RESULT:      -9.4      0.000      0.000
  Name = 
  6 active torsions:
  status: ('A' for Active; 'I' for Inactive)
    1  A    between atoms: C_1  and  C_9
    2  A    between atoms: C_3  and  C_25
    3  A    between atoms: N_8  and  C_9
    4  A    between atoms: N_8  and  C_18
    5  A    between atoms: C_10  and  C_20
    6  A    between atoms: C_18  and  C_30
                            x       y       z     vdW  Elec       q    Type
                         _______ _______ _______ _____ _____    ______ ____

>  <TORSDO>
F 6

$$$$
=
 OpenBabel11052415593D

 34 37  0  0  1  0  0  0  0  0999 V2000
  189.9080  176.6840  143.1430 C   0  0  1  0  0  3  0  0  0  0  0  0
  187.5240  177.9670  145.9130 C   0  0  0  0  0  2  0  0  0  0  0  0
  189.8310  177.2840  145.9110 O   0  0  0  0  0  0  0  0  0  0  0  0
  191.0670  176.9930  145.3270 C   0  0  0  0  0  0  0  0  0  0  0  0
  191.2370  177.0290  143.8390 C   0  0  2  0  0  3  0  0  0  0  0  0
  192.0690  176.7950  146.0610 O   0  0  0  0  0  0  0  0  0  0  0  0
  186.1490  177.3830  145.6170 C   0  0  0  0  0  2  0  0  0  0  0  0
  185.4720  177.9930  144.3780 C   0  0  2  0  0  3  0  0  0  0  0  0
  186.4200  178.2590  143.1980 C   0  0  0  0  0  2  0  0  0  0  0  0
  188.5930  177.1340  145.2160 C   0  0  2  0  0  3  0  0  0  0  0  0
  187.4300  177.1430  142.9800 C   0  0  0  0  0  2  0  0  0  0  0  0
  188.7240  177.4760  143.7220 C   0  0  2  0  0  3  0  0  0  0  0  0
  184.7060  179.2650  144.7450 C   0  0  2  0  0  3  0  0  0  0  0  0
  183.8160  179.0110  145.8650 N   0  0  0  0  0  1  0  0  0  0  0  0
  183.9510  179.7070  143.6570 O   0  0  0  0  0  1  0  0  0  0  0  0
  191.7740  178.4010  143.4480 C   0  0  0  0  0  2  0  0  0  0  0  0
  191.0410  179.3960  144.0920 O   0  0  0  0  0  1  0  0  0  0  0  0
  190.0020  176.6940  141.6110 C   0  0  0  0  0  2  0  0  0  0  0  0
  189.7900  178.0300  141.0740 N   0  0  0  0  0  2  0  0  0  0  0  0
  190.5520  176.8790  139.0770 C   0  0  0  0  0  1  0  0  0  0  0  0
  189.5750  177.8920  139.6410 C   0  0  1  0  0  3  0  0  0  0  0  0
  186.6260  176.6840  137.5880 N   0  0  0  0  0  2  0  0  0  0  0  0
  187.1900  178.5100  139.7310 N   0  0  0  0  0  2  0  0  0  0  0  0
  182.5980  178.7190  138.8350 C   0  0  2  0  0  3  0  0  0  0  0  0
  183.3150  178.4160  137.5130 C   0  0  1  0  0  3  0  0  0  0  0  0
  184.2690  177.2360  137.6200 C   0  0  0  0  0  2  0  0  0  0  0  0
  181.9940  180.1110  138.7890 C   0  0  0  0  0  1  0  0  0  0  0  0
  185.6710  177.7240  137.9630 C   0  0  1  0  0  3  0  0  0  0  0  0
  182.3700  178.1540  136.5210 O   0  0  0  0  0  1  0  0  0  0  0  0
  184.8610  179.1440  139.9220 C   0  0  0  0  0  2  0  0  0  0  0  0
  185.8260  178.0550  139.4640 C   0  0  2  0  0  3  0  0  0  0  0  0
  183.4610  178.5690  140.0910 C   0  0  0  0  0  2  0  0  0  0  0  0
  188.1400  177.4680  139.3340 C   0  0  1  0  0  3  0  0  0  0  0  0
  187.9820  177.1620  137.8470 C   0  0  0  0  0  2  0  0  0  0  0  0
  1 18  1  6  0  0  0
  1 12  1  0  0  0  0
  1  5  1  0  0  0  0
  4  3  1  0  0  0  0
  4  6  2  0  0  0  0
  5 16  1  6  0  0  0
  5  4  1  0  0  0  0
  7  2  1  0  0  0  0
  8 13  1  1  0  0  0
  8  7  1  0  0  0  0
  9  8  1  0  0  0  0
 10  3  1  0  0  0  0
 10  2  1  1  0  0  0
 11  9  1  0  0  0  0
 12 11  1  6  0  0  0
 12 10  1  0  0  0  0
 13 15  1  6  0  0  0
 13 14  1  0  0  0  0
 16 17  1  0  0  0  0
 19 18  1  0  0  0  0
 21 20  1  1  0  0  0
 21 19  1  0  0  0  0
 22 34  1  0  0  0  0
 22 28  1  0  0  0  0
 24 27  1  6  0  0  0
 24 32  1  0  0  0  0
 25 29  1  6  0  0  0
 25 26  1  0  0  0  0
 25 24  1  0  0  0  0
 28 26  1  1  0  0  0
 28 31  1  0  0  0  0
 30 32  1  0  0  0  0
 31 23  1  0  0  0  0
 31 30  1  6  0  0  0
 33 21  1  6  0  0  0
 33 23  1  0  0  0  0
 34 33  1  0  0  0  0
M  END
>  <MODEL>
2

>  <REMARK>
 VINA RESULT:      -9.4      1.649      2.603
  Name = 
  6 active torsions:
  status: ('A' for Active; 'I' for Inactive)
    1  A    between atoms: C_1  and  C_9
    2  A    between atoms: C_3  and  C_25
    3  A    between atoms: N_8  and  C_9
    4  A    between atoms: N_8  and  C_18
    5  A    between atoms: C_10  and  C_20
    6  A    between atoms: C_18  and  C_30
                            x       y       z     vdW  Elec       q    Type
                         _______ _______ _______ _____ _____    ______ ____

>  <TORSDO>
F 6

$$$$
=
 OpenBabel11052415593D

 34 37  0  0  1  0  0  0  0  0999 V2000
  189.6350  176.6760  138.3480 C   0  0  1  0  0  3  0  0  0  0  0  0
  191.7630  174.1350  136.3450 C   0  0  0  0  0  2  0  0  0  0  0  0
  189.3960  174.3900  136.6900 O   0  0  0  0  0  0  0  0  0  0  0  0
  188.2340  175.0810  137.0440 C   0  0  0  0  0  0  0  0  0  0  0  0
  188.3080  176.4720  137.5950 C   0  0  2  0  0  3  0  0  0  0  0  0
  187.1100  174.5670  136.8060 O   0  0  0  0  0  0  0  0  0  0  0  0
  193.0250  173.8780  137.1580 C   0  0  0  0  0  2  0  0  0  0  0  0
  193.9940  175.0720  137.1890 C   0  0  2  0  0  3  0  0  0  0  0  0
  193.3130  176.4440  137.3140 C   0  0  0  0  0  2  0  0  0  0  0  0
  190.6730  174.6870  137.2550 C   0  0  2  0  0  3  0  0  0  0  0  0
  192.1500  176.4450  138.2930 C   0  0  0  0  0  2  0  0  0  0  0  0
  190.8470  176.1880  137.5360 C   0  0  2  0  0  3  0  0  0  0  0  0
  194.9290  175.0490  135.9780 C   0  0  2  0  0  3  0  0  0  0  0  0
  196.2700  175.4510  136.3690 N   0  0  0  0  0  1  0  0  0  0  0  0
  194.4650  175.9200  134.9900 O   0  0  0  0  0  1  0  0  0  0  0  0
  188.1200  177.4570  136.4470 C   0  0  0  0  0  2  0  0  0  0  0  0
  187.0570  178.3130  136.7300 O   0  0  0  0  0  1  0  0  0  0  0  0
  189.7850  178.0790  138.9510 C   0  0  0  0  0  2  0  0  0  0  0  0
  189.0920  178.1850  140.2270 N   0  0  0  0  0  2  0  0  0  0  0  0
  191.0290  177.5350  141.5390 C   0  0  0  0  0  1  0  0  0  0  0  0
  189.6290  177.1510  141.0980 C   0  0  1  0  0  3  0  0  0  0  0  0
  186.5840  177.4840  143.3320 N   0  0  0  0  0  2  0  0  0  0  0  0
  189.4400  177.2790  143.5530 N   0  0  0  0  0  2  0  0  0  0  0  0
  187.6820  177.6080  147.8820 C   0  0  2  0  0  3  0  0  0  0  0  0
  186.7670  178.4110  146.9480 C   0  0  1  0  0  3  0  0  0  0  0  0
  186.3180  177.6100  145.7350 C   0  0  0  0  0  2  0  0  0  0  0  0
  188.4120  178.5470  148.8250 C   0  0  0  0  0  1  0  0  0  0  0  0
  187.2720  177.8440  144.5700 C   0  0  1  0  0  3  0  0  0  0  0  0
  185.6450  178.8430  147.6550 O   0  0  0  0  0  1  0  0  0  0  0  0
  189.3460  177.3520  145.9710 C   0  0  0  0  0  2  0  0  0  0  0  0
  188.5710  177.0190  144.7010 C   0  0  2  0  0  3  0  0  0  0  0  0
  188.6880  176.6940  147.1760 C   0  0  0  0  0  2  0  0  0  0  0  0
  188.7340  176.9330  142.3180 C   0  0  1  0  0  3  0  0  0  0  0  0
  187.4600  177.7650  142.1980 C   0  0  0  0  0  2  0  0  0  0  0  0
  1 18  1  6  0  0  0
  2  7  1  0  0  0  0
  3  4  1  0  0  0  0
  3 10  1  0  0  0  0
  4  5  1  0  0  0  0
  5 16  1  6  0  0  0
  5  1  1  0  0  0  0
  6  4  2  0  0  0  0
  7  8  1  0  0  0  0
  8 13  1  6  0  0  0
  8  9  1  0  0  0  0
  9 11  1  0  0  0  0
 10  2  1  6  0  0  0
 10 12  1  0  0  0  0
 12 11  1  1  0  0  0
 12  1  1  0  0  0  0
 13 15  1  6  0  0  0
 13 14  1  0  0  0  0
 16 17  1  0  0  0  0
 18 19  1  0  0  0  0
 19 21  1  0  0  0  0
 21 20  1  1  0  0  0
 22 28  1  0  0  0  0
 23 31  1  0  0  0  0
 24 27  1  6  0  0  0
 25 29  1  1  0  0  0
 25 24  1  0  0  0  0
 26 25  1  0  0  0  0
 28 31  1  0  0  0  0
 28 26  1  1  0  0  0
 30 32  1  0  0  0  0
 31 30  1  1  0  0  0
 32 24  1  0  0  0  0
 33 21  1  6  0  0  0
 33 23  1  0  0  0  0
 34 33  1  0  0  0  0
 34 22  1  0  0  0  0
M  END
>  <MODEL>
3

>  <REMARK>
 VINA RESULT:      -9.1      3.510      9.463
  Name = 
  6 active torsions:
  status: ('A' for Active; 'I' for Inactive)
    1  A    between atoms: C_1  and  C_9
    2  A    between atoms: C_3  and  C_25
    3  A    between atoms: N_8  and  C_9
    4  A    between atoms: N_8  and  C_18
    5  A    between atoms: C_10  and  C_20
    6  A    between atoms: C_18  and  C_30
                            x       y       z     vdW  Elec       q    Type
                         _______ _______ _______ _____ _____    ______ ____

>  <TORSDO>
F 6

$$$$
=
 OpenBabel11052415593D

 34 37  0  0  1  0  0  0  0  0999 V2000
  183.8020  178.2340  140.0270 C   0  0  1  0  0  3  0  0  0  0  0  0
  182.7850  178.8710  143.7090 C   0  0  0  0  0  2  0  0  0  0  0  0
  181.5350  178.7070  141.6600 O   0  0  0  0  0  0  0  0  0  0  0  0
  181.3310  178.3490  140.3250 C   0  0  0  0  0  0  0  0  0  0  0  0
  182.4360  177.7380  139.5190 C   0  0  2  0  0  3  0  0  0  0  0  0
  180.1810  178.4490  139.8240 O   0  0  0  0  0  0  0  0  0  0  0  0
  183.8780  179.7330  144.3270 C   0  0  0  0  0  2  0  0  0  0  0  0
  185.2060  178.9860  144.5420 C   0  0  2  0  0  3  0  0  0  0  0  0
  185.5890  178.0250  143.4060 C   0  0  0  0  0  2  0  0  0  0  0  0
  182.8270  179.0030  142.1920 C   0  0  2  0  0  3  0  0  0  0  0  0
  185.3080  178.5930  142.0230 C   0  0  0  0  0  2  0  0  0  0  0  0
  183.9260  178.1350  141.5570 C   0  0  2  0  0  3  0  0  0  0  0  0
  185.2090  178.2540  145.8840 C   0  0  2  0  0  3  0  0  0  0  0  0
  185.3110  179.2060  146.9780 N   0  0  0  0  0  1  0  0  0  0  0  0
  186.2890  177.3700  145.9520 O   0  0  0  0  0  1  0  0  0  0  0  0
  182.2960  176.2210  139.5780 C   0  0  0  0  0  2  0  0  0  0  0  0
  181.8380  175.7420  138.3520 O   0  0  0  0  0  1  0  0  0  0  0  0
  184.9910  177.6570  139.2460 C   0  0  0  0  0  2  0  0  0  0  0  0
  186.0370  178.6520  139.0600 N   0  0  0  0  0  2  0  0  0  0  0  0
  187.4360  178.7340  137.0770 C   0  0  0  0  0  1  0  0  0  0  0  0
  187.1380  177.9980  138.3690 C   0  0  1  0  0  3  0  0  0  0  0  0
  190.3700  176.6350  139.8080 N   0  0  0  0  0  2  0  0  0  0  0  0
  188.0400  178.0820  140.6620 N   0  0  0  0  0  2  0  0  0  0  0  0
  190.8290  177.5220  144.3830 C   0  0  2  0  0  3  0  0  0  0  0  0
  191.0190  176.3000  143.4740 C   0  0  1  0  0  3  0  0  0  0  0  0
  191.3240  176.6820  142.0340 C   0  0  0  0  0  2  0  0  0  0  0  0
  190.1410  177.1060  145.6710 C   0  0  0  0  0  1  0  0  0  0  0  0
  190.0340  176.7530  141.2250 C   0  0  1  0  0  3  0  0  0  0  0  0
  192.0550  175.5080  143.9690 O   0  0  0  0  0  1  0  0  0  0  0  0
  188.8700  178.2530  142.9300 C   0  0  0  0  0  2  0  0  0  0  0  0
  189.2610  178.0690  141.4680 C   0  0  2  0  0  3  0  0  0  0  0  0
  190.0770  178.6940  143.7460 C   0  0  0  0  0  2  0  0  0  0  0  0
  188.3890  177.9440  139.2460 C   0  0  1  0  0  3  0  0  0  0  0  0
  189.1400  176.6340  139.0220 C   0  0  0  0  0  2  0  0  0  0  0  0
  1 18  1  6  0  0  0
  1 12  1  0  0  0  0
  2  7  1  0  0  0  0
  3 10  1  0  0  0  0
  4  3  1  0  0  0  0
  5 16  1  1  0  0  0
  5  1  1  0  0  0  0
  5  4  1  0  0  0  0
  6  4  2  0  0  0  0
  7  8  1  0  0  0  0
  8 13  1  1  0  0  0
  9  8  1  0  0  0  0
 10  2  1  1  0  0  0
 11  9  1  0  0  0  0
 12 11  1  1  0  0  0
 12 10  1  0  0  0  0
 13 15  1  6  0  0  0
 13 14  1  0  0  0  0
 17 16  1  0  0  0  0
 19 18  1  0  0  0  0
 21 20  1  6  0  0  0
 21 19  1  0  0  0  0
 22 28  1  0  0  0  0
 23 31  1  0  0  0  0
 24 27  1  1  0  0  0
 25 29  1  1  0  0  0
 25 24  1  0  0  0  0
 26 25  1  0  0  0  0
 28 31  1  0  0  0  0
 28 26  1  1  0  0  0
 30 32  1  0  0  0  0
 31 30  1  1  0  0  0
 32 24  1  0  0  0  0
 33 21  1  6  0  0  0
 33 23  1  0  0  0  0
 34 33  1  0  0  0  0
 34 22  1  0  0  0  0
M  END
>  <MODEL>
4

>  <REMARK>
 VINA RESULT:      -9.0      2.549      7.343
  Name = 
  6 active torsions:
  status: ('A' for Active; 'I' for Inactive)
    1  A    between atoms: C_1  and  C_9
    2  A    between atoms: C_3  and  C_25
    3  A    between atoms: N_8  and  C_9
    4  A    between atoms: N_8  and  C_18
    5  A    between atoms: C_10  and  C_20
    6  A    between atoms: C_18  and  C_30
                            x       y       z     vdW  Elec       q    Type
                         _______ _______ _______ _____ _____    ______ ____

>  <TORSDO>
F 6

$$$$
=
 OpenBabel11052415593D

 34 37  0  0  1  0  0  0  0  0999 V2000
  189.9280  176.3860  143.5120 C   0  0  1  0  0  3  0  0  0  0  0  0
  187.4990  178.1060  145.9900 C   0  0  0  0  0  2  0  0  0  0  0  0
  189.8060  177.4390  146.1400 O   0  0  0  0  0  0  0  0  0  0  0  0
  191.0510  177.0580  145.6330 C   0  0  0  0  0  0  0  0  0  0  0  0
  191.2460  176.8470  144.1630 C   0  0  2  0  0  3  0  0  0  0  0  0
  192.0410  176.9890  146.4060 O   0  0  0  0  0  0  0  0  0  0  0  0
  186.1290  177.4770  145.7740 C   0  0  0  0  0  2  0  0  0  0  0  0
  185.4720  177.8700  144.4400 C   0  0  2  0  0  3  0  0  0  0  0  0
  186.4400  177.9380  143.2480 C   0  0  0  0  0  2  0  0  0  0  0  0
  188.5800  177.1720  145.4590 C   0  0  2  0  0  3  0  0  0  0  0  0
  187.4530  176.8040  143.2360 C   0  0  0  0  0  2  0  0  0  0  0  0
  188.7350  177.2600  143.9320 C   0  0  2  0  0  3  0  0  0  0  0  0
  184.7010  179.1830  144.5760 C   0  0  2  0  0  3  0  0  0  0  0  0
  184.0520  179.2530  145.8760 N   0  0  0  0  0  1  0  0  0  0  0  0
  183.7280  179.2800  143.5790 O   0  0  0  0  0  1  0  0  0  0  0  0
  191.7890  178.1350  143.5560 C   0  0  0  0  0  2  0  0  0  0  0  0
  191.1860  179.2340  144.1660 O   0  0  0  0  0  1  0  0  0  0  0  0
  190.0470  176.1390  142.0020 C   0  0  0  0  0  2  0  0  0  0  0  0
  190.1040  177.3920  141.2630 N   0  0  0  0  0  2  0  0  0  0  0  0
  188.3200  178.5830  140.1230 C   0  0  0  0  0  1  0  0  0  0  0  0
  189.1310  177.3020  140.1840 C   0  0  1  0  0  3  0  0  0  0  0  0
  189.7150  175.7570  136.7720 N   0  0  0  0  0  2  0  0  0  0  0  0
  191.2220  176.6920  139.0300 N   0  0  0  0  0  2  0  0  0  0  0  0
  194.2570  175.1310  135.8220 C   0  0  2  0  0  3  0  0  0  0  0  0
  192.9810  174.2870  135.7020 C   0  0  1  0  0  3  0  0  0  0  0  0
  191.7260  175.1370  135.5740 C   0  0  0  0  0  2  0  0  0  0  0  0
  195.3950  174.2750  136.3480 C   0  0  0  0  0  1  0  0  0  0  0  0
  191.1170  175.3850  136.9480 C   0  0  1  0  0  3  0  0  0  0  0  0
  193.0820  173.4470  134.5940 O   0  0  0  0  0  1  0  0  0  0  0  0
  193.3270  176.1680  137.9540 C   0  0  0  0  0  2  0  0  0  0  0  0
  191.8560  176.4970  137.7260 C   0  0  2  0  0  3  0  0  0  0  0  0
  194.1210  176.3960  136.6750 C   0  0  0  0  0  2  0  0  0  0  0  0
  189.8140  177.0460  138.8410 C   0  0  1  0  0  3  0  0  0  0  0  0
  189.0960  175.9330  138.0830 C   0  0  0  0  0  2  0  0  0  0  0  0
  1 18  1  6  0  0  0
  1 12  1  0  0  0  0
  1  5  1  0  0  0  0
  4  3  1  0  0  0  0
  4  6  2  0  0  0  0
  5 16  1  6  0  0  0
  5  4  1  0  0  0  0
  7  2  1  0  0  0  0
  8 13  1  1  0  0  0
  8  7  1  0  0  0  0
  9  8  1  0  0  0  0
 10  2  1  1  0  0  0
 10  3  1  0  0  0  0
 11  9  1  0  0  0  0
 12 11  1  6  0  0  0
 12 10  1  0  0  0  0
 13 15  1  6  0  0  0
 13 14  1  0  0  0  0
 16 17  1  0  0  0  0
 19 18  1  0  0  0  0
 21 20  1  6  0  0  0
 21 19  1  0  0  0  0
 22 28  1  0  0  0  0
 22 34  1  0  0  0  0
 24 27  1  1  0  0  0
 24 32  1  0  0  0  0
 25 29  1  6  0  0  0
 25 24  1  0  0  0  0
 26 25  1  0  0  0  0
 28 26  1  6  0  0  0
 28 31  1  0  0  0  0
 31 30  1  1  0  0  0
 31 23  1  0  0  0  0
 32 30  1  0  0  0  0
 33 23  1  0  0  0  0
 33 21  1  1  0  0  0
 34 33  1  0  0  0  0
M  END
>  <MODEL>
5

>  <REMARK>
 VINA RESULT:      -8.9      2.774      4.077
  Name = 
  6 active torsions:
  status: ('A' for Active; 'I' for Inactive)
    1  A    between atoms: C_1  and  C_9
    2  A    between atoms: C_3  and  C_25
    3  A    between atoms: N_8  and  C_9
    4  A    between atoms: N_8  and  C_18
    5  A    between atoms: C_10  and  C_20
    6  A    between atoms: C_18  and  C_30
                            x       y       z     vdW  Elec       q    Type
                         _______ _______ _______ _____ _____    ______ ____

>  <TORSDO>
F 6

$$$$
=
 OpenBabel11052415593D

 34 37  0  0  1  0  0  0  0  0999 V2000
  189.7110  176.9210  143.0380 C   0  0  1  0  0  3  0  0  0  0  0  0
  187.4450  177.9190  146.0160 C   0  0  0  0  0  2  0  0  0  0  0  0
  189.7600  177.2870  145.8480 O   0  0  0  0  0  0  0  0  0  0  0  0
  190.9700  177.0710  145.1830 C   0  0  0  0  0  0  0  0  0  0  0  0
  191.0660  177.2350  143.6970 C   0  0  2  0  0  3  0  0  0  0  0  0
  192.0110  176.8350  145.8500 O   0  0  0  0  0  0  0  0  0  0  0  0
  186.0670  177.3320  145.7380 C   0  0  0  0  0  2  0  0  0  0  0  0
  185.3190  178.0290  144.5880 C   0  0  2  0  0  3  0  0  0  0  0  0
  186.2040  178.4120  143.3910 C   0  0  0  0  0  2  0  0  0  0  0  0
  188.4920  177.1690  145.2010 C   0  0  2  0  0  3  0  0  0  0  0  0
  187.2200  177.3400  143.0330 C   0  0  0  0  0  2  0  0  0  0  0  0
  188.5440  177.6370  143.7380 C   0  0  2  0  0  3  0  0  0  0  0  0
  184.5510  179.2500  145.0960 C   0  0  2  0  0  3  0  0  0  0  0  0
  183.1210  178.9910  145.0710 N   0  0  0  0  0  1  0  0  0  0  0  0
  184.8250  180.3620  144.2980 O   0  0  0  0  0  1  0  0  0  0  0  0
  191.5600  178.6460  143.3970 C   0  0  0  0  0  2  0  0  0  0  0  0
  191.0530  179.5340  144.3440 O   0  0  0  0  0  1  0  0  0  0  0  0
  189.7290  177.0600  141.5090 C   0  0  0  0  0  2  0  0  0  0  0  0
  190.8780  176.3800  140.9290 N   0  0  0  0  0  2  0  0  0  0  0  0
  192.9250  177.1320  139.8600 C   0  0  0  0  0  1  0  0  0  0  0  0
  191.4130  177.2460  139.8880 C   0  0  1  0  0  3  0  0  0  0  0  0
  188.9740  177.2820  136.9860 N   0  0  0  0  0  2  0  0  0  0  0  0
  190.6920  175.4430  138.3700 N   0  0  0  0  0  2  0  0  0  0  0  0
  188.5410  173.0950  134.9350 C   0  0  2  0  0  3  0  0  0  0  0  0
  187.5790  174.1870  135.4230 C   0  0  1  0  0  3  0  0  0  0  0  0
  188.2230  175.5650  135.4530 C   0  0  0  0  0  2  0  0  0  0  0  0
  188.0000  171.7260  135.3050 C   0  0  0  0  0  1  0  0  0  0  0  0
  188.8120  175.8380  136.8310 C   0  0  1  0  0  3  0  0  0  0  0  0
  186.4570  174.2220  134.5950 O   0  0  0  0  0  1  0  0  0  0  0  0
  190.0760  173.6230  136.8970 C   0  0  0  0  0  2  0  0  0  0  0  0
  190.1750  175.1380  137.0360 C   0  0  2  0  0  3  0  0  0  0  0  0
  189.9840  173.2340  135.4270 C   0  0  0  0  0  2  0  0  0  0  0  0
  190.8320  176.8930  138.5200 C   0  0  1  0  0  3  0  0  0  0  0  0
  189.4760  177.5680  138.3270 C   0  0  0  0  0  2  0  0  0  0  0  0
  1 18  1  6  0  0  0
  1  5  1  0  0  0  0
  1 12  1  0  0  0  0
  4  3  1  0  0  0  0
  4  6  2  0  0  0  0
  5 16  1  1  0  0  0
  5  4  1  0  0  0  0
  7  2  1  0  0  0  0
  8 13  1  1  0  0  0
  8  7  1  0  0  0  0
  9  8  1  0  0  0  0
 10  3  1  0  0  0  0
 10  2  1  1  0  0  0
 11  9  1  0  0  0  0
 12 11  1  6  0  0  0
 12 10  1  0  0  0  0
 13 15  1  6  0  0  0
 14 13  1  0  0  0  0
 16 17  1  0  0  0  0
 19 18  1  0  0  0  0
 21 20  1  6  0  0  0
 21 19  1  0  0  0  0
 22 34  1  0  0  0  0
 23 33  1  0  0  0  0
 24 27  1  1  0  0  0
 24 25  1  0  0  0  0
 24 32  1  0  0  0  0
 25 29  1  6  0  0  0
 25 26  1  0  0  0  0
 28 26  1  6  0  0  0
 28 22  1  0  0  0  0
 28 31  1  0  0  0  0
 31 30  1  1  0  0  0
 31 23  1  0  0  0  0
 32 30  1  0  0  0  0
 33 21  1  1  0  0  0
 34 33  1  0  0  0  0
M  END
>  <MODEL>
6

>  <REMARK>
 VINA RESULT:      -8.5      1.658      2.092
  Name = 
  6 active torsions:
  status: ('A' for Active; 'I' for Inactive)
    1  A    between atoms: C_1  and  C_9
    2  A    between atoms: C_3  and  C_25
    3  A    between atoms: N_8  and  C_9
    4  A    between atoms: N_8  and  C_18
    5  A    between atoms: C_10  and  C_20
    6  A    between atoms: C_18  and  C_30
                            x       y       z     vdW  Elec       q    Type
                         _______ _______ _______ _____ _____    ______ ____

>  <TORSDO>
F 6

$$$$
=
 OpenBabel11052415593D

 34 37  0  0  1  0  0  0  0  0999 V2000
  183.6000  178.4370  139.5990 C   0  0  1  0  0  3  0  0  0  0  0  0
  185.6520  177.3810  136.4890 C   0  0  0  0  0  2  0  0  0  0  0  0
  183.3030  177.7270  136.8710 O   0  0  0  0  0  0  0  0  0  0  0  0
  182.1890  178.2200  137.5570 C   0  0  0  0  0  0  0  0  0  0  0  0
  182.3510  178.9450  138.8570 C   0  0  2  0  0  3  0  0  0  0  0  0
  181.0500  178.1410  137.0280 O   0  0  0  0  0  0  0  0  0  0  0  0
  186.7830  176.4900  136.9870 C   0  0  0  0  0  2  0  0  0  0  0  0
  187.8640  177.2470  137.7760 C   0  0  2  0  0  3  0  0  0  0  0  0
  187.3240  178.3350  138.7180 C   0  0  0  0  0  2  0  0  0  0  0  0
  184.5340  177.4140  137.5230 C   0  0  2  0  0  3  0  0  0  0  0  0
  186.0670  177.9100  139.4610 C   0  0  0  0  0  2  0  0  0  0  0  0
  184.8350  178.3760  138.6840 C   0  0  2  0  0  3  0  0  0  0  0  0
  188.9190  177.8320  136.8350 C   0  0  2  0  0  3  0  0  0  0  0  0
  190.1830  177.1330  136.9990 N   0  0  0  0  0  1  0  0  0  0  0  0
  189.1120  179.1880  137.1060 O   0  0  0  0  0  1  0  0  0  0  0  0
  182.3960  180.4430  138.5740 C   0  0  0  0  0  2  0  0  0  0  0  0
  181.1590  181.0150  138.8640 O   0  0  0  0  0  1  0  0  0  0  0  0
  183.8320  179.1290  140.9490 C   0  0  0  0  0  2  0  0  0  0  0  0
  183.7500  178.1820  142.0510 N   0  0  0  0  0  2  0  0  0  0  0  0
  183.1560  178.9960  144.2610 C   0  0  0  0  0  1  0  0  0  0  0  0
  184.2650  178.8510  143.2360 C   0  0  1  0  0  3  0  0  0  0  0  0
  186.9570  177.9400  145.7460 N   0  0  0  0  0  2  0  0  0  0  0  0
  186.5670  178.0330  142.9020 N   0  0  0  0  0  2  0  0  0  0  0  0
  190.9200  176.5030  143.7070 C   0  0  2  0  0  3  0  0  0  0  0  0
  190.5530  177.4730  144.8380 C   0  0  1  0  0  3  0  0  0  0  0  0
  189.2260  177.1290  145.4970 C   0  0  0  0  0  2  0  0  0  0  0  0
  192.0070  177.1100  142.8380 C   0  0  0  0  0  1  0  0  0  0  0  0
  188.0930  177.8990  144.8270 C   0  0  1  0  0  3  0  0  0  0  0  0
  191.5600  177.4640  145.8030 O   0  0  0  0  0  1  0  0  0  0  0  0
  188.7970  177.1900  142.4790 C   0  0  0  0  0  2  0  0  0  0  0  0
  187.6580  177.2570  143.4910 C   0  0  2  0  0  3  0  0  0  0  0  0
  189.7470  176.0530  142.8320 C   0  0  0  0  0  2  0  0  0  0  0  0
  185.4420  178.0840  143.8380 C   0  0  1  0  0  3  0  0  0  0  0  0
  185.8860  178.7310  145.1470 C   0  0  0  0  0  2  0  0  0  0  0  0
  1 18  1  1  0  0  0
  2  7  1  0  0  0  0
  3 10  1  0  0  0  0
  3  4  1  0  0  0  0
  4  5  1  0  0  0  0
  5 16  1  6  0  0  0
  5  1  1  0  0  0  0
  6  4  2  0  0  0  0
  7  8  1  0  0  0  0
  8 13  1  6  0  0  0
  8  9  1  0  0  0  0
  9 11  1  0  0  0  0
 10  2  1  6  0  0  0
 10 12  1  0  0  0  0
 12 11  1  1  0  0  0
 12  1  1  0  0  0  0
 13 14  1  1  0  0  0
 13 15  1  0  0  0  0
 16 17  1  0  0  0  0
 18 19  1  0  0  0  0
 19 21  1  0  0  0  0
 21 20  1  1  0  0  0
 23 31  1  0  0  0  0
 23 33  1  0  0  0  0
 24 27  1  6  0  0  0
 24 25  1  0  0  0  0
 25 26  1  0  0  0  0
 25 29  1  1  0  0  0
 28 26  1  1  0  0  0
 28 22  1  0  0  0  0
 30 32  1  0  0  0  0
 31 30  1  6  0  0  0
 31 28  1  0  0  0  0
 32 24  1  0  0  0  0
 33 21  1  6  0  0  0
 33 34  1  0  0  0  0
 34 22  1  0  0  0  0
M  END
>  <MODEL>
7

>  <REMARK>
 VINA RESULT:      -8.4      2.629      8.972
  Name = 
  6 active torsions:
  status: ('A' for Active; 'I' for Inactive)
    1  A    between atoms: C_1  and  C_9
    2  A    between atoms: C_3  and  C_25
    3  A    between atoms: N_8  and  C_9
    4  A    between atoms: N_8  and  C_18
    5  A    between atoms: C_10  and  C_20
    6  A    between atoms: C_18  and  C_30
                            x       y       z     vdW  Elec       q    Type
                         _______ _______ _______ _____ _____    ______ ____

>  <TORSDO>
F 6

$$$$
=
 OpenBabel11052415593D

 34 37  0  0  1  0  0  0  0  0999 V2000
  186.2290  177.7190  137.0470 C   0  0  1  0  0  3  0  0  0  0  0  0
  182.5180  177.3110  138.0780 C   0  0  0  0  0  2  0  0  0  0  0  0
  183.8710  176.3050  136.3610 O   0  0  0  0  0  0  0  0  0  0  0  0
  185.0700  175.9390  135.7440 C   0  0  0  0  0  0  0  0  0  0  0  0
  186.3860  176.3770  136.3100 C   0  0  2  0  0  3  0  0  0  0  0  0
  185.0470  175.1540  134.7610 O   0  0  0  0  0  0  0  0  0  0  0  0
  182.0210  178.6890  138.4940 C   0  0  0  0  0  2  0  0  0  0  0  0
  182.6150  179.1840  139.8240 C   0  0  2  0  0  3  0  0  0  0  0  0
  184.1030  178.8560  140.0200 C   0  0  0  0  0  2  0  0  0  0  0  0
  183.7520  177.4580  137.1950 C   0  0  2  0  0  3  0  0  0  0  0  0
  184.9280  179.0470  138.7580 C   0  0  0  0  0  2  0  0  0  0  0  0
  185.0300  177.7170  138.0100 C   0  0  2  0  0  3  0  0  0  0  0  0
  181.7950  178.6770  141.0110 C   0  0  2  0  0  3  0  0  0  0  0  0
  180.6750  179.5670  141.2670 N   0  0  0  0  0  1  0  0  0  0  0  0
  182.5910  178.6090  142.1570 O   0  0  0  0  0  1  0  0  0  0  0  0
  186.9200  175.2650  137.2060 C   0  0  0  0  0  2  0  0  0  0  0  0
  188.1160  174.7740  136.6860 O   0  0  0  0  0  1  0  0  0  0  0  0
  187.5400  178.2400  137.6520 C   0  0  0  0  0  2  0  0  0  0  0  0
  187.5830  178.0240  139.0910 N   0  0  0  0  0  2  0  0  0  0  0  0
  189.7840  177.4530  138.2380 C   0  0  0  0  0  1  0  0  0  0  0  0
  188.8010  177.2810  139.3800 C   0  0  1  0  0  3  0  0  0  0  0  0
  191.4700  177.7230  142.0360 N   0  0  0  0  0  2  0  0  0  0  0  0
  188.6360  177.2970  141.8400 N   0  0  0  0  0  2  0  0  0  0  0  0
  189.7430  177.5430  146.3850 C   0  0  2  0  0  3  0  0  0  0  0  0
  190.9400  176.9260  145.6490 C   0  0  1  0  0  3  0  0  0  0  0  0
  191.3870  177.7560  144.4560 C   0  0  0  0  0  2  0  0  0  0  0  0
  189.0950  176.5040  147.2820 C   0  0  0  0  0  1  0  0  0  0  0  0
  190.6940  177.2700  143.1890 C   0  0  1  0  0  3  0  0  0  0  0  0
  192.0070  176.7830  146.5360 O   0  0  0  0  0  1  0  0  0  0  0  0
  188.3740  177.3450  144.2470 C   0  0  0  0  0  2  0  0  0  0  0  0
  189.2440  177.7900  143.0760 C   0  0  2  0  0  3  0  0  0  0  0  0
  188.6840  178.1810  145.4810 C   0  0  0  0  0  2  0  0  0  0  0  0
  189.4320  177.7420  140.6940 C   0  0  1  0  0  3  0  0  0  0  0  0
  190.8580  177.2090  140.8140 C   0  0  0  0  0  2  0  0  0  0  0  0
  1 18  1  1  0  0  0
  1 12  1  0  0  0  0
  2  7  1  0  0  0  0
  3 10  1  0  0  0  0
  4  5  1  0  0  0  0
  4  3  1  0  0  0  0
  5  1  1  0  0  0  0
  5 16  1  1  0  0  0
  6  4  2  0  0  0  0
  7  8  1  0  0  0  0
  8  9  1  0  0  0  0
  8 13  1  1  0  0  0
 10 12  1  0  0  0  0
 10  2  1  1  0  0  0
 11  9  1  0  0  0  0
 12 11  1  6  0  0  0
 13 14  1  1  0  0  0
 13 15  1  0  0  0  0
 17 16  1  0  0  0  0
 18 19  1  0  0  0  0
 19 21  1  0  0  0  0
 21 20  1  6  0  0  0
 22 28  1  0  0  0  0
 23 31  1  0  0  0  0
 24 27  1  6  0  0  0
 25 24  1  0  0  0  0
 25 29  1  1  0  0  0
 26 25  1  0  0  0  0
 28 26  1  1  0  0  0
 30 32  1  0  0  0  0
 31 28  1  0  0  0  0
 31 30  1  1  0  0  0
 32 24  1  0  0  0  0
 33 21  1  6  0  0  0
 33 34  1  0  0  0  0
 33 23  1  0  0  0  0
 34 22  1  0  0  0  0
M  END
>  <MODEL>
8

>  <REMARK>
 VINA RESULT:      -8.1      2.356      8.268
  Name = 
  6 active torsions:
  status: ('A' for Active; 'I' for Inactive)
    1  A    between atoms: C_1  and  C_9
    2  A    between atoms: C_3  and  C_25
    3  A    between atoms: N_8  and  C_9
    4  A    between atoms: N_8  and  C_18
    5  A    between atoms: C_10  and  C_20
    6  A    between atoms: C_18  and  C_30
                            x       y       z     vdW  Elec       q    Type
                         _______ _______ _______ _____ _____    ______ ____

>  <TORSDO>
F 6

$$$$
=
 OpenBabel11052415593D

 34 37  0  0  1  0  0  0  0  0999 V2000
  190.5770  177.2690  137.7590 C   0  0  1  0  0  3  0  0  0  0  0  0
  187.6190  176.6550  135.3360 C   0  0  0  0  0  2  0  0  0  0  0  0
  189.9790  176.2070  135.2010 O   0  0  0  0  0  0  0  0  0  0  0  0
  191.2660  176.0240  135.7140 C   0  0  0  0  0  0  0  0  0  0  0  0
  191.5440  176.2250  137.1720 C   0  0  2  0  0  3  0  0  0  0  0  0
  192.1770  175.5900  134.9630 O   0  0  0  0  0  0  0  0  0  0  0  0
  186.6780  177.8440  135.4770 C   0  0  0  0  0  2  0  0  0  0  0  0
  185.9230  177.8780  136.8170 C   0  0  2  0  0  3  0  0  0  0  0  0
  186.7640  177.4650  138.0350 C   0  0  0  0  0  2  0  0  0  0  0  0
  189.0070  177.0400  135.8330 C   0  0  2  0  0  3  0  0  0  0  0  0
  188.1790  178.0230  138.0000 C   0  0  0  0  0  2  0  0  0  0  0  0
  189.1160  176.9960  137.3660 C   0  0  2  0  0  3  0  0  0  0  0  0
  184.6440  177.0440  136.7450 C   0  0  2  0  0  3  0  0  0  0  0  0
  183.6370  177.5860  137.6420 N   0  0  0  0  0  1  0  0  0  0  0  0
  184.9070  175.7200  137.1060 O   0  0  0  0  0  1  0  0  0  0  0  0
  191.4560  174.8740  137.8720 C   0  0  0  0  0  2  0  0  0  0  0  0
  192.7260  174.3080  137.9680 O   0  0  0  0  0  1  0  0  0  0  0  0
  190.8030  177.5390  139.2530 C   0  0  0  0  0  2  0  0  0  0  0  0
  189.9130  176.7340  140.0780 N   0  0  0  0  0  2  0  0  0  0  0  0
  191.5190  177.7020  141.6200 C   0  0  0  0  0  1  0  0  0  0  0  0
  190.5640  176.5510  141.3660 C   0  0  1  0  0  3  0  0  0  0  0  0
  187.3120  177.1350  143.2260 N   0  0  0  0  0  2  0  0  0  0  0  0
  190.1220  176.8930  143.7670 N   0  0  0  0  0  2  0  0  0  0  0  0
  187.9300  177.6260  147.8410 C   0  0  2  0  0  3  0  0  0  0  0  0
  187.1410  178.3650  146.7510 C   0  0  1  0  0  3  0  0  0  0  0  0
  186.7990  177.4720  145.5680 C   0  0  0  0  0  2  0  0  0  0  0  0
  188.5840  178.6280  148.7750 C   0  0  0  0  0  1  0  0  0  0  0  0
  187.8760  177.5860  144.4960 C   0  0  1  0  0  3  0  0  0  0  0  0
  185.9640  178.8770  147.2960 O   0  0  0  0  0  1  0  0  0  0  0  0
  189.7770  177.1750  146.1480 C   0  0  0  0  0  2  0  0  0  0  0  0
  189.1310  176.7490  144.8340 C   0  0  2  0  0  3  0  0  0  0  0  0
  188.9780  176.6350  147.3260 C   0  0  0  0  0  2  0  0  0  0  0  0
  189.5400  176.4570  142.4970 C   0  0  1  0  0  3  0  0  0  0  0  0
  188.3100  177.3010  142.1730 C   0  0  0  0  0  2  0  0  0  0  0  0
  1 18  1  1  0  0  0
  2  7  1  0  0  0  0
  3  4  1  0  0  0  0
  3 10  1  0  0  0  0
  4  5  1  0  0  0  0
  5  1  1  0  0  0  0
  5 16  1  1  0  0  0
  6  4  2  0  0  0  0
  7  8  1  0  0  0  0
  8 13  1  6  0  0  0
  8  9  1  0  0  0  0
 10  2  1  1  0  0  0
 10 12  1  0  0  0  0
 11  9  1  0  0  0  0
 12  1  1  0  0  0  0
 12 11  1  1  0  0  0
 13 15  1  1  0  0  0
 13 14  1  0  0  0  0
 16 17  1  0  0  0  0
 18 19  1  0  0  0  0
 19 21  1  0  0  0  0
 21 20  1  1  0  0  0
 22 28  1  0  0  0  0
 23 31  1  0  0  0  0
 24 27  1  6  0  0  0
 25 29  1  1  0  0  0
 25 24  1  0  0  0  0
 26 25  1  0  0  0  0
 28 31  1  0  0  0  0
 28 26  1  1  0  0  0
 30 32  1  0  0  0  0
 31 30  1  1  0  0  0
 32 24  1  0  0  0  0
 33 21  1  6  0  0  0
 33 23  1  0  0  0  0
 34 33  1  0  0  0  0
 34 22  1  0  0  0  0
M  END
>  <MODEL>
9

>  <REMARK>
 VINA RESULT:      -8.0      2.972      8.486
  Name = 
  6 active torsions:
  status: ('A' for Active; 'I' for Inactive)
    1  A    between atoms: C_1  and  C_9
    2  A    between atoms: C_3  and  C_25
    3  A    between atoms: N_8  and  C_9
    4  A    between atoms: N_8  and  C_18
    5  A    between atoms: C_10  and  C_20
    6  A    between atoms: C_18  and  C_30
                            x       y       z     vdW  Elec       q    Type
                         _______ _______ _______ _____ _____    ______ ____

>  <TORSDO>
F 6

$$$$
