=
 OpenBabel11052413013D

 31 34  0  0  1  0  0  0  0  0999 V2000
  186.8610  178.1230  142.1720 C   0  0  1  0  0  3  0  0  0  0  0  0
  187.1470  177.5360  143.5690 C   0  0  1  0  0  3  0  0  0  0  0  0
  188.6600  177.3770  143.7920 C   0  0  2  0  0  3  0  0  0  0  0  0
  190.3530  175.5760  143.1430 C   0  0  0  0  0  3  0  0  0  0  0  0
  189.1370  176.1470  143.0580 C   0  0  0  0  0  3  0  0  0  0  0  0
  187.9640  177.4880  146.3340 C   0  0  0  0  0  2  0  0  0  0  0  0
  191.4980  175.9570  144.0510 C   0  0  0  0  0  2  0  0  0  0  0  0
  186.5580  178.3150  144.5820 O   0  0  0  0  0  0  0  0  0  0  0  0
  191.4140  177.3570  144.6450 C   0  0  0  0  0  2  0  0  0  0  0  0
  186.5650  177.5020  145.7220 C   0  0  0  0  0  2  0  0  0  0  0  0
  189.0210  177.3700  145.2680 C   0  0  0  0  0  0  0  0  0  0  0  0
  190.3020  177.4120  145.6460 C   0  0  0  0  0  3  0  0  0  0  0  0
  183.4750  178.0310  141.2570 N   0  0  0  0  0  0  0  0  0  0  0  0
  183.9830  178.9870  140.2930 C   0  0  0  0  0  2  0  0  0  0  0  0
  182.2340  178.5750  141.7780 C   0  0  0  0  0  1  0  0  0  0  0  0
  184.4310  178.0220  142.3580 C   0  0  0  0  0  2  0  0  0  0  0  0
  185.5910  178.8490  142.0140 N   0  0  0  0  0  0  0  0  0  0  0  0
  185.4390  179.1790  140.6120 C   0  0  0  0  0  2  0  0  0  0  0  0
  188.2780  178.9650  141.3690 S   0  0  0  0  0  0  0  0  0  0  0  0
  188.5890  177.6730  140.1070 C   0  0  0  0  0  2  0  0  0  0  0  0
  190.8240  177.2420  139.9130 O   0  0  0  0  0  1  0  0  0  0  0  0
  189.8040  177.9160  139.3280 N   0  0  0  0  0  0  0  0  0  0  0  0
  189.6400  177.3840  137.9800 C   0  0  0  0  0  2  0  0  0  0  0  0
  188.9420  178.3780  137.1100 C   0  0  0  0  0  0  0  0  0  0  0  0
  189.0030  179.5680  137.3730 O   0  0  0  0  0  0  0  0  0  0  0  0
  188.2290  177.9120  135.8730 C   0  0  0  0  0  2  0  0  0  0  0  0
  186.8780  177.2440  136.1500 C   0  0  2  0  0  3  0  0  0  0  0  0
  186.1320  177.9190  137.2890 C   0  0  0  0  0  1  0  0  0  0  0  0
  187.0230  175.7520  136.4000 C   0  0  2  0  0  3  0  0  0  0  0  0
  186.2030  174.9960  135.4300 C   0  0  0  0  0  2  0  0  0  0  0  0
  185.7690  175.2170  136.7490 O   0  0  0  0  0  0  0  0  0  0  0  0
  1 19  1  1  0  0  0
  2  1  1  6  0  0  0
  2  3  1  0  0  0  0
  2  8  1  0  0  0  0
  3  5  1  1  0  0  0
  3 11  1  0  0  0  0
  4  7  1  0  0  0  0
  5  4  2  0  0  0  0
  7  9  1  0  0  0  0
  8 10  1  0  0  0  0
  9 12  1  0  0  0  0
 10  6  1  0  0  0  0
 11 12  2  0  0  0  0
 11  6  1  0  0  0  0
 13 15  1  0  0  0  0
 13 16  1  0  0  0  0
 14 18  1  0  0  0  0
 14 13  1  0  0  0  0
 17  1  1  0  0  0  0
 17 16  1  0  0  0  0
 18 17  1  0  0  0  0
 20 19  1  0  0  0  0
 22 21  1  0  0  0  0
 22 20  1  0  0  0  0
 23 22  1  0  0  0  0
 24 25  2  0  0  0  0
 24 23  1  0  0  0  0
 26 27  1  0  0  0  0
 26 24  1  0  0  0  0
 27 28  1  1  0  0  0
 29 27  1  6  0  0  0
 29 31  1  0  0  0  0
 30 29  1  0  0  0  0
 30 31  1  0  0  0  0
M  END
>  <MODEL>
1

>  <REMARK>
 VINA RESULT:      -7.3      0.000      0.000
  Name = 
  10 active torsions:
  status: ('A' for Active; 'I' for Inactive)
    1  A    between atoms: C_1  and  C_6
    2  A    between atoms: C_3  and  C_19
    3  A    between atoms: C_3  and  C_23
    4  A    between atoms: C_4  and  C_12
    5  A    between atoms: C_6  and  C_19
    6  A    between atoms: N_9  and  C_15
    7  A    between atoms: N_9  and  C_23
    8  A    between atoms: C_12  and  S_20
    9  A    between atoms: C_12  and  N_27
   10  A    between atoms: C_15  and  S_20
                            x       y       z     vdW  Elec       q    Type
                         _______ _______ _______ _____ _____    ______ ____

>  <TORSDO>
F 10

$$$$
=
 OpenBabel11052413013D

 31 34  0  0  1  0  0  0  0  0999 V2000
  189.2860  177.3790  140.4840 C   0  0  1  0  0  3  0  0  0  0  0  0
  189.4090  177.7280  138.9880 C   0  0  1  0  0  3  0  0  0  0  0  0
  189.2140  176.4740  138.1200 C   0  0  2  0  0  3  0  0  0  0  0  0
  190.7750  174.5890  137.3820 C   0  0  0  0  0  3  0  0  0  0  0  0
  190.4860  175.6600  138.1440 C   0  0  0  0  0  3  0  0  0  0  0  0
  188.5510  178.2480  136.2850 C   0  0  0  0  0  2  0  0  0  0  0  0
  189.9540  173.9970  136.2610 C   0  0  0  0  0  2  0  0  0  0  0  0
  188.5080  178.7470  138.6250 O   0  0  0  0  0  0  0  0  0  0  0  0
  188.4870  174.4050  136.2480 C   0  0  0  0  0  2  0  0  0  0  0  0
  188.9650  179.2180  137.3890 C   0  0  0  0  0  2  0  0  0  0  0  0
  188.7530  176.8200  136.7140 C   0  0  0  0  0  0  0  0  0  0  0  0
  188.3710  175.8510  135.8750 C   0  0  0  0  0  3  0  0  0  0  0  0
  191.1180  176.5590  143.3630 N   0  0  0  0  0  0  0  0  0  0  0  0
  192.1430  177.2160  142.5750 C   0  0  0  0  0  2  0  0  0  0  0  0
  191.7160  175.3580  143.9170 C   0  0  0  0  0  1  0  0  0  0  0  0
  190.0980  176.1280  142.4160 C   0  0  0  0  0  2  0  0  0  0  0  0
  190.4110  176.6410  141.0790 N   0  0  0  0  0  0  0  0  0  0  0  0
  191.5070  177.5720  141.2610 C   0  0  0  0  0  2  0  0  0  0  0  0
  188.6590  178.7270  141.5580 S   0  0  0  0  0  0  0  0  0  0  0  0
  187.0200  177.9750  141.8850 C   0  0  0  0  0  2  0  0  0  0  0  0
  185.2970  179.4320  141.5320 O   0  0  0  0  0  1  0  0  0  0  0  0
  186.0780  178.9070  142.5060 N   0  0  0  0  0  0  0  0  0  0  0  0
  185.2080  178.1880  143.4290 C   0  0  0  0  0  2  0  0  0  0  0  0
  185.6370  178.4230  144.8400 C   0  0  0  0  0  0  0  0  0  0  0  0
  185.2760  179.4290  145.4280 O   0  0  0  0  0  0  0  0  0  0  0  0
  186.4520  177.3810  145.5520 C   0  0  0  0  0  2  0  0  0  0  0  0
  187.6820  177.9410  146.2740 C   0  0  2  0  0  3  0  0  0  0  0  0
  188.8910  178.0240  145.3560 C   0  0  0  0  0  1  0  0  0  0  0  0
  188.0070  177.1570  147.5350 C   0  0  2  0  0  3  0  0  0  0  0  0
  188.2200  178.0860  148.6650 C   0  0  0  0  0  2  0  0  0  0  0  0
  189.2980  177.5010  147.9750 O   0  0  0  0  0  0  0  0  0  0  0  0
  1 17  1  0  0  0  0
  1 19  1  1  0  0  0
  2  1  1  1  0  0  0
  3  5  1  6  0  0  0
  3  2  1  0  0  0  0
  4  5  2  0  0  0  0
  6 11  1  0  0  0  0
  6 10  1  0  0  0  0
  7  4  1  0  0  0  0
  8  2  1  0  0  0  0
  9  7  1  0  0  0  0
 10  8  1  0  0  0  0
 11  3  1  0  0  0  0
 12  9  1  0  0  0  0
 12 11  2  0  0  0  0
 13 15  1  0  0  0  0
 14 13  1  0  0  0  0
 16 13  1  0  0  0  0
 17 18  1  0  0  0  0
 17 16  1  0  0  0  0
 18 14  1  0  0  0  0
 19 20  1  0  0  0  0
 20 22  1  0  0  0  0
 21 22  1  0  0  0  0
 22 23  1  0  0  0  0
 23 24  1  0  0  0  0
 24 25  2  0  0  0  0
 24 26  1  0  0  0  0
 26 27  1  0  0  0  0
 27 28  1  6  0  0  0
 29 27  1  6  0  0  0
 29 31  1  0  0  0  0
 29 30  1  0  0  0  0
 31 30  1  0  0  0  0
M  END
>  <MODEL>
2

>  <REMARK>
 VINA RESULT:      -7.2      2.030      8.091
  Name = 
  10 active torsions:
  status: ('A' for Active; 'I' for Inactive)
    1  A    between atoms: C_1  and  C_6
    2  A    between atoms: C_3  and  C_19
    3  A    between atoms: C_3  and  C_23
    4  A    between atoms: C_4  and  C_12
    5  A    between atoms: C_6  and  C_19
    6  A    between atoms: N_9  and  C_15
    7  A    between atoms: N_9  and  C_23
    8  A    between atoms: C_12  and  S_20
    9  A    between atoms: C_12  and  N_27
   10  A    between atoms: C_15  and  S_20
                            x       y       z     vdW  Elec       q    Type
                         _______ _______ _______ _____ _____    ______ ____

>  <TORSDO>
F 10

$$$$
=
 OpenBabel11052413013D

 31 34  0  0  1  0  0  0  0  0999 V2000
  186.7940  178.1240  142.2250 C   0  0  1  0  0  3  0  0  0  0  0  0
  187.1250  177.5430  143.6150 C   0  0  1  0  0  3  0  0  0  0  0  0
  188.6450  177.3800  143.7880 C   0  0  2  0  0  3  0  0  0  0  0  0
  190.3080  175.5690  143.0930 C   0  0  0  0  0  3  0  0  0  0  0  0
  189.0920  176.1440  143.0460 C   0  0  0  0  0  3  0  0  0  0  0  0
  188.0350  177.5090  146.3510 C   0  0  0  0  0  2  0  0  0  0  0  0
  191.4840  175.9510  143.9600 C   0  0  0  0  0  2  0  0  0  0  0  0
  186.5740  178.3310  144.6420 O   0  0  0  0  0  0  0  0  0  0  0  0
  191.4260  177.3540  144.5480 C   0  0  0  0  0  2  0  0  0  0  0  0
  186.6160  177.5250  145.7860 C   0  0  0  0  0  2  0  0  0  0  0  0
  189.0540  177.3810  145.2510 C   0  0  0  0  0  0  0  0  0  0  0  0
  190.3480  177.4200  145.5860 C   0  0  0  0  0  3  0  0  0  0  0  0
  183.3760  178.1060  141.4330 N   0  0  0  0  0  0  0  0  0  0  0  0
  183.8700  179.0500  140.4510 C   0  0  0  0  0  2  0  0  0  0  0  0
  182.1670  178.6760  141.9980 C   0  0  0  0  0  1  0  0  0  0  0  0
  184.3710  178.0760  142.4990 C   0  0  0  0  0  2  0  0  0  0  0  0
  185.5360  178.8770  142.1120 N   0  0  0  0  0  0  0  0  0  0  0  0
  185.3400  179.2110  140.7160 C   0  0  0  0  0  2  0  0  0  0  0  0
  188.1950  178.9250  141.3550 S   0  0  0  0  0  0  0  0  0  0  0  0
  188.2460  177.7570  139.9430 C   0  0  0  0  0  2  0  0  0  0  0  0
  189.0400  179.2450  138.4020 O   0  0  0  0  0  1  0  0  0  0  0  0
  188.0050  178.4090  138.6540 N   0  0  0  0  0  0  0  0  0  0  0  0
  187.9790  177.4090  137.5930 C   0  0  0  0  0  2  0  0  0  0  0  0
  186.7640  177.5850  136.7420 C   0  0  0  0  0  0  0  0  0  0  0  0
  186.8720  177.6280  135.5270 O   0  0  0  0  0  0  0  0  0  0  0  0
  185.4070  177.6340  137.3840 C   0  0  0  0  0  2  0  0  0  0  0  0
  184.3360  176.8330  136.6370 C   0  0  2  0  0  3  0  0  0  0  0  0
  182.9550  177.4480  136.7900 C   0  0  0  0  0  1  0  0  0  0  0  0
  184.3310  175.3700  137.0490 C   0  0  2  0  0  3  0  0  0  0  0  0
  184.7360  174.5230  135.9060 C   0  0  0  0  0  2  0  0  0  0  0  0
  183.3860  174.6730  136.2730 O   0  0  0  0  0  0  0  0  0  0  0  0
  1 19  1  1  0  0  0
  2  1  1  6  0  0  0
  2  3  1  0  0  0  0
  2  8  1  0  0  0  0
  3  5  1  1  0  0  0
  3 11  1  0  0  0  0
  4  7  1  0  0  0  0
  5  4  2  0  0  0  0
  7  9  1  0  0  0  0
  8 10  1  0  0  0  0
  9 12  1  0  0  0  0
 10  6  1  0  0  0  0
 11 12  2  0  0  0  0
 11  6  1  0  0  0  0
 13 15  1  0  0  0  0
 13 16  1  0  0  0  0
 14 18  1  0  0  0  0
 14 13  1  0  0  0  0
 17  1  1  0  0  0  0
 17 16  1  0  0  0  0
 18 17  1  0  0  0  0
 20 19  1  0  0  0  0
 21 22  1  0  0  0  0
 22 20  1  0  0  0  0
 23 22  1  0  0  0  0
 24 26  1  0  0  0  0
 24 23  1  0  0  0  0
 25 24  2  0  0  0  0
 27 28  1  1  0  0  0
 27 26  1  0  0  0  0
 29 27  1  6  0  0  0
 30 31  1  0  0  0  0
 30 29  1  0  0  0  0
 31 29  1  0  0  0  0
M  END
>  <MODEL>
3

>  <REMARK>
 VINA RESULT:      -7.1      1.241      1.590
  Name = 
  10 active torsions:
  status: ('A' for Active; 'I' for Inactive)
    1  A    between atoms: C_1  and  C_6
    2  A    between atoms: C_3  and  C_19
    3  A    between atoms: C_3  and  C_23
    4  A    between atoms: C_4  and  C_12
    5  A    between atoms: C_6  and  C_19
    6  A    between atoms: N_9  and  C_15
    7  A    between atoms: N_9  and  C_23
    8  A    between atoms: C_12  and  S_20
    9  A    between atoms: C_12  and  N_27
   10  A    between atoms: C_15  and  S_20
                            x       y       z     vdW  Elec       q    Type
                         _______ _______ _______ _____ _____    ______ ____

>  <TORSDO>
F 10

$$$$
=
 OpenBabel11052413013D

 31 34  0  0  1  0  0  0  0  0999 V2000
  189.3860  176.3180  138.4570 C   0  0  1  0  0  3  0  0  0  0  0  0
  188.7290  176.5100  137.0750 C   0  0  1  0  0  3  0  0  0  0  0  0
  187.2050  176.3260  137.1670 C   0  0  2  0  0  3  0  0  0  0  0  0
  185.6790  174.2750  137.1470 C   0  0  0  0  0  3  0  0  0  0  0  0
  186.8940  174.8500  137.2300 C   0  0  0  0  0  3  0  0  0  0  0  0
  187.2240  177.8100  134.9870 C   0  0  0  0  0  2  0  0  0  0  0  0
  184.3520  174.9440  136.8780 C   0  0  0  0  0  2  0  0  0  0  0  0
  189.0620  177.7600  136.5200 O   0  0  0  0  0  0  0  0  0  0  0  0
  184.3250  176.4480  137.1120 C   0  0  0  0  0  2  0  0  0  0  0  0
  188.7330  177.6590  135.1630 C   0  0  0  0  0  2  0  0  0  0  0  0
  186.4760  177.0440  136.0450 C   0  0  0  0  0  0  0  0  0  0  0  0
  185.1420  177.1350  136.0610 C   0  0  0  0  0  3  0  0  0  0  0  0
  192.6190  175.7230  137.2300 N   0  0  0  0  0  0  0  0  0  0  0  0
  191.9590  174.4900  136.8450 C   0  0  0  0  0  2  0  0  0  0  0  0
  193.9040  175.3560  137.7970 C   0  0  0  0  0  1  0  0  0  0  0  0
  191.8210  176.2860  138.3120 C   0  0  0  0  0  2  0  0  0  0  0  0
  190.6030  175.4920  138.4950 N   0  0  0  0  0  0  0  0  0  0  0  0
  190.5550  174.5770  137.3730 C   0  0  0  0  0  2  0  0  0  0  0  0
  189.5080  177.8300  139.4860 S   0  0  0  0  0  0  0  0  0  0  0  0
  189.5040  176.9700  141.1050 C   0  0  0  0  0  2  0  0  0  0  0  0
  187.7650  178.3940  141.5130 O   0  0  0  0  0  1  0  0  0  0  0  0
  188.7420  177.6860  142.1290 N   0  0  0  0  0  0  0  0  0  0  0  0
  188.0970  176.7290  143.0210 C   0  0  0  0  0  2  0  0  0  0  0  0
  187.5560  177.4250  144.2280 C   0  0  0  0  0  0  0  0  0  0  0  0
  186.3510  177.4770  144.4130 O   0  0  0  0  0  0  0  0  0  0  0  0
  188.5040  177.9950  145.2440 C   0  0  0  0  0  2  0  0  0  0  0  0
  189.5740  177.0060  145.7180 C   0  0  2  0  0  3  0  0  0  0  0  0
  189.5580  176.8320  147.2280 C   0  0  0  0  0  1  0  0  0  0  0  0
  190.9600  177.3910  145.2280 C   0  0  2  0  0  3  0  0  0  0  0  0
  191.5240  176.3020  144.4030 C   0  0  0  0  0  2  0  0  0  0  0  0
  191.9040  176.4840  145.7450 O   0  0  0  0  0  0  0  0  0  0  0  0
  1 17  1  0  0  0  0
  1 19  1  6  0  0  0
  2  3  1  0  0  0  0
  2  1  1  1  0  0  0
  3  5  1  6  0  0  0
  4  5  2  0  0  0  0
  6 10  1  0  0  0  0
  6 11  1  0  0  0  0
  7  9  1  0  0  0  0
  7  4  1  0  0  0  0
  8  2  1  0  0  0  0
 10  8  1  0  0  0  0
 11 12  2  0  0  0  0
 11  3  1  0  0  0  0
 12  9  1  0  0  0  0
 13 15  1  0  0  0  0
 13 16  1  0  0  0  0
 14 13  1  0  0  0  0
 14 18  1  0  0  0  0
 16 17  1  0  0  0  0
 18 17  1  0  0  0  0
 19 20  1  0  0  0  0
 20 22  1  0  0  0  0
 21 22  1  0  0  0  0
 22 23  1  0  0  0  0
 23 24  1  0  0  0  0
 24 25  2  0  0  0  0
 24 26  1  0  0  0  0
 26 27  1  0  0  0  0
 27 28  1  1  0  0  0
 29 27  1  1  0  0  0
 29 31  1  0  0  0  0
 30 29  1  0  0  0  0
 30 31  1  0  0  0  0
M  END
>  <MODEL>
4

>  <REMARK>
 VINA RESULT:      -6.9      2.554      8.610
  Name = 
  10 active torsions:
  status: ('A' for Active; 'I' for Inactive)
    1  A    between atoms: C_1  and  C_6
    2  A    between atoms: C_3  and  C_19
    3  A    between atoms: C_3  and  C_23
    4  A    between atoms: C_4  and  C_12
    5  A    between atoms: C_6  and  C_19
    6  A    between atoms: N_9  and  C_15
    7  A    between atoms: N_9  and  C_23
    8  A    between atoms: C_12  and  S_20
    9  A    between atoms: C_12  and  N_27
   10  A    between atoms: C_15  and  S_20
                            x       y       z     vdW  Elec       q    Type
                         _______ _______ _______ _____ _____    ______ ____

>  <TORSDO>
F 10

$$$$
=
 OpenBabel11052413013D

 31 34  0  0  1  0  0  0  0  0999 V2000
  189.5080  176.2950  138.3170 C   0  0  1  0  0  3  0  0  0  0  0  0
  188.8540  176.4210  136.9260 C   0  0  1  0  0  3  0  0  0  0  0  0
  187.3280  176.2580  137.0280 C   0  0  2  0  0  3  0  0  0  0  0  0
  185.7800  174.2260  137.1150 C   0  0  0  0  0  3  0  0  0  0  0  0
  187.0010  174.7910  137.1680 C   0  0  0  0  0  3  0  0  0  0  0  0
  187.3630  177.6240  134.7720 C   0  0  0  0  0  2  0  0  0  0  0  0
  184.4600  174.8940  136.8110 C   0  0  0  0  0  2  0  0  0  0  0  0
  189.2000  177.6360  136.3070 O   0  0  0  0  0  0  0  0  0  0  0  0
  184.4500  176.4090  136.9640 C   0  0  0  0  0  2  0  0  0  0  0  0
  188.8700  177.4660  134.9560 C   0  0  0  0  0  2  0  0  0  0  0  0
  186.6060  176.9230  135.8680 C   0  0  0  0  0  0  0  0  0  0  0  0
  185.2740  177.0290  135.8790 C   0  0  0  0  0  3  0  0  0  0  0  0
  192.7020  175.5640  137.0600 N   0  0  0  0  0  0  0  0  0  0  0  0
  192.0260  174.3060  136.8100 C   0  0  0  0  0  2  0  0  0  0  0  0
  194.0010  175.2420  137.6220 C   0  0  0  0  0  1  0  0  0  0  0  0
  191.9380  176.2310  138.1070 C   0  0  0  0  0  2  0  0  0  0  0  0
  190.7220  175.4670  138.3970 N   0  0  0  0  0  0  0  0  0  0  0  0
  190.6380  174.4520  137.3670 C   0  0  0  0  0  2  0  0  0  0  0  0
  189.6350  177.8560  139.2700 S   0  0  0  0  0  0  0  0  0  0  0  0
  189.7600  177.0710  140.9220 C   0  0  0  0  0  2  0  0  0  0  0  0
  188.1630  178.6200  141.4430 O   0  0  0  0  0  1  0  0  0  0  0  0
  189.1610  177.8800  141.9840 N   0  0  0  0  0  0  0  0  0  0  0  0
  188.5670  177.0100  142.9920 C   0  0  0  0  0  2  0  0  0  0  0  0
  188.8300  177.5440  144.3620 C   0  0  0  0  0  0  0  0  0  0  0  0
  189.6350  178.4470  144.5210 O   0  0  0  0  0  0  0  0  0  0  0  0
  188.0460  177.0140  145.5290 C   0  0  0  0  0  2  0  0  0  0  0  0
  187.5040  178.1050  146.4590 C   0  0  2  0  0  3  0  0  0  0  0  0
  188.1230  178.0300  147.8450 C   0  0  0  0  0  1  0  0  0  0  0  0
  185.9860  178.0810  146.5370 C   0  0  2  0  0  3  0  0  0  0  0  0
  185.4210  179.1560  145.6930 C   0  0  0  0  0  2  0  0  0  0  0  0
  185.5310  179.2930  147.0890 O   0  0  0  0  0  0  0  0  0  0  0  0
  1 17  1  0  0  0  0
  1 19  1  6  0  0  0
  2  3  1  0  0  0  0
  2  1  1  1  0  0  0
  3  5  1  6  0  0  0
  4  5  2  0  0  0  0
  6 10  1  0  0  0  0
  6 11  1  0  0  0  0
  7  9  1  0  0  0  0
  7  4  1  0  0  0  0
  8  2  1  0  0  0  0
 10  8  1  0  0  0  0
 11 12  2  0  0  0  0
 11  3  1  0  0  0  0
 12  9  1  0  0  0  0
 13 15  1  0  0  0  0
 13 16  1  0  0  0  0
 14 13  1  0  0  0  0
 14 18  1  0  0  0  0
 16 17  1  0  0  0  0
 18 17  1  0  0  0  0
 19 20  1  0  0  0  0
 20 22  1  0  0  0  0
 21 22  1  0  0  0  0
 22 23  1  0  0  0  0
 23 24  1  0  0  0  0
 24 25  2  0  0  0  0
 24 26  1  0  0  0  0
 26 27  1  0  0  0  0
 27 28  1  1  0  0  0
 29 27  1  6  0  0  0
 29 31  1  0  0  0  0
 30 29  1  0  0  0  0
 30 31  1  0  0  0  0
M  END
>  <MODEL>
5

>  <REMARK>
 VINA RESULT:      -6.8      2.756      8.757
  Name = 
  10 active torsions:
  status: ('A' for Active; 'I' for Inactive)
    1  A    between atoms: C_1  and  C_6
    2  A    between atoms: C_3  and  C_19
    3  A    between atoms: C_3  and  C_23
    4  A    between atoms: C_4  and  C_12
    5  A    between atoms: C_6  and  C_19
    6  A    between atoms: N_9  and  C_15
    7  A    between atoms: N_9  and  C_23
    8  A    between atoms: C_12  and  S_20
    9  A    between atoms: C_12  and  N_27
   10  A    between atoms: C_15  and  S_20
                            x       y       z     vdW  Elec       q    Type
                         _______ _______ _______ _____ _____    ______ ____

>  <TORSDO>
F 10

$$$$
=
 OpenBabel11052413013D

 31 34  0  0  1  0  0  0  0  0999 V2000
  188.2820  177.9060  141.8670 C   0  0  1  0  0  3  0  0  0  0  0  0
  186.7740  177.8830  142.1840 C   0  0  1  0  0  3  0  0  0  0  0  0
  186.5200  178.2850  143.6470 C   0  0  2  0  0  3  0  0  0  0  0  0
  186.5840  177.0030  145.8580 C   0  0  0  0  0  3  0  0  0  0  0  0
  186.8360  177.1090  144.5400 C   0  0  0  0  0  3  0  0  0  0  0  0
  184.1360  178.9210  142.7150 C   0  0  0  0  0  2  0  0  0  0  0  0
  185.8460  177.9790  146.7440 C   0  0  0  0  0  2  0  0  0  0  0  0
  186.0520  178.7010  141.2960 O   0  0  0  0  0  0  0  0  0  0  0  0
  185.7180  179.3900  146.1860 C   0  0  0  0  0  2  0  0  0  0  0  0
  184.7150  178.3100  141.4410 C   0  0  0  0  0  2  0  0  0  0  0  0
  185.1180  178.8310  143.8530 C   0  0  0  0  0  0  0  0  0  0  0  0
  184.7780  179.3860  145.0210 C   0  0  0  0  0  3  0  0  0  0  0  0
  191.5090  178.0820  143.2350 N   0  0  0  0  0  0  0  0  0  0  0  0
  191.3620  176.6470  143.0860 C   0  0  0  0  0  2  0  0  0  0  0  0
  192.0780  178.3150  144.5500 C   0  0  0  0  0  1  0  0  0  0  0  0
  190.1560  178.6250  143.2540 C   0  0  0  0  0  2  0  0  0  0  0  0
  189.1900  177.5600  142.9720 N   0  0  0  0  0  0  0  0  0  0  0  0
  189.9740  176.4130  142.5600 C   0  0  0  0  0  2  0  0  0  0  0  0
  188.7620  177.1400  140.2710 S   0  0  0  0  0  0  0  0  0  0  0  0
  189.1940  178.7050  139.4210 C   0  0  0  0  0  2  0  0  0  0  0  0
  189.0700  179.4790  137.2750 O   0  0  0  0  0  1  0  0  0  0  0  0
  188.3120  179.0030  138.2920 N   0  0  0  0  0  0  0  0  0  0  0  0
  187.6730  177.7770  137.8280 C   0  0  0  0  0  2  0  0  0  0  0  0
  186.2150  178.0040  137.5960 C   0  0  0  0  0  0  0  0  0  0  0  0
  185.6460  178.9280  138.1540 O   0  0  0  0  0  0  0  0  0  0  0  0
  185.4740  177.1370  136.6190 C   0  0  0  0  0  2  0  0  0  0  0  0
  184.1160  176.6440  137.1310 C   0  0  2  0  0  3  0  0  0  0  0  0
  184.1020  175.1390  137.3450 C   0  0  0  0  0  1  0  0  0  0  0  0
  182.9760  177.0780  136.2250 C   0  0  2  0  0  3  0  0  0  0  0  0
  182.1300  178.0710  136.9200 C   0  0  0  0  0  2  0  0  0  0  0  0
  181.7510  176.7200  136.8170 O   0  0  0  0  0  0  0  0  0  0  0  0
  1 19  1  6  0  0  0
  1 17  1  0  0  0  0
  2  1  1  6  0  0  0
  2  3  1  0  0  0  0
  3 11  1  0  0  0  0
  3  5  1  1  0  0  0
  4  7  1  0  0  0  0
  5  4  2  0  0  0  0
  6 11  1  0  0  0  0
  8 10  1  0  0  0  0
  8  2  1  0  0  0  0
  9  7  1  0  0  0  0
 10  6  1  0  0  0  0
 11 12  2  0  0  0  0
 12  9  1  0  0  0  0
 13 16  1  0  0  0  0
 13 15  1  0  0  0  0
 14 13  1  0  0  0  0
 17 16  1  0  0  0  0
 18 17  1  0  0  0  0
 18 14  1  0  0  0  0
 20 19  1  0  0  0  0
 21 22  1  0  0  0  0
 22 20  1  0  0  0  0
 23 22  1  0  0  0  0
 24 23  1  0  0  0  0
 24 25  2  0  0  0  0
 26 27  1  0  0  0  0
 26 24  1  0  0  0  0
 27 28  1  6  0  0  0
 29 31  1  0  0  0  0
 29 30  1  0  0  0  0
 29 27  1  1  0  0  0
 31 30  1  0  0  0  0
M  END
>  <MODEL>
6

>  <REMARK>
 VINA RESULT:      -6.8      2.285      4.781
  Name = 
  10 active torsions:
  status: ('A' for Active; 'I' for Inactive)
    1  A    between atoms: C_1  and  C_6
    2  A    between atoms: C_3  and  C_19
    3  A    between atoms: C_3  and  C_23
    4  A    between atoms: C_4  and  C_12
    5  A    between atoms: C_6  and  C_19
    6  A    between atoms: N_9  and  C_15
    7  A    between atoms: N_9  and  C_23
    8  A    between atoms: C_12  and  S_20
    9  A    between atoms: C_12  and  N_27
   10  A    between atoms: C_15  and  S_20
                            x       y       z     vdW  Elec       q    Type
                         _______ _______ _______ _____ _____    ______ ____

>  <TORSDO>
F 10

$$$$
=
 OpenBabel11052413013D

 31 34  0  0  1  0  0  0  0  0999 V2000
  183.2580  179.2060  139.7910 C   0  0  1  0  0  3  0  0  0  0  0  0
  184.3100  178.3010  139.1210 C   0  0  1  0  0  3  0  0  0  0  0  0
  183.6540  177.3930  138.0660 C   0  0  2  0  0  3  0  0  0  0  0  0
  182.4180  175.1600  138.1950 C   0  0  0  0  0  3  0  0  0  0  0  0
  182.9600  176.2510  138.7680 C   0  0  0  0  0  3  0  0  0  0  0  0
  186.0950  177.3410  137.0700 C   0  0  0  0  0  2  0  0  0  0  0  0
  182.4510  174.7620  136.7380 C   0  0  0  0  0  2  0  0  0  0  0  0
  185.3570  179.0590  138.5640 O   0  0  0  0  0  0  0  0  0  0  0  0
  182.7840  175.8870  135.7670 C   0  0  0  0  0  2  0  0  0  0  0  0
  186.3920  178.1440  138.3340 C   0  0  0  0  0  2  0  0  0  0  0  0
  184.6470  176.9340  137.0130 C   0  0  0  0  0  0  0  0  0  0  0  0
  184.2210  176.2800  135.9280 C   0  0  0  0  0  3  0  0  0  0  0  0
  180.7570  181.5350  138.9940 N   0  0  0  0  0  0  0  0  0  0  0  0
  179.9490  180.4380  139.4880 C   0  0  0  0  0  2  0  0  0  0  0  0
  180.1220  182.0160  137.7810 C   0  0  0  0  0  1  0  0  0  0  0  0
  182.0340  180.9500  138.6030 C   0  0  0  0  0  2  0  0  0  0  0  0
  182.0710  179.5360  138.9880 N   0  0  0  0  0  0  0  0  0  0  0  0
  180.9000  179.3210  139.8140 C   0  0  0  0  0  2  0  0  0  0  0  0
  182.8590  178.7920  141.5320 S   0  0  0  0  0  0  0  0  0  0  0  0
  184.4350  177.9320  141.8990 C   0  0  0  0  0  2  0  0  0  0  0  0
  185.6470  179.8490  142.1690 O   0  0  0  0  0  1  0  0  0  0  0  0
  185.3070  178.6950  142.7930 N   0  0  0  0  0  0  0  0  0  0  0  0
  184.5810  179.0480  144.0070 C   0  0  0  0  0  2  0  0  0  0  0  0
  185.4030  178.7350  145.2150 C   0  0  0  0  0  0  0  0  0  0  0  0
  185.2230  179.3530  146.2520 O   0  0  0  0  0  0  0  0  0  0  0  0
  186.3970  177.6110  145.1660 C   0  0  0  0  0  2  0  0  0  0  0  0
  187.7460  177.9450  145.8120 C   0  0  2  0  0  3  0  0  0  0  0  0
  188.9070  177.7040  144.8610 C   0  0  0  0  0  1  0  0  0  0  0  0
  187.9490  177.1990  147.1210 C   0  0  2  0  0  3  0  0  0  0  0  0
  188.0240  178.1600  148.2420 C   0  0  0  0  0  2  0  0  0  0  0  0
  189.1790  177.5810  147.6860 O   0  0  0  0  0  0  0  0  0  0  0  0
  1 19  1  1  0  0  0
  2  1  1  6  0  0  0
  3  5  1  1  0  0  0
  3  2  1  0  0  0  0
  4  5  2  0  0  0  0
  6 10  1  0  0  0  0
  7  4  1  0  0  0  0
  8  2  1  0  0  0  0
  9 12  1  0  0  0  0
  9  7  1  0  0  0  0
 10  8  1  0  0  0  0
 11  6  1  0  0  0  0
 11  3  1  0  0  0  0
 12 11  2  0  0  0  0
 13 14  1  0  0  0  0
 14 18  1  0  0  0  0
 15 13  1  0  0  0  0
 16 17  1  0  0  0  0
 16 13  1  0  0  0  0
 17  1  1  0  0  0  0
 17 18  1  0  0  0  0
 19 20  1  0  0  0  0
 20 22  1  0  0  0  0
 21 22  1  0  0  0  0
 22 23  1  0  0  0  0
 23 24  1  0  0  0  0
 24 25  2  0  0  0  0
 26 24  1  0  0  0  0
 26 27  1  0  0  0  0
 27 28  1  6  0  0  0
 29 27  1  6  0  0  0
 29 31  1  0  0  0  0
 29 30  1  0  0  0  0
 31 30  1  0  0  0  0
M  END
>  <MODEL>
7

>  <REMARK>
 VINA RESULT:      -6.8      2.932      8.294
  Name = 
  10 active torsions:
  status: ('A' for Active; 'I' for Inactive)
    1  A    between atoms: C_1  and  C_6
    2  A    between atoms: C_3  and  C_19
    3  A    between atoms: C_3  and  C_23
    4  A    between atoms: C_4  and  C_12
    5  A    between atoms: C_6  and  C_19
    6  A    between atoms: N_9  and  C_15
    7  A    between atoms: N_9  and  C_23
    8  A    between atoms: C_12  and  S_20
    9  A    between atoms: C_12  and  N_27
   10  A    between atoms: C_15  and  S_20
                            x       y       z     vdW  Elec       q    Type
                         _______ _______ _______ _____ _____    ______ ____

>  <TORSDO>
F 10

$$$$
=
 OpenBabel11052413013D

 31 34  0  0  1  0  0  0  0  0999 V2000
  186.8590  178.1440  142.1500 C   0  0  1  0  0  3  0  0  0  0  0  0
  187.1080  177.5660  143.5570 C   0  0  1  0  0  3  0  0  0  0  0  0
  188.6150  177.4150  143.8240 C   0  0  2  0  0  3  0  0  0  0  0  0
  190.3310  175.6150  143.2340 C   0  0  0  0  0  3  0  0  0  0  0  0
  189.1160  176.1820  143.1110 C   0  0  0  0  0  3  0  0  0  0  0  0
  187.8470  177.5390  146.3440 C   0  0  0  0  0  2  0  0  0  0  0  0
  191.4490  176.0070  144.1710 C   0  0  0  0  0  2  0  0  0  0  0  0
  186.4890  178.3500  144.5480 O   0  0  0  0  0  0  0  0  0  0  0  0
  191.3440  177.4090  144.7540 C   0  0  0  0  0  2  0  0  0  0  0  0
  186.4660  177.5440  145.6930 C   0  0  0  0  0  2  0  0  0  0  0  0
  188.9340  177.4180  145.3090 C   0  0  0  0  0  0  0  0  0  0  0  0
  190.2040  177.4670  145.7230 C   0  0  0  0  0  3  0  0  0  0  0  0
  183.4440  178.0320  141.3530 N   0  0  0  0  0  0  0  0  0  0  0  0
  183.9380  178.8720  140.2800 C   0  0  0  0  0  2  0  0  0  0  0  0
  182.2310  178.6540  141.8520 C   0  0  0  0  0  1  0  0  0  0  0  0
  184.4350  178.1170  142.4190 C   0  0  0  0  0  2  0  0  0  0  0  0
  185.5990  178.8770  141.9560 N   0  0  0  0  0  0  0  0  0  0  0  0
  185.4070  179.0640  140.5320 C   0  0  0  0  0  2  0  0  0  0  0  0
  188.3010  178.9700  141.3730 S   0  0  0  0  0  0  0  0  0  0  0  0
  188.5040  177.7690  140.0030 C   0  0  0  0  0  2  0  0  0  0  0  0
  190.7420  177.8880  140.4440 O   0  0  0  0  0  1  0  0  0  0  0  0
  189.8500  177.7800  139.4300 N   0  0  0  0  0  0  0  0  0  0  0  0
  190.1080  176.5150  138.7510 C   0  0  0  0  0  2  0  0  0  0  0  0
  190.3590  176.7460  137.2970 C   0  0  0  0  0  0  0  0  0  0  0  0
  189.8150  177.6770  136.7240 O   0  0  0  0  0  0  0  0  0  0  0  0
  191.3370  175.8730  136.5640 C   0  0  0  0  0  2  0  0  0  0  0  0
  191.0460  174.3740  136.6870 C   0  0  2  0  0  3  0  0  0  0  0  0
  192.2350  173.5270  136.2640 C   0  0  0  0  0  1  0  0  0  0  0  0
  189.7920  173.9740  135.9270 C   0  0  2  0  0  3  0  0  0  0  0  0
  188.8100  173.3740  136.8540 C   0  0  0  0  0  2  0  0  0  0  0  0
  189.6180  172.5810  136.0200 O   0  0  0  0  0  0  0  0  0  0  0  0
  1 19  1  1  0  0  0
  2  1  1  6  0  0  0
  2  3  1  0  0  0  0
  2  8  1  0  0  0  0
  3  5  1  1  0  0  0
  3 11  1  0  0  0  0
  4  7  1  0  0  0  0
  5  4  2  0  0  0  0
  7  9  1  0  0  0  0
  8 10  1  0  0  0  0
  9 12  1  0  0  0  0
 10  6  1  0  0  0  0
 11 12  2  0  0  0  0
 11  6  1  0  0  0  0
 13 15  1  0  0  0  0
 13 16  1  0  0  0  0
 14 18  1  0  0  0  0
 14 13  1  0  0  0  0
 17  1  1  0  0  0  0
 17 16  1  0  0  0  0
 18 17  1  0  0  0  0
 20 19  1  0  0  0  0
 22 20  1  0  0  0  0
 22 21  1  0  0  0  0
 23 22  1  0  0  0  0
 24 23  1  0  0  0  0
 25 24  2  0  0  0  0
 26 27  1  0  0  0  0
 26 24  1  0  0  0  0
 27 28  1  6  0  0  0
 29 31  1  0  0  0  0
 29 27  1  1  0  0  0
 29 30  1  0  0  0  0
 31 30  1  0  0  0  0
M  END
>  <MODEL>
8

>  <REMARK>
 VINA RESULT:      -6.7      1.754      2.232
  Name = 
  10 active torsions:
  status: ('A' for Active; 'I' for Inactive)
    1  A    between atoms: C_1  and  C_6
    2  A    between atoms: C_3  and  C_19
    3  A    between atoms: C_3  and  C_23
    4  A    between atoms: C_4  and  C_12
    5  A    between atoms: C_6  and  C_19
    6  A    between atoms: N_9  and  C_15
    7  A    between atoms: N_9  and  C_23
    8  A    between atoms: C_12  and  S_20
    9  A    between atoms: C_12  and  N_27
   10  A    between atoms: C_15  and  S_20
                            x       y       z     vdW  Elec       q    Type
                         _______ _______ _______ _____ _____    ______ ____

>  <TORSDO>
F 10

$$$$
=
 OpenBabel11052413013D

 31 34  0  0  1  0  0  0  0  0999 V2000
  185.1590  178.3730  141.5000 C   0  0  1  0  0  3  0  0  0  0  0  0
  184.4950  178.2110  142.8820 C   0  0  1  0  0  3  0  0  0  0  0  0
  185.5360  178.3530  144.0050 C   0  0  2  0  0  3  0  0  0  0  0  0
  187.1990  176.7330  145.0750 C   0  0  0  0  0  3  0  0  0  0  0  0
  186.3200  177.0670  144.1110 C   0  0  0  0  0  3  0  0  0  0  0  0
  183.4170  178.9940  145.4400 C   0  0  0  0  0  2  0  0  0  0  0  0
  187.5460  177.5070  146.3250 C   0  0  0  0  0  2  0  0  0  0  0  0
  183.4340  179.1200  143.0490 O   0  0  0  0  0  0  0  0  0  0  0  0
  187.1630  178.9800  146.3010 C   0  0  0  0  0  2  0  0  0  0  0  0
  182.7020  178.6340  144.1400 C   0  0  0  0  0  2  0  0  0  0  0  0
  184.9020  178.7770  145.3190 C   0  0  0  0  0  0  0  0  0  0  0  0
  185.6730  179.1130  146.3590 C   0  0  0  0  0  3  0  0  0  0  0  0
  183.3600  177.1740  138.7360 N   0  0  0  0  0  0  0  0  0  0  0  0
  184.2630  178.1020  138.0820 C   0  0  0  0  0  2  0  0  0  0  0  0
  182.0430  177.3950  138.1680 C   0  0  0  0  0  1  0  0  0  0  0  0
  183.2970  177.5910  140.1320 C   0  0  0  0  0  2  0  0  0  0  0  0
  184.2620  178.6680  140.3730 N   0  0  0  0  0  0  0  0  0  0  0  0
  185.0680  178.7520  139.1720 C   0  0  0  0  0  2  0  0  0  0  0  0
  186.6960  179.3730  141.4800 S   0  0  0  0  0  0  0  0  0  0  0  0
  187.8040  178.0230  140.9210 C   0  0  0  0  0  2  0  0  0  0  0  0
  189.0020  178.7270  142.7340 O   0  0  0  0  0  1  0  0  0  0  0  0
  189.1210  178.0650  141.5580 N   0  0  0  0  0  0  0  0  0  0  0  0
  189.5650  176.7090  141.8600 C   0  0  0  0  0  2  0  0  0  0  0  0
  190.9830  176.7190  142.3310 C   0  0  0  0  0  0  0  0  0  0  0  0
  191.8250  177.3560  141.7190 O   0  0  0  0  0  0  0  0  0  0  0  0
  191.3490  176.0040  143.6000 C   0  0  0  0  0  2  0  0  0  0  0  0
  191.0880  176.8190  144.8710 C   0  0  2  0  0  3  0  0  0  0  0  0
  191.5970  178.2460  144.7450 C   0  0  0  0  0  1  0  0  0  0  0  0
  191.6590  176.1430  146.1070 C   0  0  2  0  0  3  0  0  0  0  0  0
  190.8340  176.4730  147.2880 C   0  0  0  0  0  2  0  0  0  0  0  0
  192.0530  177.1260  147.0330 O   0  0  0  0  0  0  0  0  0  0  0  0
  1 19  1  1  0  0  0
  2  1  1  6  0  0  0
  2  8  1  0  0  0  0
  2  3  1  0  0  0  0
  3  5  1  1  0  0  0
  3 11  1  0  0  0  0
  4  7  1  0  0  0  0
  5  4  2  0  0  0  0
  8 10  1  0  0  0  0
  9  7  1  0  0  0  0
  9 12  1  0  0  0  0
 10  6  1  0  0  0  0
 11  6  1  0  0  0  0
 11 12  2  0  0  0  0
 13 16  1  0  0  0  0
 14 13  1  0  0  0  0
 14 18  1  0  0  0  0
 15 13  1  0  0  0  0
 16 17  1  0  0  0  0
 17  1  1  0  0  0  0
 18 17  1  0  0  0  0
 20 19  1  0  0  0  0
 20 22  1  0  0  0  0
 22 23  1  0  0  0  0
 22 21  1  0  0  0  0
 23 24  1  0  0  0  0
 24 26  1  0  0  0  0
 25 24  2  0  0  0  0
 26 27  1  0  0  0  0
 27 28  1  6  0  0  0
 29 27  1  6  0  0  0
 29 31  1  0  0  0  0
 29 30  1  0  0  0  0
 31 30  1  0  0  0  0
M  END
>  <MODEL>
9

>  <REMARK>
 VINA RESULT:      -6.6      2.817      5.734
  Name = 
  10 active torsions:
  status: ('A' for Active; 'I' for Inactive)
    1  A    between atoms: C_1  and  C_6
    2  A    between atoms: C_3  and  C_19
    3  A    between atoms: C_3  and  C_23
    4  A    between atoms: C_4  and  C_12
    5  A    between atoms: C_6  and  C_19
    6  A    between atoms: N_9  and  C_15
    7  A    between atoms: N_9  and  C_23
    8  A    between atoms: C_12  and  S_20
    9  A    between atoms: C_12  and  N_27
   10  A    between atoms: C_15  and  S_20
                            x       y       z     vdW  Elec       q    Type
                         _______ _______ _______ _____ _____    ______ ____

>  <TORSDO>
F 10

$$$$
