=
 OpenBabel11052413233D

 28 31  0  0  1  0  0  0  0  0999 V2000
  187.8450  177.0760  145.1840 C   0  0  2  0  0  3  0  0  0  0  0  0
  191.6550  177.0150  146.8890 O   0  0  0  0  0  0  0  0  0  0  0  0
  190.0890  177.1380  142.1330 C   0  0  0  0  0  0  0  0  0  0  0  0
  190.3890  177.0180  144.9180 N   0  0  0  0  0  0  0  0  0  0  0  0
  188.9650  177.1250  143.0220 N   0  0  0  0  0  0  0  0  0  0  0  0
  189.3000  176.9750  147.2220 C   0  0  0  0  0  2  0  0  0  0  0  0
  191.5830  176.8000  144.0950 C   0  0  0  0  0  2  0  0  0  0  0  0
  190.5160  177.0230  146.3500 C   0  0  0  0  0  0  0  0  0  0  0  0
  191.3270  177.0290  142.6320 C   0  0  0  0  0  3  0  0  0  0  0  0
  188.1340  177.6880  146.5530 C   0  0  0  0  0  2  0  0  0  0  0  0
  189.0810  177.0950  144.3150 C   0  0  0  0  0  0  0  0  0  0  0  0
  188.6770  177.8150  140.2690 C   0  0  0  0  0  3  0  0  0  0  0  0
  190.7430  176.3870  138.5290 C   0  0  0  0  0  3  0  0  0  0  0  0
  188.3240  176.7590  138.0890 C   0  0  0  0  0  0  0  0  0  0  0  0
  189.8640  177.3420  140.6770 C   0  0  0  0  0  0  0  0  0  0  0  0
  192.6580  177.3470  140.1280 S   0  0  0  0  0  1  0  0  0  0  0  0
  189.4410  176.0500  137.9220 C   0  0  0  0  0  3  0  0  0  0  0  0
  190.9490  176.9980  139.7060 C   0  0  0  0  0  0  0  0  0  0  0  0
  187.1820  176.3410  137.4940 F   0  0  0  0  0  0  0  0  0  0  0  0
  188.3200  178.0490  138.8390 C   0  0  0  0  0  2  0  0  0  0  0  0
  186.6670  177.7480  144.5310 C   0  0  0  0  0  0  0  0  0  0  0  0
  186.6140  177.8960  143.1370 C   0  0  0  0  0  3  0  0  0  0  0  0
  184.4680  178.7680  144.7010 C   0  0  0  0  0  0  0  0  0  0  0  0
  185.5000  178.4820  142.5310 C   0  0  0  0  0  3  0  0  0  0  0  0
  185.6080  178.0280  146.6970 O   0  0  0  0  0  1  0  0  0  0  0  0
  185.5840  178.1820  145.3140 C   0  0  0  0  0  0  0  0  0  0  0  0
  183.4200  179.1900  145.4500 F   0  0  0  0  0  0  0  0  0  0  0  0
  184.4280  178.9180  143.3130 C   0  0  0  0  0  3  0  0  0  0  0  0
  1 21  1  6  0  0  0
  1 10  1  0  0  0  0
  3  9  2  0  0  0  0
  3  5  1  0  0  0  0
  4  8  1  0  0  0  0
  5 11  2  0  0  0  0
  7  4  1  0  0  0  0
  8  2  2  0  0  0  0
  8  6  1  0  0  0  0
  9  7  1  0  0  0  0
 10  6  1  0  0  0  0
 11  4  1  0  0  0  0
 11  1  1  0  0  0  0
 12 15  2  0  0  0  0
 13 18  2  0  0  0  0
 14 20  1  0  0  0  0
 15  3  1  0  0  0  0
 17 14  2  0  0  0  0
 17 13  1  0  0  0  0
 18 16  1  0  0  0  0
 18 15  1  0  0  0  0
 19 14  1  0  0  0  0
 20 12  1  0  0  0  0
 21 26  1  0  0  0  0
 22 21  2  0  0  0  0
 23 26  2  0  0  0  0
 23 27  1  0  0  0  0
 24 22  1  0  0  0  0
 24 28  2  0  0  0  0
 26 25  1  0  0  0  0
 28 23  1  0  0  0  0
M  END
>  <MODEL>
1

>  <REMARK>
 VINA RESULT:     -10.9      0.000      0.000
  Name = 
  2 active torsions:
  status: ('A' for Active; 'I' for Inactive)
    1  A    between atoms: C_1  and  C_2
    2  A    between atoms: C_10  and  C_13
                            x       y       z     vdW  Elec       q    Type
                         _______ _______ _______ _____ _____    ______ ____

>  <TORSDO>
F 2

$$$$
=
 OpenBabel11052413233D

 28 31  0  0  1  0  0  0  0  0999 V2000
  188.0340  178.6070  141.0910 C   0  0  2  0  0  3  0  0  0  0  0  0
  191.5300  176.9840  139.4850 O   0  0  0  0  0  0  0  0  0  0  0  0
  189.8210  177.3390  144.1800 C   0  0  0  0  0  0  0  0  0  0  0  0
  190.2970  177.4610  141.4200 N   0  0  0  0  0  0  0  0  0  0  0  0
  188.8820  177.9230  143.2680 N   0  0  0  0  0  0  0  0  0  0  0  0
  189.4820  178.1330  139.1000 C   0  0  0  0  0  2  0  0  0  0  0  0
  191.4090  177.0530  142.2850 C   0  0  0  0  0  2  0  0  0  0  0  0
  190.4870  177.4780  139.9950 C   0  0  0  0  0  0  0  0  0  0  0  0
  190.9950  176.8870  143.7190 C   0  0  0  0  0  3  0  0  0  0  0  0
  188.0830  178.0080  139.6860 C   0  0  0  0  0  2  0  0  0  0  0  0
  189.0710  177.9670  141.9840 C   0  0  0  0  0  0  0  0  0  0  0  0
  188.1520  177.2700  145.9510 C   0  0  0  0  0  3  0  0  0  0  0  0
  190.5350  177.5280  147.8450 C   0  0  0  0  0  3  0  0  0  0  0  0
  188.1820  178.2570  148.1900 C   0  0  0  0  0  0  0  0  0  0  0  0
  189.4470  177.1810  145.6110 C   0  0  0  0  0  0  0  0  0  0  0  0
  191.9100  175.8980  146.2350 S   0  0  0  0  0  1  0  0  0  0  0  0
  189.4860  178.3810  148.4390 C   0  0  0  0  0  3  0  0  0  0  0  0
  190.5140  176.9520  146.6340 C   0  0  0  0  0  0  0  0  0  0  0  0
  187.3140  179.1100  148.7820 F   0  0  0  0  0  0  0  0  0  0  0  0
  187.6470  177.1460  147.3490 C   0  0  0  0  0  2  0  0  0  0  0  0
  186.6440  178.5240  141.6630 C   0  0  0  0  0  0  0  0  0  0  0  0
  186.4480  178.1930  143.0130 C   0  0  0  0  0  3  0  0  0  0  0  0
  184.2440  178.8000  141.4050 C   0  0  0  0  0  0  0  0  0  0  0  0
  185.1600  178.1580  143.5510 C   0  0  0  0  0  3  0  0  0  0  0  0
  185.7080  179.1850  139.5240 O   0  0  0  0  0  1  0  0  0  0  0  0
  185.5340  178.8350  140.8600 C   0  0  0  0  0  0  0  0  0  0  0  0
  183.1680  179.0980  140.6360 F   0  0  0  0  0  0  0  0  0  0  0  0
  184.0590  178.4610  142.7470 C   0  0  0  0  0  3  0  0  0  0  0  0
  1 21  1  1  0  0  0
  1 11  1  0  0  0  0
  2  8  2  0  0  0  0
  3 15  1  0  0  0  0
  4 11  1  0  0  0  0
  4  7  1  0  0  0  0
  5  3  1  0  0  0  0
  6 10  1  0  0  0  0
  6  8  1  0  0  0  0
  7  9  1  0  0  0  0
  8  4  1  0  0  0  0
  9  3  2  0  0  0  0
 10  1  1  0  0  0  0
 11  5  2  0  0  0  0
 12 20  1  0  0  0  0
 13 17  1  0  0  0  0
 14 17  2  0  0  0  0
 14 19  1  0  0  0  0
 15 12  2  0  0  0  0
 15 18  1  0  0  0  0
 16 18  1  0  0  0  0
 18 13  2  0  0  0  0
 20 14  1  0  0  0  0
 21 22  1  0  0  0  0
 22 24  2  0  0  0  0
 23 28  2  0  0  0  0
 25 26  1  0  0  0  0
 26 23  1  0  0  0  0
 26 21  2  0  0  0  0
 27 23  1  0  0  0  0
 28 24  1  0  0  0  0
M  END
>  <MODEL>
2

>  <REMARK>
 VINA RESULT:     -10.5      2.948      6.090
  Name = 
  2 active torsions:
  status: ('A' for Active; 'I' for Inactive)
    1  A    between atoms: C_1  and  C_2
    2  A    between atoms: C_10  and  C_13
                            x       y       z     vdW  Elec       q    Type
                         _______ _______ _______ _____ _____    ______ ____

>  <TORSDO>
F 2

$$$$
=
 OpenBabel11052413233D

 28 31  0  0  1  0  0  0  0  0999 V2000
  189.2300  176.9110  144.3840 C   0  0  2  0  0  3  0  0  0  0  0  0
  191.3470  177.3150  140.8080 O   0  0  0  0  0  0  0  0  0  0  0  0
  186.6110  178.3580  142.0620 C   0  0  0  0  0  0  0  0  0  0  0  0
  189.2920  177.5520  141.9080 N   0  0  0  0  0  0  0  0  0  0  0  0
  187.3140  177.8260  143.1920 N   0  0  0  0  0  0  0  0  0  0  0  0
  191.3500  176.6100  143.0810 C   0  0  0  0  0  2  0  0  0  0  0  0
  188.6030  177.8670  140.6530 C   0  0  0  0  0  2  0  0  0  0  0  0
  190.6830  177.1920  141.8730 C   0  0  0  0  0  0  0  0  0  0  0  0
  187.2240  178.4220  140.8730 C   0  0  0  0  0  3  0  0  0  0  0  0
  190.7350  177.1730  144.3550 C   0  0  0  0  0  2  0  0  0  0  0  0
  188.5630  177.4710  143.1500 C   0  0  0  0  0  0  0  0  0  0  0  0
  184.9050  179.4240  143.4340 C   0  0  0  0  0  3  0  0  0  0  0  0
  182.9600  178.4920  141.2700 C   0  0  0  0  0  3  0  0  0  0  0  0
  182.5270  178.9040  143.6850 C   0  0  0  0  0  0  0  0  0  0  0  0
  185.2360  178.8940  142.2460 C   0  0  0  0  0  0  0  0  0  0  0  0
  184.8110  179.0890  139.4380 S   0  0  0  0  0  1  0  0  0  0  0  0
  182.2410  178.2790  142.5420 C   0  0  0  0  0  3  0  0  0  0  0  0
  184.2530  178.8120  141.1200 C   0  0  0  0  0  0  0  0  0  0  0  0
  181.8070  178.6140  144.7930 F   0  0  0  0  0  0  0  0  0  0  0  0
  183.5580  179.9810  143.7510 C   0  0  0  0  0  2  0  0  0  0  0  0
  188.6200  177.4280  145.6590 C   0  0  0  0  0  0  0  0  0  0  0  0
  187.2510  177.7330  145.7200 C   0  0  0  0  0  3  0  0  0  0  0  0
  188.8280  177.9950  148.0130 C   0  0  0  0  0  0  0  0  0  0  0  0
  186.6780  178.1730  146.9160 C   0  0  0  0  0  3  0  0  0  0  0  0
  190.7630  177.2400  146.7810 O   0  0  0  0  0  1  0  0  0  0  0  0
  189.4080  177.5550  146.8150 C   0  0  0  0  0  0  0  0  0  0  0  0
  189.5830  178.1200  149.1320 F   0  0  0  0  0  0  0  0  0  0  0  0
  187.4670  178.3030  148.0610 C   0  0  0  0  0  3  0  0  0  0  0  0
  1 21  1  1  0  0  0
  2  8  2  0  0  0  0
  3 15  1  0  0  0  0
  3  5  1  0  0  0  0
  4 11  1  0  0  0  0
  6 10  1  0  0  0  0
  7  9  1  0  0  0  0
  7  4  1  0  0  0  0
  8  4  1  0  0  0  0
  8  6  1  0  0  0  0
  9  3  2  0  0  0  0
 10  1  1  0  0  0  0
 11  5  2  0  0  0  0
 11  1  1  0  0  0  0
 12 20  1  0  0  0  0
 13 17  1  0  0  0  0
 14 20  1  0  0  0  0
 14 19  1  0  0  0  0
 15 12  2  0  0  0  0
 16 18  1  0  0  0  0
 17 14  2  0  0  0  0
 18 13  2  0  0  0  0
 18 15  1  0  0  0  0
 21 22  2  0  0  0  0
 21 26  1  0  0  0  0
 22 24  1  0  0  0  0
 23 28  1  0  0  0  0
 23 27  1  0  0  0  0
 24 28  2  0  0  0  0
 25 26  1  0  0  0  0
 26 23  2  0  0  0  0
M  END
>  <MODEL>
3

>  <REMARK>
 VINA RESULT:     -10.4      3.001      5.623
  Name = 
  2 active torsions:
  status: ('A' for Active; 'I' for Inactive)
    1  A    between atoms: C_1  and  C_2
    2  A    between atoms: C_10  and  C_13
                            x       y       z     vdW  Elec       q    Type
                         _______ _______ _______ _____ _____    ______ ____

>  <TORSDO>
F 2

$$$$
=
 OpenBabel11052413233D

 28 31  0  0  1  0  0  0  0  0999 V2000
  189.8690  176.9260  141.0910 C   0  0  2  0  0  3  0  0  0  0  0  0
  189.8900  177.4690  136.9510 O   0  0  0  0  0  0  0  0  0  0  0  0
  186.4570  178.4480  140.4650 C   0  0  0  0  0  0  0  0  0  0  0  0
  188.6780  177.6580  138.9480 N   0  0  0  0  0  0  0  0  0  0  0  0
  187.6280  177.8770  141.0650 N   0  0  0  0  0  0  0  0  0  0  0  0
  191.0320  176.6810  138.8840 C   0  0  0  0  0  2  0  0  0  0  0  0
  187.4530  178.0170  138.2260 C   0  0  0  0  0  2  0  0  0  0  0  0
  189.8550  177.3050  138.2010 C   0  0  0  0  0  0  0  0  0  0  0  0
  186.3850  178.5580  139.1320 C   0  0  0  0  0  3  0  0  0  0  0  0
  191.1550  177.1940  140.3120 C   0  0  0  0  0  2  0  0  0  0  0  0
  188.6770  177.5280  140.3840 C   0  0  0  0  0  0  0  0  0  0  0  0
  185.6800  179.3500  142.5890 C   0  0  0  0  0  3  0  0  0  0  0  0
  182.8830  178.7240  141.5280 C   0  0  0  0  0  3  0  0  0  0  0  0
  183.6700  178.8300  143.8850 C   0  0  0  0  0  0  0  0  0  0  0  0
  185.3730  178.9730  141.3380 C   0  0  0  0  0  0  0  0  0  0  0  0
  183.6900  179.5300  139.1110 S   0  0  0  0  0  1  0  0  0  0  0  0
  182.8360  178.3590  142.9570 C   0  0  0  0  0  3  0  0  0  0  0  0
  183.9730  179.0470  140.8150 C   0  0  0  0  0  0  0  0  0  0  0  0
  183.5390  178.4080  145.1650 F   0  0  0  0  0  0  0  0  0  0  0  0
  184.6850  179.8770  143.5680 C   0  0  0  0  0  2  0  0  0  0  0  0
  189.9950  177.3940  142.5160 C   0  0  0  0  0  0  0  0  0  0  0  0
  190.8110  178.4910  142.8360 C   0  0  0  0  0  3  0  0  0  0  0  0
  189.3370  177.2310  144.8490 C   0  0  0  0  0  0  0  0  0  0  0  0
  190.8930  178.9490  144.1530 C   0  0  0  0  0  3  0  0  0  0  0  0
  188.4220  175.6900  143.2320 O   0  0  0  0  0  1  0  0  0  0  0  0
  189.2510  176.7670  143.5290 C   0  0  0  0  0  0  0  0  0  0  0  0
  188.6230  176.6310  145.8330 F   0  0  0  0  0  0  0  0  0  0  0  0
  190.1570  178.3190  145.1590 C   0  0  0  0  0  3  0  0  0  0  0  0
  1 21  1  1  0  0  0
  2  8  2  0  0  0  0
  3  5  1  0  0  0  0
  3 15  1  0  0  0  0
  4 11  1  0  0  0  0
  6 10  1  0  0  0  0
  7  4  1  0  0  0  0
  7  9  1  0  0  0  0
  8  6  1  0  0  0  0
  8  4  1  0  0  0  0
  9  3  2  0  0  0  0
 10  1  1  0  0  0  0
 11  5  2  0  0  0  0
 11  1  1  0  0  0  0
 12 20  1  0  0  0  0
 13 17  1  0  0  0  0
 14 19  1  0  0  0  0
 15 12  2  0  0  0  0
 16 18  1  0  0  0  0
 17 14  2  0  0  0  0
 18 15  1  0  0  0  0
 18 13  2  0  0  0  0
 20 14  1  0  0  0  0
 21 22  2  0  0  0  0
 21 26  1  0  0  0  0
 22 24  1  0  0  0  0
 23 28  1  0  0  0  0
 23 27  1  0  0  0  0
 24 28  2  0  0  0  0
 25 26  1  0  0  0  0
 26 23  2  0  0  0  0
M  END
>  <MODEL>
4

>  <REMARK>
 VINA RESULT:     -10.2      3.356      6.527
  Name = 
  2 active torsions:
  status: ('A' for Active; 'I' for Inactive)
    1  A    between atoms: C_1  and  C_2
    2  A    between atoms: C_10  and  C_13
                            x       y       z     vdW  Elec       q    Type
                         _______ _______ _______ _____ _____    ______ ____

>  <TORSDO>
F 2

$$$$
=
 OpenBabel11052413233D

 28 31  0  0  1  0  0  0  0  0999 V2000
  185.5080  178.0320  142.4150 C   0  0  2  0  0  3  0  0  0  0  0  0
  182.9700  179.3030  145.4770 O   0  0  0  0  0  0  0  0  0  0  0  0
  187.7590  177.8350  145.4550 C   0  0  0  0  0  0  0  0  0  0  0  0
  185.0950  178.5050  144.8950 N   0  0  0  0  0  0  0  0  0  0  0  0
  187.2220  177.7870  144.1260 N   0  0  0  0  0  0  0  0  0  0  0  0
  183.2430  178.7990  143.1680 C   0  0  0  0  0  2  0  0  0  0  0  0
  185.4810  178.3690  146.3030 C   0  0  0  0  0  2  0  0  0  0  0  0
  183.7520  178.9050  144.5710 C   0  0  0  0  0  0  0  0  0  0  0  0
  186.9560  178.1510  146.4800 C   0  0  0  0  0  3  0  0  0  0  0  0
  184.3720  179.0240  142.1710 C   0  0  0  0  0  2  0  0  0  0  0  0
  185.9990  178.1170  143.8410 C   0  0  0  0  0  0  0  0  0  0  0  0
  190.0230  177.5960  144.5930 C   0  0  0  0  0  3  0  0  0  0  0  0
  190.6670  176.4460  147.3500 C   0  0  0  0  0  3  0  0  0  0  0  0
  191.7710  175.9820  145.1690 C   0  0  0  0  0  0  0  0  0  0  0  0
  189.2130  177.6020  145.6630 C   0  0  0  0  0  0  0  0  0  0  0  0
  189.0470  178.2800  148.4230 S   0  0  0  0  0  1  0  0  0  0  0  0
  191.4300  175.6080  146.4030 C   0  0  0  0  0  3  0  0  0  0  0  0
  189.7330  177.3590  147.0450 C   0  0  0  0  0  0  0  0  0  0  0  0
  192.4580  175.1190  144.3850 F   0  0  0  0  0  0  0  0  0  0  0  0
  191.4940  177.3580  144.6640 C   0  0  0  0  0  2  0  0  0  0  0  0
  186.6110  178.2190  141.4090 C   0  0  0  0  0  0  0  0  0  0  0  0
  187.9520  178.2660  141.8220 C   0  0  0  0  0  3  0  0  0  0  0  0
  187.3400  178.4230  139.1000 C   0  0  0  0  0  0  0  0  0  0  0  0
  188.9770  178.3980  140.8820 C   0  0  0  0  0  3  0  0  0  0  0  0
  184.9870  178.2290  139.6060 O   0  0  0  0  0  1  0  0  0  0  0  0
  186.3080  178.2920  140.0390 C   0  0  0  0  0  0  0  0  0  0  0  0
  187.0540  178.4960  137.7760 F   0  0  0  0  0  0  0  0  0  0  0  0
  188.6700  178.4770  139.5220 C   0  0  0  0  0  3  0  0  0  0  0  0
  1 21  1  6  0  0  0
  1 11  1  0  0  0  0
  3 15  1  0  0  0  0
  3  9  2  0  0  0  0
  4  7  1  0  0  0  0
  5  3  1  0  0  0  0
  6  8  1  0  0  0  0
  7  9  1  0  0  0  0
  8  4  1  0  0  0  0
  8  2  2  0  0  0  0
 10  1  1  0  0  0  0
 10  6  1  0  0  0  0
 11  5  2  0  0  0  0
 11  4  1  0  0  0  0
 12 20  1  0  0  0  0
 12 15  2  0  0  0  0
 14 17  2  0  0  0  0
 15 18  1  0  0  0  0
 17 13  1  0  0  0  0
 18 13  2  0  0  0  0
 18 16  1  0  0  0  0
 19 14  1  0  0  0  0
 20 14  1  0  0  0  0
 21 22  1  0  0  0  0
 23 28  2  0  0  0  0
 23 26  1  0  0  0  0
 24 22  2  0  0  0  0
 25 26  1  0  0  0  0
 26 21  2  0  0  0  0
 27 23  1  0  0  0  0
 28 24  1  0  0  0  0
M  END
>  <MODEL>
5

>  <REMARK>
 VINA RESULT:      -9.9      3.392      6.429
  Name = 
  2 active torsions:
  status: ('A' for Active; 'I' for Inactive)
    1  A    between atoms: C_1  and  C_2
    2  A    between atoms: C_10  and  C_13
                            x       y       z     vdW  Elec       q    Type
                         _______ _______ _______ _____ _____    ______ ____

>  <TORSDO>
F 2

$$$$
=
 OpenBabel11052413233D

 28 31  0  0  1  0  0  0  0  0999 V2000
  188.1170  177.2610  144.1240 C   0  0  2  0  0  3  0  0  0  0  0  0
  192.1510  177.3540  143.0530 O   0  0  0  0  0  0  0  0  0  0  0  0
  187.9420  177.9150  140.3970 C   0  0  0  0  0  0  0  0  0  0  0  0
  189.9270  177.4800  142.3290 N   0  0  0  0  0  0  0  0  0  0  0  0
  187.6270  177.6840  141.7770 N   0  0  0  0  0  0  0  0  0  0  0  0
  190.5310  177.0480  144.7680 C   0  0  0  0  0  2  0  0  0  0  0  0
  190.3360  177.4810  140.9210 C   0  0  0  0  0  2  0  0  0  0  0  0
  190.9260  177.3190  143.3500 C   0  0  0  0  0  0  0  0  0  0  0  0
  189.2180  177.8650  139.9940 C   0  0  0  0  0  3  0  0  0  0  0  0
  189.2060  177.7240  145.0920 C   0  0  0  0  0  2  0  0  0  0  0  0
  188.5310  177.5060  142.6920 C   0  0  0  0  0  0  0  0  0  0  0  0
  185.6750  178.6850  139.9520 C   0  0  0  0  0  3  0  0  0  0  0  0
  186.1760  177.6770  137.1110 C   0  0  0  0  0  3  0  0  0  0  0  0
  184.0210  177.8780  138.3380 C   0  0  0  0  0  0  0  0  0  0  0  0
  186.8510  178.2760  139.4520 C   0  0  0  0  0  0  0  0  0  0  0  0
  188.6760  178.6040  137.2910 S   0  0  0  0  0  1  0  0  0  0  0  0
  184.7790  177.3000  137.4050 C   0  0  0  0  0  3  0  0  0  0  0  0
  187.0810  178.1550  137.9780 C   0  0  0  0  0  0  0  0  0  0  0  0
  182.7570  177.4340  138.5290 F   0  0  0  0  0  0  0  0  0  0  0  0
  184.4990  179.0600  139.1140 C   0  0  0  0  0  2  0  0  0  0  0  0
  186.7940  177.8930  144.4620 C   0  0  0  0  0  0  0  0  0  0  0  0
  186.0080  178.4800  143.4570 C   0  0  0  0  0  3  0  0  0  0  0  0
  185.0570  178.4000  146.0850 C   0  0  0  0  0  0  0  0  0  0  0  0
  184.7600  179.0280  143.7670 C   0  0  0  0  0  3  0  0  0  0  0  0
  187.0640  177.2560  146.7880 O   0  0  0  0  0  1  0  0  0  0  0  0
  186.3100  177.8490  145.7800 C   0  0  0  0  0  0  0  0  0  0  0  0
  184.5850  178.3620  147.3550 F   0  0  0  0  0  0  0  0  0  0  0  0
  184.2860  178.9880  145.0800 C   0  0  0  0  0  3  0  0  0  0  0  0
  1 21  1  1  0  0  0
  1 10  1  0  0  0  0
  2  8  2  0  0  0  0
  3  5  1  0  0  0  0
  4 11  1  0  0  0  0
  4  8  1  0  0  0  0
  5 11  2  0  0  0  0
  6 10  1  0  0  0  0
  7  4  1  0  0  0  0
  8  6  1  0  0  0  0
  9  3  2  0  0  0  0
  9  7  1  0  0  0  0
 11  1  1  0  0  0  0
 13 17  1  0  0  0  0
 13 18  2  0  0  0  0
 14 19  1  0  0  0  0
 14 20  1  0  0  0  0
 15 12  2  0  0  0  0
 15  3  1  0  0  0  0
 16 18  1  0  0  0  0
 17 14  2  0  0  0  0
 18 15  1  0  0  0  0
 20 12  1  0  0  0  0
 21 26  1  0  0  0  0
 22 24  1  0  0  0  0
 22 21  2  0  0  0  0
 23 27  1  0  0  0  0
 24 28  2  0  0  0  0
 26 23  2  0  0  0  0
 26 25  1  0  0  0  0
 28 23  1  0  0  0  0
M  END
>  <MODEL>
6

>  <REMARK>
 VINA RESULT:      -9.8      2.320      3.118
  Name = 
  2 active torsions:
  status: ('A' for Active; 'I' for Inactive)
    1  A    between atoms: C_1  and  C_2
    2  A    between atoms: C_10  and  C_13
                            x       y       z     vdW  Elec       q    Type
                         _______ _______ _______ _____ _____    ______ ____

>  <TORSDO>
F 2

$$$$
=
 OpenBabel11052413233D

 28 31  0  0  1  0  0  0  0  0999 V2000
  187.9070  177.8200  144.0600 C   0  0  2  0  0  3  0  0  0  0  0  0
  183.8600  178.5230  143.3140 O   0  0  0  0  0  0  0  0  0  0  0  0
  187.8450  178.2220  140.2940 C   0  0  0  0  0  0  0  0  0  0  0  0
  186.0160  178.3360  142.4160 N   0  0  0  0  0  0  0  0  0  0  0  0
  188.2420  178.0160  141.6560 N   0  0  0  0  0  0  0  0  0  0  0  0
  185.5740  178.1360  144.9190 C   0  0  0  0  0  2  0  0  0  0  0  0
  185.5560  178.7800  141.0970 C   0  0  0  0  0  2  0  0  0  0  0  0
  185.0890  178.3240  143.5150 C   0  0  0  0  0  0  0  0  0  0  0  0
  186.5730  178.5390  140.0180 C   0  0  0  0  0  3  0  0  0  0  0  0
  186.8040  177.2400  144.9440 C   0  0  0  0  0  2  0  0  0  0  0  0
  187.4080  178.0390  142.6510 C   0  0  0  0  0  0  0  0  0  0  0  0
  188.4950  178.3380  137.9500 C   0  0  0  0  0  3  0  0  0  0  0  0
  190.7990  176.5080  138.7740 C   0  0  0  0  0  3  0  0  0  0  0  0
  189.6860  176.7140  136.5590 C   0  0  0  0  0  0  0  0  0  0  0  0
  188.8370  178.0110  139.2060 C   0  0  0  0  0  0  0  0  0  0  0  0
  191.0050  177.8970  141.0470 S   0  0  0  0  0  1  0  0  0  0  0  0
  190.3650  176.0000  137.4580 C   0  0  0  0  0  3  0  0  0  0  0  0
  190.1750  177.4240  139.5290 C   0  0  0  0  0  0  0  0  0  0  0  0
  189.3270  176.1330  135.3900 F   0  0  0  0  0  0  0  0  0  0  0  0
  189.3900  178.1610  136.7700 C   0  0  0  0  0  2  0  0  0  0  0  0
  189.1430  176.9620  144.1100 C   0  0  0  0  0  0  0  0  0  0  0  0
  189.3460  175.9480  143.1610 C   0  0  0  0  0  3  0  0  0  0  0  0
  191.3010  176.4380  145.0970 C   0  0  0  0  0  0  0  0  0  0  0  0
  190.5130  175.1820  143.1840 C   0  0  0  0  0  3  0  0  0  0  0  0
  189.9590  178.2220  146.0170 O   0  0  0  0  0  1  0  0  0  0  0  0
  190.1310  177.2100  145.0780 C   0  0  0  0  0  0  0  0  0  0  0  0
  192.2580  176.6710  146.0280 F   0  0  0  0  0  0  0  0  0  0  0  0
  191.4900  175.4270  144.1520 C   0  0  0  0  0  3  0  0  0  0  0  0
  1 21  1  6  0  0  0
  1 10  1  0  0  0  0
  2  8  2  0  0  0  0
  3  5  1  0  0  0  0
  4 11  1  0  0  0  0
  4  8  1  0  0  0  0
  5 11  2  0  0  0  0
  6 10  1  0  0  0  0
  7  4  1  0  0  0  0
  8  6  1  0  0  0  0
  9  3  2  0  0  0  0
  9  7  1  0  0  0  0
 11  1  1  0  0  0  0
 12 15  2  0  0  0  0
 13 18  2  0  0  0  0
 14 20  1  0  0  0  0
 14 17  2  0  0  0  0
 15 18  1  0  0  0  0
 15  3  1  0  0  0  0
 17 13  1  0  0  0  0
 18 16  1  0  0  0  0
 19 14  1  0  0  0  0
 20 12  1  0  0  0  0
 21 26  1  0  0  0  0
 22 24  1  0  0  0  0
 22 21  2  0  0  0  0
 23 27  1  0  0  0  0
 24 28  2  0  0  0  0
 26 23  2  0  0  0  0
 26 25  1  0  0  0  0
 28 23  1  0  0  0  0
M  END
>  <MODEL>
7

>  <REMARK>
 VINA RESULT:      -9.8      2.471      4.624
  Name = 
  2 active torsions:
  status: ('A' for Active; 'I' for Inactive)
    1  A    between atoms: C_1  and  C_2
    2  A    between atoms: C_10  and  C_13
                            x       y       z     vdW  Elec       q    Type
                         _______ _______ _______ _____ _____    ______ ____

>  <TORSDO>
F 2

$$$$
=
 OpenBabel11052413233D

 28 31  0  0  1  0  0  0  0  0999 V2000
  182.3960  177.6850  140.2160 C   0  0  2  0  0  3  0  0  0  0  0  0
  180.1940  180.0360  142.8730 O   0  0  0  0  0  0  0  0  0  0  0  0
  184.9480  178.4570  142.9070 C   0  0  0  0  0  0  0  0  0  0  0  0
  182.2430  179.0010  142.4050 N   0  0  0  0  0  0  0  0  0  0  0  0
  184.2760  177.9750  141.7350 N   0  0  0  0  0  0  0  0  0  0  0  0
  180.2250  178.7570  140.8680 C   0  0  0  0  0  2  0  0  0  0  0  0
  182.7720  179.3430  143.7290 C   0  0  0  0  0  2  0  0  0  0  0  0
  180.8770  179.3190  142.0920 C   0  0  0  0  0  0  0  0  0  0  0  0
  184.2570  179.1390  143.8300 C   0  0  0  0  0  3  0  0  0  0  0  0
  181.2460  178.5780  139.7530 C   0  0  0  0  0  2  0  0  0  0  0  0
  183.0320  178.2370  141.4710 C   0  0  0  0  0  0  0  0  0  0  0  0
  187.2090  178.5770  142.0130 C   0  0  0  0  0  3  0  0  0  0  0  0
  187.9460  176.7530  144.3510 C   0  0  0  0  0  3  0  0  0  0  0  0
  189.0410  176.9580  142.1270 C   0  0  0  0  0  0  0  0  0  0  0  0
  186.4140  178.2500  143.0430 C   0  0  0  0  0  0  0  0  0  0  0  0
  186.2520  178.1400  145.8830 S   0  0  0  0  0  1  0  0  0  0  0  0
  188.7360  176.2460  143.2120 C   0  0  0  0  0  3  0  0  0  0  0  0
  186.9640  177.6660  144.3060 C   0  0  0  0  0  0  0  0  0  0  0  0
  189.7590  176.3780  141.1370 F   0  0  0  0  0  0  0  0  0  0  0  0
  188.6910  178.4050  142.0160 C   0  0  0  0  0  2  0  0  0  0  0  0
  183.3900  177.4700  139.1070 C   0  0  0  0  0  0  0  0  0  0  0  0
  184.3530  178.4480  138.8140 C   0  0  0  0  0  3  0  0  0  0  0  0
  184.3490  176.0420  137.3910 C   0  0  0  0  0  0  0  0  0  0  0  0
  185.3020  178.2270  137.8130 C   0  0  0  0  0  3  0  0  0  0  0  0
  182.4610  175.2690  138.6810 O   0  0  0  0  0  1  0  0  0  0  0  0
  183.3950  176.2590  138.3940 C   0  0  0  0  0  0  0  0  0  0  0  0
  184.3600  174.8770  136.6980 F   0  0  0  0  0  0  0  0  0  0  0  0
  185.2990  177.0250  137.1020 C   0  0  0  0  0  3  0  0  0  0  0  0
  1 21  1  6  0  0  0
  1 11  1  0  0  0  0
  3 15  1  0  0  0  0
  3  9  2  0  0  0  0
  4  7  1  0  0  0  0
  5  3  1  0  0  0  0
  6  8  1  0  0  0  0
  7  9  1  0  0  0  0
  8  4  1  0  0  0  0
  8  2  2  0  0  0  0
 10  1  1  0  0  0  0
 10  6  1  0  0  0  0
 11  5  2  0  0  0  0
 11  4  1  0  0  0  0
 12 20  1  0  0  0  0
 12 15  2  0  0  0  0
 14 17  2  0  0  0  0
 15 18  1  0  0  0  0
 17 13  1  0  0  0  0
 18 13  2  0  0  0  0
 18 16  1  0  0  0  0
 19 14  1  0  0  0  0
 20 14  1  0  0  0  0
 22 21  1  0  0  0  0
 23 26  1  0  0  0  0
 24 22  2  0  0  0  0
 26 25  1  0  0  0  0
 26 21  2  0  0  0  0
 27 23  1  0  0  0  0
 28 23  2  0  0  0  0
 28 24  1  0  0  0  0
M  END
>  <MODEL>
8

>  <REMARK>
 VINA RESULT:      -9.8      4.427      7.422
  Name = 
  2 active torsions:
  status: ('A' for Active; 'I' for Inactive)
    1  A    between atoms: C_1  and  C_2
    2  A    between atoms: C_10  and  C_13
                            x       y       z     vdW  Elec       q    Type
                         _______ _______ _______ _____ _____    ______ ____

>  <TORSDO>
F 2

$$$$
=
 OpenBabel11052413233D

 28 31  0  0  1  0  0  0  0  0999 V2000
  187.2920  178.1030  144.5300 C   0  0  2  0  0  3  0  0  0  0  0  0
  183.1850  178.6720  145.0190 O   0  0  0  0  0  0  0  0  0  0  0  0
  186.0990  178.4490  140.9510 C   0  0  0  0  0  0  0  0  0  0  0  0
  184.9810  178.5370  143.5210 N   0  0  0  0  0  0  0  0  0  0  0  0
  186.8900  178.2750  142.1350 N   0  0  0  0  0  0  0  0  0  0  0  0
  185.3090  178.3600  146.0420 C   0  0  0  0  0  2  0  0  0  0  0  0
  184.1350  178.9490  142.3960 C   0  0  0  0  0  2  0  0  0  0  0  0
  184.4230  178.5130  144.8460 C   0  0  0  0  0  0  0  0  0  0  0  0
  184.7930  178.7230  141.0640 C   0  0  0  0  0  3  0  0  0  0  0  0
  186.5210  177.5030  145.7050 C   0  0  0  0  0  2  0  0  0  0  0  0
  186.3890  178.2860  143.3320 C   0  0  0  0  0  0  0  0  0  0  0  0
  185.9710  178.3920  138.5200 C   0  0  0  0  0  3  0  0  0  0  0  0
  188.6780  176.9830  138.6760 C   0  0  0  0  0  3  0  0  0  0  0  0
  186.9200  176.7970  136.9250 C   0  0  0  0  0  0  0  0  0  0  0  0
  186.7300  178.2530  139.6180 C   0  0  0  0  0  0  0  0  0  0  0  0
  189.3470  178.6280  140.6720 S   0  0  0  0  0  1  0  0  0  0  0  0
  187.9470  176.2820  137.6020 C   0  0  0  0  0  3  0  0  0  0  0  0
  188.1780  177.8860  139.5320 C   0  0  0  0  0  0  0  0  0  0  0  0
  186.3170  176.0490  135.9710 F   0  0  0  0  0  0  0  0  0  0  0  0
  186.4770  178.2070  137.1290 C   0  0  0  0  0  2  0  0  0  0  0  0
  188.5140  177.2840  144.2140 C   0  0  0  0  0  0  0  0  0  0  0  0
  188.4980  176.3560  143.1610 C   0  0  0  0  0  3  0  0  0  0  0  0
  190.8510  176.7530  144.6150 C   0  0  0  0  0  0  0  0  0  0  0  0
  189.6470  175.6270  142.8430 C   0  0  0  0  0  3  0  0  0  0  0  0
  189.7450  178.4140  145.9740 O   0  0  0  0  0  1  0  0  0  0  0  0
  189.7010  177.4850  144.9390 C   0  0  0  0  0  0  0  0  0  0  0  0
  192.0000  176.9410  145.3110 F   0  0  0  0  0  0  0  0  0  0  0  0
  190.8220  175.8260  143.5710 C   0  0  0  0  0  3  0  0  0  0  0  0
  1 21  1  6  0  0  0
  1 10  1  0  0  0  0
  3  9  2  0  0  0  0
  3  5  1  0  0  0  0
  4  8  1  0  0  0  0
  5 11  2  0  0  0  0
  7  4  1  0  0  0  0
  8  2  2  0  0  0  0
  8  6  1  0  0  0  0
  9  7  1  0  0  0  0
 10  6  1  0  0  0  0
 11  4  1  0  0  0  0
 11  1  1  0  0  0  0
 12 15  2  0  0  0  0
 13 18  2  0  0  0  0
 14 20  1  0  0  0  0
 14 17  2  0  0  0  0
 15  3  1  0  0  0  0
 17 13  1  0  0  0  0
 18 15  1  0  0  0  0
 18 16  1  0  0  0  0
 19 14  1  0  0  0  0
 20 12  1  0  0  0  0
 21 26  1  0  0  0  0
 22 21  2  0  0  0  0
 23 26  2  0  0  0  0
 23 27  1  0  0  0  0
 24 22  1  0  0  0  0
 24 28  2  0  0  0  0
 26 25  1  0  0  0  0
 28 23  1  0  0  0  0
M  END
>  <MODEL>
9

>  <REMARK>
 VINA RESULT:      -9.7      2.545      4.750
  Name = 
  2 active torsions:
  status: ('A' for Active; 'I' for Inactive)
    1  A    between atoms: C_1  and  C_2
    2  A    between atoms: C_10  and  C_13
                            x       y       z     vdW  Elec       q    Type
                         _______ _______ _______ _____ _____    ______ ____

>  <TORSDO>
F 2

$$$$
