=
 OpenBabel11052416163D

 43 47  0  0  1  0  0  0  0  0999 V2000
  190.2370  176.0440  138.4080 N   0  0  0  0  0  2  0  0  0  0  0  0
  189.4350  178.2660  138.9730 C   0  0  2  0  0  3  0  0  0  0  0  0
  190.4950  177.2030  138.8950 C   0  0  0  0  0  0  0  0  0  0  0  0
  189.6330  176.8450  141.7610 N   0  0  0  0  0  0  0  0  0  0  0  0
  188.3460  177.9370  139.9890 C   0  0  0  0  0  2  0  0  0  0  0  0
  191.9230  176.6680  140.8620 C   0  0  0  0  0  2  0  0  0  0  0  0
  191.0420  177.2510  141.9650 C   0  0  2  0  0  3  0  0  0  0  0  0
  188.8800  178.0430  141.4130 C   0  0  0  0  0  2  0  0  0  0  0  0
  191.8060  177.4560  139.5650 C   0  0  0  0  0  2  0  0  0  0  0  0
  191.4010  176.5490  146.1450 C   0  0  1  0  0  3  0  0  0  0  0  0
  191.4910  178.0430  144.4370 C   0  0  0  0  0  0  0  0  0  0  0  0
  191.9410  175.3960  145.3030 C   0  0  0  0  0  2  0  0  0  0  0  0
  191.7370  176.3080  147.6000 C   0  0  0  0  0  1  0  0  0  0  0  0
  191.6940  176.9690  143.3440 C   0  0  1  0  0  3  0  0  0  0  0  0
  191.9790  177.7620  145.7270 O   0  0  0  0  0  0  0  0  0  0  0  0
  191.4400  175.5520  143.8720 C   0  0  0  0  0  2  0  0  0  0  0  0
  191.9510  179.4140  143.9860 C   0  0  0  0  0  2  0  0  0  0  0  0
  190.4880  179.1740  144.3210 C   0  0  0  0  0  2  0  0  0  0  0  0
  188.9820  176.2600  142.9330 C   0  0  0  0  0  2  0  0  0  0  0  0
  187.0600  178.0670  145.7630 C   0  0  0  0  0  2  0  0  0  0  0  0
  185.6560  177.9490  145.1670 C   0  0  2  0  0  3  0  0  0  0  0  0
  186.6280  177.1550  143.0050 C   0  0  0  0  0  2  0  0  0  0  0  0
  187.9950  177.0490  145.1180 C   0  0  0  0  0  2  0  0  0  0  0  0
  188.0320  177.2500  143.6010 C   0  0  1  0  0  3  0  0  0  0  0  0
  185.7100  178.1820  143.6600 C   0  0  0  0  0  2  0  0  0  0  0  0
  183.4170  179.0320  145.0450 C   0  0  0  0  0  1  0  0  0  0  0  0
  184.7310  178.9720  145.8000 C   0  0  0  0  0  2  0  0  0  0  0  0
  188.8820  178.6790  137.6060 C   0  0  0  0  0  2  0  0  0  0  0  0
  188.1920  177.5480  136.8450 C   0  0  0  0  0  2  0  0  0  0  0  0
  186.6410  177.8640  134.9010 C   0  0  0  0  0  1  0  0  0  0  0  0
  186.7820  177.9280  136.4150 C   0  0  1  0  0  3  0  0  0  0  0  0
  185.7450  177.0650  137.1500 C   0  0  1  0  0  3  0  0  0  0  0  0
  184.6770  177.8330  137.8770 C   0  0  0  0  0  0  0  0  0  0  0  0
  182.3460  178.4720  138.0700 C   0  0  0  0  0  3  0  0  0  0  0  0
  183.9790  179.3930  139.6010 C   0  0  0  0  0  3  0  0  0  0  0  0
  182.6580  179.2950  139.1560 C   0  0  0  0  0  3  0  0  0  0  0  0
  184.9860  178.6660  138.9620 C   0  0  0  0  0  3  0  0  0  0  0  0
  183.3540  177.7450  137.4300 C   0  0  0  0  0  3  0  0  0  0  0  0
  185.2490  175.8110  136.4100 C   0  0  0  0  0  2  0  0  0  0  0  0
  185.5240  174.5300  137.1290 C   0  0  0  0  0  0  0  0  0  0  0  0
  184.5400  173.8540  137.6290 N   0  0  0  0  0  2  0  0  0  0  0  0
  187.7010  173.9520  136.1210 C   0  0  0  0  0  1  0  0  0  0  0  0
  186.8390  174.0740  137.2420 O   0  0  0  0  0  0  0  0  0  0  0  0
  1  3  2  0  0  0  0
  2 28  1  6  0  0  0
  2  5  1  0  0  0  0
  3  2  1  0  0  0  0
  3  9  1  0  0  0  0
  4  7  1  0  0  0  0
  4 19  1  0  0  0  0
  5  8  1  0  0  0  0
  7  6  1  6  0  0  0
  7 14  1  0  0  0  0
  8  4  1  0  0  0  0
  9  6  1  0  0  0  0
 10 13  1  1  0  0  0
 11 15  1  0  0  0  0
 12 10  1  0  0  0  0
 14 16  1  1  0  0  0
 14 11  1  0  0  0  0
 15 10  1  0  0  0  0
 16 12  1  0  0  0  0
 17 18  1  0  0  0  0
 17 11  1  0  0  0  0
 18 11  1  0  0  0  0
 21 20  1  0  0  0  0
 21 27  1  1  0  0  0
 22 24  1  0  0  0  0
 22 25  1  0  0  0  0
 23 20  1  0  0  0  0
 24 19  1  6  0  0  0
 24 23  1  0  0  0  0
 25 21  1  0  0  0  0
 26 27  1  0  0  0  0
 29 28  1  0  0  0  0
 31 30  1  6  0  0  0
 31 29  1  0  0  0  0
 31 32  1  0  0  0  0
 32 39  1  6  0  0  0
 32 33  1  0  0  0  0
 33 37  1  0  0  0  0
 34 36  2  0  0  0  0
 36 35  1  0  0  0  0
 37 35  2  0  0  0  0
 38 33  2  0  0  0  0
 38 34  1  0  0  0  0
 39 40  1  0  0  0  0
 40 43  1  0  0  0  0
 40 41  2  0  0  0  0
 42 43  1  0  0  0  0
M  END
>  <MODEL>
1

>  <REMARK>
 VINA RESULT:      -8.7      0.000      0.000
  Name = 
  12 active torsions:
  status: ('A' for Active; 'I' for Inactive)
    1  A    between atoms: C_1  and  N_8
    2  A    between atoms: C_1  and  C_35
    3  A    between atoms: C_4  and  C_12
    4  A    between atoms: C_4  and  C_14
    5  A    between atoms: C_6  and  C_17
    6  A    between atoms: C_10  and  C_41
    7  A    between atoms: C_10  and  O_42
    8  A    between atoms: C_11  and  C_14
    9  A    between atoms: C_12  and  C_17
   10  A    between atoms: C_14  and  C_41
   11  A    between atoms: C_19  and  C_37
   12  A    between atoms: C_21  and  C_30
                            x       y       z     vdW  Elec       q    Type
                         _______ _______ _______ _____ _____    ______ ____

>  <TORSDO>
F 12

$$$$
=
 OpenBabel11052416163D

 43 47  0  0  1  0  0  0  0  0999 V2000
  190.1310  176.0330  138.4630 N   0  0  0  0  0  2  0  0  0  0  0  0
  189.3260  178.2500  139.0430 C   0  0  2  0  0  3  0  0  0  0  0  0
  190.3910  177.1940  138.9440 C   0  0  0  0  0  0  0  0  0  0  0  0
  189.5870  176.8300  141.8260 N   0  0  0  0  0  0  0  0  0  0  0  0
  188.2590  177.9130  140.0790 C   0  0  0  0  0  2  0  0  0  0  0  0
  191.8600  176.6680  140.8830 C   0  0  0  0  0  2  0  0  0  0  0  0
  190.9970  177.2460  142.0030 C   0  0  2  0  0  3  0  0  0  0  0  0
  188.8200  178.0240  141.4920 C   0  0  0  0  0  2  0  0  0  0  0  0
  191.7130  177.4550  139.5880 C   0  0  0  0  0  2  0  0  0  0  0  0
  191.4410  176.5440  146.1740 C   0  0  1  0  0  3  0  0  0  0  0  0
  191.4870  178.0400  144.4660 C   0  0  0  0  0  0  0  0  0  0  0  0
  191.9750  175.3950  145.3210 C   0  0  0  0  0  2  0  0  0  0  0  0
  191.8070  176.3050  147.6230 C   0  0  0  0  0  1  0  0  0  0  0  0
  191.6780  176.9680  143.3690 C   0  0  1  0  0  3  0  0  0  0  0  0
  192.0020  177.7620  145.7460 O   0  0  0  0  0  0  0  0  0  0  0  0
  191.4450  175.5480  143.9010 C   0  0  0  0  0  2  0  0  0  0  0  0
  191.9270  179.4140  144.0070 C   0  0  0  0  0  2  0  0  0  0  0  0
  190.4730  179.1630  144.3700 C   0  0  0  0  0  2  0  0  0  0  0  0
  188.9630  176.2420  143.0110 C   0  0  0  0  0  2  0  0  0  0  0  0
  187.0360  178.0730  145.8210 C   0  0  0  0  0  2  0  0  0  0  0  0
  185.6210  177.8430  145.2870 C   0  0  2  0  0  3  0  0  0  0  0  0
  186.5630  176.9980  143.1300 C   0  0  0  0  0  2  0  0  0  0  0  0
  188.0080  177.0810  145.1910 C   0  0  0  0  0  2  0  0  0  0  0  0
  187.9780  177.2060  143.6660 C   0  0  1  0  0  3  0  0  0  0  0  0
  185.6080  178.0010  143.7690 C   0  0  0  0  0  2  0  0  0  0  0  0
  183.5900  179.2300  144.9010 C   0  0  0  0  0  1  0  0  0  0  0  0
  184.6590  178.8400  145.9040 C   0  0  0  0  0  2  0  0  0  0  0  0
  188.7440  178.6590  137.6870 C   0  0  0  0  0  2  0  0  0  0  0  0
  187.4550  177.9270  137.3140 C   0  0  0  0  0  2  0  0  0  0  0  0
  188.7140  177.8560  135.1470 C   0  0  0  0  0  1  0  0  0  0  0  0
  187.5420  177.2870  135.9350 C   0  0  1  0  0  3  0  0  0  0  0  0
  187.5890  175.7550  136.0550 C   0  0  1  0  0  3  0  0  0  0  0  0
  186.3370  175.1200  136.5890 C   0  0  0  0  0  0  0  0  0  0  0  0
  185.2670  173.2380  137.6830 C   0  0  0  0  0  3  0  0  0  0  0  0
  183.9320  175.1080  136.9220 C   0  0  0  0  0  3  0  0  0  0  0  0
  184.0230  173.8600  137.5430 C   0  0  0  0  0  3  0  0  0  0  0  0
  185.0860  175.7360  136.4450 C   0  0  0  0  0  3  0  0  0  0  0  0
  186.4210  173.8660  137.2030 C   0  0  0  0  0  3  0  0  0  0  0  0
  188.2550  174.9970  134.8940 C   0  0  0  0  0  2  0  0  0  0  0  0
  189.6060  174.4470  135.2220 C   0  0  0  0  0  0  0  0  0  0  0  0
  189.7110  173.4760  136.0720 N   0  0  0  0  0  2  0  0  0  0  0  0
  191.7660  175.6350  135.3180 C   0  0  0  0  0  1  0  0  0  0  0  0
  190.7360  174.9790  134.5960 O   0  0  0  0  0  0  0  0  0  0  0  0
  1  3  2  0  0  0  0
  2 28  1  6  0  0  0
  2  5  1  0  0  0  0
  3  2  1  0  0  0  0
  3  9  1  0  0  0  0
  4  7  1  0  0  0  0
  4 19  1  0  0  0  0
  5  8  1  0  0  0  0
  7  6  1  6  0  0  0
  7 14  1  0  0  0  0
  8  4  1  0  0  0  0
  9  6  1  0  0  0  0
 10 13  1  1  0  0  0
 11 15  1  0  0  0  0
 12 10  1  0  0  0  0
 14 16  1  1  0  0  0
 14 11  1  0  0  0  0
 15 10  1  0  0  0  0
 16 12  1  0  0  0  0
 17 18  1  0  0  0  0
 17 11  1  0  0  0  0
 18 11  1  0  0  0  0
 21 20  1  0  0  0  0
 21 27  1  1  0  0  0
 22 24  1  0  0  0  0
 22 25  1  0  0  0  0
 23 20  1  0  0  0  0
 24 19  1  6  0  0  0
 24 23  1  0  0  0  0
 25 21  1  0  0  0  0
 26 27  1  0  0  0  0
 29 28  1  0  0  0  0
 31 30  1  1  0  0  0
 31 32  1  0  0  0  0
 31 29  1  0  0  0  0
 32 39  1  6  0  0  0
 32 33  1  0  0  0  0
 33 38  1  0  0  0  0
 35 36  2  0  0  0  0
 36 34  1  0  0  0  0
 37 33  2  0  0  0  0
 37 35  1  0  0  0  0
 38 34  2  0  0  0  0
 39 40  1  0  0  0  0
 40 41  2  0  0  0  0
 43 40  1  0  0  0  0
 43 42  1  0  0  0  0
M  END
>  <MODEL>
2

>  <REMARK>
 VINA RESULT:      -8.1      1.844      2.481
  Name = 
  12 active torsions:
  status: ('A' for Active; 'I' for Inactive)
    1  A    between atoms: C_1  and  N_8
    2  A    between atoms: C_1  and  C_35
    3  A    between atoms: C_4  and  C_12
    4  A    between atoms: C_4  and  C_14
    5  A    between atoms: C_6  and  C_17
    6  A    between atoms: C_10  and  C_41
    7  A    between atoms: C_10  and  O_42
    8  A    between atoms: C_11  and  C_14
    9  A    between atoms: C_12  and  C_17
   10  A    between atoms: C_14  and  C_41
   11  A    between atoms: C_19  and  C_37
   12  A    between atoms: C_21  and  C_30
                            x       y       z     vdW  Elec       q    Type
                         _______ _______ _______ _____ _____    ______ ____

>  <TORSDO>
F 12

$$$$
=
 OpenBabel11052416163D

 43 47  0  0  1  0  0  0  0  0999 V2000
  187.5510  179.1850  137.0640 N   0  0  0  0  0  2  0  0  0  0  0  0
  187.0530  177.9750  139.1110 C   0  0  2  0  0  3  0  0  0  0  0  0
  187.3450  178.0560  137.6390 C   0  0  0  0  0  0  0  0  0  0  0  0
  184.3380  177.8880  137.5480 N   0  0  0  0  0  0  0  0  0  0  0  0
  185.6910  178.5580  139.4730 C   0  0  0  0  0  2  0  0  0  0  0  0
  185.9340  176.8470  135.9830 C   0  0  0  0  0  2  0  0  0  0  0  0
  184.6860  176.6360  136.8380 C   0  0  2  0  0  3  0  0  0  0  0  0
  184.5660  177.6610  138.9690 C   0  0  0  0  0  2  0  0  0  0  0  0
  187.2070  176.8150  136.8180 C   0  0  0  0  0  2  0  0  0  0  0  0
  180.8510  175.2670  135.6120 C   0  0  1  0  0  3  0  0  0  0  0  0
  182.8110  174.7960  136.6570 C   0  0  0  0  0  0  0  0  0  0  0  0
  181.4980  176.2030  134.5940 C   0  0  0  0  0  2  0  0  0  0  0  0
  179.5880  174.6790  135.0210 C   0  0  0  0  0  1  0  0  0  0  0  0
  183.5900  175.9480  135.9830 C   0  0  1  0  0  3  0  0  0  0  0  0
  181.7390  174.2270  135.9430 O   0  0  0  0  0  0  0  0  0  0  0  0
  182.6590  176.9300  135.2600 C   0  0  0  0  0  2  0  0  0  0  0  0
  183.7300  173.7120  137.1800 C   0  0  0  0  0  2  0  0  0  0  0  0
  182.8650  174.5070  138.1440 C   0  0  0  0  0  2  0  0  0  0  0  0
  182.9450  178.3130  137.4040 C   0  0  0  0  0  2  0  0  0  0  0  0
  180.2030  177.3120  139.9430 C   0  0  0  0  0  2  0  0  0  0  0  0
  179.8760  178.7150  140.4580 C   0  0  2  0  0  3  0  0  0  0  0  0
  181.8730  179.6310  139.2640 C   0  0  0  0  0  2  0  0  0  0  0  0
  180.9200  177.3960  138.5990 C   0  0  0  0  0  2  0  0  0  0  0  0
  182.1930  178.2360  138.7300 C   0  0  1  0  0  3  0  0  0  0  0  0
  181.1600  179.5260  140.6090 C   0  0  0  0  0  2  0  0  0  0  0  0
  180.1690  178.2740  142.8910 C   0  0  0  0  0  1  0  0  0  0  0  0
  179.1760  178.6300  141.8010 C   0  0  0  0  0  2  0  0  0  0  0  0
  188.1910  178.5060  139.9890 C   0  0  0  0  0  2  0  0  0  0  0  0
  187.7970  178.7410  141.4460 C   0  0  0  0  0  2  0  0  0  0  0  0
  189.1350  176.7170  142.0750 C   0  0  0  0  0  1  0  0  0  0  0  0
  187.8140  177.4520  142.2560 C   0  0  1  0  0  3  0  0  0  0  0  0
  187.4870  177.7390  143.7300 C   0  0  1  0  0  3  0  0  0  0  0  0
  186.0720  178.1680  143.9960 C   0  0  0  0  0  0  0  0  0  0  0  0
  184.3530  178.7820  145.5940 C   0  0  0  0  0  3  0  0  0  0  0  0
  183.8180  178.6570  143.2370 C   0  0  0  0  0  3  0  0  0  0  0  0
  183.4270  178.9070  144.5540 C   0  0  0  0  0  3  0  0  0  0  0  0
  185.1360  178.2870  142.9580 C   0  0  0  0  0  3  0  0  0  0  0  0
  185.6720  178.4100  145.3150 C   0  0  0  0  0  3  0  0  0  0  0  0
  188.0710  176.7620  144.7640 C   0  0  0  0  0  2  0  0  0  0  0  0
  188.9780  177.4040  145.7640 C   0  0  0  0  0  0  0  0  0  0  0  0
  189.8810  178.2420  145.3620 N   0  0  0  0  0  2  0  0  0  0  0  0
  188.5870  178.1000  148.0980 C   0  0  0  0  0  1  0  0  0  0  0  0
  188.8320  177.1030  147.1190 O   0  0  0  0  0  0  0  0  0  0  0  0
  1  3  2  0  0  0  0
  2  5  1  0  0  0  0
  2 28  1  1  0  0  0
  3  2  1  0  0  0  0
  4  8  1  0  0  0  0
  6  9  1  0  0  0  0
  7  6  1  6  0  0  0
  7  4  1  0  0  0  0
  8  5  1  0  0  0  0
  9  3  1  0  0  0  0
 10 13  1  6  0  0  0
 10 15  1  0  0  0  0
 11 17  1  0  0  0  0
 11 18  1  0  0  0  0
 12 16  1  0  0  0  0
 12 10  1  0  0  0  0
 14 16  1  1  0  0  0
 14 11  1  0  0  0  0
 14  7  1  0  0  0  0
 15 11  1  0  0  0  0
 17 18  1  0  0  0  0
 19  4  1  0  0  0  0
 20 21  1  0  0  0  0
 21 25  1  0  0  0  0
 21 27  1  1  0  0  0
 22 25  1  0  0  0  0
 23 24  1  0  0  0  0
 23 20  1  0  0  0  0
 24 19  1  6  0  0  0
 24 22  1  0  0  0  0
 27 26  1  0  0  0  0
 28 29  1  0  0  0  0
 29 31  1  0  0  0  0
 31 30  1  1  0  0  0
 31 32  1  0  0  0  0
 32 33  1  0  0  0  0
 32 39  1  1  0  0  0
 33 38  1  0  0  0  0
 35 36  2  0  0  0  0
 36 34  1  0  0  0  0
 37 35  1  0  0  0  0
 37 33  2  0  0  0  0
 38 34  2  0  0  0  0
 39 40  1  0  0  0  0
 40 43  1  0  0  0  0
 41 40  2  0  0  0  0
 43 42  1  0  0  0  0
M  END
>  <MODEL>
3

>  <REMARK>
 VINA RESULT:      -7.8      2.513      8.860
  Name = 
  12 active torsions:
  status: ('A' for Active; 'I' for Inactive)
    1  A    between atoms: C_1  and  N_8
    2  A    between atoms: C_1  and  C_35
    3  A    between atoms: C_4  and  C_12
    4  A    between atoms: C_4  and  C_14
    5  A    between atoms: C_6  and  C_17
    6  A    between atoms: C_10  and  C_41
    7  A    between atoms: C_10  and  O_42
    8  A    between atoms: C_11  and  C_14
    9  A    between atoms: C_12  and  C_17
   10  A    between atoms: C_14  and  C_41
   11  A    between atoms: C_19  and  C_37
   12  A    between atoms: C_21  and  C_30
                            x       y       z     vdW  Elec       q    Type
                         _______ _______ _______ _____ _____    ______ ____

>  <TORSDO>
F 12

$$$$
=
 OpenBabel11052416163D

 43 47  0  0  1  0  0  0  0  0999 V2000
  184.4260  180.0830  139.1720 N   0  0  0  0  0  2  0  0  0  0  0  0
  183.7370  178.5580  140.9330 C   0  0  2  0  0  3  0  0  0  0  0  0
  184.2860  178.8710  139.5680 C   0  0  0  0  0  0  0  0  0  0  0  0
  181.4080  178.3430  138.8460 N   0  0  0  0  0  0  0  0  0  0  0  0
  182.2600  178.9120  141.0680 C   0  0  0  0  0  2  0  0  0  0  0  0
  183.4070  177.7280  137.5400 C   0  0  0  0  0  2  0  0  0  0  0  0
  182.0660  177.2500  138.0940 C   0  0  2  0  0  3  0  0  0  0  0  0
  181.3960  177.9580  140.2520 C   0  0  0  0  0  2  0  0  0  0  0  0
  184.4900  177.7440  138.6090 C   0  0  0  0  0  2  0  0  0  0  0  0
  179.8450  174.2680  136.0290 C   0  0  1  0  0  3  0  0  0  0  0  0
  181.8630  175.2420  136.4020 C   0  0  0  0  0  0  0  0  0  0  0  0
  179.0670  175.5700  136.2030 C   0  0  0  0  0  2  0  0  0  0  0  0
  179.0670  173.3350  135.1270 C   0  0  0  0  0  1  0  0  0  0  0  0
  181.2650  176.5520  136.9640 C   0  0  1  0  0  3  0  0  0  0  0  0
  181.1030  174.5310  135.4540 O   0  0  0  0  0  0  0  0  0  0  0  0
  179.7640  176.4240  137.2550 C   0  0  0  0  0  2  0  0  0  0  0  0
  183.2830  175.4250  135.9090 C   0  0  0  0  0  2  0  0  0  0  0  0
  182.9950  174.4860  137.0690 C   0  0  0  0  0  2  0  0  0  0  0  0
  180.0190  178.6050  138.4660 C   0  0  0  0  0  2  0  0  0  0  0  0
  179.4080  181.2680  135.7260 C   0  0  0  0  0  2  0  0  0  0  0  0
  180.6440  182.1270  135.9940 C   0  0  2  0  0  3  0  0  0  0  0  0
  181.0830  180.8600  138.1040 C   0  0  0  0  0  2  0  0  0  0  0  0
  179.5890  179.8780  136.3300 C   0  0  0  0  0  2  0  0  0  0  0  0
  179.8610  179.9840  137.8320 C   0  0  1  0  0  3  0  0  0  0  0  0
  180.8800  182.2450  137.4970 C   0  0  0  0  0  2  0  0  0  0  0  0
  181.1270  184.5530  136.2820 C   0  0  0  0  0  1  0  0  0  0  0  0
  180.4560  183.5130  135.4050 C   0  0  0  0  0  2  0  0  0  0  0  0
  184.5970  179.1040  142.0760 C   0  0  0  0  0  2  0  0  0  0  0  0
  185.0540  178.0430  143.0760 C   0  0  0  0  0  2  0  0  0  0  0  0
  187.1850  178.5680  141.8640 C   0  0  0  0  0  1  0  0  0  0  0  0
  186.4990  177.6230  142.8400 C   0  0  1  0  0  3  0  0  0  0  0  0
  187.2460  177.4950  144.1760 C   0  0  1  0  0  3  0  0  0  0  0  0
  188.6960  177.1180  144.0610 C   0  0  0  0  0  0  0  0  0  0  0  0
  190.4020  175.7030  143.0760 C   0  0  0  0  0  3  0  0  0  0  0  0
  191.0150  177.3470  144.7430 C   0  0  0  0  0  3  0  0  0  0  0  0
  191.3770  176.3300  143.8560 C   0  0  0  0  0  3  0  0  0  0  0  0
  189.6780  177.7390  144.8470 C   0  0  0  0  0  3  0  0  0  0  0  0
  189.0630  176.0940  143.1820 C   0  0  0  0  0  3  0  0  0  0  0  0
  186.9390  178.5650  145.2380 C   0  0  0  0  0  2  0  0  0  0  0  0
  186.4270  178.0110  146.5290 C   0  0  0  0  0  0  0  0  0  0  0  0
  185.1780  178.1590  146.8370 N   0  0  0  0  0  2  0  0  0  0  0  0
  188.0900  177.9980  148.3520 C   0  0  0  0  0  1  0  0  0  0  0  0
  187.3010  177.3310  147.3800 O   0  0  0  0  0  0  0  0  0  0  0  0
  1  3  2  0  0  0  0
  2  5  1  0  0  0  0
  2 28  1  1  0  0  0
  3  2  1  0  0  0  0
  4  8  1  0  0  0  0
  6  9  1  0  0  0  0
  7  6  1  6  0  0  0
  7  4  1  0  0  0  0
  8  5  1  0  0  0  0
  9  3  1  0  0  0  0
 10 13  1  6  0  0  0
 10 12  1  0  0  0  0
 11 14  1  0  0  0  0
 11 18  1  0  0  0  0
 12 16  1  0  0  0  0
 14 16  1  1  0  0  0
 14  7  1  0  0  0  0
 15 10  1  0  0  0  0
 15 11  1  0  0  0  0
 17 11  1  0  0  0  0
 17 18  1  0  0  0  0
 19  4  1  0  0  0  0
 20 21  1  0  0  0  0
 20 23  1  0  0  0  0
 21 27  1  1  0  0  0
 21 25  1  0  0  0  0
 23 24  1  0  0  0  0
 24 22  1  0  0  0  0
 24 19  1  6  0  0  0
 25 22  1  0  0  0  0
 27 26  1  0  0  0  0
 28 29  1  0  0  0  0
 31 30  1  6  0  0  0
 31 29  1  0  0  0  0
 31 32  1  0  0  0  0
 32 39  1  6  0  0  0
 33 32  1  0  0  0  0
 33 37  1  0  0  0  0
 34 38  1  0  0  0  0
 34 36  2  0  0  0  0
 35 37  2  0  0  0  0
 36 35  1  0  0  0  0
 38 33  2  0  0  0  0
 39 40  1  0  0  0  0
 40 41  2  0  0  0  0
 40 43  1  0  0  0  0
 43 42  1  0  0  0  0
M  END
>  <MODEL>
4

>  <REMARK>
 VINA RESULT:      -7.6      3.461     10.466
  Name = 
  12 active torsions:
  status: ('A' for Active; 'I' for Inactive)
    1  A    between atoms: C_1  and  N_8
    2  A    between atoms: C_1  and  C_35
    3  A    between atoms: C_4  and  C_12
    4  A    between atoms: C_4  and  C_14
    5  A    between atoms: C_6  and  C_17
    6  A    between atoms: C_10  and  C_41
    7  A    between atoms: C_10  and  O_42
    8  A    between atoms: C_11  and  C_14
    9  A    between atoms: C_12  and  C_17
   10  A    between atoms: C_14  and  C_41
   11  A    between atoms: C_19  and  C_37
   12  A    between atoms: C_21  and  C_30
                            x       y       z     vdW  Elec       q    Type
                         _______ _______ _______ _____ _____    ______ ____

>  <TORSDO>
F 12

$$$$
=
 OpenBabel11052416163D

 43 47  0  0  1  0  0  0  0  0999 V2000
  185.0490  180.3290  144.3220 N   0  0  0  0  0  2  0  0  0  0  0  0
  184.7560  178.0230  143.6200 C   0  0  2  0  0  3  0  0  0  0  0  0
  185.0820  179.0840  144.6330 C   0  0  0  0  0  0  0  0  0  0  0  0
  187.8710  178.3350  143.7710 N   0  0  0  0  0  0  0  0  0  0  0  0
  185.8090  177.9120  142.5230 C   0  0  0  0  0  2  0  0  0  0  0  0
  187.1250  178.9250  146.0460 C   0  0  0  0  0  2  0  0  0  0  0  0
  187.9290  177.9420  145.1980 C   0  0  2  0  0  3  0  0  0  0  0  0
  187.1020  177.3160  143.0690 C   0  0  0  0  0  2  0  0  0  0  0  0
  185.6280  178.6600  145.9570 C   0  0  0  0  0  2  0  0  0  0  0  0
  191.1850  175.9930  147.1170 C   0  0  1  0  0  3  0  0  0  0  0  0
  189.3370  177.2960  147.3270 C   0  0  0  0  0  0  0  0  0  0  0  0
  191.5590  176.5610  145.7510 C   0  0  0  0  0  2  0  0  0  0  0  0
  192.4330  175.4910  147.8100 C   0  0  0  0  0  1  0  0  0  0  0  0
  189.3230  177.7290  145.8430 C   0  0  1  0  0  3  0  0  0  0  0  0
  190.5840  176.9910  147.9060 O   0  0  0  0  0  0  0  0  0  0  0  0
  190.2820  176.8920  144.9880 C   0  0  0  0  0  2  0  0  0  0  0  0
  188.5660  178.2530  148.2110 C   0  0  0  0  0  2  0  0  0  0  0  0
  188.1080  176.8120  148.0690 C   0  0  0  0  0  2  0  0  0  0  0  0
  189.1690  178.4230  143.1010 C   0  0  0  0  0  2  0  0  0  0  0  0
  190.3650  176.6240  139.8920 C   0  0  0  0  0  2  0  0  0  0  0  0
  189.9510  177.6990  138.8860 C   0  0  2  0  0  3  0  0  0  0  0  0
  188.6880  178.9040  140.6760 C   0  0  0  0  0  2  0  0  0  0  0  0
  190.4540  177.2180  141.2940 C   0  0  0  0  0  2  0  0  0  0  0  0
  189.1150  177.8440  141.6910 C   0  0  1  0  0  3  0  0  0  0  0  0
  188.6010  178.2900  139.2820 C   0  0  0  0  0  2  0  0  0  0  0  0
  189.0900  178.0400  136.5750 C   0  0  0  0  0  1  0  0  0  0  0  0
  189.8490  177.1030  137.4950 C   0  0  0  0  0  2  0  0  0  0  0  0
  183.3260  178.1140  143.0790 C   0  0  0  0  0  2  0  0  0  0  0  0
  183.1990  178.9160  141.7840 C   0  0  0  0  0  2  0  0  0  0  0  0
  180.8920  178.0620  141.3010 C   0  0  0  0  0  1  0  0  0  0  0  0
  182.3090  178.2170  140.7660 C   0  0  1  0  0  3  0  0  0  0  0  0
  182.3620  178.9460  139.4150 C   0  0  1  0  0  3  0  0  0  0  0  0
  183.2880  178.3390  138.3990 C   0  0  0  0  0  0  0  0  0  0  0  0
  183.5810  177.1200  136.3230 C   0  0  0  0  0  3  0  0  0  0  0  0
  185.5150  177.7430  137.6380 C   0  0  0  0  0  3  0  0  0  0  0  0
  184.9670  177.1330  136.5070 C   0  0  0  0  0  3  0  0  0  0  0  0
  184.6780  178.3430  138.5830 C   0  0  0  0  0  3  0  0  0  0  0  0
  182.7440  177.7190  137.2690 C   0  0  0  0  0  3  0  0  0  0  0  0
  181.0200  179.4420  138.8510 C   0  0  0  0  0  2  0  0  0  0  0  0
  180.8150  180.9180  138.9760 C   0  0  0  0  0  0  0  0  0  0  0  0
  180.0560  181.3800  139.9180 N   0  0  0  0  0  2  0  0  0  0  0  0
  180.8380  182.9570  137.5870 C   0  0  0  0  0  1  0  0  0  0  0  0
  181.4560  181.7790  138.0830 O   0  0  0  0  0  0  0  0  0  0  0  0
  1  3  2  0  0  0  0
  2 28  1  6  0  0  0
  2  3  1  0  0  0  0
  3  9  1  0  0  0  0
  4  7  1  0  0  0  0
  5  8  1  0  0  0  0
  5  2  1  0  0  0  0
  7 14  1  0  0  0  0
  7  6  1  1  0  0  0
  8  4  1  0  0  0  0
  9  6  1  0  0  0  0
 10 13  1  1  0  0  0
 10 15  1  0  0  0  0
 11 15  1  0  0  0  0
 11 18  1  0  0  0  0
 11 17  1  0  0  0  0
 12 10  1  0  0  0  0
 14 16  1  6  0  0  0
 14 11  1  0  0  0  0
 16 12  1  0  0  0  0
 18 17  1  0  0  0  0
 19  4  1  0  0  0  0
 20 23  1  0  0  0  0
 21 27  1  6  0  0  0
 21 25  1  0  0  0  0
 21 20  1  0  0  0  0
 22 24  1  0  0  0  0
 23 24  1  0  0  0  0
 24 19  1  1  0  0  0
 25 22  1  0  0  0  0
 26 27  1  0  0  0  0
 29 28  1  0  0  0  0
 31 30  1  1  0  0  0
 31 29  1  0  0  0  0
 32 39  1  6  0  0  0
 32 31  1  0  0  0  0
 33 37  1  0  0  0  0
 33 32  1  0  0  0  0
 34 36  2  0  0  0  0
 34 38  1  0  0  0  0
 35 37  2  0  0  0  0
 36 35  1  0  0  0  0
 38 33  2  0  0  0  0
 39 40  1  0  0  0  0
 40 41  2  0  0  0  0
 42 43  1  0  0  0  0
 43 40  1  0  0  0  0
M  END
>  <MODEL>
5

>  <REMARK>
 VINA RESULT:      -7.3      2.780      5.980
  Name = 
  12 active torsions:
  status: ('A' for Active; 'I' for Inactive)
    1  A    between atoms: C_1  and  N_8
    2  A    between atoms: C_1  and  C_35
    3  A    between atoms: C_4  and  C_12
    4  A    between atoms: C_4  and  C_14
    5  A    between atoms: C_6  and  C_17
    6  A    between atoms: C_10  and  C_41
    7  A    between atoms: C_10  and  O_42
    8  A    between atoms: C_11  and  C_14
    9  A    between atoms: C_12  and  C_17
   10  A    between atoms: C_14  and  C_41
   11  A    between atoms: C_19  and  C_37
   12  A    between atoms: C_21  and  C_30
                            x       y       z     vdW  Elec       q    Type
                         _______ _______ _______ _____ _____    ______ ____

>  <TORSDO>
F 12

$$$$
=
 OpenBabel11052416163D

 43 47  0  0  1  0  0  0  0  0999 V2000
  184.5250  180.1270  139.0950 N   0  0  0  0  0  2  0  0  0  0  0  0
  184.0880  178.4900  140.8360 C   0  0  2  0  0  3  0  0  0  0  0  0
  184.5260  178.8950  139.4560 C   0  0  0  0  0  0  0  0  0  0  0  0
  181.6780  178.1040  138.8690 N   0  0  0  0  0  0  0  0  0  0  0  0
  182.5930  178.6910  141.0610 C   0  0  0  0  0  2  0  0  0  0  0  0
  183.6520  177.7290  137.4390 C   0  0  0  0  0  2  0  0  0  0  0  0
  182.3970  177.1050  138.0460 C   0  0  2  0  0  3  0  0  0  0  0  0
  181.7820  177.6800  140.2590 C   0  0  0  0  0  2  0  0  0  0  0  0
  184.7860  177.8220  138.4500 C   0  0  0  0  0  2  0  0  0  0  0  0
  180.1510  174.0650  136.0960 C   0  0  1  0  0  3  0  0  0  0  0  0
  182.1830  175.0080  136.4670 C   0  0  0  0  0  0  0  0  0  0  0  0
  179.4030  175.3940  136.1750 C   0  0  0  0  0  2  0  0  0  0  0  0
  179.3700  173.1020  135.2280 C   0  0  0  0  0  1  0  0  0  0  0  0
  181.6060  176.3630  136.9370 C   0  0  1  0  0  3  0  0  0  0  0  0
  181.4280  174.2640  135.5410 O   0  0  0  0  0  0  0  0  0  0  0  0
  180.0960  176.2900  137.1940 C   0  0  0  0  0  2  0  0  0  0  0  0
  183.6190  175.1270  136.0020 C   0  0  0  0  0  2  0  0  0  0  0  0
  183.2780  174.2640  137.2050 C   0  0  0  0  0  2  0  0  0  0  0  0
  180.2520  178.2380  138.5720 C   0  0  0  0  0  2  0  0  0  0  0  0
  180.4200  181.5860  136.6410 C   0  0  0  0  0  2  0  0  0  0  0  0
  180.4660  182.5210  137.8500 C   0  0  2  0  0  3  0  0  0  0  0  0
  179.9210  180.6070  139.3640 C   0  0  0  0  0  2  0  0  0  0  0  0
  180.8150  180.1710  137.0500 C   0  0  0  0  0  2  0  0  0  0  0  0
  179.8940  179.6640  138.1620 C   0  0  1  0  0  3  0  0  0  0  0  0
  179.5190  182.0150  138.9350 C   0  0  0  0  0  2  0  0  0  0  0  0
  181.1820  184.5970  136.6770 C   0  0  0  0  0  1  0  0  0  0  0  0
  180.0590  183.9240  137.4430 C   0  0  0  0  0  2  0  0  0  0  0  0
  184.9530  179.0860  141.9500 C   0  0  0  0  0  2  0  0  0  0  0  0
  186.0740  178.1650  142.4300 C   0  0  0  0  0  2  0  0  0  0  0  0
  185.2360  177.8780  144.7760 C   0  0  0  0  0  1  0  0  0  0  0  0
  186.3860  178.3690  143.9070 C   0  0  1  0  0  3  0  0  0  0  0  0
  187.7300  177.7170  144.2680 C   0  0  1  0  0  3  0  0  0  0  0  0
  188.1090  177.8030  145.7190 C   0  0  0  0  0  0  0  0  0  0  0  0
  189.7710  177.4690  147.4540 C   0  0  0  0  0  3  0  0  0  0  0  0
  187.5570  178.2490  148.0400 C   0  0  0  0  0  3  0  0  0  0  0  0
  188.8500  177.8810  148.4210 C   0  0  0  0  0  3  0  0  0  0  0  0
  187.1870  178.2090  146.6940 C   0  0  0  0  0  3  0  0  0  0  0  0
  189.4000  177.4270  146.1060 C   0  0  0  0  0  3  0  0  0  0  0  0
  188.0390  176.3680  143.5970 C   0  0  0  0  0  2  0  0  0  0  0  0
  189.2400  176.3920  142.7080 C   0  0  0  0  0  0  0  0  0  0  0  0
  189.3580  177.3250  141.8180 N   0  0  0  0  0  2  0  0  0  0  0  0
  191.4180  175.6420  143.5930 C   0  0  0  0  0  1  0  0  0  0  0  0
  190.2260  175.4140  142.8570 O   0  0  0  0  0  0  0  0  0  0  0  0
  1  3  2  0  0  0  0
  2  5  1  0  0  0  0
  2 28  1  1  0  0  0
  3  2  1  0  0  0  0
  4  8  1  0  0  0  0
  6  9  1  0  0  0  0
  7  6  1  6  0  0  0
  7  4  1  0  0  0  0
  8  5  1  0  0  0  0
  9  3  1  0  0  0  0
 10 13  1  6  0  0  0
 10 12  1  0  0  0  0
 11 14  1  0  0  0  0
 11 18  1  0  0  0  0
 12 16  1  0  0  0  0
 14 16  1  1  0  0  0
 14  7  1  0  0  0  0
 15 10  1  0  0  0  0
 15 11  1  0  0  0  0
 17 11  1  0  0  0  0
 17 18  1  0  0  0  0
 19  4  1  0  0  0  0
 20 23  1  0  0  0  0
 20 21  1  0  0  0  0
 21 27  1  6  0  0  0
 21 25  1  0  0  0  0
 23 24  1  0  0  0  0
 24 19  1  1  0  0  0
 24 22  1  0  0  0  0
 25 22  1  0  0  0  0
 26 27  1  0  0  0  0
 28 29  1  0  0  0  0
 29 31  1  0  0  0  0
 31 32  1  0  0  0  0
 31 30  1  1  0  0  0
 32 39  1  1  0  0  0
 32 33  1  0  0  0  0
 33 38  2  0  0  0  0
 33 37  1  0  0  0  0
 34 36  2  0  0  0  0
 35 36  1  0  0  0  0
 37 35  2  0  0  0  0
 38 34  1  0  0  0  0
 40 43  1  0  0  0  0
 40 39  1  0  0  0  0
 41 40  2  0  0  0  0
 43 42  1  0  0  0  0
M  END
>  <MODEL>
6

>  <REMARK>
 VINA RESULT:      -7.3      3.181     10.089
  Name = 
  12 active torsions:
  status: ('A' for Active; 'I' for Inactive)
    1  A    between atoms: C_1  and  N_8
    2  A    between atoms: C_1  and  C_35
    3  A    between atoms: C_4  and  C_12
    4  A    between atoms: C_4  and  C_14
    5  A    between atoms: C_6  and  C_17
    6  A    between atoms: C_10  and  C_41
    7  A    between atoms: C_10  and  O_42
    8  A    between atoms: C_11  and  C_14
    9  A    between atoms: C_12  and  C_17
   10  A    between atoms: C_14  and  C_41
   11  A    between atoms: C_19  and  C_37
   12  A    between atoms: C_21  and  C_30
                            x       y       z     vdW  Elec       q    Type
                         _______ _______ _______ _____ _____    ______ ____

>  <TORSDO>
F 12

$$$$
=
 OpenBabel11052416163D

 43 47  0  0  1  0  0  0  0  0999 V2000
  186.7910  179.0210  137.2710 N   0  0  0  0  0  2  0  0  0  0  0  0
  186.6770  178.0480  139.4930 C   0  0  2  0  0  3  0  0  0  0  0  0
  186.6780  177.9660  137.9930 C   0  0  0  0  0  0  0  0  0  0  0  0
  183.7070  177.9140  138.4990 N   0  0  0  0  0  0  0  0  0  0  0  0
  185.4240  178.7190  140.0450 C   0  0  0  0  0  2  0  0  0  0  0  0
  184.9460  176.6540  136.7780 C   0  0  0  0  0  2  0  0  0  0  0  0
  183.8850  176.5830  137.8740 C   0  0  2  0  0  3  0  0  0  0  0  0
  184.2040  177.8240  139.8660 C   0  0  0  0  0  2  0  0  0  0  0  0
  186.3560  176.6550  137.3520 C   0  0  0  0  0  2  0  0  0  0  0  0
  180.6830  173.7970  137.5970 C   0  0  1  0  0  3  0  0  0  0  0  0
  182.7930  174.3610  136.9750 C   0  0  0  0  0  0  0  0  0  0  0  0
  180.2030  175.2450  137.6620 C   0  0  0  0  0  2  0  0  0  0  0  0
  179.5070  172.8910  137.3080 C   0  0  0  0  0  1  0  0  0  0  0  0
  182.6280  175.8580  137.3250 C   0  0  1  0  0  3  0  0  0  0  0  0
  181.6430  173.6540  136.5770 O   0  0  0  0  0  0  0  0  0  0  0  0
  181.3530  176.1250  138.1350 C   0  0  0  0  0  2  0  0  0  0  0  0
  183.9230  174.1230  135.9960 C   0  0  0  0  0  2  0  0  0  0  0  0
  183.9900  173.5320  137.3940 C   0  0  0  0  0  2  0  0  0  0  0  0
  182.3220  178.3790  138.5800 C   0  0  0  0  0  2  0  0  0  0  0  0
  181.9010  182.2120  138.2740 C   0  0  0  0  0  2  0  0  0  0  0  0
  180.6720  182.2140  137.3640 C   0  0  2  0  0  3  0  0  0  0  0  0
  180.9300  179.7550  136.9940 C   0  0  0  0  0  2  0  0  0  0  0  0
  182.0490  180.8590  138.9620 C   0  0  0  0  0  2  0  0  0  0  0  0
  182.1460  179.7430  137.9180 C   0  0  1  0  0  3  0  0  0  0  0  0
  180.8020  181.1140  136.3140 C   0  0  0  0  0  2  0  0  0  0  0  0
  181.5610  184.5350  137.2130 C   0  0  0  0  0  1  0  0  0  0  0  0
  180.5360  183.5560  136.6710 C   0  0  0  0  0  2  0  0  0  0  0  0
  187.9740  178.6170  140.0740 C   0  0  0  0  0  2  0  0  0  0  0  0
  187.9370  178.8400  141.5860 C   0  0  0  0  0  2  0  0  0  0  0  0
  189.0650  176.6400  142.0050 C   0  0  0  0  0  1  0  0  0  0  0  0
  187.8770  177.5260  142.3540 C   0  0  1  0  0  3  0  0  0  0  0  0
  187.7490  177.7900  143.8620 C   0  0  1  0  0  3  0  0  0  0  0  0
  186.3710  178.1620  144.3290 C   0  0  0  0  0  0  0  0  0  0  0  0
  184.8580  178.6350  146.1650 C   0  0  0  0  0  3  0  0  0  0  0  0
  184.0280  178.6240  143.8910 C   0  0  0  0  0  3  0  0  0  0  0  0
  183.8030  178.7890  145.2600 C   0  0  0  0  0  3  0  0  0  0  0  0
  185.3080  178.3100  143.4270 C   0  0  0  0  0  3  0  0  0  0  0  0
  186.1380  178.3190  145.7000 C   0  0  0  0  0  3  0  0  0  0  0  0
  188.5110  176.8310  144.7920 C   0  0  0  0  0  2  0  0  0  0  0  0
  189.6520  177.4660  145.5200 C   0  0  0  0  0  0  0  0  0  0  0  0
  190.4560  178.2570  144.8830 N   0  0  0  0  0  2  0  0  0  0  0  0
  189.0800  177.8790  147.8850 C   0  0  0  0  0  1  0  0  0  0  0  0
  189.8270  177.2090  146.8820 O   0  0  0  0  0  0  0  0  0  0  0  0
  1  3  2  0  0  0  0
  2  5  1  0  0  0  0
  2 28  1  6  0  0  0
  3  2  1  0  0  0  0
  4 19  1  0  0  0  0
  4  8  1  0  0  0  0
  6  9  1  0  0  0  0
  7  6  1  6  0  0  0
  7  4  1  0  0  0  0
  8  5  1  0  0  0  0
  9  3  1  0  0  0  0
 10 13  1  6  0  0  0
 10 12  1  0  0  0  0
 11 14  1  0  0  0  0
 11 18  1  0  0  0  0
 12 16  1  0  0  0  0
 14  7  1  0  0  0  0
 14 16  1  1  0  0  0
 15 11  1  0  0  0  0
 15 10  1  0  0  0  0
 17 11  1  0  0  0  0
 17 18  1  0  0  0  0
 20 23  1  0  0  0  0
 21 27  1  6  0  0  0
 21 20  1  0  0  0  0
 22 24  1  0  0  0  0
 24 19  1  1  0  0  0
 24 23  1  0  0  0  0
 25 22  1  0  0  0  0
 25 21  1  0  0  0  0
 27 26  1  0  0  0  0
 28 29  1  0  0  0  0
 29 31  1  0  0  0  0
 31 30  1  1  0  0  0
 31 32  1  0  0  0  0
 32 33  1  0  0  0  0
 32 39  1  1  0  0  0
 33 38  1  0  0  0  0
 35 36  2  0  0  0  0
 36 34  1  0  0  0  0
 37 35  1  0  0  0  0
 37 33  2  0  0  0  0
 38 34  2  0  0  0  0
 39 40  1  0  0  0  0
 40 43  1  0  0  0  0
 41 40  2  0  0  0  0
 43 42  1  0  0  0  0
M  END
>  <MODEL>
7

>  <REMARK>
 VINA RESULT:      -7.3      2.774      9.213
  Name = 
  12 active torsions:
  status: ('A' for Active; 'I' for Inactive)
    1  A    between atoms: C_1  and  N_8
    2  A    between atoms: C_1  and  C_35
    3  A    between atoms: C_4  and  C_12
    4  A    between atoms: C_4  and  C_14
    5  A    between atoms: C_6  and  C_17
    6  A    between atoms: C_10  and  C_41
    7  A    between atoms: C_10  and  O_42
    8  A    between atoms: C_11  and  C_14
    9  A    between atoms: C_12  and  C_17
   10  A    between atoms: C_14  and  C_41
   11  A    between atoms: C_19  and  C_37
   12  A    between atoms: C_21  and  C_30
                            x       y       z     vdW  Elec       q    Type
                         _______ _______ _______ _____ _____    ______ ____

>  <TORSDO>
F 12

$$$$
=
 OpenBabel11052416163D

 43 47  0  0  1  0  0  0  0  0999 V2000
  185.0420  180.1300  144.4130 N   0  0  0  0  0  2  0  0  0  0  0  0
  184.9240  177.8770  143.5140 C   0  0  2  0  0  3  0  0  0  0  0  0
  185.1480  178.8680  144.6220 C   0  0  0  0  0  0  0  0  0  0  0  0
  188.0060  178.3730  143.8030 N   0  0  0  0  0  0  0  0  0  0  0  0
  186.0160  177.9260  142.4510 C   0  0  0  0  0  2  0  0  0  0  0  0
  187.1520  178.7200  146.0900 C   0  0  0  0  0  2  0  0  0  0  0  0
  188.0460  177.8650  145.1930 C   0  0  2  0  0  3  0  0  0  0  0  0
  187.3280  177.3690  142.9920 C   0  0  0  0  0  2  0  0  0  0  0  0
  185.6800  178.3690  145.9250 C   0  0  0  0  0  2  0  0  0  0  0  0
  191.2910  176.0100  147.2210 C   0  0  1  0  0  3  0  0  0  0  0  0
  189.4230  177.2920  147.3640 C   0  0  0  0  0  0  0  0  0  0  0  0
  191.6830  176.5490  145.8470 C   0  0  0  0  0  2  0  0  0  0  0  0
  192.5330  175.5420  147.9480 C   0  0  0  0  0  1  0  0  0  0  0  0
  189.4300  177.6880  145.8700 C   0  0  1  0  0  3  0  0  0  0  0  0
  190.6620  177.0190  147.9730 O   0  0  0  0  0  0  0  0  0  0  0  0
  190.4160  176.8440  145.0530 C   0  0  0  0  0  2  0  0  0  0  0  0
  188.6220  178.2600  148.2090 C   0  0  0  0  0  2  0  0  0  0  0  0
  188.1860  176.8090  148.0950 C   0  0  0  0  0  2  0  0  0  0  0  0
  189.3160  178.5990  143.1900 C   0  0  0  0  0  2  0  0  0  0  0  0
  191.0480  176.7150  140.2900 C   0  0  0  0  0  2  0  0  0  0  0  0
  190.4310  177.5020  139.1330 C   0  0  2  0  0  3  0  0  0  0  0  0
  188.8380  178.6000  140.7170 C   0  0  0  0  0  2  0  0  0  0  0  0
  190.9310  177.5040  141.5900 C   0  0  0  0  0  2  0  0  0  0  0  0
  189.4640  177.8320  141.8800 C   0  0  1  0  0  3  0  0  0  0  0  0
  188.9620  177.7930  139.4280 C   0  0  0  0  0  2  0  0  0  0  0  0
  189.1860  176.1260  137.4730 C   0  0  0  0  0  1  0  0  0  0  0  0
  190.5360  176.7090  137.8450 C   0  0  0  0  0  2  0  0  0  0  0  0
  183.5090  177.9230  142.9310 C   0  0  0  0  0  2  0  0  0  0  0  0
  183.4070  178.6660  141.5990 C   0  0  0  0  0  2  0  0  0  0  0  0
  181.3620  177.6950  140.5210 C   0  0  0  0  0  1  0  0  0  0  0  0
  182.8820  177.7690  140.4860 C   0  0  1  0  0  3  0  0  0  0  0  0
  183.4260  178.2280  139.1240 C   0  0  1  0  0  3  0  0  0  0  0  0
  182.5070  179.1200  138.3390 C   0  0  0  0  0  0  0  0  0  0  0  0
  181.4970  181.3030  138.0260 C   0  0  0  0  0  3  0  0  0  0  0  0
  180.8830  179.4710  136.5680 C   0  0  0  0  0  3  0  0  0  0  0  0
  180.7560  180.8090  136.9490 C   0  0  0  0  0  3  0  0  0  0  0  0
  181.7550  178.6280  137.2620 C   0  0  0  0  0  3  0  0  0  0  0  0
  182.3680  180.4580  138.7210 C   0  0  0  0  0  3  0  0  0  0  0  0
  184.9110  178.6300  139.0790 C   0  0  0  0  0  2  0  0  0  0  0  0
  185.6420  178.1260  137.8770 C   0  0  0  0  0  0  0  0  0  0  0  0
  185.3210  176.9790  137.3690 N   0  0  0  0  0  2  0  0  0  0  0  0
  187.1980  178.6280  136.0300 C   0  0  0  0  0  1  0  0  0  0  0  0
  186.6530  178.9040  137.3100 O   0  0  0  0  0  0  0  0  0  0  0  0
  1  3  2  0  0  0  0
  2 28  1  6  0  0  0
  2  3  1  0  0  0  0
  3  9  1  0  0  0  0
  4  7  1  0  0  0  0
  5  8  1  0  0  0  0
  5  2  1  0  0  0  0
  7 14  1  0  0  0  0
  7  6  1  1  0  0  0
  8  4  1  0  0  0  0
  9  6  1  0  0  0  0
 10 13  1  1  0  0  0
 10 15  1  0  0  0  0
 11 15  1  0  0  0  0
 11 18  1  0  0  0  0
 11 17  1  0  0  0  0
 12 10  1  0  0  0  0
 14 16  1  6  0  0  0
 14 11  1  0  0  0  0
 16 12  1  0  0  0  0
 18 17  1  0  0  0  0
 19  4  1  0  0  0  0
 20 23  1  0  0  0  0
 21 27  1  6  0  0  0
 21 25  1  0  0  0  0
 21 20  1  0  0  0  0
 22 24  1  0  0  0  0
 23 24  1  0  0  0  0
 24 19  1  1  0  0  0
 25 22  1  0  0  0  0
 26 27  1  0  0  0  0
 29 28  1  0  0  0  0
 31 30  1  6  0  0  0
 31 29  1  0  0  0  0
 32 39  1  1  0  0  0
 32 31  1  0  0  0  0
 33 38  1  0  0  0  0
 33 32  1  0  0  0  0
 34 38  2  0  0  0  0
 35 36  2  0  0  0  0
 35 37  1  0  0  0  0
 36 34  1  0  0  0  0
 37 33  2  0  0  0  0
 40 39  1  0  0  0  0
 41 40  2  0  0  0  0
 42 43  1  0  0  0  0
 43 40  1  0  0  0  0
M  END
>  <MODEL>
8

>  <REMARK>
 VINA RESULT:      -7.1      2.074      5.286
  Name = 
  12 active torsions:
  status: ('A' for Active; 'I' for Inactive)
    1  A    between atoms: C_1  and  N_8
    2  A    between atoms: C_1  and  C_35
    3  A    between atoms: C_4  and  C_12
    4  A    between atoms: C_4  and  C_14
    5  A    between atoms: C_6  and  C_17
    6  A    between atoms: C_10  and  C_41
    7  A    between atoms: C_10  and  O_42
    8  A    between atoms: C_11  and  C_14
    9  A    between atoms: C_12  and  C_17
   10  A    between atoms: C_14  and  C_41
   11  A    between atoms: C_19  and  C_37
   12  A    between atoms: C_21  and  C_30
                            x       y       z     vdW  Elec       q    Type
                         _______ _______ _______ _____ _____    ______ ____

>  <TORSDO>
F 12

$$$$
=
 OpenBabel11052416163D

 43 47  0  0  1  0  0  0  0  0999 V2000
  188.9850  176.1030  139.2800 N   0  0  0  0  0  2  0  0  0  0  0  0
  188.9300  178.5210  139.4950 C   0  0  2  0  0  3  0  0  0  0  0  0
  189.4790  177.1600  139.8150 C   0  0  0  0  0  0  0  0  0  0  0  0
  187.6510  177.5340  142.1810 N   0  0  0  0  0  0  0  0  0  0  0  0
  187.5270  178.7360  140.0530 C   0  0  0  0  0  2  0  0  0  0  0  0
  189.8680  176.4540  142.1700 C   0  0  0  0  0  2  0  0  0  0  0  0
  188.9560  177.4560  142.8750 C   0  0  2  0  0  3  0  0  0  0  0  0
  187.5590  178.8550  141.5720 C   0  0  0  0  0  2  0  0  0  0  0  0
  190.4890  177.0400  140.9090 C   0  0  0  0  0  2  0  0  0  0  0  0
  189.0210  178.1500  147.0710 C   0  0  1  0  0  3  0  0  0  0  0  0
  190.1950  177.6560  145.1910 C   0  0  0  0  0  0  0  0  0  0  0  0
  187.7730  177.3970  146.6150 C   0  0  0  0  0  2  0  0  0  0  0  0
  189.0590  178.1860  148.5830 C   0  0  0  0  0  1  0  0  0  0  0  0
  188.9600  177.1680  144.3990 C   0  0  1  0  0  3  0  0  0  0  0  0
  190.1750  177.5030  146.5900 O   0  0  0  0  0  0  0  0  0  0  0  0
  187.6450  177.5250  145.1020 C   0  0  0  0  0  2  0  0  0  0  0  0
  191.4900  177.1180  144.6210 C   0  0  0  0  0  2  0  0  0  0  0  0
  191.2250  178.6140  144.6270 C   0  0  0  0  0  2  0  0  0  0  0  0
  186.4810  177.3840  143.0470 C   0  0  0  0  0  2  0  0  0  0  0  0
  183.1680  179.3790  143.1570 C   0  0  0  0  0  2  0  0  0  0  0  0
  182.4510  178.6530  142.0170 C   0  0  2  0  0  3  0  0  0  0  0  0
  184.5820  177.5030  141.3950 C   0  0  0  0  0  2  0  0  0  0  0  0
  184.3240  178.5310  143.6790 C   0  0  0  0  0  2  0  0  0  0  0  0
  185.2990  178.2090  142.5450 C   0  0  1  0  0  3  0  0  0  0  0  0
  183.4330  178.3670  140.8850 C   0  0  0  0  0  2  0  0  0  0  0  0
  181.2120  179.3750  139.9820 C   0  0  0  0  0  1  0  0  0  0  0  0
  181.3110  179.5040  141.4910 C   0  0  0  0  0  2  0  0  0  0  0  0
  189.0560  178.8980  138.0160 C   0  0  0  0  0  2  0  0  0  0  0  0
  187.7610  178.7430  137.2190 C   0  0  0  0  0  2  0  0  0  0  0  0
  189.3600  177.3180  135.9150 C   0  0  0  0  0  1  0  0  0  0  0  0
  187.9050  177.7320  136.0900 C   0  0  1  0  0  3  0  0  0  0  0  0
  186.9660  176.5360  136.3170 C   0  0  1  0  0  3  0  0  0  0  0  0
  185.5000  176.8590  136.2620 C   0  0  0  0  0  0  0  0  0  0  0  0
  183.4420  177.3750  137.4370 C   0  0  0  0  0  3  0  0  0  0  0  0
  183.4300  177.1490  135.0270 C   0  0  0  0  0  3  0  0  0  0  0  0
  182.7510  177.4000  136.2220 C   0  0  0  0  0  3  0  0  0  0  0  0
  184.8000  176.8780  135.0470 C   0  0  0  0  0  3  0  0  0  0  0  0
  184.8130  177.1010  137.4560 C   0  0  0  0  0  3  0  0  0  0  0  0
  187.3640  175.2150  135.6380 C   0  0  0  0  0  2  0  0  0  0  0  0
  187.4410  174.0500  136.5710 C   0  0  0  0  0  0  0  0  0  0  0  0
  186.4470  173.7960  137.3610 N   0  0  0  0  0  2  0  0  0  0  0  0
  189.8760  173.7530  136.8440 C   0  0  0  0  0  1  0  0  0  0  0  0
  188.5810  173.2420  136.5700 O   0  0  0  0  0  0  0  0  0  0  0  0
  1  3  2  0  0  0  0
  2 28  1  6  0  0  0
  2  3  1  0  0  0  0
  2  5  1  0  0  0  0
  3  9  1  0  0  0  0
  4  7  1  0  0  0  0
  4 19  1  0  0  0  0
  5  8  1  0  0  0  0
  7  6  1  6  0  0  0
  7 14  1  0  0  0  0
  8  4  1  0  0  0  0
  9  6  1  0  0  0  0
 10 13  1  1  0  0  0
 11 15  1  0  0  0  0
 12 10  1  0  0  0  0
 14 16  1  1  0  0  0
 14 11  1  0  0  0  0
 15 10  1  0  0  0  0
 16 12  1  0  0  0  0
 17 18  1  0  0  0  0
 17 11  1  0  0  0  0
 18 11  1  0  0  0  0
 20 23  1  0  0  0  0
 21 27  1  6  0  0  0
 21 20  1  0  0  0  0
 22 24  1  0  0  0  0
 24 19  1  1  0  0  0
 24 23  1  0  0  0  0
 25 22  1  0  0  0  0
 25 21  1  0  0  0  0
 26 27  1  0  0  0  0
 29 28  1  0  0  0  0
 31 30  1  1  0  0  0
 31 32  1  0  0  0  0
 31 29  1  0  0  0  0
 32 39  1  6  0  0  0
 33 32  1  0  0  0  0
 33 38  1  0  0  0  0
 34 38  2  0  0  0  0
 35 37  1  0  0  0  0
 35 36  2  0  0  0  0
 36 34  1  0  0  0  0
 37 33  2  0  0  0  0
 39 40  1  0  0  0  0
 40 41  2  0  0  0  0
 43 40  1  0  0  0  0
 43 42  1  0  0  0  0
M  END
>  <MODEL>
9

>  <REMARK>
 VINA RESULT:      -6.9      1.648      2.964
  Name = 
  12 active torsions:
  status: ('A' for Active; 'I' for Inactive)
    1  A    between atoms: C_1  and  N_8
    2  A    between atoms: C_1  and  C_35
    3  A    between atoms: C_4  and  C_12
    4  A    between atoms: C_4  and  C_14
    5  A    between atoms: C_6  and  C_17
    6  A    between atoms: C_10  and  C_41
    7  A    between atoms: C_10  and  O_42
    8  A    between atoms: C_11  and  C_14
    9  A    between atoms: C_12  and  C_17
   10  A    between atoms: C_14  and  C_41
   11  A    between atoms: C_19  and  C_37
   12  A    between atoms: C_21  and  C_30
                            x       y       z     vdW  Elec       q    Type
                         _______ _______ _______ _____ _____    ______ ____

>  <TORSDO>
F 12

$$$$
