=
 OpenBabel11052413393D

 27 31  0  0  1  0  0  0  0  0999 V2000
  187.1330  177.2120  144.2940 C   0  0  0  0  0  3  0  0  0  0  0  0
  187.0570  178.0450  141.9530 C   0  0  0  0  0  0  0  0  0  0  0  0
  189.4390  178.1920  142.5910 C   0  0  0  0  0  3  0  0  0  0  0  0
  188.8110  177.8190  137.8430 S   0  0  0  0  0  0  0  0  0  0  0  0
  191.1760  176.4120  137.5580 C   0  0  0  0  0  1  0  0  0  0  0  0
  186.3410  178.6590  140.7950 C   0  0  0  0  0  3  0  0  0  0  0  0
  190.0370  176.8930  139.7490 C   0  0  0  0  0  0  0  0  0  0  0  0
  190.9070  176.3080  140.4520 O   0  0  0  0  0  0  0  0  0  0  0  0
  188.8870  177.5000  140.2970 C   0  0  1  0  0  3  0  0  0  0  0  0
  186.4460  177.8890  143.1580 C   0  0  0  0  0  0  0  0  0  0  0  0
  190.1450  176.9940  138.3980 N   0  0  0  0  0  0  0  0  0  0  0  0
  188.0960  178.0800  139.3260 C   0  0  0  0  0  0  0  0  0  0  0  0
  188.4310  177.2760  144.6350 C   0  0  0  0  0  0  0  0  0  0  0  0
  188.4520  177.4690  141.7340 C   0  0  0  0  0  0  0  0  0  0  0  0
  186.8290  178.6710  139.5930 N   0  0  0  0  0  0  0  0  0  0  0  0
  189.4100  178.1320  143.9250 C   0  0  0  0  0  0  0  0  0  0  0  0
  182.3880  179.1110  143.9690 C   0  0  0  0  0  3  0  0  0  0  0  0
  185.0280  178.2880  143.4220 C   0  0  0  0  0  0  0  0  0  0  0  0
  184.0650  178.3510  142.3970 C   0  0  0  0  0  3  0  0  0  0  0  0
  182.7540  178.7520  142.6700 C   0  0  0  0  0  3  0  0  0  0  0  0
  183.3350  179.0730  144.9940 C   0  0  0  0  0  3  0  0  0  0  0  0
  184.6440  178.6660  144.7210 C   0  0  0  0  0  3  0  0  0  0  0  0
  191.7430  178.9500  143.8150 C   0  0  0  0  0  2  0  0  0  0  0  0
  191.7020  177.8460  144.8450 C   0  0  0  0  0  2  0  0  0  0  0  0
  190.5170  178.7910  144.6970 C   0  0  0  0  0  3  0  0  0  0  0  0
  188.8830  176.5340  145.7300 O   0  0  0  0  0  0  0  0  0  0  0  0
  188.6310  176.9210  146.9890 O   0  0  0  0  0  1  0  0  0  0  0  0
  1 13  1  0  0  0  0
  2 10  1  0  0  0  0
  3 16  1  0  0  0  0
  4 11  1  0  0  0  0
  4 12  1  0  0  0  0
  5 11  1  0  0  0  0
  6  2  2  0  0  0  0
  7  9  1  0  0  0  0
  7  8  2  0  0  0  0
  9 12  1  6  0  0  0
  9 14  1  0  0  0  0
 10 18  1  0  0  0  0
 10  1  2  0  0  0  0
 11  7  1  0  0  0  0
 12 15  2  0  0  0  0
 13 26  1  0  0  0  0
 14  2  1  0  0  0  0
 14  3  2  0  0  0  0
 15  6  1  0  0  0  0
 16 13  2  0  0  0  0
 16 25  1  0  0  0  0
 17 21  1  0  0  0  0
 18 22  1  0  0  0  0
 19 20  1  0  0  0  0
 19 18  2  0  0  0  0
 20 17  2  0  0  0  0
 22 21  2  0  0  0  0
 23 25  1  0  0  0  0
 23 24  1  0  0  0  0
 25 24  1  0  0  0  0
 26 27  1  0  0  0  0
M  END
>  <MODEL>
1

>  <REMARK>
 VINA RESULT:      -9.8      0.000      0.000
  Name = 
  3 active torsions:
  status: ('A' for Active; 'I' for Inactive)
    1  A    between atoms: C_9  and  C_15
    2  A    between atoms: C_18  and  O_22
    3  A    between atoms: C_20  and  C_26
                            x       y       z     vdW  Elec       q    Type
                         _______ _______ _______ _____ _____    ______ ____

>  <TORSDO>
F 3

$$$$
=
 OpenBabel11052413393D

 27 31  0  0  1  0  0  0  0  0999 V2000
  188.0150  176.7820  143.9670 C   0  0  0  0  0  3  0  0  0  0  0  0
  186.0280  178.2100  144.4030 C   0  0  0  0  0  0  0  0  0  0  0  0
  186.4560  178.4570  141.9830 C   0  0  0  0  0  3  0  0  0  0  0  0
  181.8800  179.3300  143.1550 S   0  0  0  0  0  0  0  0  0  0  0  0
  180.9850  178.3450  140.7290 C   0  0  0  0  0  1  0  0  0  0  0  0
  185.1660  179.0280  145.3070 C   0  0  0  0  0  3  0  0  0  0  0  0
  183.3190  178.0680  141.6280 C   0  0  0  0  0  0  0  0  0  0  0  0
  183.7400  177.4190  140.6310 O   0  0  0  0  0  0  0  0  0  0  0  0
  184.1220  178.3610  142.7510 C   0  0  0  0  0  0  0  0  0  0  0  0
  187.1900  177.6580  144.8460 C   0  0  0  0  0  0  0  0  0  0  0  0
  182.0490  178.5480  141.6960 N   0  0  0  0  0  0  0  0  0  0  0  0
  183.4360  179.0870  143.7020 C   0  0  0  0  0  0  0  0  0  0  0  0
  188.2380  176.9020  142.6480 C   0  0  0  0  0  0  0  0  0  0  0  0
  185.5250  177.8850  143.0010 C   0  0  2  0  0  3  0  0  0  0  0  0
  183.9780  179.4280  144.9740 N   0  0  0  0  0  0  0  0  0  0  0  0
  187.7140  178.0300  141.8420 C   0  0  0  0  0  0  0  0  0  0  0  0
  188.7020  178.1070  148.8610 C   0  0  0  0  0  3  0  0  0  0  0  0
  187.6890  177.7990  146.2490 C   0  0  0  0  0  0  0  0  0  0  0  0
  186.8600  178.2470  147.2960 C   0  0  0  0  0  3  0  0  0  0  0  0
  187.3610  178.3920  148.5930 C   0  0  0  0  0  3  0  0  0  0  0  0
  189.5420  177.6800  147.8320 C   0  0  0  0  0  3  0  0  0  0  0  0
  189.0380  177.5290  146.5370 C   0  0  0  0  0  3  0  0  0  0  0  0
  187.7570  178.4820  139.4100 C   0  0  0  0  0  2  0  0  0  0  0  0
  188.8520  177.4830  139.7010 C   0  0  0  0  0  2  0  0  0  0  0  0
  188.5350  178.5780  140.7100 C   0  0  0  0  0  3  0  0  0  0  0  0
  189.0280  175.9480  142.0020 O   0  0  0  0  0  0  0  0  0  0  0  0
  190.2460  175.6230  142.4580 O   0  0  0  0  0  1  0  0  0  0  0  0
  1 10  1  0  0  0  0
  2 10  2  0  0  0  0
  2  6  1  0  0  0  0
  4 12  1  0  0  0  0
  5 11  1  0  0  0  0
  7 11  1  0  0  0  0
  7  9  1  0  0  0  0
  8  7  2  0  0  0  0
  9 14  1  0  0  0  0
  9 12  2  0  0  0  0
 10 18  1  0  0  0  0
 11  4  1  0  0  0  0
 12 15  1  0  0  0  0
 13  1  2  0  0  0  0
 14  3  1  6  0  0  0
 14  2  1  0  0  0  0
 15  6  2  0  0  0  0
 16  3  2  0  0  0  0
 16 13  1  0  0  0  0
 18 22  2  0  0  0  0
 18 19  1  0  0  0  0
 19 20  2  0  0  0  0
 20 17  1  0  0  0  0
 21 17  2  0  0  0  0
 22 21  1  0  0  0  0
 23 24  1  0  0  0  0
 23 25  1  0  0  0  0
 24 25  1  0  0  0  0
 25 16  1  0  0  0  0
 26 27  1  0  0  0  0
 26 13  1  0  0  0  0
M  END
>  <MODEL>
2

>  <REMARK>
 VINA RESULT:      -9.2      3.295      5.841
  Name = 
  3 active torsions:
  status: ('A' for Active; 'I' for Inactive)
    1  A    between atoms: C_9  and  C_15
    2  A    between atoms: C_18  and  O_22
    3  A    between atoms: C_20  and  C_26
                            x       y       z     vdW  Elec       q    Type
                         _______ _______ _______ _____ _____    ______ ____

>  <TORSDO>
F 3

$$$$
=
 OpenBabel11052413393D

 27 31  0  0  1  0  0  0  0  0999 V2000
  186.5120  178.9560  141.9340 C   0  0  0  0  0  3  0  0  0  0  0  0
  186.1010  178.1520  144.2490 C   0  0  0  0  0  0  0  0  0  0  0  0
  188.3000  177.2050  143.6400 C   0  0  0  0  0  3  0  0  0  0  0  0
  187.7330  177.6720  148.3880 S   0  0  0  0  0  0  0  0  0  0  0  0
  190.4310  178.1700  148.7440 C   0  0  0  0  0  1  0  0  0  0  0  0
  185.1920  177.7990  145.3800 C   0  0  0  0  0  3  0  0  0  0  0  0
  189.2450  178.1580  146.5250 C   0  0  0  0  0  0  0  0  0  0  0  0
  190.2790  178.4220  145.8510 O   0  0  0  0  0  0  0  0  0  0  0  0
  187.9690  177.9970  145.9450 C   0  0  0  0  0  0  0  0  0  0  0  0
  185.6080  178.5340  143.0410 C   0  0  0  0  0  0  0  0  0  0  0  0
  189.2810  177.9970  147.8740 N   0  0  0  0  0  0  0  0  0  0  0  0
  187.0050  177.7050  146.8880 C   0  0  0  0  0  0  0  0  0  0  0  0
  187.7160  178.4550  141.6080 C   0  0  0  0  0  0  0  0  0  0  0  0
  187.6040  178.2060  144.5030 C   0  0  2  0  0  3  0  0  0  0  0  0
  185.6180  177.5930  146.5880 N   0  0  0  0  0  0  0  0  0  0  0  0
  188.3240  177.2990  142.3090 C   0  0  0  0  0  0  0  0  0  0  0  0
  181.3960  178.8000  142.1470 C   0  0  0  0  0  3  0  0  0  0  0  0
  184.1470  178.6540  142.7460 C   0  0  0  0  0  0  0  0  0  0  0  0
  183.2110  179.0090  143.7360 C   0  0  0  0  0  3  0  0  0  0  0  0
  181.8470  179.0880  143.4370 C   0  0  0  0  0  3  0  0  0  0  0  0
  182.3080  178.4290  141.1580 C   0  0  0  0  0  3  0  0  0  0  0  0
  183.6710  178.3560  141.4570 C   0  0  0  0  0  3  0  0  0  0  0  0
  190.2920  175.8020  142.3980 C   0  0  0  0  0  2  0  0  0  0  0  0
  190.5670  176.8440  141.3390 C   0  0  0  0  0  2  0  0  0  0  0  0
  189.1530  176.3150  141.5340 C   0  0  0  0  0  3  0  0  0  0  0  0
  188.4200  179.0180  140.5400 O   0  0  0  0  0  0  0  0  0  0  0  0
  188.1240  178.7130  139.2690 O   0  0  0  0  0  1  0  0  0  0  0  0
  1 10  1  0  0  0  0
  2 14  1  0  0  0  0
  2  6  1  0  0  0  0
  6 15  2  0  0  0  0
  7 11  1  0  0  0  0
  8  7  2  0  0  0  0
  9  7  1  0  0  0  0
  9 12  2  0  0  0  0
 10  2  2  0  0  0  0
 11  4  1  0  0  0  0
 11  5  1  0  0  0  0
 12  4  1  0  0  0  0
 13  1  2  0  0  0  0
 13 16  1  0  0  0  0
 14  3  1  6  0  0  0
 14  9  1  0  0  0  0
 15 12  1  0  0  0  0
 16  3  2  0  0  0  0
 17 20  1  0  0  0  0
 18 10  1  0  0  0  0
 18 19  1  0  0  0  0
 20 19  2  0  0  0  0
 21 22  1  0  0  0  0
 21 17  2  0  0  0  0
 22 18  2  0  0  0  0
 24 25  1  0  0  0  0
 24 23  1  0  0  0  0
 25 16  1  0  0  0  0
 25 23  1  0  0  0  0
 26 13  1  0  0  0  0
 27 26  1  0  0  0  0
M  END
>  <MODEL>
3

>  <REMARK>
 VINA RESULT:      -7.6      3.578      5.465
  Name = 
  3 active torsions:
  status: ('A' for Active; 'I' for Inactive)
    1  A    between atoms: C_9  and  C_15
    2  A    between atoms: C_18  and  O_22
    3  A    between atoms: C_20  and  C_26
                            x       y       z     vdW  Elec       q    Type
                         _______ _______ _______ _____ _____    ______ ____

>  <TORSDO>
F 3

$$$$
=
 OpenBabel11052413393D

 27 31  0  0  1  0  0  0  0  0999 V2000
  188.9570  176.4080  143.2230 C   0  0  0  0  0  3  0  0  0  0  0  0
  187.6860  177.7150  141.5340 C   0  0  0  0  0  0  0  0  0  0  0  0
  189.9720  177.5560  140.6110 C   0  0  0  0  0  3  0  0  0  0  0  0
  186.6440  178.2320  137.2140 S   0  0  0  0  0  0  0  0  0  0  0  0
  188.0950  176.7510  135.3820 C   0  0  0  0  0  1  0  0  0  0  0  0
  186.5580  178.6080  141.1350 C   0  0  0  0  0  3  0  0  0  0  0  0
  188.5550  176.8420  137.8540 C   0  0  0  0  0  0  0  0  0  0  0  0
  189.5460  176.0620  137.8060 O   0  0  0  0  0  0  0  0  0  0  0  0
  188.0730  177.4010  139.0570 C   0  0  0  0  0  0  0  0  0  0  0  0
  187.8750  177.3540  142.8320 C   0  0  0  0  0  0  0  0  0  0  0  0
  187.8730  177.2160  136.7390 N   0  0  0  0  0  0  0  0  0  0  0  0
  186.9880  178.2260  138.8450 C   0  0  0  0  0  0  0  0  0  0  0  0
  190.1950  176.3060  142.7140 C   0  0  0  0  0  0  0  0  0  0  0  0
  188.5590  177.1000  140.4460 C   0  0  2  0  0  3  0  0  0  0  0  0
  186.2470  178.8370  139.8960 N   0  0  0  0  0  0  0  0  0  0  0  0
  190.7140  177.2200  141.6690 C   0  0  0  0  0  0  0  0  0  0  0  0
  185.3580  178.6600  146.0830 C   0  0  0  0  0  3  0  0  0  0  0  0
  186.9790  177.7890  143.9480 C   0  0  0  0  0  0  0  0  0  0  0  0
  185.6600  178.2270  143.7210 C   0  0  0  0  0  3  0  0  0  0  0  0
  184.8540  178.6520  144.7810 C   0  0  0  0  0  3  0  0  0  0  0  0
  186.6690  178.2470  146.3250 C   0  0  0  0  0  3  0  0  0  0  0  0
  187.4710  177.8170  145.2640 C   0  0  0  0  0  3  0  0  0  0  0  0
  192.6210  177.9720  140.2830 C   0  0  0  0  0  2  0  0  0  0  0  0
  193.0000  176.6380  140.8820 C   0  0  0  0  0  2  0  0  0  0  0  0
  192.1620  177.6220  141.6870 C   0  0  0  0  0  3  0  0  0  0  0  0
  191.0550  175.3210  143.2080 O   0  0  0  0  0  0  0  0  0  0  0  0
  191.8430  175.5480  144.2690 O   0  0  0  0  0  1  0  0  0  0  0  0
  2 10  2  0  0  0  0
  3 16  2  0  0  0  0
  4 12  1  0  0  0  0
  5 11  1  0  0  0  0
  6  2  1  0  0  0  0
  7  9  1  0  0  0  0
  8  7  2  0  0  0  0
  9 14  1  0  0  0  0
 10  1  1  0  0  0  0
 10 18  1  0  0  0  0
 11  4  1  0  0  0  0
 11  7  1  0  0  0  0
 12  9  2  0  0  0  0
 12 15  1  0  0  0  0
 13 26  1  0  0  0  0
 13  1  2  0  0  0  0
 14  3  1  6  0  0  0
 14  2  1  0  0  0  0
 15  6  2  0  0  0  0
 16 25  1  0  0  0  0
 16 13  1  0  0  0  0
 17 21  1  0  0  0  0
 18 22  1  0  0  0  0
 19 18  2  0  0  0  0
 19 20  1  0  0  0  0
 20 17  2  0  0  0  0
 22 21  2  0  0  0  0
 23 24  1  0  0  0  0
 23 25  1  0  0  0  0
 24 25  1  0  0  0  0
 26 27  1  0  0  0  0
M  END
>  <MODEL>
4

>  <REMARK>
 VINA RESULT:      -7.2      2.138      2.779
  Name = 
  3 active torsions:
  status: ('A' for Active; 'I' for Inactive)
    1  A    between atoms: C_9  and  C_15
    2  A    between atoms: C_18  and  O_22
    3  A    between atoms: C_20  and  C_26
                            x       y       z     vdW  Elec       q    Type
                         _______ _______ _______ _____ _____    ______ ____

>  <TORSDO>
F 3

$$$$
=
 OpenBabel11052413393D

 27 31  0  0  1  0  0  0  0  0999 V2000
  189.2010  176.6470  140.4420 C   0  0  0  0  0  3  0  0  0  0  0  0
  187.2790  178.1790  140.8170 C   0  0  0  0  0  0  0  0  0  0  0  0
  187.6580  178.2360  138.3760 C   0  0  0  0  0  3  0  0  0  0  0  0
  183.1470  179.3690  139.5800 S   0  0  0  0  0  0  0  0  0  0  0  0
  182.1570  178.2480  137.2520 C   0  0  0  0  0  1  0  0  0  0  0  0
  186.4710  179.0940  141.6770 C   0  0  0  0  0  3  0  0  0  0  0  0
  184.5000  177.9460  138.1180 C   0  0  0  0  0  0  0  0  0  0  0  0
  184.8730  177.2120  137.1610 O   0  0  0  0  0  0  0  0  0  0  0  0
  185.3410  178.2860  139.1990 C   0  0  0  0  0  0  0  0  0  0  0  0
  188.4300  177.6160  141.2730 C   0  0  0  0  0  0  0  0  0  0  0  0
  183.2510  178.4790  138.1780 N   0  0  0  0  0  0  0  0  0  0  0  0
  184.7060  179.1050  140.1100 C   0  0  0  0  0  0  0  0  0  0  0  0
  189.3960  176.6640  139.1140 C   0  0  0  0  0  0  0  0  0  0  0  0
  186.7300  177.7750  139.4530 C   0  0  2  0  0  3  0  0  0  0  0  0
  185.2910  179.5140  141.3410 N   0  0  0  0  0  0  0  0  0  0  0  0
  188.8940  177.7520  138.2400 C   0  0  0  0  0  0  0  0  0  0  0  0
  189.9710  178.1650  145.2650 C   0  0  0  0  0  3  0  0  0  0  0  0
  188.9680  177.8370  142.6510 C   0  0  0  0  0  0  0  0  0  0  0  0
  190.1410  178.5790  142.8860 C   0  0  0  0  0  3  0  0  0  0  0  0
  190.6340  178.7480  144.1830 C   0  0  0  0  0  3  0  0  0  0  0  0
  188.8170  177.4090  145.0490 C   0  0  0  0  0  3  0  0  0  0  0  0
  188.3220  177.2470  143.7520 C   0  0  0  0  0  3  0  0  0  0  0  0
  188.7900  178.5670  135.9060 C   0  0  0  0  0  2  0  0  0  0  0  0
  189.4980  177.2320  135.8840 C   0  0  0  0  0  2  0  0  0  0  0  0
  189.7080  178.1850  137.0530 C   0  0  0  0  0  3  0  0  0  0  0  0
  190.1340  175.6360  138.5210 O   0  0  0  0  0  0  0  0  0  0  0  0
  191.4620  175.5450  138.6830 O   0  0  0  0  0  1  0  0  0  0  0  0
  1 10  1  0  0  0  0
  2 10  2  0  0  0  0
  2  6  1  0  0  0  0
  4 12  1  0  0  0  0
  5 11  1  0  0  0  0
  7 11  1  0  0  0  0
  7  9  1  0  0  0  0
  8  7  2  0  0  0  0
  9 14  1  0  0  0  0
  9 12  2  0  0  0  0
 10 18  1  0  0  0  0
 11  4  1  0  0  0  0
 12 15  1  0  0  0  0
 13  1  2  0  0  0  0
 14  3  1  6  0  0  0
 14  2  1  0  0  0  0
 15  6  2  0  0  0  0
 16  3  2  0  0  0  0
 16 13  1  0  0  0  0
 18 19  2  0  0  0  0
 18 22  1  0  0  0  0
 19 20  1  0  0  0  0
 20 17  2  0  0  0  0
 21 17  1  0  0  0  0
 22 21  2  0  0  0  0
 23 25  1  0  0  0  0
 24 23  1  0  0  0  0
 24 25  1  0  0  0  0
 25 16  1  0  0  0  0
 26 27  1  0  0  0  0
 26 13  1  0  0  0  0
M  END
>  <MODEL>
5

>  <REMARK>
 VINA RESULT:      -6.8      3.418      6.050
  Name = 
  3 active torsions:
  status: ('A' for Active; 'I' for Inactive)
    1  A    between atoms: C_9  and  C_15
    2  A    between atoms: C_18  and  O_22
    3  A    between atoms: C_20  and  C_26
                            x       y       z     vdW  Elec       q    Type
                         _______ _______ _______ _____ _____    ______ ____

>  <TORSDO>
F 3

$$$$
=
 OpenBabel11052413393D

 27 31  0  0  1  0  0  0  0  0999 V2000
  184.3530  179.1930  143.2710 C   0  0  0  0  0  3  0  0  0  0  0  0
  186.4560  178.1730  142.4260 C   0  0  0  0  0  0  0  0  0  0  0  0
  184.7800  177.6930  140.6750 C   0  0  0  0  0  3  0  0  0  0  0  0
  189.2760  177.7250  138.9810 S   0  0  0  0  0  0  0  0  0  0  0  0
  188.4330  178.6900  136.5290 C   0  0  0  0  0  1  0  0  0  0  0  0
  187.8110  177.5820  142.6360 C   0  0  0  0  0  3  0  0  0  0  0  0
  187.0230  178.6080  138.6110 C   0  0  0  0  0  0  0  0  0  0  0  0
  185.9990  179.1040  138.0650 O   0  0  0  0  0  0  0  0  0  0  0  0
  187.0710  178.2530  139.9760 C   0  0  0  0  0  0  0  0  0  0  0  0
  185.6750  178.5380  143.4780 C   0  0  0  0  0  0  0  0  0  0  0  0
  188.1680  178.3660  137.9190 N   0  0  0  0  0  0  0  0  0  0  0  0
  188.2960  177.7250  140.3300 C   0  0  0  0  0  0  0  0  0  0  0  0
  183.4460  178.9480  142.3110 C   0  0  0  0  0  0  0  0  0  0  0  0
  186.0020  178.4870  141.0040 C   0  0  2  0  0  3  0  0  0  0  0  0
  188.6470  177.3780  141.6650 N   0  0  0  0  0  0  0  0  0  0  0  0
  183.6140  177.8800  141.2970 C   0  0  0  0  0  0  0  0  0  0  0  0
  186.8120  178.1340  147.6200 C   0  0  0  0  0  3  0  0  0  0  0  0
  186.0990  178.4040  144.9060 C   0  0  0  0  0  0  0  0  0  0  0  0
  187.2260  177.6490  145.2840 C   0  0  0  0  0  3  0  0  0  0  0  0
  187.5840  177.5220  146.6300 C   0  0  0  0  0  3  0  0  0  0  0  0
  185.6810  178.8710  147.2640 C   0  0  0  0  0  3  0  0  0  0  0  0
  185.3290  179.0030  145.9190 C   0  0  0  0  0  3  0  0  0  0  0  0
  182.7160  176.4650  139.4770 C   0  0  0  0  0  2  0  0  0  0  0  0
  181.8850  177.7250  139.5170 C   0  0  0  0  0  2  0  0  0  0  0  0
  182.4120  177.1210  140.8120 C   0  0  0  0  0  3  0  0  0  0  0  0
  182.2700  179.7020  142.2770 O   0  0  0  0  0  0  0  0  0  0  0  0
  181.2880  179.5070  143.1690 O   0  0  0  0  0  1  0  0  0  0  0  0
  1 10  1  0  0  0  0
  2  6  1  0  0  0  0
  2 10  2  0  0  0  0
  3 16  2  0  0  0  0
  4 12  1  0  0  0  0
  5 11  1  0  0  0  0
  7  9  1  0  0  0  0
  8  7  2  0  0  0  0
  9 12  2  0  0  0  0
  9 14  1  0  0  0  0
 10 18  1  0  0  0  0
 11  7  1  0  0  0  0
 11  4  1  0  0  0  0
 12 15  1  0  0  0  0
 13  1  2  0  0  0  0
 14  3  1  6  0  0  0
 14  2  1  0  0  0  0
 15  6  2  0  0  0  0
 16 13  1  0  0  0  0
 18 19  2  0  0  0  0
 18 22  1  0  0  0  0
 19 20  1  0  0  0  0
 20 17  2  0  0  0  0
 21 17  1  0  0  0  0
 22 21  2  0  0  0  0
 23 24  1  0  0  0  0
 23 25  1  0  0  0  0
 24 25  1  0  0  0  0
 25 16  1  0  0  0  0
 26 13  1  0  0  0  0
 26 27  1  0  0  0  0
M  END
>  <MODEL>
6

>  <REMARK>
 VINA RESULT:      -6.8      3.231      5.373
  Name = 
  3 active torsions:
  status: ('A' for Active; 'I' for Inactive)
    1  A    between atoms: C_9  and  C_15
    2  A    between atoms: C_18  and  O_22
    3  A    between atoms: C_20  and  C_26
                            x       y       z     vdW  Elec       q    Type
                         _______ _______ _______ _____ _____    ______ ____

>  <TORSDO>
F 3

$$$$
