=
 OpenBabel11052413553D

 27 31  0  0  1  0  0  0  0  0999 V2000
  186.1390  178.0800  144.4810 C   0  0  2  0  0  3  0  0  0  0  0  0
  188.2550  176.9610  143.7370 C   0  0  0  0  0  0  0  0  0  0  0  0
  186.7730  177.9640  142.1040 O   0  0  0  0  0  0  0  0  0  0  0  0
  189.4840  176.4130  143.8100 N   0  0  0  0  0  2  0  0  0  0  0  0
  183.4600  178.9140  143.6320 C   0  0  1  0  0  3  0  0  0  0  0  0
  187.2510  177.0690  144.8520 C   0  0  1  0  0  3  0  0  0  0  0  0
  189.0960  177.1240  141.7040 C   0  0  0  0  0  0  0  0  0  0  0  0
  184.9410  177.9410  145.4180 C   0  0  0  0  0  2  0  0  0  0  0  0
  187.9840  177.3800  142.4700 C   0  0  0  0  0  0  0  0  0  0  0  0
  184.6430  178.9770  142.6540 C   0  0  0  0  0  2  0  0  0  0  0  0
  190.0080  176.5170  142.5620 C   0  0  0  0  0  3  0  0  0  0  0  0
  183.9000  179.0110  145.1010 C   0  0  0  0  0  2  0  0  0  0  0  0
  185.6710  177.9110  143.0130 C   0  0  2  0  0  3  0  0  0  0  0  0
  190.2590  176.6990  139.5380 C   0  0  0  0  0  3  0  0  0  0  0  0
  189.6800  177.9360  137.5400 C   0  0  0  0  0  3  0  0  0  0  0  0
  188.7150  178.6460  138.2590 C   0  0  0  0  0  3  0  0  0  0  0  0
  188.5230  178.3820  139.6180 C   0  0  0  0  0  3  0  0  0  0  0  0
  189.2930  177.4060  140.2690 C   0  0  0  0  0  0  0  0  0  0  0  0
  190.4510  176.9620  138.1790 C   0  0  0  0  0  3  0  0  0  0  0  0
  189.1090  178.1440  148.5810 C   0  0  0  0  0  3  0  0  0  0  0  0
  187.9130  177.4390  146.1470 C   0  0  0  0  0  0  0  0  0  0  0  0
  187.1870  178.1520  147.1070 C   0  0  0  0  0  3  0  0  0  0  0  0
  187.7830  178.5040  148.3220 C   0  0  0  0  0  3  0  0  0  0  0  0
  189.8390  177.4290  147.6260 C   0  0  0  0  0  3  0  0  0  0  0  0
  189.2440  177.0770  146.4120 C   0  0  0  0  0  3  0  0  0  0  0  0
  181.2060  179.1190  143.2450 C   0  0  0  0  0  1  0  0  0  0  0  0
  182.4250  179.8160  143.3040 O   0  0  0  0  0  0  0  0  0  0  0  0
  1  6  1  0  0  0  0
  1  8  1  1  0  0  0
  2  4  1  0  0  0  0
  2  6  1  0  0  0  0
  3  9  1  0  0  0  0
  3 13  1  0  0  0  0
  5 27  1  6  0  0  0
  5 12  1  0  0  0  0
  6 21  1  1  0  0  0
  7  9  1  0  0  0  0
  7 11  2  0  0  0  0
  9  2  2  0  0  0  0
 10  5  1  0  0  0  0
 11  4  1  0  0  0  0
 12  8  1  0  0  0  0
 13 10  1  6  0  0  0
 13  1  1  0  0  0  0
 14 18  1  0  0  0  0
 15 19  1  0  0  0  0
 15 16  2  0  0  0  0
 16 17  1  0  0  0  0
 17 18  2  0  0  0  0
 18  7  1  0  0  0  0
 19 14  2  0  0  0  0
 21 25  2  0  0  0  0
 21 22  1  0  0  0  0
 22 23  2  0  0  0  0
 23 20  1  0  0  0  0
 24 20  2  0  0  0  0
 25 24  1  0  0  0  0
 26 27  1  0  0  0  0
M  END
>  <MODEL>
1

>  <REMARK>
 VINA RESULT:     -10.4      0.000      0.000
  Name = 
  3 active torsions:
  status: ('A' for Active; 'I' for Inactive)
    1  A    between atoms: C_9  and  C_15
    2  A    between atoms: C_13  and  O_22
    3  A    between atoms: C_14  and  C_17
                            x       y       z     vdW  Elec       q    Type
                         _______ _______ _______ _____ _____    ______ ____

>  <TORSDO>
F 3

$$$$
=
 OpenBabel11052413553D

 27 31  0  0  1  0  0  0  0  0999 V2000
  190.0480  177.3490  142.2430 C   0  0  2  0  0  3  0  0  0  0  0  0
  188.7620  177.8870  144.3260 C   0  0  0  0  0  0  0  0  0  0  0  0
  187.7010  178.0900  142.1580 O   0  0  0  0  0  0  0  0  0  0  0  0
  188.4430  177.9300  145.6350 N   0  0  0  0  0  2  0  0  0  0  0  0
  190.2060  177.8170  139.3540 C   0  0  1  0  0  3  0  0  0  0  0  0
  190.1390  177.7280  143.7410 C   0  0  1  0  0  3  0  0  0  0  0  0
  186.5780  178.1940  144.3920 C   0  0  0  0  0  0  0  0  0  0  0  0
  191.3970  177.5320  141.5510 C   0  0  0  0  0  2  0  0  0  0  0  0
  187.6570  178.0660  143.5500 C   0  0  0  0  0  0  0  0  0  0  0  0
  188.8420  177.7190  140.0550 C   0  0  0  0  0  2  0  0  0  0  0  0
  187.0990  178.1120  145.6800 C   0  0  0  0  0  3  0  0  0  0  0  0
  191.3130  177.0590  140.1030 C   0  0  0  0  0  2  0  0  0  0  0  0
  188.9680  178.1780  141.5020 C   0  0  2  0  0  3  0  0  0  0  0  0
  184.2180  178.7100  145.0160 C   0  0  0  0  0  3  0  0  0  0  0  0
  182.4670  178.7800  143.3460 C   0  0  0  0  0  3  0  0  0  0  0  0
  183.4000  178.4680  142.3540 C   0  0  0  0  0  3  0  0  0  0  0  0
  184.7420  178.2760  142.6930 C   0  0  0  0  0  3  0  0  0  0  0  0
  185.1630  178.3960  144.0260 C   0  0  0  0  0  0  0  0  0  0  0  0
  182.8760  178.9020  144.6770 C   0  0  0  0  0  3  0  0  0  0  0  0
  192.4360  174.8640  145.9840 C   0  0  0  0  0  3  0  0  0  0  0  0
  190.9430  176.7200  144.5100 C   0  0  0  0  0  0  0  0  0  0  0  0
  191.2440  176.9680  145.8530 C   0  0  0  0  0  3  0  0  0  0  0  0
  191.9890  176.0410  146.5900 C   0  0  0  0  0  3  0  0  0  0  0  0
  192.1370  174.6100  144.6420 C   0  0  0  0  0  3  0  0  0  0  0  0
  191.3930  175.5350  143.9050 C   0  0  0  0  0  3  0  0  0  0  0  0
  189.1350  178.2550  137.3710 C   0  0  0  0  0  1  0  0  0  0  0  0
  190.1450  177.4920  137.9810 O   0  0  0  0  0  0  0  0  0  0  0  0
  1  8  1  6  0  0  0
  1  6  1  0  0  0  0
  2  4  1  0  0  0  0
  3  9  1  0  0  0  0
  4 11  1  0  0  0  0
  5 27  1  6  0  0  0
  5 10  1  0  0  0  0
  5 12  1  0  0  0  0
  6  2  1  0  0  0  0
  6 21  1  1  0  0  0
  7 11  2  0  0  0  0
  9  2  2  0  0  0  0
  9  7  1  0  0  0  0
 12  8  1  0  0  0  0
 13 10  1  6  0  0  0
 13  3  1  0  0  0  0
 13  1  1  0  0  0  0
 15 19  2  0  0  0  0
 16 17  2  0  0  0  0
 16 15  1  0  0  0  0
 17 18  1  0  0  0  0
 18  7  1  0  0  0  0
 18 14  2  0  0  0  0
 19 14  1  0  0  0  0
 20 23  1  0  0  0  0
 21 22  1  0  0  0  0
 22 23  2  0  0  0  0
 24 20  2  0  0  0  0
 25 21  2  0  0  0  0
 25 24  1  0  0  0  0
 26 27  1  0  0  0  0
M  END
>  <MODEL>
2

>  <REMARK>
 VINA RESULT:     -10.0      2.004      6.077
  Name = 
  3 active torsions:
  status: ('A' for Active; 'I' for Inactive)
    1  A    between atoms: C_9  and  C_15
    2  A    between atoms: C_13  and  O_22
    3  A    between atoms: C_14  and  C_17
                            x       y       z     vdW  Elec       q    Type
                         _______ _______ _______ _____ _____    ______ ____

>  <TORSDO>
F 3

$$$$
=
 OpenBabel11052413553D

 27 31  0  0  1  0  0  0  0  0999 V2000
  189.3960  177.4370  143.1400 C   0  0  2  0  0  3  0  0  0  0  0  0
  189.0240  177.8800  140.7010 C   0  0  0  0  0  0  0  0  0  0  0  0
  190.9300  176.5680  141.4200 O   0  0  0  0  0  0  0  0  0  0  0  0
  188.3880  178.2310  139.5670 N   0  0  0  0  0  0  0  0  0  0  0  0
  191.4100  176.7460  145.1550 C   0  0  1  0  0  3  0  0  0  0  0  0
  188.6980  178.3410  142.0960 C   0  0  1  0  0  3  0  0  0  0  0  0
  190.1050  176.8520  139.0750 C   0  0  0  0  0  0  0  0  0  0  0  0
  189.3770  178.0860  144.5220 C   0  0  0  0  0  2  0  0  0  0  0  0
  190.0810  177.0640  140.4320 C   0  0  1  0  0  3  0  0  0  0  0  0
  191.4870  176.1530  143.7400 C   0  0  0  0  0  2  0  0  0  0  0  0
  189.0450  177.5960  138.5640 C   0  0  0  0  0  3  0  0  0  0  0  0
  189.9790  177.1380  145.5560 C   0  0  0  0  0  2  0  0  0  0  0  0
  190.8580  177.1150  142.7390 C   0  0  2  0  0  3  0  0  0  0  0  0
  192.4170  176.3770  138.2660 C   0  0  0  0  0  3  0  0  0  0  0  0
  192.8790  174.4820  136.8330 C   0  0  0  0  0  3  0  0  0  0  0  0
  191.5270  174.1300  136.8630 C   0  0  0  0  0  3  0  0  0  0  0  0
  190.6200  174.9030  137.5940 C   0  0  0  0  0  3  0  0  0  0  0  0
  191.0570  176.0320  138.3020 C   0  0  0  0  0  0  0  0  0  0  0  0
  193.3240  175.6050  137.5350 C   0  0  0  0  0  3  0  0  0  0  0  0
  184.4520  178.4560  142.7830 C   0  0  0  0  0  3  0  0  0  0  0  0
  187.2140  178.3860  142.3200 C   0  0  0  0  0  0  0  0  0  0  0  0
  186.6840  177.8430  143.4950 C   0  0  0  0  0  3  0  0  0  0  0  0
  185.3060  177.8780  143.7270 C   0  0  0  0  0  3  0  0  0  0  0  0
  184.9760  179.0030  141.6070 C   0  0  0  0  0  3  0  0  0  0  0  0
  186.3540  178.9680  141.3750 C   0  0  0  0  0  3  0  0  0  0  0  0
  191.6740  176.3780  147.4060 C   0  0  0  0  0  1  0  0  0  0  0  0
  192.0560  175.9470  146.1240 O   0  0  0  0  0  0  0  0  0  0  0  0
  1  8  1  1  0  0  0
  2  6  1  0  0  0  0
  3 13  1  0  0  0  0
  4  2  2  0  0  0  0
  5 12  1  0  0  0  0
  5 27  1  1  0  0  0
  6 21  1  1  0  0  0
  6  1  1  0  0  0  0
  8 12  1  0  0  0  0
  9  7  1  1  0  0  0
  9  2  1  0  0  0  0
  9  3  1  0  0  0  0
 10  5  1  0  0  0  0
 11  7  2  0  0  0  0
 11  4  1  0  0  0  0
 13  1  1  0  0  0  0
 13 10  1  1  0  0  0
 14 18  1  0  0  0  0
 15 16  2  0  0  0  0
 15 19  1  0  0  0  0
 16 17  1  0  0  0  0
 17 18  2  0  0  0  0
 18  7  1  0  0  0  0
 19 14  2  0  0  0  0
 20 23  1  0  0  0  0
 21 22  1  0  0  0  0
 22 23  2  0  0  0  0
 24 20  2  0  0  0  0
 25 24  1  0  0  0  0
 25 21  2  0  0  0  0
 27 26  1  0  0  0  0
M  END
>  <MODEL>
3

>  <REMARK>
 VINA RESULT:      -9.8      2.817      5.736
  Name = 
  3 active torsions:
  status: ('A' for Active; 'I' for Inactive)
    1  A    between atoms: C_9  and  C_15
    2  A    between atoms: C_13  and  O_22
    3  A    between atoms: C_14  and  C_17
                            x       y       z     vdW  Elec       q    Type
                         _______ _______ _______ _____ _____    ______ ____

>  <TORSDO>
F 3

$$$$
=
 OpenBabel11052413553D

 27 31  0  0  1  0  0  0  0  0999 V2000
  184.2630  178.5640  142.2880 C   0  0  2  0  0  3  0  0  0  0  0  0
  185.6540  178.6510  140.2040 C   0  0  0  0  0  0  0  0  0  0  0  0
  186.7210  178.4330  142.3690 O   0  0  0  0  0  0  0  0  0  0  0  0
  185.9660  178.6000  138.8950 N   0  0  0  0  0  0  0  0  0  0  0  0
  184.2820  179.0110  145.1850 C   0  0  1  0  0  3  0  0  0  0  0  0
  184.3090  178.9760  140.7970 C   0  0  1  0  0  3  0  0  0  0  0  0
  187.8060  178.1720  140.1290 C   0  0  0  0  0  0  0  0  0  0  0  0
  183.0650  179.1990  142.9920 C   0  0  0  0  0  2  0  0  0  0  0  0
  186.7520  178.4180  140.9750 C   0  0  1  0  0  3  0  0  0  0  0  0
  185.5240  178.4520  144.4730 C   0  0  0  0  0  2  0  0  0  0  0  0
  187.2880  178.3000  138.8430 C   0  0  0  0  0  3  0  0  0  0  0  0
  182.9790  178.7030  144.4320 C   0  0  0  0  0  2  0  0  0  0  0  0
  185.5650  178.9490  143.0340 C   0  0  2  0  0  3  0  0  0  0  0  0
  190.1430  177.5860  139.4820 C   0  0  0  0  0  3  0  0  0  0  0  0
  191.8610  177.2570  141.1560 C   0  0  0  0  0  3  0  0  0  0  0  0
  190.9320  177.5280  142.1630 C   0  0  0  0  0  3  0  0  0  0  0  0
  189.6080  177.8260  141.8300 C   0  0  0  0  0  3  0  0  0  0  0  0
  189.2030  177.8590  140.4870 C   0  0  0  0  0  0  0  0  0  0  0  0
  191.4670  177.2880  139.8150 C   0  0  0  0  0  3  0  0  0  0  0  0
  181.1410  177.0780  138.5890 C   0  0  0  0  0  3  0  0  0  0  0  0
  183.2010  178.3280  140.0180 C   0  0  0  0  0  0  0  0  0  0  0  0
  183.0080  176.9470  140.1260 C   0  0  0  0  0  3  0  0  0  0  0  0
  181.9790  176.3220  139.4140 C   0  0  0  0  0  3  0  0  0  0  0  0
  181.3280  178.4590  138.4780 C   0  0  0  0  0  3  0  0  0  0  0  0
  182.3560  179.0840  139.1900 C   0  0  0  0  0  3  0  0  0  0  0  0
  185.5340  178.5890  147.0630 C   0  0  0  0  0  1  0  0  0  0  0  0
  184.2270  178.6630  146.5530 O   0  0  0  0  0  0  0  0  0  0  0  0
  1  8  1  1  0  0  0
  1 13  1  0  0  0  0
  2  6  1  0  0  0  0
  2  9  1  0  0  0  0
  3 13  1  0  0  0  0
  4  2  2  0  0  0  0
  5 27  1  1  0  0  0
  6 21  1  6  0  0  0
  6  1  1  0  0  0  0
  7 18  1  0  0  0  0
  8 12  1  0  0  0  0
  9  7  1  1  0  0  0
  9  3  1  0  0  0  0
 10  5  1  0  0  0  0
 11  4  1  0  0  0  0
 11  7  2  0  0  0  0
 12  5  1  0  0  0  0
 13 10  1  1  0  0  0
 14 19  2  0  0  0  0
 14 18  1  0  0  0  0
 15 16  2  0  0  0  0
 17 16  1  0  0  0  0
 18 17  2  0  0  0  0
 19 15  1  0  0  0  0
 20 23  1  0  0  0  0
 21 22  1  0  0  0  0
 23 22  2  0  0  0  0
 24 20  2  0  0  0  0
 24 25  1  0  0  0  0
 25 21  2  0  0  0  0
 27 26  1  0  0  0  0
M  END
>  <MODEL>
4

>  <REMARK>
 VINA RESULT:      -9.5      2.756      5.861
  Name = 
  3 active torsions:
  status: ('A' for Active; 'I' for Inactive)
    1  A    between atoms: C_9  and  C_15
    2  A    between atoms: C_13  and  O_22
    3  A    between atoms: C_14  and  C_17
                            x       y       z     vdW  Elec       q    Type
                         _______ _______ _______ _____ _____    ______ ____

>  <TORSDO>
F 3

$$$$
=
 OpenBabel11052413553D

 27 31  0  0  1  0  0  0  0  0999 V2000
  189.3280  177.3130  138.4120 C   0  0  2  0  0  3  0  0  0  0  0  0
  190.7410  177.3370  140.4820 C   0  0  0  0  0  0  0  0  0  0  0  0
  188.3570  177.7410  140.6350 O   0  0  0  0  0  0  0  0  0  0  0  0
  191.8020  177.1270  141.2860 N   0  0  0  0  0  2  0  0  0  0  0  0
  186.8140  178.2530  137.2330 C   0  0  1  0  0  3  0  0  0  0  0  0
  190.7600  177.4570  138.9820 C   0  0  1  0  0  3  0  0  0  0  0  0
  189.9340  177.3370  142.5350 C   0  0  0  0  0  0  0  0  0  0  0  0
  189.2700  177.7810  136.9600 C   0  0  0  0  0  2  0  0  0  0  0  0
  189.6010  177.4890  141.2110 C   0  0  0  0  0  0  0  0  0  0  0  0
  186.8820  177.8650  138.7180 C   0  0  0  0  0  2  0  0  0  0  0  0
  191.3090  177.1200  142.5510 C   0  0  0  0  0  3  0  0  0  0  0  0
  187.8770  177.5380  136.3850 C   0  0  0  0  0  2  0  0  0  0  0  0
  188.2900  178.0990  139.2520 C   0  0  2  0  0  3  0  0  0  0  0  0
  189.5450  177.8110  144.9530 C   0  0  0  0  0  3  0  0  0  0  0  0
  187.3550  177.5380  145.9480 C   0  0  0  0  0  3  0  0  0  0  0  0
  186.8450  177.1330  144.7130 C   0  0  0  0  0  3  0  0  0  0  0  0
  187.6850  177.0660  143.5970 C   0  0  0  0  0  3  0  0  0  0  0  0
  189.0410  177.4060  143.7080 C   0  0  0  0  0  0  0  0  0  0  0  0
  188.7050  177.8780  146.0690 C   0  0  0  0  0  3  0  0  0  0  0  0
  193.4000  174.5580  137.2110 C   0  0  0  0  0  3  0  0  0  0  0  0
  191.6940  176.4550  138.3680 C   0  0  0  0  0  0  0  0  0  0  0  0
  191.1950  175.2110  137.9680 C   0  0  0  0  0  3  0  0  0  0  0  0
  192.0460  174.2640  137.3900 C   0  0  0  0  0  3  0  0  0  0  0  0
  193.9050  175.8010  137.6060 C   0  0  0  0  0  3  0  0  0  0  0  0
  193.0550  176.7470  138.1840 C   0  0  0  0  0  3  0  0  0  0  0  0
  184.6850  177.4820  137.6160 C   0  0  0  0  0  1  0  0  0  0  0  0
  185.5130  178.1460  136.6940 O   0  0  0  0  0  0  0  0  0  0  0  0
  1  8  1  6  0  0  0
  1  6  1  0  0  0  0
  1 13  1  0  0  0  0
  2  9  2  0  0  0  0
  2  4  1  0  0  0  0
  3  9  1  0  0  0  0
  4 11  1  0  0  0  0
  5 27  1  6  0  0  0
  5 10  1  0  0  0  0
  6 21  1  6  0  0  0
  6  2  1  0  0  0  0
  7 11  2  0  0  0  0
  7 18  1  0  0  0  0
  9  7  1  0  0  0  0
 12  8  1  0  0  0  0
 12  5  1  0  0  0  0
 13 10  1  6  0  0  0
 13  3  1  0  0  0  0
 14 19  1  0  0  0  0
 15 19  2  0  0  0  0
 16 15  1  0  0  0  0
 17 18  1  0  0  0  0
 17 16  2  0  0  0  0
 18 14  2  0  0  0  0
 20 23  2  0  0  0  0
 20 24  1  0  0  0  0
 22 21  2  0  0  0  0
 23 22  1  0  0  0  0
 24 25  2  0  0  0  0
 25 21  1  0  0  0  0
 27 26  1  0  0  0  0
M  END
>  <MODEL>
5

>  <REMARK>
 VINA RESULT:      -9.4      2.595      7.382
  Name = 
  3 active torsions:
  status: ('A' for Active; 'I' for Inactive)
    1  A    between atoms: C_9  and  C_15
    2  A    between atoms: C_13  and  O_22
    3  A    between atoms: C_14  and  C_17
                            x       y       z     vdW  Elec       q    Type
                         _______ _______ _______ _____ _____    ______ ____

>  <TORSDO>
F 3

$$$$
=
 OpenBabel11052413553D

 27 31  0  0  1  0  0  0  0  0999 V2000
  185.8310  178.3230  144.1740 C   0  0  2  0  0  3  0  0  0  0  0  0
  185.9400  178.8840  141.7330 C   0  0  0  0  0  0  0  0  0  0  0  0
  187.8250  177.8160  142.8180 O   0  0  0  0  0  0  0  0  0  0  0  0
  185.5210  179.2200  140.4980 N   0  0  0  0  0  0  0  0  0  0  0  0
  187.4360  177.7880  146.5680 C   0  0  1  0  0  3  0  0  0  0  0  0
  185.2450  179.1890  143.0330 C   0  0  1  0  0  3  0  0  0  0  0  0
  187.5020  178.1490  140.3590 C   0  0  0  0  0  0  0  0  0  0  0  0
  185.4050  178.8580  145.5390 C   0  0  0  0  0  2  0  0  0  0  0  0
  187.1460  178.2540  141.6820 C   0  0  1  0  0  3  0  0  0  0  0  0
  187.9160  177.3180  145.1860 C   0  0  0  0  0  2  0  0  0  0  0  0
  186.4760  178.7640  139.6480 C   0  0  0  0  0  3  0  0  0  0  0  0
  185.9080  177.9360  146.6460 C   0  0  0  0  0  2  0  0  0  0  0  0
  187.3780  178.2480  144.1060 C   0  0  2  0  0  3  0  0  0  0  0  0
  189.9200  177.5580  140.5190 C   0  0  0  0  0  3  0  0  0  0  0  0
  191.0430  176.3770  138.7290 C   0  0  0  0  0  3  0  0  0  0  0  0
  189.8510  176.3500  137.9990 C   0  0  0  0  0  3  0  0  0  0  0  0
  188.6940  176.9280  138.5300 C   0  0  0  0  0  3  0  0  0  0  0  0
  188.7190  177.5360  139.7940 C   0  0  0  0  0  0  0  0  0  0  0  0
  191.0770  176.9800  139.9890 C   0  0  0  0  0  3  0  0  0  0  0  0
  180.9970  178.6290  142.6470 C   0  0  0  0  0  3  0  0  0  0  0  0
  183.7610  179.0000  142.9130 C   0  0  0  0  0  0  0  0  0  0  0  0
  183.2160  178.6280  141.6790 C   0  0  0  0  0  3  0  0  0  0  0  0
  181.8370  178.4420  141.5460 C   0  0  0  0  0  3  0  0  0  0  0  0
  181.5350  178.9990  143.8830 C   0  0  0  0  0  3  0  0  0  0  0  0
  182.9130  179.1850  144.0170 C   0  0  0  0  0  3  0  0  0  0  0  0
  188.3060  177.8790  148.6910 C   0  0  0  0  0  1  0  0  0  0  0  0
  187.9710  177.0230  147.6270 O   0  0  0  0  0  0  0  0  0  0  0  0
  1  8  1  1  0  0  0
  2  6  1  0  0  0  0
  3 13  1  0  0  0  0
  4  2  2  0  0  0  0
  5 12  1  0  0  0  0
  5 27  1  1  0  0  0
  6 21  1  6  0  0  0
  6  1  1  0  0  0  0
  8 12  1  0  0  0  0
  9  7  1  6  0  0  0
  9  2  1  0  0  0  0
  9  3  1  0  0  0  0
 10  5  1  0  0  0  0
 11  7  2  0  0  0  0
 11  4  1  0  0  0  0
 13  1  1  0  0  0  0
 13 10  1  1  0  0  0
 15 19  2  0  0  0  0
 16 17  2  0  0  0  0
 16 15  1  0  0  0  0
 17 18  1  0  0  0  0
 18  7  1  0  0  0  0
 18 14  2  0  0  0  0
 19 14  1  0  0  0  0
 20 24  1  0  0  0  0
 21 25  1  0  0  0  0
 22 21  2  0  0  0  0
 23 22  1  0  0  0  0
 23 20  2  0  0  0  0
 24 25  2  0  0  0  0
 27 26  1  0  0  0  0
M  END
>  <MODEL>
6

>  <REMARK>
 VINA RESULT:      -9.3      1.992      5.120
  Name = 
  3 active torsions:
  status: ('A' for Active; 'I' for Inactive)
    1  A    between atoms: C_9  and  C_15
    2  A    between atoms: C_13  and  O_22
    3  A    between atoms: C_14  and  C_17
                            x       y       z     vdW  Elec       q    Type
                         _______ _______ _______ _____ _____    ______ ____

>  <TORSDO>
F 3

$$$$
=
 OpenBabel11052413553D

 27 31  0  0  1  0  0  0  0  0999 V2000
  186.8600  178.1970  140.3110 C   0  0  2  0  0  3  0  0  0  0  0  0
  189.3130  178.0410  140.8060 C   0  0  0  0  0  0  0  0  0  0  0  0
  187.7050  178.0320  142.6190 O   0  0  0  0  0  0  0  0  0  0  0  0
  190.6300  177.8480  140.5990 N   0  0  0  0  0  0  0  0  0  0  0  0
  184.2500  178.9440  141.4170 C   0  0  1  0  0  3  0  0  0  0  0  0
  188.2910  178.4490  139.7780 C   0  0  1  0  0  3  0  0  0  0  0  0
  190.1490  177.5190  142.7790 C   0  0  0  0  0  0  0  0  0  0  0  0
  185.8240  178.9220  139.4550 C   0  0  0  0  0  2  0  0  0  0  0  0
  188.9960  177.8700  142.1190 C   0  0  1  0  0  3  0  0  0  0  0  0
  185.3180  178.2920  142.3090 C   0  0  0  0  0  2  0  0  0  0  0  0
  191.1480  177.5200  141.8100 C   0  0  0  0  0  3  0  0  0  0  0  0
  184.4160  178.5810  139.9330 C   0  0  0  0  0  2  0  0  0  0  0  0
  186.7080  178.6350  141.7900 C   0  0  2  0  0  3  0  0  0  0  0  0
  189.2690  177.4750  145.1130 C   0  0  0  0  0  3  0  0  0  0  0  0
  190.6230  176.6610  146.9480 C   0  0  0  0  0  3  0  0  0  0  0  0
  191.6710  176.4050  146.0610 C   0  0  0  0  0  3  0  0  0  0  0  0
  191.5190  176.6850  144.7000 C   0  0  0  0  0  3  0  0  0  0  0  0
  190.3170  177.2210  144.2150 C   0  0  0  0  0  0  0  0  0  0  0  0
  189.4220  177.1950  146.4740 C   0  0  0  0  0  3  0  0  0  0  0  0
  188.9270  176.3850  136.0580 C   0  0  0  0  0  3  0  0  0  0  0  0
  188.5200  177.7430  138.4740 C   0  0  0  0  0  0  0  0  0  0  0  0
  188.3200  176.3600  138.4020 C   0  0  0  0  0  3  0  0  0  0  0  0
  188.5230  175.6820  137.1960 C   0  0  0  0  0  3  0  0  0  0  0  0
  189.1270  177.7670  136.1230 C   0  0  0  0  0  3  0  0  0  0  0  0
  188.9240  178.4460  137.3280 C   0  0  0  0  0  3  0  0  0  0  0  0
  182.8980  179.0060  143.2720 C   0  0  0  0  0  1  0  0  0  0  0  0
  182.9360  178.7430  141.8920 O   0  0  0  0  0  0  0  0  0  0  0  0
  1  8  1  6  0  0  0
  1 13  1  0  0  0  0
  4  2  2  0  0  0  0
  4 11  1  0  0  0  0
  5 27  1  1  0  0  0
  5 10  1  0  0  0  0
  6 21  1  6  0  0  0
  6  1  1  0  0  0  0
  6  2  1  0  0  0  0
  7 18  1  0  0  0  0
  8 12  1  0  0  0  0
  9  2  1  6  0  0  0
  9  3  1  0  0  0  0
  9  7  1  0  0  0  0
 11  7  2  0  0  0  0
 12  5  1  0  0  0  0
 13 10  1  1  0  0  0
 13  3  1  0  0  0  0
 14 19  1  0  0  0  0
 16 15  1  0  0  0  0
 17 16  2  0  0  0  0
 18 17  1  0  0  0  0
 18 14  2  0  0  0  0
 19 15  2  0  0  0  0
 20 24  2  0  0  0  0
 20 23  1  0  0  0  0
 22 21  1  0  0  0  0
 23 22  2  0  0  0  0
 24 25  1  0  0  0  0
 25 21  2  0  0  0  0
 27 26  1  0  0  0  0
M  END
>  <MODEL>
7

>  <REMARK>
 VINA RESULT:      -9.2      1.815      6.473
  Name = 
  3 active torsions:
  status: ('A' for Active; 'I' for Inactive)
    1  A    between atoms: C_9  and  C_15
    2  A    between atoms: C_13  and  O_22
    3  A    between atoms: C_14  and  C_17
                            x       y       z     vdW  Elec       q    Type
                         _______ _______ _______ _____ _____    ______ ____

>  <TORSDO>
F 3

$$$$
=
 OpenBabel11052413553D

 27 31  0  0  1  0  0  0  0  0999 V2000
  185.8500  178.3160  139.7800 C   0  0  2  0  0  3  0  0  0  0  0  0
  188.1470  178.2800  140.7830 C   0  0  0  0  0  0  0  0  0  0  0  0
  186.1950  178.2810  142.2180 O   0  0  0  0  0  0  0  0  0  0  0  0
  189.4840  178.1310  140.8660 N   0  0  0  0  0  0  0  0  0  0  0  0
  183.0440  179.0030  140.2780 C   0  0  1  0  0  3  0  0  0  0  0  0
  187.3530  178.6040  139.5460 C   0  0  1  0  0  3  0  0  0  0  0  0
  188.5650  177.8740  142.9110 C   0  0  0  0  0  0  0  0  0  0  0  0
  184.9960  178.9630  138.6910 C   0  0  0  0  0  2  0  0  0  0  0  0
  187.5660  178.1510  142.0080 C   0  0  1  0  0  3  0  0  0  0  0  0
  183.9190  178.4320  141.4040 C   0  0  0  0  0  2  0  0  0  0  0  0
  189.7450  177.8750  142.1730 C   0  0  0  0  0  3  0  0  0  0  0  0
  183.5300  178.5860  138.8810 C   0  0  0  0  0  2  0  0  0  0  0  0
  185.3770  178.8090  141.1710 C   0  0  2  0  0  3  0  0  0  0  0  0
  187.1770  177.7200  144.9780 C   0  0  0  0  0  3  0  0  0  0  0  0
  188.1750  177.2070  147.1230 C   0  0  0  0  0  3  0  0  0  0  0  0
  189.4320  177.1280  146.5190 C   0  0  0  0  0  3  0  0  0  0  0  0
  189.5620  177.3450  145.1440 C   0  0  0  0  0  3  0  0  0  0  0  0
  188.4350  177.6420  144.3630 C   0  0  0  0  0  0  0  0  0  0  0  0
  187.0470  177.5030  146.3530 C   0  0  0  0  0  3  0  0  0  0  0  0
  188.8650  176.4910  136.1170 C   0  0  0  0  0  3  0  0  0  0  0  0
  187.8730  177.8530  138.3550 C   0  0  0  0  0  0  0  0  0  0  0  0
  188.5590  178.5500  137.3550 C   0  0  0  0  0  3  0  0  0  0  0  0
  189.0560  177.8710  136.2380 C   0  0  0  0  0  3  0  0  0  0  0  0
  188.1810  175.7890  137.1140 C   0  0  0  0  0  3  0  0  0  0  0  0
  187.6850  176.4670  138.2300 C   0  0  0  0  0  3  0  0  0  0  0  0
  181.3530  178.9780  141.8310 C   0  0  0  0  0  1  0  0  0  0  0  0
  181.6660  178.7680  140.4770 O   0  0  0  0  0  0  0  0  0  0  0  0
  1  8  1  6  0  0  0
  1 13  1  0  0  0  0
  2  4  2  0  0  0  0
  4 11  1  0  0  0  0
  5 27  1  1  0  0  0
  5 10  1  0  0  0  0
  6 21  1  6  0  0  0
  6  1  1  0  0  0  0
  6  2  1  0  0  0  0
  7 18  1  0  0  0  0
  8 12  1  0  0  0  0
  9  2  1  6  0  0  0
  9  3  1  0  0  0  0
  9  7  1  0  0  0  0
 11  7  2  0  0  0  0
 12  5  1  0  0  0  0
 13 10  1  1  0  0  0
 13  3  1  0  0  0  0
 14 19  1  0  0  0  0
 16 15  1  0  0  0  0
 17 16  2  0  0  0  0
 18 14  2  0  0  0  0
 18 17  1  0  0  0  0
 19 15  2  0  0  0  0
 20 23  2  0  0  0  0
 20 24  1  0  0  0  0
 22 21  2  0  0  0  0
 23 22  1  0  0  0  0
 24 25  2  0  0  0  0
 25 21  1  0  0  0  0
 27 26  1  0  0  0  0
M  END
>  <MODEL>
8

>  <REMARK>
 VINA RESULT:      -9.1      1.985      6.612
  Name = 
  3 active torsions:
  status: ('A' for Active; 'I' for Inactive)
    1  A    between atoms: C_9  and  C_15
    2  A    between atoms: C_13  and  O_22
    3  A    between atoms: C_14  and  C_17
                            x       y       z     vdW  Elec       q    Type
                         _______ _______ _______ _____ _____    ______ ____

>  <TORSDO>
F 3

$$$$
=
 OpenBabel11052413553D

 27 31  0  0  1  0  0  0  0  0999 V2000
  183.3710  178.2460  139.1220 C   0  0  2  0  0  3  0  0  0  0  0  0
  185.6020  178.6050  140.2080 C   0  0  0  0  0  0  0  0  0  0  0  0
  183.5930  178.5200  141.5600 O   0  0  0  0  0  0  0  0  0  0  0  0
  186.9410  178.6350  140.3570 N   0  0  0  0  0  0  0  0  0  0  0  0
  180.4820  178.6280  139.4330 C   0  0  1  0  0  3  0  0  0  0  0  0
  184.8390  178.6910  138.9130 C   0  0  1  0  0  3  0  0  0  0  0  0
  185.9560  178.4890  142.3820 C   0  0  0  0  0  0  0  0  0  0  0  0
  182.5030  178.6590  137.9360 C   0  0  0  0  0  2  0  0  0  0  0  0
  184.9790  178.5390  141.4170 C   0  0  1  0  0  3  0  0  0  0  0  0
  181.3600  178.2960  140.6490 C   0  0  0  0  0  2  0  0  0  0  0  0
  187.1630  178.5570  141.6930 C   0  0  0  0  0  3  0  0  0  0  0  0
  181.0840  178.1250  138.1120 C   0  0  0  0  0  2  0  0  0  0  0  0
  182.7720  178.8240  140.4290 C   0  0  2  0  0  3  0  0  0  0  0  0
  184.6590  178.9820  144.4550 C   0  0  0  0  0  3  0  0  0  0  0  0
  185.4390  178.2480  146.6260 C   0  0  0  0  0  3  0  0  0  0  0  0
  186.5600  177.6680  146.0280 C   0  0  0  0  0  3  0  0  0  0  0  0
  186.7310  177.7460  144.6420 C   0  0  0  0  0  3  0  0  0  0  0  0
  185.7820  178.4020  143.8450 C   0  0  0  0  0  0  0  0  0  0  0  0
  184.4880  178.9040  145.8400 C   0  0  0  0  0  3  0  0  0  0  0  0
  186.7130  176.3510  135.8280 C   0  0  0  0  0  3  0  0  0  0  0  0
  185.5050  177.8860  137.8350 C   0  0  0  0  0  0  0  0  0  0  0  0
  185.0690  176.5790  137.5910 C   0  0  0  0  0  3  0  0  0  0  0  0
  185.6710  175.8130  136.5890 C   0  0  0  0  0  3  0  0  0  0  0  0
  187.1520  177.6570  136.0660 C   0  0  0  0  0  3  0  0  0  0  0  0
  186.5500  178.4230  137.0680 C   0  0  0  0  0  3  0  0  0  0  0  0
  178.9340  177.8500  140.9400 C   0  0  0  0  0  1  0  0  0  0  0  0
  179.1330  178.2470  139.6060 O   0  0  0  0  0  0  0  0  0  0  0  0
  1  8  1  6  0  0  0
  1 13  1  0  0  0  0
  2  4  2  0  0  0  0
  4 11  1  0  0  0  0
  5 27  1  1  0  0  0
  5 10  1  0  0  0  0
  6 21  1  6  0  0  0
  6  1  1  0  0  0  0
  6  2  1  0  0  0  0
  7 18  1  0  0  0  0
  8 12  1  0  0  0  0
  9  2  1  6  0  0  0
  9  3  1  0  0  0  0
  9  7  1  0  0  0  0
 11  7  2  0  0  0  0
 12  5  1  0  0  0  0
 13 10  1  1  0  0  0
 13  3  1  0  0  0  0
 14 19  1  0  0  0  0
 16 15  1  0  0  0  0
 17 16  2  0  0  0  0
 18 14  2  0  0  0  0
 18 17  1  0  0  0  0
 19 15  2  0  0  0  0
 20 24  2  0  0  0  0
 20 23  1  0  0  0  0
 22 21  1  0  0  0  0
 23 22  2  0  0  0  0
 24 25  1  0  0  0  0
 25 21  2  0  0  0  0
 27 26  1  0  0  0  0
M  END
>  <MODEL>
9

>  <REMARK>
 VINA RESULT:      -8.9      3.217      7.456
  Name = 
  3 active torsions:
  status: ('A' for Active; 'I' for Inactive)
    1  A    between atoms: C_9  and  C_15
    2  A    between atoms: C_13  and  O_22
    3  A    between atoms: C_14  and  C_17
                            x       y       z     vdW  Elec       q    Type
                         _______ _______ _______ _____ _____    ______ ____

>  <TORSDO>
F 3

$$$$
