=
 OpenBabel11052413233D

 28 30  0  0  1  0  0  0  0  0999 V2000
  191.6450  178.7690  143.9580 C   0  0  0  0  0  1  0  0  0  0  0  0
  190.8760  177.5670  144.4990 C   0  0  2  0  0  0  0  0  0  0  0  0
  190.0940  176.8040  142.2000 C   0  0  2  0  0  3  0  0  0  0  0  0
  190.9160  176.4390  143.4300 C   0  0  2  0  0  3  0  0  0  0  0  0
  189.5970  175.7340  143.1520 C   0  0  0  0  0  2  0  0  0  0  0  0
  190.6500  176.1970  141.0700 O   0  0  0  0  0  0  0  0  0  0  0  0
  190.4580  177.1170  140.0310 C   0  0  2  0  0  3  0  0  0  0  0  0
  189.1720  178.4190  137.8460 C   0  0  0  0  0  2  0  0  0  0  0  0
  189.1690  177.8710  140.2460 C   0  0  0  0  0  3  0  0  0  0  0  0
  191.0650  175.3800  138.5250 O   0  0  0  0  0  0  0  0  0  0  0  0
  190.4380  176.4160  138.6900 C   0  0  0  0  0  0  0  0  0  0  0  0
  189.6650  177.0030  137.5330 C   0  0  0  0  0  2  0  0  0  0  0  0
  188.5650  178.4830  139.2200 C   0  0  0  0  0  3  0  0  0  0  0  0
  189.4110  177.9720  144.7340 C   0  0  0  0  0  2  0  0  0  0  0  0
  189.1610  178.3450  147.1150 O   0  0  0  0  0  1  0  0  0  0  0  0
  188.7960  177.5020  146.0630 C   0  0  1  0  0  3  0  0  0  0  0  0
  187.2670  177.3890  145.9860 C   0  0  1  0  0  3  0  0  0  0  0  0
  186.6220  177.8240  147.3000 C   0  0  0  0  0  1  0  0  0  0  0  0
  185.9890  178.0650  142.4310 C   0  0  0  0  0  3  0  0  0  0  0  0
  186.6860  178.1610  144.7920 C   0  0  1  0  0  3  0  0  0  0  0  0
  184.2550  178.5600  143.9870 C   0  0  1  0  0  3  0  0  0  0  0  0
  186.6850  177.3060  143.5180 C   0  0  0  0  0  2  0  0  0  0  0  0
  185.2850  178.7330  145.1170 C   0  0  0  0  0  2  0  0  0  0  0  0
  183.1630  179.5990  144.1190 C   0  0  0  0  0  1  0  0  0  0  0  0
  184.8700  178.6540  142.6790 N   0  0  0  0  0  0  0  0  0  0  0  0
  191.4310  177.1790  145.8900 C   0  0  0  0  0  2  0  0  0  0  0  0
  192.0340  175.7780  145.9850 C   0  0  0  0  0  2  0  0  0  0  0  0
  192.2000  175.4120  147.3220 O   0  0  0  0  0  1  0  0  0  0  0  0
  2  1  1  6  0  0  0
  2 14  1  0  0  0  0
  2 26  1  0  0  0  0
  3  6  1  6  0  0  0
  3  5  1  0  0  0  0
  3  4  1  0  0  0  0
  4  2  1  1  0  0  0
  5  4  1  0  0  0  0
  7  9  1  0  0  0  0
  7  6  1  1  0  0  0
  8 13  1  0  0  0  0
 10 11  2  0  0  0  0
 11  7  1  0  0  0  0
 12  8  1  0  0  0  0
 12 11  1  0  0  0  0
 13  9  2  0  0  0  0
 14 16  1  0  0  0  0
 16 15  1  1  0  0  0
 17 16  1  0  0  0  0
 17 18  1  1  0  0  0
 19 25  2  0  0  0  0
 19 22  1  0  0  0  0
 20 23  1  0  0  0  0
 20 17  1  1  0  0  0
 21 24  1  6  0  0  0
 21 23  1  0  0  0  0
 22 20  1  0  0  0  0
 25 21  1  0  0  0  0
 26 27  1  0  0  0  0
 27 28  1  0  0  0  0
M  END
>  <MODEL>
1

>  <REMARK>
 VINA RESULT:      -8.2      0.000      0.000
  Name = 
  9 active torsions:
  status: ('A' for Active; 'I' for Inactive)
    1  A    between atoms: C_1  and  O_2
    2  A    between atoms: O_2  and  C_3
    3  A    between atoms: C_9  and  C_14
    4  A    between atoms: C_10  and  C_25
    5  A    between atoms: C_10  and  C_27
    6  A    between atoms: C_14  and  C_25
    7  A    between atoms: C_16  and  C_21
    8  A    between atoms: C_17  and  C_27
    9  A    between atoms: C_21  and  C_27
                            x       y       z     vdW  Elec       q    Type
                         _______ _______ _______ _____ _____    ______ ____

>  <TORSDO>
F 9

$$$$
=
 OpenBabel11052413233D

 28 30  0  0  1  0  0  0  0  0999 V2000
  189.1590  175.5840  142.8580 C   0  0  0  0  0  1  0  0  0  0  0  0
  190.0820  176.6160  143.5000 C   0  0  2  0  0  0  0  0  0  0  0  0
  188.2920  177.9010  144.7750 C   0  0  2  0  0  3  0  0  0  0  0  0
  189.5060  176.9880  144.8950 C   0  0  2  0  0  3  0  0  0  0  0  0
  189.6060  178.4530  145.2910 C   0  0  0  0  0  2  0  0  0  0  0  0
  187.4290  177.6750  145.8510 O   0  0  0  0  0  0  0  0  0  0  0  0
  186.1470  177.6490  145.2910 C   0  0  2  0  0  3  0  0  0  0  0  0
  183.8870  178.5370  143.7960 C   0  0  0  0  0  2  0  0  0  0  0  0
  186.2380  177.8090  143.7930 C   0  0  0  0  0  3  0  0  0  0  0  0
  185.4760  179.1360  147.0200 O   0  0  0  0  0  0  0  0  0  0  0  0
  185.2790  178.7410  145.8810 C   0  0  0  0  0  0  0  0  0  0  0  0
  184.1450  179.3320  145.0790 C   0  0  0  0  0  2  0  0  0  0  0  0
  185.1780  178.2250  143.0900 C   0  0  0  0  0  3  0  0  0  0  0  0
  190.1090  177.8810  142.6240 C   0  0  0  0  0  2  0  0  0  0  0  0
  188.2620  178.7640  141.3290 O   0  0  0  0  0  1  0  0  0  0  0  0
  189.2820  177.8110  141.3300 C   0  0  1  0  0  3  0  0  0  0  0  0
  190.1530  177.9710  140.0770 C   0  0  1  0  0  3  0  0  0  0  0  0
  191.5020  177.2760  140.2580 C   0  0  0  0  0  1  0  0  0  0  0  0
  188.5420  178.1100  136.5960 C   0  0  0  0  0  3  0  0  0  0  0  0
  189.4400  177.4890  138.8050 C   0  0  1  0  0  3  0  0  0  0  0  0
  190.3220  176.5270  136.5660 C   0  0  1  0  0  3  0  0  0  0  0  0
  189.1130  178.6590  137.8670 C   0  0  0  0  0  2  0  0  0  0  0  0
  190.2440  176.3740  138.0950 C   0  0  0  0  0  2  0  0  0  0  0  0
  190.5830  175.1830  135.9230 C   0  0  0  0  0  1  0  0  0  0  0  0
  189.1120  177.1080  136.0210 N   0  0  0  0  0  0  0  0  0  0  0  0
  191.5340  176.0820  143.5060 C   0  0  0  0  0  2  0  0  0  0  0  0
  191.9910  175.4470  144.8180 C   0  0  0  0  0  2  0  0  0  0  0  0
  192.4640  174.1530  144.5920 O   0  0  0  0  0  1  0  0  0  0  0  0
  2  1  1  6  0  0  0
  2 26  1  0  0  0  0
  3  4  1  0  0  0  0
  3  5  1  0  0  0  0
  3  6  1  1  0  0  0
  4  2  1  6  0  0  0
  4  5  1  0  0  0  0
  7  6  1  1  0  0  0
  7 11  1  0  0  0  0
  8 12  1  0  0  0  0
  9  7  1  0  0  0  0
 11 10  2  0  0  0  0
 12 11  1  0  0  0  0
 13  9  2  0  0  0  0
 13  8  1  0  0  0  0
 14  2  1  0  0  0  0
 16 15  1  1  0  0  0
 16 14  1  0  0  0  0
 17 18  1  1  0  0  0
 17 16  1  0  0  0  0
 19 22  1  0  0  0  0
 20 17  1  1  0  0  0
 21 24  1  6  0  0  0
 21 23  1  0  0  0  0
 22 20  1  0  0  0  0
 23 20  1  0  0  0  0
 25 21  1  0  0  0  0
 25 19  2  0  0  0  0
 26 27  1  0  0  0  0
 28 27  1  0  0  0  0
M  END
>  <MODEL>
2

>  <REMARK>
 VINA RESULT:      -7.6      2.336      6.648
  Name = 
  9 active torsions:
  status: ('A' for Active; 'I' for Inactive)
    1  A    between atoms: C_1  and  O_2
    2  A    between atoms: O_2  and  C_3
    3  A    between atoms: C_9  and  C_14
    4  A    between atoms: C_10  and  C_25
    5  A    between atoms: C_10  and  C_27
    6  A    between atoms: C_14  and  C_25
    7  A    between atoms: C_16  and  C_21
    8  A    between atoms: C_17  and  C_27
    9  A    between atoms: C_21  and  C_27
                            x       y       z     vdW  Elec       q    Type
                         _______ _______ _______ _____ _____    ______ ____

>  <TORSDO>
F 9

$$$$
=
 OpenBabel11052413233D

 28 30  0  0  1  0  0  0  0  0999 V2000
  191.3060  177.6910  139.7040 C   0  0  0  0  0  1  0  0  0  0  0  0
  189.8840  177.2150  139.4220 C   0  0  2  0  0  0  0  0  0  0  0  0
  187.9330  177.9620  137.9670 C   0  0  2  0  0  3  0  0  0  0  0  0
  189.0620  178.4190  138.8830 C   0  0  2  0  0  3  0  0  0  0  0  0
  189.1420  178.6660  137.3840 C   0  0  0  0  0  2  0  0  0  0  0  0
  186.8680  178.8630  138.0530 O   0  0  0  0  0  0  0  0  0  0  0  0
  185.7280  178.0660  138.2140 C   0  0  2  0  0  3  0  0  0  0  0  0
  183.0930  177.0830  137.7520 C   0  0  0  0  0  2  0  0  0  0  0  0
  185.3840  177.3940  136.9080 C   0  0  0  0  0  3  0  0  0  0  0  0
  184.7490  179.8900  139.3830 O   0  0  0  0  0  0  0  0  0  0  0  0
  184.5580  178.8940  138.7010 C   0  0  0  0  0  0  0  0  0  0  0  0
  183.1430  178.4820  138.3750 C   0  0  0  0  0  2  0  0  0  0  0  0
  184.1460  176.9320  136.6910 C   0  0  0  0  0  3  0  0  0  0  0  0
  189.2460  176.7320  140.7370 C   0  0  0  0  0  2  0  0  0  0  0  0
  188.6990  178.7290  141.9940 O   0  0  0  0  0  1  0  0  0  0  0  0
  189.5260  177.6050  141.9720 C   0  0  1  0  0  3  0  0  0  0  0  0
  189.3800  176.8180  143.2810 C   0  0  1  0  0  3  0  0  0  0  0  0
  190.7480  176.4120  143.8280 C   0  0  0  0  0  1  0  0  0  0  0  0
  186.4530  177.6930  145.6040 C   0  0  0  0  0  3  0  0  0  0  0  0
  188.5600  177.5820  144.3320 C   0  0  1  0  0  3  0  0  0  0  0  0
  188.4210  177.3960  146.9130 C   0  0  1  0  0  3  0  0  0  0  0  0
  187.1510  176.9920  144.4790 C   0  0  0  0  0  2  0  0  0  0  0  0
  189.3080  177.6620  145.6840 C   0  0  0  0  0  2  0  0  0  0  0  0
  189.0300  178.0390  148.1390 C   0  0  0  0  0  1  0  0  0  0  0  0
  187.0710  177.8850  146.7180 N   0  0  0  0  0  0  0  0  0  0  0  0
  189.9250  175.9760  138.4980 C   0  0  0  0  0  2  0  0  0  0  0  0
  191.3170  175.5510  138.0350 C   0  0  0  0  0  2  0  0  0  0  0  0
  191.3320  174.1890  137.7310 O   0  0  0  0  0  1  0  0  0  0  0  0
  2  1  1  1  0  0  0
  2 14  1  0  0  0  0
  3  6  1  1  0  0  0
  3  4  1  0  0  0  0
  4  2  1  6  0  0  0
  5  3  1  0  0  0  0
  5  4  1  0  0  0  0
  7  6  1  6  0  0  0
  7 11  1  0  0  0  0
  8 12  1  0  0  0  0
  9  7  1  0  0  0  0
 11 10  2  0  0  0  0
 12 11  1  0  0  0  0
 13  9  2  0  0  0  0
 13  8  1  0  0  0  0
 14 16  1  0  0  0  0
 16 15  1  1  0  0  0
 16 17  1  0  0  0  0
 17 18  1  1  0  0  0
 19 25  2  0  0  0  0
 20 17  1  6  0  0  0
 20 22  1  0  0  0  0
 20 23  1  0  0  0  0
 21 24  1  1  0  0  0
 22 19  1  0  0  0  0
 23 21  1  0  0  0  0
 25 21  1  0  0  0  0
 26  2  1  0  0  0  0
 27 26  1  0  0  0  0
 28 27  1  0  0  0  0
M  END
>  <MODEL>
3

>  <REMARK>
 VINA RESULT:      -7.6      3.061      5.649
  Name = 
  9 active torsions:
  status: ('A' for Active; 'I' for Inactive)
    1  A    between atoms: C_1  and  O_2
    2  A    between atoms: O_2  and  C_3
    3  A    between atoms: C_9  and  C_14
    4  A    between atoms: C_10  and  C_25
    5  A    between atoms: C_10  and  C_27
    6  A    between atoms: C_14  and  C_25
    7  A    between atoms: C_16  and  C_21
    8  A    between atoms: C_17  and  C_27
    9  A    between atoms: C_21  and  C_27
                            x       y       z     vdW  Elec       q    Type
                         _______ _______ _______ _____ _____    ______ ____

>  <TORSDO>
F 9

$$$$
=
 OpenBabel11052413233D

 28 30  0  0  1  0  0  0  0  0999 V2000
  191.4540  176.1110  143.6310 C   0  0  0  0  0  1  0  0  0  0  0  0
  190.3820  176.8150  142.8050 C   0  0  2  0  0  0  0  0  0  0  0  0
  188.0330  177.5540  143.4480 C   0  0  2  0  0  3  0  0  0  0  0  0
  188.9880  176.3730  143.3320 C   0  0  2  0  0  3  0  0  0  0  0  0
  188.5910  176.9050  144.7000 C   0  0  0  0  0  2  0  0  0  0  0  0
  186.7210  177.1160  143.2450 O   0  0  0  0  0  0  0  0  0  0  0  0
  185.9150  178.2080  143.5870 C   0  0  2  0  0  3  0  0  0  0  0  0
  183.6460  179.6230  144.5750 C   0  0  0  0  0  2  0  0  0  0  0  0
  185.5490  178.1370  145.0490 C   0  0  0  0  0  3  0  0  0  0  0  0
  184.6750  177.7800  141.6040 O   0  0  0  0  0  0  0  0  0  0  0  0
  184.6640  178.2410  142.7360 C   0  0  0  0  0  0  0  0  0  0  0  0
  183.3970  178.8700  143.2640 C   0  0  0  0  0  2  0  0  0  0  0  0
  184.4840  178.8010  145.5140 C   0  0  0  0  0  3  0  0  0  0  0  0
  190.5140  176.3800  141.3350 C   0  0  0  0  0  2  0  0  0  0  0  0
  192.5440  177.3880  140.4800 O   0  0  0  0  0  1  0  0  0  0  0  0
  191.1510  177.4130  140.3900 C   0  0  1  0  0  3  0  0  0  0  0  0
  190.7150  177.2100  138.9330 C   0  0  1  0  0  3  0  0  0  0  0  0
  191.3130  175.9270  138.3580 C   0  0  0  0  0  1  0  0  0  0  0  0
  187.0870  178.3930  139.3420 C   0  0  0  0  0  3  0  0  0  0  0  0
  189.1870  177.2390  138.7720 C   0  0  1  0  0  3  0  0  0  0  0  0
  187.6360  178.3580  137.0240 C   0  0  1  0  0  3  0  0  0  0  0  0
  188.5520  178.3310  139.6430 C   0  0  0  0  0  2  0  0  0  0  0  0
  188.7780  177.3600  137.2850 C   0  0  0  0  0  2  0  0  0  0  0  0
  186.9260  178.0070  135.7350 C   0  0  0  0  0  1  0  0  0  0  0  0
  186.6860  178.3850  138.1180 N   0  0  0  0  0  0  0  0  0  0  0  0
  190.6380  178.3400  142.8130 C   0  0  0  0  0  2  0  0  0  0  0  0
  191.5400  178.8450  143.9380 C   0  0  0  0  0  2  0  0  0  0  0  0
  191.1630  180.1330  144.3210 O   0  0  0  0  0  1  0  0  0  0  0  0
  2 26  1  0  0  0  0
  2  1  1  1  0  0  0
  3  6  1  1  0  0  0
  3  5  1  0  0  0  0
  4  2  1  6  0  0  0
  4  3  1  0  0  0  0
  4  5  1  0  0  0  0
  7  6  1  6  0  0  0
  7  9  1  0  0  0  0
  8 13  1  0  0  0  0
  9 13  2  0  0  0  0
 10 11  2  0  0  0  0
 11 12  1  0  0  0  0
 11  7  1  0  0  0  0
 12  8  1  0  0  0  0
 14  2  1  0  0  0  0
 16 15  1  6  0  0  0
 16 14  1  0  0  0  0
 17 18  1  1  0  0  0
 17 16  1  0  0  0  0
 19 22  1  0  0  0  0
 20 17  1  6  0  0  0
 20 22  1  0  0  0  0
 21 24  1  6  0  0  0
 21 23  1  0  0  0  0
 21 25  1  0  0  0  0
 23 20  1  0  0  0  0
 25 19  2  0  0  0  0
 26 27  1  0  0  0  0
 27 28  1  0  0  0  0
M  END
>  <MODEL>
4

>  <REMARK>
 VINA RESULT:      -7.6      2.234      6.241
  Name = 
  9 active torsions:
  status: ('A' for Active; 'I' for Inactive)
    1  A    between atoms: C_1  and  O_2
    2  A    between atoms: O_2  and  C_3
    3  A    between atoms: C_9  and  C_14
    4  A    between atoms: C_10  and  C_25
    5  A    between atoms: C_10  and  C_27
    6  A    between atoms: C_14  and  C_25
    7  A    between atoms: C_16  and  C_21
    8  A    between atoms: C_17  and  C_27
    9  A    between atoms: C_21  and  C_27
                            x       y       z     vdW  Elec       q    Type
                         _______ _______ _______ _____ _____    ______ ____

>  <TORSDO>
F 9

$$$$
=
 OpenBabel11052413233D

 28 30  0  0  1  0  0  0  0  0999 V2000
  185.7070  179.8090  142.5730 C   0  0  0  0  0  1  0  0  0  0  0  0
  185.3020  178.3400  142.6490 C   0  0  2  0  0  0  0  0  0  0  0  0
  187.3860  177.8790  144.0370 C   0  0  2  0  0  3  0  0  0  0  0  0
  186.5910  177.4840  142.7980 C   0  0  2  0  0  3  0  0  0  0  0  0
  187.9090  178.2300  142.6580 C   0  0  0  0  0  2  0  0  0  0  0  0
  188.0750  176.7650  144.5240 O   0  0  0  0  0  0  0  0  0  0  0  0
  187.9780  176.8570  145.9180 C   0  0  2  0  0  3  0  0  0  0  0  0
  187.9670  178.0620  148.5010 C   0  0  0  0  0  2  0  0  0  0  0  0
  186.9030  177.8470  146.2920 C   0  0  0  0  0  3  0  0  0  0  0  0
  190.3520  176.9770  145.9690 O   0  0  0  0  0  0  0  0  0  0  0  0
  189.3030  177.2700  146.5230 C   0  0  0  0  0  0  0  0  0  0  0  0
  189.3440  178.0220  147.8310 C   0  0  0  0  0  2  0  0  0  0  0  0
  186.8970  178.4130  147.5050 C   0  0  0  0  0  3  0  0  0  0  0  0
  184.5960  177.9450  141.3400 C   0  0  0  0  0  2  0  0  0  0  0  0
  185.0800  179.0740  139.2520 O   0  0  0  0  0  1  0  0  0  0  0  0
  184.2660  179.1050  140.3860 C   0  0  1  0  0  3  0  0  0  0  0  0
  182.7880  179.1120  139.9730 C   0  0  1  0  0  3  0  0  0  0  0  0
  182.6230  178.6300  138.5330 C   0  0  0  0  0  1  0  0  0  0  0  0
  180.1260  178.3780  142.6380 C   0  0  0  0  0  3  0  0  0  0  0  0
  181.9090  178.3040  140.9400 C   0  0  1  0  0  3  0  0  0  0  0  0
  179.6010  177.1590  140.6600 C   0  0  1  0  0  3  0  0  0  0  0  0
  181.0490  179.2240  141.8170 C   0  0  0  0  0  2  0  0  0  0  0  0
  181.0630  177.2500  140.1870 C   0  0  0  0  0  2  0  0  0  0  0  0
  179.0340  175.7960  140.3300 C   0  0  0  0  0  1  0  0  0  0  0  0
  179.4790  177.4140  142.0810 N   0  0  0  0  0  0  0  0  0  0  0  0
  184.2500  178.1480  143.7660 C   0  0  0  0  0  2  0  0  0  0  0  0
  183.8430  179.4200  144.5070 C   0  0  0  0  0  2  0  0  0  0  0  0
  183.6550  179.1530  145.8630 O   0  0  0  0  0  1  0  0  0  0  0  0
  2  1  1  6  0  0  0
  2 26  1  0  0  0  0
  3  6  1  6  0  0  0
  4  2  1  1  0  0  0
  4  3  1  0  0  0  0
  5  4  1  0  0  0  0
  5  3  1  0  0  0  0
  7  6  1  6  0  0  0
  7  9  1  0  0  0  0
  7 11  1  0  0  0  0
  9 13  2  0  0  0  0
 10 11  2  0  0  0  0
 11 12  1  0  0  0  0
 12  8  1  0  0  0  0
 13  8  1  0  0  0  0
 14  2  1  0  0  0  0
 16 15  1  6  0  0  0
 16 14  1  0  0  0  0
 17 18  1  6  0  0  0
 17 16  1  0  0  0  0
 20 17  1  6  0  0  0
 20 22  1  0  0  0  0
 21 24  1  1  0  0  0
 21 25  1  0  0  0  0
 22 19  1  0  0  0  0
 23 21  1  0  0  0  0
 23 20  1  0  0  0  0
 25 19  2  0  0  0  0
 26 27  1  0  0  0  0
 27 28  1  0  0  0  0
M  END
>  <MODEL>
5

>  <REMARK>
 VINA RESULT:      -7.5      3.450      7.193
  Name = 
  9 active torsions:
  status: ('A' for Active; 'I' for Inactive)
    1  A    between atoms: C_1  and  O_2
    2  A    between atoms: O_2  and  C_3
    3  A    between atoms: C_9  and  C_14
    4  A    between atoms: C_10  and  C_25
    5  A    between atoms: C_10  and  C_27
    6  A    between atoms: C_14  and  C_25
    7  A    between atoms: C_16  and  C_21
    8  A    between atoms: C_17  and  C_27
    9  A    between atoms: C_21  and  C_27
                            x       y       z     vdW  Elec       q    Type
                         _______ _______ _______ _____ _____    ______ ____

>  <TORSDO>
F 9

$$$$
=
 OpenBabel11052413233D

 28 30  0  0  1  0  0  0  0  0999 V2000
  189.4420  176.4950  141.1120 C   0  0  0  0  0  1  0  0  0  0  0  0
  188.8000  177.8790  141.1000 C   0  0  2  0  0  0  0  0  0  0  0  0
  188.4530  178.0630  138.5850 C   0  0  2  0  0  3  0  0  0  0  0  0
  189.2170  178.6020  139.7890 C   0  0  2  0  0  3  0  0  0  0  0  0
  189.9260  177.7460  138.7500 C   0  0  0  0  0  2  0  0  0  0  0  0
  188.3000  179.0780  137.6360 O   0  0  0  0  0  0  0  0  0  0  0  0
  187.2560  178.6490  136.8080 C   0  0  2  0  0  3  0  0  0  0  0  0
  185.4140  176.8560  135.5750 C   0  0  0  0  0  2  0  0  0  0  0  0
  186.2010  177.9540  137.6330 C   0  0  0  0  0  3  0  0  0  0  0  0
  188.9160  177.8320  135.3150 O   0  0  0  0  0  0  0  0  0  0  0  0
  187.7710  177.7210  135.7290 C   0  0  0  0  0  0  0  0  0  0  0  0
  186.8680  176.6690  135.1310 C   0  0  0  0  0  2  0  0  0  0  0  0
  185.3350  177.1120  137.0550 C   0  0  0  0  0  3  0  0  0  0  0  0
  189.3280  178.6880  142.2980 C   0  0  0  0  0  2  0  0  0  0  0  0
  191.3590  179.0140  143.5770 O   0  0  0  0  0  1  0  0  0  0  0  0
  190.4890  178.0450  143.0750 C   0  0  1  0  0  3  0  0  0  0  0  0
  189.9940  177.1410  144.2120 C   0  0  1  0  0  3  0  0  0  0  0  0
  191.1530  176.7090  145.1080 C   0  0  0  0  0  1  0  0  0  0  0  0
  186.4980  177.7000  145.6960 C   0  0  0  0  0  3  0  0  0  0  0  0
  188.8680  177.7950  145.0280 C   0  0  1  0  0  3  0  0  0  0  0  0
  188.0690  177.4740  147.4720 C   0  0  1  0  0  3  0  0  0  0  0  0
  187.5210  177.1040  144.7780 C   0  0  0  0  0  2  0  0  0  0  0  0
  189.2250  177.8600  146.5320 C   0  0  0  0  0  2  0  0  0  0  0  0
  188.2800  178.0960  148.8350 C   0  0  0  0  0  1  0  0  0  0  0  0
  186.7840  177.8780  146.9390 N   0  0  0  0  0  0  0  0  0  0  0  0
  187.2750  177.7460  141.3250 C   0  0  0  0  0  2  0  0  0  0  0  0
  186.5610  179.0310  141.7410 C   0  0  0  0  0  2  0  0  0  0  0  0
  185.6530  179.4220  140.7560 O   0  0  0  0  0  1  0  0  0  0  0  0
  2  1  1  1  0  0  0
  2 26  1  0  0  0  0
  2 14  1  0  0  0  0
  3  6  1  6  0  0  0
  3  5  1  0  0  0  0
  3  4  1  0  0  0  0
  4  2  1  1  0  0  0
  5  4  1  0  0  0  0
  7  9  1  0  0  0  0
  7  6  1  1  0  0  0
  8 13  1  0  0  0  0
 10 11  2  0  0  0  0
 11  7  1  0  0  0  0
 12  8  1  0  0  0  0
 12 11  1  0  0  0  0
 13  9  2  0  0  0  0
 14 16  1  0  0  0  0
 16 15  1  1  0  0  0
 16 17  1  0  0  0  0
 17 18  1  1  0  0  0
 19 25  2  0  0  0  0
 20 17  1  6  0  0  0
 20 23  1  0  0  0  0
 21 24  1  1  0  0  0
 22 20  1  0  0  0  0
 22 19  1  0  0  0  0
 23 21  1  0  0  0  0
 25 21  1  0  0  0  0
 26 27  1  0  0  0  0
 28 27  1  0  0  0  0
M  END
>  <MODEL>
6

>  <REMARK>
 VINA RESULT:      -7.5      2.790      4.859
  Name = 
  9 active torsions:
  status: ('A' for Active; 'I' for Inactive)
    1  A    between atoms: C_1  and  O_2
    2  A    between atoms: O_2  and  C_3
    3  A    between atoms: C_9  and  C_14
    4  A    between atoms: C_10  and  C_25
    5  A    between atoms: C_10  and  C_27
    6  A    between atoms: C_14  and  C_25
    7  A    between atoms: C_16  and  C_21
    8  A    between atoms: C_17  and  C_27
    9  A    between atoms: C_21  and  C_27
                            x       y       z     vdW  Elec       q    Type
                         _______ _______ _______ _____ _____    ______ ____

>  <TORSDO>
F 9

$$$$
=
 OpenBabel11052413233D

 28 30  0  0  1  0  0  0  0  0999 V2000
  191.1400  177.7250  141.2280 C   0  0  0  0  0  1  0  0  0  0  0  0
  189.6710  177.3630  141.0220 C   0  0  2  0  0  0  0  0  0  0  0  0
  189.4740  177.1630  143.5510 C   0  0  2  0  0  3  0  0  0  0  0  0
  189.2120  176.4790  142.2150 C   0  0  2  0  0  3  0  0  0  0  0  0
  190.3130  175.9720  143.1340 C   0  0  0  0  0  2  0  0  0  0  0  0
  188.5150  176.7520  144.4820 O   0  0  0  0  0  0  0  0  0  0  0  0
  188.7300  177.5570  145.6070 C   0  0  2  0  0  3  0  0  0  0  0  0
  188.9920  178.2530  148.3590 C   0  0  0  0  0  2  0  0  0  0  0  0
  189.8610  176.9930  146.4320 C   0  0  0  0  0  3  0  0  0  0  0  0
  186.3730  177.5680  145.9190 O   0  0  0  0  0  0  0  0  0  0  0  0
  187.4730  177.6590  146.4440 C   0  0  0  0  0  0  0  0  0  0  0  0
  187.5630  177.9020  147.9310 C   0  0  0  0  0  2  0  0  0  0  0  0
  189.9850  177.3200  147.7240 C   0  0  0  0  0  3  0  0  0  0  0  0
  189.5330  176.5490  139.7230 C   0  0  0  0  0  2  0  0  0  0  0  0
  191.3160  175.2520  138.7210 O   0  0  0  0  0  1  0  0  0  0  0  0
  190.7710  176.5340  138.8120 C   0  0  1  0  0  3  0  0  0  0  0  0
  190.4640  177.0760  137.4090 C   0  0  1  0  0  3  0  0  0  0  0  0
  191.0400  176.1590  136.3320 C   0  0  0  0  0  1  0  0  0  0  0  0
  187.2240  178.9220  136.5000 C   0  0  0  0  0  3  0  0  0  0  0  0
  188.9630  177.3200  137.1940 C   0  0  1  0  0  3  0  0  0  0  0  0
  187.4120  176.9710  135.1480 C   0  0  1  0  0  3  0  0  0  0  0  0
  188.6800  178.7820  136.8230 C   0  0  0  0  0  2  0  0  0  0  0  0
  188.3710  176.3280  136.1650 C   0  0  0  0  0  2  0  0  0  0  0  0
  186.4690  175.9260  134.5940 C   0  0  0  0  0  1  0  0  0  0  0  0
  186.6550  178.0570  135.7340 N   0  0  0  0  0  0  0  0  0  0  0  0
  188.8450  178.6510  140.7980 C   0  0  0  0  0  2  0  0  0  0  0  0
  187.3540  178.5350  141.1090 C   0  0  0  0  0  2  0  0  0  0  0  0
  186.6050  178.6280  139.9360 O   0  0  0  0  0  1  0  0  0  0  0  0
  2  1  1  1  0  0  0
  3  6  1  1  0  0  0
  4  2  1  6  0  0  0
  4  5  1  0  0  0  0
  4  3  1  0  0  0  0
  5  3  1  0  0  0  0
  7  6  1  6  0  0  0
  7  9  1  0  0  0  0
  7 11  1  0  0  0  0
  9 13  2  0  0  0  0
 10 11  2  0  0  0  0
 11 12  1  0  0  0  0
 12  8  1  0  0  0  0
 13  8  1  0  0  0  0
 14  2  1  0  0  0  0
 16 15  1  6  0  0  0
 16 14  1  0  0  0  0
 17 18  1  6  0  0  0
 17 16  1  0  0  0  0
 19 22  1  0  0  0  0
 20 17  1  6  0  0  0
 21 24  1  1  0  0  0
 21 25  1  0  0  0  0
 21 23  1  0  0  0  0
 22 20  1  0  0  0  0
 23 20  1  0  0  0  0
 25 19  2  0  0  0  0
 26  2  1  0  0  0  0
 26 27  1  0  0  0  0
 28 27  1  0  0  0  0
M  END
>  <MODEL>
7

>  <REMARK>
 VINA RESULT:      -7.4      2.618      7.692
  Name = 
  9 active torsions:
  status: ('A' for Active; 'I' for Inactive)
    1  A    between atoms: C_1  and  O_2
    2  A    between atoms: O_2  and  C_3
    3  A    between atoms: C_9  and  C_14
    4  A    between atoms: C_10  and  C_25
    5  A    between atoms: C_10  and  C_27
    6  A    between atoms: C_14  and  C_25
    7  A    between atoms: C_16  and  C_21
    8  A    between atoms: C_17  and  C_27
    9  A    between atoms: C_21  and  C_27
                            x       y       z     vdW  Elec       q    Type
                         _______ _______ _______ _____ _____    ______ ____

>  <TORSDO>
F 9

$$$$
=
 OpenBabel11052413233D

 28 30  0  0  1  0  0  0  0  0999 V2000
  190.4100  178.5860  142.6280 C   0  0  0  0  0  1  0  0  0  0  0  0
  190.1440  177.3390  141.7880 C   0  0  2  0  0  0  0  0  0  0  0  0
  189.6500  177.4620  139.2940 C   0  0  2  0  0  3  0  0  0  0  0  0
  190.7270  177.5730  140.3670 C   0  0  2  0  0  3  0  0  0  0  0  0
  190.7000  176.3770  139.4280 C   0  0  0  0  0  2  0  0  0  0  0  0
  189.9750  178.2930  138.2180 O   0  0  0  0  0  0  0  0  0  0  0  0
  188.8070  178.3690  137.4500 C   0  0  2  0  0  3  0  0  0  0  0  0
  186.3020  177.5720  136.3470 C   0  0  0  0  0  2  0  0  0  0  0  0
  187.5980  178.2120  138.3390 C   0  0  0  0  0  3  0  0  0  0  0  0
  189.8560  176.9010  135.9010 O   0  0  0  0  0  0  0  0  0  0  0  0
  188.8030  177.3080  136.3700 C   0  0  0  0  0  0  0  0  0  0  0  0
  187.4990  176.7620  135.8400 C   0  0  0  0  0  2  0  0  0  0  0  0
  186.4210  177.8380  137.8220 C   0  0  0  0  0  3  0  0  0  0  0  0
  188.6240  177.1290  141.6700 C   0  0  0  0  0  2  0  0  0  0  0  0
  186.8600  178.7890  141.6310 O   0  0  0  0  0  1  0  0  0  0  0  0
  187.7520  178.1140  142.4660 C   0  0  1  0  0  3  0  0  0  0  0  0
  186.9880  177.4220  143.6030 C   0  0  1  0  0  3  0  0  0  0  0  0
  187.5080  176.0030  143.8240 C   0  0  0  0  0  1  0  0  0  0  0  0
  185.8020  178.8620  146.9570 C   0  0  0  0  0  3  0  0  0  0  0  0
  187.0130  178.2380  144.9040 C   0  0  1  0  0  3  0  0  0  0  0  0
  187.8470  177.6880  147.2950 C   0  0  1  0  0  3  0  0  0  0  0  0
  185.6700  178.1590  145.6410 C   0  0  0  0  0  2  0  0  0  0  0  0
  188.2030  177.8290  145.8040 C   0  0  0  0  0  2  0  0  0  0  0  0
  189.0880  177.8680  148.1420 C   0  0  0  0  0  1  0  0  0  0  0  0
  186.8330  178.6400  147.6980 N   0  0  0  0  0  0  0  0  0  0  0  0
  190.6820  176.0910  142.5260 C   0  0  0  0  0  2  0  0  0  0  0  0
  191.3330  176.3620  143.8810 C   0  0  0  0  0  2  0  0  0  0  0  0
  192.0580  175.2470  144.3020 O   0  0  0  0  0  1  0  0  0  0  0  0
  2 26  1  0  0  0  0
  2  1  1  1  0  0  0
  3  6  1  6  0  0  0
  3  5  1  0  0  0  0
  3  4  1  0  0  0  0
  4  2  1  1  0  0  0
  5  4  1  0  0  0  0
  7  6  1  1  0  0  0
  7  9  1  0  0  0  0
  8 13  1  0  0  0  0
 10 11  2  0  0  0  0
 11  7  1  0  0  0  0
 12  8  1  0  0  0  0
 12 11  1  0  0  0  0
 13  9  2  0  0  0  0
 14  2  1  0  0  0  0
 14 16  1  0  0  0  0
 16 15  1  6  0  0  0
 16 17  1  0  0  0  0
 17 18  1  1  0  0  0
 19 25  2  0  0  0  0
 20 17  1  6  0  0  0
 20 22  1  0  0  0  0
 20 23  1  0  0  0  0
 21 25  1  0  0  0  0
 21 24  1  1  0  0  0
 22 19  1  0  0  0  0
 23 21  1  0  0  0  0
 26 27  1  0  0  0  0
 27 28  1  0  0  0  0
M  END
>  <MODEL>
8

>  <REMARK>
 VINA RESULT:      -7.3      2.207      3.671
  Name = 
  9 active torsions:
  status: ('A' for Active; 'I' for Inactive)
    1  A    between atoms: C_1  and  O_2
    2  A    between atoms: O_2  and  C_3
    3  A    between atoms: C_9  and  C_14
    4  A    between atoms: C_10  and  C_25
    5  A    between atoms: C_10  and  C_27
    6  A    between atoms: C_14  and  C_25
    7  A    between atoms: C_16  and  C_21
    8  A    between atoms: C_17  and  C_27
    9  A    between atoms: C_21  and  C_27
                            x       y       z     vdW  Elec       q    Type
                         _______ _______ _______ _____ _____    ______ ____

>  <TORSDO>
F 9

$$$$
=
 OpenBabel11052413233D

 28 30  0  0  1  0  0  0  0  0999 V2000
  185.4240  179.9100  143.6980 C   0  0  0  0  0  1  0  0  0  0  0  0
  185.8280  178.6340  142.9640 C   0  0  2  0  0  0  0  0  0  0  0  0
  183.8390  178.4650  141.3850 C   0  0  2  0  0  3  0  0  0  0  0  0
  184.5370  177.8520  142.5930 C   0  0  2  0  0  3  0  0  0  0  0  0
  183.2270  178.6050  142.7650 C   0  0  0  0  0  2  0  0  0  0  0  0
  183.1650  177.4660  140.6780 O   0  0  0  0  0  0  0  0  0  0  0  0
  182.5560  178.1260  139.6040 C   0  0  2  0  0  3  0  0  0  0  0  0
  181.2490  180.2170  138.1730 C   0  0  0  0  0  2  0  0  0  0  0  0
  183.2730  179.4250  139.3280 C   0  0  0  0  0  3  0  0  0  0  0  0
  180.4660  177.6380  140.6260 O   0  0  0  0  0  0  0  0  0  0  0  0
  181.0930  178.3880  139.8930 C   0  0  0  0  0  0  0  0  0  0  0  0
  180.3870  179.5590  139.2550 C   0  0  0  0  0  2  0  0  0  0  0  0
  182.6600  180.4070  138.6560 C   0  0  0  0  0  3  0  0  0  0  0  0
  186.6790  177.7620  143.9040 C   0  0  0  0  0  2  0  0  0  0  0  0
  185.8320  176.9080  146.0070 O   0  0  0  0  0  1  0  0  0  0  0  0
  186.4640  177.9990  145.4080 C   0  0  1  0  0  3  0  0  0  0  0  0
  187.7760  178.3130  146.1390 C   0  0  1  0  0  3  0  0  0  0  0  0
  187.6110  178.1530  147.6490 C   0  0  0  0  0  1  0  0  0  0  0  0
  191.0780  177.4830  144.3670 C   0  0  0  0  0  3  0  0  0  0  0  0
  188.9510  177.4760  145.6110 C   0  0  1  0  0  3  0  0  0  0  0  0
  191.2320  176.8180  146.6490 C   0  0  1  0  0  3  0  0  0  0  0  0
  189.8920  178.3180  144.7390 C   0  0  0  0  0  2  0  0  0  0  0  0
  189.6990  176.7620  146.7620 C   0  0  0  0  0  2  0  0  0  0  0  0
  191.8500  175.6700  147.4170 C   0  0  0  0  0  1  0  0  0  0  0  0
  191.6720  176.7810  145.2690 N   0  0  0  0  0  0  0  0  0  0  0  0
  186.7510  178.9880  141.7750 C   0  0  0  0  0  2  0  0  0  0  0  0
  188.0440  178.1800  141.6860 C   0  0  0  0  0  2  0  0  0  0  0  0
  188.2890  177.8000  140.3660 O   0  0  0  0  0  1  0  0  0  0  0  0
  2  1  1  1  0  0  0
  2 14  1  0  0  0  0
  3  6  1  6  0  0  0
  3  4  1  0  0  0  0
  3  5  1  0  0  0  0
  4  5  1  0  0  0  0
  4  2  1  1  0  0  0
  7 11  1  0  0  0  0
  7  6  1  1  0  0  0
  8 13  1  0  0  0  0
  8 12  1  0  0  0  0
  9  7  1  0  0  0  0
 11 10  2  0  0  0  0
 12 11  1  0  0  0  0
 13  9  2  0  0  0  0
 14 16  1  0  0  0  0
 16 15  1  1  0  0  0
 16 17  1  0  0  0  0
 17 18  1  1  0  0  0
 19 22  1  0  0  0  0
 19 25  2  0  0  0  0
 20 17  1  1  0  0  0
 20 23  1  0  0  0  0
 21 23  1  0  0  0  0
 21 24  1  1  0  0  0
 22 20  1  0  0  0  0
 25 21  1  0  0  0  0
 26  2  1  0  0  0  0
 27 26  1  0  0  0  0
 28 27  1  0  0  0  0
M  END
>  <MODEL>
9

>  <REMARK>
 VINA RESULT:      -7.3      3.943      6.691
  Name = 
  9 active torsions:
  status: ('A' for Active; 'I' for Inactive)
    1  A    between atoms: C_1  and  O_2
    2  A    between atoms: O_2  and  C_3
    3  A    between atoms: C_9  and  C_14
    4  A    between atoms: C_10  and  C_25
    5  A    between atoms: C_10  and  C_27
    6  A    between atoms: C_14  and  C_25
    7  A    between atoms: C_16  and  C_21
    8  A    between atoms: C_17  and  C_27
    9  A    between atoms: C_21  and  C_27
                            x       y       z     vdW  Elec       q    Type
                         _______ _______ _______ _____ _____    ______ ____

>  <TORSDO>
F 9

$$$$
