=
 OpenBabel11052416453D

 43 47  0  0  1  0  0  0  0  0999 V2000
  181.7940  178.0290  139.3290 C   0  0  0  0  0  0  0  0  0  0  0  0
  182.0300  176.9830  138.5250 C   0  0  0  0  0  3  0  0  0  0  0  0
  184.4450  176.2550  136.4900 C   0  0  0  0  0  2  0  0  0  0  0  0
  182.4570  174.1170  137.4640 C   0  0  2  0  0  3  0  0  0  0  0  0
  180.9570  173.8390  137.7670 C   0  0  1  0  0  3  0  0  0  0  0  0
  184.2320  174.8890  135.8920 C   0  0  0  0  0  0  0  0  0  0  0  0
  185.1280  174.4430  135.0140 C   0  0  0  0  0  2  0  0  0  0  0  0
  180.5660  176.1780  136.6140 C   0  0  2  0  0  3  0  0  0  0  0  0
  182.9160  174.1600  136.0140 C   0  0  1  0  0  3  0  0  0  0  0  0
  183.6630  177.3030  135.7560 C   0  0  0  0  0  3  0  0  0  0  0  0
  180.0360  175.0570  137.5270 C   0  0  1  0  0  3  0  0  0  0  0  0
  183.0920  172.8950  136.8370 C   0  0  0  0  0  2  0  0  0  0  0  0
  181.5650  178.4000  135.1230 C   0  0  0  0  0  2  0  0  0  0  0  0
  182.4080  177.6130  136.0840 C   0  0  0  0  0  0  0  0  0  0  0  0
  180.1150  178.5020  135.6380 C   0  0  0  0  0  2  0  0  0  0  0  0
  181.7240  176.9020  137.1190 N   0  0  0  0  0  0  0  0  0  0  0  0
  179.5060  177.1500  136.0830 C   0  0  0  0  0  2  0  0  0  0  0  0
  179.8020  173.7480  136.7550 C   0  0  1  0  0  3  0  0  0  0  0  0
  180.2010  173.7380  135.2780 C   0  0  0  0  0  2  0  0  0  0  0  0
  180.0250  172.3470  134.6880 C   0  0  0  0  0  2  0  0  0  0  0  0
  178.9750  170.2320  135.0430 O   0  0  0  0  0  1  0  0  0  0  0  0
  178.9360  171.5760  135.4140 C   0  0  0  0  0  2  0  0  0  0  0  0
  182.2550  177.9250  140.7500 C   0  0  0  0  0  2  0  0  0  0  0  0
  185.9890  178.5550  139.8050 C   0  0  0  0  0  0  0  0  0  0  0  0
  186.5440  178.5920  141.1730 C   0  0  0  0  0  0  0  0  0  0  0  0
  188.2610  178.8330  141.4380 Cl  0  0  0  0  0  0  0  0  0  0  0  0
  184.2940  178.2300  142.0580 C   0  0  0  0  0  3  0  0  0  0  0  0
  184.5140  178.3800  139.5790 C   0  0  0  0  0  2  0  0  0  0  0  0
  183.7190  178.2030  140.8490 C   0  0  0  0  0  0  0  0  0  0  0  0
  186.7520  178.6790  138.8100 O   0  0  0  0  0  0  0  0  0  0  0  0
  185.7410  178.4410  142.2250 C   0  0  0  0  0  3  0  0  0  0  0  0
  181.0040  179.2330  138.8920 C   0  0  1  0  0  3  0  0  0  0  0  0
  179.5870  179.1800  139.4740 C   0  0  1  0  0  3  0  0  0  0  0  0
  179.1910  177.8760  139.8050 O   0  0  0  0  0  1  0  0  0  0  0  0
  179.3880  180.0910  140.5350 O   0  0  0  0  0  0  0  0  0  0  0  0
  179.1150  179.3730  141.7110 C   0  0  0  0  0  2  0  0  0  0  0  0
  180.0680  179.8110  142.8030 C   0  0  0  0  0  2  0  0  0  0  0  0
  179.8920  178.9160  144.0110 C   0  0  0  0  0  2  0  0  0  0  0  0
  179.5780  177.6230  143.5890 O   0  0  0  0  0  1  0  0  0  0  0  0
  181.6610  180.4400  139.2640 O   0  0  0  0  0  0  0  0  0  0  0  0
  180.8650  181.6950  137.3080 N   0  0  0  0  0  1  0  0  0  0  0  0
  181.7740  181.5250  138.3930 C   0  0  0  0  0  0  0  0  0  0  0  0
  182.6860  182.3720  138.5750 O   0  0  0  0  0  0  0  0  0  0  0  0
  1 23  1  0  0  0  0
  2  1  2  0  0  0  0
  4 12  1  1  0  0  0
  4  5  1  0  0  0  0
  6  9  1  0  0  0  0
  6  3  1  0  0  0  0
  7  6  2  0  0  0  0
  8 16  1  0  0  0  0
  8 11  1  0  0  0  0
  9 12  1  0  0  0  0
  9  4  1  0  0  0  0
 10 14  2  0  0  0  0
 10  3  1  0  0  0  0
 11  5  1  0  0  0  0
 13 15  1  0  0  0  0
 13 14  1  0  0  0  0
 14 16  1  0  0  0  0
 15 17  1  0  0  0  0
 16  2  1  0  0  0  0
 17  8  1  0  0  0  0
 18 11  1  0  0  0  0
 18  5  1  0  0  0  0
 19 18  1  0  0  0  0
 20 19  1  0  0  0  0
 20 22  1  0  0  0  0
 21 22  1  0  0  0  0
 23 29  1  0  0  0  0
 24 25  1  0  0  0  0
 25 26  1  0  0  0  0
 25 31  2  0  0  0  0
 27 31  1  0  0  0  0
 28 24  1  0  0  0  0
 28 29  1  0  0  0  0
 29 27  2  0  0  0  0
 30 24  2  0  0  0  0
 32 40  1  0  0  0  0
 32  1  1  0  0  0  0
 32 33  1  0  0  0  0
 33 34  1  0  0  0  0
 33 35  1  0  0  0  0
 35 36  1  0  0  0  0
 36 37  1  0  0  0  0
 37 38  1  0  0  0  0
 39 38  1  0  0  0  0
 41 42  1  0  0  0  0
 42 43  2  0  0  0  0
 42 40  1  0  0  0  0
M  END
>  <MODEL>
1

>  <REMARK>
 VINA RESULT:      -4.6      0.000      0.000
  Name = 
  14 active torsions:
  status: ('A' for Active; 'I' for Inactive)
    1  A    between atoms: C_1  and  C_34
    2  A    between atoms: C_1  and  C_35
    3  A    between atoms: C_5  and  C_18
    4  A    between atoms: C_5  and  C_23
    5  A    between atoms: C_8  and  C_21
    6  A    between atoms: C_8  and  O_30
    7  A    between atoms: C_8  and  C_34
    8  A    between atoms: C_10  and  C_41
    9  A    between atoms: C_10  and  C_42
   10  A    between atoms: O_16  and  C_21
   11  A    between atoms: O_16  and  C_23
   12  A    between atoms: C_22  and  C_42
   13  A    between atoms: O_30  and  C_33
   14  A    between atoms: N_36  and  C_38
                            x       y       z     vdW  Elec       q    Type
                         _______ _______ _______ _____ _____    ______ ____

>  <TORSDO>
F 14

$$$$
=
 OpenBabel11052416453D

 43 47  0  0  1  0  0  0  0  0999 V2000
  185.5960  177.3350  137.4000 C   0  0  0  0  0  0  0  0  0  0  0  0
  184.3060  177.5230  137.7100 C   0  0  0  0  0  3  0  0  0  0  0  0
  182.2980  176.8720  140.1700 C   0  0  0  0  0  2  0  0  0  0  0  0
  181.5690  178.9210  137.9920 C   0  0  2  0  0  3  0  0  0  0  0  0
  181.6150  179.2010  136.4620 C   0  0  1  0  0  3  0  0  0  0  0  0
  180.9310  177.4390  139.8930 C   0  0  0  0  0  0  0  0  0  0  0  0
  179.9750  177.2420  140.8000 C   0  0  0  0  0  2  0  0  0  0  0  0
  182.3750  176.6820  136.2940 C   0  0  2  0  0  3  0  0  0  0  0  0
  180.5350  177.9400  138.5250 C   0  0  1  0  0  3  0  0  0  0  0  0
  182.4860  175.5430  139.5000 C   0  0  0  0  0  3  0  0  0  0  0  0
  182.2820  178.0740  135.6410 C   0  0  1  0  0  3  0  0  0  0  0  0
  180.2700  179.4350  138.5720 C   0  0  0  0  0  2  0  0  0  0  0  0
  182.7940  174.1360  137.5180 C   0  0  0  0  0  2  0  0  0  0  0  0
  182.9500  175.4340  138.2540 C   0  0  0  0  0  0  0  0  0  0  0  0
  183.2550  174.2890  136.0550 C   0  0  0  0  0  2  0  0  0  0  0  0
  183.2270  176.5980  137.4710 N   0  0  0  0  0  0  0  0  0  0  0  0
  182.6620  175.5230  135.3310 C   0  0  0  0  0  2  0  0  0  0  0  0
  180.8260  178.4790  135.3570 C   0  0  1  0  0  3  0  0  0  0  0  0
  179.7360  177.5140  135.8280 C   0  0  0  0  0  2  0  0  0  0  0  0
  179.3750  176.5370  134.7200 C   0  0  0  0  0  2  0  0  0  0  0  0
  179.2780  175.1190  136.6380 O   0  0  0  0  0  1  0  0  0  0  0  0
  178.9310  175.2000  135.2900 C   0  0  0  0  0  2  0  0  0  0  0  0
  186.5660  178.4040  137.8010 C   0  0  0  0  0  2  0  0  0  0  0  0
  186.5560  178.4740  141.7030 C   0  0  0  0  0  0  0  0  0  0  0  0
  187.9360  177.9960  141.9200 C   0  0  0  0  0  0  0  0  0  0  0  0
  188.5800  177.8230  143.5430 Cl  0  0  0  0  0  0  0  0  0  0  0  0
  188.2210  177.8240  139.4990 C   0  0  0  0  0  3  0  0  0  0  0  0
  185.9940  178.5930  140.3140 C   0  0  0  0  0  2  0  0  0  0  0  0
  186.9760  178.2340  139.2260 C   0  0  0  0  0  0  0  0  0  0  0  0
  185.8310  178.7800  142.6860 O   0  0  0  0  0  0  0  0  0  0  0  0
  188.7100  177.6910  140.8800 C   0  0  0  0  0  3  0  0  0  0  0  0
  186.0770  176.1640  136.5870 C   0  0  1  0  0  3  0  0  0  0  0  0
  186.8290  176.6510  135.3440 C   0  0  1  0  0  3  0  0  0  0  0  0
  186.0890  177.5830  134.6000 O   0  0  0  0  0  1  0  0  0  0  0  0
  188.1370  177.1010  135.6250 O   0  0  0  0  0  0  0  0  0  0  0  0
  189.0110  176.6180  134.6370 C   0  0  0  0  0  2  0  0  0  0  0  0
  190.2020  175.9560  135.2950 C   0  0  0  0  0  2  0  0  0  0  0  0
  190.1770  176.2420  136.7820 C   0  0  0  0  0  2  0  0  0  0  0  0
  191.4210  176.7350  137.1790 O   0  0  0  0  0  1  0  0  0  0  0  0
  186.8960  175.2990  137.3680 O   0  0  0  0  0  0  0  0  0  0  0  0
  187.8140  173.3390  136.2070 N   0  0  0  0  0  1  0  0  0  0  0  0
  186.9300  173.9190  137.1630 C   0  0  0  0  0  0  0  0  0  0  0  0
  186.1750  173.1740  137.8380 O   0  0  0  0  0  0  0  0  0  0  0  0
  1  2  2  0  0  0  0
  1 23  1  0  0  0  0
  4  9  1  0  0  0  0
  4 12  1  1  0  0  0
  5  4  1  0  0  0  0
  6  3  1  0  0  0  0
  6  7  2  0  0  0  0
  8 16  1  0  0  0  0
  9 12  1  0  0  0  0
  9  6  1  0  0  0  0
 10  3  1  0  0  0  0
 11  8  1  0  0  0  0
 11  5  1  0  0  0  0
 13 14  1  0  0  0  0
 14 10  2  0  0  0  0
 15 13  1  0  0  0  0
 16  2  1  0  0  0  0
 16 14  1  0  0  0  0
 17 15  1  0  0  0  0
 17  8  1  0  0  0  0
 18 11  1  0  0  0  0
 18 19  1  0  0  0  0
 18  5  1  0  0  0  0
 20 22  1  0  0  0  0
 20 19  1  0  0  0  0
 22 21  1  0  0  0  0
 23 29  1  0  0  0  0
 24 25  1  0  0  0  0
 24 30  2  0  0  0  0
 25 26  1  0  0  0  0
 27 31  1  0  0  0  0
 28 24  1  0  0  0  0
 29 27  2  0  0  0  0
 29 28  1  0  0  0  0
 31 25  2  0  0  0  0
 32 40  1  0  0  0  0
 32  1  1  0  0  0  0
 33 35  1  0  0  0  0
 33 32  1  0  0  0  0
 34 33  1  0  0  0  0
 36 37  1  0  0  0  0
 36 35  1  0  0  0  0
 37 38  1  0  0  0  0
 38 39  1  0  0  0  0
 41 42  1  0  0  0  0
 42 40  1  0  0  0  0
 42 43  2  0  0  0  0
M  END
>  <MODEL>
2

>  <REMARK>
 VINA RESULT:      -4.4      2.924      6.714
  Name = 
  14 active torsions:
  status: ('A' for Active; 'I' for Inactive)
    1  A    between atoms: C_1  and  C_34
    2  A    between atoms: C_1  and  C_35
    3  A    between atoms: C_5  and  C_18
    4  A    between atoms: C_5  and  C_23
    5  A    between atoms: C_8  and  C_21
    6  A    between atoms: C_8  and  O_30
    7  A    between atoms: C_8  and  C_34
    8  A    between atoms: C_10  and  C_41
    9  A    between atoms: C_10  and  C_42
   10  A    between atoms: O_16  and  C_21
   11  A    between atoms: O_16  and  C_23
   12  A    between atoms: C_22  and  C_42
   13  A    between atoms: O_30  and  C_33
   14  A    between atoms: N_36  and  C_38
                            x       y       z     vdW  Elec       q    Type
                         _______ _______ _______ _____ _____    ______ ____

>  <TORSDO>
F 14

$$$$
=
 OpenBabel11052416453D

 43 47  0  0  1  0  0  0  0  0999 V2000
  183.1970  178.6700  140.4950 C   0  0  0  0  0  0  0  0  0  0  0  0
  183.1060  177.9830  139.3460 C   0  0  0  0  0  3  0  0  0  0  0  0
  181.3590  179.2530  136.9300 C   0  0  0  0  0  2  0  0  0  0  0  0
  183.4810  177.0830  136.4190 C   0  0  2  0  0  3  0  0  0  0  0  0
  184.0740  175.7510  136.9600 C   0  0  1  0  0  3  0  0  0  0  0  0
  181.5120  178.4240  135.6820 C   0  0  0  0  0  0  0  0  0  0  0  0
  180.8400  178.7990  134.5950 C   0  0  0  0  0  2  0  0  0  0  0  0
  182.0160  175.8140  138.6060 C   0  0  2  0  0  3  0  0  0  0  0  0
  182.1370  177.0500  135.7070 C   0  0  1  0  0  3  0  0  0  0  0  0
  180.3280  178.6730  137.8500 C   0  0  0  0  0  3  0  0  0  0  0  0
  183.4110  175.2590  138.2670 C   0  0  1  0  0  3  0  0  0  0  0  0
  183.4290  177.0480  134.9070 C   0  0  0  0  0  2  0  0  0  0  0  0
  179.5340  176.9690  139.4230 C   0  0  0  0  0  2  0  0  0  0  0  0
  180.6320  177.7610  138.7760 C   0  0  0  0  0  0  0  0  0  0  0  0
  180.1250  175.8750  140.3340 C   0  0  0  0  0  2  0  0  0  0  0  0
  181.9600  177.2430  138.8830 N   0  0  0  0  0  0  0  0  0  0  0  0
  181.2330  175.0250  139.6630 C   0  0  0  0  0  2  0  0  0  0  0  0
  183.3880  174.3760  137.0080 C   0  0  1  0  0  3  0  0  0  0  0  0
  182.0530  174.2630  136.2690 C   0  0  0  0  0  2  0  0  0  0  0  0
  181.4660  172.8700  136.4390 C   0  0  0  0  0  2  0  0  0  0  0  0
  179.5830  173.8560  135.3510 O   0  0  0  0  0  1  0  0  0  0  0  0
  180.2780  172.6580  135.5150 C   0  0  0  0  0  2  0  0  0  0  0  0
  184.4640  179.4260  140.7480 C   0  0  0  0  0  2  0  0  0  0  0  0
  187.9710  177.8840  139.9990 C   0  0  0  0  0  0  0  0  0  0  0  0
  187.7960  177.6720  138.5490 C   0  0  0  0  0  0  0  0  0  0  0  0
  189.0910  176.9930  137.5800 Cl  0  0  0  0  0  0  0  0  0  0  0  0
  185.5320  178.5760  138.7240 C   0  0  0  0  0  3  0  0  0  0  0  0
  186.8500  178.4370  140.8350 C   0  0  0  0  0  2  0  0  0  0  0  0
  185.6120  178.7790  140.0440 C   0  0  0  0  0  0  0  0  0  0  0  0
  189.0640  177.5930  140.5540 O   0  0  0  0  0  0  0  0  0  0  0  0
  186.6480  177.9980  137.9580 C   0  0  0  0  0  3  0  0  0  0  0  0
  182.1360  178.6200  141.5600 C   0  0  1  0  0  3  0  0  0  0  0  0
  182.7440  178.9310  142.9320 C   0  0  1  0  0  3  0  0  0  0  0  0
  181.8430  178.7060  143.9830 O   0  0  0  0  0  1  0  0  0  0  0  0
  183.9900  178.3000  143.1450 O   0  0  0  0  0  0  0  0  0  0  0  0
  184.4400  178.5980  144.4420 C   0  0  0  0  0  2  0  0  0  0  0  0
  185.8710  178.1320  144.6000 C   0  0  0  0  0  2  0  0  0  0  0  0
  186.2980  178.3030  146.0420 C   0  0  0  0  0  2  0  0  0  0  0  0
  185.4850  179.2570  146.6560 O   0  0  0  0  0  1  0  0  0  0  0  0
  181.0690  179.5150  141.2640 O   0  0  0  0  0  0  0  0  0  0  0  0
  179.6040  180.8780  142.6880 N   0  0  0  0  0  1  0  0  0  0  0  0
  179.9460  179.6330  142.0850 C   0  0  0  0  0  0  0  0  0  0  0  0
  179.2190  178.6260  142.2870 O   0  0  0  0  0  0  0  0  0  0  0  0
  1 23  1  0  0  0  0
  1 32  1  0  0  0  0
  2  1  2  0  0  0  0
  3 10  1  0  0  0  0
  4 12  1  6  0  0  0
  4  5  1  0  0  0  0
  5 18  1  0  0  0  0
  5 11  1  0  0  0  0
  6  9  1  0  0  0  0
  6  3  1  0  0  0  0
  7  6  2  0  0  0  0
  8 16  1  0  0  0  0
  8 17  1  0  0  0  0
  9  4  1  0  0  0  0
 10 14  2  0  0  0  0
 11  8  1  0  0  0  0
 12  9  1  0  0  0  0
 13 15  1  0  0  0  0
 14 16  1  0  0  0  0
 14 13  1  0  0  0  0
 16  2  1  0  0  0  0
 17 15  1  0  0  0  0
 18 11  1  0  0  0  0
 19 20  1  0  0  0  0
 19 18  1  0  0  0  0
 21 22  1  0  0  0  0
 22 20  1  0  0  0  0
 24 30  2  0  0  0  0
 24 28  1  0  0  0  0
 25 24  1  0  0  0  0
 26 25  1  0  0  0  0
 27 29  2  0  0  0  0
 29 23  1  0  0  0  0
 29 28  1  0  0  0  0
 31 25  2  0  0  0  0
 31 27  1  0  0  0  0
 32 33  1  0  0  0  0
 33 35  1  0  0  0  0
 33 34  1  0  0  0  0
 35 36  1  0  0  0  0
 36 37  1  0  0  0  0
 37 38  1  0  0  0  0
 38 39  1  0  0  0  0
 40 32  1  0  0  0  0
 40 42  1  0  0  0  0
 42 43  2  0  0  0  0
 42 41  1  0  0  0  0
M  END
>  <MODEL>
3

>  <REMARK>
 VINA RESULT:      -4.4      2.400      4.167
  Name = 
  14 active torsions:
  status: ('A' for Active; 'I' for Inactive)
    1  A    between atoms: C_1  and  C_34
    2  A    between atoms: C_1  and  C_35
    3  A    between atoms: C_5  and  C_18
    4  A    between atoms: C_5  and  C_23
    5  A    between atoms: C_8  and  C_21
    6  A    between atoms: C_8  and  O_30
    7  A    between atoms: C_8  and  C_34
    8  A    between atoms: C_10  and  C_41
    9  A    between atoms: C_10  and  C_42
   10  A    between atoms: O_16  and  C_21
   11  A    between atoms: O_16  and  C_23
   12  A    between atoms: C_22  and  C_42
   13  A    between atoms: O_30  and  C_33
   14  A    between atoms: N_36  and  C_38
                            x       y       z     vdW  Elec       q    Type
                         _______ _______ _______ _____ _____    ______ ____

>  <TORSDO>
F 14

$$$$
=
 OpenBabel11052416453D

 43 47  0  0  1  0  0  0  0  0999 V2000
  185.3590  177.9320  138.2970 C   0  0  0  0  0  0  0  0  0  0  0  0
  184.0240  178.0170  138.3830 C   0  0  0  0  0  3  0  0  0  0  0  0
  182.2430  175.6600  139.7140 C   0  0  0  0  0  2  0  0  0  0  0  0
  181.1400  178.5120  139.3630 C   0  0  2  0  0  3  0  0  0  0  0  0
  181.0750  179.7250  138.3900 C   0  0  1  0  0  3  0  0  0  0  0  0
  180.7990  176.0820  139.8030 C   0  0  0  0  0  0  0  0  0  0  0  0
  179.9230  175.2160  140.3110 C   0  0  0  0  0  2  0  0  0  0  0  0
  182.1590  178.0560  136.6610 C   0  0  2  0  0  3  0  0  0  0  0  0
  180.2740  177.2940  139.0730 C   0  0  1  0  0  3  0  0  0  0  0  0
  182.5760  175.1300  138.3520 C   0  0  0  0  0  3  0  0  0  0  0  0
  181.8480  179.5070  137.0690 C   0  0  1  0  0  3  0  0  0  0  0  0
  179.8120  178.3450  140.0690 C   0  0  0  0  0  2  0  0  0  0  0  0
  182.9770  175.4120  135.9510 C   0  0  0  0  0  2  0  0  0  0  0  0
  182.9910  175.9230  137.3630 C   0  0  0  0  0  0  0  0  0  0  0  0
  183.3420  176.5420  134.9670 C   0  0  0  0  0  2  0  0  0  0  0  0
  183.0700  177.3390  137.5430 N   0  0  0  0  0  0  0  0  0  0  0  0
  182.5540  177.8550  135.1930 C   0  0  0  0  0  2  0  0  0  0  0  0
  180.3380  179.8010  137.0420 C   0  0  1  0  0  3  0  0  0  0  0  0
  179.4130  178.6280  136.7130 C   0  0  0  0  0  2  0  0  0  0  0  0
  178.9310  178.7180  135.2730 C   0  0  0  0  0  2  0  0  0  0  0  0
  178.9310  176.3470  135.5590 O   0  0  0  0  0  1  0  0  0  0  0  0
  178.9600  177.3580  134.5980 C   0  0  0  0  0  2  0  0  0  0  0  0
  186.1650  178.6730  139.3190 C   0  0  0  0  0  2  0  0  0  0  0  0
  185.4070  178.3250  143.1320 C   0  0  0  0  0  0  0  0  0  0  0  0
  183.9590  178.6090  143.0800 C   0  0  0  0  0  0  0  0  0  0  0  0
  182.9880  178.5830  144.5410 Cl  0  0  0  0  0  0  0  0  0  0  0  0
  184.1410  178.9170  140.6620 C   0  0  0  0  0  3  0  0  0  0  0  0
  186.2450  178.3770  141.8850 C   0  0  0  0  0  2  0  0  0  0  0  0
  185.4590  178.6870  140.6350 C   0  0  0  0  0  0  0  0  0  0  0  0
  185.9570  178.0420  144.2290 O   0  0  0  0  0  0  0  0  0  0  0  0
  183.3730  178.8880  141.9170 C   0  0  0  0  0  3  0  0  0  0  0  0
  186.0600  177.2210  137.1720 C   0  0  1  0  0  3  0  0  0  0  0  0
  187.2090  178.0800  136.6320 C   0  0  1  0  0  3  0  0  0  0  0  0
  186.8850  179.4440  136.5930 O   0  0  0  0  0  1  0  0  0  0  0  0
  188.4390  177.8350  137.2800 O   0  0  0  0  0  0  0  0  0  0  0  0
  189.4320  177.6170  136.3120 C   0  0  0  0  0  2  0  0  0  0  0  0
  190.3480  176.5020  136.7700 C   0  0  0  0  0  2  0  0  0  0  0  0
  190.1120  176.2310  138.2410 C   0  0  0  0  0  2  0  0  0  0  0  0
  190.9600  175.2070  138.6650 O   0  0  0  0  0  1  0  0  0  0  0  0
  186.5350  175.9440  137.5890 O   0  0  0  0  0  0  0  0  0  0  0  0
  186.5980  175.0600  135.2980 N   0  0  0  0  0  1  0  0  0  0  0  0
  186.6390  174.8650  136.7100 C   0  0  0  0  0  0  0  0  0  0  0  0
  186.7810  173.7030  137.1700 O   0  0  0  0  0  0  0  0  0  0  0  0
  1  2  2  0  0  0  0
  1 23  1  0  0  0  0
  3  6  1  0  0  0  0
  4 12  1  1  0  0  0
  5  4  1  0  0  0  0
  6  7  2  0  0  0  0
  8 11  1  0  0  0  0
  8 16  1  0  0  0  0
  9  4  1  0  0  0  0
  9  6  1  0  0  0  0
  9 12  1  0  0  0  0
 10  3  1  0  0  0  0
 11  5  1  0  0  0  0
 13 14  1  0  0  0  0
 14 16  1  0  0  0  0
 14 10  2  0  0  0  0
 15 17  1  0  0  0  0
 15 13  1  0  0  0  0
 16  2  1  0  0  0  0
 17  8  1  0  0  0  0
 18 11  1  0  0  0  0
 18  5  1  0  0  0  0
 19 18  1  0  0  0  0
 20 19  1  0  0  0  0
 22 20  1  0  0  0  0
 22 21  1  0  0  0  0
 23 29  1  0  0  0  0
 24 30  2  0  0  0  0
 25 24  1  0  0  0  0
 25 26  1  0  0  0  0
 27 31  1  0  0  0  0
 28 24  1  0  0  0  0
 29 27  2  0  0  0  0
 29 28  1  0  0  0  0
 31 25  2  0  0  0  0
 32 40  1  0  0  0  0
 32  1  1  0  0  0  0
 33 32  1  0  0  0  0
 33 35  1  0  0  0  0
 34 33  1  0  0  0  0
 36 37  1  0  0  0  0
 36 35  1  0  0  0  0
 37 38  1  0  0  0  0
 38 39  1  0  0  0  0
 41 42  1  0  0  0  0
 42 43  2  0  0  0  0
 42 40  1  0  0  0  0
M  END
>  <MODEL>
4

>  <REMARK>
 VINA RESULT:      -4.1      3.199      6.478
  Name = 
  14 active torsions:
  status: ('A' for Active; 'I' for Inactive)
    1  A    between atoms: C_1  and  C_34
    2  A    between atoms: C_1  and  C_35
    3  A    between atoms: C_5  and  C_18
    4  A    between atoms: C_5  and  C_23
    5  A    between atoms: C_8  and  C_21
    6  A    between atoms: C_8  and  O_30
    7  A    between atoms: C_8  and  C_34
    8  A    between atoms: C_10  and  C_41
    9  A    between atoms: C_10  and  C_42
   10  A    between atoms: O_16  and  C_21
   11  A    between atoms: O_16  and  C_23
   12  A    between atoms: C_22  and  C_42
   13  A    between atoms: O_30  and  C_33
   14  A    between atoms: N_36  and  C_38
                            x       y       z     vdW  Elec       q    Type
                         _______ _______ _______ _____ _____    ______ ____

>  <TORSDO>
F 14

$$$$
=
 OpenBabel11052416453D

 43 47  0  0  1  0  0  0  0  0999 V2000
  182.7650  178.1690  138.8270 C   0  0  0  0  0  0  0  0  0  0  0  0
  183.4230  177.1390  138.2760 C   0  0  0  0  0  3  0  0  0  0  0  0
  186.2100  176.2680  136.8700 C   0  0  0  0  0  2  0  0  0  0  0  0
  184.2270  174.1770  137.9500 C   0  0  2  0  0  3  0  0  0  0  0  0
  182.7180  173.8120  138.0580 C   0  0  1  0  0  3  0  0  0  0  0  0
  186.2010  174.7950  136.5570 C   0  0  0  0  0  0  0  0  0  0  0  0
  187.2690  174.2750  135.9550 C   0  0  0  0  0  2  0  0  0  0  0  0
  182.3870  175.8150  136.3750 C   0  0  2  0  0  3  0  0  0  0  0  0
  184.9360  173.9730  136.6200 C   0  0  1  0  0  3  0  0  0  0  0  0
  185.5060  177.0580  135.8080 C   0  0  0  0  0  3  0  0  0  0  0  0
  181.7760  174.8540  137.4120 C   0  0  1  0  0  3  0  0  0  0  0  0
  185.0450  172.9270  137.7160 C   0  0  0  0  0  2  0  0  0  0  0  0
  183.4880  177.7800  134.6180 C   0  0  0  0  0  2  0  0  0  0  0  0
  184.1940  177.2960  135.8520 C   0  0  0  0  0  0  0  0  0  0  0  0
  181.9650  177.8330  134.8560 C   0  0  0  0  0  2  0  0  0  0  0  0
  183.3830  176.7420  136.8920 N   0  0  0  0  0  0  0  0  0  0  0  0
  181.3780  176.5430  135.4800 C   0  0  0  0  0  2  0  0  0  0  0  0
  181.7750  173.3980  136.9160 C   0  0  1  0  0  3  0  0  0  0  0  0
  182.4340  173.1300  135.5610 C   0  0  0  0  0  2  0  0  0  0  0  0
  181.4380  172.5000  134.6000 C   0  0  0  0  0  2  0  0  0  0  0  0
  182.0690  170.2000  134.7190 O   0  0  0  0  0  1  0  0  0  0  0  0
  181.0540  171.0990  135.0460 C   0  0  0  0  0  2  0  0  0  0  0  0
  183.0040  178.4430  140.2800 C   0  0  0  0  0  2  0  0  0  0  0  0
  186.3760  178.2300  142.2320 C   0  0  0  0  0  0  0  0  0  0  0  0
  187.2890  178.3940  141.0840 C   0  0  0  0  0  0  0  0  0  0  0  0
  189.0280  178.4090  141.3160 Cl  0  0  0  0  0  0  0  0  0  0  0  0
  185.3480  178.5350  139.6050 C   0  0  0  0  0  3  0  0  0  0  0  0
  184.8880  178.1860  142.0300 C   0  0  0  0  0  2  0  0  0  0  0  0
  184.4620  178.3720  140.5950 C   0  0  0  0  0  0  0  0  0  0  0  0
  186.8410  178.1160  143.3980 O   0  0  0  0  0  0  0  0  0  0  0  0
  186.7990  178.5350  139.8540 C   0  0  0  0  0  3  0  0  0  0  0  0
  181.7360  178.9720  138.0790 C   0  0  1  0  0  3  0  0  0  0  0  0
  180.3260  178.6140  138.5610 C   0  0  1  0  0  3  0  0  0  0  0  0
  179.4520  178.3330  137.5010 O   0  0  0  0  0  1  0  0  0  0  0  0
  180.3160  177.6060  139.5510 O   0  0  0  0  0  0  0  0  0  0  0  0
  179.3750  177.9430  140.5380 C   0  0  0  0  0  2  0  0  0  0  0  0
  179.5720  179.3840  140.9540 C   0  0  0  0  0  2  0  0  0  0  0  0
  179.9830  179.4350  142.4100 C   0  0  0  0  0  2  0  0  0  0  0  0
  179.8550  180.7420  142.8830 O   0  0  0  0  0  1  0  0  0  0  0  0
  181.9780  180.3690  138.2150 O   0  0  0  0  0  0  0  0  0  0  0  0
  181.1170  182.6460  137.8910 N   0  0  0  0  0  1  0  0  0  0  0  0
  181.3330  181.3180  137.4210 C   0  0  0  0  0  0  0  0  0  0  0  0
  180.9440  180.9980  136.2680 O   0  0  0  0  0  0  0  0  0  0  0  0
  1 23  1  0  0  0  0
  2  1  2  0  0  0  0
  4 12  1  1  0  0  0
  4  5  1  0  0  0  0
  6  9  1  0  0  0  0
  6  3  1  0  0  0  0
  7  6  2  0  0  0  0
  8 16  1  0  0  0  0
  8 11  1  0  0  0  0
  9 12  1  0  0  0  0
  9  4  1  0  0  0  0
 10 14  2  0  0  0  0
 10  3  1  0  0  0  0
 11  5  1  0  0  0  0
 13 15  1  0  0  0  0
 13 14  1  0  0  0  0
 14 16  1  0  0  0  0
 15 17  1  0  0  0  0
 16  2  1  0  0  0  0
 17  8  1  0  0  0  0
 18 11  1  0  0  0  0
 18  5  1  0  0  0  0
 19 18  1  0  0  0  0
 20 22  1  0  0  0  0
 20 19  1  0  0  0  0
 21 22  1  0  0  0  0
 23 29  1  0  0  0  0
 24 30  2  0  0  0  0
 25 26  1  0  0  0  0
 25 24  1  0  0  0  0
 27 31  1  0  0  0  0
 27 29  2  0  0  0  0
 28 24  1  0  0  0  0
 29 28  1  0  0  0  0
 31 25  2  0  0  0  0
 32 40  1  0  0  0  0
 32 33  1  0  0  0  0
 32  1  1  0  0  0  0
 33 35  1  0  0  0  0
 34 33  1  0  0  0  0
 35 36  1  0  0  0  0
 36 37  1  0  0  0  0
 37 38  1  0  0  0  0
 38 39  1  0  0  0  0
 42 41  1  0  0  0  0
 42 40  1  0  0  0  0
 43 42  2  0  0  0  0
M  END
>  <MODEL>
5

>  <REMARK>
 VINA RESULT:      -3.6      1.654      2.096
  Name = 
  14 active torsions:
  status: ('A' for Active; 'I' for Inactive)
    1  A    between atoms: C_1  and  C_34
    2  A    between atoms: C_1  and  C_35
    3  A    between atoms: C_5  and  C_18
    4  A    between atoms: C_5  and  C_23
    5  A    between atoms: C_8  and  C_21
    6  A    between atoms: C_8  and  O_30
    7  A    between atoms: C_8  and  C_34
    8  A    between atoms: C_10  and  C_41
    9  A    between atoms: C_10  and  C_42
   10  A    between atoms: O_16  and  C_21
   11  A    between atoms: O_16  and  C_23
   12  A    between atoms: C_22  and  C_42
   13  A    between atoms: O_30  and  C_33
   14  A    between atoms: N_36  and  C_38
                            x       y       z     vdW  Elec       q    Type
                         _______ _______ _______ _____ _____    ______ ____

>  <TORSDO>
F 14

$$$$
=
 OpenBabel11052416453D

 43 47  0  0  1  0  0  0  0  0999 V2000
  185.7130  177.7780  138.5780 C   0  0  0  0  0  0  0  0  0  0  0  0
  184.4150  177.9710  138.8530 C   0  0  0  0  0  3  0  0  0  0  0  0
  182.0530  176.5370  140.5480 C   0  0  0  0  0  2  0  0  0  0  0  0
  181.8020  179.4460  139.5730 C   0  0  2  0  0  3  0  0  0  0  0  0
  182.0730  180.3990  138.3720 C   0  0  1  0  0  3  0  0  0  0  0  0
  180.7900  177.3550  140.4790 C   0  0  0  0  0  0  0  0  0  0  0  0
  179.7100  176.8950  141.1090 C   0  0  0  0  0  2  0  0  0  0  0  0
  182.6190  178.1710  137.0720 C   0  0  2  0  0  3  0  0  0  0  0  0
  180.6230  178.4870  139.4950 C   0  0  1  0  0  3  0  0  0  0  0  0
  182.2070  175.6640  139.3390 C   0  0  0  0  0  3  0  0  0  0  0  0
  182.7370  179.7040  137.1620 C   0  0  1  0  0  3  0  0  0  0  0  0
  180.4900  179.8080  140.2330 C   0  0  0  0  0  2  0  0  0  0  0  0
  182.6430  175.3170  136.9520 C   0  0  0  0  0  2  0  0  0  0  0  0
  182.8180  176.0850  138.2300 C   0  0  0  0  0  0  0  0  0  0  0  0
  183.3030  176.0690  135.7790 C   0  0  0  0  0  2  0  0  0  0  0  0
  183.2980  177.4280  138.1230 N   0  0  0  0  0  0  0  0  0  0  0  0
  182.9230  177.5680  135.6960 C   0  0  0  0  0  2  0  0  0  0  0  0
  181.3730  180.3960  137.0030 C   0  0  1  0  0  3  0  0  0  0  0  0
  180.1490  179.4880  136.8740 C   0  0  0  0  0  2  0  0  0  0  0  0
  178.9310  180.2920  136.4490 C   0  0  0  0  0  2  0  0  0  0  0  0
  179.0620  182.6610  136.1730 O   0  0  0  0  0  1  0  0  0  0  0  0
  179.3240  181.4450  135.5400 C   0  0  0  0  0  2  0  0  0  0  0  0
  186.7140  178.3850  139.5110 C   0  0  0  0  0  2  0  0  0  0  0  0
  186.2990  178.0760  143.3800 C   0  0  0  0  0  0  0  0  0  0  0  0
  184.9140  178.5780  143.4780 C   0  0  0  0  0  0  0  0  0  0  0  0
  184.1020  178.6690  145.0310 Cl  0  0  0  0  0  0  0  0  0  0  0  0
  184.8970  178.9050  141.0560 C   0  0  0  0  0  3  0  0  0  0  0  0
  187.0060  178.0270  142.0540 C   0  0  0  0  0  2  0  0  0  0  0  0
  186.1550  178.4790  140.8930 C   0  0  0  0  0  0  0  0  0  0  0  0
  186.9070  177.6910  144.4140 O   0  0  0  0  0  0  0  0  0  0  0  0
  184.2640  178.9660  142.3830 C   0  0  0  0  0  3  0  0  0  0  0  0
  186.1870  177.0800  137.3320 C   0  0  1  0  0  3  0  0  0  0  0  0
  187.2370  177.9330  136.6110 C   0  0  1  0  0  3  0  0  0  0  0  0
  187.0130  179.3080  136.7700 O   0  0  0  0  0  1  0  0  0  0  0  0
  188.5640  177.5630  136.9220 O   0  0  0  0  0  0  0  0  0  0  0  0
  189.1600  176.9940  135.7850 C   0  0  0  0  0  2  0  0  0  0  0  0
  190.4880  176.3750  136.1670 C   0  0  0  0  0  2  0  0  0  0  0  0
  190.3300  174.8730  136.2730 C   0  0  0  0  0  2  0  0  0  0  0  0
  189.9780  174.5360  137.5810 O   0  0  0  0  0  1  0  0  0  0  0  0
  186.7040  175.7880  137.6330 O   0  0  0  0  0  0  0  0  0  0  0  0
  186.7140  174.4440  135.5770 N   0  0  0  0  0  1  0  0  0  0  0  0
  186.3130  174.6470  136.9300 C   0  0  0  0  0  0  0  0  0  0  0  0
  185.6040  173.7800  137.5020 O   0  0  0  0  0  0  0  0  0  0  0  0
  1  2  2  0  0  0  0
  1 23  1  0  0  0  0
  4 12  1  1  0  0  0
  5  4  1  0  0  0  0
  6  3  1  0  0  0  0
  6  7  2  0  0  0  0
  8 11  1  0  0  0  0
  8 16  1  0  0  0  0
  9  4  1  0  0  0  0
  9 12  1  0  0  0  0
  9  6  1  0  0  0  0
 10  3  1  0  0  0  0
 11  5  1  0  0  0  0
 13 14  1  0  0  0  0
 14 10  2  0  0  0  0
 15 13  1  0  0  0  0
 16 14  1  0  0  0  0
 16  2  1  0  0  0  0
 17 15  1  0  0  0  0
 17  8  1  0  0  0  0
 18 11  1  0  0  0  0
 18  5  1  0  0  0  0
 19 18  1  0  0  0  0
 20 19  1  0  0  0  0
 22 21  1  0  0  0  0
 22 20  1  0  0  0  0
 23 29  1  0  0  0  0
 24 25  1  0  0  0  0
 24 30  2  0  0  0  0
 25 26  1  0  0  0  0
 27 31  1  0  0  0  0
 28 24  1  0  0  0  0
 29 27  2  0  0  0  0
 29 28  1  0  0  0  0
 31 25  2  0  0  0  0
 32 40  1  0  0  0  0
 32  1  1  0  0  0  0
 33 34  1  0  0  0  0
 33 35  1  0  0  0  0
 33 32  1  0  0  0  0
 36 37  1  0  0  0  0
 36 35  1  0  0  0  0
 37 38  1  0  0  0  0
 38 39  1  0  0  0  0
 41 42  1  0  0  0  0
 42 43  2  0  0  0  0
 42 40  1  0  0  0  0
M  END
>  <MODEL>
6

>  <REMARK>
 VINA RESULT:      -3.4      3.214      7.140
  Name = 
  14 active torsions:
  status: ('A' for Active; 'I' for Inactive)
    1  A    between atoms: C_1  and  C_34
    2  A    between atoms: C_1  and  C_35
    3  A    between atoms: C_5  and  C_18
    4  A    between atoms: C_5  and  C_23
    5  A    between atoms: C_8  and  C_21
    6  A    between atoms: C_8  and  O_30
    7  A    between atoms: C_8  and  C_34
    8  A    between atoms: C_10  and  C_41
    9  A    between atoms: C_10  and  C_42
   10  A    between atoms: O_16  and  C_21
   11  A    between atoms: O_16  and  C_23
   12  A    between atoms: C_22  and  C_42
   13  A    between atoms: O_30  and  C_33
   14  A    between atoms: N_36  and  C_38
                            x       y       z     vdW  Elec       q    Type
                         _______ _______ _______ _____ _____    ______ ____

>  <TORSDO>
F 14

$$$$
=
 OpenBabel11052416453D

 43 47  0  0  1  0  0  0  0  0999 V2000
  181.4150  177.2810  137.5380 C   0  0  0  0  0  0  0  0  0  0  0  0
  181.4550  177.5790  138.8440 C   0  0  0  0  0  3  0  0  0  0  0  0
  179.9560  180.4510  138.7780 C   0  0  0  0  0  2  0  0  0  0  0  0
  179.8790  178.6490  141.2720 C   0  0  2  0  0  3  0  0  0  0  0  0
  180.7320  177.7090  142.1720 C   0  0  1  0  0  3  0  0  0  0  0  0
  179.5480  180.8600  140.1690 C   0  0  0  0  0  0  0  0  0  0  0  0
  178.9340  182.0330  140.3230 C   0  0  0  0  0  2  0  0  0  0  0  0
  182.7560  178.6290  140.7550 C   0  0  2  0  0  3  0  0  0  0  0  0
  180.0700  180.1530  141.3960 C   0  0  1  0  0  3  0  0  0  0  0  0
  181.3910  180.7910  138.5060 C   0  0  0  0  0  3  0  0  0  0  0  0
  182.1940  177.5480  141.6970 C   0  0  1  0  0  3  0  0  0  0  0  0
  178.9310  179.4610  142.1260 C   0  0  0  0  0  2  0  0  0  0  0  0
  183.7980  180.4620  138.8270 C   0  0  0  0  0  2  0  0  0  0  0  0
  182.3870  179.9510  138.7930 C   0  0  0  0  0  0  0  0  0  0  0  0
  184.7550  179.3630  139.3320 C   0  0  0  0  0  2  0  0  0  0  0  0
  182.1290  178.7040  139.4430 N   0  0  0  0  0  0  0  0  0  0  0  0
  184.2840  178.6620  140.6300 C   0  0  0  0  0  2  0  0  0  0  0  0
  181.8940  178.1060  143.0980 C   0  0  1  0  0  3  0  0  0  0  0  0
  182.1090  179.6070  143.3040 C   0  0  0  0  0  2  0  0  0  0  0  0
  183.4470  179.8660  143.9780 C   0  0  0  0  0  2  0  0  0  0  0  0
  184.1090  178.9810  146.0950 O   0  0  0  0  0  1  0  0  0  0  0  0
  183.9160  178.6470  144.7540 C   0  0  0  0  0  2  0  0  0  0  0  0
  180.5970  176.0960  137.1250 C   0  0  0  0  0  2  0  0  0  0  0  0
  183.4500  173.4360  137.0030 C   0  0  0  0  0  0  0  0  0  0  0  0
  183.1940  172.9230  135.6420 C   0  0  0  0  0  0  0  0  0  0  0  0
  184.2030  171.6630  134.9550 Cl  0  0  0  0  0  0  0  0  0  0  0  0
  181.3190  174.4780  135.4460 C   0  0  0  0  0  3  0  0  0  0  0  0
  182.5670  174.4940  137.6040 C   0  0  0  0  0  2  0  0  0  0  0  0
  181.4800  174.9780  136.6770 C   0  0  0  0  0  0  0  0  0  0  0  0
  184.4110  172.9820  137.6790 O   0  0  0  0  0  0  0  0  0  0  0  0
  182.1910  173.4170  134.9190 C   0  0  0  0  0  3  0  0  0  0  0  0
  182.2310  178.0140  136.5090 C   0  0  1  0  0  3  0  0  0  0  0  0
  183.4960  177.2190  136.1660 C   0  0  1  0  0  3  0  0  0  0  0  0
  183.7040  177.1110  134.7830 O   0  0  0  0  0  1  0  0  0  0  0  0
  184.6430  177.6750  136.8510 O   0  0  0  0  0  0  0  0  0  0  0  0
  185.5350  176.6030  137.0170 C   0  0  0  0  0  2  0  0  0  0  0  0
  186.9060  177.1370  137.3720 C   0  0  0  0  0  2  0  0  0  0  0  0
  187.1740  178.4000  136.5810 C   0  0  0  0  0  2  0  0  0  0  0  0
  187.4300  178.0660  135.2500 O   0  0  0  0  0  1  0  0  0  0  0  0
  181.4650  178.2760  135.3370 O   0  0  0  0  0  0  0  0  0  0  0  0
  181.0590  180.6560  134.8860 N   0  0  0  0  0  1  0  0  0  0  0  0
  180.5890  179.3590  135.2470 C   0  0  0  0  0  0  0  0  0  0  0  0
  179.3650  179.1870  135.4790 O   0  0  0  0  0  0  0  0  0  0  0  0
  1  2  2  0  0  0  0
  2 16  1  0  0  0  0
  3  6  1  0  0  0  0
  4  9  1  0  0  0  0
  4 12  1  1  0  0  0
  4  5  1  0  0  0  0
  5 18  1  0  0  0  0
  6  7  2  0  0  0  0
  6  9  1  0  0  0  0
  8 11  1  0  0  0  0
  9 12  1  0  0  0  0
 10  3  1  0  0  0  0
 10 14  2  0  0  0  0
 11  5  1  0  0  0  0
 11 18  1  0  0  0  0
 13 15  1  0  0  0  0
 14 13  1  0  0  0  0
 14 16  1  0  0  0  0
 15 17  1  0  0  0  0
 16  8  1  0  0  0  0
 17  8  1  0  0  0  0
 18 19  1  0  0  0  0
 19 20  1  0  0  0  0
 20 22  1  0  0  0  0
 22 21  1  0  0  0  0
 23  1  1  0  0  0  0
 24 28  1  0  0  0  0
 24 30  2  0  0  0  0
 25 24  1  0  0  0  0
 26 25  1  0  0  0  0
 27 29  2  0  0  0  0
 29 23  1  0  0  0  0
 29 28  1  0  0  0  0
 31 27  1  0  0  0  0
 31 25  2  0  0  0  0
 32  1  1  0  0  0  0
 33 32  1  0  0  0  0
 33 35  1  0  0  0  0
 34 33  1  0  0  0  0
 35 36  1  0  0  0  0
 36 37  1  0  0  0  0
 38 37  1  0  0  0  0
 39 38  1  0  0  0  0
 40 32  1  0  0  0  0
 41 42  1  0  0  0  0
 42 40  1  0  0  0  0
 42 43  2  0  0  0  0
M  END
>  <MODEL>
7

>  <REMARK>
 VINA RESULT:      -3.1      2.997      7.620
  Name = 
  14 active torsions:
  status: ('A' for Active; 'I' for Inactive)
    1  A    between atoms: C_1  and  C_34
    2  A    between atoms: C_1  and  C_35
    3  A    between atoms: C_5  and  C_18
    4  A    between atoms: C_5  and  C_23
    5  A    between atoms: C_8  and  C_21
    6  A    between atoms: C_8  and  O_30
    7  A    between atoms: C_8  and  C_34
    8  A    between atoms: C_10  and  C_41
    9  A    between atoms: C_10  and  C_42
   10  A    between atoms: O_16  and  C_21
   11  A    between atoms: O_16  and  C_23
   12  A    between atoms: C_22  and  C_42
   13  A    between atoms: O_30  and  C_33
   14  A    between atoms: N_36  and  C_38
                            x       y       z     vdW  Elec       q    Type
                         _______ _______ _______ _____ _____    ______ ____

>  <TORSDO>
F 14

$$$$
=
 OpenBabel11052416453D

 43 47  0  0  1  0  0  0  0  0999 V2000
  185.1970  178.1460  138.8720 C   0  0  0  0  0  0  0  0  0  0  0  0
  186.1020  177.5290  138.0990 C   0  0  0  0  0  3  0  0  0  0  0  0
  188.4280  178.1400  135.9260 C   0  0  0  0  0  2  0  0  0  0  0  0
  188.2060  175.4080  137.3250 C   0  0  2  0  0  3  0  0  0  0  0  0
  187.2040  174.3180  137.8050 C   0  0  1  0  0  3  0  0  0  0  0  0
  189.1020  176.8600  135.5080 C   0  0  0  0  0  0  0  0  0  0  0  0
  190.0740  176.9310  134.5990 C   0  0  0  0  0  2  0  0  0  0  0  0
  185.4360  175.7230  136.4450 C   0  0  2  0  0  3  0  0  0  0  0  0
  188.5240  175.5060  135.8400 C   0  0  1  0  0  3  0  0  0  0  0  0
  187.1580  178.3650  135.1620 C   0  0  0  0  0  3  0  0  0  0  0  0
  185.7240  174.6640  137.5250 C   0  0  1  0  0  3  0  0  0  0  0  0
  189.4550  174.7550  136.7770 C   0  0  0  0  0  2  0  0  0  0  0  0
  184.8260  177.8380  134.6240 C   0  0  0  0  0  2  0  0  0  0  0  0
  185.9840  177.8860  135.5780 C   0  0  0  0  0  0  0  0  0  0  0  0
  183.6300  177.1060  135.2670 C   0  0  0  0  0  2  0  0  0  0  0  0
  185.8990  177.0690  136.7480 N   0  0  0  0  0  0  0  0  0  0  0  0
  183.9960  175.7490  135.9180 C   0  0  0  0  0  2  0  0  0  0  0  0
  186.3460  173.3890  136.9300 C   0  0  1  0  0  3  0  0  0  0  0  0
  186.6500  173.4050  135.4310 C   0  0  0  0  0  2  0  0  0  0  0  0
  187.2510  172.0780  134.9950 C   0  0  0  0  0  2  0  0  0  0  0  0
  185.9770  170.1670  135.6500 O   0  0  0  0  0  1  0  0  0  0  0  0
  186.1670  171.0830  134.6150 C   0  0  0  0  0  2  0  0  0  0  0  0
  185.6430  178.6010  140.2270 C   0  0  0  0  0  2  0  0  0  0  0  0
  188.9420  177.4740  141.9830 C   0  0  0  0  0  0  0  0  0  0  0  0
  189.8560  177.6560  140.8380 C   0  0  0  0  0  0  0  0  0  0  0  0
  191.5710  177.3220  140.9980 Cl  0  0  0  0  0  0  0  0  0  0  0  0
  187.9570  178.3790  139.4800 C   0  0  0  0  0  3  0  0  0  0  0  0
  187.4680  177.7310  141.8370 C   0  0  0  0  0  2  0  0  0  0  0  0
  187.0670  178.2200  140.4670 C   0  0  0  0  0  0  0  0  0  0  0  0
  189.3910  177.0920  143.0960 O   0  0  0  0  0  0  0  0  0  0  0  0
  189.3850  178.0800  139.6660 C   0  0  0  0  0  3  0  0  0  0  0  0
  183.7540  178.2980  138.4750 C   0  0  1  0  0  3  0  0  0  0  0  0
  182.8960  177.2350  139.1700 C   0  0  1  0  0  3  0  0  0  0  0  0
  182.3010  177.7120  140.3480 O   0  0  0  0  0  1  0  0  0  0  0  0
  181.9640  176.6190  138.3060 O   0  0  0  0  0  0  0  0  0  0  0  0
  180.6690  176.8230  138.8070 C   0  0  0  0  0  2  0  0  0  0  0  0
  179.9210  175.5070  138.8250 C   0  0  0  0  0  2  0  0  0  0  0  0
  179.9910  174.9090  140.2150 C   0  0  0  0  0  2  0  0  0  0  0  0
  179.1700  173.7820  140.2760 O   0  0  0  0  0  1  0  0  0  0  0  0
  183.2760  179.6070  138.7700 O   0  0  0  0  0  0  0  0  0  0  0  0
  181.6270  179.7670  136.9570 N   0  0  0  0  0  1  0  0  0  0  0  0
  182.0610  180.0850  138.2760 C   0  0  0  0  0  0  0  0  0  0  0  0
  181.3330  180.8000  139.0120 O   0  0  0  0  0  0  0  0  0  0  0  0
  1 23  1  0  0  0  0
  2  1  2  0  0  0  0
  4 12  1  1  0  0  0
  4  5  1  0  0  0  0
  6  9  1  0  0  0  0
  6  3  1  0  0  0  0
  7  6  2  0  0  0  0
  8 16  1  0  0  0  0
  8 11  1  0  0  0  0
  9 12  1  0  0  0  0
  9  4  1  0  0  0  0
 10 14  2  0  0  0  0
 10  3  1  0  0  0  0
 11  5  1  0  0  0  0
 13 15  1  0  0  0  0
 13 14  1  0  0  0  0
 14 16  1  0  0  0  0
 15 17  1  0  0  0  0
 16  2  1  0  0  0  0
 17  8  1  0  0  0  0
 18 11  1  0  0  0  0
 18  5  1  0  0  0  0
 19 18  1  0  0  0  0
 20 19  1  0  0  0  0
 22 20  1  0  0  0  0
 22 21  1  0  0  0  0
 23 29  1  0  0  0  0
 24 30  2  0  0  0  0
 25 26  1  0  0  0  0
 25 24  1  0  0  0  0
 27 31  1  0  0  0  0
 27 29  2  0  0  0  0
 28 24  1  0  0  0  0
 29 28  1  0  0  0  0
 31 25  2  0  0  0  0
 32 40  1  0  0  0  0
 32  1  1  0  0  0  0
 32 33  1  0  0  0  0
 33 34  1  0  0  0  0
 35 36  1  0  0  0  0
 35 33  1  0  0  0  0
 36 37  1  0  0  0  0
 37 38  1  0  0  0  0
 38 39  1  0  0  0  0
 41 42  1  0  0  0  0
 42 40  1  0  0  0  0
 42 43  2  0  0  0  0
M  END
>  <MODEL>
8

>  <REMARK>
 VINA RESULT:      -3.0      3.089      4.755
  Name = 
  14 active torsions:
  status: ('A' for Active; 'I' for Inactive)
    1  A    between atoms: C_1  and  C_34
    2  A    between atoms: C_1  and  C_35
    3  A    between atoms: C_5  and  C_18
    4  A    between atoms: C_5  and  C_23
    5  A    between atoms: C_8  and  C_21
    6  A    between atoms: C_8  and  O_30
    7  A    between atoms: C_8  and  C_34
    8  A    between atoms: C_10  and  C_41
    9  A    between atoms: C_10  and  C_42
   10  A    between atoms: O_16  and  C_21
   11  A    between atoms: O_16  and  C_23
   12  A    between atoms: C_22  and  C_42
   13  A    between atoms: O_30  and  C_33
   14  A    between atoms: N_36  and  C_38
                            x       y       z     vdW  Elec       q    Type
                         _______ _______ _______ _____ _____    ______ ____

>  <TORSDO>
F 14

$$$$
=
 OpenBabel11052416453D

 43 47  0  0  1  0  0  0  0  0999 V2000
  182.8730  177.8000  138.9170 C   0  0  0  0  0  0  0  0  0  0  0  0
  183.6040  176.8830  138.2670 C   0  0  0  0  0  3  0  0  0  0  0  0
  186.3000  176.8670  136.4690 C   0  0  0  0  0  2  0  0  0  0  0  0
  185.1390  174.2760  137.6580 C   0  0  2  0  0  3  0  0  0  0  0  0
  183.8190  173.4980  137.9320 C   0  0  1  0  0  3  0  0  0  0  0  0
  186.6530  175.4580  136.0690 C   0  0  0  0  0  0  0  0  0  0  0  0
  187.7300  175.2740  135.3060 C   0  0  0  0  0  2  0  0  0  0  0  0
  182.7200  175.3670  136.4330 C   0  0  2  0  0  3  0  0  0  0  0  0
  185.6860  174.3120  136.2390 C   0  0  1  0  0  3  0  0  0  0  0  0
  185.2650  177.4520  135.5550 C   0  0  0  0  0  3  0  0  0  0  0  0
  182.5470  174.2480  137.4760 C   0  0  1  0  0  3  0  0  0  0  0  0
  186.2300  173.3120  137.2450 C   0  0  0  0  0  2  0  0  0  0  0  0
  182.9820  177.6050  134.6770 C   0  0  0  0  0  2  0  0  0  0  0  0
  183.9570  177.3100  135.7790 C   0  0  0  0  0  0  0  0  0  0  0  0
  181.5520  177.2220  135.1070 C   0  0  0  0  0  2  0  0  0  0  0  0
  183.4830  176.5250  136.8760 N   0  0  0  0  0  0  0  0  0  0  0  0
  181.4350  175.8040  135.7190 C   0  0  0  0  0  2  0  0  0  0  0  0
  182.8780  172.8640  136.8950 C   0  0  1  0  0  3  0  0  0  0  0  0
  183.3910  172.8250  135.4540 C   0  0  0  0  0  2  0  0  0  0  0  0
  182.4960  171.9470  134.5940 C   0  0  0  0  0  2  0  0  0  0  0  0
  183.7080  170.2470  135.7530 O   0  0  0  0  0  1  0  0  0  0  0  0
  182.9750  170.5060  134.5940 C   0  0  0  0  0  2  0  0  0  0  0  0
  183.2130  178.0610  140.3520 C   0  0  0  0  0  2  0  0  0  0  0  0
  187.0220  178.4470  139.5930 C   0  0  0  0  0  0  0  0  0  0  0  0
  187.5190  178.3400  140.9780 C   0  0  0  0  0  0  0  0  0  0  0  0
  189.2370  178.4180  141.3230 Cl  0  0  0  0  0  0  0  0  0  0  0  0
  185.2130  178.1020  141.7520 C   0  0  0  0  0  3  0  0  0  0  0  0
  185.5470  178.4110  139.3010 C   0  0  0  0  0  2  0  0  0  0  0  0
  184.6890  178.2100  140.5240 C   0  0  0  0  0  0  0  0  0  0  0  0
  187.8330  178.5790  138.6380 O   0  0  0  0  0  0  0  0  0  0  0  0
  186.6630  178.1800  141.9860 C   0  0  0  0  0  3  0  0  0  0  0  0
  181.6830  178.4820  138.3000 C   0  0  1  0  0  3  0  0  0  0  0  0
  180.4210  178.1990  139.1220 C   0  0  1  0  0  3  0  0  0  0  0  0
  179.4670  179.2210  139.0110 O   0  0  0  0  0  1  0  0  0  0  0  0
  179.8730  176.9200  138.8790 O   0  0  0  0  0  0  0  0  0  0  0  0
  179.3820  176.3940  140.0840 C   0  0  0  0  0  2  0  0  0  0  0  0
  179.0610  174.9260  139.9020 C   0  0  0  0  0  2  0  0  0  0  0  0
  179.1710  174.5670  138.4350 C   0  0  0  0  0  2  0  0  0  0  0  0
  179.3270  173.1860  138.3060 O   0  0  0  0  0  1  0  0  0  0  0  0
  181.9020  179.8830  138.1740 O   0  0  0  0  0  0  0  0  0  0  0  0
  180.7200  180.1430  136.0370 N   0  0  0  0  0  1  0  0  0  0  0  0
  181.1810  180.6730  137.2770 C   0  0  0  0  0  0  0  0  0  0  0  0
  180.9250  181.8680  137.5730 O   0  0  0  0  0  0  0  0  0  0  0  0
  1 23  1  0  0  0  0
  2  1  2  0  0  0  0
  4 12  1  1  0  0  0
  4  5  1  0  0  0  0
  6  9  1  0  0  0  0
  6  3  1  0  0  0  0
  7  6  2  0  0  0  0
  8 16  1  0  0  0  0
  8 11  1  0  0  0  0
  9 12  1  0  0  0  0
  9  4  1  0  0  0  0
 10 14  2  0  0  0  0
 10  3  1  0  0  0  0
 11  5  1  0  0  0  0
 13 15  1  0  0  0  0
 13 14  1  0  0  0  0
 14 16  1  0  0  0  0
 15 17  1  0  0  0  0
 16  2  1  0  0  0  0
 17  8  1  0  0  0  0
 18 11  1  0  0  0  0
 18  5  1  0  0  0  0
 19 18  1  0  0  0  0
 20 19  1  0  0  0  0
 22 20  1  0  0  0  0
 22 21  1  0  0  0  0
 23 29  1  0  0  0  0
 24 25  1  0  0  0  0
 25 26  1  0  0  0  0
 25 31  2  0  0  0  0
 27 31  1  0  0  0  0
 28 24  1  0  0  0  0
 28 29  1  0  0  0  0
 29 27  2  0  0  0  0
 30 24  2  0  0  0  0
 32  1  1  0  0  0  0
 32 33  1  0  0  0  0
 34 33  1  0  0  0  0
 35 33  1  0  0  0  0
 35 36  1  0  0  0  0
 37 36  1  0  0  0  0
 38 37  1  0  0  0  0
 39 38  1  0  0  0  0
 40 32  1  0  0  0  0
 41 42  1  0  0  0  0
 42 43  2  0  0  0  0
 42 40  1  0  0  0  0
M  END
>  <MODEL>
9

>  <REMARK>
 VINA RESULT:      -2.8      2.054      2.815
  Name = 
  14 active torsions:
  status: ('A' for Active; 'I' for Inactive)
    1  A    between atoms: C_1  and  C_34
    2  A    between atoms: C_1  and  C_35
    3  A    between atoms: C_5  and  C_18
    4  A    between atoms: C_5  and  C_23
    5  A    between atoms: C_8  and  C_21
    6  A    between atoms: C_8  and  O_30
    7  A    between atoms: C_8  and  C_34
    8  A    between atoms: C_10  and  C_41
    9  A    between atoms: C_10  and  C_42
   10  A    between atoms: O_16  and  C_21
   11  A    between atoms: O_16  and  C_23
   12  A    between atoms: C_22  and  C_42
   13  A    between atoms: O_30  and  C_33
   14  A    between atoms: N_36  and  C_38
                            x       y       z     vdW  Elec       q    Type
                         _______ _______ _______ _____ _____    ______ ____

>  <TORSDO>
F 14

$$$$
