=
 OpenBabel11052412313D

 30 32  0  0  1  0  0  0  0  0999 V2000
  187.0960  178.0830  142.4140 C   0  0  0  0  0  2  0  0  0  0  0  0
  185.0780  179.3010  141.3960 N   0  0  0  0  0  0  0  0  0  0  0  0
  188.6180  177.3780  138.3760 C   0  0  0  0  0  2  0  0  0  0  0  0
  188.6120  177.9100  142.2240 C   0  0  2  0  0  3  0  0  0  0  0  0
  190.1440  177.2650  138.2930 C   0  0  0  0  0  2  0  0  0  0  0  0
  184.1650  178.4180  140.6690 C   0  0  0  0  0  2  0  0  0  0  0  0
  184.6450  179.3500  142.7870 C   0  0  0  0  0  1  0  0  0  0  0  0
  188.2660  178.0630  139.6950 C   0  0  2  0  0  3  0  0  0  0  0  0
  184.4340  178.4900  139.1510 C   0  0  0  0  0  2  0  0  0  0  0  0
  186.4990  178.8740  141.2440 C   0  0  2  0  0  3  0  0  0  0  0  0
  188.9300  177.2870  140.8440 C   0  0  1  0  0  3  0  0  0  0  0  0
  190.6340  176.4830  139.3590 O   0  0  0  0  0  0  0  0  0  0  0  0
  190.4290  177.2160  140.5460 C   0  0  0  0  0  2  0  0  0  0  0  0
  185.9200  178.6900  138.8220 C   0  0  0  0  0  2  0  0  0  0  0  0
  186.7630  178.1010  139.9460 C   0  0  1  0  0  3  0  0  0  0  0  0
  189.1810  177.1360  143.4290 C   0  0  1  0  0  3  0  0  0  0  0  0
  190.7810  178.9100  143.7210 O   0  0  0  0  0  0  0  0  0  0  0  0
  190.4750  177.7090  143.9540 C   0  0  0  0  0  0  0  0  0  0  0  0
  191.8320  175.7850  144.1830 O   0  0  0  0  0  0  0  0  0  0  0  0
  191.4150  176.8590  144.6980 C   0  0  0  0  0  0  0  0  0  0  0  0
  191.8420  177.2410  145.9760 O   0  0  0  0  0  0  0  0  0  0  0  0
  192.3720  175.7350  147.7790 C   0  0  0  0  0  1  0  0  0  0  0  0
  191.3220  176.6350  147.1520 C   0  0  0  0  0  2  0  0  0  0  0  0
  188.1460  176.9860  144.5430 C   0  0  0  0  0  2  0  0  0  0  0  0
  188.3400  177.9670  145.5270 O   0  0  0  0  0  0  0  0  0  0  0  0
  187.5840  177.5470  146.6260 C   0  0  0  0  0  2  0  0  0  0  0  0
  186.1940  177.5720  146.3180 O   0  0  0  0  0  0  0  0  0  0  0  0
  185.8330  179.6860  147.4560 O   0  0  0  0  0  1  0  0  0  0  0  0
  185.3670  178.6530  146.6500 C   0  0  0  0  0  0  0  0  0  0  0  0
  184.1950  178.7020  146.1950 O   0  0  0  0  0  0  0  0  0  0  0  0
  2  7  1  0  0  0  0
  4  1  1  0  0  0  0
  4 16  1  1  0  0  0
  5  3  1  0  0  0  0
  5 12  1  0  0  0  0
  6  2  1  0  0  0  0
  8  3  1  6  0  0  0
  8 15  1  0  0  0  0
  8 11  1  0  0  0  0
  9  6  1  0  0  0  0
 10  2  1  0  0  0  0
 10  1  1  1  0  0  0
 11 13  1  6  0  0  0
 11  4  1  0  0  0  0
 12 13  1  0  0  0  0
 14  9  1  0  0  0  0
 15 14  1  6  0  0  0
 15 10  1  0  0  0  0
 16 18  1  0  0  0  0
 16 24  1  1  0  0  0
 17 18  2  0  0  0  0
 18 20  1  0  0  0  0
 19 20  2  0  0  0  0
 20 21  1  0  0  0  0
 21 23  1  0  0  0  0
 23 22  1  0  0  0  0
 24 25  1  0  0  0  0
 25 26  1  0  0  0  0
 27 26  1  0  0  0  0
 27 29  1  0  0  0  0
 29 28  1  0  0  0  0
 30 29  2  0  0  0  0
M  END
>  <MODEL>
1

>  <REMARK>
 VINA RESULT:      -7.8      0.000      0.000
  Name = 
  10 active torsions:
  status: ('A' for Active; 'I' for Inactive)
    1  A    between atoms: C_4  and  C_13
    2  A    between atoms: O_5  and  C_12
    3  A    between atoms: O_5  and  C_21
    4  A    between atoms: O_7  and  C_15
    5  A    between atoms: O_7  and  C_16
    6  A    between atoms: C_8  and  C_12
    7  A    between atoms: C_8  and  C_13
    8  A    between atoms: C_13  and  C_27
    9  A    between atoms: C_16  and  O_30
   10  A    between atoms: C_27  and  O_30
                            x       y       z     vdW  Elec       q    Type
                         _______ _______ _______ _____ _____    ______ ____

>  <TORSDO>
F 10

$$$$
=
 OpenBabel11052412313D

 30 32  0  0  1  0  0  0  0  0999 V2000
  187.5130  178.0610  143.3540 C   0  0  0  0  0  2  0  0  0  0  0  0
  185.3220  177.9280  144.6880 N   0  0  0  0  0  0  0  0  0  0  0  0
  189.7310  177.4660  147.0760 C   0  0  0  0  0  2  0  0  0  0  0  0
  188.9100  177.4240  143.2790 C   0  0  2  0  0  3  0  0  0  0  0  0
  191.0900  176.7840  146.8920 C   0  0  0  0  0  2  0  0  0  0  0  0
  185.1080  179.0670  145.5800 C   0  0  0  0  0  2  0  0  0  0  0  0
  184.7360  178.2520  143.3930 C   0  0  0  0  0  1  0  0  0  0  0  0
  188.8940  177.1980  145.8260 C   0  0  2  0  0  3  0  0  0  0  0  0
  185.5120  178.7080  147.0250 C   0  0  0  0  0  2  0  0  0  0  0  0
  186.7650  177.5600  144.5960 C   0  0  2  0  0  3  0  0  0  0  0  0
  189.6940  177.6500  144.5940 C   0  0  1  0  0  3  0  0  0  0  0  0
  191.7580  177.3200  145.7720 O   0  0  0  0  0  0  0  0  0  0  0  0
  191.0400  176.9220  144.6260 C   0  0  0  0  0  2  0  0  0  0  0  0
  186.7110  177.7520  147.0850 C   0  0  0  0  0  2  0  0  0  0  0  0
  187.5690  177.9510  145.8430 C   0  0  1  0  0  3  0  0  0  0  0  0
  189.6210  177.9280  142.0080 C   0  0  1  0  0  3  0  0  0  0  0  0
  190.3800  175.6650  141.6960 O   0  0  0  0  0  0  0  0  0  0  0  0
  190.4460  176.8680  141.3200 C   0  0  0  0  0  0  0  0  0  0  0  0
  192.5450  177.6010  140.5170 O   0  0  0  0  0  0  0  0  0  0  0  0
  191.3710  177.2320  140.2390 C   0  0  0  0  0  0  0  0  0  0  0  0
  190.9470  177.1720  138.9060 O   0  0  0  0  0  0  0  0  0  0  0  0
  191.8760  175.2110  137.8590 C   0  0  0  0  0  1  0  0  0  0  0  0
  190.6110  175.9400  138.2810 C   0  0  0  0  0  2  0  0  0  0  0  0
  188.6420  178.5880  141.0390 C   0  0  0  0  0  2  0  0  0  0  0  0
  188.0650  177.6270  140.1950 O   0  0  0  0  0  0  0  0  0  0  0  0
  187.1730  178.3330  139.3810 C   0  0  0  0  0  2  0  0  0  0  0  0
  186.0960  178.8550  140.1530 O   0  0  0  0  0  0  0  0  0  0  0  0
  183.9080  177.9290  139.6530 O   0  0  0  0  0  1  0  0  0  0  0  0
  184.7990  178.9960  139.6400 C   0  0  0  0  0  0  0  0  0  0  0  0
  184.4290  180.1080  139.1840 O   0  0  0  0  0  0  0  0  0  0  0  0
  2  6  1  0  0  0  0
  4 16  1  6  0  0  0
  4  1  1  0  0  0  0
  4 11  1  0  0  0  0
  5  3  1  0  0  0  0
  6  9  1  0  0  0  0
  7  2  1  0  0  0  0
  8 15  1  0  0  0  0
  8  3  1  1  0  0  0
  9 14  1  0  0  0  0
 10  1  1  6  0  0  0
 10  2  1  0  0  0  0
 10 15  1  0  0  0  0
 11 13  1  6  0  0  0
 11  8  1  0  0  0  0
 12  5  1  0  0  0  0
 13 12  1  0  0  0  0
 15 14  1  1  0  0  0
 16 24  1  6  0  0  0
 18 17  2  0  0  0  0
 18 16  1  0  0  0  0
 20 19  2  0  0  0  0
 20 18  1  0  0  0  0
 21 20  1  0  0  0  0
 22 23  1  0  0  0  0
 23 21  1  0  0  0  0
 25 24  1  0  0  0  0
 26 27  1  0  0  0  0
 26 25  1  0  0  0  0
 29 28  1  0  0  0  0
 29 27  1  0  0  0  0
 30 29  2  0  0  0  0
M  END
>  <MODEL>
2

>  <REMARK>
 VINA RESULT:      -7.8      2.493      6.018
  Name = 
  10 active torsions:
  status: ('A' for Active; 'I' for Inactive)
    1  A    between atoms: C_4  and  C_13
    2  A    between atoms: O_5  and  C_12
    3  A    between atoms: O_5  and  C_21
    4  A    between atoms: O_7  and  C_15
    5  A    between atoms: O_7  and  C_16
    6  A    between atoms: C_8  and  C_12
    7  A    between atoms: C_8  and  C_13
    8  A    between atoms: C_13  and  C_27
    9  A    between atoms: C_16  and  O_30
   10  A    between atoms: C_27  and  O_30
                            x       y       z     vdW  Elec       q    Type
                         _______ _______ _______ _____ _____    ______ ____

>  <TORSDO>
F 10

$$$$
=
 OpenBabel11052412313D

 30 32  0  0  1  0  0  0  0  0999 V2000
  186.6930  177.8690  142.8260 C   0  0  0  0  0  2  0  0  0  0  0  0
  184.1390  178.1340  142.8580 N   0  0  0  0  0  0  0  0  0  0  0  0
  186.7270  178.3540  147.1720 C   0  0  0  0  0  2  0  0  0  0  0  0
  187.8410  177.2300  143.6240 C   0  0  2  0  0  3  0  0  0  0  0  0
  187.8880  177.6410  147.8720 C   0  0  0  0  0  2  0  0  0  0  0  0
  183.6930  179.4820  143.2110 C   0  0  0  0  0  2  0  0  0  0  0  0
  184.3040  178.0770  141.4110 C   0  0  0  0  0  1  0  0  0  0  0  0
  186.5670  177.7430  145.7810 C   0  0  2  0  0  3  0  0  0  0  0  0
  183.2930  179.5510  144.6990 C   0  0  0  0  0  2  0  0  0  0  0  0
  185.3750  177.7480  143.6000 C   0  0  2  0  0  3  0  0  0  0  0  0
  187.9180  177.8190  145.0530 C   0  0  1  0  0  3  0  0  0  0  0  0
  189.0840  177.8300  147.1500 O   0  0  0  0  0  0  0  0  0  0  0  0
  188.9570  177.1240  145.9360 C   0  0  0  0  0  2  0  0  0  0  0  0
  184.1570  178.6450  145.5870 C   0  0  0  0  0  2  0  0  0  0  0  0
  185.5260  178.4760  144.9420 C   0  0  1  0  0  3  0  0  0  0  0  0
  189.1420  177.3450  142.8060 C   0  0  1  0  0  3  0  0  0  0  0  0
  189.6720  174.9980  142.7350 O   0  0  0  0  0  0  0  0  0  0  0  0
  190.0710  176.1690  142.9860 C   0  0  0  0  0  0  0  0  0  0  0  0
  192.0420  175.4110  144.0510 O   0  0  0  0  0  0  0  0  0  0  0  0
  191.4320  176.3690  143.5010 C   0  0  0  0  0  0  0  0  0  0  0  0
  192.0450  177.6230  143.3860 O   0  0  0  0  0  0  0  0  0  0  0  0
  191.0690  179.7070  144.0980 C   0  0  0  0  0  1  0  0  0  0  0  0
  192.0170  178.5710  144.4450 C   0  0  0  0  0  2  0  0  0  0  0  0
  188.8580  177.6110  141.3290 C   0  0  0  0  0  2  0  0  0  0  0  0
  190.0460  177.5590  140.5840 O   0  0  0  0  0  0  0  0  0  0  0  0
  189.7020  176.9450  139.3760 C   0  0  0  0  0  2  0  0  0  0  0  0
  188.7280  177.7170  138.6810 O   0  0  0  0  0  0  0  0  0  0  0  0
  189.4270  177.8340  136.3580 O   0  0  0  0  0  0  0  0  0  0  0  0
  189.0340  178.4630  137.5340 C   0  0  0  0  0  0  0  0  0  0  0  0
  188.9290  179.7160  137.5620 O   0  0  0  0  0  1  0  0  0  0  0  0
  1  4  1  0  0  0  0
  2  6  1  0  0  0  0
  2 10  1  0  0  0  0
  3  5  1  0  0  0  0
  4 16  1  6  0  0  0
  4 11  1  0  0  0  0
  6  9  1  0  0  0  0
  7  2  1  0  0  0  0
  8  3  1  1  0  0  0
  9 14  1  0  0  0  0
 10  1  1  6  0  0  0
 10 15  1  0  0  0  0
 11  8  1  0  0  0  0
 11 13  1  1  0  0  0
 12  5  1  0  0  0  0
 13 12  1  0  0  0  0
 15 14  1  1  0  0  0
 15  8  1  0  0  0  0
 16 24  1  6  0  0  0
 16 18  1  0  0  0  0
 17 18  2  0  0  0  0
 18 20  1  0  0  0  0
 20 19  2  0  0  0  0
 21 20  1  0  0  0  0
 21 23  1  0  0  0  0
 22 23  1  0  0  0  0
 25 24  1  0  0  0  0
 26 25  1  0  0  0  0
 27 26  1  0  0  0  0
 28 29  2  0  0  0  0
 29 30  1  0  0  0  0
 29 27  1  0  0  0  0
M  END
>  <MODEL>
3

>  <REMARK>
 VINA RESULT:      -7.8      2.170      5.882
  Name = 
  10 active torsions:
  status: ('A' for Active; 'I' for Inactive)
    1  A    between atoms: C_4  and  C_13
    2  A    between atoms: O_5  and  C_12
    3  A    between atoms: O_5  and  C_21
    4  A    between atoms: O_7  and  C_15
    5  A    between atoms: O_7  and  C_16
    6  A    between atoms: C_8  and  C_12
    7  A    between atoms: C_8  and  C_13
    8  A    between atoms: C_13  and  C_27
    9  A    between atoms: C_16  and  O_30
   10  A    between atoms: C_27  and  O_30
                            x       y       z     vdW  Elec       q    Type
                         _______ _______ _______ _____ _____    ______ ____

>  <TORSDO>
F 10

$$$$
=
 OpenBabel11052412313D

 30 32  0  0  1  0  0  0  0  0999 V2000
  186.4040  178.1150  144.0660 C   0  0  0  0  0  2  0  0  0  0  0  0
  185.7860  177.9430  146.5530 N   0  0  0  0  0  0  0  0  0  0  0  0
  190.4950  176.9430  145.0750 C   0  0  0  0  0  2  0  0  0  0  0  0
  187.2500  177.4140  142.9910 C   0  0  2  0  0  3  0  0  0  0  0  0
  191.2330  176.2130  143.9490 C   0  0  0  0  0  2  0  0  0  0  0  0
  186.4070  178.9740  147.3840 C   0  0  0  0  0  2  0  0  0  0  0  0
  184.5080  178.4560  146.0760 C   0  0  0  0  0  1  0  0  0  0  0  0
  188.9970  176.8780  144.7800 C   0  0  2  0  0  3  0  0  0  0  0  0
  187.6580  178.4190  148.0950 C   0  0  0  0  0  2  0  0  0  0  0  0
  186.6870  177.5080  145.4460 C   0  0  2  0  0  3  0  0  0  0  0  0
  188.7510  177.4320  143.3670 C   0  0  1  0  0  3  0  0  0  0  0  0
  190.9830  176.8440  142.7130 O   0  0  0  0  0  0  0  0  0  0  0  0
  189.6250  176.6310  142.4000 C   0  0  0  0  0  2  0  0  0  0  0  0
  188.4190  177.3960  147.2410 C   0  0  0  0  0  2  0  0  0  0  0  0
  188.1750  177.6970  145.7680 C   0  0  1  0  0  3  0  0  0  0  0  0
  186.9210  178.0290  141.6170 C   0  0  1  0  0  3  0  0  0  0  0  0
  185.8980  180.0170  142.5100 O   0  0  0  0  0  0  0  0  0  0  0  0
  185.8350  179.0760  141.6730 C   0  0  0  0  0  0  0  0  0  0  0  0
  184.6070  179.6950  139.7490 O   0  0  0  0  0  0  0  0  0  0  0  0
  184.6670  178.9810  140.7870 C   0  0  0  0  0  0  0  0  0  0  0  0
  183.6220  178.1010  141.0990 O   0  0  0  0  0  0  0  0  0  0  0  0
  182.4410  178.9440  143.0220 C   0  0  0  0  0  1  0  0  0  0  0  0
  182.3580  178.5700  141.5510 C   0  0  0  0  0  2  0  0  0  0  0  0
  188.1730  178.5630  140.9240 C   0  0  0  0  0  2  0  0  0  0  0  0
  187.9700  178.6430  139.5380 O   0  0  0  0  0  0  0  0  0  0  0  0
  189.2200  178.3940  138.9630 C   0  0  0  0  0  2  0  0  0  0  0  0
  189.4000  177.0000  138.7350 O   0  0  0  0  0  0  0  0  0  0  0  0
  190.8490  175.0840  138.3800 O   0  0  0  0  0  0  0  0  0  0  0  0
  190.6420  176.3660  138.8750 C   0  0  0  0  0  0  0  0  0  0  0  0
  191.5900  176.9760  139.4350 O   0  0  0  0  0  1  0  0  0  0  0  0
  2  6  1  0  0  0  0
  4 16  1  6  0  0  0
  4 11  1  0  0  0  0
  4  1  1  0  0  0  0
  5  3  1  0  0  0  0
  6  9  1  0  0  0  0
  7  2  1  0  0  0  0
  8  3  1  1  0  0  0
  8 15  1  0  0  0  0
 10  1  1  6  0  0  0
 10 15  1  0  0  0  0
 10  2  1  0  0  0  0
 11 13  1  6  0  0  0
 11  8  1  0  0  0  0
 12  5  1  0  0  0  0
 13 12  1  0  0  0  0
 14  9  1  0  0  0  0
 15 14  1  1  0  0  0
 16 24  1  1  0  0  0
 16 18  1  0  0  0  0
 18 17  2  0  0  0  0
 19 20  2  0  0  0  0
 20 21  1  0  0  0  0
 20 18  1  0  0  0  0
 21 23  1  0  0  0  0
 23 22  1  0  0  0  0
 25 24  1  0  0  0  0
 26 25  1  0  0  0  0
 27 29  1  0  0  0  0
 27 26  1  0  0  0  0
 28 29  2  0  0  0  0
 29 30  1  0  0  0  0
M  END
>  <MODEL>
4

>  <REMARK>
 VINA RESULT:      -7.2      2.463      7.115
  Name = 
  10 active torsions:
  status: ('A' for Active; 'I' for Inactive)
    1  A    between atoms: C_4  and  C_13
    2  A    between atoms: O_5  and  C_12
    3  A    between atoms: O_5  and  C_21
    4  A    between atoms: O_7  and  C_15
    5  A    between atoms: O_7  and  C_16
    6  A    between atoms: C_8  and  C_12
    7  A    between atoms: C_8  and  C_13
    8  A    between atoms: C_13  and  C_27
    9  A    between atoms: C_16  and  O_30
   10  A    between atoms: C_27  and  O_30
                            x       y       z     vdW  Elec       q    Type
                         _______ _______ _______ _____ _____    ______ ____

>  <TORSDO>
F 10

$$$$
=
 OpenBabel11052412313D

 30 32  0  0  1  0  0  0  0  0999 V2000
  187.9220  177.6270  142.8920 C   0  0  0  0  0  2  0  0  0  0  0  0
  190.4120  177.3120  142.3470 N   0  0  0  0  0  0  0  0  0  0  0  0
  188.8740  177.2240  147.1410 C   0  0  0  0  0  2  0  0  0  0  0  0
  186.9960  178.3040  143.9160 C   0  0  2  0  0  3  0  0  0  0  0  0
  187.9140  177.9730  148.0710 C   0  0  0  0  0  2  0  0  0  0  0  0
  190.9060  175.9620  142.6200 C   0  0  0  0  0  2  0  0  0  0  0  0
  189.9220  177.3450  140.9750 C   0  0  0  0  0  1  0  0  0  0  0  0
  188.7210  177.8050  145.7370 C   0  0  2  0  0  3  0  0  0  0  0  0
  191.6350  175.9140  143.9780 C   0  0  0  0  0  2  0  0  0  0  0  0
  189.3840  177.7360  143.3420 C   0  0  2  0  0  3  0  0  0  0  0  0
  187.2380  177.7430  145.3380 C   0  0  1  0  0  3  0  0  0  0  0  0
  186.5820  177.7940  147.6450 O   0  0  0  0  0  0  0  0  0  0  0  0
  186.4390  178.4740  146.4180 C   0  0  0  0  0  2  0  0  0  0  0  0
  191.0090  176.8520  145.0200 C   0  0  0  0  0  2  0  0  0  0  0  0
  189.5320  177.0370  144.7000 C   0  0  1  0  0  3  0  0  0  0  0  0
  185.5410  178.1980  143.4190 C   0  0  1  0  0  3  0  0  0  0  0  0
  185.0590  180.4930  143.9620 O   0  0  0  0  0  0  0  0  0  0  0  0
  184.6490  179.3010  143.9360 C   0  0  0  0  0  0  0  0  0  0  0  0
  183.0740  179.1240  145.6920 O   0  0  0  0  0  0  0  0  0  0  0  0
  183.3120  178.9890  144.4600 C   0  0  0  0  0  0  0  0  0  0  0  0
  182.3080  178.5400  143.5930 O   0  0  0  0  0  0  0  0  0  0  0  0
  179.9270  178.3670  143.9150 C   0  0  0  0  0  1  0  0  0  0  0  0
  181.0790  179.2390  143.4450 C   0  0  0  0  0  2  0  0  0  0  0  0
  185.4720  178.0930  141.8970 C   0  0  0  0  0  2  0  0  0  0  0  0
  185.2420  179.3550  141.3280 O   0  0  0  0  0  0  0  0  0  0  0  0
  184.4640  179.1150  140.1900 C   0  0  0  0  0  2  0  0  0  0  0  0
  185.2450  179.2680  139.0080 O   0  0  0  0  0  0  0  0  0  0  0  0
  186.5290  178.2100  137.2400 O   0  0  0  0  0  0  0  0  0  0  0  0
  185.4250  178.2300  138.0850 C   0  0  0  0  0  0  0  0  0  0  0  0
  184.5890  177.2910  138.0350 O   0  0  0  0  0  1  0  0  0  0  0  0
  1  4  1  0  0  0  0
  2  6  1  0  0  0  0
  2 10  1  0  0  0  0
  3  5  1  0  0  0  0
  4 16  1  6  0  0  0
  4 11  1  0  0  0  0
  6  9  1  0  0  0  0
  7  2  1  0  0  0  0
  8  3  1  1  0  0  0
  9 14  1  0  0  0  0
 10  1  1  6  0  0  0
 10 15  1  0  0  0  0
 11  8  1  0  0  0  0
 11 13  1  1  0  0  0
 12  5  1  0  0  0  0
 13 12  1  0  0  0  0
 15 14  1  1  0  0  0
 15  8  1  0  0  0  0
 16 24  1  6  0  0  0
 16 18  1  0  0  0  0
 18 17  2  0  0  0  0
 18 20  1  0  0  0  0
 20 19  2  0  0  0  0
 21 20  1  0  0  0  0
 23 21  1  0  0  0  0
 23 22  1  0  0  0  0
 25 24  1  0  0  0  0
 26 25  1  0  0  0  0
 27 26  1  0  0  0  0
 28 29  2  0  0  0  0
 29 27  1  0  0  0  0
 30 29  1  0  0  0  0
M  END
>  <MODEL>
5

>  <REMARK>
 VINA RESULT:      -7.1      2.910      7.646
  Name = 
  10 active torsions:
  status: ('A' for Active; 'I' for Inactive)
    1  A    between atoms: C_4  and  C_13
    2  A    between atoms: O_5  and  C_12
    3  A    between atoms: O_5  and  C_21
    4  A    between atoms: O_7  and  C_15
    5  A    between atoms: O_7  and  C_16
    6  A    between atoms: C_8  and  C_12
    7  A    between atoms: C_8  and  C_13
    8  A    between atoms: C_13  and  C_27
    9  A    between atoms: C_16  and  O_30
   10  A    between atoms: C_27  and  O_30
                            x       y       z     vdW  Elec       q    Type
                         _______ _______ _______ _____ _____    ______ ____

>  <TORSDO>
F 10

$$$$
=
 OpenBabel11052412313D

 30 32  0  0  1  0  0  0  0  0999 V2000
  186.9000  177.9980  144.6000 C   0  0  0  0  0  2  0  0  0  0  0  0
  186.6040  177.8210  147.1450 N   0  0  0  0  0  0  0  0  0  0  0  0
  191.0660  176.7530  145.0700 C   0  0  0  0  0  2  0  0  0  0  0  0
  187.5890  177.2890  143.4220 C   0  0  2  0  0  3  0  0  0  0  0  0
  191.6400  176.0170  143.8550 C   0  0  0  0  0  2  0  0  0  0  0  0
  187.3440  178.8370  147.8930 C   0  0  0  0  0  2  0  0  0  0  0  0
  185.2840  178.3590  146.8380 C   0  0  0  0  0  1  0  0  0  0  0  0
  189.5420  176.7140  144.9690 C   0  0  2  0  0  3  0  0  0  0  0  0
  188.6660  178.2570  148.4350 C   0  0  0  0  0  2  0  0  0  0  0  0
  187.3470  177.3790  145.9290 C   0  0  2  0  0  3  0  0  0  0  0  0
  189.1260  177.2810  143.6020 C   0  0  1  0  0  3  0  0  0  0  0  0
  191.2440  176.6600  142.6640 O   0  0  0  0  0  0  0  0  0  0  0  0
  189.8540  176.4710  142.5270 C   0  0  0  0  0  2  0  0  0  0  0  0
  189.2940  177.2270  147.4860 C   0  0  0  0  0  2  0  0  0  0  0  0
  188.8670  177.5410  146.0580 C   0  0  1  0  0  3  0  0  0  0  0  0
  187.0960  177.9190  142.1040 C   0  0  1  0  0  3  0  0  0  0  0  0
  186.0560  180.0700  142.3940 O   0  0  0  0  0  0  0  0  0  0  0  0
  185.9010  178.8230  142.2810 C   0  0  0  0  0  0  0  0  0  0  0  0
  183.9970  177.7780  141.3450 O   0  0  0  0  0  0  0  0  0  0  0  0
  184.5490  178.2560  142.3740 C   0  0  0  0  0  0  0  0  0  0  0  0
  183.8750  178.2520  143.6020 O   0  0  0  0  0  0  0  0  0  0  0  0
  181.5340  178.7830  143.8120 C   0  0  0  0  0  1  0  0  0  0  0  0
  182.9620  179.2820  143.9590 C   0  0  0  0  0  2  0  0  0  0  0  0
  188.2270  178.6280  141.3610 C   0  0  0  0  0  2  0  0  0  0  0  0
  187.8960  178.7940  140.0080 O   0  0  0  0  0  0  0  0  0  0  0  0
  188.4740  177.7060  139.3460 C   0  0  0  0  0  2  0  0  0  0  0  0
  187.8210  177.4720  138.1020 O   0  0  0  0  0  0  0  0  0  0  0  0
  188.8860  177.7510  135.9380 O   0  0  0  0  0  0  0  0  0  0  0  0
  188.0790  178.2400  136.9590 C   0  0  0  0  0  0  0  0  0  0  0  0
  187.5540  179.3780  136.8440 O   0  0  0  0  0  1  0  0  0  0  0  0
  2  6  1  0  0  0  0
  4 16  1  6  0  0  0
  4 11  1  0  0  0  0
  4  1  1  0  0  0  0
  5  3  1  0  0  0  0
  6  9  1  0  0  0  0
  7  2  1  0  0  0  0
  8  3  1  1  0  0  0
  8 15  1  0  0  0  0
 10  1  1  6  0  0  0
 10 15  1  0  0  0  0
 10  2  1  0  0  0  0
 11 13  1  6  0  0  0
 11  8  1  0  0  0  0
 12  5  1  0  0  0  0
 13 12  1  0  0  0  0
 14  9  1  0  0  0  0
 15 14  1  1  0  0  0
 16 24  1  1  0  0  0
 16 18  1  0  0  0  0
 18 20  1  0  0  0  0
 18 17  2  0  0  0  0
 19 20  2  0  0  0  0
 20 21  1  0  0  0  0
 21 23  1  0  0  0  0
 22 23  1  0  0  0  0
 25 24  1  0  0  0  0
 26 25  1  0  0  0  0
 27 26  1  0  0  0  0
 28 29  2  0  0  0  0
 29 27  1  0  0  0  0
 30 29  1  0  0  0  0
M  END
>  <MODEL>
6

>  <REMARK>
 VINA RESULT:      -7.1      2.606      7.131
  Name = 
  10 active torsions:
  status: ('A' for Active; 'I' for Inactive)
    1  A    between atoms: C_4  and  C_13
    2  A    between atoms: O_5  and  C_12
    3  A    between atoms: O_5  and  C_21
    4  A    between atoms: O_7  and  C_15
    5  A    between atoms: O_7  and  C_16
    6  A    between atoms: C_8  and  C_12
    7  A    between atoms: C_8  and  C_13
    8  A    between atoms: C_13  and  C_27
    9  A    between atoms: C_16  and  O_30
   10  A    between atoms: C_27  and  O_30
                            x       y       z     vdW  Elec       q    Type
                         _______ _______ _______ _____ _____    ______ ____

>  <TORSDO>
F 10

$$$$
=
 OpenBabel11052412313D

 30 32  0  0  1  0  0  0  0  0999 V2000
  189.5040  177.3920  143.2920 C   0  0  0  0  0  2  0  0  0  0  0  0
  190.3240  177.7510  145.6990 N   0  0  0  0  0  0  0  0  0  0  0  0
  185.3970  177.9630  144.6820 C   0  0  0  0  0  2  0  0  0  0  0  0
  188.4600  177.9140  142.2920 C   0  0  2  0  0  3  0  0  0  0  0  0
  184.4500  178.5290  143.6190 C   0  0  0  0  0  2  0  0  0  0  0  0
  189.9540  176.6690  146.6120 C   0  0  0  0  0  2  0  0  0  0  0  0
  191.6150  177.4200  145.1070 C   0  0  0  0  0  1  0  0  0  0  0  0
  186.8310  178.2450  144.2350 C   0  0  2  0  0  3  0  0  0  0  0  0
  188.7060  177.0540  147.4330 C   0  0  0  0  0  2  0  0  0  0  0  0
  189.2640  178.0000  144.6790 C   0  0  2  0  0  3  0  0  0  0  0  0
  187.0230  177.6810  142.8180 C   0  0  1  0  0  3  0  0  0  0  0  0
  184.6750  177.8970  142.3790 O   0  0  0  0  0  0  0  0  0  0  0  0
  185.9460  178.3020  141.9250 C   0  0  0  0  0  2  0  0  0  0  0  0
  187.7160  177.9150  146.6360 C   0  0  0  0  0  2  0  0  0  0  0  0
  187.8620  177.5990  145.1540 C   0  0  1  0  0  3  0  0  0  0  0  0
  188.7470  177.3040  140.9060 C   0  0  1  0  0  3  0  0  0  0  0  0
  188.9950  179.3850  139.7210 O   0  0  0  0  0  0  0  0  0  0  0  0
  188.4540  178.2450  139.7630 C   0  0  0  0  0  0  0  0  0  0  0  0
  186.4890  178.5890  138.4920 O   0  0  0  0  0  0  0  0  0  0  0  0
  187.4990  177.8650  138.7140 C   0  0  0  0  0  0  0  0  0  0  0  0
  187.7080  176.6990  137.9670 O   0  0  0  0  0  0  0  0  0  0  0  0
  189.0910  177.7860  136.3200 C   0  0  0  0  0  1  0  0  0  0  0  0
  188.0150  176.7440  136.5790 C   0  0  0  0  0  2  0  0  0  0  0  0
  190.1660  176.7460  140.8190 C   0  0  0  0  0  2  0  0  0  0  0  0
  190.3380  176.0280  139.6250 O   0  0  0  0  0  0  0  0  0  0  0  0
  191.5130  176.5280  139.0550 C   0  0  0  0  0  2  0  0  0  0  0  0
  192.1280  175.5430  138.2300 O   0  0  0  0  0  0  0  0  0  0  0  0
  193.9350  176.8530  137.2730 O   0  0  0  0  0  0  0  0  0  0  0  0
  193.4520  175.6540  137.7840 C   0  0  0  0  0  0  0  0  0  0  0  0
  194.2210  174.6610  137.8680 O   0  0  0  0  0  1  0  0  0  0  0  0
  2  6  1  0  0  0  0
  4 16  1  6  0  0  0
  4 11  1  0  0  0  0
  4  1  1  0  0  0  0
  5  3  1  0  0  0  0
  6  9  1  0  0  0  0
  7  2  1  0  0  0  0
  8  3  1  1  0  0  0
  8 15  1  0  0  0  0
 10  1  1  6  0  0  0
 10 15  1  0  0  0  0
 10  2  1  0  0  0  0
 11 13  1  6  0  0  0
 11  8  1  0  0  0  0
 12  5  1  0  0  0  0
 13 12  1  0  0  0  0
 14  9  1  0  0  0  0
 15 14  1  1  0  0  0
 16 24  1  1  0  0  0
 17 18  2  0  0  0  0
 18 16  1  0  0  0  0
 19 20  2  0  0  0  0
 20 18  1  0  0  0  0
 21 20  1  0  0  0  0
 22 23  1  0  0  0  0
 23 21  1  0  0  0  0
 25 24  1  0  0  0  0
 26 25  1  0  0  0  0
 27 26  1  0  0  0  0
 28 29  2  0  0  0  0
 29 30  1  0  0  0  0
 29 27  1  0  0  0  0
M  END
>  <MODEL>
7

>  <REMARK>
 VINA RESULT:      -7.0      2.990      7.907
  Name = 
  10 active torsions:
  status: ('A' for Active; 'I' for Inactive)
    1  A    between atoms: C_4  and  C_13
    2  A    between atoms: O_5  and  C_12
    3  A    between atoms: O_5  and  C_21
    4  A    between atoms: O_7  and  C_15
    5  A    between atoms: O_7  and  C_16
    6  A    between atoms: C_8  and  C_12
    7  A    between atoms: C_8  and  C_13
    8  A    between atoms: C_13  and  C_27
    9  A    between atoms: C_16  and  O_30
   10  A    between atoms: C_27  and  O_30
                            x       y       z     vdW  Elec       q    Type
                         _______ _______ _______ _____ _____    ______ ____

>  <TORSDO>
F 10

$$$$
=
 OpenBabel11052412313D

 30 32  0  0  1  0  0  0  0  0999 V2000
  188.9060  177.6480  143.4930 C   0  0  0  0  0  2  0  0  0  0  0  0
  191.1630  177.6210  144.7180 N   0  0  0  0  0  0  0  0  0  0  0  0
  186.8840  177.7610  147.3690 C   0  0  0  0  0  2  0  0  0  0  0  0
  187.5080  178.2850  143.5700 C   0  0  2  0  0  3  0  0  0  0  0  0
  185.5190  178.4560  147.3430 C   0  0  0  0  0  2  0  0  0  0  0  0
  191.4190  176.3790  145.4480 C   0  0  0  0  0  2  0  0  0  0  0  0
  191.6810  177.4640  143.3650 C   0  0  0  0  0  1  0  0  0  0  0  0
  187.6560  178.1880  146.1210 C   0  0  2  0  0  3  0  0  0  0  0  0
  191.0910  176.5510  146.9450 C   0  0  0  0  0  2  0  0  0  0  0  0
  189.7180  177.9920  144.7470 C   0  0  2  0  0  3  0  0  0  0  0  0
  186.7920  177.8920  144.8850 C   0  0  1  0  0  3  0  0  0  0  0  0
  184.7930  178.0630  146.1990 O   0  0  0  0  0  0  0  0  0  0  0  0
  185.4520  178.6050  145.0770 C   0  0  0  0  0  2  0  0  0  0  0  0
  189.8990  177.4880  147.1870 C   0  0  0  0  0  2  0  0  0  0  0  0
  188.9780  177.4440  145.9750 C   0  0  1  0  0  3  0  0  0  0  0  0
  186.7320  177.9420  142.2840 C   0  0  1  0  0  3  0  0  0  0  0  0
  185.7400  180.1280  142.4680 O   0  0  0  0  0  0  0  0  0  0  0  0
  185.7720  179.0250  141.8550 C   0  0  0  0  0  0  0  0  0  0  0  0
  184.9310  179.4560  139.6870 O   0  0  0  0  0  0  0  0  0  0  0  0
  184.8300  178.7890  140.7530 C   0  0  0  0  0  0  0  0  0  0  0  0
  183.8210  177.8270  140.8900 O   0  0  0  0  0  0  0  0  0  0  0  0
  182.6800  176.2240  139.4980 C   0  0  0  0  0  1  0  0  0  0  0  0
  182.7900  177.6800  139.9220 C   0  0  0  0  0  2  0  0  0  0  0  0
  187.6720  177.5480  141.1460 C   0  0  0  0  0  2  0  0  0  0  0  0
  188.1580  178.6920  140.4940 O   0  0  0  0  0  0  0  0  0  0  0  0
  188.6870  178.2340  139.2830 C   0  0  0  0  0  2  0  0  0  0  0  0
  189.1810  176.9050  139.4230 O   0  0  0  0  0  0  0  0  0  0  0  0
  190.9770  175.4600  138.6590 O   0  0  0  0  0  0  0  0  0  0  0  0
  190.5440  176.5950  139.3370 C   0  0  0  0  0  0  0  0  0  0  0  0
  191.3910  177.3650  139.8590 O   0  0  0  0  0  1  0  0  0  0  0  0
  1  4  1  0  0  0  0
  2 10  1  0  0  0  0
  2  6  1  0  0  0  0
  4 16  1  6  0  0  0
  4 11  1  0  0  0  0
  5  3  1  0  0  0  0
  6  9  1  0  0  0  0
  7  2  1  0  0  0  0
  8  3  1  1  0  0  0
  9 14  1  0  0  0  0
 10  1  1  6  0  0  0
 10 15  1  0  0  0  0
 11 13  1  1  0  0  0
 11  8  1  0  0  0  0
 12  5  1  0  0  0  0
 13 12  1  0  0  0  0
 15  8  1  0  0  0  0
 15 14  1  1  0  0  0
 16 24  1  6  0  0  0
 18 16  1  0  0  0  0
 18 17  2  0  0  0  0
 19 20  2  0  0  0  0
 20 21  1  0  0  0  0
 20 18  1  0  0  0  0
 22 23  1  0  0  0  0
 23 21  1  0  0  0  0
 25 24  1  0  0  0  0
 26 27  1  0  0  0  0
 26 25  1  0  0  0  0
 28 29  2  0  0  0  0
 29 27  1  0  0  0  0
 29 30  1  0  0  0  0
M  END
>  <MODEL>
8

>  <REMARK>
 VINA RESULT:      -6.9      2.541      7.903
  Name = 
  10 active torsions:
  status: ('A' for Active; 'I' for Inactive)
    1  A    between atoms: C_4  and  C_13
    2  A    between atoms: O_5  and  C_12
    3  A    between atoms: O_5  and  C_21
    4  A    between atoms: O_7  and  C_15
    5  A    between atoms: O_7  and  C_16
    6  A    between atoms: C_8  and  C_12
    7  A    between atoms: C_8  and  C_13
    8  A    between atoms: C_13  and  C_27
    9  A    between atoms: C_16  and  O_30
   10  A    between atoms: C_27  and  O_30
                            x       y       z     vdW  Elec       q    Type
                         _______ _______ _______ _____ _____    ______ ____

>  <TORSDO>
F 10

$$$$
=
 OpenBabel11052412313D

 30 32  0  0  1  0  0  0  0  0999 V2000
  185.4800  178.2850  141.2200 C   0  0  0  0  0  2  0  0  0  0  0  0
  183.1590  178.0370  140.1490 N   0  0  0  0  0  0  0  0  0  0  0  0
  183.5440  179.0710  145.0620 C   0  0  0  0  0  2  0  0  0  0  0  0
  186.2470  177.9450  142.5080 C   0  0  2  0  0  3  0  0  0  0  0  0
  184.3770  178.6550  146.2790 C   0  0  0  0  0  2  0  0  0  0  0  0
  182.4080  179.2910  140.0790 C   0  0  0  0  0  2  0  0  0  0  0  0
  183.9440  177.9130  138.9280 C   0  0  0  0  0  1  0  0  0  0  0  0
  184.0990  178.3440  143.8380 C   0  0  2  0  0  3  0  0  0  0  0  0
  181.3940  179.3820  141.2380 C   0  0  0  0  0  2  0  0  0  0  0  0
  183.9910  177.9590  141.3850 C   0  0  2  0  0  3  0  0  0  0  0  0
  185.6050  178.6370  143.7350 C   0  0  1  0  0  3  0  0  0  0  0  0
  185.7240  179.0270  146.0990 O   0  0  0  0  0  0  0  0  0  0  0  0
  186.2460  178.2270  145.0620 C   0  0  0  0  0  2  0  0  0  0  0  0
  181.9100  178.7320  142.5290 C   0  0  0  0  0  2  0  0  0  0  0  0
  183.4320  178.7940  142.5440 C   0  0  1  0  0  3  0  0  0  0  0  0
  187.7410  178.2600  142.2970 C   0  0  1  0  0  3  0  0  0  0  0  0
  188.3400  176.0020  142.8790 O   0  0  0  0  0  0  0  0  0  0  0  0
  188.6630  177.2220  142.8890 C   0  0  0  0  0  0  0  0  0  0  0  0
  191.0080  177.5270  142.8930 O   0  0  0  0  0  0  0  0  0  0  0  0
  189.9220  177.6260  143.5280 C   0  0  0  0  0  0  0  0  0  0  0  0
  189.9150  178.1150  144.8410 O   0  0  0  0  0  0  0  0  0  0  0  0
  191.1890  176.7860  146.3950 C   0  0  0  0  0  1  0  0  0  0  0  0
  189.8070  177.2480  145.9630 C   0  0  0  0  0  2  0  0  0  0  0  0
  188.0600  178.5160  140.8260 C   0  0  0  0  0  2  0  0  0  0  0  0
  189.0170  177.5980  140.3660 O   0  0  0  0  0  0  0  0  0  0  0  0
  188.7740  177.4600  138.9960 C   0  0  0  0  0  2  0  0  0  0  0  0
  189.9910  177.5400  138.2600 O   0  0  0  0  0  0  0  0  0  0  0  0
  191.3830  176.3630  136.6550 O   0  0  0  0  0  0  0  0  0  0  0  0
  190.7140  176.4040  137.8740 C   0  0  0  0  0  0  0  0  0  0  0  0
  190.7800  175.4160  138.6510 O   0  0  0  0  0  1  0  0  0  0  0  0
  1  4  1  0  0  0  0
  2 10  1  0  0  0  0
  3  5  1  0  0  0  0
  4 16  1  6  0  0  0
  4 11  1  0  0  0  0
  6  2  1  0  0  0  0
  6  9  1  0  0  0  0
  7  2  1  0  0  0  0
  8  3  1  1  0  0  0
  9 14  1  0  0  0  0
 10  1  1  6  0  0  0
 10 15  1  0  0  0  0
 11  8  1  0  0  0  0
 11 13  1  1  0  0  0
 12  5  1  0  0  0  0
 13 12  1  0  0  0  0
 15 14  1  1  0  0  0
 15  8  1  0  0  0  0
 16 24  1  6  0  0  0
 16 18  1  0  0  0  0
 17 18  2  0  0  0  0
 18 20  1  0  0  0  0
 19 20  2  0  0  0  0
 20 21  1  0  0  0  0
 21 23  1  0  0  0  0
 23 22  1  0  0  0  0
 25 24  1  0  0  0  0
 26 25  1  0  0  0  0
 27 26  1  0  0  0  0
 28 29  2  0  0  0  0
 29 27  1  0  0  0  0
 29 30  1  0  0  0  0
M  END
>  <MODEL>
9

>  <REMARK>
 VINA RESULT:      -6.6      1.767      5.949
  Name = 
  10 active torsions:
  status: ('A' for Active; 'I' for Inactive)
    1  A    between atoms: C_4  and  C_13
    2  A    between atoms: O_5  and  C_12
    3  A    between atoms: O_5  and  C_21
    4  A    between atoms: O_7  and  C_15
    5  A    between atoms: O_7  and  C_16
    6  A    between atoms: C_8  and  C_12
    7  A    between atoms: C_8  and  C_13
    8  A    between atoms: C_13  and  C_27
    9  A    between atoms: C_16  and  O_30
   10  A    between atoms: C_27  and  O_30
                            x       y       z     vdW  Elec       q    Type
                         _______ _______ _______ _____ _____    ______ ____

>  <TORSDO>
F 10

$$$$
