=
 OpenBabel11052416093D

 43 50  0  0  1  0  0  0  0  0999 V2000
  191.1050  177.1000  146.0880 C   0  0  2  0  0  3  0  0  0  0  0  0
  187.2640  177.8070  142.8060 C   0  0  0  0  0  0  0  0  0  0  0  0
  187.9930  178.3590  139.2540 N   0  0  0  0  0  2  0  0  0  0  0  0
  188.8580  177.8710  145.1610 C   0  0  2  0  0  3  0  0  0  0  0  0
  191.6820  176.8220  144.7070 C   0  0  0  0  0  2  0  0  0  0  0  0
  191.7310  176.1510  147.0890 C   0  0  0  0  0  1  0  0  0  0  0  0
  189.4780  177.8610  143.7730 C   0  0  0  0  0  0  0  0  0  0  0  0
  189.5940  176.8900  146.0770 C   0  0  0  0  0  2  0  0  0  0  0  0
  191.2340  178.1860  143.5940 S   0  0  0  0  0  0  0  0  0  0  0  0
  189.0740  177.9840  141.3540 N   0  0  0  0  0  0  0  0  0  0  0  0
  188.6890  177.7850  142.7020 C   0  0  0  0  0  0  0  0  0  0  0  0
  186.6380  177.7780  143.9390 N   0  0  0  0  0  0  0  0  0  0  0  0
  186.6970  178.0780  141.4630 C   0  0  2  0  0  3  0  0  0  0  0  0
  187.9800  178.1330  140.6640 C   0  0  0  0  0  0  0  0  0  0  0  0
  187.3570  177.4790  145.1840 C   0  0  0  0  0  2  0  0  0  0  0  0
  189.2260  178.4580  138.4830 C   0  0  2  0  0  3  0  0  0  0  0  0
  189.0200  179.3230  137.2500 C   0  0  0  0  0  1  0  0  0  0  0  0
  189.7390  177.0700  138.1080 C   0  0  0  0  0  2  0  0  0  0  0  0
  191.2110  177.0760  137.6880 C   0  0  2  0  0  3  0  0  0  0  0  0
  191.6910  175.7770  137.0370 C   0  0  1  0  0  0  0  0  0  0  0  0
  191.9650  176.0480  138.5170 C   0  0  1  0  0  3  0  0  0  0  0  0
  193.2750  176.4910  138.7240 O   0  0  0  0  0  1  0  0  0  0  0  0
  189.8740  175.0310  135.4300 N   0  0  0  0  0  2  0  0  0  0  0  0
  191.0180  173.3470  136.7400 N   0  0  0  0  0  2  0  0  0  0  0  0
  190.5860  174.7490  136.6810 C   0  0  2  0  0  0  0  0  0  0  0  0
  190.9980  174.0910  135.4780 C   0  0  2  0  0  3  0  0  0  0  0  0
  192.8200  176.0420  136.0400 C   0  0  0  0  0  2  0  0  0  0  0  0
  193.9120  175.2170  136.3280 O   0  0  0  0  0  0  0  0  0  0  0  0
  194.7020  175.2480  135.1770 C   0  0  1  0  0  3  0  0  0  0  0  0
  198.2480  175.5150  135.3570 N   0  0  0  0  0  1  0  0  0  0  0  0
  196.3630  176.9620  135.5090 N   0  0  0  0  0  2  0  0  0  0  0  0
  196.9260  175.6850  135.9330 C   0  0  1  0  0  3  0  0  0  0  0  0
  195.0840  176.6770  134.8690 C   0  0  0  0  0  2  0  0  0  0  0  0
  196.0170  174.5740  135.4580 C   0  0  0  0  0  2  0  0  0  0  0  0
  186.0620  179.3850  141.4480 N   0  0  0  0  0  2  0  0  0  0  0  0
  184.8640  179.2600  140.6370 C   0  0  0  0  0  2  0  0  0  0  0  0
  183.4180  178.7340  142.5980 C   0  0  0  0  0  2  0  0  0  0  0  0
  181.9450  178.7500  142.4420 C   0  0  0  0  0  0  0  0  0  0  0  0
  182.7040  178.0670  140.3610 C   0  0  0  0  0  2  0  0  0  0  0  0
  183.9310  178.2360  141.2510 C   0  0  1  0  0  3  0  0  0  0  0  0
  181.5480  178.3890  141.2350 C   0  0  0  0  0  3  0  0  0  0  0  0
  180.0650  178.3400  143.9660 C   0  0  0  0  0  2  0  0  0  0  0  0
  181.0410  179.1320  143.5360 C   0  0  0  0  0  3  0  0  0  0  0  0
  1  6  1  1  0  0  0
  2 12  2  0  0  0  0
  3 14  1  0  0  0  0
  4 15  1  6  0  0  0
  4  8  1  0  0  0  0
  5  1  1  0  0  0  0
  7  4  1  0  0  0  0
  8  1  1  0  0  0  0
  9  7  1  0  0  0  0
  9  5  1  0  0  0  0
 10 11  1  0  0  0  0
 11  2  1  0  0  0  0
 11  7  2  0  0  0  0
 12 15  1  0  0  0  0
 13 35  1  1  0  0  0
 13  2  1  0  0  0  0
 14 10  2  0  0  0  0
 14 13  1  0  0  0  0
 16 17  1  6  0  0  0
 16  3  1  0  0  0  0
 18 16  1  0  0  0  0
 19 18  1  1  0  0  0
 19 21  1  0  0  0  0
 20 27  1  6  0  0  0
 20 19  1  0  0  0  0
 20 21  1  0  0  0  0
 21 22  1  6  0  0  0
 25 23  1  1  0  0  0
 25 24  1  0  0  0  0
 25 20  1  0  0  0  0
 26 23  1  6  0  0  0
 26 25  1  0  0  0  0
 26 24  1  0  0  0  0
 27 28  1  0  0  0  0
 29 34  1  0  0  0  0
 29 28  1  1  0  0  0
 31 32  1  0  0  0  0
 32 30  1  6  0  0  0
 33 29  1  0  0  0  0
 33 31  1  0  0  0  0
 34 32  1  0  0  0  0
 36 35  1  0  0  0  0
 38 37  1  0  0  0  0
 38 43  1  0  0  0  0
 39 41  1  0  0  0  0
 39 40  1  0  0  0  0
 40 36  1  6  0  0  0
 40 37  1  0  0  0  0
 41 38  2  0  0  0  0
 43 42  2  0  0  0  0
M  END
>  <MODEL>
1

>  <REMARK>
 VINA RESULT:      -8.8      0.000      0.000
  Name = 
  11 active torsions:
  status: ('A' for Active; 'I' for Inactive)
    1  A    between atoms: N_1  and  C_32
    2  A    between atoms: N_1  and  C_34
    3  A    between atoms: C_2  and  C_6
    4  A    between atoms: C_2  and  N_13
    5  A    between atoms: C_3  and  C_6
    6  A    between atoms: C_4  and  C_22
    7  A    between atoms: C_4  and  C_41
    8  A    between atoms: C_11  and  O_14
    9  A    between atoms: O_14  and  C_41
   10  A    between atoms: C_19  and  C_37
   11  A    between atoms: C_32  and  C_35
                            x       y       z     vdW  Elec       q    Type
                         _______ _______ _______ _____ _____    ______ ____

>  <TORSDO>
F 11

$$$$
=
 OpenBabel11052416093D

 43 50  0  0  1  0  0  0  0  0999 V2000
  191.0960  177.1000  146.1890 C   0  0  2  0  0  3  0  0  0  0  0  0
  187.2280  177.7990  142.9370 C   0  0  0  0  0  0  0  0  0  0  0  0
  187.9290  178.3590  139.3800 N   0  0  0  0  0  2  0  0  0  0  0  0
  188.8390  177.8650  145.2800 C   0  0  2  0  0  3  0  0  0  0  0  0
  191.6630  176.8270  144.8030 C   0  0  0  0  0  2  0  0  0  0  0  0
  191.7320  176.1520  147.1840 C   0  0  0  0  0  1  0  0  0  0  0  0
  189.4480  177.8590  143.8870 C   0  0  0  0  0  0  0  0  0  0  0  0
  189.5850  176.8850  146.1890 C   0  0  0  0  0  2  0  0  0  0  0  0
  191.2020  178.1910  143.6960 S   0  0  0  0  0  0  0  0  0  0  0  0
  189.0260  177.9840  141.4720 N   0  0  0  0  0  0  0  0  0  0  0  0
  188.6520  177.7820  142.8230 C   0  0  0  0  0  0  0  0  0  0  0  0
  186.6100  177.7660  144.0740 N   0  0  0  0  0  0  0  0  0  0  0  0
  186.6500  178.0700  141.5980 C   0  0  2  0  0  3  0  0  0  0  0  0
  187.9270  178.1310  140.7900 C   0  0  0  0  0  0  0  0  0  0  0  0
  187.3390  177.4680  145.3140 C   0  0  0  0  0  2  0  0  0  0  0  0
  189.1550  178.4630  138.6010 C   0  0  2  0  0  3  0  0  0  0  0  0
  189.0390  179.5690  137.5630 C   0  0  0  0  0  1  0  0  0  0  0  0
  189.4950  177.1250  137.9500 C   0  0  0  0  0  2  0  0  0  0  0  0
  188.4610  176.6940  136.9080 C   0  0  2  0  0  3  0  0  0  0  0  0
  188.8770  175.4890  136.0610 C   0  0  1  0  0  0  0  0  0  0  0  0
  189.0390  176.9080  135.5180 C   0  0  1  0  0  3  0  0  0  0  0  0
  188.0090  177.2410  134.6340 O   0  0  0  0  0  1  0  0  0  0  0  0
  189.8940  173.5640  137.3650 N   0  0  0  0  0  2  0  0  0  0  0  0
  191.1010  174.4270  135.4530 N   0  0  0  0  0  2  0  0  0  0  0  0
  190.1520  174.7410  136.5280 C   0  0  2  0  0  0  0  0  0  0  0  0
  190.1220  173.4430  135.9220 C   0  0  2  0  0  3  0  0  0  0  0  0
  187.6580  174.6840  135.6060 C   0  0  0  0  0  2  0  0  0  0  0  0
  186.7400  174.5760  136.6560 O   0  0  0  0  0  0  0  0  0  0  0  0
  185.5080  174.9150  136.0950 C   0  0  1  0  0  3  0  0  0  0  0  0
  182.5420  175.0600  138.0600 N   0  0  0  0  0  1  0  0  0  0  0  0
  183.8760  173.3930  137.0060 N   0  0  0  0  0  2  0  0  0  0  0  0
  183.8980  174.5960  137.8320 C   0  0  1  0  0  3  0  0  0  0  0  0
  184.7090  173.6580  135.8390 C   0  0  0  0  0  2  0  0  0  0  0  0
  184.6890  175.6630  137.1100 C   0  0  0  0  0  2  0  0  0  0  0  0
  186.0110  179.3750  141.5900 N   0  0  0  0  0  2  0  0  0  0  0  0
  184.8120  179.2500  140.7800 C   0  0  0  0  0  2  0  0  0  0  0  0
  183.1650  178.8570  142.6090 C   0  0  0  0  0  2  0  0  0  0  0  0
  181.7240  178.7460  142.2820 C   0  0  0  0  0  0  0  0  0  0  0  0
  182.7760  177.8770  140.4080 C   0  0  0  0  0  2  0  0  0  0  0  0
  183.8700  178.2400  141.4060 C   0  0  1  0  0  3  0  0  0  0  0  0
  181.5030  178.2150  141.0930 C   0  0  0  0  0  3  0  0  0  0  0  0
  180.0710  178.3620  144.0550 C   0  0  0  0  0  2  0  0  0  0  0  0
  180.6700  179.1890  143.2050 C   0  0  0  0  0  3  0  0  0  0  0  0
  1  6  1  1  0  0  0
  2 12  2  0  0  0  0
  3 14  1  0  0  0  0
  4 15  1  6  0  0  0
  4  8  1  0  0  0  0
  5  1  1  0  0  0  0
  7  4  1  0  0  0  0
  8  1  1  0  0  0  0
  9  7  1  0  0  0  0
  9  5  1  0  0  0  0
 10 11  1  0  0  0  0
 11  2  1  0  0  0  0
 11  7  2  0  0  0  0
 12 15  1  0  0  0  0
 13 35  1  1  0  0  0
 13  2  1  0  0  0  0
 14 10  2  0  0  0  0
 14 13  1  0  0  0  0
 16 17  1  6  0  0  0
 16  3  1  0  0  0  0
 18 16  1  0  0  0  0
 19 18  1  1  0  0  0
 20 27  1  6  0  0  0
 20 25  1  0  0  0  0
 20 19  1  0  0  0  0
 21 22  1  6  0  0  0
 21 20  1  0  0  0  0
 21 19  1  0  0  0  0
 25 24  1  1  0  0  0
 25 23  1  0  0  0  0
 26 24  1  1  0  0  0
 26 25  1  0  0  0  0
 26 23  1  0  0  0  0
 27 28  1  0  0  0  0
 29 28  1  1  0  0  0
 29 34  1  0  0  0  0
 31 32  1  0  0  0  0
 32 30  1  6  0  0  0
 33 29  1  0  0  0  0
 33 31  1  0  0  0  0
 34 32  1  0  0  0  0
 36 35  1  0  0  0  0
 38 37  1  0  0  0  0
 38 43  1  0  0  0  0
 39 41  1  0  0  0  0
 39 40  1  0  0  0  0
 40 36  1  6  0  0  0
 40 37  1  0  0  0  0
 41 38  2  0  0  0  0
 43 42  2  0  0  0  0
M  END
>  <MODEL>
2

>  <REMARK>
 VINA RESULT:      -8.6      2.808      5.075
  Name = 
  11 active torsions:
  status: ('A' for Active; 'I' for Inactive)
    1  A    between atoms: N_1  and  C_32
    2  A    between atoms: N_1  and  C_34
    3  A    between atoms: C_2  and  C_6
    4  A    between atoms: C_2  and  N_13
    5  A    between atoms: C_3  and  C_6
    6  A    between atoms: C_4  and  C_22
    7  A    between atoms: C_4  and  C_41
    8  A    between atoms: C_11  and  O_14
    9  A    between atoms: O_14  and  C_41
   10  A    between atoms: C_19  and  C_37
   11  A    between atoms: C_32  and  C_35
                            x       y       z     vdW  Elec       q    Type
                         _______ _______ _______ _____ _____    ______ ____

>  <TORSDO>
F 11

$$$$
=
 OpenBabel11052416093D

 43 50  0  0  1  0  0  0  0  0999 V2000
  187.9730  177.5150  147.3730 C   0  0  2  0  0  3  0  0  0  0  0  0
  188.8190  178.2390  142.3950 C   0  0  0  0  0  0  0  0  0  0  0  0
  185.9940  178.9160  140.1550 N   0  0  0  0  0  2  0  0  0  0  0  0
  189.0110  177.2580  145.0580 C   0  0  2  0  0  3  0  0  0  0  0  0
  186.7340  178.2200  146.8390 C   0  0  0  0  0  2  0  0  0  0  0  0
  188.2660  178.0140  148.7730 C   0  0  0  0  0  1  0  0  0  0  0  0
  187.6880  177.7130  144.4630 C   0  0  0  0  0  0  0  0  0  0  0  0
  189.1720  177.8100  146.4760 C   0  0  0  0  0  2  0  0  0  0  0  0
  186.1640  177.3610  145.3440 S   0  0  0  0  0  0  0  0  0  0  0  0
  186.5040  178.4670  142.4480 N   0  0  0  0  0  0  0  0  0  0  0  0
  187.6580  178.2070  143.2270 C   0  0  0  0  0  0  0  0  0  0  0  0
  189.9990  177.9110  142.8150 N   0  0  0  0  0  0  0  0  0  0  0  0
  188.3920  178.4900  140.9970 C   0  0  2  0  0  3  0  0  0  0  0  0
  186.9040  178.6370  141.2210 C   0  0  0  0  0  0  0  0  0  0  0  0
  190.2550  177.7110  144.2480 C   0  0  0  0  0  2  0  0  0  0  0  0
  184.5540  179.0150  140.3540 C   0  0  2  0  0  3  0  0  0  0  0  0
  183.9690  177.6600  140.7220 C   0  0  0  0  0  1  0  0  0  0  0  0
  183.8780  179.5930  139.1140 C   0  0  0  0  0  2  0  0  0  0  0  0
  182.3720  179.7950  139.3010 C   0  0  2  0  0  3  0  0  0  0  0  0
  181.5080  179.1870  138.1930 C   0  0  1  0  0  0  0  0  0  0  0  0
  181.8480  180.6780  138.1780 C   0  0  1  0  0  3  0  0  0  0  0  0
  180.7870  181.4520  138.6550 O   0  0  0  0  0  1  0  0  0  0  0  0
  182.2460  176.8450  137.5540 N   0  0  0  0  0  2  0  0  0  0  0  0
  181.8460  178.4500  135.7880 N   0  0  0  0  0  2  0  0  0  0  0  0
  182.2450  178.2650  137.1880 C   0  0  2  0  0  0  0  0  0  0  0  0
  181.2610  177.3950  136.6180 C   0  0  2  0  0  3  0  0  0  0  0  0
  180.1350  178.7720  138.7260 C   0  0  0  0  0  2  0  0  0  0  0  0
  180.2870  178.0050  139.8850 O   0  0  0  0  0  0  0  0  0  0  0  0
  179.1100  178.2060  140.6080 C   0  0  1  0  0  3  0  0  0  0  0  0
  179.1030  179.9580  143.7080 N   0  0  0  0  0  1  0  0  0  0  0  0
  179.6220  177.7710  142.9230 N   0  0  0  0  0  2  0  0  0  0  0  0
  179.7830  179.2000  142.6740 C   0  0  1  0  0  3  0  0  0  0  0  0
  179.0270  177.1910  141.7250 C   0  0  0  0  0  2  0  0  0  0  0  0
  179.1860  179.5260  141.3240 C   0  0  0  0  0  2  0  0  0  0  0  0
  188.6440  177.3120  140.1830 N   0  0  0  0  0  2  0  0  0  0  0  0
  189.7440  177.6460  139.2950 C   0  0  0  0  0  2  0  0  0  0  0  0
  187.9900  176.7040  137.7940 C   0  0  0  0  0  2  0  0  0  0  0  0
  187.0860  177.6230  137.0640 C   0  0  0  0  0  0  0  0  0  0  0  0
  189.0680  178.8150  137.2110 C   0  0  0  0  0  2  0  0  0  0  0  0
  189.3170  177.4550  137.8530 C   0  0  1  0  0  3  0  0  0  0  0  0
  187.6600  178.7680  136.7430 C   0  0  0  0  0  3  0  0  0  0  0  0
  185.3240  176.8590  135.5350 C   0  0  0  0  0  2  0  0  0  0  0  0
  185.6960  177.2690  136.7430 C   0  0  0  0  0  3  0  0  0  0  0  0
  1  6  1  1  0  0  0
  2 12  2  0  0  0  0
  2 11  1  0  0  0  0
  3 16  1  0  0  0  0
  3 14  1  0  0  0  0
  4 15  1  6  0  0  0
  4  8  1  0  0  0  0
  5  1  1  0  0  0  0
  7  4  1  0  0  0  0
  7  9  1  0  0  0  0
  8  1  1  0  0  0  0
  9  5  1  0  0  0  0
 10 11  1  0  0  0  0
 11  7  2  0  0  0  0
 12 15  1  0  0  0  0
 13 35  1  6  0  0  0
 13 14  1  0  0  0  0
 13  2  1  0  0  0  0
 14 10  2  0  0  0  0
 16 17  1  6  0  0  0
 18 16  1  0  0  0  0
 19 18  1  6  0  0  0
 20 27  1  1  0  0  0
 20 19  1  0  0  0  0
 21 20  1  0  0  0  0
 21 22  1  1  0  0  0
 21 19  1  0  0  0  0
 25 24  1  6  0  0  0
 25 23  1  0  0  0  0
 25 20  1  0  0  0  0
 26 24  1  6  0  0  0
 26 25  1  0  0  0  0
 26 23  1  0  0  0  0
 27 28  1  0  0  0  0
 29 28  1  1  0  0  0
 29 34  1  0  0  0  0
 29 33  1  0  0  0  0
 32 31  1  0  0  0  0
 32 30  1  1  0  0  0
 33 31  1  0  0  0  0
 34 32  1  0  0  0  0
 36 35  1  0  0  0  0
 37 40  1  0  0  0  0
 38 37  1  0  0  0  0
 39 40  1  0  0  0  0
 40 36  1  1  0  0  0
 41 38  2  0  0  0  0
 41 39  1  0  0  0  0
 42 43  2  0  0  0  0
 43 38  1  0  0  0  0
M  END
>  <MODEL>
3

>  <REMARK>
 VINA RESULT:      -8.5      4.830      9.699
  Name = 
  11 active torsions:
  status: ('A' for Active; 'I' for Inactive)
    1  A    between atoms: N_1  and  C_32
    2  A    between atoms: N_1  and  C_34
    3  A    between atoms: C_2  and  C_6
    4  A    between atoms: C_2  and  N_13
    5  A    between atoms: C_3  and  C_6
    6  A    between atoms: C_4  and  C_22
    7  A    between atoms: C_4  and  C_41
    8  A    between atoms: C_11  and  O_14
    9  A    between atoms: O_14  and  C_41
   10  A    between atoms: C_19  and  C_37
   11  A    between atoms: C_32  and  C_35
                            x       y       z     vdW  Elec       q    Type
                         _______ _______ _______ _____ _____    ______ ____

>  <TORSDO>
F 11

$$$$
=
 OpenBabel11052416093D

 43 50  0  0  1  0  0  0  0  0999 V2000
  188.1330  177.4950  147.1630 C   0  0  2  0  0  3  0  0  0  0  0  0
  188.8400  178.2010  142.1610 C   0  0  0  0  0  0  0  0  0  0  0  0
  185.9580  178.8980  140.0030 N   0  0  0  0  0  2  0  0  0  0  0  0
  189.1000  177.2240  144.8200 C   0  0  2  0  0  3  0  0  0  0  0  0
  186.8850  178.2100  146.6640 C   0  0  0  0  0  2  0  0  0  0  0  0
  188.4700  177.9950  148.5530 C   0  0  0  0  0  1  0  0  0  0  0  0
  187.7650  177.6900  144.2630 C   0  0  0  0  0  0  0  0  0  0  0  0
  189.3070  177.7780  146.2310 C   0  0  0  0  0  2  0  0  0  0  0  0
  186.2640  177.3530  145.1880 S   0  0  0  0  0  0  0  0  0  0  0  0
  186.5300  178.4490  142.2810 N   0  0  0  0  0  0  0  0  0  0  0  0
  187.7040  178.1810  143.0270 C   0  0  0  0  0  0  0  0  0  0  0  0
  190.0290  177.8630  142.5480 N   0  0  0  0  0  0  0  0  0  0  0  0
  188.3750  178.4530  140.7760 C   0  0  2  0  0  3  0  0  0  0  0  0
  186.8950  178.6130  141.0420 C   0  0  0  0  0  0  0  0  0  0  0  0
  190.3240  177.6640  143.9730 C   0  0  0  0  0  2  0  0  0  0  0  0
  184.5250  179.0110  140.2430 C   0  0  2  0  0  3  0  0  0  0  0  0
  183.9310  177.6540  140.5890 C   0  0  0  0  0  1  0  0  0  0  0  0
  183.8240  179.6320  139.0390 C   0  0  0  0  0  2  0  0  0  0  0  0
  182.3110  179.7590  139.2340 C   0  0  2  0  0  3  0  0  0  0  0  0
  181.4720  179.1060  138.1320 C   0  0  1  0  0  0  0  0  0  0  0  0
  181.7370  180.6120  138.1130 C   0  0  1  0  0  3  0  0  0  0  0  0
  180.6420  181.3330  138.5950 O   0  0  0  0  0  1  0  0  0  0  0  0
  182.2690  176.7930  137.4600 N   0  0  0  0  0  2  0  0  0  0  0  0
  181.8760  178.4280  135.7200 N   0  0  0  0  0  2  0  0  0  0  0  0
  182.2480  178.2210  137.1240 C   0  0  2  0  0  0  0  0  0  0  0  0
  181.2940  177.3450  136.5140 C   0  0  2  0  0  3  0  0  0  0  0  0
  180.1250  178.6240  138.6740 C   0  0  0  0  0  2  0  0  0  0  0  0
  180.3160  177.9230  139.8680 O   0  0  0  0  0  0  0  0  0  0  0  0
  179.1570  177.1630  140.0310 C   0  0  1  0  0  3  0  0  0  0  0  0
  179.2930  173.7330  140.9790 N   0  0  0  0  0  1  0  0  0  0  0  0
  179.5660  175.0240  138.9970 N   0  0  0  0  0  2  0  0  0  0  0  0
  179.9000  174.9250  140.4130 C   0  0  1  0  0  3  0  0  0  0  0  0
  178.9310  176.3220  138.7960 C   0  0  0  0  0  2  0  0  0  0  0  0
  179.3740  176.1520  141.1220 C   0  0  0  0  0  2  0  0  0  0  0  0
  188.5930  177.2710  139.9580 N   0  0  0  0  0  2  0  0  0  0  0  0
  189.7350  177.5560  139.1070 C   0  0  0  0  0  2  0  0  0  0  0  0
  188.0330  176.6930  137.5020 C   0  0  0  0  0  2  0  0  0  0  0  0
  187.0810  177.6370  136.8720 C   0  0  0  0  0  0  0  0  0  0  0  0
  188.9960  178.9100  137.1600 C   0  0  0  0  0  2  0  0  0  0  0  0
  189.3180  177.5020  137.6500 C   0  0  1  0  0  3  0  0  0  0  0  0
  187.5930  178.8390  136.6810 C   0  0  0  0  0  3  0  0  0  0  0  0
  185.3200  177.1140  135.2450 C   0  0  0  0  0  2  0  0  0  0  0  0
  185.7120  177.2470  136.5070 C   0  0  0  0  0  3  0  0  0  0  0  0
  1  6  1  1  0  0  0
  2 12  2  0  0  0  0
  2 11  1  0  0  0  0
  3 16  1  0  0  0  0
  3 14  1  0  0  0  0
  4 15  1  6  0  0  0
  4  8  1  0  0  0  0
  5  1  1  0  0  0  0
  7  4  1  0  0  0  0
  7  9  1  0  0  0  0
  8  1  1  0  0  0  0
  9  5  1  0  0  0  0
 10 11  1  0  0  0  0
 11  7  2  0  0  0  0
 12 15  1  0  0  0  0
 13 35  1  6  0  0  0
 13 14  1  0  0  0  0
 13  2  1  0  0  0  0
 14 10  2  0  0  0  0
 16 17  1  6  0  0  0
 18 16  1  0  0  0  0
 19 18  1  6  0  0  0
 20 27  1  1  0  0  0
 20 19  1  0  0  0  0
 21 20  1  0  0  0  0
 21 22  1  1  0  0  0
 21 19  1  0  0  0  0
 25 24  1  6  0  0  0
 25 23  1  0  0  0  0
 25 20  1  0  0  0  0
 26 24  1  6  0  0  0
 26 25  1  0  0  0  0
 26 23  1  0  0  0  0
 27 28  1  0  0  0  0
 29 28  1  6  0  0  0
 29 34  1  0  0  0  0
 31 32  1  0  0  0  0
 32 30  1  1  0  0  0
 32 34  1  0  0  0  0
 33 31  1  0  0  0  0
 33 29  1  0  0  0  0
 36 35  1  0  0  0  0
 37 40  1  0  0  0  0
 38 37  1  0  0  0  0
 39 40  1  0  0  0  0
 40 36  1  1  0  0  0
 41 38  2  0  0  0  0
 41 39  1  0  0  0  0
 42 43  2  0  0  0  0
 43 38  1  0  0  0  0
M  END
>  <MODEL>
4

>  <REMARK>
 VINA RESULT:      -8.4      4.866      9.450
  Name = 
  11 active torsions:
  status: ('A' for Active; 'I' for Inactive)
    1  A    between atoms: N_1  and  C_32
    2  A    between atoms: N_1  and  C_34
    3  A    between atoms: C_2  and  C_6
    4  A    between atoms: C_2  and  N_13
    5  A    between atoms: C_3  and  C_6
    6  A    between atoms: C_4  and  C_22
    7  A    between atoms: C_4  and  C_41
    8  A    between atoms: C_11  and  O_14
    9  A    between atoms: O_14  and  C_41
   10  A    between atoms: C_19  and  C_37
   11  A    between atoms: C_32  and  C_35
                            x       y       z     vdW  Elec       q    Type
                         _______ _______ _______ _____ _____    ______ ____

>  <TORSDO>
F 11

$$$$
=
 OpenBabel11052416093D

 43 50  0  0  1  0  0  0  0  0999 V2000
  189.5980  177.5540  135.9300 C   0  0  2  0  0  3  0  0  0  0  0  0
  189.3110  176.9770  140.9900 C   0  0  0  0  0  0  0  0  0  0  0  0
  186.4290  178.3320  142.8090 N   0  0  0  0  0  2  0  0  0  0  0  0
  190.3310  177.3800  138.3660 C   0  0  2  0  0  3  0  0  0  0  0  0
  188.1360  177.7760  136.2920 C   0  0  0  0  0  2  0  0  0  0  0  0
  189.6780  176.8400  134.5970 C   0  0  0  0  0  1  0  0  0  0  0  0
  188.9470  177.8580  138.7710 C   0  0  0  0  0  0  0  0  0  0  0  0
  190.2780  176.7000  136.9960 C   0  0  0  0  0  2  0  0  0  0  0  0
  188.0410  178.9520  137.6730 S   0  0  0  0  0  0  0  0  0  0  0  0
  187.3440  178.1580  140.6070 N   0  0  0  0  0  0  0  0  0  0  0  0
  188.4970  177.6050  139.9990 C   0  0  0  0  0  0  0  0  0  0  0  0
  190.4890  176.5000  140.7390 N   0  0  0  0  0  0  0  0  0  0  0  0
  188.6750  177.1700  142.3160 C   0  0  2  0  0  3  0  0  0  0  0  0
  187.4300  177.9100  141.8810 C   0  0  0  0  0  0  0  0  0  0  0  0
  190.9620  176.3640  139.3560 C   0  0  0  0  0  2  0  0  0  0  0  0
  185.2480  179.0840  142.4060 C   0  0  2  0  0  3  0  0  0  0  0  0
  184.5830  179.7270  143.6130 C   0  0  0  0  0  1  0  0  0  0  0  0
  184.2720  178.1880  141.6480 C   0  0  0  0  0  2  0  0  0  0  0  0
  183.3650  178.9730  140.6970 C   0  0  2  0  0  3  0  0  0  0  0  0
  183.0930  178.2760  139.3610 C   0  0  1  0  0  0  0  0  0  0  0  0
  184.1630  179.3630  139.4620 C   0  0  1  0  0  3  0  0  0  0  0  0
  183.6980  180.5890  138.9790 O   0  0  0  0  0  1  0  0  0  0  0  0
  182.6030  175.8210  139.7700 N   0  0  0  0  0  2  0  0  0  0  0  0
  184.0590  176.4150  137.9300 N   0  0  0  0  0  2  0  0  0  0  0  0
  183.5630  176.8030  139.2560 C   0  0  2  0  0  0  0  0  0  0  0  0
  182.6800  176.1450  138.3420 C   0  0  2  0  0  3  0  0  0  0  0  0
  181.7240  178.6700  138.8000 C   0  0  0  0  0  2  0  0  0  0  0  0
  181.8870  179.4710  137.6660 O   0  0  0  0  0  0  0  0  0  0  0  0
  180.6360  180.0510  137.4500 C   0  0  1  0  0  3  0  0  0  0  0  0
  180.2640  183.5610  136.9800 N   0  0  0  0  0  1  0  0  0  0  0  0
  180.5430  182.0480  138.7970 N   0  0  0  0  0  2  0  0  0  0  0  0
  181.0070  182.4110  137.4630 C   0  0  1  0  0  3  0  0  0  0  0  0
  180.1300  180.6500  138.7420 C   0  0  0  0  0  2  0  0  0  0  0  0
  180.7880  181.2360  136.5370 C   0  0  0  0  0  2  0  0  0  0  0  0
  189.4960  178.0460  143.1360 N   0  0  0  0  0  2  0  0  0  0  0  0
  190.5970  177.2400  143.6340 C   0  0  0  0  0  2  0  0  0  0  0  0
  189.7590  178.1480  145.7990 C   0  0  0  0  0  2  0  0  0  0  0  0
  189.7670  177.2850  147.0030 C   0  0  0  0  0  0  0  0  0  0  0  0
  191.6040  176.5500  145.7970 C   0  0  0  0  0  2  0  0  0  0  0  0
  190.9950  177.7120  145.0190 C   0  0  1  0  0  3  0  0  0  0  0  0
  190.7630  176.4170  147.0120 C   0  0  0  0  0  3  0  0  0  0  0  0
  187.7280  178.2410  147.9800 C   0  0  0  0  0  2  0  0  0  0  0  0
  188.7570  177.4040  148.0640 C   0  0  0  0  0  3  0  0  0  0  0  0
  1  6  1  6  0  0  0
  1  5  1  0  0  0  0
  1  8  1  0  0  0  0
  2 13  1  0  0  0  0
  4  8  1  6  0  0  0
  4  7  1  0  0  0  0
  4 15  1  0  0  0  0
  5  9  1  0  0  0  0
  7 11  2  0  0  0  0
  9  7  1  0  0  0  0
 10 14  2  0  0  0  0
 11 10  1  0  0  0  0
 11  2  1  0  0  0  0
 12  2  2  0  0  0  0
 13 35  1  1  0  0  0
 14 13  1  0  0  0  0
 14  3  1  0  0  0  0
 15 12  1  0  0  0  0
 16  3  1  0  0  0  0
 16 17  1  1  0  0  0
 18 16  1  0  0  0  0
 19 18  1  1  0  0  0
 20 27  1  6  0  0  0
 20 21  1  0  0  0  0
 20 19  1  0  0  0  0
 21 22  1  6  0  0  0
 21 19  1  0  0  0  0
 25 24  1  6  0  0  0
 25 20  1  0  0  0  0
 25 23  1  0  0  0  0
 26 24  1  6  0  0  0
 26 25  1  0  0  0  0
 26 23  1  0  0  0  0
 28 27  1  0  0  0  0
 29 28  1  1  0  0  0
 29 33  1  0  0  0  0
 32 30  1  6  0  0  0
 32 31  1  0  0  0  0
 33 31  1  0  0  0  0
 34 29  1  0  0  0  0
 34 32  1  0  0  0  0
 35 36  1  0  0  0  0
 37 38  1  0  0  0  0
 38 41  2  0  0  0  0
 38 43  1  0  0  0  0
 39 41  1  0  0  0  0
 40 36  1  6  0  0  0
 40 39  1  0  0  0  0
 40 37  1  0  0  0  0
 42 43  2  0  0  0  0
M  END
>  <MODEL>
5

>  <REMARK>
 VINA RESULT:      -8.0      4.180      9.778
  Name = 
  11 active torsions:
  status: ('A' for Active; 'I' for Inactive)
    1  A    between atoms: N_1  and  C_32
    2  A    between atoms: N_1  and  C_34
    3  A    between atoms: C_2  and  C_6
    4  A    between atoms: C_2  and  N_13
    5  A    between atoms: C_3  and  C_6
    6  A    between atoms: C_4  and  C_22
    7  A    between atoms: C_4  and  C_41
    8  A    between atoms: C_11  and  O_14
    9  A    between atoms: O_14  and  C_41
   10  A    between atoms: C_19  and  C_37
   11  A    between atoms: C_32  and  C_35
                            x       y       z     vdW  Elec       q    Type
                         _______ _______ _______ _____ _____    ______ ____

>  <TORSDO>
F 11

$$$$
=
 OpenBabel11052416093D

 43 50  0  0  1  0  0  0  0  0999 V2000
  180.5570  178.4360  139.5620 C   0  0  2  0  0  3  0  0  0  0  0  0
  184.0490  179.1210  143.2170 C   0  0  0  0  0  0  0  0  0  0  0  0
  187.4870  177.9620  142.6800 N   0  0  0  0  0  2  0  0  0  0  0  0
  181.5860  178.6140  141.8890 C   0  0  2  0  0  3  0  0  0  0  0  0
  181.9090  178.3010  138.8760 C   0  0  0  0  0  2  0  0  0  0  0  0
  179.5870  179.1190  138.6220 C   0  0  0  0  0  1  0  0  0  0  0  0
  182.9210  178.2210  141.2790 C   0  0  0  0  0  0  0  0  0  0  0  0
  180.6940  179.2710  140.8320 C   0  0  0  0  0  2  0  0  0  0  0  0
  182.9470  177.1580  139.8330 S   0  0  0  0  0  0  0  0  0  0  0  0
  185.3470  178.0440  141.6150 N   0  0  0  0  0  0  0  0  0  0  0  0
  184.0500  178.5210  141.9210 C   0  0  0  0  0  0  0  0  0  0  0  0
  182.9710  179.5280  143.8070 N   0  0  0  0  0  0  0  0  0  0  0  0
  185.4060  178.9880  143.8000 C   0  0  2  0  0  3  0  0  0  0  0  0
  186.1020  178.3100  142.6410 C   0  0  0  0  0  0  0  0  0  0  0  0
  181.7020  179.6120  143.0720 C   0  0  0  0  0  2  0  0  0  0  0  0
  188.1560  177.2690  141.5860 C   0  0  2  0  0  3  0  0  0  0  0  0
  189.2420  176.3480  142.1200 C   0  0  0  0  0  1  0  0  0  0  0  0
  188.7210  178.2690  140.5810 C   0  0  0  0  0  2  0  0  0  0  0  0
  188.1770  178.0570  139.1660 C   0  0  2  0  0  3  0  0  0  0  0  0
  189.1880  177.4690  138.1780 C   0  0  1  0  0  0  0  0  0  0  0  0
  188.9210  178.9750  138.2080 C   0  0  1  0  0  3  0  0  0  0  0  0
  188.0610  179.3640  137.1780 O   0  0  0  0  0  1  0  0  0  0  0  0
  190.4520  175.5900  139.3230 N   0  0  0  0  0  2  0  0  0  0  0  0
  191.6930  177.1370  137.9340 N   0  0  0  0  0  2  0  0  0  0  0  0
  190.5150  176.9570  138.7930 C   0  0  2  0  0  0  0  0  0  0  0  0
  190.9620  175.8680  137.9760 C   0  0  2  0  0  3  0  0  0  0  0  0
  188.4900  176.6400  137.0990 C   0  0  0  0  0  2  0  0  0  0  0  0
  187.3850  175.9800  137.6460 O   0  0  0  0  0  0  0  0  0  0  0  0
  186.3500  176.1910  136.7340 C   0  0  1  0  0  3  0  0  0  0  0  0
  183.8460  173.7260  136.1540 N   0  0  0  0  0  1  0  0  0  0  0  0
  186.0900  174.1490  135.4790 N   0  0  0  0  0  2  0  0  0  0  0  0
  185.1680  174.1180  136.6090 C   0  0  1  0  0  3  0  0  0  0  0  0
  186.6720  175.4860  135.4370 C   0  0  0  0  0  2  0  0  0  0  0  0
  185.1080  175.4980  137.2230 C   0  0  0  0  0  2  0  0  0  0  0  0
  185.3700  178.0840  144.9370 N   0  0  0  0  0  2  0  0  0  0  0  0
  186.1830  178.6880  145.9780 C   0  0  0  0  0  2  0  0  0  0  0  0
  188.1640  177.1740  145.9740 C   0  0  0  0  0  2  0  0  0  0  0  0
  189.2820  177.4350  146.9100 C   0  0  0  0  0  0  0  0  0  0  0  0
  187.4190  178.1770  148.0710 C   0  0  0  0  0  2  0  0  0  0  0  0
  186.9220  177.6090  146.7450 C   0  0  1  0  0  3  0  0  0  0  0  0
  188.8890  177.9760  148.0490 C   0  0  0  0  0  3  0  0  0  0  0  0
  191.0950  176.9510  145.3280 C   0  0  0  0  0  2  0  0  0  0  0  0
  190.6780  177.1140  146.5790 C   0  0  0  0  0  3  0  0  0  0  0  0
  1  6  1  6  0  0  0
  1  8  1  0  0  0  0
  2 13  1  0  0  0  0
  2 12  2  0  0  0  0
  4  8  1  6  0  0  0
  4 15  1  0  0  0  0
  5  1  1  0  0  0  0
  5  9  1  0  0  0  0
  7  4  1  0  0  0  0
  7 11  2  0  0  0  0
  9  7  1  0  0  0  0
 10 11  1  0  0  0  0
 10 14  2  0  0  0  0
 11  2  1  0  0  0  0
 13 35  1  1  0  0  0
 14  3  1  0  0  0  0
 14 13  1  0  0  0  0
 15 12  1  0  0  0  0
 16 17  1  1  0  0  0
 16  3  1  0  0  0  0
 18 16  1  0  0  0  0
 19 18  1  1  0  0  0
 20 27  1  6  0  0  0
 20 21  1  0  0  0  0
 20 25  1  0  0  0  0
 20 19  1  0  0  0  0
 21 22  1  6  0  0  0
 21 19  1  0  0  0  0
 25 24  1  1  0  0  0
 25 23  1  0  0  0  0
 26 24  1  1  0  0  0
 26 25  1  0  0  0  0
 26 23  1  0  0  0  0
 27 28  1  0  0  0  0
 29 34  1  0  0  0  0
 29 28  1  1  0  0  0
 31 32  1  0  0  0  0
 32 30  1  6  0  0  0
 32 34  1  0  0  0  0
 33 31  1  0  0  0  0
 33 29  1  0  0  0  0
 35 36  1  0  0  0  0
 37 40  1  0  0  0  0
 37 38  1  0  0  0  0
 38 41  2  0  0  0  0
 40 36  1  6  0  0  0
 40 39  1  0  0  0  0
 41 39  1  0  0  0  0
 42 43  2  0  0  0  0
 43 38  1  0  0  0  0
M  END
>  <MODEL>
6

>  <REMARK>
 VINA RESULT:      -7.8      3.311      7.703
  Name = 
  11 active torsions:
  status: ('A' for Active; 'I' for Inactive)
    1  A    between atoms: N_1  and  C_32
    2  A    between atoms: N_1  and  C_34
    3  A    between atoms: C_2  and  C_6
    4  A    between atoms: C_2  and  N_13
    5  A    between atoms: C_3  and  C_6
    6  A    between atoms: C_4  and  C_22
    7  A    between atoms: C_4  and  C_41
    8  A    between atoms: C_11  and  O_14
    9  A    between atoms: O_14  and  C_41
   10  A    between atoms: C_19  and  C_37
   11  A    between atoms: C_32  and  C_35
                            x       y       z     vdW  Elec       q    Type
                         _______ _______ _______ _____ _____    ______ ____

>  <TORSDO>
F 11

$$$$
=
 OpenBabel11052416093D

 43 50  0  0  1  0  0  0  0  0999 V2000
  190.7910  177.1180  137.8810 C   0  0  2  0  0  3  0  0  0  0  0  0
  187.0970  178.0950  141.2600 C   0  0  0  0  0  0  0  0  0  0  0  0
  183.8280  179.2690  140.0830 N   0  0  0  0  0  2  0  0  0  0  0  0
  189.6540  177.8780  140.0320 C   0  0  2  0  0  3  0  0  0  0  0  0
  189.4910  177.1100  137.0890 C   0  0  0  0  0  2  0  0  0  0  0  0
  191.7210  176.0610  137.3210 C   0  0  0  0  0  1  0  0  0  0  0  0
  188.3940  178.1370  139.2220 C   0  0  0  0  0  0  0  0  0  0  0  0
  190.5130  176.8110  139.3490 C   0  0  0  0  0  2  0  0  0  0  0  0
  188.5430  178.6040  137.4960 S   0  0  0  0  0  0  0  0  0  0  0  0
  185.9890  178.6280  139.2850 N   0  0  0  0  0  0  0  0  0  0  0  0
  187.2150  178.1850  139.8390 C   0  0  0  0  0  0  0  0  0  0  0  0
  188.1010  177.8380  142.0370 N   0  0  0  0  0  0  0  0  0  0  0  0
  185.7390  178.5440  141.6510 C   0  0  2  0  0  3  0  0  0  0  0  0
  185.1680  178.8140  140.2780 C   0  0  0  0  0  0  0  0  0  0  0  0
  189.3830  177.3880  141.4800 C   0  0  0  0  0  2  0  0  0  0  0  0
  183.2830  179.5750  138.7670 C   0  0  2  0  0  3  0  0  0  0  0  0
  182.7690  181.0060  138.7190 C   0  0  0  0  0  1  0  0  0  0  0  0
  182.1880  178.5800  138.3930 C   0  0  0  0  0  2  0  0  0  0  0  0
  182.5430  177.1390  138.7690 C   0  0  2  0  0  3  0  0  0  0  0  0
  182.8140  176.2200  137.5760 C   0  0  1  0  0  0  0  0  0  0  0  0
  181.4490  176.2120  138.2640 C   0  0  1  0  0  3  0  0  0  0  0  0
  181.3200  175.1290  139.1380 O   0  0  0  0  0  1  0  0  0  0  0  0
  184.3000  177.1650  135.7490 N   0  0  0  0  0  2  0  0  0  0  0  0
  182.1290  176.2910  135.1320 N   0  0  0  0  0  2  0  0  0  0  0  0
  182.9250  176.9160  136.1950 C   0  0  2  0  0  0  0  0  0  0  0  0
  183.5500  175.9850  135.3050 C   0  0  2  0  0  3  0  0  0  0  0  0
  183.8060  175.1140  137.9420 C   0  0  0  0  0  2  0  0  0  0  0  0
  183.4420  173.9200  137.3120 O   0  0  0  0  0  0  0  0  0  0  0  0
  184.4810  173.0320  137.5930 C   0  0  1  0  0  3  0  0  0  0  0  0
  187.4240  172.9110  135.5920 N   0  0  0  0  0  1  0  0  0  0  0  0
  185.1910  172.0900  135.4910 N   0  0  0  0  0  2  0  0  0  0  0  0
  186.0250  173.2510  135.7830 C   0  0  1  0  0  3  0  0  0  0  0  0
  184.3800  171.8350  136.6760 C   0  0  0  0  0  2  0  0  0  0  0  0
  185.7920  173.6650  137.2180 C   0  0  0  0  0  2  0  0  0  0  0  0
  185.8250  179.7900  142.3940 N   0  0  0  0  0  2  0  0  0  0  0  0
  184.7760  179.7520  143.3980 C   0  0  0  0  0  2  0  0  0  0  0  0
  186.3170  178.4770  144.8860 C   0  0  0  0  0  2  0  0  0  0  0  0
  186.0530  178.4330  146.3430 C   0  0  0  0  0  0  0  0  0  0  0  0
  183.9350  178.5650  145.4110 C   0  0  0  0  0  2  0  0  0  0  0  0
  184.9290  178.5110  144.2560 C   0  0  1  0  0  3  0  0  0  0  0  0
  184.7660  178.4790  146.6380 C   0  0  0  0  0  3  0  0  0  0  0  0
  188.0510  177.3870  147.3120 C   0  0  0  0  0  2  0  0  0  0  0  0
  187.1320  178.3470  147.3370 C   0  0  0  0  0  3  0  0  0  0  0  0
  1  6  1  6  0  0  0
  1  8  1  0  0  0  0
  2 13  1  0  0  0  0
  2 12  2  0  0  0  0
  3 14  1  0  0  0  0
  4  8  1  6  0  0  0
  4 15  1  0  0  0  0
  5  9  1  0  0  0  0
  5  1  1  0  0  0  0
  7 11  2  0  0  0  0
  7  4  1  0  0  0  0
  9  7  1  0  0  0  0
 10 11  1  0  0  0  0
 10 14  2  0  0  0  0
 11  2  1  0  0  0  0
 13 35  1  1  0  0  0
 14 13  1  0  0  0  0
 15 12  1  0  0  0  0
 16 17  1  1  0  0  0
 16  3  1  0  0  0  0
 18 16  1  0  0  0  0
 19 18  1  6  0  0  0
 20 27  1  1  0  0  0
 20 21  1  0  0  0  0
 20 19  1  0  0  0  0
 21 19  1  0  0  0  0
 21 22  1  1  0  0  0
 23 25  1  0  0  0  0
 25 24  1  6  0  0  0
 25 20  1  0  0  0  0
 26 24  1  6  0  0  0
 26 23  1  0  0  0  0
 26 25  1  0  0  0  0
 28 27  1  0  0  0  0
 29 28  1  6  0  0  0
 31 32  1  0  0  0  0
 31 33  1  0  0  0  0
 32 30  1  1  0  0  0
 32 34  1  0  0  0  0
 33 29  1  0  0  0  0
 34 29  1  0  0  0  0
 35 36  1  0  0  0  0
 37 38  1  0  0  0  0
 38 41  2  0  0  0  0
 38 43  1  0  0  0  0
 39 41  1  0  0  0  0
 40 36  1  6  0  0  0
 40 37  1  0  0  0  0
 40 39  1  0  0  0  0
 42 43  2  0  0  0  0
M  END
>  <MODEL>
7

>  <REMARK>
 VINA RESULT:      -7.7      4.181      7.571
  Name = 
  11 active torsions:
  status: ('A' for Active; 'I' for Inactive)
    1  A    between atoms: N_1  and  C_32
    2  A    between atoms: N_1  and  C_34
    3  A    between atoms: C_2  and  C_6
    4  A    between atoms: C_2  and  N_13
    5  A    between atoms: C_3  and  C_6
    6  A    between atoms: C_4  and  C_22
    7  A    between atoms: C_4  and  C_41
    8  A    between atoms: C_11  and  O_14
    9  A    between atoms: O_14  and  C_41
   10  A    between atoms: C_19  and  C_37
   11  A    between atoms: C_32  and  C_35
                            x       y       z     vdW  Elec       q    Type
                         _______ _______ _______ _____ _____    ______ ____

>  <TORSDO>
F 11

$$$$
=
 OpenBabel11052416093D

 43 50  0  0  1  0  0  0  0  0999 V2000
  180.6540  174.1170  137.7320 C   0  0  2  0  0  3  0  0  0  0  0  0
  183.4240  177.9450  139.6550 C   0  0  0  0  0  0  0  0  0  0  0  0
  186.6720  178.7610  138.1600 N   0  0  0  0  0  2  0  0  0  0  0  0
  181.6810  175.7070  139.4400 C   0  0  2  0  0  3  0  0  0  0  0  0
  181.6510  174.4940  136.6460 C   0  0  0  0  0  2  0  0  0  0  0  0
  179.3380  173.7320  137.0870 C   0  0  0  0  0  1  0  0  0  0  0  0
  182.8430  175.9130  138.4840 C   0  0  0  0  0  0  0  0  0  0  0  0
  180.4240  175.3010  138.6670 C   0  0  0  0  0  2  0  0  0  0  0  0
  183.3130  174.5820  137.3750 S   0  0  0  0  0  0  0  0  0  0  0  0
  184.8390  177.2400  137.9480 N   0  0  0  0  0  0  0  0  0  0  0  0
  183.6040  177.0010  138.5980 C   0  0  0  0  0  0  0  0  0  0  0  0
  182.4430  177.8820  140.4990 N   0  0  0  0  0  0  0  0  0  0  0  0
  184.6240  178.8130  139.7220 C   0  0  2  0  0  3  0  0  0  0  0  0
  185.3990  178.2460  138.5550 C   0  0  0  0  0  0  0  0  0  0  0  0
  181.3180  176.9670  140.2720 C   0  0  0  0  0  2  0  0  0  0  0  0
  187.4470  178.1920  137.0650 C   0  0  2  0  0  3  0  0  0  0  0  0
  187.1550  176.7070  136.9160 C   0  0  0  0  0  1  0  0  0  0  0  0
  188.9370  178.4470  137.2700 C   0  0  0  0  0  2  0  0  0  0  0  0
  189.3540  178.3700  138.7410 C   0  0  2  0  0  3  0  0  0  0  0  0
  190.2500  177.1770  139.0850 C   0  0  1  0  0  0  0  0  0  0  0  0
  188.7470  177.1210  139.3620 C   0  0  1  0  0  3  0  0  0  0  0  0
  188.4630  177.3650  140.7090 O   0  0  0  0  0  1  0  0  0  0  0  0
  192.1450  176.7530  137.4530 N   0  0  0  0  0  2  0  0  0  0  0  0
  190.6780  174.9130  138.0200 N   0  0  0  0  0  2  0  0  0  0  0  0
  190.7950  176.3700  137.8800 C   0  0  2  0  0  0  0  0  0  0  0  0
  191.9180  175.6170  138.3530 C   0  0  2  0  0  3  0  0  0  0  0  0
  191.1810  177.5030  140.2550 C   0  0  0  0  0  2  0  0  0  0  0  0
  190.8760  176.6870  141.3480 O   0  0  0  0  0  0  0  0  0  0  0  0
  191.6470  177.1860  142.3990 C   0  0  1  0  0  3  0  0  0  0  0  0
  190.6650  176.7650  145.7960 N   0  0  0  0  0  1  0  0  0  0  0  0
  190.1250  178.1960  143.9710 N   0  0  0  0  0  2  0  0  0  0  0  0
  190.3590  176.8150  144.3770 C   0  0  1  0  0  3  0  0  0  0  0  0
  191.0520  178.4880  142.8840 C   0  0  0  0  0  2  0  0  0  0  0  0
  191.5250  176.2690  143.5840 C   0  0  0  0  0  2  0  0  0  0  0  0
  185.3510  178.5590  140.9550 N   0  0  0  0  0  2  0  0  0  0  0  0
  184.6230  179.2320  142.0160 C   0  0  0  0  0  2  0  0  0  0  0  0
  185.7650  178.1700  143.9610 C   0  0  0  0  0  2  0  0  0  0  0  0
  185.4290  178.6130  145.3350 C   0  0  0  0  0  0  0  0  0  0  0  0
  183.4420  178.8890  144.1740 C   0  0  0  0  0  2  0  0  0  0  0  0
  184.4510  178.2960  143.1970 C   0  0  1  0  0  3  0  0  0  0  0  0
  184.1740  179.0030  145.4600 C   0  0  0  0  0  3  0  0  0  0  0  0
  187.2100  177.5730  146.6650 C   0  0  0  0  0  2  0  0  0  0  0  0
  186.4130  178.6090  146.4260 C   0  0  0  0  0  3  0  0  0  0  0  0
  1  6  1  6  0  0  0
  1  8  1  0  0  0  0
  2 13  1  0  0  0  0
  2 12  2  0  0  0  0
  3 14  1  0  0  0  0
  4  8  1  6  0  0  0
  4 15  1  0  0  0  0
  5  9  1  0  0  0  0
  5  1  1  0  0  0  0
  7 11  2  0  0  0  0
  7  4  1  0  0  0  0
  9  7  1  0  0  0  0
 10 14  2  0  0  0  0
 10 11  1  0  0  0  0
 11  2  1  0  0  0  0
 13 35  1  1  0  0  0
 14 13  1  0  0  0  0
 15 12  1  0  0  0  0
 16 17  1  1  0  0  0
 16 18  1  0  0  0  0
 16  3  1  0  0  0  0
 19 18  1  6  0  0  0
 19 20  1  0  0  0  0
 19 21  1  0  0  0  0
 20 21  1  0  0  0  0
 20 27  1  1  0  0  0
 21 22  1  1  0  0  0
 24 26  1  0  0  0  0
 25 23  1  6  0  0  0
 25 24  1  0  0  0  0
 25 26  1  0  0  0  0
 25 20  1  0  0  0  0
 26 23  1  6  0  0  0
 27 28  1  0  0  0  0
 29 28  1  6  0  0  0
 29 33  1  0  0  0  0
 29 34  1  0  0  0  0
 31 32  1  0  0  0  0
 32 30  1  1  0  0  0
 33 31  1  0  0  0  0
 34 32  1  0  0  0  0
 35 36  1  0  0  0  0
 37 38  1  0  0  0  0
 38 41  2  0  0  0  0
 38 43  1  0  0  0  0
 39 41  1  0  0  0  0
 40 36  1  6  0  0  0
 40 37  1  0  0  0  0
 40 39  1  0  0  0  0
 43 42  2  0  0  0  0
M  END
>  <MODEL>
8

>  <REMARK>
 VINA RESULT:      -7.7      3.293      7.187
  Name = 
  11 active torsions:
  status: ('A' for Active; 'I' for Inactive)
    1  A    between atoms: N_1  and  C_32
    2  A    between atoms: N_1  and  C_34
    3  A    between atoms: C_2  and  C_6
    4  A    between atoms: C_2  and  N_13
    5  A    between atoms: C_3  and  C_6
    6  A    between atoms: C_4  and  C_22
    7  A    between atoms: C_4  and  C_41
    8  A    between atoms: C_11  and  O_14
    9  A    between atoms: O_14  and  C_41
   10  A    between atoms: C_19  and  C_37
   11  A    between atoms: C_32  and  C_35
                            x       y       z     vdW  Elec       q    Type
                         _______ _______ _______ _____ _____    ______ ____

>  <TORSDO>
F 11

$$$$
=
 OpenBabel11052416093D

 43 50  0  0  1  0  0  0  0  0999 V2000
  190.5390  177.1320  137.5110 C   0  0  2  0  0  3  0  0  0  0  0  0
  187.0520  178.1100  141.1040 C   0  0  0  0  0  0  0  0  0  0  0  0
  183.6950  179.2100  140.1200 N   0  0  0  0  0  2  0  0  0  0  0  0
  189.5280  177.9120  139.7180 C   0  0  2  0  0  3  0  0  0  0  0  0
  189.1910  177.0890  136.8050 C   0  0  0  0  0  2  0  0  0  0  0  0
  191.4500  176.0810  136.9110 C   0  0  0  0  0  1  0  0  0  0  0  0
  188.2150  178.1360  138.9870 C   0  0  0  0  0  0  0  0  0  0  0  0
  190.3600  176.8470  139.0000 C   0  0  0  0  0  2  0  0  0  0  0  0
  188.2450  178.5750  137.2460 S   0  0  0  0  0  0  0  0  0  0  0  0
  185.8110  178.5890  139.1960 N   0  0  0  0  0  0  0  0  0  0  0  0
  187.0770  178.1760  139.6770 C   0  0  0  0  0  0  0  0  0  0  0  0
  188.1080  177.8830  141.8190 N   0  0  0  0  0  0  0  0  0  0  0  0
  185.7140  178.5440  141.5740 C   0  0  2  0  0  3  0  0  0  0  0  0
  185.0520  178.7810  140.2360 C   0  0  0  0  0  0  0  0  0  0  0  0
  189.3590  177.4440  141.1880 C   0  0  0  0  0  2  0  0  0  0  0  0
  183.0610  179.4840  138.8370 C   0  0  2  0  0  3  0  0  0  0  0  0
  182.6470  180.9440  138.7430 C   0  0  0  0  0  1  0  0  0  0  0  0
  181.8720  178.5550  138.6140 C   0  0  0  0  0  2  0  0  0  0  0  0
  182.2550  177.2660  137.8820 C   0  0  2  0  0  3  0  0  0  0  0  0
  181.4340  176.0390  138.2860 C   0  0  1  0  0  0  0  0  0  0  0  0
  182.8200  176.2750  138.8880 C   0  0  1  0  0  3  0  0  0  0  0  0
  183.7920  175.4870  138.2660 O   0  0  0  0  0  1  0  0  0  0  0  0
  178.9620  176.5870  138.4400 N   0  0  0  0  0  2  0  0  0  0  0  0
  179.9750  175.3160  140.2330 N   0  0  0  0  0  2  0  0  0  0  0  0
  180.1990  176.3140  139.1800 C   0  0  2  0  0  0  0  0  0  0  0  0
  179.2700  175.2480  138.9510 C   0  0  2  0  0  3  0  0  0  0  0  0
  181.3180  175.0450  137.1280 C   0  0  0  0  0  2  0  0  0  0  0  0
  181.7480  173.7810  137.5410 O   0  0  0  0  0  0  0  0  0  0  0  0
  181.7530  173.0040  136.3810 C   0  0  1  0  0  3  0  0  0  0  0  0
  183.7870  170.0950  136.0940 N   0  0  0  0  0  1  0  0  0  0  0  0
  184.0520  172.4540  135.9100 N   0  0  0  0  0  2  0  0  0  0  0  0
  183.4710  171.3750  136.7020 C   0  0  1  0  0  3  0  0  0  0  0  0
  182.9630  173.3540  135.5470 C   0  0  0  0  0  2  0  0  0  0  0  0
  181.9720  171.5620  136.7490 C   0  0  0  0  0  2  0  0  0  0  0  0
  185.8260  179.8050  142.2880 N   0  0  0  0  0  2  0  0  0  0  0  0
  184.8600  179.7580  143.3720 C   0  0  0  0  0  2  0  0  0  0  0  0
  186.4110  178.3360  144.7090 C   0  0  0  0  0  2  0  0  0  0  0  0
  186.1970  178.1970  146.1680 C   0  0  0  0  0  0  0  0  0  0  0  0
  184.0530  178.4570  145.3280 C   0  0  0  0  0  2  0  0  0  0  0  0
  185.0030  178.4560  144.1350 C   0  0  1  0  0  3  0  0  0  0  0  0
  184.9240  178.2590  146.5130 C   0  0  0  0  0  3  0  0  0  0  0  0
  188.4790  177.5010  146.7450 C   0  0  0  0  0  2  0  0  0  0  0  0
  187.3070  178.0090  147.1130 C   0  0  0  0  0  3  0  0  0  0  0  0
  1  6  1  6  0  0  0
  1  8  1  0  0  0  0
  2 13  1  0  0  0  0
  2 12  2  0  0  0  0
  3 14  1  0  0  0  0
  4  8  1  6  0  0  0
  4 15  1  0  0  0  0
  5  9  1  0  0  0  0
  5  1  1  0  0  0  0
  7 11  2  0  0  0  0
  7  4  1  0  0  0  0
  9  7  1  0  0  0  0
 10 11  1  0  0  0  0
 10 14  2  0  0  0  0
 11  2  1  0  0  0  0
 13 35  1  1  0  0  0
 14 13  1  0  0  0  0
 15 12  1  0  0  0  0
 16 17  1  1  0  0  0
 16  3  1  0  0  0  0
 18 16  1  0  0  0  0
 19 20  1  0  0  0  0
 19 18  1  1  0  0  0
 19 21  1  0  0  0  0
 20 27  1  6  0  0  0
 20 21  1  0  0  0  0
 20 25  1  0  0  0  0
 21 22  1  6  0  0  0
 25 23  1  1  0  0  0
 25 24  1  0  0  0  0
 26 23  1  1  0  0  0
 26 25  1  0  0  0  0
 26 24  1  0  0  0  0
 27 28  1  0  0  0  0
 29 34  1  0  0  0  0
 29 28  1  1  0  0  0
 31 32  1  0  0  0  0
 32 30  1  6  0  0  0
 32 34  1  0  0  0  0
 33 31  1  0  0  0  0
 33 29  1  0  0  0  0
 35 36  1  0  0  0  0
 37 38  1  0  0  0  0
 38 41  2  0  0  0  0
 38 43  1  0  0  0  0
 39 41  1  0  0  0  0
 40 36  1  1  0  0  0
 40 37  1  0  0  0  0
 40 39  1  0  0  0  0
 42 43  2  0  0  0  0
M  END
>  <MODEL>
9

>  <REMARK>
 VINA RESULT:      -7.6      4.490      8.675
  Name = 
  11 active torsions:
  status: ('A' for Active; 'I' for Inactive)
    1  A    between atoms: N_1  and  C_32
    2  A    between atoms: N_1  and  C_34
    3  A    between atoms: C_2  and  C_6
    4  A    between atoms: C_2  and  N_13
    5  A    between atoms: C_3  and  C_6
    6  A    between atoms: C_4  and  C_22
    7  A    between atoms: C_4  and  C_41
    8  A    between atoms: C_11  and  O_14
    9  A    between atoms: O_14  and  C_41
   10  A    between atoms: C_19  and  C_37
   11  A    between atoms: C_32  and  C_35
                            x       y       z     vdW  Elec       q    Type
                         _______ _______ _______ _____ _____    ______ ____

>  <TORSDO>
F 11

$$$$
