=
 OpenBabel11052414273D

 32 34  0  0  1  0  0  0  0  0999 V2000
  187.0850  177.6250  144.7070 C   0  0  1  0  0  3  0  0  0  0  0  0
  186.8110  178.8720  142.7310 C   0  0  1  0  0  3  0  0  0  0  0  0
  187.4050  177.7620  146.1970 C   0  0  0  0  0  2  0  0  0  0  0  0
  186.5490  178.9170  144.2180 C   0  0  1  0  0  3  0  0  0  0  0  0
  188.0020  178.1300  142.5520 O   0  0  0  0  0  0  0  0  0  0  0  0
  185.1610  179.1940  144.8090 C   0  0  2  0  0  3  0  0  0  0  0  0
  185.2560  179.0780  146.3220 C   0  0  0  0  0  3  0  0  0  0  0  0
  187.9750  175.8650  143.2480 C   0  0  0  0  0  1  0  0  0  0  0  0
  188.1890  177.3040  143.6910 C   0  0  2  0  0  0  0  0  0  0  0  0
  186.2430  178.3940  146.9440 C   0  0  0  0  0  3  0  0  0  0  0  0
  189.6490  177.4170  144.2190 C   0  0  2  0  0  3  0  0  0  0  0  0
  189.9780  178.7570  144.4550 O   0  0  0  0  0  1  0  0  0  0  0  0
  190.8090  176.6480  143.4940 C   0  0  2  0  0  0  0  0  0  0  0  0
  190.2860  175.5450  142.8110 O   0  0  0  0  0  1  0  0  0  0  0  0
  191.8630  176.1350  144.5230 C   0  0  1  0  0  3  0  0  0  0  0  0
  191.4440  176.2760  145.9770 C   0  0  0  0  0  1  0  0  0  0  0  0
  192.1750  174.7970  144.2820 O   0  0  0  0  0  1  0  0  0  0  0  0
  191.4280  177.4790  142.5160 O   0  0  0  0  0  0  0  0  0  0  0  0
  191.0070  177.1270  141.2140 C   0  0  0  0  0  2  0  0  0  0  0  0
  191.9620  177.5480  140.2890 O   0  0  0  0  0  1  0  0  0  0  0  0
  185.7710  178.2490  142.0350 O   0  0  0  0  0  0  0  0  0  0  0  0
  185.7810  178.8350  140.7710 C   0  0  0  0  0  2  0  0  0  0  0  0
  182.1560  179.1240  138.5160 C   0  0  0  0  0  2  0  0  0  0  0  0
  184.3770  179.8850  139.1390 O   0  0  0  0  0  0  0  0  0  0  0  0
  184.3600  179.1010  140.3090 C   0  0  1  0  0  3  0  0  0  0  0  0
  183.6160  177.7700  140.0820 C   0  0  0  0  0  2  0  0  0  0  0  0
  183.0490  180.3020  138.9320 C   0  0  0  0  0  2  0  0  0  0  0  0
  182.8350  177.7750  138.7670 C   0  0  0  0  0  2  0  0  0  0  0  0
  184.1090  178.2070  144.3000 C   0  0  0  0  0  2  0  0  0  0  0  0
  182.0190  179.0020  143.3350 C   0  0  0  0  0  0  0  0  0  0  0  0
  182.7270  178.7620  144.4040 C   0  0  0  0  0  3  0  0  0  0  0  0
  181.3590  179.2330  142.3160 O   0  0  0  0  0  0  0  0  0  0  0  0
  1  3  1  1  0  0  0
  2 21  1  6  0  0  0
  2  4  1  0  0  0  0
  3 10  1  0  0  0  0
  4  1  1  0  0  0  0
  4  6  1  0  0  0  0
  5  2  1  0  0  0  0
  5  9  1  0  0  0  0
  6  7  1  0  0  0  0
  7 10  2  0  0  0  0
  8  9  1  0  0  0  0
  9 11  1  0  0  0  0
  9  1  1  0  0  0  0
 11 12  1  0  0  0  0
 13 11  1  0  0  0  0
 13 15  1  0  0  0  0
 14 13  1  0  0  0  0
 15 16  1  0  0  0  0
 17 15  1  0  0  0  0
 18 13  1  0  0  0  0
 19 18  1  0  0  0  0
 20 19  1  0  0  0  0
 22 21  1  0  0  0  0
 23 28  1  0  0  0  0
 23 27  1  0  0  0  0
 24 25  1  0  0  0  0
 25 22  1  0  0  0  0
 26 25  1  0  0  0  0
 27 24  1  0  0  0  0
 28 26  1  0  0  0  0
 29 31  1  0  0  0  0
 29  6  1  0  0  0  0
 30 31  2  0  0  0  0
 32 30  2  0  0  0  0
M  END
>  <MODEL>
1

>  <REMARK>
 VINA RESULT:      -7.4      0.000      0.000
  Name = 
  10 active torsions:
  status: ('A' for Active; 'I' for Inactive)
    1  A    between atoms: C_2  and  O_6
    2  A    between atoms: C_3  and  C_22
    3  A    between atoms: O_6  and  C_17
    4  A    between atoms: C_7  and  O_15
    5  A    between atoms: C_12  and  C_17
    6  A    between atoms: C_14  and  C_29
    7  A    between atoms: O_15  and  C_22
    8  A    between atoms: C_16  and  C_22
    9  A    between atoms: C_16  and  C_27
   10  A    between atoms: C_18  and  C_29
                            x       y       z     vdW  Elec       q    Type
                         _______ _______ _______ _____ _____    ______ ____

>  <TORSDO>
F 10

$$$$
=
 OpenBabel11052414273D

 32 34  0  0  1  0  0  0  0  0999 V2000
  190.5740  177.5910  143.0700 C   0  0  1  0  0  3  0  0  0  0  0  0
  188.6950  176.1780  143.1660 C   0  0  1  0  0  3  0  0  0  0  0  0
  192.0560  177.6190  142.6910 C   0  0  0  0  0  2  0  0  0  0  0  0
  189.9200  176.4830  142.3350 C   0  0  1  0  0  3  0  0  0  0  0  0
  189.0430  176.4430  144.5110 O   0  0  0  0  0  0  0  0  0  0  0  0
  189.8500  176.7860  140.8330 C   0  0  2  0  0  3  0  0  0  0  0  0
  191.2500  177.1280  140.3510 C   0  0  0  0  0  3  0  0  0  0  0  0
  189.6240  178.6750  145.0550 C   0  0  0  0  0  1  0  0  0  0  0  0
  190.1380  177.3460  144.5200 C   0  0  2  0  0  0  0  0  0  0  0  0
  192.2300  177.5460  141.1830 C   0  0  0  0  0  3  0  0  0  0  0  0
  191.2510  176.8540  145.4890 C   0  0  2  0  0  3  0  0  0  0  0  0
  191.8910  175.7260  144.9600 O   0  0  0  0  0  1  0  0  0  0  0  0
  190.9470  176.6910  147.0200 C   0  0  2  0  0  0  0  0  0  0  0  0
  190.7700  175.3360  147.3220 O   0  0  0  0  0  1  0  0  0  0  0  0
  189.6450  177.4560  147.4110 C   0  0  1  0  0  3  0  0  0  0  0  0
  188.4640  176.5610  147.7470 C   0  0  0  0  0  1  0  0  0  0  0  0
  189.8800  178.3030  148.4940 O   0  0  0  0  0  1  0  0  0  0  0  0
  192.0480  177.1440  147.8020 O   0  0  0  0  0  0  0  0  0  0  0  0
  192.7400  176.0550  148.3780 C   0  0  0  0  0  2  0  0  0  0  0  0
  193.6070  176.5270  149.3640 O   0  0  0  0  0  1  0  0  0  0  0  0
  187.6060  176.9770  142.8070 O   0  0  0  0  0  0  0  0  0  0  0  0
  186.7810  176.9880  143.9300 C   0  0  0  0  0  2  0  0  0  0  0  0
  183.3630  179.5550  144.1180 C   0  0  0  0  0  2  0  0  0  0  0  0
  184.7240  177.8470  143.0550 O   0  0  0  0  0  0  0  0  0  0  0  0
  185.8310  178.1700  143.8650 C   0  0  1  0  0  3  0  0  0  0  0  0
  185.3880  178.5760  145.2840 C   0  0  0  0  0  2  0  0  0  0  0  0
  184.0400  179.0570  142.8330 C   0  0  0  0  0  2  0  0  0  0  0  0
  183.8800  178.8210  145.3590 C   0  0  0  0  0  2  0  0  0  0  0  0
  188.9180  177.9600  140.5240 C   0  0  0  0  0  2  0  0  0  0  0  0
  188.6900  178.7400  138.2280 C   0  0  0  0  0  0  0  0  0  0  0  0
  188.3530  177.8750  139.1450 C   0  0  0  0  0  3  0  0  0  0  0  0
  189.0090  179.5690  137.3690 O   0  0  0  0  0  0  0  0  0  0  0  0
  1  3  1  1  0  0  0
  1  9  1  0  0  0  0
  2 21  1  6  0  0  0
  2  5  1  0  0  0  0
  4  1  1  0  0  0  0
  4  2  1  0  0  0  0
  5  9  1  0  0  0  0
  6  4  1  0  0  0  0
  7  6  1  0  0  0  0
  7 10  2  0  0  0  0
  9  8  1  0  0  0  0
  9 11  1  0  0  0  0
 10  3  1  0  0  0  0
 11 13  1  0  0  0  0
 12 11  1  0  0  0  0
 13 14  1  0  0  0  0
 13 15  1  0  0  0  0
 13 18  1  0  0  0  0
 15 16  1  0  0  0  0
 15 17  1  0  0  0  0
 18 19  1  0  0  0  0
 19 20  1  0  0  0  0
 21 22  1  0  0  0  0
 23 28  1  0  0  0  0
 24 25  1  0  0  0  0
 25 22  1  0  0  0  0
 25 26  1  0  0  0  0
 26 28  1  0  0  0  0
 27 24  1  0  0  0  0
 27 23  1  0  0  0  0
 29  6  1  0  0  0  0
 30 31  2  0  0  0  0
 31 29  1  0  0  0  0
 32 30  2  0  0  0  0
M  END
>  <MODEL>
2

>  <REMARK>
 VINA RESULT:      -7.4      2.447      5.625
  Name = 
  10 active torsions:
  status: ('A' for Active; 'I' for Inactive)
    1  A    between atoms: C_2  and  O_6
    2  A    between atoms: C_3  and  C_22
    3  A    between atoms: O_6  and  C_17
    4  A    between atoms: C_7  and  O_15
    5  A    between atoms: C_12  and  C_17
    6  A    between atoms: C_14  and  C_29
    7  A    between atoms: O_15  and  C_22
    8  A    between atoms: C_16  and  C_22
    9  A    between atoms: C_16  and  C_27
   10  A    between atoms: C_18  and  C_29
                            x       y       z     vdW  Elec       q    Type
                         _______ _______ _______ _____ _____    ______ ____

>  <TORSDO>
F 10

$$$$
=
 OpenBabel11052414273D

 32 34  0  0  1  0  0  0  0  0999 V2000
  186.9960  177.5460  143.7260 C   0  0  1  0  0  3  0  0  0  0  0  0
  187.7310  178.8170  141.8890 C   0  0  1  0  0  3  0  0  0  0  0  0
  186.4740  177.6680  145.1600 C   0  0  0  0  0  2  0  0  0  0  0  0
  186.7230  178.8160  143.0140 C   0  0  1  0  0  3  0  0  0  0  0  0
  188.8780  178.1460  142.3730 O   0  0  0  0  0  0  0  0  0  0  0  0
  185.2180  179.0030  142.7820 C   0  0  2  0  0  3  0  0  0  0  0  0
  184.5090  178.8600  144.1180 C   0  0  0  0  0  3  0  0  0  0  0  0
  188.6220  175.8690  142.9760 C   0  0  0  0  0  1  0  0  0  0  0  0
  188.4860  177.3080  143.4490 C   0  0  2  0  0  0  0  0  0  0  0  0
  185.0580  178.2190  145.1740 C   0  0  0  0  0  3  0  0  0  0  0  0
  189.4390  177.4910  144.6660 C   0  0  2  0  0  3  0  0  0  0  0  0
  189.4420  178.8270  145.0830 O   0  0  0  0  0  1  0  0  0  0  0  0
  190.8860  176.8840  144.6290 C   0  0  2  0  0  0  0  0  0  0  0  0
  190.8460  175.6090  144.0540 O   0  0  0  0  0  1  0  0  0  0  0  0
  191.4710  176.7570  146.0690 C   0  0  1  0  0  3  0  0  0  0  0  0
  190.4270  176.7360  147.1730 C   0  0  0  0  0  1  0  0  0  0  0  0
  192.2550  175.6090  146.1810 O   0  0  0  0  0  1  0  0  0  0  0  0
  191.7410  177.6760  143.8090 O   0  0  0  0  0  0  0  0  0  0  0  0
  192.1220  176.9690  142.6470 C   0  0  0  0  0  2  0  0  0  0  0  0
  191.8150  177.7320  141.5200 O   0  0  0  0  0  1  0  0  0  0  0  0
  187.2530  178.1520  140.7560 O   0  0  0  0  0  0  0  0  0  0  0  0
  188.3700  177.9780  139.9410 C   0  0  0  0  0  2  0  0  0  0  0  0
  187.5180  177.9340  135.7480 C   0  0  0  0  0  2  0  0  0  0  0  0
  187.0220  178.5480  138.0450 O   0  0  0  0  0  0  0  0  0  0  0  0
  187.9350  177.5950  138.5380 C   0  0  1  0  0  3  0  0  0  0  0  0
  189.1640  177.4670  137.6170 C   0  0  0  0  0  2  0  0  0  0  0  0
  186.4750  177.9910  136.8740 C   0  0  0  0  0  2  0  0  0  0  0  0
  188.9390  178.1610  136.2720 C   0  0  0  0  0  2  0  0  0  0  0  0
  184.6520  177.9700  141.8060 C   0  0  0  0  0  2  0  0  0  0  0  0
  184.0220  179.3980  139.9360 C   0  0  0  0  0  0  0  0  0  0  0  0
  183.6510  178.5720  140.8760 C   0  0  0  0  0  3  0  0  0  0  0  0
  184.3810  180.1860  139.0550 O   0  0  0  0  0  0  0  0  0  0  0  0
  1  3  1  1  0  0  0
  2 21  1  6  0  0  0
  2  5  1  0  0  0  0
  2  4  1  0  0  0  0
  3 10  1  0  0  0  0
  4  1  1  0  0  0  0
  5  9  1  0  0  0  0
  6  4  1  0  0  0  0
  6  7  1  0  0  0  0
  7 10  2  0  0  0  0
  8  9  1  0  0  0  0
  9  1  1  0  0  0  0
  9 11  1  0  0  0  0
 11 12  1  0  0  0  0
 13 11  1  0  0  0  0
 13 15  1  0  0  0  0
 14 13  1  0  0  0  0
 15 17  1  0  0  0  0
 15 16  1  0  0  0  0
 18 13  1  0  0  0  0
 19 18  1  0  0  0  0
 20 19  1  0  0  0  0
 22 21  1  0  0  0  0
 23 28  1  0  0  0  0
 23 27  1  0  0  0  0
 24 25  1  0  0  0  0
 25 22  1  0  0  0  0
 26 25  1  0  0  0  0
 27 24  1  0  0  0  0
 28 26  1  0  0  0  0
 29  6  1  0  0  0  0
 30 31  2  0  0  0  0
 31 29  1  0  0  0  0
 32 30  2  0  0  0  0
M  END
>  <MODEL>
3

>  <REMARK>
 VINA RESULT:      -7.3      2.202      2.950
  Name = 
  10 active torsions:
  status: ('A' for Active; 'I' for Inactive)
    1  A    between atoms: C_2  and  O_6
    2  A    between atoms: C_3  and  C_22
    3  A    between atoms: O_6  and  C_17
    4  A    between atoms: C_7  and  O_15
    5  A    between atoms: C_12  and  C_17
    6  A    between atoms: C_14  and  C_29
    7  A    between atoms: O_15  and  C_22
    8  A    between atoms: C_16  and  C_22
    9  A    between atoms: C_16  and  C_27
   10  A    between atoms: C_18  and  C_29
                            x       y       z     vdW  Elec       q    Type
                         _______ _______ _______ _____ _____    ______ ____

>  <TORSDO>
F 10

$$$$
=
 OpenBabel11052414273D

 32 34  0  0  1  0  0  0  0  0999 V2000
  186.9810  177.4660  144.0090 C   0  0  1  0  0  3  0  0  0  0  0  0
  187.8140  178.7550  142.2260 C   0  0  1  0  0  3  0  0  0  0  0  0
  186.3920  177.5750  145.4180 C   0  0  0  0  0  2  0  0  0  0  0  0
  186.7530  178.7480  143.3020 C   0  0  1  0  0  3  0  0  0  0  0  0
  188.9310  178.0690  142.7570 O   0  0  0  0  0  0  0  0  0  0  0  0
  185.2630  178.9500  142.9990 C   0  0  2  0  0  3  0  0  0  0  0  0
  184.4880  178.7960  144.2980 C   0  0  0  0  0  3  0  0  0  0  0  0
  188.6290  175.7860  143.3160 C   0  0  0  0  0  1  0  0  0  0  0  0
  188.4810  177.2210  143.8010 C   0  0  2  0  0  0  0  0  0  0  0  0
  184.9810  178.1370  145.3710 C   0  0  0  0  0  3  0  0  0  0  0  0
  189.3750  177.3790  145.0650 C   0  0  2  0  0  3  0  0  0  0  0  0
  189.2000  178.6490  145.6270 O   0  0  0  0  0  1  0  0  0  0  0  0
  190.8880  176.9650  145.0150 C   0  0  2  0  0  0  0  0  0  0  0  0
  191.6910  178.0980  145.1820 O   0  0  0  0  0  1  0  0  0  0  0  0
  191.2390  176.3100  143.6430 C   0  0  1  0  0  3  0  0  0  0  0  0
  191.9640  177.2290  142.6740 C   0  0  0  0  0  1  0  0  0  0  0  0
  192.0120  175.1640  143.8280 O   0  0  0  0  0  1  0  0  0  0  0  0
  191.2020  176.0790  146.0860 O   0  0  0  0  0  0  0  0  0  0  0  0
  191.3320  176.7850  147.3030 C   0  0  0  0  0  2  0  0  0  0  0  0
  192.4550  176.3220  147.9890 O   0  0  0  0  0  1  0  0  0  0  0  0
  187.3860  178.1090  141.0630 O   0  0  0  0  0  0  0  0  0  0  0  0
  188.5310  177.9850  140.2780 C   0  0  0  0  0  2  0  0  0  0  0  0
  187.6050  178.2780  136.1100 C   0  0  0  0  0  2  0  0  0  0  0  0
  187.0550  178.5070  138.4650 O   0  0  0  0  0  0  0  0  0  0  0  0
  188.1440  177.6960  138.8380 C   0  0  1  0  0  3  0  0  0  0  0  0
  189.3530  177.9170  137.9080 C   0  0  0  0  0  2  0  0  0  0  0  0
  186.5970  178.0000  137.2350 C   0  0  0  0  0  2  0  0  0  0  0  0
  188.9690  178.7100  136.6570 C   0  0  0  0  0  2  0  0  0  0  0  0
  184.7360  177.9340  141.9830 C   0  0  0  0  0  2  0  0  0  0  0  0
  184.0360  179.3330  140.1170 C   0  0  0  0  0  0  0  0  0  0  0  0
  183.7000  178.5280  141.0880 C   0  0  0  0  0  3  0  0  0  0  0  0
  184.3620  180.1010  139.2050 O   0  0  0  0  0  0  0  0  0  0  0  0
  1  3  1  1  0  0  0
  2 21  1  6  0  0  0
  2  5  1  0  0  0  0
  2  4  1  0  0  0  0
  4  1  1  0  0  0  0
  5  9  1  0  0  0  0
  6  4  1  0  0  0  0
  6  7  1  0  0  0  0
  7 10  2  0  0  0  0
  8  9  1  0  0  0  0
  9  1  1  0  0  0  0
  9 11  1  0  0  0  0
 10  3  1  0  0  0  0
 11 12  1  0  0  0  0
 13 11  1  0  0  0  0
 13 14  1  0  0  0  0
 13 18  1  0  0  0  0
 15 17  1  0  0  0  0
 15 13  1  0  0  0  0
 16 15  1  0  0  0  0
 18 19  1  0  0  0  0
 19 20  1  0  0  0  0
 22 21  1  0  0  0  0
 23 28  1  0  0  0  0
 23 27  1  0  0  0  0
 24 25  1  0  0  0  0
 25 22  1  0  0  0  0
 26 25  1  0  0  0  0
 27 24  1  0  0  0  0
 28 26  1  0  0  0  0
 29  6  1  0  0  0  0
 30 31  2  0  0  0  0
 31 29  1  0  0  0  0
 32 30  2  0  0  0  0
M  END
>  <MODEL>
4

>  <REMARK>
 VINA RESULT:      -7.3      2.240      3.507
  Name = 
  10 active torsions:
  status: ('A' for Active; 'I' for Inactive)
    1  A    between atoms: C_2  and  O_6
    2  A    between atoms: C_3  and  C_22
    3  A    between atoms: O_6  and  C_17
    4  A    between atoms: C_7  and  O_15
    5  A    between atoms: C_12  and  C_17
    6  A    between atoms: C_14  and  C_29
    7  A    between atoms: O_15  and  C_22
    8  A    between atoms: C_16  and  C_22
    9  A    between atoms: C_16  and  C_27
   10  A    between atoms: C_18  and  C_29
                            x       y       z     vdW  Elec       q    Type
                         _______ _______ _______ _____ _____    ______ ____

>  <TORSDO>
F 10

$$$$
=
 OpenBabel11052414273D

 32 34  0  0  1  0  0  0  0  0999 V2000
  187.0770  177.9140  143.5080 C   0  0  1  0  0  3  0  0  0  0  0  0
  187.5330  178.9280  141.4360 C   0  0  1  0  0  3  0  0  0  0  0  0
  186.6830  178.2240  144.9550 C   0  0  0  0  0  2  0  0  0  0  0  0
  186.6380  179.0360  142.6480 C   0  0  1  0  0  3  0  0  0  0  0  0
  188.7710  178.4180  141.8920 O   0  0  0  0  0  0  0  0  0  0  0  0
  185.1080  179.0860  142.5490 C   0  0  2  0  0  3  0  0  0  0  0  0
  184.5400  179.1070  143.9580 C   0  0  0  0  0  3  0  0  0  0  0  0
  188.7570  176.2510  142.8490 C   0  0  0  0  0  1  0  0  0  0  0  0
  188.5490  177.7340  143.1150 C   0  0  2  0  0  0  0  0  0  0  0  0
  185.2350  178.6760  145.0350 C   0  0  0  0  0  3  0  0  0  0  0  0
  189.5940  178.1660  144.1850 C   0  0  2  0  0  3  0  0  0  0  0  0
  190.1930  179.3770  143.8170 O   0  0  0  0  0  1  0  0  0  0  0  0
  190.6440  177.1310  144.7210 C   0  0  2  0  0  0  0  0  0  0  0  0
  191.6840  177.8090  145.3660 O   0  0  0  0  0  1  0  0  0  0  0  0
  191.2510  176.2990  143.5500 C   0  0  1  0  0  3  0  0  0  0  0  0
  192.0620  177.1110  142.5540 C   0  0  0  0  0  1  0  0  0  0  0  0
  192.0550  175.2710  144.0420 O   0  0  0  0  0  1  0  0  0  0  0  0
  190.0520  176.2720  145.6920 O   0  0  0  0  0  0  0  0  0  0  0  0
  190.2970  176.7440  147.0000 C   0  0  0  0  0  2  0  0  0  0  0  0
  189.0850  177.0810  147.6040 O   0  0  0  0  0  1  0  0  0  0  0  0
  187.0060  178.0650  140.4710 O   0  0  0  0  0  0  0  0  0  0  0  0
  188.0310  177.8940  139.5420 C   0  0  0  0  0  2  0  0  0  0  0  0
  185.8420  176.9590  135.9870 C   0  0  0  0  0  2  0  0  0  0  0  0
  187.6560  176.6010  137.5610 O   0  0  0  0  0  0  0  0  0  0  0  0
  187.4600  177.8730  138.1360 C   0  0  1  0  0  3  0  0  0  0  0  0
  185.9670  178.2520  138.1620 C   0  0  0  0  0  2  0  0  0  0  0  0
  187.3470  176.7410  136.1950 C   0  0  0  0  0  2  0  0  0  0  0  0
  185.1270  177.3120  137.2950 C   0  0  0  0  0  2  0  0  0  0  0  0
  184.5380  177.8780  141.8020 C   0  0  0  0  0  2  0  0  0  0  0  0
  182.7830  177.3650  140.1930 C   0  0  0  0  0  0  0  0  0  0  0  0
  183.3650  178.2490  140.9560 C   0  0  0  0  0  3  0  0  0  0  0  0
  182.2440  176.5220  139.4680 O   0  0  0  0  0  0  0  0  0  0  0  0
  1  3  1  1  0  0  0
  2 21  1  6  0  0  0
  2  5  1  0  0  0  0
  2  4  1  0  0  0  0
  3 10  1  0  0  0  0
  4  1  1  0  0  0  0
  5  9  1  0  0  0  0
  6  4  1  0  0  0  0
  6  7  1  0  0  0  0
  7 10  2  0  0  0  0
  8  9  1  0  0  0  0
  9  1  1  0  0  0  0
  9 11  1  0  0  0  0
 11 13  1  0  0  0  0
 12 11  1  0  0  0  0
 13 14  1  0  0  0  0
 13 18  1  0  0  0  0
 15 17  1  0  0  0  0
 15 13  1  0  0  0  0
 16 15  1  0  0  0  0
 18 19  1  0  0  0  0
 19 20  1  0  0  0  0
 22 21  1  0  0  0  0
 23 27  1  0  0  0  0
 23 28  1  0  0  0  0
 24 25  1  0  0  0  0
 25 26  1  0  0  0  0
 25 22  1  0  0  0  0
 27 24  1  0  0  0  0
 28 26  1  0  0  0  0
 29  6  1  0  0  0  0
 30 31  2  0  0  0  0
 31 29  1  0  0  0  0
 32 30  2  0  0  0  0
M  END
>  <MODEL>
5

>  <REMARK>
 VINA RESULT:      -6.6      2.329      3.298
  Name = 
  10 active torsions:
  status: ('A' for Active; 'I' for Inactive)
    1  A    between atoms: C_2  and  O_6
    2  A    between atoms: C_3  and  C_22
    3  A    between atoms: O_6  and  C_17
    4  A    between atoms: C_7  and  O_15
    5  A    between atoms: C_12  and  C_17
    6  A    between atoms: C_14  and  C_29
    7  A    between atoms: O_15  and  C_22
    8  A    between atoms: C_16  and  C_22
    9  A    between atoms: C_16  and  C_27
   10  A    between atoms: C_18  and  C_29
                            x       y       z     vdW  Elec       q    Type
                         _______ _______ _______ _____ _____    ______ ____

>  <TORSDO>
F 10

$$$$
=
 OpenBabel11052414273D

 32 34  0  0  1  0  0  0  0  0999 V2000
  189.5150  177.3640  140.7890 C   0  0  1  0  0  3  0  0  0  0  0  0
  187.8830  178.9850  141.2800 C   0  0  1  0  0  3  0  0  0  0  0  0
  191.0280  177.1400  140.7270 C   0  0  0  0  0  2  0  0  0  0  0  0
  189.2410  178.4860  141.7150 C   0  0  1  0  0  3  0  0  0  0  0  0
  187.8040  178.7730  139.8830 O   0  0  0  0  0  0  0  0  0  0  0  0
  189.5560  178.0920  143.1640 C   0  0  2  0  0  3  0  0  0  0  0  0
  190.9790  177.5610  143.2140 C   0  0  0  0  0  3  0  0  0  0  0  0
  187.9170  176.5320  139.1240 C   0  0  0  0  0  1  0  0  0  0  0  0
  188.7260  177.7540  139.5320 C   0  0  2  0  0  0  0  0  0  0  0  0
  191.6240  177.0910  142.1240 C   0  0  0  0  0  3  0  0  0  0  0  0
  189.5780  178.1800  138.3020 C   0  0  2  0  0  3  0  0  0  0  0  0
  189.0920  179.3790  137.7670 O   0  0  0  0  0  1  0  0  0  0  0  0
  189.9210  177.1350  137.1820 C   0  0  2  0  0  0  0  0  0  0  0  0
  191.3010  177.1240  136.9570 O   0  0  0  0  0  1  0  0  0  0  0  0
  189.2070  177.5020  135.8440 C   0  0  1  0  0  3  0  0  0  0  0  0
  190.0130  177.1900  134.5940 C   0  0  0  0  0  1  0  0  0  0  0  0
  187.9760  176.8530  135.7500 O   0  0  0  0  0  1  0  0  0  0  0  0
  189.5620  175.8200  137.5960 O   0  0  0  0  0  0  0  0  0  0  0  0
  190.6160  174.9100  137.3560 C   0  0  0  0  0  2  0  0  0  0  0  0
  190.1540  173.6070  137.5400 O   0  0  0  0  0  1  0  0  0  0  0  0
  186.8440  178.2930  141.9090 O   0  0  0  0  0  0  0  0  0  0  0  0
  185.6800  178.7620  141.3030 C   0  0  0  0  0  2  0  0  0  0  0  0
  182.9790  178.9080  144.6190 C   0  0  0  0  0  2  0  0  0  0  0  0
  183.5550  178.3470  142.3270 O   0  0  0  0  0  0  0  0  0  0  0  0
  184.6810  179.1930  142.3610 C   0  0  1  0  0  3  0  0  0  0  0  0
  185.3430  179.1890  143.7530 C   0  0  0  0  0  2  0  0  0  0  0  0
  182.5820  178.9620  143.1360 C   0  0  0  0  0  2  0  0  0  0  0  0
  184.4500  178.5270  144.8040 C   0  0  0  0  0  2  0  0  0  0  0  0
  188.6040  177.0150  143.6890 C   0  0  0  0  0  2  0  0  0  0  0  0
  188.9190  177.1500  146.1000 C   0  0  0  0  0  0  0  0  0  0  0  0
  188.1320  177.3150  145.0720 C   0  0  0  0  0  3  0  0  0  0  0  0
  189.6690  176.9830  147.0680 O   0  0  0  0  0  0  0  0  0  0  0  0
  1  3  1  6  0  0  0
  1  4  1  0  0  0  0
  2  4  1  0  0  0  0
  2 21  1  1  0  0  0
  3 10  1  0  0  0  0
  4  6  1  0  0  0  0
  5  2  1  0  0  0  0
  6  7  1  0  0  0  0
  6 29  1  0  0  0  0
  8  9  1  0  0  0  0
  9  5  1  0  0  0  0
  9  1  1  0  0  0  0
 10  7  2  0  0  0  0
 11  9  1  0  0  0  0
 12 11  1  0  0  0  0
 13 18  1  0  0  0  0
 13 11  1  0  0  0  0
 14 13  1  0  0  0  0
 15 13  1  0  0  0  0
 16 15  1  0  0  0  0
 17 15  1  0  0  0  0
 19 20  1  0  0  0  0
 19 18  1  0  0  0  0
 22 21  1  0  0  0  0
 22 25  1  0  0  0  0
 23 28  1  0  0  0  0
 24 25  1  0  0  0  0
 24 27  1  0  0  0  0
 25 26  1  0  0  0  0
 26 28  1  0  0  0  0
 27 23  1  0  0  0  0
 29 31  1  0  0  0  0
 30 32  2  0  0  0  0
 31 30  2  0  0  0  0
M  END
>  <MODEL>
6

>  <REMARK>
 VINA RESULT:      -6.6      3.072      5.965
  Name = 
  10 active torsions:
  status: ('A' for Active; 'I' for Inactive)
    1  A    between atoms: C_2  and  O_6
    2  A    between atoms: C_3  and  C_22
    3  A    between atoms: O_6  and  C_17
    4  A    between atoms: C_7  and  O_15
    5  A    between atoms: C_12  and  C_17
    6  A    between atoms: C_14  and  C_29
    7  A    between atoms: O_15  and  C_22
    8  A    between atoms: C_16  and  C_22
    9  A    between atoms: C_16  and  C_27
   10  A    between atoms: C_18  and  C_29
                            x       y       z     vdW  Elec       q    Type
                         _______ _______ _______ _____ _____    ______ ____

>  <TORSDO>
F 10

$$$$
=
 OpenBabel11052414273D

 32 34  0  0  1  0  0  0  0  0999 V2000
  185.9820  178.8630  144.4440 C   0  0  1  0  0  3  0  0  0  0  0  0
  186.9500  176.9140  143.5490 C   0  0  1  0  0  3  0  0  0  0  0  0
  184.9010  179.3500  145.4120 C   0  0  0  0  0  2  0  0  0  0  0  0
  186.3670  177.4830  144.8220 C   0  0  1  0  0  3  0  0  0  0  0  0
  186.2510  177.5200  142.4790 O   0  0  0  0  0  0  0  0  0  0  0  0
  187.1200  177.4700  146.1580 C   0  0  2  0  0  3  0  0  0  0  0  0
  186.2720  178.1960  147.1890 C   0  0  0  0  0  3  0  0  0  0  0  0
  186.4470  179.8710  142.2560 C   0  0  0  0  0  1  0  0  0  0  0  0
  185.6940  178.7410  142.9420 C   0  0  2  0  0  0  0  0  0  0  0  0
  185.3040  179.0770  146.8520 C   0  0  0  0  0  3  0  0  0  0  0  0
  184.1990  178.8580  142.5260 C   0  0  2  0  0  3  0  0  0  0  0  0
  183.3810  178.2320  143.4750 O   0  0  0  0  0  1  0  0  0  0  0  0
  183.7620  178.5160  141.0580 C   0  0  2  0  0  0  0  0  0  0  0  0
  183.7380  177.1280  140.8870 O   0  0  0  0  0  1  0  0  0  0  0  0
  184.7620  179.1220  140.0260 C   0  0  1  0  0  3  0  0  0  0  0  0
  185.2960  178.1290  139.0080 C   0  0  0  0  0  1  0  0  0  0  0  0
  184.1760  180.1860  139.3400 O   0  0  0  0  0  1  0  0  0  0  0  0
  182.4390  178.9830  140.8070 O   0  0  0  0  0  0  0  0  0  0  0  0
  181.5870  177.9150  140.4460 C   0  0  0  0  0  2  0  0  0  0  0  0
  180.3950  178.0110  141.1640 O   0  0  0  0  0  1  0  0  0  0  0  0
  188.3130  177.1950  143.4260 O   0  0  0  0  0  0  0  0  0  0  0  0
  188.9160  175.9600  143.1950 C   0  0  0  0  0  2  0  0  0  0  0  0
  192.0130  177.5030  140.6770 C   0  0  0  0  0  2  0  0  0  0  0  0
  189.6960  176.9590  141.1630 O   0  0  0  0  0  0  0  0  0  0  0  0
  190.0750  176.1190  142.2280 C   0  0  1  0  0  3  0  0  0  0  0  0
  191.3110  176.6710  142.9650 C   0  0  0  0  0  2  0  0  0  0  0  0
  190.7120  176.8430  140.1960 C   0  0  0  0  0  2  0  0  0  0  0  0
  191.9830  177.7990  142.1800 C   0  0  0  0  0  2  0  0  0  0  0  0
  188.4830  178.1590  146.0600 C   0  0  0  0  0  2  0  0  0  0  0  0
  190.5700  177.1210  146.7640 C   0  0  0  0  0  0  0  0  0  0  0  0
  189.4330  177.6650  147.1000 C   0  0  0  0  0  3  0  0  0  0  0  0
  191.6420  176.6010  146.4360 O   0  0  0  0  0  0  0  0  0  0  0  0
  1  4  1  0  0  0  0
  1  3  1  1  0  0  0
  2 21  1  6  0  0  0
  2  4  1  0  0  0  0
  3 10  1  0  0  0  0
  4  6  1  0  0  0  0
  5  9  1  0  0  0  0
  5  2  1  0  0  0  0
  6  7  1  0  0  0  0
  8  9  1  0  0  0  0
  9  1  1  0  0  0  0
 10  7  2  0  0  0  0
 11  9  1  0  0  0  0
 11 12  1  0  0  0  0
 13 11  1  0  0  0  0
 14 13  1  0  0  0  0
 15 13  1  0  0  0  0
 16 15  1  0  0  0  0
 17 15  1  0  0  0  0
 18 13  1  0  0  0  0
 19 18  1  0  0  0  0
 19 20  1  0  0  0  0
 22 21  1  0  0  0  0
 23 28  1  0  0  0  0
 24 25  1  0  0  0  0
 25 26  1  0  0  0  0
 25 22  1  0  0  0  0
 27 23  1  0  0  0  0
 27 24  1  0  0  0  0
 28 26  1  0  0  0  0
 29  6  1  0  0  0  0
 29 31  1  0  0  0  0
 30 31  2  0  0  0  0
 32 30  2  0  0  0  0
M  END
>  <MODEL>
7

>  <REMARK>
 VINA RESULT:      -6.5      1.647      7.077
  Name = 
  10 active torsions:
  status: ('A' for Active; 'I' for Inactive)
    1  A    between atoms: C_2  and  O_6
    2  A    between atoms: C_3  and  C_22
    3  A    between atoms: O_6  and  C_17
    4  A    between atoms: C_7  and  O_15
    5  A    between atoms: C_12  and  C_17
    6  A    between atoms: C_14  and  C_29
    7  A    between atoms: O_15  and  C_22
    8  A    between atoms: C_16  and  C_22
    9  A    between atoms: C_16  and  C_27
   10  A    between atoms: C_18  and  C_29
                            x       y       z     vdW  Elec       q    Type
                         _______ _______ _______ _____ _____    ______ ____

>  <TORSDO>
F 10

$$$$
=
 OpenBabel11052414273D

 32 34  0  0  1  0  0  0  0  0999 V2000
  186.7470  177.5590  143.6250 C   0  0  1  0  0  3  0  0  0  0  0  0
  188.0550  178.5790  141.9560 C   0  0  1  0  0  3  0  0  0  0  0  0
  185.9340  177.8590  144.8860 C   0  0  0  0  0  2  0  0  0  0  0  0
  186.8270  178.7930  142.8100 C   0  0  1  0  0  3  0  0  0  0  0  0
  188.9550  177.8090  142.7300 O   0  0  0  0  0  0  0  0  0  0  0  0
  185.4570  179.1500  142.2180 C   0  0  2  0  0  3  0  0  0  0  0  0
  184.4480  179.2040  143.3530 C   0  0  0  0  0  3  0  0  0  0  0  0
  188.2490  175.6370  143.3610 C   0  0  0  0  0  1  0  0  0  0  0  0
  188.2130  177.1150  143.7210 C   0  0  2  0  0  0  0  0  0  0  0  0
  184.6450  178.5830  144.5380 C   0  0  0  0  0  3  0  0  0  0  0  0
  188.8780  177.2700  145.1190 C   0  0  2  0  0  3  0  0  0  0  0  0
  188.4760  178.4710  145.7160 O   0  0  0  0  0  1  0  0  0  0  0  0
  190.4170  177.0170  145.2900 C   0  0  2  0  0  0  0  0  0  0  0  0
  190.8950  176.2790  144.2020 O   0  0  0  0  0  1  0  0  0  0  0  0
  190.7060  176.2140  146.5950 C   0  0  1  0  0  3  0  0  0  0  0  0
  192.0970  175.6050  146.6650 C   0  0  0  0  0  1  0  0  0  0  0  0
  190.5170  177.0170  147.7190 O   0  0  0  0  0  1  0  0  0  0  0  0
  191.1320  178.2510  145.2930 O   0  0  0  0  0  0  0  0  0  0  0  0
  191.6650  178.5280  144.0150 C   0  0  0  0  0  2  0  0  0  0  0  0
  191.3090  179.8220  143.6360 O   0  0  0  0  0  1  0  0  0  0  0  0
  187.7600  177.8920  140.7750 O   0  0  0  0  0  0  0  0  0  0  0  0
  188.5550  178.4920  139.8010 C   0  0  0  0  0  2  0  0  0  0  0  0
  191.3760  176.2590  137.4840 C   0  0  0  0  0  2  0  0  0  0  0  0
  189.6770  177.9740  137.7490 O   0  0  0  0  0  0  0  0  0  0  0  0
  189.2630  177.4290  138.9800 C   0  0  1  0  0  3  0  0  0  0  0  0
  190.4550  176.8540  139.7680 C   0  0  0  0  0  2  0  0  0  0  0  0
  190.0760  176.8830  136.9560 C   0  0  0  0  0  2  0  0  0  0  0  0
  191.7090  176.7420  138.8990 C   0  0  0  0  0  2  0  0  0  0  0  0
  184.9890  178.1230  141.1850 C   0  0  0  0  0  2  0  0  0  0  0  0
  182.9140  177.4570  140.0990 C   0  0  0  0  0  0  0  0  0  0  0  0
  183.5010  178.0610  141.0960 C   0  0  0  0  0  3  0  0  0  0  0  0
  182.3660  176.8900  139.1470 O   0  0  0  0  0  0  0  0  0  0  0  0
  1  9  1  0  0  0  0
  1  3  1  1  0  0  0
  2 21  1  6  0  0  0
  2  5  1  0  0  0  0
  2  4  1  0  0  0  0
  4  1  1  0  0  0  0
  5  9  1  0  0  0  0
  6  4  1  0  0  0  0
  6  7  1  0  0  0  0
  7 10  2  0  0  0  0
  8  9  1  0  0  0  0
  9 11  1  0  0  0  0
 10  3  1  0  0  0  0
 11 13  1  0  0  0  0
 11 12  1  0  0  0  0
 13 18  1  0  0  0  0
 13 15  1  0  0  0  0
 14 13  1  0  0  0  0
 15 16  1  0  0  0  0
 15 17  1  0  0  0  0
 19 18  1  0  0  0  0
 20 19  1  0  0  0  0
 22 21  1  0  0  0  0
 23 28  1  0  0  0  0
 24 25  1  0  0  0  0
 25 26  1  0  0  0  0
 25 22  1  0  0  0  0
 27 23  1  0  0  0  0
 27 24  1  0  0  0  0
 28 26  1  0  0  0  0
 29  6  1  0  0  0  0
 30 31  2  0  0  0  0
 31 29  1  0  0  0  0
 32 30  2  0  0  0  0
M  END
>  <MODEL>
8

>  <REMARK>
 VINA RESULT:      -6.3      2.076      4.051
  Name = 
  10 active torsions:
  status: ('A' for Active; 'I' for Inactive)
    1  A    between atoms: C_2  and  O_6
    2  A    between atoms: C_3  and  C_22
    3  A    between atoms: O_6  and  C_17
    4  A    between atoms: C_7  and  O_15
    5  A    between atoms: C_12  and  C_17
    6  A    between atoms: C_14  and  C_29
    7  A    between atoms: O_15  and  C_22
    8  A    between atoms: C_16  and  C_22
    9  A    between atoms: C_16  and  C_27
   10  A    between atoms: C_18  and  C_29
                            x       y       z     vdW  Elec       q    Type
                         _______ _______ _______ _____ _____    ______ ____

>  <TORSDO>
F 10

$$$$
=
 OpenBabel11052414273D

 32 34  0  0  1  0  0  0  0  0999 V2000
  189.4160  177.3300  140.2760 C   0  0  1  0  0  3  0  0  0  0  0  0
  187.7170  178.8830  140.7600 C   0  0  1  0  0  3  0  0  0  0  0  0
  190.9360  177.1740  140.1980 C   0  0  0  0  0  2  0  0  0  0  0  0
  189.1020  178.4550  141.1860 C   0  0  1  0  0  3  0  0  0  0  0  0
  187.6300  178.6430  139.3690 O   0  0  0  0  0  0  0  0  0  0  0  0
  189.4530  178.1020  142.6370 C   0  0  2  0  0  3  0  0  0  0  0  0
  190.8990  177.6380  142.6780 C   0  0  0  0  0  3  0  0  0  0  0  0
  187.8360  176.3950  138.6480 C   0  0  0  0  0  1  0  0  0  0  0  0
  188.5940  177.6600  139.0240 C   0  0  2  0  0  0  0  0  0  0  0  0
  191.5520  177.1780  141.5870 C   0  0  0  0  0  3  0  0  0  0  0  0
  189.4090  178.1030  137.7750 C   0  0  2  0  0  3  0  0  0  0  0  0
  189.0480  179.4010  137.3940 O   0  0  0  0  0  1  0  0  0  0  0  0
  189.5380  177.1440  136.5390 C   0  0  2  0  0  0  0  0  0  0  0  0
  188.5590  176.1480  136.6140 O   0  0  0  0  0  1  0  0  0  0  0  0
  190.9380  176.4570  136.5130 C   0  0  1  0  0  3  0  0  0  0  0  0
  190.9890  175.1040  137.2040 C   0  0  0  0  0  1  0  0  0  0  0  0
  191.3850  176.3010  135.2010 O   0  0  0  0  0  1  0  0  0  0  0  0
  189.3070  177.8550  135.3260 O   0  0  0  0  0  0  0  0  0  0  0  0
  188.1530  177.3710  134.6690 C   0  0  0  0  0  2  0  0  0  0  0  0
  187.1240  178.3040  134.7950 O   0  0  0  0  0  1  0  0  0  0  0  0
  186.7190  178.1570  141.4160 O   0  0  0  0  0  0  0  0  0  0  0  0
  185.6910  179.0720  141.6350 C   0  0  0  0  0  2  0  0  0  0  0  0
  182.8300  178.8170  144.8050 C   0  0  0  0  0  2  0  0  0  0  0  0
  184.9700  179.4940  143.8790 O   0  0  0  0  0  0  0  0  0  0  0  0
  184.8230  178.6110  142.7910 C   0  0  1  0  0  3  0  0  0  0  0  0
  183.3510  178.5120  142.3450 C   0  0  0  0  0  2  0  0  0  0  0  0
  184.3550  178.8640  144.9770 C   0  0  0  0  0  2  0  0  0  0  0  0
  182.4040  179.1390  143.3700 C   0  0  0  0  0  2  0  0  0  0  0  0
  188.5590  176.9920  143.1940 C   0  0  0  0  0  2  0  0  0  0  0  0
  188.6470  177.5260  145.5680 C   0  0  0  0  0  0  0  0  0  0  0  0
  187.9270  177.3820  144.4890 C   0  0  0  0  0  3  0  0  0  0  0  0
  189.3350  177.6540  146.5870 O   0  0  0  0  0  0  0  0  0  0  0  0
  1  3  1  6  0  0  0
  1  4  1  0  0  0  0
  2  4  1  0  0  0  0
  2 21  1  1  0  0  0
  3 10  1  0  0  0  0
  4  6  1  0  0  0  0
  5  2  1  0  0  0  0
  6  7  1  0  0  0  0
  6 29  1  0  0  0  0
  8  9  1  0  0  0  0
  9  5  1  0  0  0  0
  9  1  1  0  0  0  0
 10  7  2  0  0  0  0
 11  9  1  0  0  0  0
 12 11  1  0  0  0  0
 13 14  1  0  0  0  0
 13 11  1  0  0  0  0
 15 13  1  0  0  0  0
 15 16  1  0  0  0  0
 17 15  1  0  0  0  0
 18 13  1  0  0  0  0
 19 20  1  0  0  0  0
 19 18  1  0  0  0  0
 21 22  1  0  0  0  0
 22 25  1  0  0  0  0
 23 27  1  0  0  0  0
 24 27  1  0  0  0  0
 25 24  1  0  0  0  0
 26 25  1  0  0  0  0
 26 28  1  0  0  0  0
 28 23  1  0  0  0  0
 29 31  1  0  0  0  0
 30 32  2  0  0  0  0
 31 30  2  0  0  0  0
M  END
>  <MODEL>
9

>  <REMARK>
 VINA RESULT:      -6.3      3.269      6.078
  Name = 
  10 active torsions:
  status: ('A' for Active; 'I' for Inactive)
    1  A    between atoms: C_2  and  O_6
    2  A    between atoms: C_3  and  C_22
    3  A    between atoms: O_6  and  C_17
    4  A    between atoms: C_7  and  O_15
    5  A    between atoms: C_12  and  C_17
    6  A    between atoms: C_14  and  C_29
    7  A    between atoms: O_15  and  C_22
    8  A    between atoms: C_16  and  C_22
    9  A    between atoms: C_16  and  C_27
   10  A    between atoms: C_18  and  C_29
                            x       y       z     vdW  Elec       q    Type
                         _______ _______ _______ _____ _____    ______ ____

>  <TORSDO>
F 10

$$$$
