=
 OpenBabel11052414433D

 32 34  0  0  1  0  0  0  0  0999 V2000
  189.2340  177.3880  138.7250 C   0  0  1  0  0  3  0  0  0  0  0  0
  188.7850  176.3260  141.4240 O   0  0  0  0  0  1  0  0  0  0  0  0
  188.6260  178.1230  139.8480 C   0  0  1  0  0  3  0  0  0  0  0  0
  188.8350  178.1180  137.4450 C   0  0  2  0  0  3  0  0  0  0  0  0
  190.6790  177.3970  139.1560 C   0  0  1  0  0  3  0  0  0  0  0  0
  187.2810  178.2020  137.3590 C   0  0  0  0  0  0  0  0  0  0  0  0
  187.1040  178.0390  139.6970 C   0  0  2  0  0  3  0  0  0  0  0  0
  186.7320  178.7780  138.5420 O   0  0  0  0  0  0  0  0  0  0  0  0
  190.6950  177.2820  140.5700 O   0  0  0  0  0  0  0  0  0  0  0  0
  186.9430  179.0140  136.2770 O   0  0  0  0  0  1  0  0  0  0  0  0
  189.3740  177.5300  141.0230 C   0  0  2  0  0  0  0  0  0  0  0  0
  186.7180  176.9360  137.1570 O   0  0  0  0  0  1  0  0  0  0  0  0
  191.0300  175.1220  138.6770 O   0  0  0  0  0  0  0  0  0  0  0  0
  191.4400  176.2630  138.5430 C   0  0  0  0  0  0  0  0  0  0  0  0
  192.7100  176.5130  137.7890 C   0  0  0  0  0  2  0  0  0  0  0  0
  193.8570  176.1160  138.5900 N   0  0  0  0  0  2  0  0  0  0  0  0
  193.9880  177.0350  139.5770 O   0  0  0  0  0  1  0  0  0  0  0  0
  189.1170  176.3350  136.0040 C   0  0  0  0  0  1  0  0  0  0  0  0
  189.4760  177.6680  136.2650 O   0  0  0  0  0  0  0  0  0  0  0  0
  186.3930  178.6420  140.8980 C   0  0  0  0  0  2  0  0  0  0  0  0
  185.3620  179.4780  140.4730 O   0  0  0  0  0  1  0  0  0  0  0  0
  189.3950  178.5320  142.1780 C   0  0  0  0  0  2  0  0  0  0  0  0
  189.3340  176.4570  147.4810 F   0  0  0  0  0  0  0  0  0  0  0  0
  188.2390  177.1240  145.5410 C   0  0  0  0  0  3  0  0  0  0  0  0
  189.4210  177.8840  143.5340 C   0  0  0  0  0  0  0  0  0  0  0  0
  190.6590  177.5400  145.6940 C   0  0  0  0  0  2  0  0  0  0  0  0
  188.2640  177.6960  144.1860 C   0  0  0  0  0  3  0  0  0  0  0  0
  190.7420  177.4410  144.1500 C   0  0  1  0  0  0  0  0  0  0  0  0
  190.9730  175.9820  143.7420 C   0  0  0  0  0  1  0  0  0  0  0  0
  189.3680  176.9940  146.2380 C   0  0  0  0  0  0  0  0  0  0  0  0
  191.7910  179.5050  144.3410 C   0  0  0  0  0  1  0  0  0  0  0  0
  191.7720  178.2790  143.6480 O   0  0  0  0  0  0  0  0  0  0  0  0
  1  5  1  0  0  0  0
  1  3  1  0  0  0  0
  3 11  1  0  0  0  0
  4  1  1  0  0  0  0
  5  9  1  0  0  0  0
  6  4  1  0  0  0  0
  6  8  1  0  0  0  0
  7  3  1  0  0  0  0
  7 20  1  0  0  0  0
  8  7  1  0  0  0  0
  9 11  1  0  0  0  0
 10  6  1  0  0  0  0
 11  2  1  0  0  0  0
 11 22  1  0  0  0  0
 12  6  1  0  0  0  0
 14 13  2  0  0  0  0
 14  5  1  0  0  0  0
 15 14  1  0  0  0  0
 15 16  1  0  0  0  0
 16 17  1  0  0  0  0
 18 19  1  0  0  0  0
 19  4  1  0  0  0  0
 21 20  1  0  0  0  0
 22 25  1  0  0  0  0
 24 30  2  0  0  0  0
 25 28  1  0  0  0  0
 25 27  2  0  0  0  0
 26 30  1  0  0  0  0
 27 24  1  0  0  0  0
 28 26  1  0  0  0  0
 29 28  1  0  0  0  0
 30 23  1  0  0  0  0
 32 28  1  0  0  0  0
 32 31  1  0  0  0  0
M  END
>  <MODEL>
1

>  <REMARK>
 VINA RESULT:      -7.6      0.000      0.000
  Name = 
  8 active torsions:
  status: ('A' for Active; 'I' for Inactive)
    1  A    between atoms: C_1  and  C_16
    2  A    between atoms: C_1  and  C_27
    3  A    between atoms: C_6  and  O_17
    4  A    between atoms: O_8  and  C_22
    5  A    between atoms: N_9  and  C_32
    6  A    between atoms: C_10  and  C_28
    7  A    between atoms: C_14  and  C_21
    8  A    between atoms: C_28  and  C_32
                            x       y       z     vdW  Elec       q    Type
                         _______ _______ _______ _____ _____    ______ ____

>  <TORSDO>
F 8

$$$$
=
 OpenBabel11052414433D

 32 34  0  0  1  0  0  0  0  0999 V2000
  187.6730  178.3390  139.8760 C   0  0  1  0  0  3  0  0  0  0  0  0
  189.2460  178.9540  142.2760 O   0  0  0  0  0  1  0  0  0  0  0  0
  188.8100  177.5520  140.3830 C   0  0  1  0  0  3  0  0  0  0  0  0
  187.4840  177.9570  138.4100 C   0  0  2  0  0  3  0  0  0  0  0  0
  186.6160  177.9500  140.8780 C   0  0  1  0  0  3  0  0  0  0  0  0
  188.8090  178.2160  137.6320 C   0  0  0  0  0  0  0  0  0  0  0  0
  190.0600  177.9770  139.6070 C   0  0  2  0  0  3  0  0  0  0  0  0
  189.9080  177.5580  138.2570 O   0  0  0  0  0  0  0  0  0  0  0  0
  187.2630  177.7960  142.1310 O   0  0  0  0  0  0  0  0  0  0  0  0
  188.6690  177.7050  136.3410 O   0  0  0  0  0  1  0  0  0  0  0  0
  188.6580  177.7490  141.8760 C   0  0  2  0  0  0  0  0  0  0  0  0
  189.0810  179.5850  137.5400 O   0  0  0  0  0  1  0  0  0  0  0  0
  185.6820  179.9150  141.7690 O   0  0  0  0  0  0  0  0  0  0  0  0
  185.5470  178.9940  140.9810 C   0  0  0  0  0  0  0  0  0  0  0  0
  184.3090  178.9050  140.1440 C   0  0  0  0  0  2  0  0  0  0  0  0
  184.1560  180.1080  139.3430 N   0  0  0  0  0  2  0  0  0  0  0  0
  182.9490  180.0270  138.7320 O   0  0  0  0  0  1  0  0  0  0  0  0
  185.5650  177.4260  137.2390 C   0  0  0  0  0  1  0  0  0  0  0  0
  186.3180  178.4740  137.7940 O   0  0  0  0  0  0  0  0  0  0  0  0
  191.3120  177.3240  140.1700 C   0  0  0  0  0  2  0  0  0  0  0  0
  192.1240  176.8700  139.1310 O   0  0  0  0  0  1  0  0  0  0  0  0
  189.2880  176.5680  142.6180 C   0  0  0  0  0  2  0  0  0  0  0  0
  189.7590  177.8790  148.1390 F   0  0  0  0  0  0  0  0  0  0  0  0
  188.5170  177.1300  146.3220 C   0  0  0  0  0  3  0  0  0  0  0  0
  189.4750  176.8150  144.0880 C   0  0  0  0  0  0  0  0  0  0  0  0
  190.7880  177.9740  145.8910 C   0  0  0  0  0  2  0  0  0  0  0  0
  188.3970  176.8290  144.8860 C   0  0  0  0  0  3  0  0  0  0  0  0
  190.8690  177.0370  144.6600 C   0  0  1  0  0  0  0  0  0  0  0  0
  191.4110  175.6700  145.0930 C   0  0  0  0  0  1  0  0  0  0  0  0
  189.6560  177.6150  146.8150 C   0  0  0  0  0  0  0  0  0  0  0  0
  191.9450  178.9620  143.9320 C   0  0  0  0  0  1  0  0  0  0  0  0
  191.6820  177.6090  143.6460 O   0  0  0  0  0  0  0  0  0  0  0  0
  1  3  1  0  0  0  0
  1  5  1  0  0  0  0
  3 11  1  0  0  0  0
  4  1  1  0  0  0  0
  5 14  1  0  0  0  0
  5  9  1  0  0  0  0
  6  8  1  0  0  0  0
  6  4  1  0  0  0  0
  7 20  1  0  0  0  0
  7  3  1  0  0  0  0
  8  7  1  0  0  0  0
 10  6  1  0  0  0  0
 11  9  1  0  0  0  0
 11  2  1  0  0  0  0
 11 22  1  0  0  0  0
 12  6  1  0  0  0  0
 14 13  2  0  0  0  0
 15 14  1  0  0  0  0
 16 15  1  0  0  0  0
 17 16  1  0  0  0  0
 18 19  1  0  0  0  0
 19  4  1  0  0  0  0
 21 20  1  0  0  0  0
 22 25  1  0  0  0  0
 24 30  2  0  0  0  0
 25 28  1  0  0  0  0
 25 27  2  0  0  0  0
 26 30  1  0  0  0  0
 27 24  1  0  0  0  0
 28 29  1  0  0  0  0
 28 26  1  0  0  0  0
 30 23  1  0  0  0  0
 32 31  1  0  0  0  0
 32 28  1  0  0  0  0
M  END
>  <MODEL>
2

>  <REMARK>
 VINA RESULT:      -7.5      2.356      4.502
  Name = 
  8 active torsions:
  status: ('A' for Active; 'I' for Inactive)
    1  A    between atoms: C_1  and  C_16
    2  A    between atoms: C_1  and  C_27
    3  A    between atoms: C_6  and  O_17
    4  A    between atoms: O_8  and  C_22
    5  A    between atoms: N_9  and  C_32
    6  A    between atoms: C_10  and  C_28
    7  A    between atoms: C_14  and  C_21
    8  A    between atoms: C_28  and  C_32
                            x       y       z     vdW  Elec       q    Type
                         _______ _______ _______ _____ _____    ______ ____

>  <TORSDO>
F 8

$$$$
=
 OpenBabel11052414433D

 32 34  0  0  1  0  0  0  0  0999 V2000
  185.1850  178.8450  141.6930 C   0  0  1  0  0  3  0  0  0  0  0  0
  187.9990  179.3920  142.3220 O   0  0  0  0  0  1  0  0  0  0  0  0
  186.3410  178.0730  141.2040 C   0  0  1  0  0  3  0  0  0  0  0  0
  184.0140  178.5310  140.7650 C   0  0  2  0  0  3  0  0  0  0  0  0
  185.1370  178.3690  143.1230 C   0  0  1  0  0  3  0  0  0  0  0  0
  184.4100  178.8740  139.2970 C   0  0  0  0  0  0  0  0  0  0  0  0
  186.6860  178.5810  139.8010 C   0  0  2  0  0  3  0  0  0  0  0  0
  185.6230  178.2240  138.9270 O   0  0  0  0  0  0  0  0  0  0  0  0
  186.4770  178.1750  143.5450 O   0  0  0  0  0  0  0  0  0  0  0  0
  183.3950  178.4250  138.4510 O   0  0  0  0  0  1  0  0  0  0  0  0
  187.2870  178.1890  142.3800 C   0  0  2  0  0  0  0  0  0  0  0  0
  184.5530  180.2560  139.1230 O   0  0  0  0  0  1  0  0  0  0  0  0
  184.6170  180.5600  143.7990 O   0  0  0  0  0  0  0  0  0  0  0  0
  184.4620  179.3690  144.0100 C   0  0  0  0  0  0  0  0  0  0  0  0
  183.6200  178.9210  145.1650 C   0  0  0  0  0  2  0  0  0  0  0  0
  184.4620  178.3870  146.2230 N   0  0  0  0  0  2  0  0  0  0  0  0
  185.2000  179.4180  146.7000 O   0  0  0  0  0  1  0  0  0  0  0  0
  181.8090  178.0020  141.2020 C   0  0  0  0  0  1  0  0  0  0  0  0
  182.7580  179.0370  141.1800 O   0  0  0  0  0  0  0  0  0  0  0  0
  187.9640  177.9440  139.2790 C   0  0  0  0  0  2  0  0  0  0  0  0
  188.9370  178.9210  139.0720 O   0  0  0  0  0  1  0  0  0  0  0  0
  188.2430  176.9950  142.3910 C   0  0  0  0  0  2  0  0  0  0  0  0
  191.5310  177.2960  147.0310 F   0  0  0  0  0  0  0  0  0  0  0  0
  189.4930  176.8500  146.0030 C   0  0  0  0  0  3  0  0  0  0  0  0
  189.1660  176.9770  143.5780 C   0  0  0  0  0  0  0  0  0  0  0  0
  191.2830  177.8300  144.6280 C   0  0  0  0  0  2  0  0  0  0  0  0
  188.6430  176.8120  144.8020 C   0  0  0  0  0  3  0  0  0  0  0  0
  190.6680  177.1350  143.3870 C   0  0  1  0  0  0  0  0  0  0  0  0
  191.2630  175.7300  143.2410 C   0  0  0  0  0  1  0  0  0  0  0  0
  190.7550  177.2740  145.9220 C   0  0  0  0  0  0  0  0  0  0  0  0
  191.8570  177.2910  141.3980 C   0  0  0  0  0  1  0  0  0  0  0  0
  190.8910  177.9070  142.2170 O   0  0  0  0  0  0  0  0  0  0  0  0
  1  5  1  0  0  0  0
  2 11  1  0  0  0  0
  3  1  1  0  0  0  0
  3 11  1  0  0  0  0
  4 19  1  0  0  0  0
  4  1  1  0  0  0  0
  5  9  1  0  0  0  0
  5 14  1  0  0  0  0
  6  4  1  0  0  0  0
  7  3  1  0  0  0  0
  8  6  1  0  0  0  0
  8  7  1  0  0  0  0
 10  6  1  0  0  0  0
 11 22  1  0  0  0  0
 11  9  1  0  0  0  0
 12  6  1  0  0  0  0
 13 14  2  0  0  0  0
 14 15  1  0  0  0  0
 15 16  1  0  0  0  0
 16 17  1  0  0  0  0
 19 18  1  0  0  0  0
 20  7  1  0  0  0  0
 21 20  1  0  0  0  0
 22 25  1  0  0  0  0
 25 27  2  0  0  0  0
 26 30  1  0  0  0  0
 27 24  1  0  0  0  0
 28 25  1  0  0  0  0
 28 26  1  0  0  0  0
 29 28  1  0  0  0  0
 30 24  2  0  0  0  0
 30 23  1  0  0  0  0
 31 32  1  0  0  0  0
 32 28  1  0  0  0  0
M  END
>  <MODEL>
3

>  <REMARK>
 VINA RESULT:      -7.3      3.354      5.690
  Name = 
  8 active torsions:
  status: ('A' for Active; 'I' for Inactive)
    1  A    between atoms: C_1  and  C_16
    2  A    between atoms: C_1  and  C_27
    3  A    between atoms: C_6  and  O_17
    4  A    between atoms: O_8  and  C_22
    5  A    between atoms: N_9  and  C_32
    6  A    between atoms: C_10  and  C_28
    7  A    between atoms: C_14  and  C_21
    8  A    between atoms: C_28  and  C_32
                            x       y       z     vdW  Elec       q    Type
                         _______ _______ _______ _____ _____    ______ ____

>  <TORSDO>
F 8

$$$$
=
 OpenBabel11052414433D

 32 34  0  0  1  0  0  0  0  0999 V2000
  188.8810  177.1930  145.6020 C   0  0  1  0  0  3  0  0  0  0  0  0
  188.3370  176.2020  142.8940 O   0  0  0  0  0  1  0  0  0  0  0  0
  189.6930  177.4740  144.4050 C   0  0  1  0  0  3  0  0  0  0  0  0
  189.7610  177.4800  146.8160 C   0  0  2  0  0  3  0  0  0  0  0  0
  187.6940  178.0820  145.3290 C   0  0  1  0  0  3  0  0  0  0  0  0
  191.0570  176.6170  146.7320 C   0  0  0  0  0  0  0  0  0  0  0  0
  190.8690  176.4920  144.3930 C   0  0  2  0  0  3  0  0  0  0  0  0
  191.7210  176.8090  145.4860 O   0  0  0  0  0  0  0  0  0  0  0  0
  187.4730  178.0660  143.9280 O   0  0  0  0  0  0  0  0  0  0  0  0
  191.9180  177.0160  147.7540 O   0  0  0  0  0  1  0  0  0  0  0  0
  188.6270  177.5000  143.3300 C   0  0  2  0  0  0  0  0  0  0  0  0
  190.7690  175.2580  146.8990 O   0  0  0  0  0  1  0  0  0  0  0  0
  186.0650  176.4650  145.8410 O   0  0  0  0  0  0  0  0  0  0  0  0
  186.4710  177.5980  146.0450 C   0  0  0  0  0  0  0  0  0  0  0  0
  185.7310  178.4960  146.9870 C   0  0  0  0  0  2  0  0  0  0  0  0
  184.3330  178.5890  146.5990 N   0  0  0  0  0  2  0  0  0  0  0  0
  184.2910  179.2800  145.4350 O   0  0  0  0  0  1  0  0  0  0  0  0
  189.1030  178.7250  148.6460 C   0  0  0  0  0  1  0  0  0  0  0  0
  189.0990  177.4450  148.0680 O   0  0  0  0  0  0  0  0  0  0  0  0
  191.6760  176.6090  143.1100 C   0  0  0  0  0  2  0  0  0  0  0  0
  192.1860  177.9000  142.9810 O   0  0  0  0  0  1  0  0  0  0  0  0
  189.0950  178.3700  142.1630 C   0  0  0  0  0  2  0  0  0  0  0  0
  185.3810  177.8730  137.8740 F   0  0  0  0  0  0  0  0  0  0  0  0
  185.9750  178.6800  139.9730 C   0  0  0  0  0  3  0  0  0  0  0  0
  188.1830  178.3140  140.9690 C   0  0  0  0  0  0  0  0  0  0  0  0
  187.5070  177.0990  138.8750 C   0  0  0  0  0  2  0  0  0  0  0  0
  186.9280  178.7710  141.0900 C   0  0  0  0  0  3  0  0  0  0  0  0
  188.6830  177.7530  139.6440 C   0  0  1  0  0  0  0  0  0  0  0  0
  189.2380  178.9270  138.8290 C   0  0  0  0  0  1  0  0  0  0  0  0
  186.2620  177.9420  138.9010 C   0  0  0  0  0  0  0  0  0  0  0  0
  190.7970  176.9890  139.0590 C   0  0  0  0  0  1  0  0  0  0  0  0
  189.6980  176.7980  139.9180 O   0  0  0  0  0  0  0  0  0  0  0  0
  1  4  1  0  0  0  0
  2 11  1  0  0  0  0
  3  1  1  0  0  0  0
  4 19  1  0  0  0  0
  5  1  1  0  0  0  0
  5 14  1  0  0  0  0
  6  4  1  0  0  0  0
  6 12  1  0  0  0  0
  6 10  1  0  0  0  0
  7  3  1  0  0  0  0
  7  8  1  0  0  0  0
  8  6  1  0  0  0  0
  9  5  1  0  0  0  0
 11  9  1  0  0  0  0
 11  3  1  0  0  0  0
 13 14  2  0  0  0  0
 14 15  1  0  0  0  0
 16 15  1  0  0  0  0
 17 16  1  0  0  0  0
 19 18  1  0  0  0  0
 20  7  1  0  0  0  0
 21 20  1  0  0  0  0
 22 11  1  0  0  0  0
 23 30  1  0  0  0  0
 24 27  1  0  0  0  0
 25 27  2  0  0  0  0
 25 22  1  0  0  0  0
 26 30  1  0  0  0  0
 26 28  1  0  0  0  0
 28 32  1  0  0  0  0
 28 25  1  0  0  0  0
 29 28  1  0  0  0  0
 30 24  2  0  0  0  0
 31 32  1  0  0  0  0
M  END
>  <MODEL>
4

>  <REMARK>
 VINA RESULT:      -7.1      3.754      8.154
  Name = 
  8 active torsions:
  status: ('A' for Active; 'I' for Inactive)
    1  A    between atoms: C_1  and  C_16
    2  A    between atoms: C_1  and  C_27
    3  A    between atoms: C_6  and  O_17
    4  A    between atoms: O_8  and  C_22
    5  A    between atoms: N_9  and  C_32
    6  A    between atoms: C_10  and  C_28
    7  A    between atoms: C_14  and  C_21
    8  A    between atoms: C_28  and  C_32
                            x       y       z     vdW  Elec       q    Type
                         _______ _______ _______ _____ _____    ______ ____

>  <TORSDO>
F 8

$$$$
=
 OpenBabel11052414433D

 32 34  0  0  1  0  0  0  0  0999 V2000
  187.6770  178.3650  140.1960 C   0  0  1  0  0  3  0  0  0  0  0  0
  189.3800  178.7650  142.5530 O   0  0  0  0  0  1  0  0  0  0  0  0
  188.7870  177.4900  140.6140 C   0  0  1  0  0  3  0  0  0  0  0  0
  187.4070  178.0710  138.7230 C   0  0  2  0  0  3  0  0  0  0  0  0
  186.6410  177.9840  141.2230 C   0  0  1  0  0  3  0  0  0  0  0  0
  188.7130  178.2950  137.9020 C   0  0  0  0  0  0  0  0  0  0  0  0
  190.0270  177.8850  139.8060 C   0  0  2  0  0  3  0  0  0  0  0  0
  189.7960  177.5450  138.4450 O   0  0  0  0  0  0  0  0  0  0  0  0
  187.3290  177.7290  142.4370 O   0  0  0  0  0  0  0  0  0  0  0  0
  188.4910  177.8620  136.5950 O   0  0  0  0  0  1  0  0  0  0  0  0
  188.7070  177.6170  142.1200 C   0  0  2  0  0  0  0  0  0  0  0  0
  189.0600  179.6510  137.8670 O   0  0  0  0  0  1  0  0  0  0  0  0
  185.2890  179.7540  140.4700 O   0  0  0  0  0  0  0  0  0  0  0  0
  185.6400  179.0790  141.4240 C   0  0  0  0  0  0  0  0  0  0  0  0
  185.0850  179.3680  142.7850 C   0  0  0  0  0  2  0  0  0  0  0  0
  183.8250  178.6690  142.9720 N   0  0  0  0  0  2  0  0  0  0  0  0
  183.2380  179.1990  144.0730 O   0  0  0  0  0  1  0  0  0  0  0  0
  185.3670  177.7010  137.7060 C   0  0  0  0  0  1  0  0  0  0  0  0
  186.2490  178.6840  138.1840 O   0  0  0  0  0  0  0  0  0  0  0  0
  191.2610  177.1340  140.2810 C   0  0  0  0  0  2  0  0  0  0  0  0
  191.9020  176.5330  139.1990 O   0  0  0  0  0  1  0  0  0  0  0  0
  189.2960  176.3660  142.7740 C   0  0  0  0  0  2  0  0  0  0  0  0
  191.6690  176.9060  147.9230 F   0  0  0  0  0  0  0  0  0  0  0  0
  191.8360  176.5960  145.6240 C   0  0  0  0  0  3  0  0  0  0  0  0
  189.8960  176.6230  144.1280 C   0  0  0  0  0  0  0  0  0  0  0  0
  189.5870  176.5950  146.6220 C   0  0  0  0  0  2  0  0  0  0  0  0
  191.2100  176.4200  144.3040 C   0  0  0  0  0  3  0  0  0  0  0  0
  189.0240  177.1150  145.2750 C   0  0  1  0  0  0  0  0  0  0  0  0
  189.0660  178.6470  145.2610 C   0  0  0  0  0  1  0  0  0  0  0  0
  191.0820  176.7360  146.7140 C   0  0  0  0  0  0  0  0  0  0  0  0
  186.7710  177.4760  145.7130 C   0  0  0  0  0  1  0  0  0  0  0  0
  187.7020  176.6400  145.0670 O   0  0  0  0  0  0  0  0  0  0  0  0
  1  3  1  0  0  0  0
  1  5  1  0  0  0  0
  3 11  1  0  0  0  0
  4  1  1  0  0  0  0
  5 14  1  0  0  0  0
  5  9  1  0  0  0  0
  6  8  1  0  0  0  0
  6  4  1  0  0  0  0
  7 20  1  0  0  0  0
  7  3  1  0  0  0  0
  8  7  1  0  0  0  0
 10  6  1  0  0  0  0
 11  9  1  0  0  0  0
 11  2  1  0  0  0  0
 11 22  1  0  0  0  0
 12  6  1  0  0  0  0
 13 14  2  0  0  0  0
 14 15  1  0  0  0  0
 15 16  1  0  0  0  0
 16 17  1  0  0  0  0
 18 19  1  0  0  0  0
 19  4  1  0  0  0  0
 21 20  1  0  0  0  0
 22 25  1  0  0  0  0
 24 30  2  0  0  0  0
 25 27  2  0  0  0  0
 25 28  1  0  0  0  0
 26 30  1  0  0  0  0
 27 24  1  0  0  0  0
 28 26  1  0  0  0  0
 29 28  1  0  0  0  0
 30 23  1  0  0  0  0
 32 28  1  0  0  0  0
 32 31  1  0  0  0  0
M  END
>  <MODEL>
5

>  <REMARK>
 VINA RESULT:      -7.0      2.656      4.956
  Name = 
  8 active torsions:
  status: ('A' for Active; 'I' for Inactive)
    1  A    between atoms: C_1  and  C_16
    2  A    between atoms: C_1  and  C_27
    3  A    between atoms: C_6  and  O_17
    4  A    between atoms: O_8  and  C_22
    5  A    between atoms: N_9  and  C_32
    6  A    between atoms: C_10  and  C_28
    7  A    between atoms: C_14  and  C_21
    8  A    between atoms: C_28  and  C_32
                            x       y       z     vdW  Elec       q    Type
                         _______ _______ _______ _____ _____    ______ ____

>  <TORSDO>
F 8

$$$$
=
 OpenBabel11052414433D

 32 34  0  0  1  0  0  0  0  0999 V2000
  190.3470  177.6220  139.9310 C   0  0  1  0  0  3  0  0  0  0  0  0
  189.1150  179.0340  142.1900 O   0  0  0  0  0  1  0  0  0  0  0  0
  190.3210  177.1530  141.3280 C   0  0  1  0  0  3  0  0  0  0  0  0
  191.4640  176.8590  139.2250 C   0  0  2  0  0  3  0  0  0  0  0  0
  188.9150  177.3580  139.5390 C   0  0  1  0  0  3  0  0  0  0  0  0
  192.8080  177.0920  139.9790 C   0  0  0  0  0  0  0  0  0  0  0  0
  191.6540  177.5350  141.9780 C   0  0  2  0  0  3  0  0  0  0  0  0
  192.6820  176.7710  141.3620 O   0  0  0  0  0  0  0  0  0  0  0  0
  188.1140  177.6160  140.6800 O   0  0  0  0  0  0  0  0  0  0  0  0
  193.7770  176.2570  139.4210 O   0  0  0  0  0  1  0  0  0  0  0  0
  188.9880  177.6980  141.7940 C   0  0  2  0  0  0  0  0  0  0  0  0
  193.2370  178.4180  139.8490 O   0  0  0  0  0  1  0  0  0  0  0  0
  189.0550  179.3020  138.2230 O   0  0  0  0  0  0  0  0  0  0  0  0
  188.4870  178.2370  138.4050 C   0  0  0  0  0  0  0  0  0  0  0  0
  187.3570  177.8340  137.5080 C   0  0  0  0  0  2  0  0  0  0  0  0
  186.3610  178.8900  137.4500 N   0  0  0  0  0  2  0  0  0  0  0  0
  185.7150  178.8930  138.6410 O   0  0  0  0  0  1  0  0  0  0  0  0
  191.1840  175.8420  137.1700 C   0  0  0  0  0  1  0  0  0  0  0  0
  191.5280  177.0380  137.8210 O   0  0  0  0  0  0  0  0  0  0  0  0
  191.6560  177.2240  143.4660 C   0  0  0  0  0  2  0  0  0  0  0  0
  191.7570  178.4040  144.2020 O   0  0  0  0  0  1  0  0  0  0  0  0
  188.4550  176.8410  142.9440 C   0  0  0  0  0  2  0  0  0  0  0  0
  183.9110  179.4120  145.2190 F   0  0  0  0  0  0  0  0  0  0  0  0
  184.9360  178.2350  143.4950 C   0  0  0  0  0  3  0  0  0  0  0  0
  187.2470  177.4280  143.6180 C   0  0  0  0  0  0  0  0  0  0  0  0
  186.3470  179.0020  145.3590 C   0  0  0  0  0  2  0  0  0  0  0  0
  186.1270  177.6060  142.9020 C   0  0  0  0  0  3  0  0  0  0  0  0
  187.2950  177.8050  145.0930 C   0  0  1  0  0  0  0  0  0  0  0  0
  186.8200  176.5880  145.8940 C   0  0  0  0  0  1  0  0  0  0  0  0
  185.0160  178.8450  144.6780 C   0  0  0  0  0  0  0  0  0  0  0  0
  189.0190  177.5080  146.6210 C   0  0  0  0  0  1  0  0  0  0  0  0
  188.6340  178.1420  145.4240 O   0  0  0  0  0  0  0  0  0  0  0  0
  1  3  1  0  0  0  0
  3 11  1  0  0  0  0
  3  7  1  0  0  0  0
  4  1  1  0  0  0  0
  4  6  1  0  0  0  0
  5  1  1  0  0  0  0
  5  9  1  0  0  0  0
  6  8  1  0  0  0  0
  7 20  1  0  0  0  0
  8  7  1  0  0  0  0
  9 11  1  0  0  0  0
 10  6  1  0  0  0  0
 11  2  1  0  0  0  0
 11 22  1  0  0  0  0
 12  6  1  0  0  0  0
 13 14  2  0  0  0  0
 14  5  1  0  0  0  0
 15 14  1  0  0  0  0
 16 15  1  0  0  0  0
 16 17  1  0  0  0  0
 18 19  1  0  0  0  0
 19  4  1  0  0  0  0
 20 21  1  0  0  0  0
 22 25  1  0  0  0  0
 24 30  2  0  0  0  0
 25 28  1  0  0  0  0
 27 24  1  0  0  0  0
 27 25  2  0  0  0  0
 28 26  1  0  0  0  0
 28 32  1  0  0  0  0
 28 29  1  0  0  0  0
 30 23  1  0  0  0  0
 30 26  1  0  0  0  0
 32 31  1  0  0  0  0
M  END
>  <MODEL>
6

>  <REMARK>
 VINA RESULT:      -7.0      2.577      4.877
  Name = 
  8 active torsions:
  status: ('A' for Active; 'I' for Inactive)
    1  A    between atoms: C_1  and  C_16
    2  A    between atoms: C_1  and  C_27
    3  A    between atoms: C_6  and  O_17
    4  A    between atoms: O_8  and  C_22
    5  A    between atoms: N_9  and  C_32
    6  A    between atoms: C_10  and  C_28
    7  A    between atoms: C_14  and  C_21
    8  A    between atoms: C_28  and  C_32
                            x       y       z     vdW  Elec       q    Type
                         _______ _______ _______ _____ _____    ______ ____

>  <TORSDO>
F 8

$$$$
=
 OpenBabel11052414433D

 32 34  0  0  1  0  0  0  0  0999 V2000
  184.5480  178.7890  141.5780 C   0  0  1  0  0  3  0  0  0  0  0  0
  187.0200  179.4570  143.0110 O   0  0  0  0  0  1  0  0  0  0  0  0
  185.8510  178.1260  141.3990 C   0  0  1  0  0  3  0  0  0  0  0  0
  183.7130  178.4740  140.3400 C   0  0  2  0  0  3  0  0  0  0  0  0
  184.1380  178.2080  142.9080 C   0  0  1  0  0  3  0  0  0  0  0  0
  184.4760  178.9470  139.0660 C   0  0  0  0  0  0  0  0  0  0  0  0
  186.5350  178.7540  140.1810 C   0  0  2  0  0  3  0  0  0  0  0  0
  185.7910  178.3990  139.0230 O   0  0  0  0  0  0  0  0  0  0  0  0
  185.3170  178.0650  143.6830 O   0  0  0  0  0  0  0  0  0  0  0  0
  183.7780  178.5010  137.9430 O   0  0  0  0  0  1  0  0  0  0  0  0
  186.4170  178.2130  142.8000 C   0  0  2  0  0  0  0  0  0  0  0  0
  184.5540  180.3430  139.0130 O   0  0  0  0  0  1  0  0  0  0  0  0
  183.5530  180.1540  144.0920 O   0  0  0  0  0  0  0  0  0  0  0  0
  183.1650  179.0980  143.6180 C   0  0  0  0  0  0  0  0  0  0  0  0
  181.7310  178.6950  143.7710 C   0  0  0  0  0  2  0  0  0  0  0  0
  180.8590  179.7310  143.2410 N   0  0  0  0  0  2  0  0  0  0  0  0
  179.7130  179.1220  142.8510 O   0  0  0  0  0  1  0  0  0  0  0  0
  181.5200  177.7600  140.2140 C   0  0  0  0  0  1  0  0  0  0  0  0
  182.3550  178.8730  140.4060 O   0  0  0  0  0  0  0  0  0  0  0  0
  187.9540  178.2350  140.0120 C   0  0  0  0  0  2  0  0  0  0  0  0
  188.6360  179.0030  139.0680 O   0  0  0  0  0  1  0  0  0  0  0  0
  187.4220  177.0800  143.0200 C   0  0  0  0  0  2  0  0  0  0  0  0
  190.0530  177.8790  148.0070 F   0  0  0  0  0  0  0  0  0  0  0  0
  188.1990  177.2320  146.7620 C   0  0  0  0  0  3  0  0  0  0  0  0
  188.1820  177.1960  144.3120 C   0  0  0  0  0  0  0  0  0  0  0  0
  190.0870  178.2550  145.5610 C   0  0  0  0  0  2  0  0  0  0  0  0
  187.5160  177.0650  145.4690 C   0  0  0  0  0  3  0  0  0  0  0  0
  189.6840  177.4480  144.3020 C   0  0  1  0  0  0  0  0  0  0  0  0
  190.3800  176.0830  144.3250 C   0  0  0  0  0  1  0  0  0  0  0  0
  189.4310  177.7380  146.8120 C   0  0  0  0  0  0  0  0  0  0  0  0
  191.3030  177.8290  142.6800 C   0  0  0  0  0  1  0  0  0  0  0  0
  190.0080  178.1660  143.1200 O   0  0  0  0  0  0  0  0  0  0  0  0
  1  5  1  0  0  0  0
  3  1  1  0  0  0  0
  3 11  1  0  0  0  0
  4 19  1  0  0  0  0
  4  1  1  0  0  0  0
  5 14  1  0  0  0  0
  5  9  1  0  0  0  0
  6  4  1  0  0  0  0
  7  3  1  0  0  0  0
  8  6  1  0  0  0  0
  8  7  1  0  0  0  0
 10  6  1  0  0  0  0
 11  2  1  0  0  0  0
 11 22  1  0  0  0  0
 11  9  1  0  0  0  0
 12  6  1  0  0  0  0
 14 15  1  0  0  0  0
 14 13  2  0  0  0  0
 16 15  1  0  0  0  0
 17 16  1  0  0  0  0
 18 19  1  0  0  0  0
 20  7  1  0  0  0  0
 21 20  1  0  0  0  0
 22 25  1  0  0  0  0
 24 30  2  0  0  0  0
 25 27  2  0  0  0  0
 26 30  1  0  0  0  0
 27 24  1  0  0  0  0
 28 25  1  0  0  0  0
 28 29  1  0  0  0  0
 28 26  1  0  0  0  0
 30 23  1  0  0  0  0
 31 32  1  0  0  0  0
 32 28  1  0  0  0  0
M  END
>  <MODEL>
7

>  <REMARK>
 VINA RESULT:      -6.9      3.667      6.216
  Name = 
  8 active torsions:
  status: ('A' for Active; 'I' for Inactive)
    1  A    between atoms: C_1  and  C_16
    2  A    between atoms: C_1  and  C_27
    3  A    between atoms: C_6  and  O_17
    4  A    between atoms: O_8  and  C_22
    5  A    between atoms: N_9  and  C_32
    6  A    between atoms: C_10  and  C_28
    7  A    between atoms: C_14  and  C_21
    8  A    between atoms: C_28  and  C_32
                            x       y       z     vdW  Elec       q    Type
                         _______ _______ _______ _____ _____    ______ ____

>  <TORSDO>
F 8

$$$$
=
 OpenBabel11052414433D

 32 34  0  0  1  0  0  0  0  0999 V2000
  187.3740  177.8650  139.8530 C   0  0  1  0  0  3  0  0  0  0  0  0
  187.9310  176.5540  142.4190 O   0  0  0  0  0  1  0  0  0  0  0  0
  187.3300  178.5110  141.1760 C   0  0  1  0  0  3  0  0  0  0  0  0
  186.5720  178.7450  138.8990 C   0  0  2  0  0  3  0  0  0  0  0  0
  188.8660  177.7500  139.6670 C   0  0  1  0  0  3  0  0  0  0  0  0
  185.1250  178.9230  139.4500 C   0  0  0  0  0  0  0  0  0  0  0  0
  185.8710  178.5270  141.6430 C   0  0  2  0  0  3  0  0  0  0  0  0
  185.1430  179.4030  140.7920 O   0  0  0  0  0  0  0  0  0  0  0  0
  189.4280  177.4870  140.9420 O   0  0  0  0  0  0  0  0  0  0  0  0
  184.4640  179.8620  138.6580 O   0  0  0  0  0  1  0  0  0  0  0  0
  188.4220  177.7590  141.9050 C   0  0  2  0  0  0  0  0  0  0  0  0
  184.4140  177.7190  139.3980 O   0  0  0  0  0  1  0  0  0  0  0  0
  188.3280  176.0770  138.1050 O   0  0  0  0  0  0  0  0  0  0  0  0
  189.2160  176.6460  138.7180 C   0  0  0  0  0  0  0  0  0  0  0  0
  190.6400  176.2190  138.5330 C   0  0  0  0  0  2  0  0  0  0  0  0
  190.6940  174.8800  137.9690 N   0  0  0  0  0  2  0  0  0  0  0  0
  191.9950  174.5030  137.9680 O   0  0  0  0  0  1  0  0  0  0  0  0
  187.5010  179.2740  136.8510 C   0  0  0  0  0  1  0  0  0  0  0  0
  186.6510  178.3860  137.5300 O   0  0  0  0  0  0  0  0  0  0  0  0
  185.7500  179.0400  143.0690 C   0  0  0  0  0  2  0  0  0  0  0  0
  184.8140  178.2830  143.7730 O   0  0  0  0  0  1  0  0  0  0  0  0
  188.9900  178.6330  143.0250 C   0  0  0  0  0  2  0  0  0  0  0  0
  190.8690  176.0110  147.7180 F   0  0  0  0  0  0  0  0  0  0  0  0
  189.1460  176.8800  146.4210 C   0  0  0  0  0  3  0  0  0  0  0  0
  189.5040  177.8450  144.1980 C   0  0  0  0  0  0  0  0  0  0  0  0
  191.4570  177.2730  145.6730 C   0  0  0  0  0  2  0  0  0  0  0  0
  188.6760  177.5910  145.2220 C   0  0  0  0  0  3  0  0  0  0  0  0
  190.9400  177.3380  144.2130 C   0  0  1  0  0  0  0  0  0  0  0  0
  190.9360  175.9290  143.6100 C   0  0  0  0  0  1  0  0  0  0  0  0
  190.4490  176.6750  146.6150 C   0  0  0  0  0  0  0  0  0  0  0  0
  192.0550  179.3750  144.1800 C   0  0  0  0  0  1  0  0  0  0  0  0
  191.7350  178.2220  143.4370 O   0  0  0  0  0  0  0  0  0  0  0  0
  1  3  1  0  0  0  0
  3  7  1  0  0  0  0
  3 11  1  0  0  0  0
  4  6  1  0  0  0  0
  4  1  1  0  0  0  0
  5  1  1  0  0  0  0
  5  9  1  0  0  0  0
  6  8  1  0  0  0  0
  7 20  1  0  0  0  0
  8  7  1  0  0  0  0
  9 11  1  0  0  0  0
 10  6  1  0  0  0  0
 11  2  1  0  0  0  0
 11 22  1  0  0  0  0
 12  6  1  0  0  0  0
 13 14  2  0  0  0  0
 14  5  1  0  0  0  0
 15 14  1  0  0  0  0
 16 15  1  0  0  0  0
 17 16  1  0  0  0  0
 18 19  1  0  0  0  0
 19  4  1  0  0  0  0
 20 21  1  0  0  0  0
 22 25  1  0  0  0  0
 24 30  2  0  0  0  0
 25 28  1  0  0  0  0
 25 27  2  0  0  0  0
 26 30  1  0  0  0  0
 27 24  1  0  0  0  0
 28 26  1  0  0  0  0
 29 28  1  0  0  0  0
 30 23  1  0  0  0  0
 32 31  1  0  0  0  0
 32 28  1  0  0  0  0
M  END
>  <MODEL>
8

>  <REMARK>
 VINA RESULT:      -6.8      1.512      2.266
  Name = 
  8 active torsions:
  status: ('A' for Active; 'I' for Inactive)
    1  A    between atoms: C_1  and  C_16
    2  A    between atoms: C_1  and  C_27
    3  A    between atoms: C_6  and  O_17
    4  A    between atoms: O_8  and  C_22
    5  A    between atoms: N_9  and  C_32
    6  A    between atoms: C_10  and  C_28
    7  A    between atoms: C_14  and  C_21
    8  A    between atoms: C_28  and  C_32
                            x       y       z     vdW  Elec       q    Type
                         _______ _______ _______ _____ _____    ______ ____

>  <TORSDO>
F 8

$$$$
=
 OpenBabel11052414433D

 32 34  0  0  1  0  0  0  0  0999 V2000
  188.0800  176.7570  137.9130 C   0  0  1  0  0  3  0  0  0  0  0  0
  189.3010  179.3490  138.5490 O   0  0  0  0  0  1  0  0  0  0  0  0
  189.0750  177.0020  138.9720 C   0  0  1  0  0  3  0  0  0  0  0  0
  188.0950  175.2580  137.6250 C   0  0  2  0  0  3  0  0  0  0  0  0
  186.8600  177.3700  138.5520 C   0  0  1  0  0  3  0  0  0  0  0  0
  189.5380  174.8210  137.2300 C   0  0  0  0  0  0  0  0  0  0  0  0
  190.4540  176.6300  138.4180 C   0  0  2  0  0  3  0  0  0  0  0  0
  190.4850  175.2230  138.2170 O   0  0  0  0  0  0  0  0  0  0  0  0
  187.2960  178.4990  139.2910 O   0  0  0  0  0  0  0  0  0  0  0  0
  189.5670  173.4290  137.1350 O   0  0  0  0  0  1  0  0  0  0  0  0
  188.7080  178.4080  139.3970 C   0  0  2  0  0  0  0  0  0  0  0  0
  189.9060  175.3570  135.9900 O   0  0  0  0  0  1  0  0  0  0  0  0
  186.2290  178.0520  136.3930 O   0  0  0  0  0  0  0  0  0  0  0  0
  185.8560  177.7890  137.5240 C   0  0  0  0  0  0  0  0  0  0  0  0
  184.4050  177.9110  137.8770 C   0  0  0  0  0  2  0  0  0  0  0  0
  184.2550  178.5520  139.1730 N   0  0  0  0  0  2  0  0  0  0  0  0
  184.4020  179.8840  138.9760 O   0  0  0  0  0  1  0  0  0  0  0  0
  186.2860  173.8380  137.4200 C   0  0  0  0  0  1  0  0  0  0  0  0
  187.0730  174.7960  136.7600 O   0  0  0  0  0  0  0  0  0  0  0  0
  191.5610  176.9950  139.3940 C   0  0  0  0  0  2  0  0  0  0  0  0
  192.8070  176.7510  138.8170 O   0  0  0  0  0  1  0  0  0  0  0  0
  189.1410  178.6360  140.8470 C   0  0  0  0  0  2  0  0  0  0  0  0
  185.0270  177.7900  144.6930 F   0  0  0  0  0  0  0  0  0  0  0  0
  185.7270  178.3560  142.5490 C   0  0  0  0  0  3  0  0  0  0  0  0
  188.0750  178.2970  141.8510 C   0  0  0  0  0  0  0  0  0  0  0  0
  187.4540  178.0320  144.2720 C   0  0  0  0  0  2  0  0  0  0  0  0
  186.8010  178.6080  141.5740 C   0  0  0  0  0  3  0  0  0  0  0  0
  188.4420  177.6050  143.1570 C   0  0  1  0  0  0  0  0  0  0  0  0
  188.3270  176.0940  142.9240 C   0  0  0  0  0  1  0  0  0  0  0  0
  186.0230  178.0290  143.8070 C   0  0  0  0  0  0  0  0  0  0  0  0
  189.8720  178.2260  144.8790 C   0  0  0  0  0  1  0  0  0  0  0  0
  189.7710  177.9680  143.4980 O   0  0  0  0  0  0  0  0  0  0  0  0
  1  5  1  0  0  0  0
  1  3  1  0  0  0  0
  2 11  1  0  0  0  0
  3 11  1  0  0  0  0
  4  1  1  0  0  0  0
  5  9  1  0  0  0  0
  6  4  1  0  0  0  0
  6  8  1  0  0  0  0
  7  3  1  0  0  0  0
  7 20  1  0  0  0  0
  8  7  1  0  0  0  0
  9 11  1  0  0  0  0
 10  6  1  0  0  0  0
 11 22  1  0  0  0  0
 12  6  1  0  0  0  0
 13 14  2  0  0  0  0
 14 15  1  0  0  0  0
 14  5  1  0  0  0  0
 15 16  1  0  0  0  0
 17 16  1  0  0  0  0
 19 18  1  0  0  0  0
 19  4  1  0  0  0  0
 21 20  1  0  0  0  0
 22 25  1  0  0  0  0
 24 30  2  0  0  0  0
 25 28  1  0  0  0  0
 27 25  2  0  0  0  0
 27 24  1  0  0  0  0
 28 32  1  0  0  0  0
 28 26  1  0  0  0  0
 29 28  1  0  0  0  0
 30 26  1  0  0  0  0
 30 23  1  0  0  0  0
 32 31  1  0  0  0  0
M  END
>  <MODEL>
9

>  <REMARK>
 VINA RESULT:      -6.5      2.662      4.874
  Name = 
  8 active torsions:
  status: ('A' for Active; 'I' for Inactive)
    1  A    between atoms: C_1  and  C_16
    2  A    between atoms: C_1  and  C_27
    3  A    between atoms: C_6  and  O_17
    4  A    between atoms: O_8  and  C_22
    5  A    between atoms: N_9  and  C_32
    6  A    between atoms: C_10  and  C_28
    7  A    between atoms: C_14  and  C_21
    8  A    between atoms: C_28  and  C_32
                            x       y       z     vdW  Elec       q    Type
                         _______ _______ _______ _____ _____    ______ ____

>  <TORSDO>
F 8

$$$$
