=
 OpenBabel11052412583D

 31 37  0  0  1  0  0  0  0  0999 V2000
  186.0860  178.9060  140.7650 C   0  0  0  0  0  0  0  0  0  0  0  0
  189.2340  176.7790  141.0240 C   0  0  1  0  0  3  0  0  0  0  0  0
  189.2360  176.8860  142.5340 C   0  0  0  0  0  0  0  0  0  0  0  0
  187.3000  176.9070  144.0710 C   0  0  0  0  0  3  0  0  0  0  0  0
  188.2880  177.7640  140.3550 C   0  0  2  0  0  0  0  0  0  0  0  0
  185.5600  178.3210  139.4990 C   0  0  0  0  0  2  0  0  0  0  0  0
  188.2230  176.0620  143.2620 C   0  0  0  0  0  2  0  0  0  0  0  0
  190.4790  178.0050  139.2520 C   0  0  1  0  0  3  0  0  0  0  0  0
  185.2980  179.5570  141.5540 N   0  0  0  0  0  2  0  0  0  0  0  0
  191.2980  178.2560  142.4400 C   0  0  0  0  0  2  0  0  0  0  0  0
  187.7190  177.6600  145.0850 C   0  0  0  0  0  3  0  0  0  0  0  0
  189.0110  178.5050  139.2570 C   0  0  1  0  0  3  0  0  0  0  0  0
  190.6150  177.0150  140.4010 C   0  0  2  0  0  0  0  0  0  0  0  0
  190.9310  176.5510  138.9910 C   0  0  1  0  0  3  0  0  0  0  0  0
  187.4260  178.6240  141.1650 N   0  0  0  0  0  2  0  0  0  0  0  0
  189.1300  177.8240  145.4800 C   0  0  0  0  0  3  0  0  0  0  0  0
  187.8930  177.5210  138.8990 C   0  0  2  0  0  3  0  0  0  0  0  0
  186.6680  178.3230  138.4510 C   0  0  0  0  0  2  0  0  0  0  0  0
  191.7890  177.3660  141.3040 C   0  0  0  0  0  2  0  0  0  0  0  0
  190.1790  177.5950  143.1960 C   0  0  0  0  0  0  0  0  0  0  0  0
  190.1910  177.7870  144.6620 C   0  0  0  0  0  3  0  0  0  0  0  0
  189.9010  175.5940  138.3990 C   0  0  0  0  0  2  0  0  0  0  0  0
  191.8260  175.1670  136.8450 C   0  0  0  0  0  2  0  0  0  0  0  0
  191.0720  173.1730  135.5740 C   0  0  0  0  0  1  0  0  0  0  0  0
  191.1110  173.8270  136.9460 C   0  0  2  0  0  3  0  0  0  0  0  0
  190.3240  175.1340  137.0100 C   0  0  1  0  0  0  0  0  0  0  0  0
  189.5910  175.6660  135.7750 C   0  0  2  0  0  3  0  0  0  0  0  0
  189.9570  176.9910  135.5300 O   0  0  0  0  0  1  0  0  0  0  0  0
  188.0850  175.5680  135.9550 C   0  0  0  0  0  2  0  0  0  0  0  0
  187.7000  174.2290  136.0140 O   0  0  0  0  0  0  0  0  0  0  0  0
  186.6980  174.1960  136.9820 C   0  0  0  0  0  1  0  0  0  0  0  0
  1 15  1  0  0  0  0
  1  9  2  0  0  0  0
  2  3  1  1  0  0  0
  3 20  2  0  0  0  0
  3  7  1  0  0  0  0
  4 11  2  0  0  0  0
  5  2  1  0  0  0  0
  5 15  1  1  0  0  0
  6  1  1  0  0  0  0
  7  4  1  0  0  0  0
  8 12  1  0  0  0  0
  8 13  1  0  0  0  0
 10 20  1  0  0  0  0
 11 16  1  0  0  0  0
 12  5  1  0  0  0  0
 13  2  1  0  0  0  0
 13 19  1  0  0  0  0
 14  8  1  0  0  0  0
 14 13  1  0  0  0  0
 17 12  1  0  0  0  0
 17  5  1  0  0  0  0
 18 17  1  0  0  0  0
 18  6  1  0  0  0  0
 19 10  1  0  0  0  0
 20 21  1  0  0  0  0
 21 16  2  0  0  0  0
 22 14  1  0  0  0  0
 23 25  1  0  0  0  0
 23 26  1  0  0  0  0
 24 25  1  0  0  0  0
 25 26  1  0  0  0  0
 26 22  1  0  0  0  0
 27 29  1  0  0  0  0
 27 26  1  0  0  0  0
 28 27  1  0  0  0  0
 29 30  1  0  0  0  0
 30 31  1  0  0  0  0
M  END
>  <MODEL>
1

>  <REMARK>
 VINA RESULT:      -7.4      0.000      0.000
  Name = 
  5 active torsions:
  status: ('A' for Active; 'I' for Inactive)
    1  A    between atoms: O_1  and  C_8
    2  A    between atoms: C_8  and  C_19
    3  A    between atoms: C_9  and  C_22
    4  A    between atoms: C_9  and  C_23
    5  A    between atoms: C_19  and  C_22
                            x       y       z     vdW  Elec       q    Type
                         _______ _______ _______ _____ _____    ______ ____

>  <TORSDO>
F 5

$$$$
=
 OpenBabel11052412583D

 31 37  0  0  1  0  0  0  0  0999 V2000
  185.6040  178.9450  146.1730 C   0  0  0  0  0  0  0  0  0  0  0  0
  186.2380  177.6720  142.6400 C   0  0  1  0  0  3  0  0  0  0  0  0
  187.6930  177.3950  142.9530 C   0  0  0  0  0  0  0  0  0  0  0  0
  188.6720  176.5480  145.0590 C   0  0  0  0  0  3  0  0  0  0  0  0
  185.5510  178.5270  143.6950 C   0  0  2  0  0  0  0  0  0  0  0  0
  184.1600  178.5840  146.2530 C   0  0  0  0  0  2  0  0  0  0  0  0
  187.9760  176.1900  143.7910 C   0  0  0  0  0  2  0  0  0  0  0  0
  185.0960  179.5740  141.5100 C   0  0  1  0  0  3  0  0  0  0  0  0
  186.2790  179.1610  147.2530 N   0  0  0  0  0  2  0  0  0  0  0  0
  188.3770  179.2130  141.4150 C   0  0  0  0  0  2  0  0  0  0  0  0
  189.8820  177.1030  145.0810 C   0  0  0  0  0  3  0  0  0  0  0  0
  184.8290  179.6750  143.0340 C   0  0  1  0  0  3  0  0  0  0  0  0
  186.0360  178.3930  141.3020 C   0  0  2  0  0  0  0  0  0  0  0  0
  184.6880  178.3910  140.6030 C   0  0  1  0  0  3  0  0  0  0  0  0
  186.2660  178.9150  144.9100 N   0  0  0  0  0  2  0  0  0  0  0  0
  190.6410  177.5080  143.8840 C   0  0  0  0  0  3  0  0  0  0  0  0
  184.0240  178.5670  143.7190 C   0  0  2  0  0  3  0  0  0  0  0  0
  183.4420  179.1240  145.0210 C   0  0  0  0  0  2  0  0  0  0  0  0
  187.2530  178.7870  140.4770 C   0  0  0  0  0  2  0  0  0  0  0  0
  188.6910  178.1270  142.4060 C   0  0  0  0  0  0  0  0  0  0  0  0
  190.1230  177.9420  142.7270 C   0  0  0  0  0  3  0  0  0  0  0  0
  183.6880  177.3880  141.1710 C   0  0  0  0  0  2  0  0  0  0  0  0
  182.8960  177.0630  138.8100 C   0  0  0  0  0  2  0  0  0  0  0  0
  180.8850  175.6390  139.0990 C   0  0  0  0  0  1  0  0  0  0  0  0
  182.3060  175.8890  139.5770 C   0  0  2  0  0  3  0  0  0  0  0  0
  182.4820  177.2470  140.2520 C   0  0  1  0  0  0  0  0  0  0  0  0
  181.2960  178.2060  140.3980 C   0  0  2  0  0  3  0  0  0  0  0  0
  181.4780  179.3250  139.5830 O   0  0  0  0  0  1  0  0  0  0  0  0
  181.1280  178.6400  141.8450 C   0  0  0  0  0  2  0  0  0  0  0  0
  179.9110  178.1750  142.3420 O   0  0  0  0  0  0  0  0  0  0  0  0
  180.0000  178.3670  143.7200 C   0  0  0  0  0  1  0  0  0  0  0  0
  1  6  1  0  0  0  0
  1  9  2  0  0  0  0
  2  3  1  1  0  0  0
  2  5  1  0  0  0  0
  3  7  1  0  0  0  0
  4 11  2  0  0  0  0
  5 17  1  0  0  0  0
  5 15  1  1  0  0  0
  7  4  1  0  0  0  0
  8 12  1  0  0  0  0
 10 20  1  0  0  0  0
 12  5  1  0  0  0  0
 12 17  1  0  0  0  0
 13  8  1  0  0  0  0
 13  2  1  0  0  0  0
 14 22  1  0  0  0  0
 14 13  1  0  0  0  0
 14  8  1  0  0  0  0
 15  1  1  0  0  0  0
 16 11  1  0  0  0  0
 17 18  1  0  0  0  0
 18  6  1  0  0  0  0
 19 13  1  0  0  0  0
 19 10  1  0  0  0  0
 20 21  1  0  0  0  0
 20  3  2  0  0  0  0
 21 16  2  0  0  0  0
 23 25  1  0  0  0  0
 23 26  1  0  0  0  0
 24 25  1  0  0  0  0
 25 26  1  0  0  0  0
 26 27  1  0  0  0  0
 26 22  1  0  0  0  0
 27 29  1  0  0  0  0
 28 27  1  0  0  0  0
 29 30  1  0  0  0  0
 30 31  1  0  0  0  0
M  END
>  <MODEL>
2

>  <REMARK>
 VINA RESULT:      -6.5      4.354      6.666
  Name = 
  5 active torsions:
  status: ('A' for Active; 'I' for Inactive)
    1  A    between atoms: O_1  and  C_8
    2  A    between atoms: C_8  and  C_19
    3  A    between atoms: C_9  and  C_22
    4  A    between atoms: C_9  and  C_23
    5  A    between atoms: C_19  and  C_22
                            x       y       z     vdW  Elec       q    Type
                         _______ _______ _______ _____ _____    ______ ____

>  <TORSDO>
F 5

$$$$
=
 OpenBabel11052412583D

 31 37  0  0  1  0  0  0  0  0999 V2000
  191.2760  174.8170  136.0720 C   0  0  0  0  0  0  0  0  0  0  0  0
  188.3540  176.1220  138.1360 C   0  0  1  0  0  3  0  0  0  0  0  0
  187.3510  175.5920  137.1330 C   0  0  0  0  0  0  0  0  0  0  0  0
  187.4560  173.5000  135.8220 C   0  0  0  0  0  3  0  0  0  0  0  0
  189.7810  176.1290  137.6100 C   0  0  2  0  0  0  0  0  0  0  0  0
  192.2310  174.6090  137.1980 C   0  0  0  0  0  2  0  0  0  0  0  0
  187.1220  174.1150  137.1380 C   0  0  0  0  0  2  0  0  0  0  0  0
  189.3300  178.3820  138.5020 C   0  0  1  0  0  3  0  0  0  0  0  0
  191.4650  174.2190  134.9440 N   0  0  0  0  0  2  0  0  0  0  0  0
  186.7350  177.9110  136.5170 C   0  0  0  0  0  2  0  0  0  0  0  0
  186.8070  173.8060  134.7010 C   0  0  0  0  0  3  0  0  0  0  0  0
  190.4060  177.4820  137.8420 C   0  0  1  0  0  3  0  0  0  0  0  0
  188.0540  177.5560  138.5890 C   0  0  2  0  0  0  0  0  0  0  0  0
  188.6530  178.1190  139.8650 C   0  0  1  0  0  3  0  0  0  0  0  0
  190.0840  175.5680  136.2930 N   0  0  0  0  0  2  0  0  0  0  0  0
  185.7550  174.8330  134.5940 C   0  0  0  0  0  3  0  0  0  0  0  0
  190.9270  176.2650  138.6120 C   0  0  2  0  0  3  0  0  0  0  0  0
  192.2940  175.8780  138.0400 C   0  0  0  0  0  2  0  0  0  0  0  0
  186.8680  178.2950  137.9860 C   0  0  0  0  0  2  0  0  0  0  0  0
  186.6150  176.4210  136.3580 C   0  0  0  0  0  0  0  0  0  0  0  0
  185.6710  175.9580  135.3180 C   0  0  0  0  0  3  0  0  0  0  0  0
  189.2930  177.0730  140.7730 C   0  0  0  0  0  2  0  0  0  0  0  0
  187.8410  178.3050  142.4100 C   0  0  0  0  0  2  0  0  0  0  0  0
  187.7800  176.7650  144.3550 C   0  0  0  0  0  1  0  0  0  0  0  0
  187.7480  176.8480  142.8370 C   0  0  2  0  0  3  0  0  0  0  0  0
  189.0400  177.4000  142.2390 C   0  0  1  0  0  0  0  0  0  0  0  0
  190.2080  177.8060  143.1430 C   0  0  2  0  0  3  0  0  0  0  0  0
  190.4670  179.1710  143.0120 O   0  0  0  0  0  1  0  0  0  0  0  0
  191.4550  177.0050  142.8050 C   0  0  0  0  0  2  0  0  0  0  0  0
  191.5630  175.9090  143.6610 O   0  0  0  0  0  0  0  0  0  0  0  0
  191.5860  176.4640  144.9390 C   0  0  0  0  0  1  0  0  0  0  0  0
  1 15  1  0  0  0  0
  1  6  1  0  0  0  0
  2  3  1  6  0  0  0
  2 13  1  0  0  0  0
  3  7  1  0  0  0  0
  4  7  1  0  0  0  0
  5 15  1  6  0  0  0
  5 12  1  0  0  0  0
  5  2  1  0  0  0  0
  5 17  1  0  0  0  0
  6 18  1  0  0  0  0
  8 13  1  0  0  0  0
  8 14  1  0  0  0  0
  9  1  2  0  0  0  0
 10 19  1  0  0  0  0
 11  4  2  0  0  0  0
 12  8  1  0  0  0  0
 12 17  1  0  0  0  0
 13 14  1  0  0  0  0
 14 22  1  0  0  0  0
 16 11  1  0  0  0  0
 16 21  2  0  0  0  0
 18 17  1  0  0  0  0
 19 13  1  0  0  0  0
 20 10  1  0  0  0  0
 20  3  2  0  0  0  0
 21 20  1  0  0  0  0
 22 26  1  0  0  0  0
 23 25  1  0  0  0  0
 25 24  1  0  0  0  0
 26 23  1  0  0  0  0
 26 25  1  0  0  0  0
 26 27  1  0  0  0  0
 28 27  1  0  0  0  0
 29 27  1  0  0  0  0
 29 30  1  0  0  0  0
 30 31  1  0  0  0  0
M  END
>  <MODEL>
3

>  <REMARK>
 VINA RESULT:      -6.3      3.103      7.324
  Name = 
  5 active torsions:
  status: ('A' for Active; 'I' for Inactive)
    1  A    between atoms: O_1  and  C_8
    2  A    between atoms: C_8  and  C_19
    3  A    between atoms: C_9  and  C_22
    4  A    between atoms: C_9  and  C_23
    5  A    between atoms: C_19  and  C_22
                            x       y       z     vdW  Elec       q    Type
                         _______ _______ _______ _____ _____    ______ ____

>  <TORSDO>
F 5

$$$$
=
 OpenBabel11052412583D

 31 37  0  0  1  0  0  0  0  0999 V2000
  186.2800  178.6310  138.8500 C   0  0  0  0  0  0  0  0  0  0  0  0
  184.2770  177.8190  141.9860 C   0  0  1  0  0  3  0  0  0  0  0  0
  182.9920  177.7130  141.1910 C   0  0  0  0  0  0  0  0  0  0  0  0
  182.6680  176.8010  138.9170 C   0  0  0  0  0  3  0  0  0  0  0  0
  185.4130  178.4610  141.2040 C   0  0  2  0  0  0  0  0  0  0  0  0
  187.5850  178.0710  139.3020 C   0  0  0  0  0  2  0  0  0  0  0  0
  182.8210  176.4800  140.3650 C   0  0  0  0  0  2  0  0  0  0  0  0
  185.2570  179.6500  143.3570 C   0  0  1  0  0  3  0  0  0  0  0  0
  186.0600  178.8280  137.5930 N   0  0  0  0  0  2  0  0  0  0  0  0
  182.1300  179.7520  142.3030 C   0  0  0  0  0  2  0  0  0  0  0  0
  181.6480  177.5110  138.4430 C   0  0  0  0  0  3  0  0  0  0  0  0
  186.0430  179.5600  142.0240 C   0  0  1  0  0  3  0  0  0  0  0  0
  184.1240  178.6360  143.2740 C   0  0  2  0  0  0  0  0  0  0  0  0
  185.1320  178.5200  144.4030 C   0  0  1  0  0  3  0  0  0  0  0  0
  185.2300  178.8190  139.7980 N   0  0  0  0  0  2  0  0  0  0  0  0
  180.6020  178.1340  139.2750 C   0  0  0  0  0  3  0  0  0  0  0  0
  186.8410  178.2890  141.7190 C   0  0  2  0  0  3  0  0  0  0  0  0
  187.9160  178.6280  140.6820 C   0  0  0  0  0  2  0  0  0  0  0  0
  182.7800  179.2730  143.5970 C   0  0  0  0  0  2  0  0  0  0  0  0
  182.0020  178.6260  141.3160 C   0  0  0  0  0  0  0  0  0  0  0  0
  180.7560  178.6070  140.5190 C   0  0  0  0  0  3  0  0  0  0  0  0
  186.0870  177.3370  144.2730 C   0  0  0  0  0  2  0  0  0  0  0  0
  187.0950  178.6850  146.1370 C   0  0  0  0  0  2  0  0  0  0  0  0
  188.0390  176.9390  147.6260 C   0  0  0  0  0  1  0  0  0  0  0  0
  186.8590  177.3100  146.7430 C   0  0  2  0  0  3  0  0  0  0  0  0
  187.2330  177.4540  145.2700 C   0  0  1  0  0  0  0  0  0  0  0  0
  188.6750  177.2290  144.8040 C   0  0  2  0  0  3  0  0  0  0  0  0
  189.2840  178.4520  144.5150 O   0  0  0  0  0  1  0  0  0  0  0  0
  188.7130  176.3280  143.5810 C   0  0  0  0  0  2  0  0  0  0  0  0
  190.0220  175.9090  143.3410 O   0  0  0  0  0  0  0  0  0  0  0  0
  190.3070  176.3730  142.0580 C   0  0  0  0  0  1  0  0  0  0  0  0
  1  6  1  0  0  0  0
  1 15  1  0  0  0  0
  2  3  1  6  0  0  0
  2 13  1  0  0  0  0
  3 20  2  0  0  0  0
  4  7  1  0  0  0  0
  5 15  1  6  0  0  0
  5 17  1  0  0  0  0
  5  2  1  0  0  0  0
  5 12  1  0  0  0  0
  6 18  1  0  0  0  0
  7  3  1  0  0  0  0
  8 14  1  0  0  0  0
  9  1  2  0  0  0  0
 10 19  1  0  0  0  0
 11  4  2  0  0  0  0
 11 16  1  0  0  0  0
 12  8  1  0  0  0  0
 13  8  1  0  0  0  0
 13 19  1  0  0  0  0
 13 14  1  0  0  0  0
 16 21  2  0  0  0  0
 17 12  1  0  0  0  0
 18 17  1  0  0  0  0
 20 10  1  0  0  0  0
 21 20  1  0  0  0  0
 22 14  1  0  0  0  0
 22 26  1  0  0  0  0
 23 25  1  0  0  0  0
 25 24  1  0  0  0  0
 26 23  1  0  0  0  0
 26 25  1  0  0  0  0
 27 26  1  0  0  0  0
 28 27  1  0  0  0  0
 29 27  1  0  0  0  0
 30 29  1  0  0  0  0
 31 30  1  0  0  0  0
M  END
>  <MODEL>
4

>  <REMARK>
 VINA RESULT:      -6.1      3.558      7.675
  Name = 
  5 active torsions:
  status: ('A' for Active; 'I' for Inactive)
    1  A    between atoms: O_1  and  C_8
    2  A    between atoms: C_8  and  C_19
    3  A    between atoms: C_9  and  C_22
    4  A    between atoms: C_9  and  C_23
    5  A    between atoms: C_19  and  C_22
                            x       y       z     vdW  Elec       q    Type
                         _______ _______ _______ _____ _____    ______ ____

>  <TORSDO>
F 5

$$$$
=
 OpenBabel11052412583D

 31 37  0  0  1  0  0  0  0  0999 V2000
  190.7990  177.3760  140.0010 C   0  0  0  0  0  0  0  0  0  0  0  0
  188.3390  176.4260  137.2540 C   0  0  1  0  0  3  0  0  0  0  0  0
  189.4000  175.6400  136.5140 C   0  0  0  0  0  0  0  0  0  0  0  0
  191.2150  174.2530  137.4580 C   0  0  0  0  0  3  0  0  0  0  0  0
  188.9080  177.3200  138.3460 C   0  0  2  0  0  0  0  0  0  0  0  0
  189.8110  177.5140  141.1080 C   0  0  0  0  0  2  0  0  0  0  0  0
  189.7710  174.3130  137.0940 C   0  0  0  0  0  2  0  0  0  0  0  0
  187.4390  178.7280  136.9540 C   0  0  1  0  0  3  0  0  0  0  0  0
  192.0520  177.2150  140.2670 N   0  0  0  0  0  2  0  0  0  0  0  0
  189.3610  177.3030  134.6790 C   0  0  0  0  0  2  0  0  0  0  0  0
  192.1880  174.3630  136.5550 C   0  0  0  0  0  3  0  0  0  0  0  0
  188.3580  178.7180  138.2020 C   0  0  1  0  0  3  0  0  0  0  0  0
  187.5140  177.3370  136.3370 C   0  0  2  0  0  0  0  0  0  0  0  0
  186.1630  177.8750  136.7720 C   0  0  1  0  0  3  0  0  0  0  0  0
  190.3370  177.2870  138.6540 N   0  0  0  0  0  2  0  0  0  0  0  0
  191.9750  174.6390  135.1230 C   0  0  0  0  0  3  0  0  0  0  0  0
  187.9570  177.8650  139.4100 C   0  0  2  0  0  3  0  0  0  0  0  0
  188.6700  178.4150  140.6490 C   0  0  0  0  0  2  0  0  0  0  0  0
  187.8500  177.4020  134.8540 C   0  0  0  0  0  2  0  0  0  0  0  0
  189.8980  176.0590  135.3280 C   0  0  0  0  0  0  0  0  0  0  0  0
  190.9800  175.3650  134.5950 C   0  0  0  0  0  3  0  0  0  0  0  0
  185.5890  177.2020  138.0150 C   0  0  0  0  0  2  0  0  0  0  0  0
  183.3970  177.9100  137.0170 C   0  0  0  0  0  2  0  0  0  0  0  0
  181.7450  177.0380  138.6510 C   0  0  0  0  0  1  0  0  0  0  0  0
  183.0440  176.7390  137.9220 C   0  0  2  0  0  3  0  0  0  0  0  0
  184.1760  177.6950  138.2940 C   0  0  1  0  0  0  0  0  0  0  0  0
  183.9470  178.8170  139.3120 C   0  0  2  0  0  3  0  0  0  0  0  0
  184.5380  180.0010  138.8650 O   0  0  0  0  0  1  0  0  0  0  0  0
  184.5090  178.4370  140.6710 C   0  0  0  0  0  2  0  0  0  0  0  0
  185.3040  179.4720  141.1630 O   0  0  0  0  0  0  0  0  0  0  0  0
  185.2230  179.3460  142.5490 C   0  0  0  0  0  1  0  0  0  0  0  0
  1  9  2  0  0  0  0
  1  6  1  0  0  0  0
  2  3  1  6  0  0  0
  2  5  1  0  0  0  0
  3  7  1  0  0  0  0
  5 15  1  1  0  0  0
  5 17  1  0  0  0  0
  7  4  1  0  0  0  0
  8 12  1  0  0  0  0
 10 19  1  0  0  0  0
 10 20  1  0  0  0  0
 11  4  2  0  0  0  0
 12  5  1  0  0  0  0
 12 17  1  0  0  0  0
 13 14  1  0  0  0  0
 13  8  1  0  0  0  0
 13  2  1  0  0  0  0
 14  8  1  0  0  0  0
 14 22  1  0  0  0  0
 15  1  1  0  0  0  0
 16 11  1  0  0  0  0
 17 18  1  0  0  0  0
 18  6  1  0  0  0  0
 19 13  1  0  0  0  0
 20  3  2  0  0  0  0
 21 16  2  0  0  0  0
 21 20  1  0  0  0  0
 22 26  1  0  0  0  0
 23 25  1  0  0  0  0
 23 26  1  0  0  0  0
 25 26  1  0  0  0  0
 25 24  1  0  0  0  0
 26 27  1  0  0  0  0
 27 29  1  0  0  0  0
 28 27  1  0  0  0  0
 29 30  1  0  0  0  0
 30 31  1  0  0  0  0
M  END
>  <MODEL>
5

>  <REMARK>
 VINA RESULT:      -6.1      2.975      6.924
  Name = 
  5 active torsions:
  status: ('A' for Active; 'I' for Inactive)
    1  A    between atoms: O_1  and  C_8
    2  A    between atoms: C_8  and  C_19
    3  A    between atoms: C_9  and  C_22
    4  A    between atoms: C_9  and  C_23
    5  A    between atoms: C_19  and  C_22
                            x       y       z     vdW  Elec       q    Type
                         _______ _______ _______ _____ _____    ______ ____

>  <TORSDO>
F 5

$$$$
=
 OpenBabel11052412583D

 31 37  0  0  1  0  0  0  0  0999 V2000
  191.8500  175.7540  136.4220 C   0  0  0  0  0  0  0  0  0  0  0  0
  188.6860  176.2900  138.4740 C   0  0  1  0  0  3  0  0  0  0  0  0
  187.8120  175.8270  137.3280 C   0  0  0  0  0  0  0  0  0  0  0  0
  188.2590  174.0340  135.6870 C   0  0  0  0  0  3  0  0  0  0  0  0
  190.1220  176.5710  138.0560 C   0  0  2  0  0  0  0  0  0  0  0  0
  192.7720  175.4690  137.5580 C   0  0  0  0  0  2  0  0  0  0  0  0
  187.7850  174.3570  137.0630 C   0  0  0  0  0  2  0  0  0  0  0  0
  189.3290  178.5530  139.2890 C   0  0  1  0  0  3  0  0  0  0  0  0
  192.1690  175.3980  135.2230 N   0  0  0  0  0  2  0  0  0  0  0  0
  186.9150  178.1230  137.0790 C   0  0  0  0  0  2  0  0  0  0  0  0
  187.6260  174.4530  134.5940 C   0  0  0  0  0  3  0  0  0  0  0  0
  190.5470  177.9280  138.5600 C   0  0  1  0  0  3  0  0  0  0  0  0
  188.1740  177.5700  139.1450 C   0  0  2  0  0  0  0  0  0  0  0  0
  188.6330  177.9650  140.5370 C   0  0  1  0  0  3  0  0  0  0  0  0
  190.5580  176.2980  136.6870 N   0  0  0  0  0  2  0  0  0  0  0  0
  186.4500  175.3420  134.5940 C   0  0  0  0  0  3  0  0  0  0  0  0
  191.1920  176.6670  139.1430 C   0  0  2  0  0  3  0  0  0  0  0  0
  192.6240  176.5640  138.6090 C   0  0  0  0  0  2  0  0  0  0  0  0
  186.9280  178.2500  138.5980 C   0  0  0  0  0  2  0  0  0  0  0  0
  187.0060  176.6830  136.6580 C   0  0  0  0  0  0  0  0  0  0  0  0
  186.1810  176.2990  135.4920 C   0  0  0  0  0  3  0  0  0  0  0  0
  189.3670  176.8620  141.2940 C   0  0  0  0  0  2  0  0  0  0  0  0
  191.0020  176.5780  143.1790 C   0  0  0  0  0  2  0  0  0  0  0  0
  191.3370  178.9070  143.9670 C   0  0  0  0  0  1  0  0  0  0  0  0
  191.1710  178.0260  142.7400 C   0  0  2  0  0  3  0  0  0  0  0  0
  189.8040  177.3480  142.6690 C   0  0  1  0  0  0  0  0  0  0  0  0
  188.7570  177.5850  143.7620 C   0  0  2  0  0  3  0  0  0  0  0  0
  189.0090  176.7580  144.8590 O   0  0  0  0  0  1  0  0  0  0  0  0
  187.3560  177.3310  143.2320 C   0  0  0  0  0  2  0  0  0  0  0  0
  186.4140  177.6320  144.2160 O   0  0  0  0  0  0  0  0  0  0  0  0
  185.3810  178.2670  143.5280 C   0  0  0  0  0  1  0  0  0  0  0  0
  1 15  1  0  0  0  0
  1  6  1  0  0  0  0
  2  3  1  6  0  0  0
  2 13  1  0  0  0  0
  4  7  1  0  0  0  0
  5 15  1  6  0  0  0
  5  2  1  0  0  0  0
  5 12  1  0  0  0  0
  5 17  1  0  0  0  0
  6 18  1  0  0  0  0
  7  3  1  0  0  0  0
  8 14  1  0  0  0  0
  9  1  2  0  0  0  0
 10 19  1  0  0  0  0
 11 16  1  0  0  0  0
 11  4  2  0  0  0  0
 12 17  1  0  0  0  0
 12  8  1  0  0  0  0
 13  8  1  0  0  0  0
 13 14  1  0  0  0  0
 14 22  1  0  0  0  0
 16 21  2  0  0  0  0
 18 17  1  0  0  0  0
 19 13  1  0  0  0  0
 20 10  1  0  0  0  0
 20  3  2  0  0  0  0
 21 20  1  0  0  0  0
 22 26  1  0  0  0  0
 25 23  1  0  0  0  0
 25 24  1  0  0  0  0
 26 25  1  0  0  0  0
 26 23  1  0  0  0  0
 26 27  1  0  0  0  0
 27 28  1  0  0  0  0
 29 27  1  0  0  0  0
 29 30  1  0  0  0  0
 31 30  1  0  0  0  0
M  END
>  <MODEL>
6

>  <REMARK>
 VINA RESULT:      -5.9      3.206      7.171
  Name = 
  5 active torsions:
  status: ('A' for Active; 'I' for Inactive)
    1  A    between atoms: O_1  and  C_8
    2  A    between atoms: C_8  and  C_19
    3  A    between atoms: C_9  and  C_22
    4  A    between atoms: C_9  and  C_23
    5  A    between atoms: C_19  and  C_22
                            x       y       z     vdW  Elec       q    Type
                         _______ _______ _______ _____ _____    ______ ____

>  <TORSDO>
F 5

$$$$
=
 OpenBabel11052412583D

 31 37  0  0  1  0  0  0  0  0999 V2000
  181.3200  179.1770  142.2150 C   0  0  0  0  0  0  0  0  0  0  0  0
  182.9560  179.2690  138.7770 C   0  0  1  0  0  3  0  0  0  0  0  0
  181.7580  179.9730  138.1770 C   0  0  0  0  0  0  0  0  0  0  0  0
  180.3180  181.6970  139.2080 C   0  0  0  0  0  3  0  0  0  0  0  0
  182.6820  178.6920  140.1580 C   0  0  2  0  0  0  0  0  0  0  0  0
  182.5710  179.1900  143.0260 C   0  0  0  0  0  2  0  0  0  0  0  0
  181.6040  181.4230  138.5050 C   0  0  0  0  0  2  0  0  0  0  0  0
  183.6640  176.8830  138.8030 C   0  0  1  0  0  3  0  0  0  0  0  0
  180.1950  179.5100  142.7540 N   0  0  0  0  0  2  0  0  0  0  0  0
  181.2350  177.9540  136.8400 C   0  0  0  0  0  2  0  0  0  0  0  0
  179.1320  181.4860  138.6440 C   0  0  0  0  0  3  0  0  0  0  0  0
  183.1260  177.2510  140.2090 C   0  0  1  0  0  3  0  0  0  0  0  0
  183.4660  178.1070  137.9170 C   0  0  2  0  0  0  0  0  0  0  0  0
  184.8670  177.5500  138.0990 C   0  0  1  0  0  3  0  0  0  0  0  0
  181.3950  178.9270  140.8120 N   0  0  0  0  0  2  0  0  0  0  0  0
  178.9320  180.8860  137.3120 C   0  0  0  0  0  3  0  0  0  0  0  0
  183.8720  178.3040  141.0350 C   0  0  2  0  0  3  0  0  0  0  0  0
  183.5110  178.1070  142.5100 C   0  0  0  0  0  2  0  0  0  0  0  0
  182.7320  177.7530  136.6320 C   0  0  0  0  0  2  0  0  0  0  0  0
  180.9380  179.3550  137.2950 C   0  0  0  0  0  0  0  0  0  0  0  0
  179.7190  179.9720  136.7290 C   0  0  0  0  0  3  0  0  0  0  0  0
  185.7830  178.4210  138.9540 C   0  0  0  0  0  2  0  0  0  0  0  0
  187.3930  177.1760  137.4840 C   0  0  0  0  0  2  0  0  0  0  0  0
  189.0600  178.9190  136.9000 C   0  0  0  0  0  1  0  0  0  0  0  0
  187.5810  178.6380  137.1050 C   0  0  2  0  0  3  0  0  0  0  0  0
  187.2380  178.2450  138.5410 C   0  0  1  0  0  0  0  0  0  0  0  0
  188.3310  178.1680  139.6110 C   0  0  2  0  0  3  0  0  0  0  0  0
  188.8240  176.8650  139.7030 O   0  0  0  0  0  1  0  0  0  0  0  0
  187.7970  178.6170  140.9620 C   0  0  0  0  0  2  0  0  0  0  0  0
  188.5290  178.0160  141.9860 O   0  0  0  0  0  0  0  0  0  0  0  0
  187.5640  177.4990  142.8480 C   0  0  0  0  0  1  0  0  0  0  0  0
  1  9  2  0  0  0  0
  1  6  1  0  0  0  0
  2  3  1  6  0  0  0
  2  5  1  0  0  0  0
  3  7  1  0  0  0  0
  5 12  1  0  0  0  0
  5 15  1  1  0  0  0
  5 17  1  0  0  0  0
  7  4  1  0  0  0  0
  8 12  1  0  0  0  0
 10 20  1  0  0  0  0
 11  4  2  0  0  0  0
 12 17  1  0  0  0  0
 13 14  1  0  0  0  0
 13  2  1  0  0  0  0
 13  8  1  0  0  0  0
 14  8  1  0  0  0  0
 14 22  1  0  0  0  0
 15  1  1  0  0  0  0
 16 11  1  0  0  0  0
 17 18  1  0  0  0  0
 18  6  1  0  0  0  0
 19 10  1  0  0  0  0
 19 13  1  0  0  0  0
 20  3  2  0  0  0  0
 21 20  1  0  0  0  0
 21 16  2  0  0  0  0
 23 26  1  0  0  0  0
 24 25  1  0  0  0  0
 25 23  1  0  0  0  0
 25 26  1  0  0  0  0
 26 22  1  0  0  0  0
 26 27  1  0  0  0  0
 27 28  1  0  0  0  0
 27 29  1  0  0  0  0
 29 30  1  0  0  0  0
 30 31  1  0  0  0  0
M  END
>  <MODEL>
7

>  <REMARK>
 VINA RESULT:      -5.7      4.124      7.755
  Name = 
  5 active torsions:
  status: ('A' for Active; 'I' for Inactive)
    1  A    between atoms: O_1  and  C_8
    2  A    between atoms: C_8  and  C_19
    3  A    between atoms: C_9  and  C_22
    4  A    between atoms: C_9  and  C_23
    5  A    between atoms: C_19  and  C_22
                            x       y       z     vdW  Elec       q    Type
                         _______ _______ _______ _____ _____    ______ ____

>  <TORSDO>
F 5

$$$$
=
 OpenBabel11052412583D

 31 37  0  0  1  0  0  0  0  0999 V2000
  190.8490  177.5020  140.1200 C   0  0  0  0  0  0  0  0  0  0  0  0
  188.7990  176.3700  137.1170 C   0  0  1  0  0  3  0  0  0  0  0  0
  190.0070  175.7160  136.4830 C   0  0  0  0  0  0  0  0  0  0  0  0
  191.8510  174.5010  137.5930 C   0  0  0  0  0  3  0  0  0  0  0  0
  189.1550  177.2910  138.2750 C   0  0  2  0  0  0  0  0  0  0  0  0
  189.7420  177.5100  141.1190 C   0  0  0  0  0  2  0  0  0  0  0  0
  190.4540  174.4210  137.0810 C   0  0  0  0  0  2  0  0  0  0  0  0
  187.6980  178.5740  136.7550 C   0  0  1  0  0  3  0  0  0  0  0  0
  192.0780  177.4640  140.5150 N   0  0  0  0  0  2  0  0  0  0  0  0
  189.9840  177.4110  134.6760 C   0  0  0  0  0  2  0  0  0  0  0  0
  192.8940  174.7330  136.8000 C   0  0  0  0  0  3  0  0  0  0  0  0
  188.4790  178.6280  138.0930 C   0  0  1  0  0  3  0  0  0  0  0  0
  187.9820  177.2140  136.1310 C   0  0  2  0  0  0  0  0  0  0  0  0
  186.5440  177.5990  136.4290 C   0  0  1  0  0  3  0  0  0  0  0  0
  190.5400  177.3990  138.7310 N   0  0  0  0  0  2  0  0  0  0  0  0
  192.8030  175.0200  135.3570 C   0  0  0  0  0  3  0  0  0  0  0  0
  188.0480  177.7100  139.2410 C   0  0  2  0  0  3  0  0  0  0  0  0
  188.5670  178.3000  140.5550 C   0  0  0  0  0  2  0  0  0  0  0  0
  188.4600  177.3490  134.6920 C   0  0  0  0  0  2  0  0  0  0  0  0
  190.5790  176.2130  135.3610 C   0  0  0  0  0  0  0  0  0  0  0  0
  191.7970  175.6530  134.7380 C   0  0  0  0  0  3  0  0  0  0  0  0
  185.9190  176.8400  137.5950 C   0  0  0  0  0  2  0  0  0  0  0  0
  185.2090  175.2720  135.7670 C   0  0  0  0  0  2  0  0  0  0  0  0
  184.0540  173.4640  137.0150 C   0  0  0  0  0  1  0  0  0  0  0  0
  185.2450  174.4080  137.0190 C   0  0  2  0  0  3  0  0  0  0  0  0
  184.8450  175.8800  137.1020 C   0  0  1  0  0  0  0  0  0  0  0  0
  183.3690  176.2840  137.1740 C   0  0  2  0  0  3  0  0  0  0  0  0
  183.0500  177.1340  136.1140 O   0  0  0  0  0  1  0  0  0  0  0  0
  183.0600  176.9660  138.4970 C   0  0  0  0  0  2  0  0  0  0  0  0
  182.6830  176.0150  139.4450 O   0  0  0  0  0  0  0  0  0  0  0  0
  181.4860  175.4920  138.9590 C   0  0  0  0  0  1  0  0  0  0  0  0
  1  9  2  0  0  0  0
  1  6  1  0  0  0  0
  2  3  1  6  0  0  0
  2  5  1  0  0  0  0
  3  7  1  0  0  0  0
  5 15  1  1  0  0  0
  5 17  1  0  0  0  0
  7  4  1  0  0  0  0
  8 12  1  0  0  0  0
 10 19  1  0  0  0  0
 10 20  1  0  0  0  0
 11  4  2  0  0  0  0
 12  5  1  0  0  0  0
 12 17  1  0  0  0  0
 13 14  1  0  0  0  0
 13  8  1  0  0  0  0
 13  2  1  0  0  0  0
 14  8  1  0  0  0  0
 14 22  1  0  0  0  0
 15  1  1  0  0  0  0
 16 11  1  0  0  0  0
 17 18  1  0  0  0  0
 18  6  1  0  0  0  0
 19 13  1  0  0  0  0
 20  3  2  0  0  0  0
 21 16  2  0  0  0  0
 21 20  1  0  0  0  0
 23 25  1  0  0  0  0
 23 26  1  0  0  0  0
 24 25  1  0  0  0  0
 25 26  1  0  0  0  0
 26 27  1  0  0  0  0
 26 22  1  0  0  0  0
 27 29  1  0  0  0  0
 28 27  1  0  0  0  0
 29 30  1  0  0  0  0
 31 30  1  0  0  0  0
M  END
>  <MODEL>
8

>  <REMARK>
 VINA RESULT:      -5.5      2.913      6.361
  Name = 
  5 active torsions:
  status: ('A' for Active; 'I' for Inactive)
    1  A    between atoms: O_1  and  C_8
    2  A    between atoms: C_8  and  C_19
    3  A    between atoms: C_9  and  C_22
    4  A    between atoms: C_9  and  C_23
    5  A    between atoms: C_19  and  C_22
                            x       y       z     vdW  Elec       q    Type
                         _______ _______ _______ _____ _____    ______ ____

>  <TORSDO>
F 5

$$$$
=
 OpenBabel11052412583D

 31 37  0  0  1  0  0  0  0  0999 V2000
  188.4720  176.3050  136.5530 C   0  0  0  0  0  0  0  0  0  0  0  0
  184.9260  175.0800  137.2090 C   0  0  1  0  0  3  0  0  0  0  0  0
  185.2470  173.7110  136.6480 C   0  0  0  0  0  0  0  0  0  0  0  0
  187.3480  172.4260  136.8540 C   0  0  0  0  0  3  0  0  0  0  0  0
  185.9870  176.1230  136.8900 C   0  0  2  0  0  0  0  0  0  0  0  0
  188.5340  177.3140  137.6480 C   0  0  0  0  0  2  0  0  0  0  0  0
  186.0690  172.8130  137.5150 C   0  0  0  0  0  2  0  0  0  0  0  0
  183.8140  177.0790  136.2270 C   0  0  1  0  0  3  0  0  0  0  0  0
  189.5600  175.8580  136.0200 N   0  0  0  0  0  2  0  0  0  0  0  0
  183.7410  174.1390  134.7280 C   0  0  0  0  0  2  0  0  0  0  0  0
  187.3890  171.7190  135.7270 C   0  0  0  0  0  3  0  0  0  0  0  0
  185.3370  177.3570  136.3150 C   0  0  1  0  0  3  0  0  0  0  0  0
  183.5970  175.6460  136.6950 C   0  0  2  0  0  0  0  0  0  0  0  0
  182.8870  176.7720  137.4240 C   0  0  1  0  0  3  0  0  0  0  0  0
  187.2140  175.7360  136.1930 N   0  0  0  0  0  2  0  0  0  0  0  0
  186.2040  171.3080  134.9520 C   0  0  0  0  0  3  0  0  0  0  0  0
  185.9990  177.4210  137.6950 C   0  0  2  0  0  3  0  0  0  0  0  0
  187.3040  178.2120  137.5700 C   0  0  0  0  0  2  0  0  0  0  0  0
  182.7880  174.8460  135.6840 C   0  0  0  0  0  2  0  0  0  0  0  0
  184.7190  173.2800  135.4790 C   0  0  0  0  0  0  0  0  0  0  0  0
  185.0500  171.9810  134.8540 C   0  0  0  0  0  3  0  0  0  0  0  0
  183.4310  177.0570  138.8210 C   0  0  0  0  0  2  0  0  0  0  0  0
  181.6420  178.7970  138.5390 C   0  0  0  0  0  2  0  0  0  0  0  0
  180.7740  179.0670  140.8480 C   0  0  0  0  0  1  0  0  0  0  0  0
  181.2650  178.0630  139.8180 C   0  0  2  0  0  3  0  0  0  0  0  0
  182.7310  178.2600  139.4400 C   0  0  1  0  0  0  0  0  0  0  0  0
  183.5600  179.3780  140.0800 C   0  0  2  0  0  3  0  0  0  0  0  0
  184.2020  180.1280  139.0930 O   0  0  0  0  0  1  0  0  0  0  0  0
  184.5840  178.8050  141.0460 C   0  0  0  0  0  2  0  0  0  0  0  0
  185.7700  179.5360  140.9700 O   0  0  0  0  0  0  0  0  0  0  0  0
  186.7640  178.6290  141.3330 C   0  0  0  0  0  1  0  0  0  0  0  0
  1  6  1  0  0  0  0
  2  3  1  6  0  0  0
  3  7  1  0  0  0  0
  4  7  1  0  0  0  0
  5 15  1  6  0  0  0
  5  2  1  0  0  0  0
  5 17  1  0  0  0  0
  8 12  1  0  0  0  0
  8 13  1  0  0  0  0
  8 14  1  0  0  0  0
  9  1  2  0  0  0  0
 10 20  1  0  0  0  0
 10 19  1  0  0  0  0
 11  4  2  0  0  0  0
 12  5  1  0  0  0  0
 12 17  1  0  0  0  0
 13  2  1  0  0  0  0
 13 14  1  0  0  0  0
 14 22  1  0  0  0  0
 15  1  1  0  0  0  0
 16 11  1  0  0  0  0
 18  6  1  0  0  0  0
 18 17  1  0  0  0  0
 19 13  1  0  0  0  0
 20  3  2  0  0  0  0
 21 16  2  0  0  0  0
 21 20  1  0  0  0  0
 22 26  1  0  0  0  0
 23 26  1  0  0  0  0
 23 25  1  0  0  0  0
 25 24  1  0  0  0  0
 26 25  1  0  0  0  0
 26 27  1  0  0  0  0
 27 29  1  0  0  0  0
 28 27  1  0  0  0  0
 30 29  1  0  0  0  0
 30 31  1  0  0  0  0
M  END
>  <MODEL>
9

>  <REMARK>
 VINA RESULT:      -5.4      3.849      8.407
  Name = 
  5 active torsions:
  status: ('A' for Active; 'I' for Inactive)
    1  A    between atoms: O_1  and  C_8
    2  A    between atoms: C_8  and  C_19
    3  A    between atoms: C_9  and  C_22
    4  A    between atoms: C_9  and  C_23
    5  A    between atoms: C_19  and  C_22
                            x       y       z     vdW  Elec       q    Type
                         _______ _______ _______ _____ _____    ______ ____

>  <TORSDO>
F 5

$$$$
