=
 OpenBabel11052413483D

 27 31  0  0  1  0  0  0  0  0999 V2000
  188.8120  176.6220  140.8760 O   0  0  0  0  0  0  0  0  0  0  0  0
  189.4180  177.7440  137.6960 C   0  0  0  0  0  3  0  0  0  0  0  0
  190.6090  177.1450  137.5800 C   0  0  0  0  0  3  0  0  0  0  0  0
  189.1290  177.7940  141.6010 C   0  0  2  0  0  0  0  0  0  0  0  0
  189.6100  177.5790  140.2100 C   0  0  1  0  0  0  0  0  0  0  0  0
  187.5150  178.0340  139.0600 F   0  0  0  0  0  0  0  0  0  0  0  0
  191.4550  176.8660  138.7540 C   0  0  0  0  0  3  0  0  0  0  0  0
  191.0080  177.0740  139.9920 C   0  0  0  0  0  3  0  0  0  0  0  0
  188.8850  178.2340  139.0160 C   0  0  2  0  0  3  0  0  0  0  0  0
  191.6790  177.1640  145.0080 C   0  0  0  0  0  3  0  0  0  0  0  0
  190.0420  177.5660  142.7720 C   0  0  0  0  0  0  0  0  0  0  0  0
  190.5600  178.6630  143.4700 C   0  0  0  0  0  3  0  0  0  0  0  0
  191.3800  178.4620  144.5840 C   0  0  0  0  0  3  0  0  0  0  0  0
  191.1550  176.0660  144.3190 C   0  0  0  0  0  3  0  0  0  0  0  0
  190.3350  176.2650  143.2060 C   0  0  0  0  0  3  0  0  0  0  0  0
  187.9800  178.6820  141.7740 N   0  0  0  0  0  2  0  0  0  0  0  0
  185.5790  178.4960  141.3730 C   0  0  0  0  0  3  0  0  0  0  0  0
  186.7630  177.7030  145.8840 C   0  0  0  0  0  3  0  0  0  0  0  0
  185.0790  178.5350  147.4060 O   0  0  0  0  0  1  0  0  0  0  0  0
  186.7990  177.8820  142.0720 C   0  0  2  0  0  3  0  0  0  0  0  0
  184.7790  178.8180  145.0170 C   0  0  0  0  0  0  0  0  0  0  0  0
  183.5630  179.4610  145.2210 O   0  0  0  0  0  1  0  0  0  0  0  0
  185.2720  178.6190  143.7240 C   0  0  0  0  0  0  0  0  0  0  0  0
  185.5370  178.3540  146.1060 C   0  0  0  0  0  0  0  0  0  0  0  0
  186.4710  177.9890  143.5120 C   0  0  0  0  0  0  0  0  0  0  0  0
  184.6260  179.0220  142.4560 C   0  0  0  0  0  3  0  0  0  0  0  0
  187.2380  177.5150  144.5790 C   0  0  0  0  0  3  0  0  0  0  0  0
  1  4  1  0  0  0  0
  2  9  1  0  0  0  0
  3  2  2  0  0  0  0
  3  7  1  0  0  0  0
  4 16  1  1  0  0  0
  4 11  1  0  0  0  0
  5  8  1  6  0  0  0
  5  1  1  0  0  0  0
  5  4  1  0  0  0  0
  7  8  2  0  0  0  0
  9  6  1  1  0  0  0
  9  5  1  0  0  0  0
 11 15  2  0  0  0  0
 11 12  1  0  0  0  0
 12 13  2  0  0  0  0
 13 10  1  0  0  0  0
 14 10  2  0  0  0  0
 15 14  1  0  0  0  0
 17 20  1  0  0  0  0
 17 26  2  0  0  0  0
 18 24  1  0  0  0  0
 20 16  1  1  0  0  0
 20 25  1  0  0  0  0
 21 22  1  0  0  0  0
 21 24  2  0  0  0  0
 23 21  1  0  0  0  0
 24 19  1  0  0  0  0
 25 23  2  0  0  0  0
 25 27  1  0  0  0  0
 26 23  1  0  0  0  0
 27 18  2  0  0  0  0
M  END
>  <MODEL>
1

>  <REMARK>
 VINA RESULT:      -9.4      0.000      0.000
  Name = 
  3 active torsions:
  status: ('A' for Active; 'I' for Inactive)
    1  A    between atoms: N_2  and  C_6
    2  A    between atoms: N_2  and  C_15
    3  A    between atoms: C_9  and  C_15
                            x       y       z     vdW  Elec       q    Type
                         _______ _______ _______ _____ _____    ______ ____

>  <TORSDO>
F 3

$$$$
=
 OpenBabel11052413483D

 27 31  0  0  1  0  0  0  0  0999 V2000
  188.9270  178.5560  144.9470 O   0  0  0  0  0  0  0  0  0  0  0  0
  190.0110  176.7170  147.6270 C   0  0  0  0  0  3  0  0  0  0  0  0
  191.2860  176.6570  147.2260 C   0  0  0  0  0  3  0  0  0  0  0  0
  188.3190  177.5280  144.1890 C   0  0  2  0  0  0  0  0  0  0  0  0
  189.3160  177.2330  145.2520 C   0  0  1  0  0  0  0  0  0  0  0  0
  187.8730  177.6080  147.1750 F   0  0  0  0  0  0  0  0  0  0  0  0
  191.6540  176.7190  145.8000 C   0  0  0  0  0  3  0  0  0  0  0  0
  190.7430  176.9760  144.8620 C   0  0  0  0  0  3  0  0  0  0  0  0
  188.8610  176.7870  146.6570 C   0  0  2  0  0  3  0  0  0  0  0  0
  189.5210  177.5430  140.0580 C   0  0  0  0  0  3  0  0  0  0  0  0
  188.7160  177.5140  142.7410 C   0  0  0  0  0  0  0  0  0  0  0  0
  188.4450  178.6280  141.9370 C   0  0  0  0  0  3  0  0  0  0  0  0
  188.8440  178.6400  140.5970 C   0  0  0  0  0  3  0  0  0  0  0  0
  189.8030  176.4320  140.8610 C   0  0  0  0  0  3  0  0  0  0  0  0
  189.4050  176.4190  142.2000 C   0  0  0  0  0  3  0  0  0  0  0  0
  186.9110  177.3300  144.5300 N   0  0  0  0  0  2  0  0  0  0  0  0
  185.5330  178.8470  145.8570 C   0  0  0  0  0  3  0  0  0  0  0  0
  184.0410  178.4350  141.3860 C   0  0  0  0  0  3  0  0  0  0  0  0
  181.6300  178.5350  141.2400 O   0  0  0  0  0  1  0  0  0  0  0  0
  186.2290  178.6180  144.5080 C   0  0  2  0  0  3  0  0  0  0  0  0
  182.7060  178.6870  143.4070 C   0  0  0  0  0  0  0  0  0  0  0  0
  181.4720  178.8070  144.0380 O   0  0  0  0  0  1  0  0  0  0  0  0
  183.8900  178.6980  144.1500 C   0  0  0  0  0  0  0  0  0  0  0  0
  182.7870  178.5520  142.0110 C   0  0  0  0  0  0  0  0  0  0  0  0
  185.1110  178.5780  143.5380 C   0  0  0  0  0  0  0  0  0  0  0  0
  184.0170  178.8380  145.6170 C   0  0  0  0  0  3  0  0  0  0  0  0
  185.2160  178.4480  142.1510 C   0  0  0  0  0  3  0  0  0  0  0  0
  1  5  1  0  0  0  0
  3  2  2  0  0  0  0
  4 16  1  1  0  0  0
  4  1  1  0  0  0  0
  4  5  1  0  0  0  0
  5  8  1  6  0  0  0
  5  9  1  0  0  0  0
  7  3  1  0  0  0  0
  8  7  2  0  0  0  0
  9  6  1  1  0  0  0
  9  2  1  0  0  0  0
 10 13  2  0  0  0  0
 10 14  1  0  0  0  0
 11  4  1  0  0  0  0
 12 11  2  0  0  0  0
 13 12  1  0  0  0  0
 14 15  2  0  0  0  0
 15 11  1  0  0  0  0
 18 24  2  0  0  0  0
 18 27  1  0  0  0  0
 19 24  1  0  0  0  0
 20 16  1  1  0  0  0
 20 17  1  0  0  0  0
 21 22  1  0  0  0  0
 21 23  2  0  0  0  0
 23 26  1  0  0  0  0
 24 21  1  0  0  0  0
 25 23  1  0  0  0  0
 25 20  1  0  0  0  0
 26 17  2  0  0  0  0
 27 25  2  0  0  0  0
M  END
>  <MODEL>
2

>  <REMARK>
 VINA RESULT:      -8.6      2.556      5.099
  Name = 
  3 active torsions:
  status: ('A' for Active; 'I' for Inactive)
    1  A    between atoms: N_2  and  C_6
    2  A    between atoms: N_2  and  C_15
    3  A    between atoms: C_9  and  C_15
                            x       y       z     vdW  Elec       q    Type
                         _______ _______ _______ _____ _____    ______ ____

>  <TORSDO>
F 3

$$$$
=
 OpenBabel11052413483D

 27 31  0  0  1  0  0  0  0  0999 V2000
  184.8360  179.5880  142.9420 O   0  0  0  0  0  0  0  0  0  0  0  0
  181.8770  178.5960  141.5290 C   0  0  0  0  0  3  0  0  0  0  0  0
  181.1170  178.9650  142.5660 C   0  0  0  0  0  3  0  0  0  0  0  0
  185.3300  178.3300  143.3580 C   0  0  2  0  0  0  0  0  0  0  0  0
  183.8890  178.5460  143.0570 C   0  0  1  0  0  0  0  0  0  0  0  0
  184.0590  178.5770  140.6300 F   0  0  0  0  0  0  0  0  0  0  0  0
  181.6430  178.9970  143.9420 C   0  0  0  0  0  3  0  0  0  0  0  0
  182.9360  178.7920  144.1910 C   0  0  0  0  0  3  0  0  0  0  0  0
  183.2980  178.1250  141.6960 C   0  0  2  0  0  3  0  0  0  0  0  0
  186.8120  178.2670  147.3970 C   0  0  0  0  0  3  0  0  0  0  0  0
  185.8190  178.3000  144.7780 C   0  0  0  0  0  0  0  0  0  0  0  0
  186.6560  177.2590  145.2000 C   0  0  0  0  0  3  0  0  0  0  0  0
  187.1480  177.2420  146.5080 C   0  0  0  0  0  3  0  0  0  0  0  0
  185.9850  179.3130  146.9760 C   0  0  0  0  0  3  0  0  0  0  0  0
  185.4930  179.3320  145.6680 C   0  0  0  0  0  3  0  0  0  0  0  0
  186.1280  177.6650  142.3290 N   0  0  0  0  0  2  0  0  0  0  0  0
  186.9150  178.5900  140.2110 C   0  0  0  0  0  3  0  0  0  0  0  0
  190.4250  177.7220  143.2620 C   0  0  0  0  0  3  0  0  0  0  0  0
  192.4240  176.9710  142.1300 O   0  0  0  0  0  1  0  0  0  0  0  0
  187.0460  178.6320  141.7400 C   0  0  2  0  0  3  0  0  0  0  0  0
  190.4330  177.4700  140.8400 C   0  0  0  0  0  0  0  0  0  0  0  0
  191.0870  177.1430  139.6580 O   0  0  0  0  0  1  0  0  0  0  0  0
  189.0990  177.8890  140.8240 C   0  0  0  0  0  0  0  0  0  0  0  0
  191.0980  177.3860  142.0750 C   0  0  0  0  0  0  0  0  0  0  0  0
  188.4440  178.2110  141.9850 C   0  0  0  0  0  0  0  0  0  0  0  0
  188.2340  178.0510  139.6370 C   0  0  0  0  0  3  0  0  0  0  0  0
  189.0880  178.1400  143.2230 C   0  0  0  0  0  3  0  0  0  0  0  0
  1  5  1  0  0  0  0
  1  4  1  0  0  0  0
  2  9  1  0  0  0  0
  2  3  2  0  0  0  0
  3  7  1  0  0  0  0
  4 16  1  6  0  0  0
  4 11  1  0  0  0  0
  5  4  1  0  0  0  0
  5  8  1  1  0  0  0
  7  8  2  0  0  0  0
  9  6  1  6  0  0  0
  9  5  1  0  0  0  0
 11 12  2  0  0  0  0
 11 15  1  0  0  0  0
 12 13  1  0  0  0  0
 13 10  2  0  0  0  0
 14 10  1  0  0  0  0
 15 14  2  0  0  0  0
 17 20  1  0  0  0  0
 20 25  1  0  0  0  0
 20 16  1  1  0  0  0
 21 24  1  0  0  0  0
 22 21  1  0  0  0  0
 23 21  2  0  0  0  0
 23 25  1  0  0  0  0
 24 19  1  0  0  0  0
 24 18  2  0  0  0  0
 25 27  2  0  0  0  0
 26 17  2  0  0  0  0
 26 23  1  0  0  0  0
 27 18  1  0  0  0  0
M  END
>  <MODEL>
3

>  <REMARK>
 VINA RESULT:      -8.3      1.997      6.348
  Name = 
  3 active torsions:
  status: ('A' for Active; 'I' for Inactive)
    1  A    between atoms: N_2  and  C_6
    2  A    between atoms: N_2  and  C_15
    3  A    between atoms: C_9  and  C_15
                            x       y       z     vdW  Elec       q    Type
                         _______ _______ _______ _____ _____    ______ ____

>  <TORSDO>
F 3

$$$$
=
 OpenBabel11052413483D

 27 31  0  0  1  0  0  0  0  0999 V2000
  187.3090  179.0910  143.9570 O   0  0  0  0  0  0  0  0  0  0  0  0
  184.7080  178.4550  146.0930 C   0  0  0  0  0  3  0  0  0  0  0  0
  185.4590  178.4420  147.2000 C   0  0  0  0  0  3  0  0  0  0  0  0
  187.5080  177.7910  143.4380 C   0  0  2  0  0  0  0  0  0  0  0  0
  186.7810  178.0220  144.7140 C   0  0  1  0  0  0  0  0  0  0  0  0
  184.6900  178.8240  143.7630 F   0  0  0  0  0  0  0  0  0  0  0  0
  186.8830  178.0640  147.1670 C   0  0  0  0  0  3  0  0  0  0  0  0
  187.5150  177.8520  146.0130 C   0  0  0  0  0  3  0  0  0  0  0  0
  185.2390  178.0240  144.7520 C   0  0  2  0  0  3  0  0  0  0  0  0
  191.6080  176.4870  143.3670 C   0  0  0  0  0  3  0  0  0  0  0  0
  188.9400  177.3370  143.4440 C   0  0  0  0  0  0  0  0  0  0  0  0
  189.2440  175.9980  143.1710 C   0  0  0  0  0  3  0  0  0  0  0  0
  190.5760  175.5740  143.1360 C   0  0  0  0  0  3  0  0  0  0  0  0
  191.3090  177.8280  143.6300 C   0  0  0  0  0  3  0  0  0  0  0  0
  189.9790  178.2540  143.6640 C   0  0  0  0  0  3  0  0  0  0  0  0
  186.6960  177.5230  142.2520 N   0  0  0  0  0  2  0  0  0  0  0  0
  185.4030  178.9700  140.7690 C   0  0  0  0  0  3  0  0  0  0  0  0
  189.5350  177.6300  138.8960 C   0  0  0  0  0  3  0  0  0  0  0  0
  189.3640  177.2950  136.5080 O   0  0  0  0  0  1  0  0  0  0  0  0
  186.7920  178.6580  141.3420 C   0  0  2  0  0  3  0  0  0  0  0  0
  187.4020  177.9570  137.7690 C   0  0  0  0  0  0  0  0  0  0  0  0
  186.6300  177.9610  136.6120 O   0  0  0  0  0  1  0  0  0  0  0  0
  186.8350  178.2840  139.0050 C   0  0  0  0  0  0  0  0  0  0  0  0
  188.7670  177.6260  137.7190 C   0  0  0  0  0  0  0  0  0  0  0  0
  187.5870  178.2800  140.1510 C   0  0  0  0  0  0  0  0  0  0  0  0
  185.4310  178.6660  139.2640 C   0  0  0  0  0  3  0  0  0  0  0  0
  188.9460  177.9590  140.1250 C   0  0  0  0  0  3  0  0  0  0  0  0
  1  5  1  0  0  0  0
  2  3  2  0  0  0  0
  4 16  1  6  0  0  0
  4 11  1  0  0  0  0
  4  1  1  0  0  0  0
  4  5  1  0  0  0  0
  5  9  1  0  0  0  0
  5  8  1  1  0  0  0
  7  3  1  0  0  0  0
  8  7  2  0  0  0  0
  9  6  1  6  0  0  0
  9  2  1  0  0  0  0
 10 14  1  0  0  0  0
 11 15  1  0  0  0  0
 12 11  2  0  0  0  0
 13 12  1  0  0  0  0
 13 10  2  0  0  0  0
 14 15  2  0  0  0  0
 17 20  1  0  0  0  0
 18 27  1  0  0  0  0
 19 24  1  0  0  0  0
 20 16  1  1  0  0  0
 21 23  2  0  0  0  0
 22 21  1  0  0  0  0
 23 26  1  0  0  0  0
 23 25  1  0  0  0  0
 24 21  1  0  0  0  0
 24 18  2  0  0  0  0
 25 20  1  0  0  0  0
 26 17  2  0  0  0  0
 27 25  2  0  0  0  0
M  END
>  <MODEL>
4

>  <REMARK>
 VINA RESULT:      -7.9      2.167      6.137
  Name = 
  3 active torsions:
  status: ('A' for Active; 'I' for Inactive)
    1  A    between atoms: N_2  and  C_6
    2  A    between atoms: N_2  and  C_15
    3  A    between atoms: C_9  and  C_15
                            x       y       z     vdW  Elec       q    Type
                         _______ _______ _______ _____ _____    ______ ____

>  <TORSDO>
F 3

$$$$
=
 OpenBabel11052413483D

 27 31  0  0  1  0  0  0  0  0999 V2000
  187.7500  178.8990  145.2310 O   0  0  0  0  0  0  0  0  0  0  0  0
  187.7810  177.9000  148.5080 C   0  0  0  0  0  3  0  0  0  0  0  0
  189.1140  177.8720  148.6150 C   0  0  0  0  0  3  0  0  0  0  0  0
  187.4670  177.6590  144.6120 C   0  0  2  0  0  0  0  0  0  0  0  0
  188.0050  177.7390  145.9970 C   0  0  1  0  0  0  0  0  0  0  0  0
  185.9550  178.4290  147.1100 F   0  0  0  0  0  0  0  0  0  0  0  0
  189.9810  177.6170  147.4500 C   0  0  0  0  0  3  0  0  0  0  0  0
  189.4770  177.5400  146.2190 C   0  0  0  0  0  3  0  0  0  0  0  0
  187.0680  177.6100  147.2140 C   0  0  2  0  0  3  0  0  0  0  0  0
  190.1140  176.7550  141.3430 C   0  0  0  0  0  3  0  0  0  0  0  0
  188.3690  177.3270  143.4580 C   0  0  0  0  0  0  0  0  0  0  0  0
  188.6740  178.3130  142.5110 C   0  0  0  0  0  3  0  0  0  0  0  0
  189.5430  178.0260  141.4540 C   0  0  0  0  0  3  0  0  0  0  0  0
  189.8190  175.7710  142.2910 C   0  0  0  0  0  3  0  0  0  0  0  0
  188.9520  176.0570  143.3490 C   0  0  0  0  0  3  0  0  0  0  0  0
  186.0330  177.4090  144.4730 N   0  0  0  0  0  2  0  0  0  0  0  0
  184.1440  178.8150  145.1170 C   0  0  0  0  0  3  0  0  0  0  0  0
  184.7040  178.5110  140.4290 C   0  0  0  0  0  3  0  0  0  0  0  0
  182.5790  178.5150  139.2760 O   0  0  0  0  0  1  0  0  0  0  0  0
  185.3560  178.6670  144.1870 C   0  0  2  0  0  3  0  0  0  0  0  0
  182.6290  178.6290  141.6980 C   0  0  0  0  0  0  0  0  0  0  0  0
  181.2400  178.6720  141.7480 O   0  0  0  0  0  1  0  0  0  0  0  0
  183.3860  178.6620  142.8730 C   0  0  0  0  0  0  0  0  0  0  0  0
  183.2990  178.5510  140.4650 C   0  0  0  0  0  0  0  0  0  0  0  0
  184.7560  178.6170  142.8340 C   0  0  0  0  0  0  0  0  0  0  0  0
  182.8740  178.7510  144.2560 C   0  0  0  0  0  3  0  0  0  0  0  0
  185.4430  178.5450  141.6200 C   0  0  0  0  0  3  0  0  0  0  0  0
  1  5  1  0  0  0  0
  2  3  2  0  0  0  0
  4 16  1  6  0  0  0
  4  1  1  0  0  0  0
  4  5  1  0  0  0  0
  5  8  1  1  0  0  0
  5  9  1  0  0  0  0
  7  3  1  0  0  0  0
  8  7  2  0  0  0  0
  9  6  1  6  0  0  0
  9  2  1  0  0  0  0
 10 13  2  0  0  0  0
 10 14  1  0  0  0  0
 11  4  1  0  0  0  0
 12 11  2  0  0  0  0
 13 12  1  0  0  0  0
 14 15  2  0  0  0  0
 15 11  1  0  0  0  0
 18 24  2  0  0  0  0
 18 27  1  0  0  0  0
 19 24  1  0  0  0  0
 20 16  1  1  0  0  0
 20 17  1  0  0  0  0
 21 22  1  0  0  0  0
 21 23  2  0  0  0  0
 23 26  1  0  0  0  0
 24 21  1  0  0  0  0
 25 23  1  0  0  0  0
 25 20  1  0  0  0  0
 26 17  2  0  0  0  0
 27 25  2  0  0  0  0
M  END
>  <MODEL>
5

>  <REMARK>
 VINA RESULT:      -7.9      2.865      5.650
  Name = 
  3 active torsions:
  status: ('A' for Active; 'I' for Inactive)
    1  A    between atoms: N_2  and  C_6
    2  A    between atoms: N_2  and  C_15
    3  A    between atoms: C_9  and  C_15
                            x       y       z     vdW  Elec       q    Type
                         _______ _______ _______ _____ _____    ______ ____

>  <TORSDO>
F 3

$$$$
=
 OpenBabel11052413483D

 27 31  0  0  1  0  0  0  0  0999 V2000
  187.5210  176.6810  144.9740 O   0  0  0  0  0  0  0  0  0  0  0  0
  189.6320  177.5430  147.5310 C   0  0  0  0  0  3  0  0  0  0  0  0
  188.6790  177.5840  148.4680 C   0  0  0  0  0  3  0  0  0  0  0  0
  187.3870  177.9410  144.3470 C   0  0  2  0  0  0  0  0  0  0  0  0
  187.8570  177.8110  145.7520 C   0  0  1  0  0  0  0  0  0  0  0  0
  190.1180  177.0490  145.2760 F   0  0  0  0  0  0  0  0  0  0  0  0
  187.2770  177.8990  148.1370 C   0  0  0  0  0  3  0  0  0  0  0  0
  186.8780  178.0200  146.8710 C   0  0  0  0  0  3  0  0  0  0  0  0
  189.3610  177.8780  146.0880 C   0  0  2  0  0  3  0  0  0  0  0  0
  183.2980  178.9790  143.5040 C   0  0  0  0  0  3  0  0  0  0  0  0
  185.9680  178.3330  144.0470 C   0  0  0  0  0  0  0  0  0  0  0  0
  185.3770  177.9270  142.8450 C   0  0  0  0  0  3  0  0  0  0  0  0
  184.0450  178.2530  142.5730 C   0  0  0  0  0  3  0  0  0  0  0  0
  183.8810  179.3780  144.7110 C   0  0  0  0  0  3  0  0  0  0  0  0
  185.2120  179.0520  144.9840 C   0  0  0  0  0  3  0  0  0  0  0  0
  188.4070  178.1790  143.3270 N   0  0  0  0  0  2  0  0  0  0  0  0
  189.7400  176.2470  142.6540 C   0  0  0  0  0  3  0  0  0  0  0  0
  187.9230  178.6060  138.9770 C   0  0  0  0  0  3  0  0  0  0  0  0
  189.4300  178.6070  137.0880 O   0  0  0  0  0  1  0  0  0  0  0  0
  188.4470  177.0400  142.4190 C   0  0  2  0  0  3  0  0  0  0  0  0
  190.0880  177.5030  139.1430 C   0  0  0  0  0  0  0  0  0  0  0  0
  191.3040  177.1300  138.5830 O   0  0  0  0  0  1  0  0  0  0  0  0
  189.7720  177.1510  140.4590 C   0  0  0  0  0  0  0  0  0  0  0  0
  189.1500  178.2390  138.3990 C   0  0  0  0  0  0  0  0  0  0  0  0
  188.5760  177.5160  141.0220 C   0  0  0  0  0  0  0  0  0  0  0  0
  190.6120  176.3770  141.3970 C   0  0  0  0  0  3  0  0  0  0  0  0
  187.6280  178.2440  140.2990 C   0  0  0  0  0  3  0  0  0  0  0  0
  1  5  1  0  0  0  0
  2  3  2  0  0  0  0
  4 16  1  6  0  0  0
  4  1  1  0  0  0  0
  4  5  1  0  0  0  0
  5  9  1  0  0  0  0
  5  8  1  1  0  0  0
  7  3  1  0  0  0  0
  8  7  2  0  0  0  0
  9  6  1  6  0  0  0
  9  2  1  0  0  0  0
 10 14  1  0  0  0  0
 11  4  1  0  0  0  0
 11 15  1  0  0  0  0
 12 11  2  0  0  0  0
 13 12  1  0  0  0  0
 13 10  2  0  0  0  0
 14 15  2  0  0  0  0
 18 27  1  0  0  0  0
 19 24  1  0  0  0  0
 20 17  1  0  0  0  0
 20 16  1  1  0  0  0
 21 23  2  0  0  0  0
 22 21  1  0  0  0  0
 23 25  1  0  0  0  0
 23 26  1  0  0  0  0
 24 18  2  0  0  0  0
 24 21  1  0  0  0  0
 25 20  1  0  0  0  0
 26 17  2  0  0  0  0
 27 25  2  0  0  0  0
M  END
>  <MODEL>
6

>  <REMARK>
 VINA RESULT:      -7.9      2.356      7.178
  Name = 
  3 active torsions:
  status: ('A' for Active; 'I' for Inactive)
    1  A    between atoms: N_2  and  C_6
    2  A    between atoms: N_2  and  C_15
    3  A    between atoms: C_9  and  C_15
                            x       y       z     vdW  Elec       q    Type
                         _______ _______ _______ _____ _____    ______ ____

>  <TORSDO>
F 3

$$$$
=
 OpenBabel11052413483D

 27 31  0  0  1  0  0  0  0  0999 V2000
  187.5930  179.1120  142.2280 O   0  0  0  0  0  0  0  0  0  0  0  0
  184.2930  178.4890  142.9020 C   0  0  0  0  0  3  0  0  0  0  0  0
  184.4050  178.6520  144.2250 C   0  0  0  0  0  3  0  0  0  0  0  0
  188.0490  177.7860  142.0450 C   0  0  2  0  0  0  0  0  0  0  0  0
  186.7840  178.0870  142.7670 C   0  0  1  0  0  0  0  0  0  0  0  0
  185.4120  178.6120  140.8280 F   0  0  0  0  0  0  0  0  0  0  0  0
  185.6700  178.3910  144.9350 C   0  0  0  0  0  3  0  0  0  0  0  0
  186.7910  178.1130  144.2690 C   0  0  0  0  0  3  0  0  0  0  0  0
  185.4220  177.9660  142.0540 C   0  0  2  0  0  3  0  0  0  0  0  0
  191.6810  176.8160  144.1370 C   0  0  0  0  0  3  0  0  0  0  0  0
  189.3030  177.4550  142.8020 C   0  0  0  0  0  0  0  0  0  0  0  0
  189.6700  176.1160  142.9850 C   0  0  0  0  0  3  0  0  0  0  0  0
  190.8550  175.7980  143.6540 C   0  0  0  0  0  3  0  0  0  0  0  0
  191.3240  178.1550  143.9480 C   0  0  0  0  0  3  0  0  0  0  0  0
  190.1400  178.4750  143.2780 C   0  0  0  0  0  3  0  0  0  0  0  0
  187.9280  177.3310  140.6600 N   0  0  0  0  0  2  0  0  0  0  0  0
  187.7310  178.6280  138.6010 C   0  0  0  0  0  3  0  0  0  0  0  0
  191.9310  176.4950  139.0440 C   0  0  0  0  0  3  0  0  0  0  0  0
  192.7850  175.7570  136.9070 O   0  0  0  0  0  1  0  0  0  0  0  0
  188.6320  178.2640  139.7890 C   0  0  2  0  0  3  0  0  0  0  0  0
  190.6300  176.8620  137.0190 C   0  0  0  0  0  0  0  0  0  0  0  0
  190.4730  176.7480  135.6420 O   0  0  0  0  0  1  0  0  0  0  0  0
  189.6440  177.4710  137.8010 C   0  0  0  0  0  0  0  0  0  0  0  0
  191.7840  176.3690  137.6520 C   0  0  0  0  0  0  0  0  0  0  0  0
  189.7880  177.5860  139.1590 C   0  0  0  0  0  0  0  0  0  0  0  0
  188.3710  178.0560  137.3270 C   0  0  0  0  0  3  0  0  0  0  0  0
  190.9290  177.1080  139.8090 C   0  0  0  0  0  3  0  0  0  0  0  0
  1  5  1  0  0  0  0
  2  3  2  0  0  0  0
  3  7  1  0  0  0  0
  4 16  1  6  0  0  0
  4  1  1  0  0  0  0
  4  5  1  0  0  0  0
  4 11  1  0  0  0  0
  5  8  1  1  0  0  0
  8  7  2  0  0  0  0
  9  6  1  6  0  0  0
  9  5  1  0  0  0  0
  9  2  1  0  0  0  0
 11 12  2  0  0  0  0
 11 15  1  0  0  0  0
 12 13  1  0  0  0  0
 13 10  2  0  0  0  0
 14 10  1  0  0  0  0
 15 14  2  0  0  0  0
 17 20  1  0  0  0  0
 18 27  1  0  0  0  0
 19 24  1  0  0  0  0
 20 16  1  1  0  0  0
 21 24  1  0  0  0  0
 21 23  2  0  0  0  0
 22 21  1  0  0  0  0
 23 25  1  0  0  0  0
 24 18  2  0  0  0  0
 25 20  1  0  0  0  0
 25 27  2  0  0  0  0
 26 23  1  0  0  0  0
 26 17  2  0  0  0  0
M  END
>  <MODEL>
7

>  <REMARK>
 VINA RESULT:      -7.7      1.918      6.483
  Name = 
  3 active torsions:
  status: ('A' for Active; 'I' for Inactive)
    1  A    between atoms: N_2  and  C_6
    2  A    between atoms: N_2  and  C_15
    3  A    between atoms: C_9  and  C_15
                            x       y       z     vdW  Elec       q    Type
                         _______ _______ _______ _____ _____    ______ ____

>  <TORSDO>
F 3

$$$$
=
 OpenBabel11052413483D

 27 31  0  0  1  0  0  0  0  0999 V2000
  185.3060  179.7530  139.3590 O   0  0  0  0  0  0  0  0  0  0  0  0
  188.1030  177.8200  138.9410 C   0  0  0  0  0  3  0  0  0  0  0  0
  187.6940  177.2590  137.7970 C   0  0  0  0  0  3  0  0  0  0  0  0
  184.6330  178.9820  140.3360 C   0  0  2  0  0  0  0  0  0  0  0  0
  185.7040  178.4030  139.4810 C   0  0  1  0  0  0  0  0  0  0  0  0
  187.6090  179.4170  140.6060 F   0  0  0  0  0  0  0  0  0  0  0  0
  186.2630  177.0850  137.4860 C   0  0  0  0  0  3  0  0  0  0  0  0
  185.3190  177.6040  138.2700 C   0  0  0  0  0  3  0  0  0  0  0  0
  187.1430  178.2530  140.0170 C   0  0  2  0  0  3  0  0  0  0  0  0
  180.5060  178.2460  139.3690 C   0  0  0  0  0  3  0  0  0  0  0  0
  183.1850  178.7250  140.0280 C   0  0  0  0  0  0  0  0  0  0  0  0
  182.3980  179.7520  139.4930 C   0  0  0  0  0  3  0  0  0  0  0  0
  181.0600  179.5130  139.1680 C   0  0  0  0  0  3  0  0  0  0  0  0
  181.2920  177.2140  139.8930 C   0  0  0  0  0  3  0  0  0  0  0  0
  182.6300  177.4520  140.2180 C   0  0  0  0  0  3  0  0  0  0  0  0
  185.0020  179.3490  141.7020 N   0  0  0  0  0  2  0  0  0  0  0  0
  183.2790  178.8490  143.3580 C   0  0  0  0  0  3  0  0  0  0  0  0
  187.5910  177.4420  144.7020 C   0  0  0  0  0  3  0  0  0  0  0  0
  187.9070  177.6920  147.0850 O   0  0  0  0  0  1  0  0  0  0  0  0
  184.5170  178.3250  142.6180 C   0  0  2  0  0  3  0  0  0  0  0  0
  185.8040  178.3580  146.0790 C   0  0  0  0  0  0  0  0  0  0  0  0
  185.3050  178.7440  147.3180 O   0  0  0  0  0  1  0  0  0  0  0  0
  185.0230  178.4850  144.9260 C   0  0  0  0  0  0  0  0  0  0  0  0
  187.1020  177.8320  145.9610 C   0  0  0  0  0  0  0  0  0  0  0  0
  185.5070  178.1090  143.6990 C   0  0  0  0  0  0  0  0  0  0  0  0
  183.6420  179.0030  144.8420 C   0  0  0  0  0  3  0  0  0  0  0  0
  186.7920  177.5790  143.5580 C   0  0  0  0  0  3  0  0  0  0  0  0
  1  5  1  0  0  0  0
  1  4  1  0  0  0  0
  2  9  1  0  0  0  0
  3  2  2  0  0  0  0
  4 16  1  1  0  0  0
  5  8  1  6  0  0  0
  5  9  1  0  0  0  0
  5  4  1  0  0  0  0
  7  3  1  0  0  0  0
  7  8  2  0  0  0  0
  9  6  1  6  0  0  0
 10 14  1  0  0  0  0
 11 15  1  0  0  0  0
 11  4  1  0  0  0  0
 12 11  2  0  0  0  0
 13 10  2  0  0  0  0
 13 12  1  0  0  0  0
 14 15  2  0  0  0  0
 17 26  2  0  0  0  0
 18 24  1  0  0  0  0
 20 16  1  6  0  0  0
 20 17  1  0  0  0  0
 20 25  1  0  0  0  0
 21 22  1  0  0  0  0
 23 21  1  0  0  0  0
 24 21  2  0  0  0  0
 24 19  1  0  0  0  0
 25 23  2  0  0  0  0
 26 23  1  0  0  0  0
 27 25  1  0  0  0  0
 27 18  2  0  0  0  0
M  END
>  <MODEL>
8

>  <REMARK>
 VINA RESULT:      -7.6      2.668      5.543
  Name = 
  3 active torsions:
  status: ('A' for Active; 'I' for Inactive)
    1  A    between atoms: N_2  and  C_6
    2  A    between atoms: N_2  and  C_15
    3  A    between atoms: C_9  and  C_15
                            x       y       z     vdW  Elec       q    Type
                         _______ _______ _______ _____ _____    ______ ____

>  <TORSDO>
F 3

$$$$
=
 OpenBabel11052413483D

 27 31  0  0  1  0  0  0  0  0999 V2000
  189.1040  178.7340  140.8450 O   0  0  0  0  0  0  0  0  0  0  0  0
  190.5860  176.8600  138.3900 C   0  0  0  0  0  3  0  0  0  0  0  0
  189.7520  177.2490  137.4190 C   0  0  0  0  0  3  0  0  0  0  0  0
  188.3620  177.7210  141.4960 C   0  0  2  0  0  0  0  0  0  0  0  0
  188.8660  177.5530  140.1070 C   0  0  1  0  0  0  0  0  0  0  0  0
  191.2020  177.1440  140.6490 F   0  0  0  0  0  0  0  0  0  0  0  0
  188.3670  177.6650  137.7050 C   0  0  0  0  0  3  0  0  0  0  0  0
  187.9320  177.8010  138.9580 C   0  0  0  0  0  3  0  0  0  0  0  0
  190.1560  176.7540  139.8290 C   0  0  2  0  0  3  0  0  0  0  0  0
  184.2730  178.7920  142.2970 C   0  0  0  0  0  3  0  0  0  0  0  0
  186.9250  178.0780  141.7520 C   0  0  0  0  0  0  0  0  0  0  0  0
  186.2590  177.5230  142.8520 C   0  0  0  0  0  3  0  0  0  0  0  0
  184.9340  177.8780  143.1210 C   0  0  0  0  0  3  0  0  0  0  0  0
  184.9370  179.3560  141.2030 C   0  0  0  0  0  3  0  0  0  0  0  0
  186.2620  179.0030  140.9330 C   0  0  0  0  0  3  0  0  0  0  0  0
  189.1170  177.0590  142.5590 N   0  0  0  0  0  2  0  0  0  0  0  0
  191.1890  177.8630  143.5700 C   0  0  0  0  0  3  0  0  0  0  0  0
  187.5740  177.7410  146.6200 C   0  0  0  0  0  3  0  0  0  0  0  0
  188.3050  177.1370  148.8440 O   0  0  0  0  0  1  0  0  0  0  0  0
  189.6730  178.0710  143.4490 C   0  0  2  0  0  3  0  0  0  0  0  0
  189.9230  177.2560  147.0420 C   0  0  0  0  0  0  0  0  0  0  0  0
  190.9500  176.8990  147.9080 O   0  0  0  0  0  1  0  0  0  0  0  0
  190.1840  177.5030  145.6910 C   0  0  0  0  0  0  0  0  0  0  0  0
  188.6020  177.3760  147.5070 C   0  0  0  0  0  0  0  0  0  0  0  0
  189.1780  177.8530  144.8280 C   0  0  0  0  0  0  0  0  0  0  0  0
  191.4970  177.4390  145.0140 C   0  0  0  0  0  3  0  0  0  0  0  0
  187.8580  177.9830  145.2690 C   0  0  0  0  0  3  0  0  0  0  0  0
  1  4  1  0  0  0  0
  2  9  1  0  0  0  0
  3  7  1  0  0  0  0
  3  2  2  0  0  0  0
  4 11  1  0  0  0  0
  4 16  1  1  0  0  0
  5  8  1  6  0  0  0
  5  1  1  0  0  0  0
  5  4  1  0  0  0  0
  7  8  2  0  0  0  0
  9  5  1  0  0  0  0
  9  6  1  1  0  0  0
 10 13  1  0  0  0  0
 11 12  1  0  0  0  0
 12 13  2  0  0  0  0
 14 10  2  0  0  0  0
 15 14  1  0  0  0  0
 15 11  2  0  0  0  0
 17 26  2  0  0  0  0
 18 24  1  0  0  0  0
 20 16  1  6  0  0  0
 20 17  1  0  0  0  0
 20 25  1  0  0  0  0
 21 24  2  0  0  0  0
 21 22  1  0  0  0  0
 23 21  1  0  0  0  0
 24 19  1  0  0  0  0
 25 27  1  0  0  0  0
 25 23  2  0  0  0  0
 26 23  1  0  0  0  0
 27 18  2  0  0  0  0
M  END
>  <MODEL>
9

>  <REMARK>
 VINA RESULT:      -7.6      2.035      4.545
  Name = 
  3 active torsions:
  status: ('A' for Active; 'I' for Inactive)
    1  A    between atoms: N_2  and  C_6
    2  A    between atoms: N_2  and  C_15
    3  A    between atoms: C_9  and  C_15
                            x       y       z     vdW  Elec       q    Type
                         _______ _______ _______ _____ _____    ______ ____

>  <TORSDO>
F 3

$$$$
