=
 OpenBabel11052413453D

 27 31  0  0  0  0  0  0  0  0999 V2000
  189.3150  179.0700  141.9370 C   0  0  0  0  0  2  0  0  0  0  0  0
  187.2910  178.4190  140.6920 C   0  0  0  0  0  0  0  0  0  0  0  0
  186.7930  178.0180  143.1390 N   0  0  0  0  0  2  0  0  0  0  0  0
  182.9570  178.9760  140.1470 S   0  0  0  0  0  0  0  0  0  0  0  0
  181.4110  178.8010  142.4940 C   0  0  0  0  0  1  0  0  0  0  0  0
  186.7980  178.6500  139.4360 N   0  0  0  0  0  0  0  0  0  0  0  0
  183.9590  178.5400  142.4270 C   0  0  0  0  0  0  0  0  0  0  0  0
  189.3330  176.8510  145.5950 C   0  0  0  0  0  3  0  0  0  0  0  0
  184.0930  178.3290  143.7940 O   0  0  0  0  0  1  0  0  0  0  0  0
  190.5240  177.3150  145.0380 C   0  0  0  0  0  0  0  0  0  0  0  0
  185.0360  178.5580  141.5250 C   0  0  0  0  0  0  0  0  0  0  0  0
  188.7070  178.2990  140.8670 N   0  0  0  0  0  0  0  0  0  0  0  0
  182.7300  178.7620  141.8090 C   0  0  0  0  0  0  0  0  0  0  0  0
  184.6230  178.7890  140.2290 C   0  0  0  0  0  0  0  0  0  0  0  0
  189.2880  178.2750  143.1860 C   0  0  0  0  0  0  0  0  0  0  0  0
  186.3980  178.3630  141.7970 C   0  0  0  0  0  0  0  0  0  0  0  0
  188.1200  177.0940  144.9470 C   0  0  0  0  0  3  0  0  0  0  0  0
  185.4960  178.8280  139.2010 N   0  0  0  0  0  0  0  0  0  0  0  0
  191.7610  177.0690  145.6950 N   0  0  0  0  0  1  0  0  0  0  0  0
  190.5000  178.0310  143.8400 C   0  0  0  0  0  3  0  0  0  0  0  0
  188.0820  177.7930  143.7330 C   0  0  0  0  0  0  0  0  0  0  0  0
  191.1050  175.9250  138.2720 C   0  0  0  0  0  3  0  0  0  0  0  0
  189.5220  177.4830  139.9960 C   0  0  0  0  0  0  0  0  0  0  0  0
  190.9170  177.4290  140.1580 C   0  0  0  0  0  3  0  0  0  0  0  0
  191.7030  176.6530  139.3030 C   0  0  0  0  0  3  0  0  0  0  0  0
  189.7200  175.9750  138.0950 C   0  0  0  0  0  3  0  0  0  0  0  0
  188.9340  176.7510  138.9500 C   0  0  0  0  0  3  0  0  0  0  0  0
  1 15  1  0  0  0  0
  2 12  1  0  0  0  0
  2 16  1  0  0  0  0
  3 21  1  0  0  0  0
  4 14  1  0  0  0  0
  4 13  1  0  0  0  0
  6  2  2  0  0  0  0
  7  9  1  0  0  0  0
 10  8  1  0  0  0  0
 10 19  1  0  0  0  0
 11 16  2  0  0  0  0
 11  7  1  0  0  0  0
 12  1  1  0  0  0  0
 13  7  2  0  0  0  0
 13  5  1  0  0  0  0
 14 11  1  0  0  0  0
 15 21  2  0  0  0  0
 15 20  1  0  0  0  0
 16  3  1  0  0  0  0
 17  8  2  0  0  0  0
 18  6  1  0  0  0  0
 18 14  2  0  0  0  0
 20 10  2  0  0  0  0
 21 17  1  0  0  0  0
 22 25  1  0  0  0  0
 23 24  1  0  0  0  0
 23 12  1  0  0  0  0
 25 24  2  0  0  0  0
 26 22  2  0  0  0  0
 26 27  1  0  0  0  0
 27 23  2  0  0  0  0
M  END
>  <MODEL>
1

>  <REMARK>
 VINA RESULT:      -8.5      0.000      0.000
  Name = 
  1 active torsions:
  status: ('A' for Active; 'I' for Inactive)
    1  A    between atoms: C_9  and  N_15
                            x       y       z     vdW  Elec       q    Type
                         _______ _______ _______ _____ _____    ______ ____

>  <TORSDO>
F 1

$$$$
=
 OpenBabel11052413453D

 27 31  0  0  0  0  0  0  0  0999 V2000
  187.2000  176.4160  143.7300 C   0  0  0  0  0  2  0  0  0  0  0  0
  185.3180  177.9950  143.5520 C   0  0  0  0  0  0  0  0  0  0  0  0
  186.6930  178.2730  141.4490 N   0  0  0  0  0  2  0  0  0  0  0  0
  181.8640  179.3670  141.1910 S   0  0  0  0  0  0  0  0  0  0  0  0
  182.3880  179.8910  138.4740 C   0  0  0  0  0  1  0  0  0  0  0  0
  184.1030  178.1420  144.1660 N   0  0  0  0  0  0  0  0  0  0  0  0
  184.1470  179.0700  140.1470 C   0  0  0  0  0  0  0  0  0  0  0  0
  190.4000  177.9720  141.3550 C   0  0  0  0  0  3  0  0  0  0  0  0
  185.1850  179.0430  139.2230 O   0  0  0  0  0  1  0  0  0  0  0  0
  190.6600  177.1230  142.4300 C   0  0  0  0  0  0  0  0  0  0  0  0
  184.2870  178.7120  141.4980 C   0  0  0  0  0  0  0  0  0  0  0  0
  186.4200  177.4920  144.3160 N   0  0  0  0  0  0  0  0  0  0  0  0
  182.8490  179.4580  139.8190 C   0  0  0  0  0  0  0  0  0  0  0  0
  183.1000  178.8300  142.1910 C   0  0  0  0  0  0  0  0  0  0  0  0
  188.2850  176.9940  142.9050 C   0  0  0  0  0  0  0  0  0  0  0  0
  185.4440  178.2870  142.1670 C   0  0  0  0  0  0  0  0  0  0  0  0
  189.0860  178.3370  141.0570 C   0  0  0  0  0  3  0  0  0  0  0  0
  183.0160  178.5530  143.5090 N   0  0  0  0  0  0  0  0  0  0  0  0
  191.9970  176.7500  142.7370 N   0  0  0  0  0  1  0  0  0  0  0  0
  189.6040  176.6310  143.1990 C   0  0  0  0  0  3  0  0  0  0  0  0
  188.0170  177.8680  141.8320 C   0  0  0  0  0  0  0  0  0  0  0  0
  187.3090  178.9360  148.2200 C   0  0  0  0  0  3  0  0  0  0  0  0
  186.7310  177.9900  145.6360 C   0  0  0  0  0  0  0  0  0  0  0  0
  187.8400  177.5000  146.3460 C   0  0  0  0  0  3  0  0  0  0  0  0
  188.1290  177.9710  147.6290 C   0  0  0  0  0  3  0  0  0  0  0  0
  186.1990  179.4270  147.5280 C   0  0  0  0  0  3  0  0  0  0  0  0
  185.9120  178.9560  146.2440 C   0  0  0  0  0  3  0  0  0  0  0  0
  1 12  1  0  0  0  0
  2  6  1  0  0  0  0
  2 12  1  0  0  0  0
  3 21  1  0  0  0  0
  3 16  1  0  0  0  0
  4 14  1  0  0  0  0
  5 13  1  0  0  0  0
  7 11  1  0  0  0  0
  8 10  1  0  0  0  0
  9  7  1  0  0  0  0
 10 19  1  0  0  0  0
 10 20  2  0  0  0  0
 11 16  1  0  0  0  0
 11 14  2  0  0  0  0
 12 23  1  0  0  0  0
 13  7  2  0  0  0  0
 13  4  1  0  0  0  0
 14 18  1  0  0  0  0
 15 20  1  0  0  0  0
 15  1  1  0  0  0  0
 16  2  2  0  0  0  0
 17  8  2  0  0  0  0
 17 21  1  0  0  0  0
 18  6  2  0  0  0  0
 21 15  2  0  0  0  0
 23 27  2  0  0  0  0
 23 24  1  0  0  0  0
 24 25  2  0  0  0  0
 25 22  1  0  0  0  0
 26 22  2  0  0  0  0
 27 26  1  0  0  0  0
M  END
>  <MODEL>
2

>  <REMARK>
 VINA RESULT:      -8.0      2.341      5.096
  Name = 
  1 active torsions:
  status: ('A' for Active; 'I' for Inactive)
    1  A    between atoms: C_9  and  N_15
                            x       y       z     vdW  Elec       q    Type
                         _______ _______ _______ _____ _____    ______ ____

>  <TORSDO>
F 1

$$$$
=
 OpenBabel11052413453D

 27 31  0  0  0  0  0  0  0  0999 V2000
  189.8090  178.6280  144.2640 C   0  0  0  0  0  2  0  0  0  0  0  0
  190.4910  177.4070  142.2360 C   0  0  0  0  0  0  0  0  0  0  0  0
  187.9950  177.7670  142.0560 N   0  0  0  0  0  2  0  0  0  0  0  0
  190.5550  177.3120  137.8340 S   0  0  0  0  0  0  0  0  0  0  0  0
  188.0710  177.7440  136.5790 C   0  0  0  0  0  1  0  0  0  0  0  0
  191.6740  177.1690  141.5880 N   0  0  0  0  0  0  0  0  0  0  0  0
  188.4200  177.7380  139.1180 C   0  0  0  0  0  0  0  0  0  0  0  0
  185.6900  177.7200  144.9760 C   0  0  0  0  0  3  0  0  0  0  0  0
  187.0870  177.9930  139.4210 O   0  0  0  0  0  1  0  0  0  0  0  0
  186.5270  178.0990  146.0250 C   0  0  0  0  0  0  0  0  0  0  0  0
  189.4280  177.5750  140.0830 C   0  0  0  0  0  0  0  0  0  0  0  0
  190.4930  177.4950  143.6650 N   0  0  0  0  0  0  0  0  0  0  0  0
  188.8930  177.6210  137.8120 C   0  0  0  0  0  0  0  0  0  0  0  0
  190.6590  177.3320  139.5090 C   0  0  0  0  0  0  0  0  0  0  0  0
  188.3870  178.2790  144.4800 C   0  0  0  0  0  0  0  0  0  0  0  0
  189.3070  177.6180  141.4790 C   0  0  0  0  0  0  0  0  0  0  0  0
  186.2000  177.6150  143.6800 C   0  0  0  0  0  3  0  0  0  0  0  0
  191.7640  177.1280  140.2570 N   0  0  0  0  0  0  0  0  0  0  0  0
  186.0100  178.2060  147.3450 N   0  0  0  0  0  1  0  0  0  0  0  0
  187.8700  178.3840  145.7760 C   0  0  0  0  0  3  0  0  0  0  0  0
  187.5510  177.8780  143.4180 C   0  0  0  0  0  0  0  0  0  0  0  0
  192.4800  174.6420  146.1220 C   0  0  0  0  0  3  0  0  0  0  0  0
  191.1800  176.5300  144.4930 C   0  0  0  0  0  0  0  0  0  0  0  0
  191.6060  175.3010  143.9630 C   0  0  0  0  0  3  0  0  0  0  0  0
  192.2550  174.3630  144.7710 C   0  0  0  0  0  3  0  0  0  0  0  0
  192.0550  175.8580  146.6630 C   0  0  0  0  0  3  0  0  0  0  0  0
  191.4080  176.7950  145.8550 C   0  0  0  0  0  3  0  0  0  0  0  0
  1 15  1  0  0  0  0
  2 12  1  0  0  0  0
  3 21  1  0  0  0  0
  4 14  1  0  0  0  0
  5 13  1  0  0  0  0
  6  2  1  0  0  0  0
  7  9  1  0  0  0  0
  7 11  1  0  0  0  0
  8 10  1  0  0  0  0
 10 19  1  0  0  0  0
 11 16  1  0  0  0  0
 12  1  1  0  0  0  0
 12 23  1  0  0  0  0
 13  4  1  0  0  0  0
 13  7  2  0  0  0  0
 14 11  2  0  0  0  0
 14 18  1  0  0  0  0
 15 20  1  0  0  0  0
 16  3  1  0  0  0  0
 16  2  2  0  0  0  0
 17  8  2  0  0  0  0
 18  6  2  0  0  0  0
 20 10  2  0  0  0  0
 21 17  1  0  0  0  0
 21 15  2  0  0  0  0
 22 26  1  0  0  0  0
 23 27  1  0  0  0  0
 24 23  2  0  0  0  0
 24 25  1  0  0  0  0
 25 22  2  0  0  0  0
 27 26  2  0  0  0  0
M  END
>  <MODEL>
3

>  <REMARK>
 VINA RESULT:      -8.0      2.941      5.459
  Name = 
  1 active torsions:
  status: ('A' for Active; 'I' for Inactive)
    1  A    between atoms: C_9  and  N_15
                            x       y       z     vdW  Elec       q    Type
                         _______ _______ _______ _____ _____    ______ ____

>  <TORSDO>
F 1

$$$$
=
 OpenBabel11052413453D

 27 31  0  0  0  0  0  0  0  0999 V2000
  188.5810  179.0630  141.0020 C   0  0  0  0  0  2  0  0  0  0  0  0
  186.3800  178.5100  140.0410 C   0  0  0  0  0  0  0  0  0  0  0  0
  186.2350  178.0040  142.5140 N   0  0  0  0  0  2  0  0  0  0  0  0
  182.0300  179.1760  140.1630 S   0  0  0  0  0  0  0  0  0  0  0  0
  180.8390  178.9190  142.7020 C   0  0  0  0  0  1  0  0  0  0  0  0
  185.7160  178.8100  138.8810 N   0  0  0  0  0  0  0  0  0  0  0  0
  183.3420  178.6130  142.2490 C   0  0  0  0  0  0  0  0  0  0  0  0
  189.0750  176.6740  144.5160 C   0  0  0  0  0  3  0  0  0  0  0  0
  183.6680  178.3350  143.5720 O   0  0  0  0  0  1  0  0  0  0  0  0
  190.1840  177.1410  143.8110 C   0  0  0  0  0  0  0  0  0  0  0  0
  184.2760  178.6530  141.2010 C   0  0  0  0  0  0  0  0  0  0  0  0
  187.8030  178.3550  139.9990 N   0  0  0  0  0  0  0  0  0  0  0  0
  182.0410  178.8870  141.8290 C   0  0  0  0  0  0  0  0  0  0  0  0
  183.6840  178.9530  139.9910 C   0  0  0  0  0  0  0  0  0  0  0  0
  188.7160  178.2110  142.2050 C   0  0  0  0  0  0  0  0  0  0  0  0
  185.6570  178.4190  141.2610 C   0  0  0  0  0  0  0  0  0  0  0  0
  187.7870  176.9700  144.0640 C   0  0  0  0  0  3  0  0  0  0  0  0
  184.3990  179.0240  138.8480 N   0  0  0  0  0  0  0  0  0  0  0  0
  191.4970  176.8400  144.2680 N   0  0  0  0  0  1  0  0  0  0  0  0
  190.0040  177.9120  142.6620 C   0  0  0  0  0  3  0  0  0  0  0  0
  187.5910  177.7260  142.9010 C   0  0  0  0  0  0  0  0  0  0  0  0
  189.7570  176.0070  137.0340 C   0  0  0  0  0  3  0  0  0  0  0  0
  188.4610  177.5660  138.9830 C   0  0  0  0  0  0  0  0  0  0  0  0
  187.7490  176.6040  138.2460 C   0  0  0  0  0  3  0  0  0  0  0  0
  188.3920  175.8310  137.2750 C   0  0  0  0  0  3  0  0  0  0  0  0
  190.4780  176.9540  137.7640 C   0  0  0  0  0  3  0  0  0  0  0  0
  189.8350  177.7280  138.7340 C   0  0  0  0  0  3  0  0  0  0  0  0
  1 15  1  0  0  0  0
  2 16  1  0  0  0  0
  3 21  1  0  0  0  0
  4 13  1  0  0  0  0
  6  2  2  0  0  0  0
  7  9  1  0  0  0  0
 10 19  1  0  0  0  0
 10  8  2  0  0  0  0
 11 16  2  0  0  0  0
 11  7  1  0  0  0  0
 12  2  1  0  0  0  0
 12  1  1  0  0  0  0
 13  7  2  0  0  0  0
 13  5  1  0  0  0  0
 14  4  1  0  0  0  0
 14 11  1  0  0  0  0
 15 20  2  0  0  0  0
 15 21  1  0  0  0  0
 16  3  1  0  0  0  0
 17  8  1  0  0  0  0
 18  6  1  0  0  0  0
 18 14  2  0  0  0  0
 20 10  1  0  0  0  0
 21 17  2  0  0  0  0
 22 25  2  0  0  0  0
 22 26  1  0  0  0  0
 23 12  1  0  0  0  0
 24 23  2  0  0  0  0
 25 24  1  0  0  0  0
 26 27  2  0  0  0  0
 27 23  1  0  0  0  0
M  END
>  <MODEL>
4

>  <REMARK>
 VINA RESULT:      -7.9      1.095      1.512
  Name = 
  1 active torsions:
  status: ('A' for Active; 'I' for Inactive)
    1  A    between atoms: C_9  and  N_15
                            x       y       z     vdW  Elec       q    Type
                         _______ _______ _______ _____ _____    ______ ____

>  <TORSDO>
F 1

$$$$
=
 OpenBabel11052413453D

 27 31  0  0  0  0  0  0  0  0999 V2000
  182.1550  177.7250  140.0920 C   0  0  0  0  0  2  0  0  0  0  0  0
  184.3320  178.6790  139.4420 C   0  0  0  0  0  0  0  0  0  0  0  0
  184.3380  178.5220  141.9660 N   0  0  0  0  0  2  0  0  0  0  0  0
  188.7180  178.3390  139.6480 S   0  0  0  0  0  0  0  0  0  0  0  0
  189.7840  178.0050  142.2340 C   0  0  0  0  0  1  0  0  0  0  0  0
  185.0650  178.7480  138.2870 N   0  0  0  0  0  0  0  0  0  0  0  0
  187.2820  178.2280  141.7260 C   0  0  0  0  0  0  0  0  0  0  0  0
  181.3160  179.0540  144.0710 C   0  0  0  0  0  3  0  0  0  0  0  0
  186.8820  178.1210  143.0530 O   0  0  0  0  0  1  0  0  0  0  0  0
  180.2810  178.7070  143.2030 C   0  0  0  0  0  0  0  0  0  0  0  0
  186.3960  178.3960  140.6490 C   0  0  0  0  0  0  0  0  0  0  0  0
  182.9040  178.7300  139.3570 N   0  0  0  0  0  0  0  0  0  0  0  0
  188.6170  178.1750  141.3280 C   0  0  0  0  0  0  0  0  0  0  0  0
  187.0570  178.4720  139.4420 C   0  0  0  0  0  0  0  0  0  0  0  0
  181.8990  178.2160  141.4650 C   0  0  0  0  0  0  0  0  0  0  0  0
  184.9980  178.4990  140.6850 C   0  0  0  0  0  0  0  0  0  0  0  0
  182.6420  178.9880  143.6360 C   0  0  0  0  0  3  0  0  0  0  0  0
  186.3960  178.6520  138.2790 N   0  0  0  0  0  0  0  0  0  0  0  0
  178.9310  178.7750  143.6420 N   0  0  0  0  0  1  0  0  0  0  0  0
  180.5730  178.2830  141.9060 C   0  0  0  0  0  3  0  0  0  0  0  0
  182.9490  178.5830  142.3300 C   0  0  0  0  0  0  0  0  0  0  0  0
  180.8460  181.5960  136.9760 C   0  0  0  0  0  3  0  0  0  0  0  0
  182.2170  179.7070  138.5430 C   0  0  0  0  0  0  0  0  0  0  0  0
  182.2100  181.0660  138.9030 C   0  0  0  0  0  3  0  0  0  0  0  0
  181.5310  182.0050  138.1230 C   0  0  0  0  0  3  0  0  0  0  0  0
  180.8380  180.2480  136.6110 C   0  0  0  0  0  3  0  0  0  0  0  0
  181.5190  179.3090  137.3910 C   0  0  0  0  0  3  0  0  0  0  0  0
  1 15  1  0  0  0  0
  2 16  1  0  0  0  0
  3 21  1  0  0  0  0
  4 13  1  0  0  0  0
  6  2  2  0  0  0  0
  7  9  1  0  0  0  0
 10 19  1  0  0  0  0
 10  8  2  0  0  0  0
 11 16  2  0  0  0  0
 11  7  1  0  0  0  0
 12  2  1  0  0  0  0
 12  1  1  0  0  0  0
 13  7  2  0  0  0  0
 13  5  1  0  0  0  0
 14  4  1  0  0  0  0
 14 11  1  0  0  0  0
 15 20  2  0  0  0  0
 15 21  1  0  0  0  0
 16  3  1  0  0  0  0
 17  8  1  0  0  0  0
 18  6  1  0  0  0  0
 18 14  2  0  0  0  0
 20 10  1  0  0  0  0
 21 17  2  0  0  0  0
 22 25  1  0  0  0  0
 23 24  1  0  0  0  0
 23 12  1  0  0  0  0
 25 24  2  0  0  0  0
 26 22  2  0  0  0  0
 26 27  1  0  0  0  0
 27 23  2  0  0  0  0
M  END
>  <MODEL>
5

>  <REMARK>
 VINA RESULT:      -7.8      3.163      7.337
  Name = 
  1 active torsions:
  status: ('A' for Active; 'I' for Inactive)
    1  A    between atoms: C_9  and  N_15
                            x       y       z     vdW  Elec       q    Type
                         _______ _______ _______ _____ _____    ______ ____

>  <TORSDO>
F 1

$$$$
=
 OpenBabel11052413453D

 27 31  0  0  0  0  0  0  0  0999 V2000
  187.1570  179.4110  140.8230 C   0  0  0  0  0  2  0  0  0  0  0  0
  185.8890  178.6230  142.7830 C   0  0  0  0  0  0  0  0  0  0  0  0
  188.2100  177.6410  142.9840 N   0  0  0  0  0  2  0  0  0  0  0  0
  185.6620  178.3760  147.1740 S   0  0  0  0  0  0  0  0  0  0  0  0
  187.9810  177.4140  148.4510 C   0  0  0  0  0  1  0  0  0  0  0  0
  184.7340  178.9980  143.4170 N   0  0  0  0  0  0  0  0  0  0  0  0
  187.7490  177.7030  145.9160 C   0  0  0  0  0  0  0  0  0  0  0  0
  190.2450  176.5480  140.0670 C   0  0  0  0  0  3  0  0  0  0  0  0
  189.0320  177.2500  145.6280 O   0  0  0  0  0  1  0  0  0  0  0  0
  189.7510  177.3510  139.0390 C   0  0  0  0  0  0  0  0  0  0  0  0
  186.8270  178.1240  144.9430 C   0  0  0  0  0  0  0  0  0  0  0  0
  185.9720  178.7640  141.3610 N   0  0  0  0  0  0  0  0  0  0  0  0
  187.2470  177.7870  147.2130 C   0  0  0  0  0  0  0  0  0  0  0  0
  185.6310  178.5230  145.5020 C   0  0  0  0  0  0  0  0  0  0  0  0
  188.2040  178.3910  140.5900 C   0  0  0  0  0  0  0  0  0  0  0  0
  186.9920  178.1620  143.5510 C   0  0  0  0  0  0  0  0  0  0  0  0
  189.7170  176.6620  141.3550 C   0  0  0  0  0  3  0  0  0  0  0  0
  184.5990  178.9490  144.7440 N   0  0  0  0  0  0  0  0  0  0  0  0
  190.2860  177.2360  137.7260 N   0  0  0  0  0  1  0  0  0  0  0  0
  188.7380  178.2740  139.3020 C   0  0  0  0  0  3  0  0  0  0  0  0
  188.6850  177.5700  141.6300 C   0  0  0  0  0  0  0  0  0  0  0  0
  182.8700  177.4470  138.7600 C   0  0  0  0  0  3  0  0  0  0  0  0
  184.9110  178.3280  140.4820 C   0  0  0  0  0  0  0  0  0  0  0  0
  183.7970  177.6370  140.9870 C   0  0  0  0  0  3  0  0  0  0  0  0
  182.7810  177.2010  140.1320 C   0  0  0  0  0  3  0  0  0  0  0  0
  183.9760  178.1280  138.2430 C   0  0  0  0  0  3  0  0  0  0  0  0
  184.9900  178.5640  139.0990 C   0  0  0  0  0  3  0  0  0  0  0  0
  1 12  1  0  0  0  0
  2  6  2  0  0  0  0
  2 16  1  0  0  0  0
  3 16  1  0  0  0  0
  4 13  1  0  0  0  0
  6 18  1  0  0  0  0
  7 13  2  0  0  0  0
  8 17  1  0  0  0  0
  9  7  1  0  0  0  0
 10 20  1  0  0  0  0
 10  8  2  0  0  0  0
 11 14  1  0  0  0  0
 11  7  1  0  0  0  0
 12  2  1  0  0  0  0
 13  5  1  0  0  0  0
 14  4  1  0  0  0  0
 15  1  1  0  0  0  0
 15 21  1  0  0  0  0
 16 11  2  0  0  0  0
 17 21  2  0  0  0  0
 18 14  2  0  0  0  0
 19 10  1  0  0  0  0
 20 15  2  0  0  0  0
 21  3  1  0  0  0  0
 22 25  1  0  0  0  0
 23 24  1  0  0  0  0
 23 12  1  0  0  0  0
 25 24  2  0  0  0  0
 26 22  2  0  0  0  0
 26 27  1  0  0  0  0
 27 23  2  0  0  0  0
M  END
>  <MODEL>
6

>  <REMARK>
 VINA RESULT:      -7.7      2.612      5.555
  Name = 
  1 active torsions:
  status: ('A' for Active; 'I' for Inactive)
    1  A    between atoms: C_9  and  N_15
                            x       y       z     vdW  Elec       q    Type
                         _______ _______ _______ _____ _____    ______ ____

>  <TORSDO>
F 1

$$$$
=
 OpenBabel11052413453D

 27 31  0  0  0  0  0  0  0  0999 V2000
  188.3170  179.3360  141.2790 C   0  0  0  0  0  2  0  0  0  0  0  0
  187.9240  178.2130  143.4360 C   0  0  0  0  0  0  0  0  0  0  0  0
  189.9100  177.0620  142.3760 N   0  0  0  0  0  2  0  0  0  0  0  0
  189.6000  177.0020  147.3240 S   0  0  0  0  0  0  0  0  0  0  0  0
  192.0560  175.6290  147.2070 C   0  0  0  0  0  1  0  0  0  0  0  0
  187.2370  178.5100  144.5840 N   0  0  0  0  0  0  0  0  0  0  0  0
  190.7910  176.4930  145.1530 C   0  0  0  0  0  0  0  0  0  0  0  0
  190.2640  176.5220  138.7120 C   0  0  0  0  0  3  0  0  0  0  0  0
  191.7280  176.0350  144.2350 O   0  0  0  0  0  1  0  0  0  0  0  0
  189.5060  177.5650  138.1800 C   0  0  0  0  0  0  0  0  0  0  0  0
  189.6170  177.1810  144.8010 C   0  0  0  0  0  0  0  0  0  0  0  0
  187.3990  178.6640  142.1830 N   0  0  0  0  0  0  0  0  0  0  0  0
  190.9260  176.3170  146.5290 C   0  0  0  0  0  0  0  0  0  0  0  0
  188.8660  177.5210  145.9070 C   0  0  0  0  0  0  0  0  0  0  0  0
  188.9800  178.3290  140.4200 C   0  0  0  0  0  0  0  0  0  0  0  0
  189.1620  177.5200  143.5190 C   0  0  0  0  0  0  0  0  0  0  0  0
  190.3770  176.3780  140.0960 C   0  0  0  0  0  3  0  0  0  0  0  0
  187.6890  178.1730  145.7930 N   0  0  0  0  0  0  0  0  0  0  0  0
  189.3890  177.7140  136.7710 N   0  0  0  0  0  1  0  0  0  0  0  0
  188.8720  178.4690  139.0320 C   0  0  0  0  0  3  0  0  0  0  0  0
  189.7290  177.2660  140.9650 C   0  0  0  0  0  0  0  0  0  0  0  0
  183.2900  178.2350  141.1590 C   0  0  0  0  0  3  0  0  0  0  0  0
  186.0070  178.5050  141.8310 C   0  0  0  0  0  0  0  0  0  0  0  0
  185.5840  178.6280  140.4960 C   0  0  0  0  0  3  0  0  0  0  0  0
  184.2340  178.4910  140.1610 C   0  0  0  0  0  3  0  0  0  0  0  0
  183.6960  178.1170  142.4900 C   0  0  0  0  0  3  0  0  0  0  0  0
  185.0450  178.2530  142.8240 C   0  0  0  0  0  3  0  0  0  0  0  0
  1 12  1  0  0  0  0
  2 16  2  0  0  0  0
  2  6  1  0  0  0  0
  3 16  1  0  0  0  0
  6 18  2  0  0  0  0
  7 13  2  0  0  0  0
  8 17  1  0  0  0  0
  9  7  1  0  0  0  0
 10  8  2  0  0  0  0
 10 20  1  0  0  0  0
 11  7  1  0  0  0  0
 11 14  2  0  0  0  0
 12  2  1  0  0  0  0
 13  5  1  0  0  0  0
 13  4  1  0  0  0  0
 14  4  1  0  0  0  0
 15 21  1  0  0  0  0
 15  1  1  0  0  0  0
 16 11  1  0  0  0  0
 17 21  2  0  0  0  0
 18 14  1  0  0  0  0
 19 10  1  0  0  0  0
 20 15  2  0  0  0  0
 21  3  1  0  0  0  0
 22 26  1  0  0  0  0
 23 12  1  0  0  0  0
 23 27  1  0  0  0  0
 24 23  2  0  0  0  0
 25 24  1  0  0  0  0
 25 22  2  0  0  0  0
 26 27  2  0  0  0  0
M  END
>  <MODEL>
7

>  <REMARK>
 VINA RESULT:      -7.5      2.922      6.635
  Name = 
  1 active torsions:
  status: ('A' for Active; 'I' for Inactive)
    1  A    between atoms: C_9  and  N_15
                            x       y       z     vdW  Elec       q    Type
                         _______ _______ _______ _____ _____    ______ ____

>  <TORSDO>
F 1

$$$$
=
 OpenBabel11052413453D

 27 31  0  0  0  0  0  0  0  0999 V2000
  184.2340  179.4350  141.0160 C   0  0  0  0  0  2  0  0  0  0  0  0
  186.4060  178.5250  140.2920 C   0  0  0  0  0  0  0  0  0  0  0  0
  184.6660  177.5660  138.7280 N   0  0  0  0  0  2  0  0  0  0  0  0
  189.2900  178.0390  137.0010 S   0  0  0  0  0  0  0  0  0  0  0  0
  188.2200  177.0420  134.5940 C   0  0  0  0  0  1  0  0  0  0  0  0
  187.7210  178.8490  140.5000 N   0  0  0  0  0  0  0  0  0  0  0  0
  186.8450  177.4630  136.7150 C   0  0  0  0  0  0  0  0  0  0  0  0
  181.2170  176.6610  139.7890 C   0  0  0  0  0  3  0  0  0  0  0  0
  185.6410  177.0440  136.1600 O   0  0  0  0  0  1  0  0  0  0  0  0
  181.0040  177.5110  140.8740 C   0  0  0  0  0  0  0  0  0  0  0  0
  186.9850  177.9230  138.0350 C   0  0  0  0  0  0  0  0  0  0  0  0
  185.4670  178.7440  141.3510 N   0  0  0  0  0  0  0  0  0  0  0  0
  188.0450  177.4700  136.0070 C   0  0  0  0  0  0  0  0  0  0  0  0
  188.2860  178.2750  138.3250 C   0  0  0  0  0  0  0  0  0  0  0  0
  183.2230  178.4440  140.5830 C   0  0  0  0  0  0  0  0  0  0  0  0
  185.9960  178.0390  139.0220 C   0  0  0  0  0  0  0  0  0  0  0  0
  182.4330  176.6980  139.1030 C   0  0  0  0  0  3  0  0  0  0  0  0
  188.6450  178.7260  139.5450 N   0  0  0  0  0  0  0  0  0  0  0  0
  179.7670  177.4750  141.5740 N   0  0  0  0  0  1  0  0  0  0  0  0
  182.0020  178.4040  141.2650 C   0  0  0  0  0  3  0  0  0  0  0  0
  183.4520  177.5750  139.4970 C   0  0  0  0  0  0  0  0  0  0  0  0
  186.2880  177.5830  145.3630 C   0  0  0  0  0  3  0  0  0  0  0  0
  185.7350  178.3410  142.7120 C   0  0  0  0  0  0  0  0  0  0  0  0
  184.9350  178.8030  143.7710 C   0  0  0  0  0  3  0  0  0  0  0  0
  185.2080  178.4250  145.0880 C   0  0  0  0  0  3  0  0  0  0  0  0
  187.0960  177.1210  144.3210 C   0  0  0  0  0  3  0  0  0  0  0  0
  186.8220  177.4990  143.0040 C   0  0  0  0  0  3  0  0  0  0  0  0
  1 12  1  0  0  0  0
  2  6  1  0  0  0  0
  2 12  1  0  0  0  0
  3 16  1  0  0  0  0
  3 21  1  0  0  0  0
  4 14  1  0  0  0  0
  5 13  1  0  0  0  0
  7 11  1  0  0  0  0
  8 10  1  0  0  0  0
  9  7  1  0  0  0  0
 10 20  2  0  0  0  0
 10 19  1  0  0  0  0
 11 14  2  0  0  0  0
 11 16  1  0  0  0  0
 12 23  1  0  0  0  0
 13  7  2  0  0  0  0
 13  4  1  0  0  0  0
 14 18  1  0  0  0  0
 15  1  1  0  0  0  0
 15 20  1  0  0  0  0
 16  2  2  0  0  0  0
 17 21  1  0  0  0  0
 17  8  2  0  0  0  0
 18  6  2  0  0  0  0
 21 15  2  0  0  0  0
 23 27  2  0  0  0  0
 23 24  1  0  0  0  0
 24 25  2  0  0  0  0
 25 22  1  0  0  0  0
 26 22  2  0  0  0  0
 27 26  1  0  0  0  0
M  END
>  <MODEL>
8

>  <REMARK>
 VINA RESULT:      -7.5      3.269      7.048
  Name = 
  1 active torsions:
  status: ('A' for Active; 'I' for Inactive)
    1  A    between atoms: C_9  and  N_15
                            x       y       z     vdW  Elec       q    Type
                         _______ _______ _______ _____ _____    ______ ____

>  <TORSDO>
F 1

$$$$
=
 OpenBabel11052413453D

 27 31  0  0  0  0  0  0  0  0999 V2000
  189.2230  178.4100  138.0360 C   0  0  0  0  0  2  0  0  0  0  0  0
  188.2890  177.8190  140.2390 C   0  0  0  0  0  0  0  0  0  0  0  0
  190.5550  176.7060  140.0940 N   0  0  0  0  0  2  0  0  0  0  0  0
  188.8430  177.8430  144.6070 S   0  0  0  0  0  0  0  0  0  0  0  0
  191.3000  176.8120  145.5190 C   0  0  0  0  0  1  0  0  0  0  0  0
  187.2880  178.3020  141.0380 N   0  0  0  0  0  0  0  0  0  0  0  0
  190.6320  176.9670  143.0500 C   0  0  0  0  0  0  0  0  0  0  0  0
  191.9730  175.3200  136.9460 C   0  0  0  0  0  3  0  0  0  0  0  0
  191.8170  176.4180  142.5720 O   0  0  0  0  0  1  0  0  0  0  0  0
  191.3440  176.0900  135.9690 C   0  0  0  0  0  0  0  0  0  0  0  0
  189.5740  177.3880  142.2280 C   0  0  0  0  0  0  0  0  0  0  0  0
  188.1230  177.8720  138.8170 N   0  0  0  0  0  0  0  0  0  0  0  0
  190.3760  177.1580  144.4070 C   0  0  0  0  0  0  0  0  0  0  0  0
  188.5200  177.8930  142.9610 C   0  0  0  0  0  0  0  0  0  0  0  0
  190.1580  177.3140  137.6930 C   0  0  0  0  0  0  0  0  0  0  0  0
  189.4870  177.3350  140.8300 C   0  0  0  0  0  0  0  0  0  0  0  0
  191.6920  175.5410  138.2960 C   0  0  0  0  0  3  0  0  0  0  0  0
  187.3910  178.3390  142.3680 N   0  0  0  0  0  0  0  0  0  0  0  0
  191.6280  175.8660  134.5940 N   0  0  0  0  0  1  0  0  0  0  0  0
  190.4440  177.0890  136.3420 C   0  0  0  0  0  3  0  0  0  0  0  0
  190.7750  176.5270  138.6850 C   0  0  0  0  0  0  0  0  0  0  0  0
  184.5280  176.6650  136.8840 C   0  0  0  0  0  3  0  0  0  0  0  0
  186.9000  177.4530  138.1710 C   0  0  0  0  0  0  0  0  0  0  0  0
  186.8590  176.2770  137.4030 C   0  0  0  0  0  3  0  0  0  0  0  0
  185.6800  175.8830  136.7650 C   0  0  0  0  0  3  0  0  0  0  0  0
  184.5560  177.8400  137.6390 C   0  0  0  0  0  3  0  0  0  0  0  0
  185.7350  178.2320  138.2770 C   0  0  0  0  0  3  0  0  0  0  0  0
  1 12  1  0  0  0  0
  2 16  2  0  0  0  0
  2  6  1  0  0  0  0
  3 16  1  0  0  0  0
  6 18  2  0  0  0  0
  7 13  2  0  0  0  0
  8 17  1  0  0  0  0
  9  7  1  0  0  0  0
 10 20  1  0  0  0  0
 10  8  2  0  0  0  0
 11 14  2  0  0  0  0
 11  7  1  0  0  0  0
 12  2  1  0  0  0  0
 13  4  1  0  0  0  0
 13  5  1  0  0  0  0
 14  4  1  0  0  0  0
 15  1  1  0  0  0  0
 15 21  1  0  0  0  0
 16 11  1  0  0  0  0
 17 21  2  0  0  0  0
 18 14  1  0  0  0  0
 19 10  1  0  0  0  0
 20 15  2  0  0  0  0
 21  3  1  0  0  0  0
 22 26  1  0  0  0  0
 23 27  1  0  0  0  0
 23 12  1  0  0  0  0
 24 23  2  0  0  0  0
 25 22  2  0  0  0  0
 25 24  1  0  0  0  0
 26 27  2  0  0  0  0
M  END
>  <MODEL>
9

>  <REMARK>
 VINA RESULT:      -7.4      3.272      6.417
  Name = 
  1 active torsions:
  status: ('A' for Active; 'I' for Inactive)
    1  A    between atoms: C_9  and  N_15
                            x       y       z     vdW  Elec       q    Type
                         _______ _______ _______ _____ _____    ______ ____

>  <TORSDO>
F 1

$$$$
