=
 OpenBabel11052416003D

 34 38  0  0  1  0  0  0  0  0999 V2000
  189.8520  176.1890  143.9170 C   0  0  1  0  0  3  0  0  0  0  0  0
  187.4120  177.9140  146.5500 C   0  0  1  0  0  3  0  0  0  0  0  0
  184.5350  179.0910  145.2550 C   0  0  0  0  0  1  0  0  0  0  0  0
  189.8210  177.1150  146.7910 C   0  0  0  0  0  2  0  0  0  0  0  0
  190.2670  177.6560  141.8560 C   0  0  2  0  0  3  0  0  0  0  0  0
  189.8030  176.2980  142.3860 C   0  0  0  0  0  2  0  0  0  0  0  0
  191.6660  178.0540  143.9580 C   0  0  2  0  0  3  0  0  0  0  0  0
  190.9880  179.2990  144.5170 C   0  0  0  0  0  1  0  0  0  0  0  0
  191.6310  178.0500  142.4290 C   0  0  0  0  0  2  0  0  0  0  0  0
  191.0910  176.7500  146.0650 C   0  0  0  0  0  0  0  0  0  0  0  0
  191.1550  176.7250  144.5550 C   0  0  1  0  0  3  0  0  0  0  0  0
  192.0890  176.4850  146.7100 O   0  0  0  0  0  0  0  0  0  0  0  0
  186.1870  177.3020  145.8320 C   0  0  1  0  0  3  0  0  0  0  0  0
  185.0550  177.7150  144.8910 C   0  0  2  0  0  3  0  0  0  0  0  0
  186.4550  177.8140  144.3990 C   0  0  2  0  0  3  0  0  0  0  0  0
  188.7350  177.5590  145.8140 C   0  0  1  0  0  3  0  0  0  0  0  0
  187.2600  176.6580  143.8300 C   0  0  0  0  0  2  0  0  0  0  0  0
  188.5500  176.4980  144.6860 C   0  0  1  0  0  3  0  0  0  0  0  0
  187.3060  179.4120  146.8140 C   0  0  0  0  0  2  0  0  0  0  0  0
  186.3390  179.6530  147.7730 F   0  0  0  0  0  0  0  0  0  0  0  0
  189.2220  178.7530  142.0420 C   0  0  0  0  0  2  0  0  0  0  0  0
  188.1020  178.6520  141.0120 C   0  0  0  0  0  2  0  0  0  0  0  0
  188.6520  178.3620  139.6250 C   0  0  0  0  0  2  0  0  0  0  0  0
  189.0460  178.8470  136.9540 C   0  0  0  0  0  1  0  0  0  0  0  0
  187.9960  176.9100  137.7690 C   0  0  2  0  0  3  0  0  0  0  0  0
  187.5210  177.9420  138.6830 C   0  0  2  0  0  3  0  0  0  0  0  0
  187.7410  178.2600  137.2420 N   0  0  0  0  0  0  0  0  0  0  0  0
  187.1030  174.6980  136.9400 C   0  0  0  0  0  0  0  0  0  0  0  0
  186.8970  176.0350  137.3970 N   0  0  0  0  0  2  0  0  0  0  0  0
  188.2600  174.2010  136.9210 O   0  0  0  0  0  0  0  0  0  0  0  0
  185.9430  173.8850  136.4760 C   0  0  0  0  0  2  0  0  0  0  0  0
  185.3970  173.0110  137.5980 C   0  0  0  0  0  2  0  0  0  0  0  0
  184.1130  172.3110  137.1770 C   0  0  0  0  0  2  0  0  0  0  0  0
  184.3920  171.2950  136.0870 C   0  0  0  0  0  1  0  0  0  0  0  0
  1  6  1  6  0  0  0
  1 11  1  0  0  0  0
  1 18  1  0  0  0  0
  2 19  1  6  0  0  0
  5 21  1  1  0  0  0
  5  6  1  0  0  0  0
  5  9  1  0  0  0  0
  7  8  1  1  0  0  0
  7 11  1  0  0  0  0
  9  7  1  0  0  0  0
 10 12  2  0  0  0  0
 10  4  1  0  0  0  0
 11 10  1  1  0  0  0
 13  2  1  0  0  0  0
 14  3  1  0  0  0  0
 14 13  1  0  0  0  0
 15 14  1  0  0  0  0
 15 13  1  0  0  0  0
 16  2  1  0  0  0  0
 16  4  1  0  0  0  0
 17 15  1  0  0  0  0
 17 18  1  0  0  0  0
 18 16  1  0  0  0  0
 19 20  1  0  0  0  0
 22 21  1  0  0  0  0
 23 22  1  0  0  0  0
 24 27  1  0  0  0  0
 25 26  1  0  0  0  0
 26 23  1  0  0  0  0
 27 25  1  0  0  0  0
 27 26  1  0  0  0  0
 28 29  1  0  0  0  0
 29 25  1  0  0  0  0
 30 28  2  0  0  0  0
 31 28  1  0  0  0  0
 31 32  1  0  0  0  0
 33 32  1  0  0  0  0
 34 33  1  0  0  0  0
M  END
>  <MODEL>
1

>  <REMARK>
 VINA RESULT:      -7.1      0.000      0.000
  Name = 
  9 active torsions:
  status: ('A' for Active; 'I' for Inactive)
    1  A    between atoms: C_2  and  C_13
    2  A    between atoms: C_6  and  C_28
    3  A    between atoms: C_6  and  C_30
    4  A    between atoms: C_7  and  C_29
    5  A    between atoms: C_8  and  C_18
    6  A    between atoms: C_11  and  C_15
    7  A    between atoms: C_11  and  C_29
    8  A    between atoms: N_14  and  C_16
    9  A    between atoms: C_18  and  C_30
                            x       y       z     vdW  Elec       q    Type
                         _______ _______ _______ _____ _____    ______ ____

>  <TORSDO>
F 9

$$$$
=
 OpenBabel11052416003D

 34 38  0  0  1  0  0  0  0  0999 V2000
  189.9060  176.1780  143.9350 C   0  0  1  0  0  3  0  0  0  0  0  0
  187.3780  177.9290  146.4670 C   0  0  1  0  0  3  0  0  0  0  0  0
  184.5430  179.0840  145.0660 C   0  0  0  0  0  1  0  0  0  0  0  0
  189.7800  177.1370  146.7960 C   0  0  0  0  0  2  0  0  0  0  0  0
  190.3850  177.6210  141.8720 C   0  0  2  0  0  3  0  0  0  0  0  0
  189.9060  176.2680  142.4030 C   0  0  0  0  0  2  0  0  0  0  0  0
  191.7140  178.0460  144.0130 C   0  0  2  0  0  3  0  0  0  0  0  0
  191.0160  179.2960  144.5350 C   0  0  0  0  0  1  0  0  0  0  0  0
  191.7290  178.0240  142.4840 C   0  0  0  0  0  2  0  0  0  0  0  0
  191.0730  176.7660  146.1150 C   0  0  0  0  0  0  0  0  0  0  0  0
  191.1860  176.7240  144.6090 C   0  0  1  0  0  3  0  0  0  0  0  0
  192.0510  176.5100  146.7960 O   0  0  0  0  0  0  0  0  0  0  0  0
  186.1790  177.3060  145.7170 C   0  0  1  0  0  3  0  0  0  0  0  0
  185.0770  177.7060  144.7350 C   0  0  2  0  0  3  0  0  0  0  0  0
  186.4920  177.8020  144.2880 C   0  0  2  0  0  3  0  0  0  0  0  0
  188.7250  177.5670  145.7800 C   0  0  1  0  0  3  0  0  0  0  0  0
  187.3170  176.6400  143.7590 C   0  0  0  0  0  2  0  0  0  0  0  0
  188.5790  176.4930  144.6580 C   0  0  1  0  0  3  0  0  0  0  0  0
  187.2620  179.4290  146.7100 C   0  0  0  0  0  2  0  0  0  0  0  0
  186.3250  179.6750  147.6970 F   0  0  0  0  0  0  0  0  0  0  0  0
  189.3320  178.7170  142.0110 C   0  0  0  0  0  2  0  0  0  0  0  0
  188.2040  178.5550  140.9980 C   0  0  0  0  0  2  0  0  0  0  0  0
  188.7480  178.3450  139.5950 C   0  0  0  0  0  2  0  0  0  0  0  0
  188.0860  176.4040  137.7730 C   0  0  0  0  0  1  0  0  0  0  0  0
  186.5140  177.8710  138.7170 C   0  0  2  0  0  3  0  0  0  0  0  0
  187.6890  178.7210  138.5550 C   0  0  2  0  0  3  0  0  0  0  0  0
  187.3820  177.6630  137.5480 N   0  0  0  0  0  0  0  0  0  0  0  0
  184.5470  179.3740  139.2160 C   0  0  0  0  0  0  0  0  0  0  0  0
  185.3220  178.5940  138.3050 N   0  0  0  0  0  2  0  0  0  0  0  0
  184.9240  179.5260  140.4080 O   0  0  0  0  0  0  0  0  0  0  0  0
  183.2780  180.0080  138.7570 C   0  0  0  0  0  2  0  0  0  0  0  0
  182.2260  178.9600  138.4210 C   0  0  0  0  0  2  0  0  0  0  0  0
  181.7830  178.2040  139.6650 C   0  0  0  0  0  2  0  0  0  0  0  0
  181.0910  179.1370  140.6380 C   0  0  0  0  0  1  0  0  0  0  0  0
  1  6  1  6  0  0  0
  1 11  1  0  0  0  0
  1 18  1  0  0  0  0
  2 19  1  6  0  0  0
  5 21  1  1  0  0  0
  5  6  1  0  0  0  0
  5  9  1  0  0  0  0
  7  8  1  6  0  0  0
  7 11  1  0  0  0  0
  9  7  1  0  0  0  0
 10 12  2  0  0  0  0
 10  4  1  0  0  0  0
 11 10  1  1  0  0  0
 13  2  1  0  0  0  0
 14  3  1  0  0  0  0
 14 13  1  0  0  0  0
 15 14  1  0  0  0  0
 15 13  1  0  0  0  0
 16  2  1  0  0  0  0
 16  4  1  0  0  0  0
 17 15  1  0  0  0  0
 17 18  1  0  0  0  0
 18 16  1  0  0  0  0
 19 20  1  0  0  0  0
 22 21  1  0  0  0  0
 23 22  1  0  0  0  0
 26 25  1  0  0  0  0
 26 23  1  0  0  0  0
 27 24  1  0  0  0  0
 27 26  1  0  0  0  0
 27 25  1  0  0  0  0
 28 30  2  0  0  0  0
 29 25  1  0  0  0  0
 29 28  1  0  0  0  0
 31 28  1  0  0  0  0
 32 31  1  0  0  0  0
 32 33  1  0  0  0  0
 33 34  1  0  0  0  0
M  END
>  <MODEL>
2

>  <REMARK>
 VINA RESULT:      -7.0      2.371      3.178
  Name = 
  9 active torsions:
  status: ('A' for Active; 'I' for Inactive)
    1  A    between atoms: C_2  and  C_13
    2  A    between atoms: C_6  and  C_28
    3  A    between atoms: C_6  and  C_30
    4  A    between atoms: C_7  and  C_29
    5  A    between atoms: C_8  and  C_18
    6  A    between atoms: C_11  and  C_15
    7  A    between atoms: C_11  and  C_29
    8  A    between atoms: N_14  and  C_16
    9  A    between atoms: C_18  and  C_30
                            x       y       z     vdW  Elec       q    Type
                         _______ _______ _______ _____ _____    ______ ____

>  <TORSDO>
F 9

$$$$
=
 OpenBabel11052416003D

 34 38  0  0  1  0  0  0  0  0999 V2000
  189.8870  176.1600  143.9620 C   0  0  1  0  0  3  0  0  0  0  0  0
  187.3270  177.9530  146.4310 C   0  0  1  0  0  3  0  0  0  0  0  0
  184.4920  179.0460  144.9810 C   0  0  0  0  0  1  0  0  0  0  0  0
  189.7340  177.1920  146.7950 C   0  0  0  0  0  2  0  0  0  0  0  0
  190.3680  177.5530  141.8640 C   0  0  2  0  0  3  0  0  0  0  0  0
  189.8970  176.2100  142.4270 C   0  0  0  0  0  2  0  0  0  0  0  0
  191.6790  178.0450  144.0030 C   0  0  2  0  0  3  0  0  0  0  0  0
  190.9660  179.3020  144.4870 C   0  0  0  0  0  1  0  0  0  0  0  0
  191.7040  177.9840  142.4740 C   0  0  0  0  0  2  0  0  0  0  0  0
  191.0350  176.8150  146.1330 C   0  0  0  0  0  0  0  0  0  0  0  0
  191.1580  176.7340  144.6290 C   0  0  1  0  0  3  0  0  0  0  0  0
  192.0100  176.5860  146.8260 O   0  0  0  0  0  0  0  0  0  0  0  0
  186.1380  177.3000  145.6890 C   0  0  1  0  0  3  0  0  0  0  0  0
  185.0390  177.6640  144.6900 C   0  0  2  0  0  3  0  0  0  0  0  0
  186.4570  177.7610  144.2500 C   0  0  2  0  0  3  0  0  0  0  0  0
  188.6820  177.5860  145.7610 C   0  0  1  0  0  3  0  0  0  0  0  0
  187.2960  176.5940  143.7560 C   0  0  0  0  0  2  0  0  0  0  0  0
  188.5530  176.4810  144.6680 C   0  0  1  0  0  3  0  0  0  0  0  0
  187.1960  179.4580  146.6330 C   0  0  0  0  0  2  0  0  0  0  0  0
  186.3230  179.7180  147.6740 F   0  0  0  0  0  0  0  0  0  0  0  0
  189.3040  178.6430  141.9680 C   0  0  0  0  0  2  0  0  0  0  0  0
  188.2250  178.4880  140.9020 C   0  0  0  0  0  2  0  0  0  0  0  0
  188.8070  178.6150  139.5040 C   0  0  0  0  0  2  0  0  0  0  0  0
  187.8220  178.3190  136.9610 C   0  0  0  0  0  1  0  0  0  0  0  0
  189.8210  177.3250  137.6900 C   0  0  2  0  0  3  0  0  0  0  0  0
  188.9670  177.2320  138.8700 C   0  0  2  0  0  3  0  0  0  0  0  0
  188.3810  177.0850  137.5050 N   0  0  0  0  0  0  0  0  0  0  0  0
  191.8710  175.8800  137.9840 C   0  0  0  0  0  0  0  0  0  0  0  0
  190.5420  176.0760  137.5030 N   0  0  0  0  0  2  0  0  0  0  0  0
  192.4410  176.7720  138.6680 O   0  0  0  0  0  0  0  0  0  0  0  0
  192.5950  174.6150  137.6720 C   0  0  0  0  0  2  0  0  0  0  0  0
  194.0980  174.7780  137.8530 C   0  0  0  0  0  2  0  0  0  0  0  0
  194.7620  173.4500  138.1850 C   0  0  0  0  0  2  0  0  0  0  0  0
  196.2550  173.6320  138.3690 C   0  0  0  0  0  1  0  0  0  0  0  0
  1  6  1  6  0  0  0
  1 11  1  0  0  0  0
  1 18  1  0  0  0  0
  2 19  1  6  0  0  0
  5 21  1  1  0  0  0
  5  6  1  0  0  0  0
  5  9  1  0  0  0  0
  7  8  1  6  0  0  0
  7 11  1  0  0  0  0
  9  7  1  0  0  0  0
 10  4  1  0  0  0  0
 10 12  2  0  0  0  0
 11 10  1  1  0  0  0
 13  2  1  0  0  0  0
 14  3  1  0  0  0  0
 14 13  1  0  0  0  0
 15 14  1  0  0  0  0
 15 13  1  0  0  0  0
 16  2  1  0  0  0  0
 16  4  1  0  0  0  0
 17 15  1  0  0  0  0
 17 18  1  0  0  0  0
 18 16  1  0  0  0  0
 19 20  1  0  0  0  0
 22 21  1  0  0  0  0
 23 22  1  0  0  0  0
 24 27  1  0  0  0  0
 25 26  1  0  0  0  0
 26 23  1  0  0  0  0
 27 25  1  0  0  0  0
 27 26  1  0  0  0  0
 28 30  2  0  0  0  0
 29 25  1  0  0  0  0
 29 28  1  0  0  0  0
 31 32  1  0  0  0  0
 31 28  1  0  0  0  0
 32 33  1  0  0  0  0
 33 34  1  0  0  0  0
M  END
>  <MODEL>
3

>  <REMARK>
 VINA RESULT:      -6.9      2.635      3.711
  Name = 
  9 active torsions:
  status: ('A' for Active; 'I' for Inactive)
    1  A    between atoms: C_2  and  C_13
    2  A    between atoms: C_6  and  C_28
    3  A    between atoms: C_6  and  C_30
    4  A    between atoms: C_7  and  C_29
    5  A    between atoms: C_8  and  C_18
    6  A    between atoms: C_11  and  C_15
    7  A    between atoms: C_11  and  C_29
    8  A    between atoms: N_14  and  C_16
    9  A    between atoms: C_18  and  C_30
                            x       y       z     vdW  Elec       q    Type
                         _______ _______ _______ _____ _____    ______ ____

>  <TORSDO>
F 9

$$$$
=
 OpenBabel11052416003D

 34 38  0  0  1  0  0  0  0  0999 V2000
  189.8090  176.2030  143.9610 C   0  0  1  0  0  3  0  0  0  0  0  0
  187.3990  177.9510  146.6070 C   0  0  1  0  0  3  0  0  0  0  0  0
  184.5390  179.1790  145.3230 C   0  0  0  0  0  1  0  0  0  0  0  0
  189.7960  177.1130  146.8400 C   0  0  0  0  0  2  0  0  0  0  0  0
  190.2440  177.6750  141.9080 C   0  0  2  0  0  3  0  0  0  0  0  0
  189.7600  176.3210  142.4310 C   0  0  0  0  0  2  0  0  0  0  0  0
  191.6510  178.0390  144.0100 C   0  0  2  0  0  3  0  0  0  0  0  0
  190.9930  179.2920  144.5770 C   0  0  0  0  0  1  0  0  0  0  0  0
  191.6140  178.0440  142.4810 C   0  0  0  0  0  2  0  0  0  0  0  0
  191.0590  176.7330  146.1100 C   0  0  0  0  0  0  0  0  0  0  0  0
  191.1210  176.7160  144.6000 C   0  0  1  0  0  3  0  0  0  0  0  0
  192.0540  176.4490  146.7520 O   0  0  0  0  0  0  0  0  0  0  0  0
  186.1640  177.3610  145.8880 C   0  0  1  0  0  3  0  0  0  0  0  0
  185.0370  177.7970  144.9510 C   0  0  2  0  0  3  0  0  0  0  0  0
  186.4380  177.8780  144.4580 C   0  0  2  0  0  3  0  0  0  0  0  0
  188.7150  177.5790  145.8680 C   0  0  1  0  0  3  0  0  0  0  0  0
  187.2240  176.7120  143.8810 C   0  0  0  0  0  2  0  0  0  0  0  0
  188.5130  176.5270  144.7340 C   0  0  1  0  0  3  0  0  0  0  0  0
  187.3170  179.4480  146.8800 C   0  0  0  0  0  2  0  0  0  0  0  0
  186.3920  179.6950  147.8780 F   0  0  0  0  0  0  0  0  0  0  0  0
  189.2150  178.7870  142.1010 C   0  0  0  0  0  2  0  0  0  0  0  0
  188.0330  178.6410  141.1490 C   0  0  0  0  0  2  0  0  0  0  0  0
  188.4870  178.1800  139.7740 C   0  0  0  0  0  2  0  0  0  0  0  0
  189.0520  179.0000  137.2170 C   0  0  0  0  0  1  0  0  0  0  0  0
  187.5520  177.2600  137.7080 C   0  0  2  0  0  3  0  0  0  0  0  0
  187.3120  178.2070  138.7920 C   0  0  2  0  0  3  0  0  0  0  0  0
  187.6380  178.7010  137.4230 N   0  0  0  0  0  0  0  0  0  0  0  0
  186.1050  176.3420  135.8540 C   0  0  0  0  0  0  0  0  0  0  0  0
  186.2860  176.7490  137.2100 N   0  0  0  0  0  2  0  0  0  0  0  0
  187.0770  176.3410  135.0520 O   0  0  0  0  0  0  0  0  0  0  0  0
  184.7560  175.9230  135.3790 C   0  0  0  0  0  2  0  0  0  0  0  0
  183.9000  177.1270  135.0100 C   0  0  0  0  0  2  0  0  0  0  0  0
  182.5940  177.1360  135.7890 C   0  0  0  0  0  2  0  0  0  0  0  0
  182.7600  177.8800  137.0990 C   0  0  0  0  0  1  0  0  0  0  0  0
  1  6  1  6  0  0  0
  1 11  1  0  0  0  0
  1 18  1  0  0  0  0
  2 19  1  6  0  0  0
  5 21  1  1  0  0  0
  5  6  1  0  0  0  0
  5  9  1  0  0  0  0
  7  8  1  1  0  0  0
  7 11  1  0  0  0  0
  9  7  1  0  0  0  0
 10 12  2  0  0  0  0
 10  4  1  0  0  0  0
 11 10  1  1  0  0  0
 13  2  1  0  0  0  0
 14  3  1  0  0  0  0
 14 13  1  0  0  0  0
 15 14  1  0  0  0  0
 15 13  1  0  0  0  0
 16  2  1  0  0  0  0
 16  4  1  0  0  0  0
 17 15  1  0  0  0  0
 17 18  1  0  0  0  0
 18 16  1  0  0  0  0
 19 20  1  0  0  0  0
 22 21  1  0  0  0  0
 23 22  1  0  0  0  0
 24 27  1  0  0  0  0
 25 26  1  0  0  0  0
 26 23  1  0  0  0  0
 27 25  1  0  0  0  0
 27 26  1  0  0  0  0
 28 29  1  0  0  0  0
 29 25  1  0  0  0  0
 30 28  2  0  0  0  0
 31 28  1  0  0  0  0
 32 31  1  0  0  0  0
 32 33  1  0  0  0  0
 33 34  1  0  0  0  0
M  END
>  <MODEL>
4

>  <REMARK>
 VINA RESULT:      -6.7      1.603      1.906
  Name = 
  9 active torsions:
  status: ('A' for Active; 'I' for Inactive)
    1  A    between atoms: C_2  and  C_13
    2  A    between atoms: C_6  and  C_28
    3  A    between atoms: C_6  and  C_30
    4  A    between atoms: C_7  and  C_29
    5  A    between atoms: C_8  and  C_18
    6  A    between atoms: C_11  and  C_15
    7  A    between atoms: C_11  and  C_29
    8  A    between atoms: N_14  and  C_16
    9  A    between atoms: C_18  and  C_30
                            x       y       z     vdW  Elec       q    Type
                         _______ _______ _______ _____ _____    ______ ____

>  <TORSDO>
F 9

$$$$
=
 OpenBabel11052416003D

 34 38  0  0  1  0  0  0  0  0999 V2000
  181.7330  179.3710  138.3360 C   0  0  1  0  0  3  0  0  0  0  0  0
  179.1310  177.5000  140.7010 C   0  0  1  0  0  3  0  0  0  0  0  0
  179.6890  177.8780  144.0000 C   0  0  0  0  0  1  0  0  0  0  0  0
  179.4700  177.3780  138.1760 C   0  0  0  0  0  2  0  0  0  0  0  0
  184.1670  178.8560  138.9530 C   0  0  2  0  0  3  0  0  0  0  0  0
  183.1070  179.9360  138.7210 C   0  0  0  0  0  2  0  0  0  0  0  0
  182.9000  177.2210  137.4520 C   0  0  2  0  0  3  0  0  0  0  0  0
  182.5740  176.1160  138.4500 C   0  0  0  0  0  1  0  0  0  0  0  0
  184.2420  177.8780  137.7790 C   0  0  0  0  0  2  0  0  0  0  0  0
  180.4230  177.6230  137.0350 C   0  0  0  0  0  0  0  0  0  0  0  0
  181.7750  178.2610  137.2610 C   0  0  1  0  0  3  0  0  0  0  0  0
  180.1020  177.2870  135.9090 O   0  0  0  0  0  0  0  0  0  0  0  0
  179.1610  178.6870  141.6910 C   0  0  1  0  0  3  0  0  0  0  0  0
  179.7470  179.0600  143.0530 C   0  0  2  0  0  3  0  0  0  0  0  0
  180.6840  178.7700  141.9350 C   0  0  2  0  0  3  0  0  0  0  0  0
  180.1130  177.7260  139.5170 C   0  0  1  0  0  3  0  0  0  0  0  0
  181.0890  179.7660  140.8610 C   0  0  0  0  0  2  0  0  0  0  0  0
  180.7120  179.1650  139.4750 C   0  0  1  0  0  3  0  0  0  0  0  0
  179.3390  176.1340  141.3440 C   0  0  0  0  0  2  0  0  0  0  0  0
  179.9770  175.2880  140.4560 F   0  0  0  0  0  0  0  0  0  0  0  0
  184.0010  178.1440  140.2930 C   0  0  0  0  0  2  0  0  0  0  0  0
  184.6560  178.9160  141.4330 C   0  0  0  0  0  2  0  0  0  0  0  0
  184.6560  178.1060  142.7190 C   0  0  0  0  0  2  0  0  0  0  0  0
  183.6390  179.0020  145.1040 C   0  0  0  0  0  1  0  0  0  0  0  0
  185.6930  177.8760  144.9240 C   0  0  2  0  0  3  0  0  0  0  0  0
  185.6640  178.6900  143.7120 C   0  0  2  0  0  3  0  0  0  0  0  0
  185.0790  179.2120  144.9810 N   0  0  0  0  0  0  0  0  0  0  0  0
  188.1480  177.2870  144.9420 C   0  0  0  0  0  0  0  0  0  0  0  0
  187.0150  177.9320  145.5250 N   0  0  0  0  0  2  0  0  0  0  0  0
  188.0500  176.7060  143.8290 O   0  0  0  0  0  0  0  0  0  0  0  0
  189.4550  177.2930  145.6580 C   0  0  0  0  0  2  0  0  0  0  0  0
  189.3090  176.7700  147.0810 C   0  0  0  0  0  2  0  0  0  0  0  0
  189.5450  177.8720  148.1020 C   0  0  0  0  0  2  0  0  0  0  0  0
  188.2590  178.2100  148.8290 C   0  0  0  0  0  1  0  0  0  0  0  0
  1  6  1  1  0  0  0
  1 18  1  0  0  0  0
  2 19  1  1  0  0  0
  2 13  1  0  0  0  0
  4 16  1  0  0  0  0
  5 21  1  1  0  0  0
  6  5  1  0  0  0  0
  7  9  1  0  0  0  0
  7  8  1  1  0  0  0
  9  5  1  0  0  0  0
 10  4  1  0  0  0  0
 11 10  1  1  0  0  0
 11  7  1  0  0  0  0
 11  1  1  0  0  0  0
 12 10  2  0  0  0  0
 13 15  1  0  0  0  0
 13 14  1  0  0  0  0
 14  3  1  0  0  0  0
 15 14  1  0  0  0  0
 16  2  1  0  0  0  0
 17 15  1  0  0  0  0
 18 16  1  0  0  0  0
 18 17  1  0  0  0  0
 20 19  1  0  0  0  0
 21 22  1  0  0  0  0
 22 23  1  0  0  0  0
 23 26  1  0  0  0  0
 25 27  1  0  0  0  0
 25 29  1  0  0  0  0
 26 25  1  0  0  0  0
 26 27  1  0  0  0  0
 27 24  1  0  0  0  0
 28 29  1  0  0  0  0
 28 31  1  0  0  0  0
 30 28  2  0  0  0  0
 31 32  1  0  0  0  0
 32 33  1  0  0  0  0
 33 34  1  0  0  0  0
M  END
>  <MODEL>
5

>  <REMARK>
 VINA RESULT:      -6.5      5.418      9.737
  Name = 
  9 active torsions:
  status: ('A' for Active; 'I' for Inactive)
    1  A    between atoms: C_2  and  C_13
    2  A    between atoms: C_6  and  C_28
    3  A    between atoms: C_6  and  C_30
    4  A    between atoms: C_7  and  C_29
    5  A    between atoms: C_8  and  C_18
    6  A    between atoms: C_11  and  C_15
    7  A    between atoms: C_11  and  C_29
    8  A    between atoms: N_14  and  C_16
    9  A    between atoms: C_18  and  C_30
                            x       y       z     vdW  Elec       q    Type
                         _______ _______ _______ _____ _____    ______ ____

>  <TORSDO>
F 9

$$$$
=
 OpenBabel11052416003D

 34 38  0  0  1  0  0  0  0  0999 V2000
  188.6260  177.9130  136.3340 C   0  0  1  0  0  3  0  0  0  0  0  0
  185.8910  175.0210  136.2060 C   0  0  1  0  0  3  0  0  0  0  0  0
  183.1780  175.5520  138.1280 C   0  0  0  0  0  1  0  0  0  0  0  0
  188.2600  175.1120  135.2670 C   0  0  0  0  0  2  0  0  0  0  0  0
  189.2700  178.5500  138.7320 C   0  0  2  0  0  3  0  0  0  0  0  0
  188.7540  179.0340  137.3750 C   0  0  0  0  0  2  0  0  0  0  0  0
  190.4150  176.5450  137.6360 C   0  0  2  0  0  3  0  0  0  0  0  0
  189.6710  175.3940  138.3050 C   0  0  0  0  0  1  0  0  0  0  0  0
  190.5570  177.7340  138.5880 C   0  0  0  0  0  2  0  0  0  0  0  0
  189.6070  175.7850  135.3470 C   0  0  0  0  0  0  0  0  0  0  0  0
  189.8440  176.9630  136.2640 C   0  0  1  0  0  3  0  0  0  0  0  0
  190.5250  175.3600  134.6700 O   0  0  0  0  0  0  0  0  0  0  0  0
  184.7600  176.0730  136.2610 C   0  0  1  0  0  3  0  0  0  0  0  0
  183.7420  176.6470  137.2470 C   0  0  2  0  0  3  0  0  0  0  0  0
  185.1890  176.8360  137.5340 C   0  0  2  0  0  3  0  0  0  0  0  0
  187.2910  175.6900  136.2960 C   0  0  1  0  0  3  0  0  0  0  0  0
  186.0600  177.9270  136.9320 C   0  0  0  0  0  2  0  0  0  0  0  0
  187.2430  177.2450  136.1850 C   0  0  1  0  0  3  0  0  0  0  0  0
  185.7490  173.8880  137.2160 C   0  0  0  0  0  2  0  0  0  0  0  0
  186.9870  173.3240  137.4670 F   0  0  0  0  0  0  0  0  0  0  0  0
  188.2050  177.8160  139.5430 C   0  0  0  0  0  2  0  0  0  0  0  0
  187.7520  178.6250  140.7530 C   0  0  0  0  0  2  0  0  0  0  0  0
  186.2370  178.6660  140.8530 C   0  0  0  0  0  2  0  0  0  0  0  0
  183.5940  178.3060  141.4940 C   0  0  0  0  0  1  0  0  0  0  0  0
  185.3470  177.9500  143.0170 C   0  0  2  0  0  3  0  0  0  0  0  0
  185.8110  179.1050  142.2560 C   0  0  2  0  0  3  0  0  0  0  0  0
  184.3600  178.9420  142.5620 N   0  0  0  0  0  0  0  0  0  0  0  0
  186.6960  177.5150  145.1070 C   0  0  0  0  0  0  0  0  0  0  0  0
  185.6100  178.1520  144.4320 N   0  0  0  0  0  2  0  0  0  0  0  0
  187.5190  176.8080  144.4670 O   0  0  0  0  0  0  0  0  0  0  0  0
  186.8540  177.6800  146.5800 C   0  0  0  0  0  2  0  0  0  0  0  0
  188.2990  177.9830  146.9500 C   0  0  0  0  0  2  0  0  0  0  0  0
  188.9940  176.7520  147.5130 C   0  0  0  0  0  2  0  0  0  0  0  0
  190.4940  176.8520  147.3200 C   0  0  0  0  0  1  0  0  0  0  0  0
  1  6  1  1  0  0  0
  2 13  1  0  0  0  0
  2 16  1  0  0  0  0
  2 19  1  1  0  0  0
  4 10  1  0  0  0  0
  4 16  1  0  0  0  0
  5 21  1  6  0  0  0
  6  5  1  0  0  0  0
  7  8  1  1  0  0  0
  7  9  1  0  0  0  0
  9  5  1  0  0  0  0
 11 10  1  1  0  0  0
 11  1  1  0  0  0  0
 11  7  1  0  0  0  0
 12 10  2  0  0  0  0
 13 14  1  0  0  0  0
 13 15  1  0  0  0  0
 14 15  1  0  0  0  0
 14  3  1  0  0  0  0
 17 15  1  0  0  0  0
 18 16  1  0  0  0  0
 18  1  1  0  0  0  0
 18 17  1  0  0  0  0
 19 20  1  0  0  0  0
 21 22  1  0  0  0  0
 22 23  1  0  0  0  0
 23 26  1  0  0  0  0
 24 27  1  0  0  0  0
 25 29  1  0  0  0  0
 26 27  1  0  0  0  0
 26 25  1  0  0  0  0
 27 25  1  0  0  0  0
 28 31  1  0  0  0  0
 29 28  1  0  0  0  0
 30 28  2  0  0  0  0
 31 32  1  0  0  0  0
 32 33  1  0  0  0  0
 34 33  1  0  0  0  0
M  END
>  <MODEL>
6

>  <REMARK>
 VINA RESULT:      -6.3      3.452      8.605
  Name = 
  9 active torsions:
  status: ('A' for Active; 'I' for Inactive)
    1  A    between atoms: C_2  and  C_13
    2  A    between atoms: C_6  and  C_28
    3  A    between atoms: C_6  and  C_30
    4  A    between atoms: C_7  and  C_29
    5  A    between atoms: C_8  and  C_18
    6  A    between atoms: C_11  and  C_15
    7  A    between atoms: C_11  and  C_29
    8  A    between atoms: N_14  and  C_16
    9  A    between atoms: C_18  and  C_30
                            x       y       z     vdW  Elec       q    Type
                         _______ _______ _______ _____ _____    ______ ____

>  <TORSDO>
F 9

$$$$
=
 OpenBabel11052416003D

 34 38  0  0  1  0  0  0  0  0999 V2000
  188.9330  178.0970  136.3180 C   0  0  1  0  0  3  0  0  0  0  0  0
  186.0500  175.4130  135.7230 C   0  0  1  0  0  3  0  0  0  0  0  0
  183.2190  175.9670  137.4590 C   0  0  0  0  0  1  0  0  0  0  0  0
  188.4920  175.4220  134.9880 C   0  0  0  0  0  2  0  0  0  0  0  0
  189.4060  178.4950  138.8050 C   0  0  2  0  0  3  0  0  0  0  0  0
  189.0370  179.1200  137.4580 C   0  0  0  0  0  2  0  0  0  0  0  0
  190.5190  176.5130  137.6370 C   0  0  2  0  0  3  0  0  0  0  0  0
  189.6530  175.3650  138.1430 C   0  0  0  0  0  1  0  0  0  0  0  0
  190.6490  177.6090  138.6960 C   0  0  0  0  0  2  0  0  0  0  0  0
  189.8650  175.9950  135.2340 C   0  0  0  0  0  0  0  0  0  0  0  0
  190.0930  177.0770  136.2650 C   0  0  1  0  0  3  0  0  0  0  0  0
  190.8110  175.5650  134.5990 O   0  0  0  0  0  0  0  0  0  0  0  0
  184.9840  176.5310  135.7770 C   0  0  1  0  0  3  0  0  0  0  0  0
  183.9210  177.0900  136.7240 C   0  0  2  0  0  3  0  0  0  0  0  0
  185.3470  177.1580  137.1410 C   0  0  2  0  0  3  0  0  0  0  0  0
  187.4750  175.9780  135.9820 C   0  0  1  0  0  3  0  0  0  0  0  0
  186.3300  178.2340  136.7060 C   0  0  0  0  0  2  0  0  0  0  0  0
  187.5300  177.5370  136.0010 C   0  0  1  0  0  3  0  0  0  0  0  0
  185.7560  174.2150  136.6170 C   0  0  0  0  0  2  0  0  0  0  0  0
  186.7690  174.0600  137.5460 F   0  0  0  0  0  0  0  0  0  0  0  0
  188.2330  177.7710  139.4620 C   0  0  0  0  0  2  0  0  0  0  0  0
  187.9190  178.3320  140.8450 C   0  0  0  0  0  2  0  0  0  0  0  0
  189.0500  178.0550  141.8220 C   0  0  0  0  0  2  0  0  0  0  0  0
  190.1960  175.8300  142.9460 C   0  0  0  0  0  1  0  0  0  0  0  0
  189.5190  177.7000  144.1970 C   0  0  2  0  0  3  0  0  0  0  0  0
  188.4840  177.6070  143.1720 C   0  0  2  0  0  3  0  0  0  0  0  0
  189.0930  176.3680  143.7380 N   0  0  0  0  0  0  0  0  0  0  0  0
  189.5370  177.6210  146.7210 C   0  0  0  0  0  0  0  0  0  0  0  0
  188.9110  177.9780  145.4880 N   0  0  0  0  0  2  0  0  0  0  0  0
  190.6910  177.1170  146.7290 O   0  0  0  0  0  0  0  0  0  0  0  0
  188.8180  177.8410  148.0080 C   0  0  0  0  0  2  0  0  0  0  0  0
  187.3260  177.5740  147.8610 C   0  0  0  0  0  2  0  0  0  0  0  0
  186.6390  178.6910  147.0880 C   0  0  0  0  0  2  0  0  0  0  0  0
  185.4450  178.1540  146.3250 C   0  0  0  0  0  1  0  0  0  0  0  0
  1  6  1  1  0  0  0
  2 13  1  0  0  0  0
  2 16  1  0  0  0  0
  2 19  1  1  0  0  0
  4 10  1  0  0  0  0
  4 16  1  0  0  0  0
  5 21  1  6  0  0  0
  6  5  1  0  0  0  0
  7  8  1  1  0  0  0
  7  9  1  0  0  0  0
  9  5  1  0  0  0  0
 11 10  1  6  0  0  0
 11  1  1  0  0  0  0
 11  7  1  0  0  0  0
 12 10  2  0  0  0  0
 13 14  1  0  0  0  0
 13 15  1  0  0  0  0
 14 15  1  0  0  0  0
 14  3  1  0  0  0  0
 16 18  1  0  0  0  0
 17 15  1  0  0  0  0
 18  1  1  0  0  0  0
 18 17  1  0  0  0  0
 19 20  1  0  0  0  0
 21 22  1  0  0  0  0
 22 23  1  0  0  0  0
 23 26  1  0  0  0  0
 24 27  1  0  0  0  0
 25 29  1  0  0  0  0
 26 27  1  0  0  0  0
 26 25  1  0  0  0  0
 27 25  1  0  0  0  0
 28 30  2  0  0  0  0
 28 31  1  0  0  0  0
 29 28  1  0  0  0  0
 32 31  1  0  0  0  0
 33 32  1  0  0  0  0
 34 33  1  0  0  0  0
M  END
>  <MODEL>
7

>  <REMARK>
 VINA RESULT:      -6.3      3.349      8.882
  Name = 
  9 active torsions:
  status: ('A' for Active; 'I' for Inactive)
    1  A    between atoms: C_2  and  C_13
    2  A    between atoms: C_6  and  C_28
    3  A    between atoms: C_6  and  C_30
    4  A    between atoms: C_7  and  C_29
    5  A    between atoms: C_8  and  C_18
    6  A    between atoms: C_11  and  C_15
    7  A    between atoms: C_11  and  C_29
    8  A    between atoms: N_14  and  C_16
    9  A    between atoms: C_18  and  C_30
                            x       y       z     vdW  Elec       q    Type
                         _______ _______ _______ _____ _____    ______ ____

>  <TORSDO>
F 9

$$$$
=
 OpenBabel11052416003D

 34 38  0  0  1  0  0  0  0  0999 V2000
  189.8490  176.1500  143.9740 C   0  0  1  0  0  3  0  0  0  0  0  0
  187.6140  177.8570  146.7960 C   0  0  1  0  0  3  0  0  0  0  0  0
  184.6470  179.0390  145.7300 C   0  0  0  0  0  1  0  0  0  0  0  0
  190.0350  177.0580  146.8480 C   0  0  0  0  0  2  0  0  0  0  0  0
  190.1060  177.6300  141.8970 C   0  0  2  0  0  3  0  0  0  0  0  0
  189.6840  176.2680  142.4530 C   0  0  0  0  0  2  0  0  0  0  0  0
  191.6600  178.0160  143.8890 C   0  0  2  0  0  3  0  0  0  0  0  0
  191.0250  179.2570  144.5060 C   0  0  0  0  0  1  0  0  0  0  0  0
  191.5090  178.0210  142.3670 C   0  0  0  0  0  2  0  0  0  0  0  0
  191.2470  176.6990  146.0260 C   0  0  0  0  0  0  0  0  0  0  0  0
  191.1960  176.6830  144.5150 C   0  0  1  0  0  3  0  0  0  0  0  0
  192.2910  176.4300  146.5910 O   0  0  0  0  0  0  0  0  0  0  0  0
  186.3390  177.2480  146.1690 C   0  0  1  0  0  3  0  0  0  0  0  0
  185.1380  177.6660  145.3190 C   0  0  2  0  0  3  0  0  0  0  0  0
  186.4970  177.7690  144.7240 C   0  0  2  0  0  3  0  0  0  0  0  0
  188.8780  177.5070  145.9600 C   0  0  1  0  0  3  0  0  0  0  0  0
  187.2570  176.6170  144.0870 C   0  0  0  0  0  2  0  0  0  0  0  0
  188.6090  176.4530  144.8420 C   0  0  1  0  0  3  0  0  0  0  0  0
  187.5290  179.3520  147.0760 C   0  0  0  0  0  2  0  0  0  0  0  0
  186.6220  179.5890  148.0940 F   0  0  0  0  0  0  0  0  0  0  0  0
  189.0760  178.7240  142.1690 C   0  0  0  0  0  2  0  0  0  0  0  0
  188.0750  178.8600  141.0270 C   0  0  0  0  0  2  0  0  0  0  0  0
  186.6600  179.0390  141.5530 C   0  0  0  0  0  2  0  0  0  0  0  0
  184.0000  179.2790  142.1770 C   0  0  0  0  0  1  0  0  0  0  0  0
  184.7760  178.8300  140.0060 C   0  0  2  0  0  3  0  0  0  0  0  0
  185.7050  178.0770  140.8420 C   0  0  2  0  0  3  0  0  0  0  0  0
  184.2710  178.1970  141.2340 N   0  0  0  0  0  0  0  0  0  0  0  0
  185.1770  177.9460  137.6750 C   0  0  0  0  0  0  0  0  0  0  0  0
  184.3830  178.0280  138.8590 N   0  0  0  0  0  2  0  0  0  0  0  0
  186.3010  178.5120  137.6190 O   0  0  0  0  0  0  0  0  0  0  0  0
  184.6720  177.1890  136.4940 C   0  0  0  0  0  2  0  0  0  0  0  0
  183.1500  177.1990  136.4410 C   0  0  0  0  0  2  0  0  0  0  0  0
  182.5950  175.7930  136.2670 C   0  0  0  0  0  2  0  0  0  0  0  0
  182.6120  175.0460  137.5850 C   0  0  0  0  0  1  0  0  0  0  0  0
  1  6  1  6  0  0  0
  1 11  1  0  0  0  0
  1 18  1  0  0  0  0
  2 19  1  6  0  0  0
  5 21  1  1  0  0  0
  5  9  1  0  0  0  0
  5  6  1  0  0  0  0
  7  8  1  1  0  0  0
  7 11  1  0  0  0  0
  9  7  1  0  0  0  0
 10 12  2  0  0  0  0
 10  4  1  0  0  0  0
 11 10  1  1  0  0  0
 13  2  1  0  0  0  0
 14  3  1  0  0  0  0
 14 13  1  0  0  0  0
 15 14  1  0  0  0  0
 15 13  1  0  0  0  0
 16  2  1  0  0  0  0
 16  4  1  0  0  0  0
 17 15  1  0  0  0  0
 17 18  1  0  0  0  0
 18 16  1  0  0  0  0
 19 20  1  0  0  0  0
 22 23  1  0  0  0  0
 22 21  1  0  0  0  0
 25 26  1  0  0  0  0
 25 27  1  0  0  0  0
 26 27  1  0  0  0  0
 26 23  1  0  0  0  0
 27 24  1  0  0  0  0
 28 29  1  0  0  0  0
 29 25  1  0  0  0  0
 30 28  2  0  0  0  0
 31 28  1  0  0  0  0
 32 31  1  0  0  0  0
 33 32  1  0  0  0  0
 33 34  1  0  0  0  0
M  END
>  <MODEL>
8

>  <REMARK>
 VINA RESULT:      -6.2      2.129      2.651
  Name = 
  9 active torsions:
  status: ('A' for Active; 'I' for Inactive)
    1  A    between atoms: C_2  and  C_13
    2  A    between atoms: C_6  and  C_28
    3  A    between atoms: C_6  and  C_30
    4  A    between atoms: C_7  and  C_29
    5  A    between atoms: C_8  and  C_18
    6  A    between atoms: C_11  and  C_15
    7  A    between atoms: C_11  and  C_29
    8  A    between atoms: N_14  and  C_16
    9  A    between atoms: C_18  and  C_30
                            x       y       z     vdW  Elec       q    Type
                         _______ _______ _______ _____ _____    ______ ____

>  <TORSDO>
F 9

$$$$
=
 OpenBabel11052416003D

 34 38  0  0  1  0  0  0  0  0999 V2000
  188.8800  178.0070  136.4560 C   0  0  1  0  0  3  0  0  0  0  0  0
  186.1490  175.1450  135.9920 C   0  0  1  0  0  3  0  0  0  0  0  0
  183.3500  175.5490  137.8190 C   0  0  0  0  0  1  0  0  0  0  0  0
  188.5590  175.2930  135.1720 C   0  0  0  0  0  2  0  0  0  0  0  0
  189.4130  178.4650  138.9220 C   0  0  2  0  0  3  0  0  0  0  0  0
  188.9610  179.0480  137.5810 C   0  0  0  0  0  2  0  0  0  0  0  0
  190.6040  176.5390  137.7370 C   0  0  2  0  0  3  0  0  0  0  0  0
  189.8280  175.3470  138.2850 C   0  0  0  0  0  1  0  0  0  0  0  0
  190.7040  177.6550  138.7780 C   0  0  0  0  0  2  0  0  0  0  0  0
  189.9020  175.9510  135.3640 C   0  0  0  0  0  0  0  0  0  0  0  0
  190.0990  177.0580  136.3740 C   0  0  1  0  0  3  0  0  0  0  0  0
  190.8500  175.5710  134.7010 O   0  0  0  0  0  0  0  0  0  0  0  0
  185.0190  176.1970  136.0700 C   0  0  1  0  0  3  0  0  0  0  0  0
  183.9560  176.7030  137.0470 C   0  0  2  0  0  3  0  0  0  0  0  0
  185.3890  176.8630  137.4140 C   0  0  2  0  0  3  0  0  0  0  0  0
  187.5450  175.7990  136.1940 C   0  0  1  0  0  3  0  0  0  0  0  0
  186.2890  177.9900  136.9340 C   0  0  0  0  0  2  0  0  0  0  0  0
  187.5040  177.3580  136.1950 C   0  0  1  0  0  3  0  0  0  0  0  0
  185.9580  173.9430  136.9080 C   0  0  0  0  0  2  0  0  0  0  0  0
  187.1250  173.6970  137.6100 F   0  0  0  0  0  0  0  0  0  0  0  0
  188.3100  177.6790  139.6260 C   0  0  0  0  0  2  0  0  0  0  0  0
  188.3020  177.9320  141.1300 C   0  0  0  0  0  2  0  0  0  0  0  0
  188.9320  176.7750  141.8870 C   0  0  0  0  0  2  0  0  0  0  0  0
  190.3910  177.2830  144.1550 C   0  0  0  0  0  1  0  0  0  0  0  0
  188.1160  177.8290  143.9400 C   0  0  2  0  0  3  0  0  0  0  0  0
  188.2120  176.5620  143.2220 C   0  0  2  0  0  3  0  0  0  0  0  0
  189.0420  176.8000  144.4380 N   0  0  0  0  0  0  0  0  0  0  0  0
  185.6870  178.4020  144.3220 C   0  0  0  0  0  0  0  0  0  0  0  0
  186.9210  177.8380  144.7670 N   0  0  0  0  0  2  0  0  0  0  0  0
  185.5730  178.8450  143.1490 O   0  0  0  0  0  0  0  0  0  0  0  0
  184.5250  178.4730  145.2540 C   0  0  0  0  0  2  0  0  0  0  0  0
  183.4270  179.3720  144.7010 C   0  0  0  0  0  2  0  0  0  0  0  0
  182.2990  178.5540  144.0890 C   0  0  0  0  0  2  0  0  0  0  0  0
  181.5580  179.3650  143.0450 C   0  0  0  0  0  1  0  0  0  0  0  0
  1  6  1  1  0  0  0
  2 13  1  0  0  0  0
  2 16  1  0  0  0  0
  2 19  1  1  0  0  0
  4 10  1  0  0  0  0
  4 16  1  0  0  0  0
  5 21  1  6  0  0  0
  6  5  1  0  0  0  0
  7  8  1  1  0  0  0
  7  9  1  0  0  0  0
  9  5  1  0  0  0  0
 11 10  1  6  0  0  0
 11  1  1  0  0  0  0
 11  7  1  0  0  0  0
 12 10  2  0  0  0  0
 13 14  1  0  0  0  0
 13 15  1  0  0  0  0
 14 15  1  0  0  0  0
 14  3  1  0  0  0  0
 16 18  1  0  0  0  0
 17 15  1  0  0  0  0
 18  1  1  0  0  0  0
 18 17  1  0  0  0  0
 19 20  1  0  0  0  0
 21 22  1  0  0  0  0
 22 23  1  0  0  0  0
 23 26  1  0  0  0  0
 24 27  1  0  0  0  0
 25 27  1  0  0  0  0
 25 29  1  0  0  0  0
 26 25  1  0  0  0  0
 26 27  1  0  0  0  0
 28 29  1  0  0  0  0
 28 31  1  0  0  0  0
 30 28  2  0  0  0  0
 32 31  1  0  0  0  0
 33 32  1  0  0  0  0
 34 33  1  0  0  0  0
M  END
>  <MODEL>
9

>  <REMARK>
 VINA RESULT:      -6.1      3.619      8.348
  Name = 
  9 active torsions:
  status: ('A' for Active; 'I' for Inactive)
    1  A    between atoms: C_2  and  C_13
    2  A    between atoms: C_6  and  C_28
    3  A    between atoms: C_6  and  C_30
    4  A    between atoms: C_7  and  C_29
    5  A    between atoms: C_8  and  C_18
    6  A    between atoms: C_11  and  C_15
    7  A    between atoms: C_11  and  C_29
    8  A    between atoms: N_14  and  C_16
    9  A    between atoms: C_18  and  C_30
                            x       y       z     vdW  Elec       q    Type
                         _______ _______ _______ _____ _____    ______ ____

>  <TORSDO>
F 9

$$$$
