=
 OpenBabel11052416453D

 32 38  0  0  0  0  0  0  0  0999 V2000
  187.9710  177.8960  136.2540 N   0  0  0  0  0  0  0  0  0  0  0  0
  187.9040  177.9870  141.3610 C   0  0  0  0  0  0  0  0  0  0  0  0
  183.5950  178.7550  143.1920 C   0  0  0  0  0  0  0  0  0  0  0  0
  182.3010  178.9860  143.7340 N   0  0  0  0  0  1  0  0  0  0  0  0
  189.4540  177.5650  143.3060 C   0  0  0  0  0  0  0  0  0  0  0  0
  189.5880  177.4710  144.6890 C   0  0  0  0  0  0  0  0  0  0  0  0
  188.6290  177.9780  139.0350 C   0  0  0  0  0  0  0  0  0  0  0  0
  186.3390  178.3930  139.5660 N   0  0  0  0  0  0  0  0  0  0  0  0
  189.0920  177.4470  146.8480 C   0  0  0  0  0  0  0  0  0  0  0  0
  186.9740  178.4490  137.1790 C   0  0  0  0  0  2  0  0  0  0  0  0
  183.9450  178.7710  141.5420 S   0  0  0  0  0  0  0  0  0  0  0  0
  186.5930  178.2720  140.8970 C   0  0  0  0  0  0  0  0  0  0  0  0
  185.5700  178.4310  141.8250 C   0  0  0  0  0  0  0  0  0  0  0  0
  187.0600  178.0330  143.6860 C   0  0  0  0  0  0  0  0  0  0  0  0
  190.4720  177.1240  146.6750 N   0  0  0  0  0  0  0  0  0  0  0  0
  189.3330  178.2810  136.6530 C   0  0  0  0  0  2  0  0  0  0  0  0
  187.3120  178.2390  138.6310 C   0  0  0  0  0  0  0  0  0  0  0  0
  190.7630  177.1500  145.4320 N   0  0  0  0  0  0  0  0  0  0  0  0
  189.7150  177.7400  138.0350 C   0  0  0  0  0  2  0  0  0  0  0  0
  184.6780  178.4980  143.9590 N   0  0  0  0  0  0  0  0  0  0  0  0
  185.7840  178.3160  143.1880 C   0  0  0  0  0  0  0  0  0  0  0  0
  187.2530  177.9200  145.0760 C   0  0  0  0  0  3  0  0  0  0  0  0
  188.9080  177.8390  140.3940 C   0  0  0  0  0  3  0  0  0  0  0  0
  190.6050  177.3570  142.4900 N   0  0  0  0  0  1  0  0  0  0  0  0
  188.2550  177.1800  148.2260 S   0  0  0  0  0  0  0  0  0  0  0  0
  188.1600  177.8600  142.7670 C   0  0  0  0  0  0  0  0  0  0  0  0
  188.5320  177.6450  145.5310 C   0  0  0  0  0  0  0  0  0  0  0  0
  187.8340  176.4420  136.1960 C   0  0  0  0  0  2  0  0  0  0  0  0
  186.4040  176.0720  135.8540 C   0  0  0  0  0  2  0  0  0  0  0  0
  185.9160  175.0950  136.8100 N   0  0  0  0  0  0  0  0  0  0  0  0
  184.5390  175.4900  137.1440 C   0  0  0  0  0  2  0  0  0  0  0  0
  184.7700  174.4270  136.1760 C   0  0  0  0  0  2  0  0  0  0  0  0
  1 16  1  0  0  0  0
  1 10  1  0  0  0  0
  2 26  1  0  0  0  0
  3  4  1  0  0  0  0
  3 20  2  0  0  0  0
  5  6  1  0  0  0  0
  6 18  1  0  0  0  0
  6 27  2  0  0  0  0
  7 23  1  0  0  0  0
  8 12  2  0  0  0  0
  9 25  2  0  0  0  0
 10 17  1  0  0  0  0
 11 13  1  0  0  0  0
 11  3  1  0  0  0  0
 12  2  1  0  0  0  0
 12 13  1  0  0  0  0
 13 21  2  0  0  0  0
 14 22  2  0  0  0  0
 15  9  1  0  0  0  0
 16 19  1  0  0  0  0
 17  7  2  0  0  0  0
 17  8  1  0  0  0  0
 18 15  2  0  0  0  0
 19  7  1  0  0  0  0
 21 14  1  0  0  0  0
 21 20  1  0  0  0  0
 22 27  1  0  0  0  0
 23  2  2  0  0  0  0
 24  5  1  0  0  0  0
 26  5  2  0  0  0  0
 26 14  1  0  0  0  0
 27  9  1  0  0  0  0
 28  1  1  0  0  0  0
 29 28  1  0  0  0  0
 29 30  1  0  0  0  0
 30 31  1  0  0  0  0
 32 30  1  0  0  0  0
 32 31  1  0  0  0  0
M  END
>  <MODEL>
1

>  <REMARK>
 VINA RESULT:      -9.1      0.000      0.000
  Name = 
  3 active torsions:
  status: ('A' for Active; 'I' for Inactive)
    1  A    between atoms: N_1  and  C_10
    2  A    between atoms: N_2  and  C_24
    3  A    between atoms: C_10  and  C_24
                            x       y       z     vdW  Elec       q    Type
                         _______ _______ _______ _____ _____    ______ ____

>  <TORSDO>
F 3

$$$$
=
 OpenBabel11052416453D

 32 38  0  0  0  0  0  0  0  0999 V2000
  181.7230  179.7900  138.3770 N   0  0  0  0  0  0  0  0  0  0  0  0
  185.2380  178.4690  141.8400 C   0  0  0  0  0  0  0  0  0  0  0  0
  189.5380  177.7010  139.9880 C   0  0  0  0  0  0  0  0  0  0  0  0
  190.8240  177.4720  139.4260 N   0  0  0  0  0  1  0  0  0  0  0  0
  185.4770  178.2550  144.3430 C   0  0  0  0  0  0  0  0  0  0  0  0
  186.3300  177.9970  145.4130 C   0  0  0  0  0  0  0  0  0  0  0  0
  183.1300  178.9720  140.7280 C   0  0  0  0  0  0  0  0  0  0  0  0
  185.1130  178.6640  139.4360 N   0  0  0  0  0  0  0  0  0  0  0  0
  188.1620  177.5440  146.5740 C   0  0  0  0  0  0  0  0  0  0  0  0
  183.0230  179.1280  138.2040 C   0  0  0  0  0  2  0  0  0  0  0  0
  188.1590  178.0520  139.0810 S   0  0  0  0  0  0  0  0  0  0  0  0
  185.8470  178.4330  140.5580 C   0  0  0  0  0  0  0  0  0  0  0  0
  187.2050  178.1550  140.4650 C   0  0  0  0  0  0  0  0  0  0  0  0
  187.4280  177.9420  142.8630 C   0  0  0  0  0  0  0  0  0  0  0  0
  187.0730  177.7650  147.4720 N   0  0  0  0  0  0  0  0  0  0  0  0
  180.9680  179.1890  139.4860 C   0  0  0  0  0  2  0  0  0  0  0  0
  183.7860  178.9460  139.4890 C   0  0  0  0  0  0  0  0  0  0  0  0
  186.0140  178.0120  146.8040 N   0  0  0  0  0  0  0  0  0  0  0  0
  181.6840  179.3390  140.8330 C   0  0  0  0  0  2  0  0  0  0  0  0
  189.2980  177.6580  141.3180 N   0  0  0  0  0  0  0  0  0  0  0  0
  187.9880  177.9140  141.5820 C   0  0  0  0  0  0  0  0  0  0  0  0
  188.2450  177.6960  143.9830 C   0  0  0  0  0  3  0  0  0  0  0  0
  183.8650  178.7490  141.8910 C   0  0  0  0  0  3  0  0  0  0  0  0
  184.1060  178.5420  144.6120 N   0  0  0  0  0  1  0  0  0  0  0  0
  189.7330  177.5480  147.0220 S   0  0  0  0  0  0  0  0  0  0  0  0
  186.0200  178.2260  143.0180 C   0  0  0  0  0  0  0  0  0  0  0  0
  187.6520  177.7270  145.2340 C   0  0  0  0  0  0  0  0  0  0  0  0
  181.9260  181.2200  138.5960 C   0  0  0  0  0  2  0  0  0  0  0  0
  181.0790  182.0180  137.6220 C   0  0  0  0  0  2  0  0  0  0  0  0
  181.4540  183.4180  137.6900 N   0  0  0  0  0  0  0  0  0  0  0  0
  181.0280  184.0260  136.4200 C   0  0  0  0  0  2  0  0  0  0  0  0
  180.2050  184.1890  137.6100 C   0  0  0  0  0  2  0  0  0  0  0  0
  1 28  1  0  0  0  0
  1 16  1  0  0  0  0
  2 23  1  0  0  0  0
  2 26  1  0  0  0  0
  3 20  2  0  0  0  0
  4  3  1  0  0  0  0
  5 24  1  0  0  0  0
  5  6  1  0  0  0  0
  6 18  1  0  0  0  0
  7 19  1  0  0  0  0
  7 23  2  0  0  0  0
  8 17  2  0  0  0  0
  8 12  1  0  0  0  0
  9 25  2  0  0  0  0
  9 15  1  0  0  0  0
 10  1  1  0  0  0  0
 10 17  1  0  0  0  0
 11  3  1  0  0  0  0
 11 13  1  0  0  0  0
 12  2  2  0  0  0  0
 13 12  1  0  0  0  0
 13 21  2  0  0  0  0
 14 26  1  0  0  0  0
 14 22  2  0  0  0  0
 16 19  1  0  0  0  0
 17  7  1  0  0  0  0
 18 15  2  0  0  0  0
 20 21  1  0  0  0  0
 21 14  1  0  0  0  0
 22 27  1  0  0  0  0
 26  5  2  0  0  0  0
 27  6  2  0  0  0  0
 27  9  1  0  0  0  0
 29 30  1  0  0  0  0
 29 28  1  0  0  0  0
 31 32  1  0  0  0  0
 31 30  1  0  0  0  0
 32 30  1  0  0  0  0
M  END
>  <MODEL>
2

>  <REMARK>
 VINA RESULT:      -8.7      3.673      5.761
  Name = 
  3 active torsions:
  status: ('A' for Active; 'I' for Inactive)
    1  A    between atoms: N_1  and  C_10
    2  A    between atoms: N_2  and  C_24
    3  A    between atoms: C_10  and  C_24
                            x       y       z     vdW  Elec       q    Type
                         _______ _______ _______ _____ _____    ______ ____

>  <TORSDO>
F 3

$$$$
=
 OpenBabel11052416453D

 32 38  0  0  0  0  0  0  0  0999 V2000
  190.3090  176.4460  136.8710 N   0  0  0  0  0  0  0  0  0  0  0  0
  189.2880  177.3220  141.7990 C   0  0  0  0  0  0  0  0  0  0  0  0
  184.8530  178.8120  142.5870 C   0  0  0  0  0  0  0  0  0  0  0  0
  183.5230  179.2590  142.8160 N   0  0  0  0  0  1  0  0  0  0  0  0
  190.3710  177.0400  144.0600 C   0  0  0  0  0  0  0  0  0  0  0  0
  190.2270  177.1440  145.4420 C   0  0  0  0  0  0  0  0  0  0  0  0
  190.4330  176.8820  139.6940 C   0  0  0  0  0  0  0  0  0  0  0  0
  188.1600  177.6130  139.6830 N   0  0  0  0  0  0  0  0  0  0  0  0
  189.3320  177.5020  147.4370 C   0  0  0  0  0  0  0  0  0  0  0  0
  189.2370  177.2370  137.4910 C   0  0  0  0  0  2  0  0  0  0  0  0
  185.5080  178.5390  141.0560 S   0  0  0  0  0  0  0  0  0  0  0  0
  188.1380  177.6710  141.0420 C   0  0  0  0  0  0  0  0  0  0  0  0
  186.9890  178.0760  141.7100 C   0  0  0  0  0  0  0  0  0  0  0  0
  188.0330  177.8110  143.8750 C   0  0  0  0  0  0  0  0  0  0  0  0
  190.6640  177.0120  147.5950 N   0  0  0  0  0  0  0  0  0  0  0  0
  191.6090  176.7420  137.4890 C   0  0  0  0  0  2  0  0  0  0  0  0
  189.2630  177.2160  138.9970 C   0  0  0  0  0  0  0  0  0  0  0  0
  191.1860  176.8170  146.4460 N   0  0  0  0  0  0  0  0  0  0  0  0
  191.6460  176.3810  138.9790 C   0  0  0  0  0  2  0  0  0  0  0  0
  185.7270  178.5610  143.5880 N   0  0  0  0  0  0  0  0  0  0  0  0
  186.9240  178.1480  143.0910 C   0  0  0  0  0  0  0  0  0  0  0  0
  187.9420  177.8910  145.2770 C   0  0  0  0  0  3  0  0  0  0  0  0
  190.4280  176.9230  141.0880 C   0  0  0  0  0  3  0  0  0  0  0  0
  191.6170  176.5890  143.5330 N   0  0  0  0  0  1  0  0  0  0  0  0
  188.2210  177.5380  148.6350 S   0  0  0  0  0  0  0  0  0  0  0  0
  189.2540  177.3840  143.2320 C   0  0  0  0  0  0  0  0  0  0  0  0
  189.0630  177.5550  146.0170 C   0  0  0  0  0  0  0  0  0  0  0  0
  189.9910  175.0240  136.9730 C   0  0  0  0  0  2  0  0  0  0  0  0
  188.5930  174.7670  136.4440 C   0  0  0  0  0  2  0  0  0  0  0  0
  188.1860  173.4170  136.7870 N   0  0  0  0  0  0  0  0  0  0  0  0
  186.7290  173.4580  136.9860 C   0  0  0  0  0  2  0  0  0  0  0  0
  187.2720  172.9740  135.7240 C   0  0  0  0  0  2  0  0  0  0  0  0
  1 28  1  0  0  0  0
  1 16  1  0  0  0  0
  1 10  1  0  0  0  0
  2 26  1  0  0  0  0
  3  4  1  0  0  0  0
  3 20  2  0  0  0  0
  5  6  1  0  0  0  0
  6 27  2  0  0  0  0
  6 18  1  0  0  0  0
  7 23  2  0  0  0  0
  8 12  1  0  0  0  0
  9 15  1  0  0  0  0
  9 25  2  0  0  0  0
 10 17  1  0  0  0  0
 11 13  1  0  0  0  0
 11  3  1  0  0  0  0
 12 13  1  0  0  0  0
 12  2  2  0  0  0  0
 13 21  2  0  0  0  0
 14 22  2  0  0  0  0
 16 19  1  0  0  0  0
 17  8  2  0  0  0  0
 17  7  1  0  0  0  0
 18 15  2  0  0  0  0
 19  7  1  0  0  0  0
 21 20  1  0  0  0  0
 21 14  1  0  0  0  0
 22 27  1  0  0  0  0
 23  2  1  0  0  0  0
 24  5  1  0  0  0  0
 26 14  1  0  0  0  0
 26  5  2  0  0  0  0
 27  9  1  0  0  0  0
 29 30  1  0  0  0  0
 29 28  1  0  0  0  0
 30 31  1  0  0  0  0
 32 30  1  0  0  0  0
 32 31  1  0  0  0  0
M  END
>  <MODEL>
3

>  <REMARK>
 VINA RESULT:      -8.7      1.638      1.901
  Name = 
  3 active torsions:
  status: ('A' for Active; 'I' for Inactive)
    1  A    between atoms: N_1  and  C_10
    2  A    between atoms: N_2  and  C_24
    3  A    between atoms: C_10  and  C_24
                            x       y       z     vdW  Elec       q    Type
                         _______ _______ _______ _____ _____    ______ ____

>  <TORSDO>
F 3

$$$$
=
 OpenBabel11052416453D

 32 38  0  0  0  0  0  0  0  0999 V2000
  180.1330  178.9820  142.2460 N   0  0  0  0  0  0  0  0  0  0  0  0
  185.2120  178.4770  142.4530 C   0  0  0  0  0  0  0  0  0  0  0  0
  186.8980  178.0110  146.8640 C   0  0  0  0  0  0  0  0  0  0  0  0
  187.3960  177.8730  148.1880 N   0  0  0  0  0  1  0  0  0  0  0  0
  187.1760  178.2080  140.8940 C   0  0  0  0  0  0  0  0  0  0  0  0
  188.5470  177.9920  140.7740 C   0  0  0  0  0  0  0  0  0  0  0  0
  182.9370  178.9000  141.6920 C   0  0  0  0  0  0  0  0  0  0  0  0
  183.3940  178.7090  144.0270 N   0  0  0  0  0  0  0  0  0  0  0  0
  190.6650  177.6090  141.3010 C   0  0  0  0  0  0  0  0  0  0  0  0
  181.0600  179.1810  143.3680 C   0  0  0  0  0  2  0  0  0  0  0  0
  185.2770  178.2950  146.4880 S   0  0  0  0  0  0  0  0  0  0  0  0
  184.7160  178.5000  143.7840 C   0  0  0  0  0  0  0  0  0  0  0  0
  185.6040  178.3110  144.8360 C   0  0  0  0  0  0  0  0  0  0  0  0
  187.4850  178.0620  143.3390 C   0  0  0  0  0  0  0  0  0  0  0  0
  190.5270  177.6370  139.8800 N   0  0  0  0  0  0  0  0  0  0  0  0
  180.6370  179.6260  141.0240 C   0  0  0  0  0  2  0  0  0  0  0  0
  182.4980  178.8920  143.0240 C   0  0  0  0  0  0  0  0  0  0  0  0
  189.3100  177.8700  139.5740 N   0  0  0  0  0  0  0  0  0  0  0  0
  181.9720  179.0350  140.5570 C   0  0  0  0  0  2  0  0  0  0  0  0
  187.6860  177.9270  145.7690 N   0  0  0  0  0  0  0  0  0  0  0  0
  186.9560  178.0950  144.6330 C   0  0  0  0  0  0  0  0  0  0  0  0
  188.8630  177.8400  143.1570 C   0  0  0  0  0  3  0  0  0  0  0  0
  184.2860  178.6760  141.4200 C   0  0  0  0  0  3  0  0  0  0  0  0
  186.4010  178.3670  139.7070 N   0  0  0  0  0  1  0  0  0  0  0  0
  191.9640  177.0010  142.0830 S   0  0  0  0  0  0  0  0  0  0  0  0
  186.6070  178.2540  142.2070 C   0  0  0  0  0  0  0  0  0  0  0  0
  189.3490  177.8200  141.8610 C   0  0  0  0  0  0  0  0  0  0  0  0
  179.9170  177.5530  142.0350 C   0  0  0  0  0  2  0  0  0  0  0  0
  178.9320  177.3410  140.9010 C   0  0  0  0  0  2  0  0  0  0  0  0
  179.0010  175.9620  140.4530 N   0  0  0  0  0  0  0  0  0  0  0  0
  178.9870  176.0000  138.9820 C   0  0  0  0  0  2  0  0  0  0  0  0
  180.2500  175.8320  139.6890 C   0  0  0  0  0  2  0  0  0  0  0  0
  1 10  1  0  0  0  0
  2 12  1  0  0  0  0
  3  4  1  0  0  0  0
  5 26  1  0  0  0  0
  6  5  2  0  0  0  0
  6 27  1  0  0  0  0
  7 17  1  0  0  0  0
  9 27  1  0  0  0  0
  9 25  2  0  0  0  0
 11  3  1  0  0  0  0
 12  8  1  0  0  0  0
 12 13  2  0  0  0  0
 13 11  1  0  0  0  0
 14 21  2  0  0  0  0
 15  9  1  0  0  0  0
 16  1  1  0  0  0  0
 17 10  1  0  0  0  0
 17  8  2  0  0  0  0
 18 15  2  0  0  0  0
 18  6  1  0  0  0  0
 19 16  1  0  0  0  0
 19  7  1  0  0  0  0
 20  3  2  0  0  0  0
 21 13  1  0  0  0  0
 21 20  1  0  0  0  0
 22 14  1  0  0  0  0
 23  7  2  0  0  0  0
 23  2  1  0  0  0  0
 24  5  1  0  0  0  0
 26  2  2  0  0  0  0
 26 14  1  0  0  0  0
 27 22  2  0  0  0  0
 28  1  1  0  0  0  0
 29 28  1  0  0  0  0
 30 29  1  0  0  0  0
 31 32  1  0  0  0  0
 31 30  1  0  0  0  0
 32 30  1  0  0  0  0
M  END
>  <MODEL>
4

>  <REMARK>
 VINA RESULT:      -8.2      3.060      6.058
  Name = 
  3 active torsions:
  status: ('A' for Active; 'I' for Inactive)
    1  A    between atoms: N_1  and  C_10
    2  A    between atoms: N_2  and  C_24
    3  A    between atoms: C_10  and  C_24
                            x       y       z     vdW  Elec       q    Type
                         _______ _______ _______ _____ _____    ______ ____

>  <TORSDO>
F 3

$$$$
=
 OpenBabel11052416453D

 32 38  0  0  0  0  0  0  0  0999 V2000
  180.3230  179.1430  138.8510 N   0  0  0  0  0  0  0  0  0  0  0  0
  184.9670  178.6130  140.9120 C   0  0  0  0  0  0  0  0  0  0  0  0
  184.9440  178.5220  145.6550 C   0  0  0  0  0  0  0  0  0  0  0  0
  184.9290  178.4960  147.0770 N   0  0  0  0  0  1  0  0  0  0  0  0
  187.3480  178.1910  140.1900 C   0  0  0  0  0  0  0  0  0  0  0  0
  188.6610  177.9530  140.5890 C   0  0  0  0  0  0  0  0  0  0  0  0
  183.1340  178.9870  139.3520 C   0  0  0  0  0  0  0  0  0  0  0  0
  182.7180  178.9980  141.7020 N   0  0  0  0  0  0  0  0  0  0  0  0
  190.4330  177.6000  141.8710 C   0  0  0  0  0  0  0  0  0  0  0  0
  180.7950  179.4310  140.2120 C   0  0  0  0  0  2  0  0  0  0  0  0
  183.5770  178.7860  144.7010 S   0  0  0  0  0  0  0  0  0  0  0  0
  184.0300  178.7580  141.9680 C   0  0  0  0  0  0  0  0  0  0  0  0
  184.4740  178.6540  143.2810 C   0  0  0  0  0  0  0  0  0  0  0  0
  186.7550  178.2570  142.5850 C   0  0  0  0  0  0  0  0  0  0  0  0
  190.8130  177.5030  140.4980 N   0  0  0  0  0  0  0  0  0  0  0  0
  181.2560  179.6720  137.8450 C   0  0  0  0  0  2  0  0  0  0  0  0
  182.2470  179.1000  140.4320 C   0  0  0  0  0  0  0  0  0  0  0  0
  189.7970  177.7200  139.7570 N   0  0  0  0  0  0  0  0  0  0  0  0
  182.6450  179.0310  137.9390 C   0  0  0  0  0  2  0  0  0  0  0  0
  186.0680  178.3350  144.9280 N   0  0  0  0  0  0  0  0  0  0  0  0
  185.7990  178.4090  143.5960 C   0  0  0  0  0  0  0  0  0  0  0  0
  188.0960  178.0080  142.9300 C   0  0  0  0  0  3  0  0  0  0  0  0
  184.4810  178.7290  139.6020 C   0  0  0  0  0  3  0  0  0  0  0  0
  187.0550  178.2520  138.7950 N   0  0  0  0  0  1  0  0  0  0  0  0
  191.3410  177.0510  143.1140 S   0  0  0  0  0  0  0  0  0  0  0  0
  186.3490  178.3570  141.2030 C   0  0  0  0  0  0  0  0  0  0  0  0
  189.0130  177.8700  141.9020 C   0  0  0  0  0  0  0  0  0  0  0  0
  180.1410  177.7020  138.6900 C   0  0  0  0  0  2  0  0  0  0  0  0
  179.4980  177.1200  139.9340 C   0  0  0  0  0  2  0  0  0  0  0  0
  180.1830  175.8960  140.3040 N   0  0  0  0  0  0  0  0  0  0  0  0
  179.1430  174.9540  140.7480 C   0  0  0  0  0  2  0  0  0  0  0  0
  179.6850  174.8490  139.4000 C   0  0  0  0  0  2  0  0  0  0  0  0
  1 10  1  0  0  0  0
  2 26  2  0  0  0  0
  2 12  1  0  0  0  0
  3  4  1  0  0  0  0
  5  6  2  0  0  0  0
  5 26  1  0  0  0  0
  6 27  1  0  0  0  0
  7 23  2  0  0  0  0
  7 17  1  0  0  0  0
  8 12  1  0  0  0  0
  9 27  1  0  0  0  0
  9 25  2  0  0  0  0
 10 17  1  0  0  0  0
 11  3  1  0  0  0  0
 12 13  2  0  0  0  0
 13 21  1  0  0  0  0
 13 11  1  0  0  0  0
 14 22  1  0  0  0  0
 14 21  2  0  0  0  0
 15  9  1  0  0  0  0
 16 19  1  0  0  0  0
 16  1  1  0  0  0  0
 17  8  2  0  0  0  0
 18 15  2  0  0  0  0
 18  6  1  0  0  0  0
 19  7  1  0  0  0  0
 20  3  2  0  0  0  0
 21 20  1  0  0  0  0
 23  2  1  0  0  0  0
 24  5  1  0  0  0  0
 26 14  1  0  0  0  0
 27 22  2  0  0  0  0
 28  1  1  0  0  0  0
 28 29  1  0  0  0  0
 29 30  1  0  0  0  0
 30 31  1  0  0  0  0
 32 30  1  0  0  0  0
 32 31  1  0  0  0  0
M  END
>  <MODEL>
5

>  <REMARK>
 VINA RESULT:      -8.0      3.371      5.220
  Name = 
  3 active torsions:
  status: ('A' for Active; 'I' for Inactive)
    1  A    between atoms: N_1  and  C_10
    2  A    between atoms: N_2  and  C_24
    3  A    between atoms: C_10  and  C_24
                            x       y       z     vdW  Elec       q    Type
                         _______ _______ _______ _____ _____    ______ ____

>  <TORSDO>
F 3

$$$$
=
 OpenBabel11052416453D

 32 38  0  0  0  0  0  0  0  0999 V2000
  189.3930  177.6850  147.2650 N   0  0  0  0  0  0  0  0  0  0  0  0
  185.7340  178.4950  143.7940 C   0  0  0  0  0  0  0  0  0  0  0  0
  187.3010  178.3850  139.3170 C   0  0  0  0  0  0  0  0  0  0  0  0
  187.7780  178.3510  137.9780 N   0  0  0  0  0  1  0  0  0  0  0  0
  183.2290  178.7730  143.6780 C   0  0  0  0  0  0  0  0  0  0  0  0
  182.1100  178.9180  142.8620 C   0  0  0  0  0  0  0  0  0  0  0  0
  186.9760  178.3360  145.8830 C   0  0  0  0  0  0  0  0  0  0  0  0
  188.1340  178.2200  143.7990 N   0  0  0  0  0  0  0  0  0  0  0  0
  180.8370  179.0810  141.0560 C   0  0  0  0  0  0  0  0  0  0  0  0
  189.4950  178.0910  145.8570 C   0  0  0  0  0  2  0  0  0  0  0  0
  188.2920  178.2510  140.6770 S   0  0  0  0  0  0  0  0  0  0  0  0
  186.9700  178.3630  143.1080 C   0  0  0  0  0  0  0  0  0  0  0  0
  186.9760  178.3860  141.7190 C   0  0  0  0  0  0  0  0  0  0  0  0
  184.5760  178.6590  141.6130 C   0  0  0  0  0  0  0  0  0  0  0  0
  180.0120  179.1020  142.2220 N   0  0  0  0  0  0  0  0  0  0  0  0
  188.3600  178.4620  147.9650 C   0  0  0  0  0  2  0  0  0  0  0  0
  188.1660  178.1880  145.1560 C   0  0  0  0  0  0  0  0  0  0  0  0
  180.7440  179.0220  143.2640 N   0  0  0  0  0  0  0  0  0  0  0  0
  186.9620  178.2440  147.3760 C   0  0  0  0  0  2  0  0  0  0  0  0
  185.9940  178.5290  139.6290 N   0  0  0  0  0  0  0  0  0  0  0  0
  185.8150  178.5280  140.9780 C   0  0  0  0  0  0  0  0  0  0  0  0
  183.4100  178.8020  140.8380 C   0  0  0  0  0  3  0  0  0  0  0  0
  185.7710  178.4730  145.1950 C   0  0  0  0  0  3  0  0  0  0  0  0
  183.0480  178.7530  145.0930 N   0  0  0  0  0  1  0  0  0  0  0  0
  180.2800  178.8100  139.5440 S   0  0  0  0  0  0  0  0  0  0  0  0
  184.5130  178.6440  143.0560 C   0  0  0  0  0  0  0  0  0  0  0  0
  182.2040  178.9350  141.5040 C   0  0  0  0  0  0  0  0  0  0  0  0
  189.1150  176.2530  147.3440 C   0  0  0  0  0  2  0  0  0  0  0  0
  190.3780  175.5020  147.7180 C   0  0  0  0  0  2  0  0  0  0  0  0
  191.5310  176.3570  147.5050 N   0  0  0  0  0  0  0  0  0  0  0  0
  192.6950  175.6280  148.0320 C   0  0  0  0  0  2  0  0  0  0  0  0
  192.4310  175.6280  146.6000 C   0  0  0  0  0  2  0  0  0  0  0  0
  1 28  1  0  0  0  0
  1 16  1  0  0  0  0
  2 23  2  0  0  0  0
  3 20  2  0  0  0  0
  3 11  1  0  0  0  0
  4  3  1  0  0  0  0
  5 24  1  0  0  0  0
  6 18  1  0  0  0  0
  6  5  2  0  0  0  0
  7 19  1  0  0  0  0
  8 17  1  0  0  0  0
  9 27  1  0  0  0  0
  9 15  1  0  0  0  0
 10  1  1  0  0  0  0
 11 13  1  0  0  0  0
 12  2  1  0  0  0  0
 12  8  2  0  0  0  0
 13 12  1  0  0  0  0
 14 26  2  0  0  0  0
 15 18  2  0  0  0  0
 17 10  1  0  0  0  0
 17  7  2  0  0  0  0
 19 16  1  0  0  0  0
 20 21  1  0  0  0  0
 21 14  1  0  0  0  0
 21 13  2  0  0  0  0
 22 27  2  0  0  0  0
 22 14  1  0  0  0  0
 23  7  1  0  0  0  0
 25  9  2  0  0  0  0
 26  5  1  0  0  0  0
 26  2  1  0  0  0  0
 27  6  1  0  0  0  0
 28 29  1  0  0  0  0
 30 29  1  0  0  0  0
 30 31  1  0  0  0  0
 32 30  1  0  0  0  0
 32 31  1  0  0  0  0
M  END
>  <MODEL>
6

>  <REMARK>
 VINA RESULT:      -8.0      2.782      8.456
  Name = 
  3 active torsions:
  status: ('A' for Active; 'I' for Inactive)
    1  A    between atoms: N_1  and  C_10
    2  A    between atoms: N_2  and  C_24
    3  A    between atoms: C_10  and  C_24
                            x       y       z     vdW  Elec       q    Type
                         _______ _______ _______ _____ _____    ______ ____

>  <TORSDO>
F 3

$$$$
=
 OpenBabel11052416453D

 32 38  0  0  0  0  0  0  0  0999 V2000
  191.7240  177.5810  143.5120 N   0  0  0  0  0  0  0  0  0  0  0  0
  187.7680  178.0780  140.3180 C   0  0  0  0  0  0  0  0  0  0  0  0
  188.6000  176.3520  135.9780 C   0  0  0  0  0  0  0  0  0  0  0  0
  188.8560  175.8330  134.6790 N   0  0  0  0  0  1  0  0  0  0  0  0
  185.3560  178.8180  140.3550 C   0  0  0  0  0  0  0  0  0  0  0  0
  184.1660  178.9450  139.6420 C   0  0  0  0  0  0  0  0  0  0  0  0
  189.2680  178.2830  142.2270 C   0  0  0  0  0  0  0  0  0  0  0  0
  190.0610  177.3310  140.1860 N   0  0  0  0  0  0  0  0  0  0  0  0
  182.6800  178.8320  138.0030 C   0  0  0  0  0  0  0  0  0  0  0  0
  191.6780  177.5300  142.0440 C   0  0  0  0  0  2  0  0  0  0  0  0
  189.7480  176.4190  137.2120 S   0  0  0  0  0  0  0  0  0  0  0  0
  188.8470  177.5020  139.5970 C   0  0  0  0  0  0  0  0  0  0  0  0
  188.6460  177.1180  138.2770 C   0  0  0  0  0  0  0  0  0  0  0  0
  186.3370  177.8340  138.3140 C   0  0  0  0  0  0  0  0  0  0  0  0
  182.0560  179.3600  139.1740 N   0  0  0  0  0  0  0  0  0  0  0  0
  190.9520  178.7230  144.0250 C   0  0  0  0  0  2  0  0  0  0  0  0
  190.2920  177.6890  141.4760 C   0  0  0  0  0  0  0  0  0  0  0  0
  182.9140  179.4380  140.1160 N   0  0  0  0  0  0  0  0  0  0  0  0
  189.4640  178.6340  143.6670 C   0  0  0  0  0  2  0  0  0  0  0  0
  187.3970  176.8450  136.3480 N   0  0  0  0  0  0  0  0  0  0  0  0
  187.4270  177.2730  137.6400 C   0  0  0  0  0  0  0  0  0  0  0  0
  185.1080  177.9810  137.6450 C   0  0  0  0  0  3  0  0  0  0  0  0
  188.0130  178.4570  141.6450 C   0  0  0  0  0  3  0  0  0  0  0  0
  185.3910  179.2470  141.7150 N   0  0  0  0  0  1  0  0  0  0  0  0
  181.8630  178.2530  136.7120 S   0  0  0  0  0  0  0  0  0  0  0  0
  186.4910  178.2530  139.6880 C   0  0  0  0  0  0  0  0  0  0  0  0
  184.0550  178.5460  138.3450 C   0  0  0  0  0  0  0  0  0  0  0  0
  191.2270  176.3230  144.0620 C   0  0  0  0  0  2  0  0  0  0  0  0
  190.8500  176.5090  145.5200 C   0  0  0  0  0  2  0  0  0  0  0  0
  192.0550  176.6570  146.3150 N   0  0  0  0  0  0  0  0  0  0  0  0
  191.6210  176.7530  147.7170 C   0  0  0  0  0  2  0  0  0  0  0  0
  192.1180  175.4850  147.2000 C   0  0  0  0  0  2  0  0  0  0  0  0
  1 16  1  0  0  0  0
  1 28  1  0  0  0  0
  2 23  2  0  0  0  0
  3 20  2  0  0  0  0
  3 11  1  0  0  0  0
  4  3  1  0  0  0  0
  5 24  1  0  0  0  0
  6 18  1  0  0  0  0
  6  5  2  0  0  0  0
  7 19  1  0  0  0  0
  8 17  1  0  0  0  0
  9 27  1  0  0  0  0
  9 15  1  0  0  0  0
 10  1  1  0  0  0  0
 11 13  1  0  0  0  0
 12  8  2  0  0  0  0
 12  2  1  0  0  0  0
 13 12  1  0  0  0  0
 14 26  2  0  0  0  0
 15 18  2  0  0  0  0
 17 10  1  0  0  0  0
 17  7  2  0  0  0  0
 19 16  1  0  0  0  0
 20 21  1  0  0  0  0
 21 13  2  0  0  0  0
 21 14  1  0  0  0  0
 22 14  1  0  0  0  0
 22 27  2  0  0  0  0
 23  7  1  0  0  0  0
 25  9  2  0  0  0  0
 26  2  1  0  0  0  0
 26  5  1  0  0  0  0
 27  6  1  0  0  0  0
 28 29  1  0  0  0  0
 29 30  1  0  0  0  0
 30 32  1  0  0  0  0
 30 31  1  0  0  0  0
 32 31  1  0  0  0  0
M  END
>  <MODEL>
7

>  <REMARK>
 VINA RESULT:      -7.5      2.970      8.159
  Name = 
  3 active torsions:
  status: ('A' for Active; 'I' for Inactive)
    1  A    between atoms: N_1  and  C_10
    2  A    between atoms: N_2  and  C_24
    3  A    between atoms: C_10  and  C_24
                            x       y       z     vdW  Elec       q    Type
                         _______ _______ _______ _____ _____    ______ ____

>  <TORSDO>
F 3

$$$$
=
 OpenBabel11052416453D

 32 38  0  0  0  0  0  0  0  0999 V2000
  191.6030  177.2820  144.2160 N   0  0  0  0  0  0  0  0  0  0  0  0
  187.0840  178.2700  142.0500 C   0  0  0  0  0  0  0  0  0  0  0  0
  187.2270  178.3640  137.3090 C   0  0  0  0  0  0  0  0  0  0  0  0
  187.2770  178.3910  135.8880 N   0  0  0  0  0  1  0  0  0  0  0  0
  184.6660  178.5630  142.7090 C   0  0  0  0  0  0  0  0  0  0  0  0
  183.3560  178.7510  142.2760 C   0  0  0  0  0  0  0  0  0  0  0  0
  188.8940  178.0080  143.6580 C   0  0  0  0  0  0  0  0  0  0  0  0
  189.3680  177.9850  141.3190 N   0  0  0  0  0  0  0  0  0  0  0  0
  181.6010  179.0030  140.9470 C   0  0  0  0  0  0  0  0  0  0  0  0
  191.2840  177.7540  142.8620 C   0  0  0  0  0  2  0  0  0  0  0  0
  188.5780  178.1620  138.2990 S   0  0  0  0  0  0  0  0  0  0  0  0
  188.0530  178.1650  141.0190 C   0  0  0  0  0  0  0  0  0  0  0  0
  187.6400  178.2530  139.6940 C   0  0  0  0  0  0  0  0  0  0  0  0
  185.3260  178.5410  140.3300 C   0  0  0  0  0  0  0  0  0  0  0  0
  181.1660  178.9730  142.3070 N   0  0  0  0  0  0  0  0  0  0  0  0
  190.8440  178.0300  145.2280 C   0  0  0  0  0  2  0  0  0  0  0  0
  189.8070  177.8890  142.6000 C   0  0  0  0  0  0  0  0  0  0  0  0
  182.1770  178.8410  143.0750 N   0  0  0  0  0  0  0  0  0  0  0  0
  189.3290  177.8450  145.0800 C   0  0  0  0  0  2  0  0  0  0  0  0
  186.0770  178.4980  138.0070 N   0  0  0  0  0  0  0  0  0  0  0  0
  186.3130  178.4350  139.3450 C   0  0  0  0  0  0  0  0  0  0  0  0
  183.9830  178.7250  139.9500 C   0  0  0  0  0  3  0  0  0  0  0  0
  187.5410  178.1810  143.3720 C   0  0  0  0  0  3  0  0  0  0  0  0
  184.9200  178.4770  144.1100 N   0  0  0  0  0  1  0  0  0  0  0  0
  180.6090  178.8060  139.6640 S   0  0  0  0  0  0  0  0  0  0  0  0
  185.7000  178.4580  141.7230 C   0  0  0  0  0  0  0  0  0  0  0  0
  183.0360  178.8310  140.9550 C   0  0  0  0  0  0  0  0  0  0  0  0
  191.3370  175.8490  144.3120 C   0  0  0  0  0  2  0  0  0  0  0  0
  192.0590  175.2690  145.5130 C   0  0  0  0  0  2  0  0  0  0  0  0
  192.0560  176.2370  146.5940 N   0  0  0  0  0  0  0  0  0  0  0  0
  191.3490  175.6040  147.7180 C   0  0  0  0  0  2  0  0  0  0  0  0
  192.8050  175.6280  147.7020 C   0  0  0  0  0  2  0  0  0  0  0  0
  1 28  1  0  0  0  0
  1 16  1  0  0  0  0
  2 23  1  0  0  0  0
  3 20  2  0  0  0  0
  3 11  1  0  0  0  0
  4  3  1  0  0  0  0
  5 24  1  0  0  0  0
  6  5  1  0  0  0  0
  6 18  1  0  0  0  0
  7 19  1  0  0  0  0
  8 17  2  0  0  0  0
  9 27  1  0  0  0  0
  9 15  1  0  0  0  0
 10  1  1  0  0  0  0
 11 13  1  0  0  0  0
 12  8  1  0  0  0  0
 12  2  2  0  0  0  0
 13 12  1  0  0  0  0
 14 26  1  0  0  0  0
 15 18  2  0  0  0  0
 17 10  1  0  0  0  0
 17  7  1  0  0  0  0
 19 16  1  0  0  0  0
 20 21  1  0  0  0  0
 21 13  2  0  0  0  0
 21 14  1  0  0  0  0
 22 14  2  0  0  0  0
 22 27  1  0  0  0  0
 23  7  2  0  0  0  0
 25  9  2  0  0  0  0
 26  2  1  0  0  0  0
 26  5  2  0  0  0  0
 27  6  2  0  0  0  0
 28 29  1  0  0  0  0
 29 30  1  0  0  0  0
 30 32  1  0  0  0  0
 30 31  1  0  0  0  0
 32 31  1  0  0  0  0
M  END
>  <MODEL>
8

>  <REMARK>
 VINA RESULT:      -7.3      2.630      7.679
  Name = 
  3 active torsions:
  status: ('A' for Active; 'I' for Inactive)
    1  A    between atoms: N_1  and  C_10
    2  A    between atoms: N_2  and  C_24
    3  A    between atoms: C_10  and  C_24
                            x       y       z     vdW  Elec       q    Type
                         _______ _______ _______ _____ _____    ______ ____

>  <TORSDO>
F 3

$$$$
=
 OpenBabel11052416453D

 32 38  0  0  0  0  0  0  0  0999 V2000
  192.0860  176.4460  137.6370 N   0  0  0  0  0  0  0  0  0  0  0  0
  188.9660  177.6260  141.5060 C   0  0  0  0  0  0  0  0  0  0  0  0
  184.6440  179.0010  140.1120 C   0  0  0  0  0  0  0  0  0  0  0  0
  183.3510  179.4120  139.6880 N   0  0  0  0  0  1  0  0  0  0  0  0
  188.9230  177.5440  144.0270 C   0  0  0  0  0  0  0  0  0  0  0  0
  188.1760  177.7390  145.1860 C   0  0  0  0  0  0  0  0  0  0  0  0
  190.9320  177.0820  140.1750 C   0  0  0  0  0  0  0  0  0  0  0  0
  188.9040  177.7260  139.0930 N   0  0  0  0  0  0  0  0  0  0  0  0
  186.4820  178.2030  146.5370 C   0  0  0  0  0  0  0  0  0  0  0  0
  190.8480  177.2370  137.6490 C   0  0  0  0  0  2  0  0  0  0  0  0
  185.9160  178.6460  139.0610 S   0  0  0  0  0  0  0  0  0  0  0  0
  188.2760  177.8770  140.2910 C   0  0  0  0  0  0  0  0  0  0  0  0
  186.9480  178.2850  140.3420 C   0  0  0  0  0  0  0  0  0  0  0  0
  186.9140  178.2120  142.7580 C   0  0  0  0  0  0  0  0  0  0  0  0
  187.6040  177.7740  147.3110 N   0  0  0  0  0  0  0  0  0  0  0  0
  192.9710  176.8330  138.7450 C   0  0  0  0  0  2  0  0  0  0  0  0
  190.1980  177.3230  139.0050 C   0  0  0  0  0  0  0  0  0  0  0  0
  188.5850  177.5200  146.5360 N   0  0  0  0  0  0  0  0  0  0  0  0
  192.3390  176.5780  140.1180 C   0  0  0  0  0  2  0  0  0  0  0  0
  184.9780  178.8540  141.4140 N   0  0  0  0  0  0  0  0  0  0  0  0
  186.2720  178.4510  141.5380 C   0  0  0  0  0  0  0  0  0  0  0  0
  186.2050  178.3870  143.9610 C   0  0  0  0  0  3  0  0  0  0  0  0
  190.3050  177.2210  141.4110 C   0  0  0  0  0  3  0  0  0  0  0  0
  190.2750  177.1040  144.1480 N   0  0  0  0  0  1  0  0  0  0  0  0
  184.9530  178.2810  147.1070 S   0  0  0  0  0  0  0  0  0  0  0  0
  188.2950  177.7870  142.7630 C   0  0  0  0  0  0  0  0  0  0  0  0
  186.8770  178.1460  145.1480 C   0  0  0  0  0  0  0  0  0  0  0  0
  191.7590  175.0230  137.6990 C   0  0  0  0  0  2  0  0  0  0  0  0
  192.9710  174.1970  137.3130 C   0  0  0  0  0  2  0  0  0  0  0  0
  192.9580  173.9600  135.8820 N   0  0  0  0  0  0  0  0  0  0  0  0
  194.3590  173.7660  135.4780 C   0  0  0  0  0  2  0  0  0  0  0  0
  193.4980  172.6080  135.6780 C   0  0  0  0  0  2  0  0  0  0  0  0
  1 10  1  0  0  0  0
  1 28  1  0  0  0  0
  1 16  1  0  0  0  0
  2 26  1  0  0  0  0
  3 20  2  0  0  0  0
  4  3  1  0  0  0  0
  5 24  1  0  0  0  0
  5  6  1  0  0  0  0
  6 18  1  0  0  0  0
  7 23  2  0  0  0  0
  8 12  1  0  0  0  0
  9 25  2  0  0  0  0
  9 15  1  0  0  0  0
 10 17  1  0  0  0  0
 11  3  1  0  0  0  0
 11 13  1  0  0  0  0
 12 13  1  0  0  0  0
 12  2  2  0  0  0  0
 13 21  2  0  0  0  0
 14 26  1  0  0  0  0
 14 22  2  0  0  0  0
 16 19  1  0  0  0  0
 17  8  2  0  0  0  0
 17  7  1  0  0  0  0
 18 15  2  0  0  0  0
 19  7  1  0  0  0  0
 20 21  1  0  0  0  0
 21 14  1  0  0  0  0
 22 27  1  0  0  0  0
 23  2  1  0  0  0  0
 26  5  2  0  0  0  0
 27  6  2  0  0  0  0
 27  9  1  0  0  0  0
 29 28  1  0  0  0  0
 30 29  1  0  0  0  0
 31 32  1  0  0  0  0
 31 30  1  0  0  0  0
 32 30  1  0  0  0  0
M  END
>  <MODEL>
9

>  <REMARK>
 VINA RESULT:      -7.3      3.041      3.972
  Name = 
  3 active torsions:
  status: ('A' for Active; 'I' for Inactive)
    1  A    between atoms: N_1  and  C_10
    2  A    between atoms: N_2  and  C_24
    3  A    between atoms: C_10  and  C_24
                            x       y       z     vdW  Elec       q    Type
                         _______ _______ _______ _____ _____    ______ ____

>  <TORSDO>
F 3

$$$$
