=
 OpenBabel11052412503D

 25 27  0  0  1  0  0  0  0  0999 V2000
  184.3100  178.6470  142.4150 C   0  0  0  0  0  0  0  0  0  0  0  0
  185.2200  178.3720  143.4230 C   0  0  0  0  0  0  0  0  0  0  0  0
  182.8710  179.1070  143.1590 S   0  0  0  0  0  0  0  0  0  0  0  0
  183.3790  178.9950  144.7660 C   0  0  0  0  0  3  0  0  0  0  0  0
  185.5130  178.3410  145.8390 C   0  0  0  0  0  0  0  0  0  0  0  0
  185.0230  178.5370  147.1240 O   0  0  0  0  0  1  0  0  0  0  0  0
  186.5330  177.9340  143.2340 C   0  0  0  0  0  3  0  0  0  0  0  0
  186.8310  177.9030  145.6500 C   0  0  0  0  0  3  0  0  0  0  0  0
  187.3370  177.6930  144.3570 C   0  0  0  0  0  0  0  0  0  0  0  0
  184.7070  178.5730  144.7180 C   0  0  0  0  0  0  0  0  0  0  0  0
  184.5300  178.4610  140.9450 C   0  0  2  0  0  3  0  0  0  0  0  0
  185.1570  179.5790  140.3930 O   0  0  0  0  0  1  0  0  0  0  0  0
  183.2400  178.1810  140.2370 C   0  0  0  0  0  0  0  0  0  0  0  0
  181.1310  177.5340  138.4190 C   0  0  0  0  0  2  0  0  0  0  0  0
  182.8240  176.9060  140.1550 C   0  0  0  0  0  3  0  0  0  0  0  0
  181.5390  176.5140  139.4760 C   0  0  0  0  0  2  0  0  0  0  0  0
  181.1160  178.9160  139.0540 C   0  0  0  0  0  2  0  0  0  0  0  0
  182.5250  179.2980  139.5040 C   0  0  0  0  0  2  0  0  0  0  0  0
  188.7450  177.2500  144.1760 C   0  0  0  0  0  2  0  0  0  0  0  0
  189.3770  177.0790  145.4740 N   0  0  0  0  0  2  0  0  0  0  0  0
  190.7790  176.8420  145.6080 C   0  0  0  0  0  0  0  0  0  0  0  0
  191.5140  176.7760  144.5850 O   0  0  0  0  0  0  0  0  0  0  0  0
  191.3640  176.6780  146.9430 C   0  0  0  0  0  0  0  0  0  0  0  0
  192.5430  175.9630  147.1040 O   0  0  0  0  0  0  0  0  0  0  0  0
  190.8000  177.1840  147.9500 O   0  0  0  0  0  1  0  0  0  0  0  0
  1  3  1  0  0  0  0
  1  2  2  0  0  0  0
  2 10  1  0  0  0  0
  3  4  1  0  0  0  0
  5  6  1  0  0  0  0
  7  2  1  0  0  0  0
  7  9  2  0  0  0  0
  8  5  2  0  0  0  0
  9  8  1  0  0  0  0
 10  4  2  0  0  0  0
 10  5  1  0  0  0  0
 11 12  1  6  0  0  0
 11  1  1  0  0  0  0
 13 11  1  0  0  0  0
 14 17  1  0  0  0  0
 14 16  1  0  0  0  0
 15 13  2  0  0  0  0
 16 15  1  0  0  0  0
 17 18  1  0  0  0  0
 18 13  1  0  0  0  0
 19  9  1  0  0  0  0
 19 20  1  0  0  0  0
 20 21  1  0  0  0  0
 21 23  1  0  0  0  0
 22 21  2  0  0  0  0
 23 24  2  0  0  0  0
 23 25  1  0  0  0  0
M  END
>  <MODEL>
1

>  <REMARK>
 VINA RESULT:      -8.3      0.000      0.000
  Name = 
  5 active torsions:
  status: ('A' for Active; 'I' for Inactive)
    1  A    between atoms: C_1  and  C_18
    2  A    between atoms: C_2  and  C_21
    3  A    between atoms: C_5  and  C_18
    4  A    between atoms: C_6  and  N_15
    5  A    between atoms: C_6  and  C_23
                            x       y       z     vdW  Elec       q    Type
                         _______ _______ _______ _____ _____    ______ ____

>  <TORSDO>
F 5

$$$$
=
 OpenBabel11052412503D

 25 27  0  0  1  0  0  0  0  0999 V2000
  184.4340  178.6560  142.4820 C   0  0  0  0  0  0  0  0  0  0  0  0
  185.2850  178.3380  143.5280 C   0  0  0  0  0  0  0  0  0  0  0  0
  182.9870  179.1830  143.1650 S   0  0  0  0  0  0  0  0  0  0  0  0
  183.4190  179.0460  144.7920 C   0  0  0  0  0  3  0  0  0  0  0  0
  185.4710  178.2910  145.9540 C   0  0  0  0  0  0  0  0  0  0  0  0
  184.9360  178.5090  147.2170 O   0  0  0  0  0  1  0  0  0  0  0  0
  186.5830  177.8390  143.3940 C   0  0  0  0  0  3  0  0  0  0  0  0
  186.7750  177.7920  145.8210 C   0  0  0  0  0  3  0  0  0  0  0  0
  187.3260  177.5600  144.5500 C   0  0  0  0  0  0  0  0  0  0  0  0
  184.7270  178.5620  144.8000 C   0  0  0  0  0  0  0  0  0  0  0  0
  184.7070  178.4620  141.0230 C   0  0  2  0  0  3  0  0  0  0  0  0
  185.4090  179.5490  140.5020 O   0  0  0  0  0  1  0  0  0  0  0  0
  183.4380  178.2430  140.2590 C   0  0  0  0  0  0  0  0  0  0  0  0
  181.3810  177.6610  138.3620 C   0  0  0  0  0  2  0  0  0  0  0  0
  182.9260  177.0010  140.2190 C   0  0  0  0  0  3  0  0  0  0  0  0
  181.6510  176.6720  139.4890 C   0  0  0  0  0  2  0  0  0  0  0  0
  181.4430  179.0730  138.9240 C   0  0  0  0  0  2  0  0  0  0  0  0
  182.8530  179.3700  139.4310 C   0  0  0  0  0  2  0  0  0  0  0  0
  188.7180  177.0510  144.4290 C   0  0  0  0  0  2  0  0  0  0  0  0
  189.2670  177.4270  143.1350 N   0  0  0  0  0  2  0  0  0  0  0  0
  190.0350  176.5160  142.3470 C   0  0  0  0  0  0  0  0  0  0  0  0
  190.2590  175.3470  142.7610 O   0  0  0  0  0  0  0  0  0  0  0  0
  190.5640  176.9490  141.0490 C   0  0  0  0  0  0  0  0  0  0  0  0
  191.7950  177.5860  140.9750 O   0  0  0  0  0  1  0  0  0  0  0  0
  189.9050  176.7440  139.9950 O   0  0  0  0  0  0  0  0  0  0  0  0
  1  3  1  0  0  0  0
  1  2  2  0  0  0  0
  2 10  1  0  0  0  0
  3  4  1  0  0  0  0
  4 10  2  0  0  0  0
  5  6  1  0  0  0  0
  7  2  1  0  0  0  0
  7  9  2  0  0  0  0
  8  5  2  0  0  0  0
  9  8  1  0  0  0  0
 10  5  1  0  0  0  0
 11 12  1  6  0  0  0
 11  1  1  0  0  0  0
 13 11  1  0  0  0  0
 14 17  1  0  0  0  0
 14 16  1  0  0  0  0
 15 13  2  0  0  0  0
 16 15  1  0  0  0  0
 17 18  1  0  0  0  0
 18 13  1  0  0  0  0
 19  9  1  0  0  0  0
 20 19  1  0  0  0  0
 21 22  2  0  0  0  0
 21 20  1  0  0  0  0
 23 21  1  0  0  0  0
 24 23  1  0  0  0  0
 25 23  2  0  0  0  0
M  END
>  <MODEL>
2

>  <REMARK>
 VINA RESULT:      -8.3      1.872      2.571
  Name = 
  5 active torsions:
  status: ('A' for Active; 'I' for Inactive)
    1  A    between atoms: C_1  and  C_18
    2  A    between atoms: C_2  and  C_21
    3  A    between atoms: C_5  and  C_18
    4  A    between atoms: C_6  and  N_15
    5  A    between atoms: C_6  and  C_23
                            x       y       z     vdW  Elec       q    Type
                         _______ _______ _______ _____ _____    ______ ____

>  <TORSDO>
F 5

$$$$
=
 OpenBabel11052412503D

 25 27  0  0  1  0  0  0  0  0999 V2000
  189.2920  177.2570  147.0430 C   0  0  0  0  0  0  0  0  0  0  0  0
  188.2320  177.5750  146.2100 C   0  0  0  0  0  0  0  0  0  0  0  0
  188.8740  177.7620  148.5940 S   0  0  0  0  0  0  0  0  0  0  0  0
  187.3360  178.3670  148.2480 C   0  0  0  0  0  3  0  0  0  0  0  0
  186.0040  178.5550  146.1690 C   0  0  0  0  0  0  0  0  0  0  0  0
  184.9270  179.1500  146.8140 O   0  0  0  0  0  1  0  0  0  0  0  0
  188.1830  177.3460  144.8340 C   0  0  0  0  0  3  0  0  0  0  0  0
  185.9530  178.3230  144.7870 C   0  0  0  0  0  3  0  0  0  0  0  0
  187.0380  177.7290  144.1210 C   0  0  0  0  0  0  0  0  0  0  0  0
  187.1510  178.1800  146.8780 C   0  0  0  0  0  0  0  0  0  0  0  0
  190.6070  176.6750  146.6230 C   0  0  2  0  0  3  0  0  0  0  0  0
  191.5950  176.9500  147.5700 O   0  0  0  0  0  1  0  0  0  0  0  0
  191.0170  177.1820  145.2750 C   0  0  0  0  0  0  0  0  0  0  0  0
  191.2130  178.2110  142.6160 C   0  0  0  0  0  2  0  0  0  0  0  0
  191.1190  178.5110  145.1000 C   0  0  0  0  0  3  0  0  0  0  0  0
  191.5330  179.1270  143.7910 C   0  0  0  0  0  2  0  0  0  0  0  0
  191.8130  176.8390  142.8870 C   0  0  0  0  0  2  0  0  0  0  0  0
  191.1510  176.2160  144.1150 C   0  0  0  0  0  2  0  0  0  0  0  0
  186.9570  177.4700  142.6590 C   0  0  0  0  0  2  0  0  0  0  0  0
  185.7420  178.0610  142.1220 N   0  0  0  0  0  2  0  0  0  0  0  0
  185.6980  178.6490  140.8210 C   0  0  0  0  0  0  0  0  0  0  0  0
  186.7290  178.6680  140.0960 O   0  0  0  0  0  0  0  0  0  0  0  0
  184.4440  179.2310  140.3290 C   0  0  0  0  0  0  0  0  0  0  0  0
  184.4640  180.1560  139.2940 O   0  0  0  0  0  0  0  0  0  0  0  0
  183.3440  178.8940  140.8420 O   0  0  0  0  0  1  0  0  0  0  0  0
  1  3  1  0  0  0  0
  2 10  1  0  0  0  0
  2  1  2  0  0  0  0
  4  3  1  0  0  0  0
  5  6  1  0  0  0  0
  5 10  1  0  0  0  0
  7  2  1  0  0  0  0
  8  5  2  0  0  0  0
  9  8  1  0  0  0  0
  9  7  2  0  0  0  0
 10  4  2  0  0  0  0
 11  1  1  0  0  0  0
 11 12  1  1  0  0  0
 13 11  1  0  0  0  0
 14 17  1  0  0  0  0
 14 16  1  0  0  0  0
 15 13  2  0  0  0  0
 16 15  1  0  0  0  0
 17 18  1  0  0  0  0
 18 13  1  0  0  0  0
 19  9  1  0  0  0  0
 20 19  1  0  0  0  0
 21 20  1  0  0  0  0
 22 21  2  0  0  0  0
 23 21  1  0  0  0  0
 23 25  1  0  0  0  0
 24 23  2  0  0  0  0
M  END
>  <MODEL>
3

>  <REMARK>
 VINA RESULT:      -8.2      2.756      7.745
  Name = 
  5 active torsions:
  status: ('A' for Active; 'I' for Inactive)
    1  A    between atoms: C_1  and  C_18
    2  A    between atoms: C_2  and  C_21
    3  A    between atoms: C_5  and  C_18
    4  A    between atoms: C_6  and  N_15
    5  A    between atoms: C_6  and  C_23
                            x       y       z     vdW  Elec       q    Type
                         _______ _______ _______ _____ _____    ______ ____

>  <TORSDO>
F 5

$$$$
=
 OpenBabel11052412503D

 25 27  0  0  1  0  0  0  0  0999 V2000
  185.4730  178.4650  144.0640 C   0  0  0  0  0  0  0  0  0  0  0  0
  186.6530  177.9810  144.6050 C   0  0  0  0  0  0  0  0  0  0  0  0
  184.4680  178.8730  145.3520 S   0  0  0  0  0  0  0  0  0  0  0  0
  185.5150  178.4720  146.6160 C   0  0  0  0  0  3  0  0  0  0  0  0
  187.8070  177.5390  146.7020 C   0  0  0  0  0  0  0  0  0  0  0  0
  187.8470  177.5480  148.0900 O   0  0  0  0  0  1  0  0  0  0  0  0
  187.7470  177.5110  143.8760 C   0  0  0  0  0  3  0  0  0  0  0  0
  188.9070  177.0690  145.9710 C   0  0  0  0  0  3  0  0  0  0  0  0
  188.8760  177.0470  144.5670 C   0  0  0  0  0  0  0  0  0  0  0  0
  186.6770  177.9940  146.0120 C   0  0  0  0  0  0  0  0  0  0  0  0
  185.1150  178.5110  142.6100 C   0  0  2  0  0  3  0  0  0  0  0  0
  185.7170  179.6050  141.9870 O   0  0  0  0  0  1  0  0  0  0  0  0
  183.6300  178.5500  142.4200 C   0  0  0  0  0  0  0  0  0  0  0  0
  180.9030  179.1630  141.8230 C   0  0  0  0  0  2  0  0  0  0  0  0
  183.1340  178.1970  141.2220 C   0  0  0  0  0  3  0  0  0  0  0  0
  181.6580  178.1900  140.9250 C   0  0  0  0  0  2  0  0  0  0  0  0
  181.2590  178.8680  143.2730 C   0  0  0  0  0  2  0  0  0  0  0  0
  182.7470  179.1280  143.5070 C   0  0  0  0  0  2  0  0  0  0  0  0
  190.0600  176.5650  143.8080 C   0  0  0  0  0  2  0  0  0  0  0  0
  189.7520  176.5280  142.3870 N   0  0  0  0  0  2  0  0  0  0  0  0
  190.6450  177.0550  141.4050 C   0  0  0  0  0  0  0  0  0  0  0  0
  191.7390  177.5740  141.7530 O   0  0  0  0  0  0  0  0  0  0  0  0
  190.2820  176.9890  139.9850 C   0  0  0  0  0  0  0  0  0  0  0  0
  189.6320  178.0580  139.3810 O   0  0  0  0  0  1  0  0  0  0  0  0
  190.5580  175.9650  139.3060 O   0  0  0  0  0  0  0  0  0  0  0  0
  1  2  2  0  0  0  0
  1  3  1  0  0  0  0
  2 10  1  0  0  0  0
  3  4  1  0  0  0  0
  5  6  1  0  0  0  0
  7  9  2  0  0  0  0
  7  2  1  0  0  0  0
  8  5  2  0  0  0  0
  9  8  1  0  0  0  0
 10  4  2  0  0  0  0
 10  5  1  0  0  0  0
 11 12  1  1  0  0  0
 11  1  1  0  0  0  0
 13 11  1  0  0  0  0
 13 18  1  0  0  0  0
 14 17  1  0  0  0  0
 15 13  2  0  0  0  0
 16 15  1  0  0  0  0
 16 14  1  0  0  0  0
 17 18  1  0  0  0  0
 19  9  1  0  0  0  0
 20 19  1  0  0  0  0
 21 22  2  0  0  0  0
 21 20  1  0  0  0  0
 23 21  1  0  0  0  0
 24 23  1  0  0  0  0
 25 23  2  0  0  0  0
M  END
>  <MODEL>
4

>  <REMARK>
 VINA RESULT:      -7.8      2.481      3.795
  Name = 
  5 active torsions:
  status: ('A' for Active; 'I' for Inactive)
    1  A    between atoms: C_1  and  C_18
    2  A    between atoms: C_2  and  C_21
    3  A    between atoms: C_5  and  C_18
    4  A    between atoms: C_6  and  N_15
    5  A    between atoms: C_6  and  C_23
                            x       y       z     vdW  Elec       q    Type
                         _______ _______ _______ _____ _____    ______ ____

>  <TORSDO>
F 5

$$$$
=
 OpenBabel11052412503D

 25 27  0  0  1  0  0  0  0  0999 V2000
  189.3800  177.0300  146.8240 C   0  0  0  0  0  0  0  0  0  0  0  0
  188.2320  177.4950  146.2040 C   0  0  0  0  0  0  0  0  0  0  0  0
  189.3500  177.5930  148.4110 S   0  0  0  0  0  0  0  0  0  0  0  0
  187.8740  178.4130  148.3520 C   0  0  0  0  0  3  0  0  0  0  0  0
  186.1990  178.7840  146.5660 C   0  0  0  0  0  0  0  0  0  0  0  0
  185.3650  179.5290  147.3900 O   0  0  0  0  0  1  0  0  0  0  0  0
  187.8810  177.2710  144.8710 C   0  0  0  0  0  3  0  0  0  0  0  0
  185.8450  178.5580  145.2290 C   0  0  0  0  0  3  0  0  0  0  0  0
  186.6840  177.8130  144.3830 C   0  0  0  0  0  0  0  0  0  0  0  0
  187.3990  178.2510  147.0510 C   0  0  0  0  0  0  0  0  0  0  0  0
  190.4910  176.2640  146.1750 C   0  0  2  0  0  3  0  0  0  0  0  0
  191.5300  176.0380  147.0790 O   0  0  0  0  0  1  0  0  0  0  0  0
  191.0000  176.9750  144.9600 C   0  0  0  0  0  0  0  0  0  0  0  0
  191.3960  178.4630  142.5520 C   0  0  0  0  0  2  0  0  0  0  0  0
  191.2240  178.2980  145.0450 C   0  0  0  0  0  3  0  0  0  0  0  0
  191.7440  179.1090  143.8880 C   0  0  0  0  0  2  0  0  0  0  0  0
  191.8630  177.0160  142.5710 C   0  0  0  0  0  2  0  0  0  0  0  0
  191.0980  176.2370  143.6400 C   0  0  0  0  0  2  0  0  0  0  0  0
  186.2810  177.5650  142.9730 C   0  0  0  0  0  2  0  0  0  0  0  0
  187.4590  177.5570  142.1200 N   0  0  0  0  0  2  0  0  0  0  0  0
  187.4690  178.1880  140.8390 C   0  0  0  0  0  0  0  0  0  0  0  0
  186.4390  178.7770  140.4110 O   0  0  0  0  0  0  0  0  0  0  0  0
  188.6860  178.1500  140.0210 C   0  0  0  0  0  0  0  0  0  0  0  0
  189.5290  177.0480  140.0770 O   0  0  0  0  0  1  0  0  0  0  0  0
  188.9720  179.1150  139.2630 O   0  0  0  0  0  0  0  0  0  0  0  0
  1  3  1  0  0  0  0
  2  1  2  0  0  0  0
  2 10  1  0  0  0  0
  4  3  1  0  0  0  0
  5 10  1  0  0  0  0
  5  6  1  0  0  0  0
  7  2  1  0  0  0  0
  8  5  2  0  0  0  0
  9  7  2  0  0  0  0
  9  8  1  0  0  0  0
 10  4  2  0  0  0  0
 11  1  1  0  0  0  0
 11 12  1  1  0  0  0
 13 15  2  0  0  0  0
 13 11  1  0  0  0  0
 14 17  1  0  0  0  0
 14 16  1  0  0  0  0
 16 15  1  0  0  0  0
 17 18  1  0  0  0  0
 18 13  1  0  0  0  0
 19  9  1  0  0  0  0
 20 19  1  0  0  0  0
 21 20  1  0  0  0  0
 22 21  2  0  0  0  0
 23 24  1  0  0  0  0
 23 21  1  0  0  0  0
 25 23  2  0  0  0  0
M  END
>  <MODEL>
5

>  <REMARK>
 VINA RESULT:      -7.8      3.585      7.290
  Name = 
  5 active torsions:
  status: ('A' for Active; 'I' for Inactive)
    1  A    between atoms: C_1  and  C_18
    2  A    between atoms: C_2  and  C_21
    3  A    between atoms: C_5  and  C_18
    4  A    between atoms: C_6  and  N_15
    5  A    between atoms: C_6  and  C_23
                            x       y       z     vdW  Elec       q    Type
                         _______ _______ _______ _____ _____    ______ ____

>  <TORSDO>
F 5

$$$$
=
 OpenBabel11052412503D

 25 27  0  0  1  0  0  0  0  0999 V2000
  187.1020  177.4500  144.1420 C   0  0  0  0  0  0  0  0  0  0  0  0
  185.9230  178.0180  143.6870 C   0  0  0  0  0  0  0  0  0  0  0  0
  187.0450  177.4690  145.8250 S   0  0  0  0  0  0  0  0  0  0  0  0
  185.5190  178.1700  146.0100 C   0  0  0  0  0  3  0  0  0  0  0  0
  183.8150  178.9920  144.4140 C   0  0  0  0  0  0  0  0  0  0  0  0
  182.9390  179.3780  145.4200 O   0  0  0  0  0  1  0  0  0  0  0  0
  185.5810  178.2140  142.3480 C   0  0  0  0  0  3  0  0  0  0  0  0
  183.4680  179.1880  143.0690 C   0  0  0  0  0  3  0  0  0  0  0  0
  184.3480  178.8080  142.0420 C   0  0  0  0  0  0  0  0  0  0  0  0
  185.0490  178.4070  144.7190 C   0  0  0  0  0  0  0  0  0  0  0  0
  188.2570  177.0050  143.2980 C   0  0  2  0  0  3  0  0  0  0  0  0
  188.3050  175.6130  143.2190 O   0  0  0  0  0  1  0  0  0  0  0  0
  189.5510  177.5450  143.8250 C   0  0  0  0  0  0  0  0  0  0  0  0
  192.2360  178.4000  144.3040 C   0  0  0  0  0  2  0  0  0  0  0  0
  189.9020  178.7970  143.4870 C   0  0  0  0  0  3  0  0  0  0  0  0
  191.1750  179.4410  143.9690 C   0  0  0  0  0  2  0  0  0  0  0  0
  191.6380  177.3830  145.2640 C   0  0  0  0  0  2  0  0  0  0  0  0
  190.4950  176.6330  144.5820 C   0  0  0  0  0  2  0  0  0  0  0  0
  183.9540  179.0030  140.6210 C   0  0  0  0  0  2  0  0  0  0  0  0
  185.1390  178.9960  139.7780 N   0  0  0  0  0  2  0  0  0  0  0  0
  185.2100  178.2200  138.5800 C   0  0  0  0  0  0  0  0  0  0  0  0
  184.2300  177.5130  138.2210 O   0  0  0  0  0  0  0  0  0  0  0  0
  186.4300  178.2520  137.7660 C   0  0  0  0  0  0  0  0  0  0  0  0
  187.6390  178.6280  138.3380 O   0  0  0  0  0  1  0  0  0  0  0  0
  186.3890  177.9380  136.5470 O   0  0  0  0  0  0  0  0  0  0  0  0
  1  3  1  0  0  0  0
  2  1  2  0  0  0  0
  2 10  1  0  0  0  0
  3  4  1  0  0  0  0
  5 10  1  0  0  0  0
  5  6  1  0  0  0  0
  7  2  1  0  0  0  0
  8  5  2  0  0  0  0
  9  7  2  0  0  0  0
  9  8  1  0  0  0  0
 10  4  2  0  0  0  0
 11 12  1  1  0  0  0
 11 13  1  0  0  0  0
 11  1  1  0  0  0  0
 13 18  1  0  0  0  0
 14 17  1  0  0  0  0
 15 13  2  0  0  0  0
 15 16  1  0  0  0  0
 16 14  1  0  0  0  0
 18 17  1  0  0  0  0
 19  9  1  0  0  0  0
 20 19  1  0  0  0  0
 21 20  1  0  0  0  0
 22 21  2  0  0  0  0
 23 24  1  0  0  0  0
 23 21  1  0  0  0  0
 25 23  2  0  0  0  0
M  END
>  <MODEL>
6

>  <REMARK>
 VINA RESULT:      -7.8      3.075      7.581
  Name = 
  5 active torsions:
  status: ('A' for Active; 'I' for Inactive)
    1  A    between atoms: C_1  and  C_18
    2  A    between atoms: C_2  and  C_21
    3  A    between atoms: C_5  and  C_18
    4  A    between atoms: C_6  and  N_15
    5  A    between atoms: C_6  and  C_23
                            x       y       z     vdW  Elec       q    Type
                         _______ _______ _______ _____ _____    ______ ____

>  <TORSDO>
F 5

$$$$
=
 OpenBabel11052412503D

 25 27  0  0  1  0  0  0  0  0999 V2000
  187.2040  178.1020  141.4020 C   0  0  0  0  0  0  0  0  0  0  0  0
  186.7250  178.1510  142.7010 C   0  0  0  0  0  0  0  0  0  0  0  0
  185.9630  178.6330  140.3960 S   0  0  0  0  0  0  0  0  0  0  0  0
  184.8080  178.9610  141.5840 C   0  0  0  0  0  3  0  0  0  0  0  0
  184.7880  178.7440  144.0500 C   0  0  0  0  0  0  0  0  0  0  0  0
  183.4880  179.2210  144.1640 O   0  0  0  0  0  1  0  0  0  0  0  0
  187.4340  177.7710  143.8430 C   0  0  0  0  0  3  0  0  0  0  0  0
  185.4990  178.3650  145.1970 C   0  0  0  0  0  3  0  0  0  0  0  0
  186.8120  177.8740  145.0950 C   0  0  0  0  0  0  0  0  0  0  0  0
  185.4070  178.6330  142.8000 C   0  0  0  0  0  0  0  0  0  0  0  0
  188.5350  177.5710  140.9660 C   0  0  2  0  0  3  0  0  0  0  0  0
  189.5730  178.2390  141.6170 O   0  0  0  0  0  1  0  0  0  0  0  0
  188.6970  177.6730  139.4800 C   0  0  0  0  0  0  0  0  0  0  0  0
  189.5760  177.7410  136.7620 C   0  0  0  0  0  2  0  0  0  0  0  0
  188.6550  176.5410  138.7570 C   0  0  0  0  0  3  0  0  0  0  0  0
  188.7970  176.5290  137.2590 C   0  0  0  0  0  2  0  0  0  0  0  0
  188.9380  179.0000  137.3280 C   0  0  0  0  0  2  0  0  0  0  0  0
  189.0560  179.0040  138.8510 C   0  0  0  0  0  2  0  0  0  0  0  0
  187.5590  177.4970  146.3240 C   0  0  0  0  0  2  0  0  0  0  0  0
  188.9140  177.1040  145.9740 N   0  0  0  0  0  2  0  0  0  0  0  0
  189.9860  177.1620  146.9170 C   0  0  0  0  0  0  0  0  0  0  0  0
  189.7780  177.5640  148.0930 O   0  0  0  0  0  0  0  0  0  0  0  0
  191.3340  176.7510  146.5090 C   0  0  0  0  0  0  0  0  0  0  0  0
  192.2430  176.3030  147.4590 O   0  0  0  0  0  1  0  0  0  0  0  0
  191.6740  176.8030  145.2970 O   0  0  0  0  0  0  0  0  0  0  0  0
  1  2  2  0  0  0  0
  2 10  1  0  0  0  0
  2  7  1  0  0  0  0
  3  1  1  0  0  0  0
  3  4  1  0  0  0  0
  4 10  2  0  0  0  0
  5  6  1  0  0  0  0
  5  8  2  0  0  0  0
  7  9  2  0  0  0  0
  9  8  1  0  0  0  0
  9 19  1  0  0  0  0
 10  5  1  0  0  0  0
 11  1  1  0  0  0  0
 11 12  1  1  0  0  0
 13 11  1  0  0  0  0
 14 16  1  0  0  0  0
 14 17  1  0  0  0  0
 15 13  2  0  0  0  0
 16 15  1  0  0  0  0
 17 18  1  0  0  0  0
 18 13  1  0  0  0  0
 20 19  1  0  0  0  0
 20 21  1  0  0  0  0
 21 22  2  0  0  0  0
 23 21  1  0  0  0  0
 23 24  1  0  0  0  0
 25 23  2  0  0  0  0
M  END
>  <MODEL>
7

>  <REMARK>
 VINA RESULT:      -7.5      3.145      4.218
  Name = 
  5 active torsions:
  status: ('A' for Active; 'I' for Inactive)
    1  A    between atoms: C_1  and  C_18
    2  A    between atoms: C_2  and  C_21
    3  A    between atoms: C_5  and  C_18
    4  A    between atoms: C_6  and  N_15
    5  A    between atoms: C_6  and  C_23
                            x       y       z     vdW  Elec       q    Type
                         _______ _______ _______ _____ _____    ______ ____

>  <TORSDO>
F 5

$$$$
=
 OpenBabel11052412503D

 25 27  0  0  1  0  0  0  0  0999 V2000
  187.0110  177.6620  144.5360 C   0  0  0  0  0  0  0  0  0  0  0  0
  185.9530  178.1030  143.7580 C   0  0  0  0  0  0  0  0  0  0  0  0
  186.5100  177.7390  146.1420 S   0  0  0  0  0  0  0  0  0  0  0  0
  184.9400  178.3050  145.8820 C   0  0  0  0  0  3  0  0  0  0  0  0
  183.6590  178.9090  143.8520 C   0  0  0  0  0  0  0  0  0  0  0  0
  182.5210  179.2520  144.5710 O   0  0  0  0  0  1  0  0  0  0  0  0
  185.9620  178.2170  142.3660 C   0  0  0  0  0  3  0  0  0  0  0  0
  183.6650  179.0220  142.4540 C   0  0  0  0  0  3  0  0  0  0  0  0
  184.8120  178.6860  141.7150 C   0  0  0  0  0  0  0  0  0  0  0  0
  184.8100  178.4500  144.5020 C   0  0  0  0  0  0  0  0  0  0  0  0
  188.3780  177.2920  144.0500 C   0  0  2  0  0  3  0  0  0  0  0  0
  188.3410  176.0970  143.3300 O   0  0  0  0  0  1  0  0  0  0  0  0
  189.3470  177.1890  145.1870 C   0  0  0  0  0  0  0  0  0  0  0  0
  191.1010  176.4060  147.3040 C   0  0  0  0  0  2  0  0  0  0  0  0
  190.6380  176.9440  144.9030 C   0  0  0  0  0  3  0  0  0  0  0  0
  191.6960  176.8310  145.9670 C   0  0  0  0  0  2  0  0  0  0  0  0
  189.9530  177.3440  147.6490 C   0  0  0  0  0  2  0  0  0  0  0  0
  188.8380  177.2030  146.6140 C   0  0  0  0  0  2  0  0  0  0  0  0
  184.7930  178.7900  140.2320 C   0  0  0  0  0  2  0  0  0  0  0  0
  186.1480  178.6830  139.7150 N   0  0  0  0  0  2  0  0  0  0  0  0
  186.4200  178.1820  138.4050 C   0  0  0  0  0  0  0  0  0  0  0  0
  185.4760  177.8160  137.6550 O   0  0  0  0  0  0  0  0  0  0  0  0
  187.8070  178.0970  137.9350 C   0  0  0  0  0  0  0  0  0  0  0  0
  188.2110  177.0270  137.1470 O   0  0  0  0  0  0  0  0  0  0  0  0
  188.6380  178.9920  138.2420 O   0  0  0  0  0  1  0  0  0  0  0  0
  1  3  1  0  0  0  0
  2 10  1  0  0  0  0
  2  1  2  0  0  0  0
  4  3  1  0  0  0  0
  5 10  1  0  0  0  0
  5  6  1  0  0  0  0
  7  2  1  0  0  0  0
  8  5  2  0  0  0  0
  9  7  2  0  0  0  0
  9  8  1  0  0  0  0
 10  4  2  0  0  0  0
 11 12  1  1  0  0  0
 11  1  1  0  0  0  0
 11 13  1  0  0  0  0
 13 18  1  0  0  0  0
 14 17  1  0  0  0  0
 15 13  2  0  0  0  0
 15 16  1  0  0  0  0
 16 14  1  0  0  0  0
 18 17  1  0  0  0  0
 19  9  1  0  0  0  0
 20 19  1  0  0  0  0
 21 20  1  0  0  0  0
 22 21  2  0  0  0  0
 23 25  1  0  0  0  0
 23 21  1  0  0  0  0
 24 23  2  0  0  0  0
M  END
>  <MODEL>
8

>  <REMARK>
 VINA RESULT:      -7.4      3.091      7.568
  Name = 
  5 active torsions:
  status: ('A' for Active; 'I' for Inactive)
    1  A    between atoms: C_1  and  C_18
    2  A    between atoms: C_2  and  C_21
    3  A    between atoms: C_5  and  C_18
    4  A    between atoms: C_6  and  N_15
    5  A    between atoms: C_6  and  C_23
                            x       y       z     vdW  Elec       q    Type
                         _______ _______ _______ _____ _____    ______ ____

>  <TORSDO>
F 5

$$$$
=
 OpenBabel11052412503D

 25 27  0  0  1  0  0  0  0  0999 V2000
  189.8800  177.7340  143.0420 C   0  0  0  0  0  0  0  0  0  0  0  0
  189.7130  177.5450  144.4040 C   0  0  0  0  0  0  0  0  0  0  0  0
  191.5170  177.5210  142.7100 S   0  0  0  0  0  0  0  0  0  0  0  0
  192.0400  177.1600  144.2750 C   0  0  0  0  0  3  0  0  0  0  0  0
  190.8910  176.9960  146.4620 C   0  0  0  0  0  0  0  0  0  0  0  0
  192.0570  176.6720  147.1440 O   0  0  0  0  0  1  0  0  0  0  0  0
  188.5050  177.6550  145.0960 C   0  0  0  0  0  3  0  0  0  0  0  0
  189.6790  177.1040  147.1580 C   0  0  0  0  0  3  0  0  0  0  0  0
  188.4930  177.4390  146.4820 C   0  0  0  0  0  0  0  0  0  0  0  0
  190.9040  177.2210  145.0810 C   0  0  0  0  0  0  0  0  0  0  0  0
  188.8250  178.1570  142.0670 C   0  0  2  0  0  3  0  0  0  0  0  0
  187.6160  177.5140  142.3360 O   0  0  0  0  0  1  0  0  0  0  0  0
  189.2560  177.8950  140.6570 C   0  0  0  0  0  0  0  0  0  0  0  0
  189.5910  177.0510  137.9470 C   0  0  0  0  0  2  0  0  0  0  0  0
  188.6990  178.6280  139.6760 C   0  0  0  0  0  3  0  0  0  0  0  0
  189.0660  178.4550  138.2270 C   0  0  0  0  0  2  0  0  0  0  0  0
  190.7150  176.7450  138.9250 C   0  0  0  0  0  2  0  0  0  0  0  0
  190.1710  176.7270  140.3530 C   0  0  0  0  0  2  0  0  0  0  0  0
  187.2130  177.5270  147.2320 C   0  0  0  0  0  2  0  0  0  0  0  0
  186.0970  177.5360  146.3000 N   0  0  0  0  0  2  0  0  0  0  0  0
  185.3360  178.7170  146.0430 C   0  0  0  0  0  0  0  0  0  0  0  0
  185.6190  179.7970  146.6280 O   0  0  0  0  0  0  0  0  0  0  0  0
  184.2200  178.6690  145.0910 C   0  0  0  0  0  0  0  0  0  0  0  0
  184.4370  178.2540  143.7840 O   0  0  0  0  0  0  0  0  0  0  0  0
  183.0610  179.0030  145.4540 O   0  0  0  0  0  1  0  0  0  0  0  0
  1  2  2  0  0  0  0
  2 10  1  0  0  0  0
  2  7  1  0  0  0  0
  3  1  1  0  0  0  0
  3  4  1  0  0  0  0
  4 10  2  0  0  0  0
  5  6  1  0  0  0  0
  5  8  2  0  0  0  0
  7  9  2  0  0  0  0
  9  8  1  0  0  0  0
  9 19  1  0  0  0  0
 10  5  1  0  0  0  0
 11 12  1  1  0  0  0
 11  1  1  0  0  0  0
 13 11  1  0  0  0  0
 14 16  1  0  0  0  0
 14 17  1  0  0  0  0
 15 13  2  0  0  0  0
 16 15  1  0  0  0  0
 17 18  1  0  0  0  0
 18 13  1  0  0  0  0
 20 19  1  0  0  0  0
 21 20  1  0  0  0  0
 21 22  2  0  0  0  0
 23 25  1  0  0  0  0
 23 21  1  0  0  0  0
 24 23  2  0  0  0  0
M  END
>  <MODEL>
9

>  <REMARK>
 VINA RESULT:      -7.4      3.960      6.568
  Name = 
  5 active torsions:
  status: ('A' for Active; 'I' for Inactive)
    1  A    between atoms: C_1  and  C_18
    2  A    between atoms: C_2  and  C_21
    3  A    between atoms: C_5  and  C_18
    4  A    between atoms: C_6  and  N_15
    5  A    between atoms: C_6  and  C_23
                            x       y       z     vdW  Elec       q    Type
                         _______ _______ _______ _____ _____    ______ ____

>  <TORSDO>
F 5

$$$$
