=
 OpenBabel11052412313D

 30 33  0  0  1  0  0  0  0  0999 V2000
  187.0190  178.0750  144.5160 N   0  0  0  0  0  2  0  0  0  0  0  0
  186.9130  178.4260  146.9530 C   0  0  0  0  0  0  0  0  0  0  0  0
  190.9760  176.6540  144.9240 N   0  0  0  0  0  2  0  0  0  0  0  0
  187.6730  177.5600  143.3120 C   0  0  2  0  0  3  0  0  0  0  0  0
  191.5070  175.7810  143.8720 C   0  0  0  0  0  2  0  0  0  0  0  0
  187.4770  178.2820  148.2240 C   0  0  0  0  0  3  0  0  0  0  0  0
  185.6000  179.1190  146.8200 C   0  0  0  0  0  1  0  0  0  0  0  0
  189.5220  176.7010  144.7770 C   0  0  2  0  0  3  0  0  0  0  0  0
  188.7060  177.6380  148.3810 C   0  0  0  0  0  3  0  0  0  0  0  0
  187.5840  177.9210  145.8280 C   0  0  0  0  0  0  0  0  0  0  0  0
  189.1910  177.5010  143.5150 C   0  0  1  0  0  3  0  0  0  0  0  0
  191.0260  176.1860  142.4940 C   0  0  0  0  0  3  0  0  0  0  0  0
  189.9230  176.9330  142.3290 C   0  0  0  0  0  3  0  0  0  0  0  0
  189.3820  177.1400  147.2650 C   0  0  0  0  0  3  0  0  0  0  0  0
  188.8410  177.2980  145.9820 C   0  0  0  0  0  0  0  0  0  0  0  0
  185.7540  179.6850  140.9890 O   0  0  0  0  0  0  0  0  0  0  0  0
  185.9870  178.9200  141.9650 C   0  0  0  0  0  0  0  0  0  0  0  0
  187.3130  178.3820  142.1560 N   0  0  0  0  0  0  0  0  0  0  0  0
  184.4760  179.7480  143.7600 C   0  0  0  0  0  2  0  0  0  0  0  0
  183.6350  178.1500  142.1600 C   0  0  0  0  0  2  0  0  0  0  0  0
  184.8730  178.5710  142.9060 C   0  0  1  0  0  3  0  0  0  0  0  0
  183.2120  179.4270  144.3980 N   0  0  0  0  0  2  0  0  0  0  0  0
  182.2110  178.5790  143.2030 S   0  0  0  0  0  0  0  0  0  0  0  0
  188.3760  178.6910  141.2100 C   0  0  0  0  0  2  0  0  0  0  0  0
  188.0120  178.1800  139.8260 C   0  0  0  0  0  2  0  0  0  0  0  0
  189.2450  178.1300  138.9440 C   0  0  0  0  0  2  0  0  0  0  0  0
  189.5240  176.7570  138.5570 N   0  0  0  0  0  2  0  0  0  0  0  0
  191.8760  176.9540  139.1950 O   0  0  0  0  0  1  0  0  0  0  0  0
  190.8280  176.1950  138.6870 C   0  0  0  0  0  0  0  0  0  0  0  0
  191.0310  175.0030  138.3420 O   0  0  0  0  0  0  0  0  0  0  0  0
  1 10  1  0  0  0  0
  2  6  1  0  0  0  0
  4 18  1  6  0  0  0
  4 11  1  0  0  0  0
  4  1  1  0  0  0  0
  5  3  1  0  0  0  0
  6  9  2  0  0  0  0
  7  2  1  0  0  0  0
  8  3  1  1  0  0  0
  8 15  1  0  0  0  0
 10 15  1  0  0  0  0
 10  2  2  0  0  0  0
 11 13  1  6  0  0  0
 11  8  1  0  0  0  0
 12  5  1  0  0  0  0
 13 12  2  0  0  0  0
 14  9  1  0  0  0  0
 15 14  2  0  0  0  0
 16 17  2  0  0  0  0
 17 18  1  0  0  0  0
 19 22  1  0  0  0  0
 20 21  1  0  0  0  0
 20 23  1  0  0  0  0
 21 17  1  6  0  0  0
 21 19  1  0  0  0  0
 23 22  1  0  0  0  0
 24 18  1  0  0  0  0
 25 24  1  0  0  0  0
 26 25  1  0  0  0  0
 27 29  1  0  0  0  0
 27 26  1  0  0  0  0
 29 28  1  0  0  0  0
 30 29  2  0  0  0  0
M  END
>  <MODEL>
1

>  <REMARK>
 VINA RESULT:      -9.3      0.000      0.000
  Name = 
  6 active torsions:
  status: ('A' for Active; 'I' for Inactive)
    1  A    between atoms: C_4  and  N_13
    2  A    between atoms: N_7  and  C_16
    3  A    between atoms: C_8  and  C_12
    4  A    between atoms: N_13  and  C_27
    5  A    between atoms: C_16  and  C_30
    6  A    between atoms: C_27  and  C_30
                            x       y       z     vdW  Elec       q    Type
                         _______ _______ _______ _____ _____    ______ ____

>  <TORSDO>
F 6

$$$$
=
 OpenBabel11052412313D

 30 33  0  0  1  0  0  0  0  0999 V2000
  186.9900  178.0540  144.4530 N   0  0  0  0  0  2  0  0  0  0  0  0
  186.8910  178.3890  146.8930 C   0  0  0  0  0  0  0  0  0  0  0  0
  190.9740  176.7010  144.8330 N   0  0  0  0  0  2  0  0  0  0  0  0
  187.6480  177.5580  143.2430 C   0  0  2  0  0  3  0  0  0  0  0  0
  191.5150  175.8430  143.7730 C   0  0  0  0  0  2  0  0  0  0  0  0
  187.4640  178.2470  148.1600 C   0  0  0  0  0  3  0  0  0  0  0  0
  185.5650  179.0590  146.7700 C   0  0  0  0  0  1  0  0  0  0  0  0
  189.5180  176.7230  144.6930 C   0  0  2  0  0  3  0  0  0  0  0  0
  188.7040  177.6230  148.3070 C   0  0  0  0  0  3  0  0  0  0  0  0
  187.5650  177.9020  145.7610 C   0  0  0  0  0  0  0  0  0  0  0  0
  189.1670  177.5240  143.4380 C   0  0  1  0  0  3  0  0  0  0  0  0
  191.0200  176.2470  142.4000 C   0  0  0  0  0  3  0  0  0  0  0  0
  189.9030  176.9750  142.2450 C   0  0  0  0  0  3  0  0  0  0  0  0
  189.3840  177.1450  147.1840 C   0  0  0  0  0  3  0  0  0  0  0  0
  188.8330  177.3000  145.9050 C   0  0  0  0  0  0  0  0  0  0  0  0
  185.6890  179.6850  140.9550 O   0  0  0  0  0  0  0  0  0  0  0  0
  185.9390  178.9190  141.9270 C   0  0  0  0  0  0  0  0  0  0  0  0
  187.2670  178.3800  142.0940 N   0  0  0  0  0  0  0  0  0  0  0  0
  184.4620  179.7480  143.7500 C   0  0  0  0  0  2  0  0  0  0  0  0
  183.5890  178.1520  142.1640 C   0  0  0  0  0  2  0  0  0  0  0  0
  184.8420  178.5710  142.8880 C   0  0  1  0  0  3  0  0  0  0  0  0
  183.2090  179.4280  144.4110 N   0  0  0  0  0  2  0  0  0  0  0  0
  182.1860  178.5820  143.2340 S   0  0  0  0  0  0  0  0  0  0  0  0
  188.3130  178.6880  141.1280 C   0  0  0  0  0  2  0  0  0  0  0  0
  188.0150  178.0160  139.7990 C   0  0  0  0  0  2  0  0  0  0  0  0
  188.9400  178.5490  138.7210 C   0  0  0  0  0  2  0  0  0  0  0  0
  188.1670  178.9630  137.5620 N   0  0  0  0  0  2  0  0  0  0  0  0
  188.2870  176.7310  136.5680 O   0  0  0  0  0  1  0  0  0  0  0  0
  187.8550  178.0520  136.5100 C   0  0  0  0  0  0  0  0  0  0  0  0
  187.1830  178.4450  135.5220 O   0  0  0  0  0  0  0  0  0  0  0  0
  1 10  1  0  0  0  0
  2  6  1  0  0  0  0
  4 18  1  6  0  0  0
  4 11  1  0  0  0  0
  4  1  1  0  0  0  0
  5  3  1  0  0  0  0
  6  9  2  0  0  0  0
  7  2  1  0  0  0  0
  8  3  1  1  0  0  0
  8 15  1  0  0  0  0
 10 15  1  0  0  0  0
 10  2  2  0  0  0  0
 11 13  1  6  0  0  0
 11  8  1  0  0  0  0
 12  5  1  0  0  0  0
 13 12  2  0  0  0  0
 14  9  1  0  0  0  0
 15 14  2  0  0  0  0
 16 17  2  0  0  0  0
 17 18  1  0  0  0  0
 19 22  1  0  0  0  0
 20 21  1  0  0  0  0
 20 23  1  0  0  0  0
 21 17  1  6  0  0  0
 21 19  1  0  0  0  0
 23 22  1  0  0  0  0
 24 18  1  0  0  0  0
 25 24  1  0  0  0  0
 26 25  1  0  0  0  0
 27 26  1  0  0  0  0
 29 28  1  0  0  0  0
 29 27  1  0  0  0  0
 30 29  2  0  0  0  0
M  END
>  <MODEL>
2

>  <REMARK>
 VINA RESULT:      -9.1      1.451      1.629
  Name = 
  6 active torsions:
  status: ('A' for Active; 'I' for Inactive)
    1  A    between atoms: C_4  and  N_13
    2  A    between atoms: N_7  and  C_16
    3  A    between atoms: C_8  and  C_12
    4  A    between atoms: N_13  and  C_27
    5  A    between atoms: C_16  and  C_30
    6  A    between atoms: C_27  and  C_30
                            x       y       z     vdW  Elec       q    Type
                         _______ _______ _______ _____ _____    ______ ____

>  <TORSDO>
F 6

$$$$
=
 OpenBabel11052412313D

 30 33  0  0  1  0  0  0  0  0999 V2000
  182.0140  178.3240  141.3360 N   0  0  0  0  0  2  0  0  0  0  0  0
  182.4290  178.8730  143.7030 C   0  0  0  0  0  0  0  0  0  0  0  0
  186.1070  178.9570  140.5040 N   0  0  0  0  0  2  0  0  0  0  0  0
  182.4740  178.0320  139.9780 C   0  0  2  0  0  3  0  0  0  0  0  0
  186.6770  178.3100  139.3170 C   0  0  0  0  0  2  0  0  0  0  0  0
  183.3180  179.1580  144.7430 C   0  0  0  0  0  3  0  0  0  0  0  0
  180.9660  178.8580  143.9870 C   0  0  0  0  0  1  0  0  0  0  0  0
  184.8300  178.3070  140.7990 C   0  0  2  0  0  3  0  0  0  0  0  0
  184.6940  179.1800  144.5070 C   0  0  0  0  0  3  0  0  0  0  0  0
  182.9200  178.6060  142.4140 C   0  0  0  0  0  0  0  0  0  0  0  0
  183.8250  178.7070  139.7170 C   0  0  1  0  0  3  0  0  0  0  0  0
  185.7030  178.2800  138.1570 C   0  0  0  0  0  3  0  0  0  0  0  0
  184.3800  178.4050  138.3500 C   0  0  0  0  0  3  0  0  0  0  0  0
  185.1890  178.9230  143.2260 C   0  0  0  0  0  3  0  0  0  0  0  0
  184.3090  178.6590  142.1680 C   0  0  0  0  0  0  0  0  0  0  0  0
  179.9890  177.9480  137.2550 O   0  0  0  0  0  0  0  0  0  0  0  0
  180.9140  177.5530  138.0170 C   0  0  0  0  0  0  0  0  0  0  0  0
  181.4630  178.4500  139.0060 N   0  0  0  0  0  0  0  0  0  0  0  0
  180.3890  175.1290  138.2190 C   0  0  0  0  0  2  0  0  0  0  0  0
  181.8590  175.8710  136.4550 C   0  0  0  0  0  2  0  0  0  0  0  0
  181.4370  176.1550  137.8730 C   0  0  1  0  0  3  0  0  0  0  0  0
  180.8630  173.8370  137.7550 N   0  0  0  0  0  2  0  0  0  0  0  0
  181.6440  174.0880  136.1820 S   0  0  0  0  0  0  0  0  0  0  0  0
  180.9780  179.8190  139.1070 C   0  0  0  0  0  2  0  0  0  0  0  0
  181.5230  180.6560  137.9610 C   0  0  0  0  0  2  0  0  0  0  0  0
  181.5030  182.1270  138.3290 C   0  0  0  0  0  2  0  0  0  0  0  0
  180.9490  182.9060  137.2330 N   0  0  0  0  0  2  0  0  0  0  0  0
  182.4370  184.7910  137.6940 O   0  0  0  0  0  1  0  0  0  0  0  0
  181.4220  184.2170  136.9360 C   0  0  0  0  0  0  0  0  0  0  0  0
  180.9190  184.8610  135.9800 O   0  0  0  0  0  0  0  0  0  0  0  0
  1 10  1  0  0  0  0
  2  7  1  0  0  0  0
  2  6  1  0  0  0  0
  4 18  1  6  0  0  0
  4  1  1  0  0  0  0
  5  3  1  0  0  0  0
  8  3  1  6  0  0  0
  8 15  1  0  0  0  0
  9  6  2  0  0  0  0
 10  2  2  0  0  0  0
 11 13  1  6  0  0  0
 11  4  1  0  0  0  0
 11  8  1  0  0  0  0
 12 13  2  0  0  0  0
 12  5  1  0  0  0  0
 14  9  1  0  0  0  0
 15 10  1  0  0  0  0
 15 14  2  0  0  0  0
 16 17  2  0  0  0  0
 17 18  1  0  0  0  0
 18 24  1  0  0  0  0
 20 21  1  0  0  0  0
 21 17  1  6  0  0  0
 21 19  1  0  0  0  0
 22 19  1  0  0  0  0
 23 20  1  0  0  0  0
 23 22  1  0  0  0  0
 25 26  1  0  0  0  0
 25 24  1  0  0  0  0
 27 26  1  0  0  0  0
 29 27  1  0  0  0  0
 29 28  1  0  0  0  0
 30 29  2  0  0  0  0
M  END
>  <MODEL>
3

>  <REMARK>
 VINA RESULT:      -8.5      5.291      7.844
  Name = 
  6 active torsions:
  status: ('A' for Active; 'I' for Inactive)
    1  A    between atoms: C_4  and  N_13
    2  A    between atoms: N_7  and  C_16
    3  A    between atoms: C_8  and  C_12
    4  A    between atoms: N_13  and  C_27
    5  A    between atoms: C_16  and  C_30
    6  A    between atoms: C_27  and  C_30
                            x       y       z     vdW  Elec       q    Type
                         _______ _______ _______ _____ _____    ______ ____

>  <TORSDO>
F 6

$$$$
=
 OpenBabel11052412313D

 30 33  0  0  1  0  0  0  0  0999 V2000
  185.9210  178.1400  143.2440 N   0  0  0  0  0  2  0  0  0  0  0  0
  185.2610  178.6740  145.5580 C   0  0  0  0  0  0  0  0  0  0  0  0
  189.7640  177.0570  144.6240 N   0  0  0  0  0  2  0  0  0  0  0  0
  186.8520  177.5820  142.2630 C   0  0  2  0  0  3  0  0  0  0  0  0
  190.5610  176.1450  143.7960 C   0  0  0  0  0  2  0  0  0  0  0  0
  185.5380  178.6750  146.9280 C   0  0  0  0  0  3  0  0  0  0  0  0
  183.9730  179.2540  145.0820 C   0  0  0  0  0  1  0  0  0  0  0  0
  188.3770  176.9830  144.1640 C   0  0  2  0  0  3  0  0  0  0  0  0
  186.7360  178.1380  147.4050 C   0  0  0  0  0  3  0  0  0  0  0  0
  186.1910  178.1330  144.6560 C   0  0  0  0  0  0  0  0  0  0  0  0
  188.2880  177.6530  142.7910 C   0  0  1  0  0  3  0  0  0  0  0  0
  190.3740  176.4020  142.3160 C   0  0  0  0  0  3  0  0  0  0  0  0
  189.2940  177.0490  141.8490 C   0  0  0  0  0  3  0  0  0  0  0  0
  187.6680  177.6060  146.5110 C   0  0  0  0  0  3  0  0  0  0  0  0
  187.4150  177.6200  145.1330 C   0  0  0  0  0  0  0  0  0  0  0  0
  185.3630  179.2670  139.3410 O   0  0  0  0  0  0  0  0  0  0  0  0
  185.4250  178.5960  140.4080 C   0  0  0  0  0  0  0  0  0  0  0  0
  186.7100  178.2800  140.9850 N   0  0  0  0  0  0  0  0  0  0  0  0
  183.2950  179.2810  141.4950 C   0  0  0  0  0  2  0  0  0  0  0  0
  183.3220  177.3140  140.0970 C   0  0  0  0  0  2  0  0  0  0  0  0
  184.1560  178.1260  141.0530 C   0  0  1  0  0  3  0  0  0  0  0  0
  181.9770  178.7570  141.8080 N   0  0  0  0  0  2  0  0  0  0  0  0
  181.5870  177.5280  140.5890 S   0  0  0  0  0  0  0  0  0  0  0  0
  187.9370  178.7030  140.3240 C   0  0  0  0  0  2  0  0  0  0  0  0
  187.9840  178.1620  138.9050 C   0  0  0  0  0  2  0  0  0  0  0  0
  189.4210  178.0580  138.4300 C   0  0  0  0  0  2  0  0  0  0  0  0
  189.7440  176.6740  138.1230 N   0  0  0  0  0  2  0  0  0  0  0  0
  191.9360  176.8490  139.1940 O   0  0  0  0  0  1  0  0  0  0  0  0
  190.9890  176.0960  138.5080 C   0  0  0  0  0  0  0  0  0  0  0  0
  191.2340  174.8950  138.2260 O   0  0  0  0  0  0  0  0  0  0  0  0
  1 10  1  0  0  0  0
  2  6  1  0  0  0  0
  4 18  1  6  0  0  0
  4 11  1  0  0  0  0
  4  1  1  0  0  0  0
  5  3  1  0  0  0  0
  6  9  2  0  0  0  0
  7  2  1  0  0  0  0
  8  3  1  1  0  0  0
  8 15  1  0  0  0  0
 10 15  1  0  0  0  0
 10  2  2  0  0  0  0
 11 13  1  6  0  0  0
 11  8  1  0  0  0  0
 12  5  1  0  0  0  0
 13 12  2  0  0  0  0
 14  9  1  0  0  0  0
 15 14  2  0  0  0  0
 16 17  2  0  0  0  0
 17 18  1  0  0  0  0
 19 22  1  0  0  0  0
 20 23  1  0  0  0  0
 20 21  1  0  0  0  0
 21 17  1  6  0  0  0
 21 19  1  0  0  0  0
 23 22  1  0  0  0  0
 24 18  1  0  0  0  0
 25 24  1  0  0  0  0
 26 25  1  0  0  0  0
 27 26  1  0  0  0  0
 27 29  1  0  0  0  0
 29 28  1  0  0  0  0
 30 29  2  0  0  0  0
M  END
>  <MODEL>
4

>  <REMARK>
 VINA RESULT:      -8.4      1.381      1.691
  Name = 
  6 active torsions:
  status: ('A' for Active; 'I' for Inactive)
    1  A    between atoms: C_4  and  N_13
    2  A    between atoms: N_7  and  C_16
    3  A    between atoms: C_8  and  C_12
    4  A    between atoms: N_13  and  C_27
    5  A    between atoms: C_16  and  C_30
    6  A    between atoms: C_27  and  C_30
                            x       y       z     vdW  Elec       q    Type
                         _______ _______ _______ _____ _____    ______ ____

>  <TORSDO>
F 6

$$$$
=
 OpenBabel11052412313D

 30 33  0  0  1  0  0  0  0  0999 V2000
  183.8270  178.7140  141.2990 N   0  0  0  0  0  2  0  0  0  0  0  0
  185.4000  178.5800  143.1920 C   0  0  0  0  0  0  0  0  0  0  0  0
  180.5950  178.5780  144.0140 N   0  0  0  0  0  2  0  0  0  0  0  0
  182.4810  178.8710  140.7460 C   0  0  2  0  0  3  0  0  0  0  0  0
  179.3040  179.1230  143.5780 C   0  0  0  0  0  2  0  0  0  0  0  0
  185.6420  178.5820  144.5690 C   0  0  0  0  0  3  0  0  0  0  0  0
  186.5490  178.4200  142.2570 C   0  0  0  0  0  1  0  0  0  0  0  0
  181.6220  179.0680  143.0960 C   0  0  2  0  0  3  0  0  0  0  0  0
  184.5850  178.7300  145.4700 C   0  0  0  0  0  3  0  0  0  0  0  0
  184.0880  178.7270  142.7110 C   0  0  0  0  0  0  0  0  0  0  0  0
  181.4330  178.3720  141.7460 C   0  0  1  0  0  3  0  0  0  0  0  0
  179.0280  178.8420  142.1160 C   0  0  0  0  0  3  0  0  0  0  0  0
  180.0200  178.5520  141.2590 C   0  0  0  0  0  3  0  0  0  0  0  0
  183.2780  178.8690  144.9980 C   0  0  0  0  0  3  0  0  0  0  0  0
  183.0170  178.8450  143.6220 C   0  0  0  0  0  0  0  0  0  0  0  0
  181.7500  178.1330  137.2080 O   0  0  0  0  0  0  0  0  0  0  0  0
  181.7380  178.7500  138.3090 C   0  0  0  0  0  0  0  0  0  0  0  0
  182.3820  178.1720  139.4640 N   0  0  0  0  0  0  0  0  0  0  0  0
  182.0150  181.2220  138.3570 C   0  0  0  0  0  2  0  0  0  0  0  0
  180.0930  180.2760  137.2460 C   0  0  0  0  0  2  0  0  0  0  0  0
  181.0400  180.0740  138.4000 C   0  0  1  0  0  3  0  0  0  0  0  0
  181.2560  182.4400  138.1310 N   0  0  0  0  0  2  0  0  0  0  0  0
  179.9830  182.0650  136.9540 S   0  0  0  0  0  0  0  0  0  0  0  0
  183.0180  176.8650  139.3740 C   0  0  0  0  0  2  0  0  0  0  0  0
  181.9680  175.7820  139.1850 C   0  0  0  0  0  2  0  0  0  0  0  0
  182.3620  174.8640  138.0430 C   0  0  0  0  0  2  0  0  0  0  0  0
  183.8100  174.7490  137.9750 N   0  0  0  0  0  2  0  0  0  0  0  0
  183.6870  172.4030  137.2970 O   0  0  0  0  0  0  0  0  0  0  0  0
  184.4440  173.5270  137.6050 C   0  0  0  0  0  0  0  0  0  0  0  0
  185.6990  173.4650  137.5560 O   0  0  0  0  0  1  0  0  0  0  0  0
  1 10  1  0  0  0  0
  2  6  1  0  0  0  0
  4 18  1  6  0  0  0
  4  1  1  0  0  0  0
  4 11  1  0  0  0  0
  5  3  1  0  0  0  0
  6  9  2  0  0  0  0
  7  2  1  0  0  0  0
  8 15  1  1  0  0  0
  8  3  1  0  0  0  0
 10  2  2  0  0  0  0
 10 15  1  0  0  0  0
 11 13  1  6  0  0  0
 11  8  1  0  0  0  0
 12  5  1  0  0  0  0
 13 12  2  0  0  0  0
 14  9  1  0  0  0  0
 15 14  2  0  0  0  0
 16 17  2  0  0  0  0
 17 18  1  0  0  0  0
 19 21  1  0  0  0  0
 20 21  1  0  0  0  0
 21 17  1  6  0  0  0
 22 19  1  0  0  0  0
 23 20  1  0  0  0  0
 23 22  1  0  0  0  0
 24 18  1  0  0  0  0
 25 24  1  0  0  0  0
 26 25  1  0  0  0  0
 27 26  1  0  0  0  0
 28 29  2  0  0  0  0
 29 27  1  0  0  0  0
 30 29  1  0  0  0  0
M  END
>  <MODEL>
5

>  <REMARK>
 VINA RESULT:      -8.4      4.508      7.244
  Name = 
  6 active torsions:
  status: ('A' for Active; 'I' for Inactive)
    1  A    between atoms: C_4  and  N_13
    2  A    between atoms: N_7  and  C_16
    3  A    between atoms: C_8  and  C_12
    4  A    between atoms: N_13  and  C_27
    5  A    between atoms: C_16  and  C_30
    6  A    between atoms: C_27  and  C_30
                            x       y       z     vdW  Elec       q    Type
                         _______ _______ _______ _____ _____    ______ ____

>  <TORSDO>
F 6

$$$$
=
 OpenBabel11052412313D

 30 33  0  0  1  0  0  0  0  0999 V2000
  183.6550  178.8940  141.2370 N   0  0  0  0  0  2  0  0  0  0  0  0
  185.3630  178.6560  142.9980 C   0  0  0  0  0  0  0  0  0  0  0  0
  180.6330  178.6280  144.1770 N   0  0  0  0  0  2  0  0  0  0  0  0
  182.2720  179.0840  140.7960 C   0  0  2  0  0  3  0  0  0  0  0  0
  179.3180  179.1990  143.8670 C   0  0  0  0  0  2  0  0  0  0  0  0
  185.7080  178.5860  144.3500 C   0  0  0  0  0  3  0  0  0  0  0  0
  186.4380  178.5420  141.9720 C   0  0  0  0  0  1  0  0  0  0  0  0
  181.5930  179.1610  143.2100 C   0  0  2  0  0  3  0  0  0  0  0  0
  184.7230  178.6910  145.3350 C   0  0  0  0  0  3  0  0  0  0  0  0
  184.0210  178.8330  142.6250 C   0  0  0  0  0  0  0  0  0  0  0  0
  181.2990  178.5370  141.8450 C   0  0  1  0  0  3  0  0  0  0  0  0
  178.9310  178.9950  142.4170 C   0  0  0  0  0  3  0  0  0  0  0  0
  179.8540  178.7470  141.4750 C   0  0  0  0  0  3  0  0  0  0  0  0
  183.3850  178.8580  144.9700 C   0  0  0  0  0  3  0  0  0  0  0  0
  183.0210  178.9060  143.6180 C   0  0  0  0  0  0  0  0  0  0  0  0
  181.3020  178.5450  137.2800 O   0  0  0  0  0  0  0  0  0  0  0  0
  181.3770  179.1060  138.4070 C   0  0  0  0  0  0  0  0  0  0  0  0
  182.0720  178.4540  139.4900 N   0  0  0  0  0  0  0  0  0  0  0  0
  181.5550  181.5570  138.0170 C   0  0  0  0  0  2  0  0  0  0  0  0
  179.3840  180.5080  137.9290 C   0  0  0  0  0  2  0  0  0  0  0  0
  180.7280  180.4440  138.6060 C   0  0  1  0  0  3  0  0  0  0  0  0
  180.7250  182.7480  137.9680 N   0  0  0  0  0  2  0  0  0  0  0  0
  179.0960  182.2440  137.4790 S   0  0  0  0  0  0  0  0  0  0  0  0
  182.6600  177.1350  139.2980 C   0  0  0  0  0  2  0  0  0  0  0  0
  183.5570  177.1330  138.0720 C   0  0  0  0  0  2  0  0  0  0  0  0
  184.8340  177.9010  138.3540 C   0  0  0  0  0  2  0  0  0  0  0  0
  185.7350  177.8020  137.2170 N   0  0  0  0  0  2  0  0  0  0  0  0
  187.6290  178.6280  138.5250 O   0  0  0  0  0  1  0  0  0  0  0  0
  187.1100  178.1660  137.3220 C   0  0  0  0  0  0  0  0  0  0  0  0
  187.8590  178.0660  136.3170 O   0  0  0  0  0  0  0  0  0  0  0  0
  1 10  1  0  0  0  0
  2  6  1  0  0  0  0
  4 18  1  6  0  0  0
  4  1  1  0  0  0  0
  4 11  1  0  0  0  0
  5  3  1  0  0  0  0
  6  9  2  0  0  0  0
  7  2  1  0  0  0  0
  8 15  1  1  0  0  0
  8  3  1  0  0  0  0
 10  2  2  0  0  0  0
 10 15  1  0  0  0  0
 11 13  1  6  0  0  0
 11  8  1  0  0  0  0
 12  5  1  0  0  0  0
 13 12  2  0  0  0  0
 14  9  1  0  0  0  0
 15 14  2  0  0  0  0
 16 17  2  0  0  0  0
 17 18  1  0  0  0  0
 19 21  1  0  0  0  0
 20 21  1  0  0  0  0
 21 17  1  6  0  0  0
 22 19  1  0  0  0  0
 23 20  1  0  0  0  0
 23 22  1  0  0  0  0
 24 18  1  0  0  0  0
 25 26  1  0  0  0  0
 25 24  1  0  0  0  0
 27 29  1  0  0  0  0
 27 26  1  0  0  0  0
 29 28  1  0  0  0  0
 30 29  2  0  0  0  0
M  END
>  <MODEL>
6

>  <REMARK>
 VINA RESULT:      -8.2      4.100      6.914
  Name = 
  6 active torsions:
  status: ('A' for Active; 'I' for Inactive)
    1  A    between atoms: C_4  and  N_13
    2  A    between atoms: N_7  and  C_16
    3  A    between atoms: C_8  and  C_12
    4  A    between atoms: N_13  and  C_27
    5  A    between atoms: C_16  and  C_30
    6  A    between atoms: C_27  and  C_30
                            x       y       z     vdW  Elec       q    Type
                         _______ _______ _______ _____ _____    ______ ____

>  <TORSDO>
F 6

$$$$
=
 OpenBabel11052412313D

 30 33  0  0  1  0  0  0  0  0999 V2000
  183.0570  176.5570  139.6140 N   0  0  0  0  0  2  0  0  0  0  0  0
  181.9610  174.8760  138.1830 C   0  0  0  0  0  0  0  0  0  0  0  0
  179.2600  177.9810  140.7960 N   0  0  0  0  0  2  0  0  0  0  0  0
  183.0230  177.6000  140.6410 C   0  0  2  0  0  3  0  0  0  0  0  0
  179.1610  178.7050  142.0680 C   0  0  0  0  0  2  0  0  0  0  0  0
  180.8030  174.2270  137.7440 C   0  0  0  0  0  3  0  0  0  0  0  0
  183.2740  174.4880  137.5940 C   0  0  0  0  0  1  0  0  0  0  0  0
  180.5390  177.2710  140.7830 C   0  0  2  0  0  3  0  0  0  0  0  0
  179.5590  174.5690  138.2780 C   0  0  0  0  0  3  0  0  0  0  0  0
  181.8740  175.8760  139.1660 C   0  0  0  0  0  0  0  0  0  0  0  0
  181.6610  178.3010  140.6410 C   0  0  1  0  0  3  0  0  0  0  0  0
  180.3700  179.5790  142.3270 C   0  0  0  0  0  3  0  0  0  0  0  0
  181.5400  179.3550  141.7090 C   0  0  0  0  0  3  0  0  0  0  0  0
  179.4650  175.5680  139.2490 C   0  0  0  0  0  3  0  0  0  0  0  0
  180.6140  176.2440  139.6830 C   0  0  0  0  0  0  0  0  0  0  0  0
  186.0380  179.6450  141.2030 O   0  0  0  0  0  0  0  0  0  0  0  0
  185.0670  178.8830  141.4640 C   0  0  0  0  0  0  0  0  0  0  0  0
  184.1190  178.5450  140.4300 N   0  0  0  0  0  0  0  0  0  0  0  0
  186.2240  177.8780  143.4250 C   0  0  0  0  0  2  0  0  0  0  0  0
  184.3920  179.4050  143.7960 C   0  0  0  0  0  2  0  0  0  0  0  0
  184.9100  178.3470  142.8560 C   0  0  1  0  0  3  0  0  0  0  0  0
  186.0440  177.6800  144.8530 N   0  0  0  0  0  2  0  0  0  0  0  0
  185.0230  179.0030  145.4510 S   0  0  0  0  0  0  0  0  0  0  0  0
  184.2580  179.1070  139.0940 C   0  0  0  0  0  2  0  0  0  0  0  0
  184.9840  178.1300  138.1850 C   0  0  0  0  0  2  0  0  0  0  0  0
  186.3230  178.7040  137.7590 C   0  0  0  0  0  2  0  0  0  0  0  0
  187.3850  178.1540  138.5860 N   0  0  0  0  0  2  0  0  0  0  0  0
  189.0550  179.6390  137.5940 O   0  0  0  0  0  0  0  0  0  0  0  0
  188.7260  178.6280  138.4890 C   0  0  0  0  0  0  0  0  0  0  0  0
  189.6180  178.1290  139.2210 O   0  0  0  0  0  1  0  0  0  0  0  0
  1  4  1  0  0  0  0
  2 10  1  0  0  0  0
  3  5  1  0  0  0  0
  4 18  1  6  0  0  0
  5 12  1  0  0  0  0
  6  2  2  0  0  0  0
  6  9  1  0  0  0  0
  7  2  1  0  0  0  0
  8 15  1  6  0  0  0
  8  3  1  0  0  0  0
  9 14  2  0  0  0  0
 10  1  1  0  0  0  0
 10 15  2  0  0  0  0
 11  4  1  0  0  0  0
 11  8  1  0  0  0  0
 11 13  1  1  0  0  0
 13 12  2  0  0  0  0
 14 15  1  0  0  0  0
 16 17  2  0  0  0  0
 18 17  1  0  0  0  0
 19 22  1  0  0  0  0
 20 23  1  0  0  0  0
 21 17  1  6  0  0  0
 21 19  1  0  0  0  0
 21 20  1  0  0  0  0
 22 23  1  0  0  0  0
 24 18  1  0  0  0  0
 25 24  1  0  0  0  0
 26 25  1  0  0  0  0
 26 27  1  0  0  0  0
 28 29  2  0  0  0  0
 29 27  1  0  0  0  0
 29 30  1  0  0  0  0
M  END
>  <MODEL>
7

>  <REMARK>
 VINA RESULT:      -8.1      3.793      7.838
  Name = 
  6 active torsions:
  status: ('A' for Active; 'I' for Inactive)
    1  A    between atoms: C_4  and  N_13
    2  A    between atoms: N_7  and  C_16
    3  A    between atoms: C_8  and  C_12
    4  A    between atoms: N_13  and  C_27
    5  A    between atoms: C_16  and  C_30
    6  A    between atoms: C_27  and  C_30
                            x       y       z     vdW  Elec       q    Type
                         _______ _______ _______ _____ _____    ______ ____

>  <TORSDO>
F 6

$$$$
=
 OpenBabel11052412313D

 30 33  0  0  1  0  0  0  0  0999 V2000
  187.1400  177.8850  142.4760 N   0  0  0  0  0  2  0  0  0  0  0  0
  184.8970  178.7450  141.9230 C   0  0  0  0  0  0  0  0  0  0  0  0
  186.2400  178.2700  146.5860 N   0  0  0  0  0  2  0  0  0  0  0  0
  188.1360  177.3930  143.4290 C   0  0  2  0  0  3  0  0  0  0  0  0
  186.9960  177.4480  147.5370 C   0  0  0  0  0  2  0  0  0  0  0  0
  183.6190  179.1450  142.3250 C   0  0  0  0  0  3  0  0  0  0  0  0
  185.2540  178.8140  140.4780 C   0  0  0  0  0  1  0  0  0  0  0  0
  186.4380  177.7070  145.2500 C   0  0  2  0  0  3  0  0  0  0  0  0
  183.2550  179.0910  143.6720 C   0  0  0  0  0  3  0  0  0  0  0  0
  185.8200  178.2860  142.8780 C   0  0  0  0  0  0  0  0  0  0  0  0
  187.8800  177.9830  144.8200 C   0  0  1  0  0  3  0  0  0  0  0  0
  188.4450  177.2860  147.1300 C   0  0  0  0  0  3  0  0  0  0  0  0
  188.8420  177.4770  145.8610 C   0  0  0  0  0  3  0  0  0  0  0  0
  184.1710  178.6440  144.6270 C   0  0  0  0  0  3  0  0  0  0  0  0
  185.4640  178.2620  144.2430 C   0  0  0  0  0  0  0  0  0  0  0  0
  190.9690  178.1440  141.1920 O   0  0  0  0  0  0  0  0  0  0  0  0
  189.8080  177.7980  141.5460 C   0  0  0  0  0  0  0  0  0  0  0  0
  189.4830  177.7020  142.9490 N   0  0  0  0  0  0  0  0  0  0  0  0
  188.5360  178.6580  139.5890 C   0  0  0  0  0  2  0  0  0  0  0  0
  189.2370  176.3490  139.6130 C   0  0  0  0  0  2  0  0  0  0  0  0
  188.7840  177.4820  140.4970 C   0  0  1  0  0  3  0  0  0  0  0  0
  187.7920  178.1790  138.4360 N   0  0  0  0  0  2  0  0  0  0  0  0
  188.4610  176.5970  137.9890 S   0  0  0  0  0  0  0  0  0  0  0  0
  190.4980  177.9680  143.9590 C   0  0  0  0  0  2  0  0  0  0  0  0
  191.6330  176.9650  143.8400 C   0  0  0  0  0  2  0  0  0  0  0  0
  191.6790  176.0760  145.0690 C   0  0  0  0  0  2  0  0  0  0  0  0
  192.0490  176.8590  146.2360 N   0  0  0  0  0  2  0  0  0  0  0  0
  191.7030  174.9610  147.7380 O   0  0  0  0  0  0  0  0  0  0  0  0
  192.0540  176.2920  147.5440 C   0  0  0  0  0  0  0  0  0  0  0  0
  192.3790  177.0010  148.5300 O   0  0  0  0  0  1  0  0  0  0  0  0
  1 10  1  0  0  0  0
  1  4  1  0  0  0  0
  2  6  2  0  0  0  0
  2 10  1  0  0  0  0
  3  5  1  0  0  0  0
  4 18  1  6  0  0  0
  4 11  1  0  0  0  0
  6  9  1  0  0  0  0
  7  2  1  0  0  0  0
  8 15  1  6  0  0  0
  8  3  1  0  0  0  0
  9 14  2  0  0  0  0
 10 15  2  0  0  0  0
 11  8  1  0  0  0  0
 11 13  1  1  0  0  0
 12  5  1  0  0  0  0
 13 12  2  0  0  0  0
 15 14  1  0  0  0  0
 16 17  2  0  0  0  0
 17 18  1  0  0  0  0
 18 24  1  0  0  0  0
 19 21  1  0  0  0  0
 20 21  1  0  0  0  0
 21 17  1  1  0  0  0
 22 19  1  0  0  0  0
 23 22  1  0  0  0  0
 23 20  1  0  0  0  0
 25 24  1  0  0  0  0
 25 26  1  0  0  0  0
 26 27  1  0  0  0  0
 27 29  1  0  0  0  0
 29 28  2  0  0  0  0
 29 30  1  0  0  0  0
M  END
>  <MODEL>
8

>  <REMARK>
 VINA RESULT:      -8.0      3.147      5.960
  Name = 
  6 active torsions:
  status: ('A' for Active; 'I' for Inactive)
    1  A    between atoms: C_4  and  N_13
    2  A    between atoms: N_7  and  C_16
    3  A    between atoms: C_8  and  C_12
    4  A    between atoms: N_13  and  C_27
    5  A    between atoms: C_16  and  C_30
    6  A    between atoms: C_27  and  C_30
                            x       y       z     vdW  Elec       q    Type
                         _______ _______ _______ _____ _____    ______ ____

>  <TORSDO>
F 6

$$$$
=
 OpenBabel11052412313D

 30 33  0  0  1  0  0  0  0  0999 V2000
  187.3180  178.3590  142.8620 N   0  0  0  0  0  2  0  0  0  0  0  0
  186.2460  178.2240  145.0770 C   0  0  0  0  0  0  0  0  0  0  0  0
  183.5090  178.7480  141.0770 N   0  0  0  0  0  2  0  0  0  0  0  0
  187.2760  178.6010  141.4190 C   0  0  2  0  0  3  0  0  0  0  0  0
  183.4290  179.3780  139.7550 C   0  0  0  0  0  2  0  0  0  0  0  0
  185.1040  178.3110  145.8780 C   0  0  0  0  0  3  0  0  0  0  0  0
  187.5500  177.8810  145.7130 C   0  0  0  0  0  1  0  0  0  0  0  0
  184.8200  179.0630  141.6450 C   0  0  2  0  0  3  0  0  0  0  0  0
  183.8680  178.6300  145.3110 C   0  0  0  0  0  3  0  0  0  0  0  0
  186.1520  178.4580  143.6960 C   0  0  0  0  0  0  0  0  0  0  0  0
  185.8820  178.2850  140.8670 C   0  0  1  0  0  3  0  0  0  0  0  0
  184.6030  179.0110  138.8720 C   0  0  0  0  0  3  0  0  0  0  0  0
  185.7560  178.5610  139.3920 C   0  0  0  0  0  3  0  0  0  0  0  0
  183.7670  178.8560  143.9370 C   0  0  0  0  0  3  0  0  0  0  0  0
  184.8990  178.7490  143.1170 C   0  0  0  0  0  0  0  0  0  0  0  0
  190.2570  176.5100  140.8390 O   0  0  0  0  0  0  0  0  0  0  0  0
  189.4340  177.2420  141.4550 C   0  0  0  0  0  0  0  0  0  0  0  0
  188.3140  177.8160  140.7490 N   0  0  0  0  0  0  0  0  0  0  0  0
  190.2110  176.3120  143.6280 C   0  0  0  0  0  2  0  0  0  0  0  0
  190.6190  178.6380  143.1320 C   0  0  0  0  0  2  0  0  0  0  0  0
  189.6420  177.5110  142.9160 C   0  0  1  0  0  3  0  0  0  0  0  0
  190.6720  176.7490  144.9340 N   0  0  0  0  0  2  0  0  0  0  0  0
  191.4330  178.3380  144.7280 S   0  0  0  0  0  0  0  0  0  0  0  0
  188.1470  177.5840  139.3210 C   0  0  0  0  0  2  0  0  0  0  0  0
  189.0390  178.5250  138.5280 C   0  0  0  0  0  2  0  0  0  0  0  0
  189.5290  177.8440  137.2640 C   0  0  0  0  0  2  0  0  0  0  0  0
  189.5870  176.4050  137.4660 N   0  0  0  0  0  2  0  0  0  0  0  0
  192.0300  176.4250  137.5820 O   0  0  0  0  0  0  0  0  0  0  0  0
  190.8300  175.7240  137.6200 C   0  0  0  0  0  0  0  0  0  0  0  0
  190.8410  174.4780  137.7930 O   0  0  0  0  0  1  0  0  0  0  0  0
  1 10  1  0  0  0  0
  2  7  1  0  0  0  0
  2  6  1  0  0  0  0
  4 18  1  6  0  0  0
  4  1  1  0  0  0  0
  5  3  1  0  0  0  0
  8  3  1  6  0  0  0
  8 15  1  0  0  0  0
  9  6  2  0  0  0  0
 10  2  2  0  0  0  0
 11 13  1  6  0  0  0
 11  4  1  0  0  0  0
 11  8  1  0  0  0  0
 12 13  2  0  0  0  0
 12  5  1  0  0  0  0
 14  9  1  0  0  0  0
 15 10  1  0  0  0  0
 15 14  2  0  0  0  0
 16 17  2  0  0  0  0
 18 17  1  0  0  0  0
 19 22  1  0  0  0  0
 20 23  1  0  0  0  0
 21 17  1  6  0  0  0
 21 20  1  0  0  0  0
 21 19  1  0  0  0  0
 23 22  1  0  0  0  0
 24 18  1  0  0  0  0
 25 24  1  0  0  0  0
 26 27  1  0  0  0  0
 26 25  1  0  0  0  0
 27 29  1  0  0  0  0
 28 29  2  0  0  0  0
 29 30  1  0  0  0  0
M  END
>  <MODEL>
9

>  <REMARK>
 VINA RESULT:      -8.0      2.481      5.142
  Name = 
  6 active torsions:
  status: ('A' for Active; 'I' for Inactive)
    1  A    between atoms: C_4  and  N_13
    2  A    between atoms: N_7  and  C_16
    3  A    between atoms: C_8  and  C_12
    4  A    between atoms: N_13  and  C_27
    5  A    between atoms: C_16  and  C_30
    6  A    between atoms: C_27  and  C_30
                            x       y       z     vdW  Elec       q    Type
                         _______ _______ _______ _____ _____    ______ ____

>  <TORSDO>
F 6

$$$$
