=
 OpenBabel11052416343D

 43 49  0  0  1  0  0  0  0  0999 V2000
  191.1710  176.7420  147.0510 C   0  0  0  0  0  0  0  0  0  0  0  0
  189.2170  178.0220  142.5510 C   0  0  0  0  0  0  0  0  0  0  0  0
  186.4170  178.1600  142.8920 C   0  0  0  0  0  0  0  0  0  0  0  0
  190.8540  177.3540  144.7010 C   0  0  2  0  0  3  0  0  0  0  0  0
  189.8630  176.7820  147.3080 C   0  0  0  0  0  3  0  0  0  0  0  0
  192.0630  176.4190  148.0640 O   0  0  0  0  0  1  0  0  0  0  0  0
  189.4560  177.4170  144.8950 C   0  0  0  0  0  0  0  0  0  0  0  0
  191.6790  177.0390  145.7020 C   0  0  0  0  0  3  0  0  0  0  0  0
  188.8480  177.1270  146.2510 C   0  0  0  0  0  3  0  0  0  0  0  0
  187.1640  177.8350  143.9520 C   0  0  0  0  0  3  0  0  0  0  0  0
  188.6300  177.7540  143.8070 C   0  0  0  0  0  0  0  0  0  0  0  0
  190.5690  177.9520  142.4060 N   0  0  0  0  0  0  0  0  0  0  0  0
  188.4390  178.3470  141.5060 C   0  0  0  0  0  0  0  0  0  0  0  0
  187.0430  178.4170  141.6640 O   0  0  0  0  0  0  0  0  0  0  0  0
  191.3860  177.6270  143.4410 C   0  0  0  0  0  3  0  0  0  0  0  0
  184.9530  178.2530  142.9890 C   0  0  0  0  0  0  0  0  0  0  0  0
  184.2400  178.5510  141.9430 N   0  0  0  0  0  0  0  0  0  0  0  0
  184.3660  178.0190  144.1920 F   0  0  0  0  0  0  0  0  0  0  0  0
  182.8110  178.6660  141.9160 C   0  0  0  0  0  0  0  0  0  0  0  0
  182.1560  178.9470  142.9550 O   0  0  0  0  0  0  0  0  0  0  0  0
  182.0860  178.4080  140.6430 C   0  0  0  0  0  2  0  0  0  0  0  0
  182.6670  179.2070  139.5720 N   0  0  0  0  0  0  0  0  0  0  0  0
  181.9770  178.5600  137.2850 C   0  0  0  0  0  2  0  0  0  0  0  0
  183.8570  177.1390  138.5990 C   0  0  2  0  0  3  0  0  0  0  0  0
  181.6090  180.1100  139.1170 C   0  0  0  0  0  2  0  0  0  0  0  0
  182.9200  178.3340  138.4350 C   0  0  2  0  0  0  0  0  0  0  0  0
  184.3620  178.4400  137.9870 C   0  0  0  0  0  2  0  0  0  0  0  0
  181.3620  179.8940  137.6270 C   0  0  0  0  0  2  0  0  0  0  0  0
  183.6180  176.1510  137.5540 N   0  0  2  0  0  0  0  0  0  0  0  0
  185.0830  174.4860  136.7830 C   0  0  0  0  0  0  0  0  0  0  0  0
  184.0960  173.7630  137.5930 C   0  0  0  0  0  2  0  0  0  0  0  0
  186.1990  173.9640  136.4360 N   0  0  0  0  0  2  0  0  0  0  0  0
  183.2850  174.8840  138.2190 C   0  0  0  0  0  2  0  0  0  0  0  0
  184.8810  175.9450  136.8490 C   0  0  0  0  0  2  0  0  0  0  0  0
  189.0150  178.6130  140.2610 O   0  0  0  0  0  0  0  0  0  0  0  0
  188.3300  177.7630  136.6430 C   0  0  0  0  0  2  0  0  0  0  0  0
  188.8630  176.3280  136.7450 C   0  0  2  0  0  3  0  0  0  0  0  0
  189.9140  176.7560  139.0070 C   0  0  0  0  0  2  0  0  0  0  0  0
  188.6650  178.6310  137.8630 C   0  0  0  0  0  2  0  0  0  0  0  0
  188.7810  177.7850  139.1310 C   0  0  2  0  0  3  0  0  0  0  0  0
  190.1500  176.2730  137.5700 C   0  0  0  0  0  2  0  0  0  0  0  0
  190.3830  176.2200  134.8470 N   0  0  0  0  0  1  0  0  0  0  0  0
  189.0970  175.7740  135.3520 C   0  0  0  0  0  2  0  0  0  0  0  0
  1  5  1  0  0  0  0
  1  6  1  0  0  0  0
  2 11  1  0  0  0  0
  3 16  1  0  0  0  0
  3 10  2  0  0  0  0
  4 15  1  1  0  0  0
  4  7  1  0  0  0  0
  4  8  1  0  0  0  0
  7  9  1  0  0  0  0
  8  1  2  0  0  0  0
  9  5  2  0  0  0  0
 11 10  1  0  0  0  0
 11  7  2  0  0  0  0
 12  2  1  0  0  0  0
 12 15  2  0  0  0  0
 13 14  1  0  0  0  0
 13  2  2  0  0  0  0
 14  3  1  0  0  0  0
 16 18  1  0  0  0  0
 17 16  2  0  0  0  0
 19 17  1  0  0  0  0
 19 20  2  0  0  0  0
 21 19  1  0  0  0  0
 22 21  1  0  0  0  0
 23 28  1  0  0  0  0
 24 27  1  6  0  0  0
 25 22  1  0  0  0  0
 26 23  1  6  0  0  0
 26 24  1  0  0  0  0
 26 22  1  0  0  0  0
 27 26  1  0  0  0  0
 28 25  1  0  0  0  0
 29 34  1  1  0  0  0
 29 33  1  0  0  0  0
 29 24  1  0  0  0  0
 30 34  1  0  0  0  0
 30 31  1  0  0  0  0
 31 33  1  0  0  0  0
 32 30  2  0  0  0  0
 35 13  1  0  0  0  0
 36 37  1  0  0  0  0
 36 39  1  0  0  0  0
 37 43  1  6  0  0  0
 37 41  1  0  0  0  0
 38 40  1  0  0  0  0
 39 40  1  0  0  0  0
 40 35  1  1  0  0  0
 41 38  1  0  0  0  0
 42 43  1  0  0  0  0
M  END
>  <MODEL>
1

>  <REMARK>
 VINA RESULT:      -9.5      0.000      0.000
  Name = 
  8 active torsions:
  status: ('A' for Active; 'I' for Inactive)
    1  A    between atoms: O_1  and  C_34
    2  A    between atoms: O_1  and  C_35
    3  A    between atoms: C_2  and  C_13
    4  A    between atoms: C_3  and  N_4
    5  A    between atoms: C_3  and  C_12
    6  A    between atoms: N_6  and  C_12
    7  A    between atoms: N_11  and  C_14
    8  A    between atoms: C_19  and  C_37
                            x       y       z     vdW  Elec       q    Type
                         _______ _______ _______ _____ _____    ______ ____

>  <TORSDO>
F 8

$$$$
=
 OpenBabel11052416343D

 43 49  0  0  1  0  0  0  0  0999 V2000
  191.2430  176.6800  146.9550 C   0  0  0  0  0  0  0  0  0  0  0  0
  189.0850  177.9080  142.5340 C   0  0  0  0  0  0  0  0  0  0  0  0
  186.3170  178.1670  143.0270 C   0  0  0  0  0  0  0  0  0  0  0  0
  190.8150  177.2380  144.6090 C   0  0  1  0  0  3  0  0  0  0  0  0
  189.9540  176.7800  147.2830 C   0  0  0  0  0  3  0  0  0  0  0  0
  192.1780  176.3510  147.9260 O   0  0  0  0  0  1  0  0  0  0  0  0
  189.4340  177.3610  144.8780 C   0  0  0  0  0  0  0  0  0  0  0  0
  191.6840  176.9180  145.5710 C   0  0  0  0  0  3  0  0  0  0  0  0
  188.8940  177.1340  146.2750 C   0  0  0  0  0  3  0  0  0  0  0  0
  187.1090  177.8430  144.0530 C   0  0  0  0  0  3  0  0  0  0  0  0
  188.5610  177.7000  143.8290 C   0  0  0  0  0  0  0  0  0  0  0  0
  190.4220  177.7800  142.3160 N   0  0  0  0  0  0  0  0  0  0  0  0
  188.2610  178.2340  141.5250 C   0  0  0  0  0  0  0  0  0  0  0  0
  186.8800  178.3640  141.7590 O   0  0  0  0  0  0  0  0  0  0  0  0
  191.2840  177.4530  143.3130 C   0  0  0  0  0  3  0  0  0  0  0  0
  184.8650  178.3210  143.2040 C   0  0  0  0  0  0  0  0  0  0  0  0
  184.0900  178.4960  142.1740 N   0  0  0  0  0  0  0  0  0  0  0  0
  184.3550  178.2750  144.4620 F   0  0  0  0  0  0  0  0  0  0  0  0
  182.6660  178.6530  142.2210 C   0  0  0  0  0  0  0  0  0  0  0  0
  182.0870  179.0670  143.2610 O   0  0  0  0  0  0  0  0  0  0  0  0
  181.8540  178.2820  141.0310 C   0  0  0  0  0  2  0  0  0  0  0  0
  182.6630  178.3990  139.8250 N   0  0  0  0  0  0  0  0  0  0  0  0
  181.4020  178.2660  137.6990 C   0  0  0  0  0  2  0  0  0  0  0  0
  181.9930  176.0250  139.0790 C   0  0  2  0  0  3  0  0  0  0  0  0
  182.4410  179.7520  139.3140 C   0  0  0  0  0  2  0  0  0  0  0  0
  182.0970  177.5240  138.8080 C   0  0  2  0  0  0  0  0  0  0  0  0
  183.1500  176.5850  138.2610 C   0  0  0  0  0  2  0  0  0  0  0  0
  181.9050  179.6760  137.8870 C   0  0  0  0  0  2  0  0  0  0  0  0
  181.0050  175.4100  138.2000 N   0  0  2  0  0  0  0  0  0  0  0  0
  180.8390  173.1530  137.5780 C   0  0  0  0  0  0  0  0  0  0  0  0
  179.7510  173.3510  138.5430 C   0  0  0  0  0  2  0  0  0  0  0  0
  181.2480  171.9880  137.2370 N   0  0  0  0  0  2  0  0  0  0  0  0
  180.0060  174.7570  139.0570 C   0  0  0  0  0  2  0  0  0  0  0  0
  181.6840  174.3540  137.4520 C   0  0  0  0  0  2  0  0  0  0  0  0
  188.7750  178.4420  140.2420 O   0  0  0  0  0  0  0  0  0  0  0  0
  187.1890  176.8080  137.2260 C   0  0  0  0  0  2  0  0  0  0  0  0
  188.4580  176.0550  136.8060 C   0  0  2  0  0  3  0  0  0  0  0  0
  189.9120  177.3840  138.3940 C   0  0  0  0  0  2  0  0  0  0  0  0
  187.4340  177.8700  138.3060 C   0  0  0  0  0  2  0  0  0  0  0  0
  188.6120  177.4870  139.2020 C   0  0  2  0  0  3  0  0  0  0  0  0
  189.6980  176.9410  136.9410 C   0  0  0  0  0  2  0  0  0  0  0  0
  187.1900  174.6360  135.2880 N   0  0  0  0  0  1  0  0  0  0  0  0
  188.3050  175.5610  135.3790 C   0  0  0  0  0  2  0  0  0  0  0  0
  1  5  1  0  0  0  0
  1  6  1  0  0  0  0
  2 11  1  0  0  0  0
  3 16  1  0  0  0  0
  3 10  2  0  0  0  0
  4 15  1  6  0  0  0
  4  7  1  0  0  0  0
  4  8  1  0  0  0  0
  7  9  1  0  0  0  0
  8  1  2  0  0  0  0
  9  5  2  0  0  0  0
 11 10  1  0  0  0  0
 11  7  2  0  0  0  0
 12  2  1  0  0  0  0
 12 15  2  0  0  0  0
 13 14  1  0  0  0  0
 13  2  2  0  0  0  0
 14  3  1  0  0  0  0
 16 18  1  0  0  0  0
 17 19  1  0  0  0  0
 17 16  2  0  0  0  0
 19 20  2  0  0  0  0
 21 19  1  0  0  0  0
 22 21  1  0  0  0  0
 23 28  1  0  0  0  0
 24 27  1  6  0  0  0
 25 22  1  0  0  0  0
 26 23  1  6  0  0  0
 26 24  1  0  0  0  0
 26 22  1  0  0  0  0
 27 26  1  0  0  0  0
 28 25  1  0  0  0  0
 29 34  1  6  0  0  0
 29 33  1  0  0  0  0
 29 24  1  0  0  0  0
 30 31  1  0  0  0  0
 31 33  1  0  0  0  0
 32 30  2  0  0  0  0
 34 30  1  0  0  0  0
 35 13  1  0  0  0  0
 36 39  1  0  0  0  0
 37 43  1  6  0  0  0
 37 41  1  0  0  0  0
 37 36  1  0  0  0  0
 38 40  1  0  0  0  0
 39 40  1  0  0  0  0
 40 35  1  1  0  0  0
 41 38  1  0  0  0  0
 42 43  1  0  0  0  0
M  END
>  <MODEL>
2

>  <REMARK>
 VINA RESULT:      -9.4      1.450      1.789
  Name = 
  8 active torsions:
  status: ('A' for Active; 'I' for Inactive)
    1  A    between atoms: O_1  and  C_34
    2  A    between atoms: O_1  and  C_35
    3  A    between atoms: C_2  and  C_13
    4  A    between atoms: C_3  and  N_4
    5  A    between atoms: C_3  and  C_12
    6  A    between atoms: N_6  and  C_12
    7  A    between atoms: N_11  and  C_14
    8  A    between atoms: C_19  and  C_37
                            x       y       z     vdW  Elec       q    Type
                         _______ _______ _______ _____ _____    ______ ____

>  <TORSDO>
F 8

$$$$
=
 OpenBabel11052416343D

 43 49  0  0  1  0  0  0  0  0999 V2000
  180.4410  179.2920  141.6820 C   0  0  0  0  0  0  0  0  0  0  0  0
  184.8260  178.5350  144.1130 C   0  0  0  0  0  0  0  0  0  0  0  0
  186.8290  178.3470  142.1320 C   0  0  0  0  0  0  0  0  0  0  0  0
  182.1730  178.9550  143.3800 C   0  0  0  0  0  0  0  0  0  0  0  0
  181.3160  179.2180  140.6780 C   0  0  0  0  0  3  0  0  0  0  0  0
  179.0960  179.5020  141.4100 O   0  0  0  0  0  1  0  0  0  0  0  0
  183.1590  178.8640  142.3720 C   0  0  0  0  0  0  0  0  0  0  0  0
  180.8890  179.1570  143.0770 C   0  0  0  0  0  3  0  0  0  0  0  0
  182.7860  178.9930  140.9100 C   0  0  0  0  0  2  0  0  0  0  0  0
  185.5700  178.5480  141.7340 C   0  0  0  0  0  3  0  0  0  0  0  0
  184.4990  178.6510  142.7450 C   0  0  0  0  0  0  0  0  0  0  0  0
  183.8460  178.6290  145.0540 N   0  0  0  0  0  0  0  0  0  0  0  0
  186.1010  178.3330  144.4800 C   0  0  0  0  0  0  0  0  0  0  0  0
  187.1080  178.2360  143.5020 O   0  0  0  0  0  0  0  0  0  0  0  0
  182.5460  178.8340  144.7180 C   0  0  0  0  0  3  0  0  0  0  0  0
  187.9290  178.2380  141.1620 C   0  0  0  0  0  0  0  0  0  0  0  0
  187.6990  178.3640  139.8880 N   0  0  0  0  0  0  0  0  0  0  0  0
  189.1850  178.0070  141.6260 F   0  0  0  0  0  0  0  0  0  0  0  0
  188.6870  178.2820  138.8520 C   0  0  0  0  0  0  0  0  0  0  0  0
  189.0560  179.3050  138.2160 O   0  0  0  0  0  0  0  0  0  0  0  0
  189.2580  176.9550  138.4960 C   0  0  0  0  0  2  0  0  0  0  0  0
  188.9340  176.6340  137.1120 N   0  0  0  0  0  0  0  0  0  0  0  0
  189.5500  174.3470  136.3930 C   0  0  0  0  0  2  0  0  0  0  0  0
  191.4250  176.2820  136.5520 C   0  0  2  0  0  3  0  0  0  0  0  0
  187.7460  175.7810  137.1580 C   0  0  0  0  0  2  0  0  0  0  0  0
  189.9840  175.7750  136.5830 C   0  0  2  0  0  0  0  0  0  0  0  0
  190.5540  176.3490  135.3040 C   0  0  0  0  0  2  0  0  0  0  0  0
  188.0480  174.4510  136.4720 C   0  0  0  0  0  2  0  0  0  0  0  0
  192.3600  175.1670  136.4550 N   0  0  2  0  0  0  0  0  0  0  0  0
  194.7050  175.2560  136.4030 C   0  0  0  0  0  0  0  0  0  0  0  0
  194.3840  174.7750  137.7520 C   0  0  0  0  0  2  0  0  0  0  0  0
  195.8630  175.7050  136.0930 N   0  0  0  0  0  2  0  0  0  0  0  0
  192.8720  174.9090  137.8080 C   0  0  0  0  0  2  0  0  0  0  0  0
  193.4920  175.6150  135.6470 C   0  0  0  0  0  2  0  0  0  0  0  0
  186.4300  178.2180  145.8330 O   0  0  0  0  0  0  0  0  0  0  0  0
  190.0770  177.2310  145.7840 C   0  0  0  0  0  2  0  0  0  0  0  0
  190.1280  176.8520  147.2700 C   0  0  2  0  0  3  0  0  0  0  0  0
  187.8830  177.9220  147.7390 C   0  0  0  0  0  2  0  0  0  0  0  0
  188.8000  177.9800  145.3850 C   0  0  0  0  0  2  0  0  0  0  0  0
  187.6190  177.5740  146.2670 C   0  0  2  0  0  3  0  0  0  0  0  0
  189.3670  177.8650  148.1260 C   0  0  0  0  0  2  0  0  0  0  0  0
  192.2180  175.6190  147.0770 N   0  0  0  0  0  1  0  0  0  0  0  0
  191.5740  176.7520  147.7180 C   0  0  0  0  0  2  0  0  0  0  0  0
  1  8  1  0  0  0  0
  2 13  2  0  0  0  0
  2 12  1  0  0  0  0
  3 14  1  0  0  0  0
  4 15  1  0  0  0  0
  5  9  1  0  0  0  0
  5  1  2  0  0  0  0
  6  1  1  0  0  0  0
  7 11  2  0  0  0  0
  7  4  1  0  0  0  0
  8  4  2  0  0  0  0
  9  7  1  0  0  0  0
 10  3  2  0  0  0  0
 10 11  1  0  0  0  0
 11  2  1  0  0  0  0
 13 35  1  0  0  0  0
 14 13  1  0  0  0  0
 15 12  2  0  0  0  0
 16 18  1  0  0  0  0
 16  3  1  0  0  0  0
 17 16  2  0  0  0  0
 19 17  1  0  0  0  0
 20 19  2  0  0  0  0
 21 19  1  0  0  0  0
 22 25  1  0  0  0  0
 22 21  1  0  0  0  0
 23 28  1  0  0  0  0
 23 26  1  0  0  0  0
 24 27  1  6  0  0  0
 24 26  1  0  0  0  0
 26 27  1  6  0  0  0
 26 22  1  0  0  0  0
 28 25  1  0  0  0  0
 29 34  1  6  0  0  0
 29 24  1  0  0  0  0
 29 33  1  0  0  0  0
 30 31  1  0  0  0  0
 31 33  1  0  0  0  0
 32 30  2  0  0  0  0
 34 30  1  0  0  0  0
 36 37  1  0  0  0  0
 37 43  1  1  0  0  0
 37 41  1  0  0  0  0
 38 41  1  0  0  0  0
 39 36  1  0  0  0  0
 39 40  1  0  0  0  0
 40 35  1  6  0  0  0
 40 38  1  0  0  0  0
 42 43  1  0  0  0  0
M  END
>  <MODEL>
3

>  <REMARK>
 VINA RESULT:      -9.3      2.801      8.473
  Name = 
  8 active torsions:
  status: ('A' for Active; 'I' for Inactive)
    1  A    between atoms: O_1  and  C_34
    2  A    between atoms: O_1  and  C_35
    3  A    between atoms: C_2  and  C_13
    4  A    between atoms: C_3  and  N_4
    5  A    between atoms: C_3  and  C_12
    6  A    between atoms: N_6  and  C_12
    7  A    between atoms: N_11  and  C_14
    8  A    between atoms: C_19  and  C_37
                            x       y       z     vdW  Elec       q    Type
                         _______ _______ _______ _____ _____    ______ ____

>  <TORSDO>
F 8

$$$$
=
 OpenBabel11052416343D

 43 49  0  0  1  0  0  0  0  0999 V2000
  187.9480  177.3360  147.0150 C   0  0  0  0  0  0  0  0  0  0  0  0
  186.1710  178.5750  142.4310 C   0  0  0  0  0  0  0  0  0  0  0  0
  188.3040  178.2310  140.6130 C   0  0  0  0  0  0  0  0  0  0  0  0
  186.5430  178.0430  145.1380 C   0  0  0  0  0  0  0  0  0  0  0  0
  189.0120  177.1440  146.2340 C   0  0  0  0  0  3  0  0  0  0  0  0
  188.0420  177.0940  148.3790 O   0  0  0  0  0  1  0  0  0  0  0  0
  187.6250  177.8640  144.2460 C   0  0  0  0  0  0  0  0  0  0  0  0
  186.6740  177.8000  146.4440 C   0  0  0  0  0  3  0  0  0  0  0  0
  188.9720  177.3880  144.7490 C   0  0  0  0  0  2  0  0  0  0  0  0
  188.5290  177.9630  141.9040 C   0  0  0  0  0  3  0  0  0  0  0  0
  187.4340  178.1340  142.8790 C   0  0  0  0  0  0  0  0  0  0  0  0
  185.1530  178.7350  143.3220 N   0  0  0  0  0  0  0  0  0  0  0  0
  185.9770  178.8350  141.1280 C   0  0  0  0  0  0  0  0  0  0  0  0
  187.0330  178.6680  140.2140 O   0  0  0  0  0  0  0  0  0  0  0  0
  185.3140  178.4810  144.6470 C   0  0  0  0  0  3  0  0  0  0  0  0
  189.3630  178.0750  139.6060 C   0  0  0  0  0  0  0  0  0  0  0  0
  190.1720  177.0570  139.6500 N   0  0  0  0  0  0  0  0  0  0  0  0
  189.4750  179.0150  138.6310 F   0  0  0  0  0  0  0  0  0  0  0  0
  191.2350  176.7990  138.7240 C   0  0  0  0  0  0  0  0  0  0  0  0
  192.4360  176.7470  139.1030 O   0  0  0  0  0  0  0  0  0  0  0  0
  190.9170  176.6280  137.2810 C   0  0  0  0  0  2  0  0  0  0  0  0
  191.0110  175.2210  136.9170 N   0  0  0  0  0  0  0  0  0  0  0  0
  189.7620  174.5770  134.8790 C   0  0  0  0  0  2  0  0  0  0  0  0
  188.4710  174.9130  137.2250 C   0  0  2  0  0  3  0  0  0  0  0  0
  191.9390  175.1530  135.7870 C   0  0  0  0  0  2  0  0  0  0  0  0
  189.7290  174.8030  136.3660 C   0  0  2  0  0  0  0  0  0  0  0  0
  189.2040  173.5840  137.0930 C   0  0  0  0  0  2  0  0  0  0  0  0
  191.2410  174.5060  134.5940 C   0  0  0  0  0  2  0  0  0  0  0  0
  187.2760  174.9150  136.3880 N   0  0  2  0  0  0  0  0  0  0  0  0
  185.0650  174.4670  137.0360 C   0  0  0  0  0  0  0  0  0  0  0  0
  185.1080  175.9220  136.8510 C   0  0  0  0  0  2  0  0  0  0  0  0
  184.1130  173.8840  137.6630 N   0  0  0  0  0  2  0  0  0  0  0  0
  186.5850  176.1900  136.6180 C   0  0  0  0  0  2  0  0  0  0  0  0
  186.3970  173.8560  136.8800 C   0  0  0  0  0  2  0  0  0  0  0  0
  184.7280  179.2710  140.6800 O   0  0  0  0  0  0  0  0  0  0  0  0
  182.3750  176.6200  139.3700 C   0  0  0  0  0  2  0  0  0  0  0  0
  182.0370  177.3750  138.0770 C   0  0  2  0  0  3  0  0  0  0  0  0
  183.1010  179.5140  138.9120 C   0  0  0  0  0  2  0  0  0  0  0  0
  183.1290  177.4710  140.3990 C   0  0  0  0  0  2  0  0  0  0  0  0
  183.9770  178.5450  139.7170 C   0  0  2  0  0  3  0  0  0  0  0  0
  181.8300  178.8670  138.3460 C   0  0  0  0  0  2  0  0  0  0  0  0
  181.1490  175.5590  136.7220 N   0  0  0  0  0  1  0  0  0  0  0  0
  180.7980  176.7690  137.4450 C   0  0  0  0  0  2  0  0  0  0  0  0
  1  6  1  0  0  0  0
  2 11  1  0  0  0  0
  2 12  1  0  0  0  0
  3 10  2  0  0  0  0
  4  8  2  0  0  0  0
  5  1  2  0  0  0  0
  7  9  1  0  0  0  0
  7  4  1  0  0  0  0
  8  1  1  0  0  0  0
  9  5  1  0  0  0  0
 10 11  1  0  0  0  0
 11  7  2  0  0  0  0
 12 15  2  0  0  0  0
 13  2  2  0  0  0  0
 14  3  1  0  0  0  0
 14 13  1  0  0  0  0
 15  4  1  0  0  0  0
 16 17  2  0  0  0  0
 16  3  1  0  0  0  0
 18 16  1  0  0  0  0
 19 20  2  0  0  0  0
 19 17  1  0  0  0  0
 21 19  1  0  0  0  0
 22 21  1  0  0  0  0
 24 27  1  1  0  0  0
 25 22  1  0  0  0  0
 26 23  1  6  0  0  0
 26 22  1  0  0  0  0
 26 27  1  0  0  0  0
 26 24  1  0  0  0  0
 28 23  1  0  0  0  0
 28 25  1  0  0  0  0
 29 33  1  1  0  0  0
 29 34  1  0  0  0  0
 29 24  1  0  0  0  0
 30 32  2  0  0  0  0
 31 30  1  0  0  0  0
 33 31  1  0  0  0  0
 34 30  1  0  0  0  0
 35 13  1  0  0  0  0
 36 39  1  0  0  0  0
 37 43  1  1  0  0  0
 37 41  1  0  0  0  0
 37 36  1  0  0  0  0
 38 40  1  0  0  0  0
 40 39  1  0  0  0  0
 40 35  1  1  0  0  0
 41 38  1  0  0  0  0
 42 43  1  0  0  0  0
M  END
>  <MODEL>
4

>  <REMARK>
 VINA RESULT:      -9.3      2.218      6.347
  Name = 
  8 active torsions:
  status: ('A' for Active; 'I' for Inactive)
    1  A    between atoms: O_1  and  C_34
    2  A    between atoms: O_1  and  C_35
    3  A    between atoms: C_2  and  C_13
    4  A    between atoms: C_3  and  N_4
    5  A    between atoms: C_3  and  C_12
    6  A    between atoms: N_6  and  C_12
    7  A    between atoms: N_11  and  C_14
    8  A    between atoms: C_19  and  C_37
                            x       y       z     vdW  Elec       q    Type
                         _______ _______ _______ _____ _____    ______ ____

>  <TORSDO>
F 8

$$$$
=
 OpenBabel11052416343D

 43 49  0  0  1  0  0  0  0  0999 V2000
  191.2030  176.7810  146.8320 C   0  0  0  0  0  0  0  0  0  0  0  0
  187.0190  177.8660  144.1820 C   0  0  0  0  0  0  0  0  0  0  0  0
  187.8050  178.0890  141.4790 C   0  0  0  0  0  0  0  0  0  0  0  0
  188.9060  177.2750  146.1410 C   0  0  0  0  0  0  0  0  0  0  0  0
  191.6670  176.8650  145.5850 C   0  0  0  0  0  3  0  0  0  0  0  0
  192.0720  176.4880  147.8740 O   0  0  0  0  0  1  0  0  0  0  0  0
  189.3220  177.3820  144.7950 C   0  0  0  0  0  0  0  0  0  0  0  0
  189.7740  176.9920  147.1150 C   0  0  0  0  0  3  0  0  0  0  0  0
  190.7730  177.1780  144.4150 C   0  0  0  0  0  2  0  0  0  0  0  0
  188.7460  177.8040  142.3860 C   0  0  0  0  0  3  0  0  0  0  0  0
  188.3670  177.6810  143.8070 C   0  0  0  0  0  0  0  0  0  0  0  0
  186.6580  177.7540  145.4900 N   0  0  0  0  0  0  0  0  0  0  0  0
  186.0980  178.1510  143.2470 C   0  0  0  0  0  0  0  0  0  0  0  0
  186.4790  178.2660  141.8980 O   0  0  0  0  0  0  0  0  0  0  0  0
  187.5620  177.4660  146.4620 C   0  0  0  0  0  3  0  0  0  0  0  0
  188.1350  178.2210  140.0530 C   0  0  0  0  0  0  0  0  0  0  0  0
  187.1910  178.2880  139.1600 N   0  0  0  0  0  0  0  0  0  0  0  0
  189.4440  178.2730  139.6910 F   0  0  0  0  0  0  0  0  0  0  0  0
  187.3900  178.4210  137.7470 C   0  0  0  0  0  0  0  0  0  0  0  0
  188.0310  179.3920  137.2640 O   0  0  0  0  0  0  0  0  0  0  0  0
  186.7940  177.4120  136.8310 C   0  0  0  0  0  2  0  0  0  0  0  0
  187.6060  176.2020  136.8320 N   0  0  0  0  0  0  0  0  0  0  0  0
  187.2600  174.7040  134.8920 C   0  0  0  0  0  2  0  0  0  0  0  0
  185.4990  174.7210  136.9360 C   0  0  2  0  0  3  0  0  0  0  0  0
  188.6740  176.4260  135.8570 C   0  0  0  0  0  2  0  0  0  0  0  0
  186.8140  175.1180  136.2670 C   0  0  2  0  0  0  0  0  0  0  0  0
  186.7750  173.9340  137.2090 C   0  0  0  0  0  2  0  0  0  0  0  0
  188.6250  175.3370  134.7890 C   0  0  0  0  0  2  0  0  0  0  0  0
  184.6480  173.9920  136.0030 N   0  0  2  0  0  0  0  0  0  0  0  0
  182.8420  172.5790  136.5060 C   0  0  0  0  0  0  0  0  0  0  0  0
  182.2190  173.8080  136.0010 C   0  0  0  0  0  2  0  0  0  0  0  0
  182.1810  171.6890  137.1480 N   0  0  0  0  0  2  0  0  0  0  0  0
  183.3990  174.7540  135.8660 C   0  0  0  0  0  2  0  0  0  0  0  0
  184.3040  172.7170  136.6300 C   0  0  0  0  0  2  0  0  0  0  0  0
  184.7620  178.3340  143.6140 O   0  0  0  0  0  0  0  0  0  0  0  0
  182.6340  178.2710  140.4910 C   0  0  0  0  0  2  0  0  0  0  0  0
  181.5440  179.1890  141.0600 C   0  0  2  0  0  3  0  0  0  0  0  0
  182.4490  178.9960  143.4160 C   0  0  0  0  0  2  0  0  0  0  0  0
  183.6280  177.7710  141.5470 C   0  0  0  0  0  2  0  0  0  0  0  0
  183.7810  178.7780  142.6860 C   0  0  2  0  0  3  0  0  0  0  0  0
  181.2200  178.8300  142.5120 C   0  0  0  0  0  2  0  0  0  0  0  0
  179.8520  177.7160  140.1140 N   0  0  0  0  0  1  0  0  0  0  0  0
  180.3000  179.0950  140.1960 C   0  0  0  0  0  2  0  0  0  0  0  0
  1  8  1  0  0  0  0
  1  6  1  0  0  0  0
  2 12  1  0  0  0  0
  3 14  1  0  0  0  0
  3 10  2  0  0  0  0
  4 15  1  0  0  0  0
  4  8  2  0  0  0  0
  5  1  2  0  0  0  0
  7  4  1  0  0  0  0
  9  7  1  0  0  0  0
  9  5  1  0  0  0  0
 10 11  1  0  0  0  0
 11  2  1  0  0  0  0
 11  7  2  0  0  0  0
 12 15  2  0  0  0  0
 13 35  1  0  0  0  0
 13  2  2  0  0  0  0
 14 13  1  0  0  0  0
 16  3  1  0  0  0  0
 17 16  2  0  0  0  0
 18 16  1  0  0  0  0
 19 17  1  0  0  0  0
 20 19  2  0  0  0  0
 21 22  1  0  0  0  0
 21 19  1  0  0  0  0
 24 27  1  1  0  0  0
 25 22  1  0  0  0  0
 26 23  1  6  0  0  0
 26 22  1  0  0  0  0
 26 24  1  0  0  0  0
 26 27  1  0  0  0  0
 28 23  1  0  0  0  0
 28 25  1  0  0  0  0
 29 33  1  1  0  0  0
 29 34  1  0  0  0  0
 29 24  1  0  0  0  0
 30 34  1  0  0  0  0
 30 32  2  0  0  0  0
 31 30  1  0  0  0  0
 33 31  1  0  0  0  0
 36 37  1  0  0  0  0
 36 39  1  0  0  0  0
 37 43  1  6  0  0  0
 37 41  1  0  0  0  0
 39 40  1  0  0  0  0
 40 38  1  0  0  0  0
 40 35  1  1  0  0  0
 41 38  1  0  0  0  0
 42 43  1  0  0  0  0
M  END
>  <MODEL>
5

>  <REMARK>
 VINA RESULT:      -9.2      2.219      5.659
  Name = 
  8 active torsions:
  status: ('A' for Active; 'I' for Inactive)
    1  A    between atoms: O_1  and  C_34
    2  A    between atoms: O_1  and  C_35
    3  A    between atoms: C_2  and  C_13
    4  A    between atoms: C_3  and  N_4
    5  A    between atoms: C_3  and  C_12
    6  A    between atoms: N_6  and  C_12
    7  A    between atoms: N_11  and  C_14
    8  A    between atoms: C_19  and  C_37
                            x       y       z     vdW  Elec       q    Type
                         _______ _______ _______ _____ _____    ______ ____

>  <TORSDO>
F 8

$$$$
=
 OpenBabel11052416343D

 43 49  0  0  1  0  0  0  0  0999 V2000
  191.2980  176.6550  147.0990 C   0  0  0  0  0  0  0  0  0  0  0  0
  186.9960  177.9340  144.7410 C   0  0  0  0  0  0  0  0  0  0  0  0
  187.6060  178.1310  141.9910 C   0  0  0  0  0  0  0  0  0  0  0  0
  188.9840  177.2530  146.5660 C   0  0  0  0  0  0  0  0  0  0  0  0
  191.6800  176.7240  145.8240 C   0  0  0  0  0  3  0  0  0  0  0  0
  192.2230  176.3210  148.0790 O   0  0  0  0  0  1  0  0  0  0  0  0
  189.3120  177.3460  145.1950 C   0  0  0  0  0  0  0  0  0  0  0  0
  189.9030  176.9290  147.4790 C   0  0  0  0  0  3  0  0  0  0  0  0
  190.7240  177.0800  144.7170 C   0  0  0  0  0  2  0  0  0  0  0  0
  188.5920  177.8020  142.8310 C   0  0  0  0  0  3  0  0  0  0  0  0
  188.3060  177.6900  144.2750 C   0  0  0  0  0  0  0  0  0  0  0  0
  186.7200  177.8330  146.0700 N   0  0  0  0  0  0  0  0  0  0  0  0
  186.0270  178.2620  143.8710 C   0  0  0  0  0  0  0  0  0  0  0  0
  186.3200  178.3640  142.4990 O   0  0  0  0  0  0  0  0  0  0  0  0
  187.6750  177.5020  146.9780 C   0  0  0  0  0  3  0  0  0  0  0  0
  187.8430  178.2530  140.5450 C   0  0  0  0  0  0  0  0  0  0  0  0
  189.0560  178.2650  140.0740 N   0  0  0  0  0  0  0  0  0  0  0  0
  186.7710  178.3500  139.7160 F   0  0  0  0  0  0  0  0  0  0  0  0
  189.4100  178.3750  138.6900 C   0  0  0  0  0  0  0  0  0  0  0  0
  189.0560  179.3680  138.0000 O   0  0  0  0  0  0  0  0  0  0  0  0
  190.1760  177.2740  138.0460 C   0  0  0  0  0  2  0  0  0  0  0  0
  189.4900  176.8370  136.8360 N   0  0  0  0  0  0  0  0  0  0  0  0
  189.3260  174.3840  136.5510 C   0  0  0  0  0  2  0  0  0  0  0  0
  191.6250  175.6760  135.9790 C   0  0  2  0  0  3  0  0  0  0  0  0
  188.1610  176.3930  137.2580 C   0  0  0  0  0  2  0  0  0  0  0  0
  190.1440  175.6300  136.3500 C   0  0  2  0  0  0  0  0  0  0  0  0
  190.5540  175.7880  134.9020 C   0  0  0  0  0  2  0  0  0  0  0  0
  187.9550  174.9390  136.8430 C   0  0  0  0  0  2  0  0  0  0  0  0
  192.1980  174.3340  135.9830 N   0  0  2  0  0  0  0  0  0  0  0  0
  194.3590  173.6900  135.3330 C   0  0  0  0  0  0  0  0  0  0  0  0
  194.3800  173.6240  136.7990 C   0  0  0  0  0  2  0  0  0  0  0  0
  195.4310  173.6890  134.6320 N   0  0  0  0  0  2  0  0  0  0  0  0
  193.0380  174.2220  137.1830 C   0  0  0  0  0  2  0  0  0  0  0  0
  193.0870  174.2350  134.8280 C   0  0  0  0  0  2  0  0  0  0  0  0
  184.7290  178.5030  144.3280 O   0  0  0  0  0  0  0  0  0  0  0  0
  182.5740  178.6280  141.2260 C   0  0  0  0  0  2  0  0  0  0  0  0
  181.4150  179.3700  141.9050 C   0  0  2  0  0  3  0  0  0  0  0  0
  182.3640  178.9760  144.2170 C   0  0  0  0  0  2  0  0  0  0  0  0
  183.6220  178.0940  142.2110 C   0  0  0  0  0  2  0  0  0  0  0  0
  183.7010  178.9660  143.4640 C   0  0  2  0  0  3  0  0  0  0  0  0
  181.1430  178.8120  143.3030 C   0  0  0  0  0  2  0  0  0  0  0  0
  179.4850  178.0180  141.2940 N   0  0  0  0  0  1  0  0  0  0  0  0
  180.1730  179.2710  141.0380 C   0  0  0  0  0  2  0  0  0  0  0  0
  1  8  1  0  0  0  0
  1  6  1  0  0  0  0
  2 12  1  0  0  0  0
  3 14  1  0  0  0  0
  3 10  2  0  0  0  0
  4 15  1  0  0  0  0
  4  8  2  0  0  0  0
  5  1  2  0  0  0  0
  7  4  1  0  0  0  0
  9  7  1  0  0  0  0
  9  5  1  0  0  0  0
 10 11  1  0  0  0  0
 11  2  1  0  0  0  0
 11  7  2  0  0  0  0
 12 15  2  0  0  0  0
 13 35  1  0  0  0  0
 13  2  2  0  0  0  0
 14 13  1  0  0  0  0
 16  3  1  0  0  0  0
 17 16  2  0  0  0  0
 18 16  1  0  0  0  0
 19 17  1  0  0  0  0
 20 19  2  0  0  0  0
 21 19  1  0  0  0  0
 22 25  1  0  0  0  0
 22 21  1  0  0  0  0
 23 28  1  0  0  0  0
 24 27  1  6  0  0  0
 24 29  1  0  0  0  0
 24 26  1  0  0  0  0
 26 27  1  6  0  0  0
 26 23  1  0  0  0  0
 26 22  1  0  0  0  0
 28 25  1  0  0  0  0
 29 34  1  6  0  0  0
 29 33  1  0  0  0  0
 30 31  1  0  0  0  0
 31 33  1  0  0  0  0
 32 30  2  0  0  0  0
 34 30  1  0  0  0  0
 36 37  1  0  0  0  0
 36 39  1  0  0  0  0
 37 43  1  6  0  0  0
 37 41  1  0  0  0  0
 39 40  1  0  0  0  0
 40 38  1  0  0  0  0
 40 35  1  1  0  0  0
 41 38  1  0  0  0  0
 43 42  1  0  0  0  0
M  END
>  <MODEL>
6

>  <REMARK>
 VINA RESULT:      -9.2      2.611      7.032
  Name = 
  8 active torsions:
  status: ('A' for Active; 'I' for Inactive)
    1  A    between atoms: O_1  and  C_34
    2  A    between atoms: O_1  and  C_35
    3  A    between atoms: C_2  and  C_13
    4  A    between atoms: C_3  and  N_4
    5  A    between atoms: C_3  and  C_12
    6  A    between atoms: N_6  and  C_12
    7  A    between atoms: N_11  and  C_14
    8  A    between atoms: C_19  and  C_37
                            x       y       z     vdW  Elec       q    Type
                         _______ _______ _______ _____ _____    ______ ____

>  <TORSDO>
F 8

$$$$
=
 OpenBabel11052416343D

 43 49  0  0  1  0  0  0  0  0999 V2000
  184.6320  178.6070  145.6560 C   0  0  0  0  0  0  0  0  0  0  0  0
  182.5500  178.8270  141.0380 C   0  0  0  0  0  0  0  0  0  0  0  0
  184.6460  178.4460  139.1840 C   0  0  0  0  0  0  0  0  0  0  0  0
  183.0830  178.8090  143.7700 C   0  0  0  0  0  0  0  0  0  0  0  0
  185.6840  178.4180  144.8580 C   0  0  0  0  0  3  0  0  0  0  0  0
  184.8030  178.6120  147.0330 O   0  0  0  0  0  1  0  0  0  0  0  0
  184.1470  178.6170  142.8600 C   0  0  0  0  0  0  0  0  0  0  0  0
  183.2890  178.8080  145.0890 C   0  0  0  0  0  3  0  0  0  0  0  0
  185.5610  178.4020  143.3580 C   0  0  0  0  0  2  0  0  0  0  0  0
  184.9490  178.4300  140.4860 C   0  0  0  0  0  3  0  0  0  0  0  0
  183.8760  178.6260  141.4810 C   0  0  0  0  0  0  0  0  0  0  0  0
  181.5530  179.0080  141.9460 N   0  0  0  0  0  0  0  0  0  0  0  0
  182.2800  178.8370  139.7230 C   0  0  0  0  0  0  0  0  0  0  0  0
  183.3160  178.6500  138.7900 O   0  0  0  0  0  0  0  0  0  0  0  0
  181.7900  179.0030  143.2830 C   0  0  0  0  0  3  0  0  0  0  0  0
  185.6810  178.2540  138.1580 C   0  0  0  0  0  0  0  0  0  0  0  0
  186.9330  178.4750  138.4330 N   0  0  0  0  0  0  0  0  0  0  0  0
  185.3010  177.8400  136.9210 F   0  0  0  0  0  0  0  0  0  0  0  0
  188.0260  178.3190  137.5190 C   0  0  0  0  0  0  0  0  0  0  0  0
  188.4500  179.2880  136.8340 O   0  0  0  0  0  0  0  0  0  0  0  0
  188.6450  176.9770  137.3490 C   0  0  0  0  0  2  0  0  0  0  0  0
  190.0950  177.1070  137.2820 N   0  0  0  0  0  0  0  0  0  0  0  0
  191.3620  175.3260  138.4440 C   0  0  0  0  0  2  0  0  0  0  0  0
  190.2480  177.3460  139.8430 C   0  0  2  0  0  3  0  0  0  0  0  0
  190.5480  176.1210  136.2990 C   0  0  0  0  0  2  0  0  0  0  0  0
  190.6540  176.6490  138.5460 C   0  0  2  0  0  0  0  0  0  0  0  0
  191.5550  177.7060  139.1480 C   0  0  0  0  0  2  0  0  0  0  0  0
  191.5450  175.1700  136.9550 C   0  0  0  0  0  2  0  0  0  0  0  0
  190.5080  176.4860  140.9920 N   0  0  2  0  0  0  0  0  0  0  0  0
  191.0980  177.1330  143.1700 C   0  0  0  0  0  0  0  0  0  0  0  0
  189.6930  176.7240  143.2740 C   0  0  0  0  0  2  0  0  0  0  0  0
  191.6830  177.8160  144.0820 N   0  0  0  0  0  2  0  0  0  0  0  0
  189.2990  176.4950  141.8260 C   0  0  0  0  0  2  0  0  0  0  0  0
  191.5720  177.1120  141.7740 C   0  0  0  0  0  2  0  0  0  0  0  0
  180.9690  179.0350  139.2800 O   0  0  0  0  0  0  0  0  0  0  0  0
  181.1700  182.5570  137.9250 C   0  0  0  0  0  2  0  0  0  0  0  0
  180.3740  182.2500  136.6500 C   0  0  2  0  0  3  0  0  0  0  0  0
  180.5290  179.7510  137.0160 C   0  0  0  0  0  2  0  0  0  0  0  0
  181.5950  181.3040  138.7010 C   0  0  0  0  0  2  0  0  0  0  0  0
  180.6020  180.1600  138.4940 C   0  0  2  0  0  3  0  0  0  0  0  0
  180.7930  180.9090  136.0450 C   0  0  0  0  0  2  0  0  0  0  0  0
  181.1970  184.5120  136.2930 N   0  0  0  0  0  1  0  0  0  0  0  0
  180.5680  183.3730  135.6480 C   0  0  0  0  0  2  0  0  0  0  0  0
  1  6  1  0  0  0  0
  2 11  1  0  0  0  0
  2 12  1  0  0  0  0
  3 10  2  0  0  0  0
  4  8  2  0  0  0  0
  5  1  2  0  0  0  0
  7  9  1  0  0  0  0
  7  4  1  0  0  0  0
  8  1  1  0  0  0  0
  9  5  1  0  0  0  0
 10 11  1  0  0  0  0
 11  7  2  0  0  0  0
 12 15  2  0  0  0  0
 13  2  2  0  0  0  0
 14  3  1  0  0  0  0
 14 13  1  0  0  0  0
 15  4  1  0  0  0  0
 16 17  2  0  0  0  0
 16  3  1  0  0  0  0
 18 16  1  0  0  0  0
 19 17  1  0  0  0  0
 20 19  2  0  0  0  0
 21 19  1  0  0  0  0
 22 21  1  0  0  0  0
 22 26  1  0  0  0  0
 24 27  1  1  0  0  0
 24 29  1  0  0  0  0
 25 28  1  0  0  0  0
 25 22  1  0  0  0  0
 26 23  1  1  0  0  0
 26 27  1  0  0  0  0
 26 24  1  0  0  0  0
 28 23  1  0  0  0  0
 29 34  1  1  0  0  0
 29 33  1  0  0  0  0
 30 31  1  0  0  0  0
 30 32  2  0  0  0  0
 33 31  1  0  0  0  0
 34 30  1  0  0  0  0
 35 13  1  0  0  0  0
 36 39  1  0  0  0  0
 37 43  1  6  0  0  0
 37 36  1  0  0  0  0
 38 40  1  0  0  0  0
 40 39  1  0  0  0  0
 40 35  1  1  0  0  0
 41 37  1  0  0  0  0
 41 38  1  0  0  0  0
 43 42  1  0  0  0  0
M  END
>  <MODEL>
7

>  <REMARK>
 VINA RESULT:      -9.0      2.991      8.106
  Name = 
  8 active torsions:
  status: ('A' for Active; 'I' for Inactive)
    1  A    between atoms: O_1  and  C_34
    2  A    between atoms: O_1  and  C_35
    3  A    between atoms: C_2  and  C_13
    4  A    between atoms: C_3  and  N_4
    5  A    between atoms: C_3  and  C_12
    6  A    between atoms: N_6  and  C_12
    7  A    between atoms: N_11  and  C_14
    8  A    between atoms: C_19  and  C_37
                            x       y       z     vdW  Elec       q    Type
                         _______ _______ _______ _____ _____    ______ ____

>  <TORSDO>
F 8

$$$$
=
 OpenBabel11052416343D

 43 49  0  0  1  0  0  0  0  0999 V2000
  187.8640  177.4520  147.0930 C   0  0  0  0  0  0  0  0  0  0  0  0
  186.1460  178.6340  142.4720 C   0  0  0  0  0  0  0  0  0  0  0  0
  188.2140  178.0090  140.6530 C   0  0  0  0  0  0  0  0  0  0  0  0
  186.5040  178.1970  145.1970 C   0  0  0  0  0  0  0  0  0  0  0  0
  188.8950  177.1270  146.3130 C   0  0  0  0  0  3  0  0  0  0  0  0
  187.9530  177.2670  148.4660 O   0  0  0  0  0  1  0  0  0  0  0  0
  187.5530  177.8780  144.3060 C   0  0  0  0  0  0  0  0  0  0  0  0
  186.6300  178.0040  146.5120 C   0  0  0  0  0  3  0  0  0  0  0  0
  188.8570  177.3040  144.8180 C   0  0  0  0  0  2  0  0  0  0  0  0
  188.4310  177.7830  141.9530 C   0  0  0  0  0  3  0  0  0  0  0  0
  187.3700  178.0990  142.9290 C   0  0  0  0  0  0  0  0  0  0  0  0
  185.1600  178.9280  143.3630 N   0  0  0  0  0  0  0  0  0  0  0  0
  185.9600  178.8480  141.1590 C   0  0  0  0  0  0  0  0  0  0  0  0
  186.9830  178.5420  140.2440 O   0  0  0  0  0  0  0  0  0  0  0  0
  185.3140  178.7230  144.6970 C   0  0  0  0  0  3  0  0  0  0  0  0
  189.2410  177.7100  139.6450 C   0  0  0  0  0  0  0  0  0  0  0  0
  188.9020  177.2890  138.4610 N   0  0  0  0  0  0  0  0  0  0  0  0
  190.5470  177.8840  139.9760 F   0  0  0  0  0  0  0  0  0  0  0  0
  189.8100  176.9700  137.3990 C   0  0  0  0  0  0  0  0  0  0  0  0
  189.9580  177.7380  136.4110 O   0  0  0  0  0  0  0  0  0  0  0  0
  190.5630  175.6880  137.4470 C   0  0  0  0  0  2  0  0  0  0  0  0
  190.8130  175.2110  136.0930 N   0  0  0  0  0  0  0  0  0  0  0  0
  191.9230  173.0040  135.9460 C   0  0  0  0  0  2  0  0  0  0  0  0
  193.3570  175.2210  136.5000 C   0  0  2  0  0  3  0  0  0  0  0  0
  189.8040  174.1830  135.8300 C   0  0  0  0  0  2  0  0  0  0  0  0
  192.0790  174.4930  136.0870 C   0  0  2  0  0  0  0  0  0  0  0  0
  193.0060  175.0480  135.0280 C   0  0  0  0  0  2  0  0  0  0  0  0
  190.4960  172.8700  135.4760 C   0  0  0  0  0  2  0  0  0  0  0  0
  194.3900  174.2670  136.8870 N   0  0  2  0  0  0  0  0  0  0  0  0
  196.6480  174.7030  137.3570 C   0  0  0  0  0  0  0  0  0  0  0  0
  196.0370  174.4630  138.6700 C   0  0  0  0  0  2  0  0  0  0  0  0
  197.7970  175.2530  137.2260 N   0  0  0  0  0  2  0  0  0  0  0  0
  194.5570  174.3720  138.3420 C   0  0  0  0  0  2  0  0  0  0  0  0
  195.6430  174.7100  136.2790 C   0  0  0  0  0  2  0  0  0  0  0  0
  184.7490  179.3760  140.7020 O   0  0  0  0  0  0  0  0  0  0  0  0
  182.3250  176.7520  139.4690 C   0  0  0  0  0  2  0  0  0  0  0  0
  181.8710  177.5610  138.2470 C   0  0  2  0  0  3  0  0  0  0  0  0
  182.9770  179.6750  139.0890 C   0  0  0  0  0  2  0  0  0  0  0  0
  183.1540  177.5670  140.4710 C   0  0  0  0  0  2  0  0  0  0  0  0
  183.9290  178.6830  139.7720 C   0  0  2  0  0  3  0  0  0  0  0  0
  181.6710  179.0350  138.6010 C   0  0  0  0  0  2  0  0  0  0  0  0
  180.1960  175.8100  138.4800 N   0  0  0  0  0  1  0  0  0  0  0  0
  180.5910  176.9650  137.6920 C   0  0  0  0  0  2  0  0  0  0  0  0
  1  6  1  0  0  0  0
  2 11  1  0  0  0  0
  2 12  1  0  0  0  0
  3 10  2  0  0  0  0
  4  8  2  0  0  0  0
  5  1  2  0  0  0  0
  7  9  1  0  0  0  0
  7  4  1  0  0  0  0
  8  1  1  0  0  0  0
  9  5  1  0  0  0  0
 10 11  1  0  0  0  0
 11  7  2  0  0  0  0
 12 15  2  0  0  0  0
 13  2  2  0  0  0  0
 14  3  1  0  0  0  0
 14 13  1  0  0  0  0
 15  4  1  0  0  0  0
 16 18  1  0  0  0  0
 16  3  1  0  0  0  0
 17 16  2  0  0  0  0
 19 21  1  0  0  0  0
 19 17  1  0  0  0  0
 20 19  2  0  0  0  0
 22 21  1  0  0  0  0
 23 26  1  0  0  0  0
 24 27  1  6  0  0  0
 24 29  1  0  0  0  0
 25 22  1  0  0  0  0
 26 27  1  6  0  0  0
 26 22  1  0  0  0  0
 26 24  1  0  0  0  0
 28 25  1  0  0  0  0
 28 23  1  0  0  0  0
 29 34  1  6  0  0  0
 29 33  1  0  0  0  0
 30 31  1  0  0  0  0
 32 30  2  0  0  0  0
 33 31  1  0  0  0  0
 34 30  1  0  0  0  0
 35 13  1  0  0  0  0
 36 39  1  0  0  0  0
 37 43  1  1  0  0  0
 37 41  1  0  0  0  0
 37 36  1  0  0  0  0
 38 40  1  0  0  0  0
 40 39  1  0  0  0  0
 40 35  1  1  0  0  0
 41 38  1  0  0  0  0
 43 42  1  0  0  0  0
M  END
>  <MODEL>
8

>  <REMARK>
 VINA RESULT:      -8.8      3.301      7.844
  Name = 
  8 active torsions:
  status: ('A' for Active; 'I' for Inactive)
    1  A    between atoms: O_1  and  C_34
    2  A    between atoms: O_1  and  C_35
    3  A    between atoms: C_2  and  C_13
    4  A    between atoms: C_3  and  N_4
    5  A    between atoms: C_3  and  C_12
    6  A    between atoms: N_6  and  C_12
    7  A    between atoms: N_11  and  C_14
    8  A    between atoms: C_19  and  C_37
                            x       y       z     vdW  Elec       q    Type
                         _______ _______ _______ _____ _____    ______ ____

>  <TORSDO>
F 8

$$$$
=
 OpenBabel11052416343D

 43 49  0  0  1  0  0  0  0  0999 V2000
  188.3340  177.4200  147.0400 C   0  0  0  0  0  0  0  0  0  0  0  0
  188.1260  178.2890  142.0490 C   0  0  0  0  0  0  0  0  0  0  0  0
  185.3910  178.4960  141.3750 C   0  0  0  0  0  0  0  0  0  0  0  0
  188.8810  177.8090  144.6850 C   0  0  1  0  0  3  0  0  0  0  0  0
  187.0210  177.5020  146.8180 C   0  0  0  0  0  3  0  0  0  0  0  0
  188.8020  177.1840  148.3250 O   0  0  0  0  0  1  0  0  0  0  0  0
  187.5070  177.9080  144.3700 C   0  0  0  0  0  0  0  0  0  0  0  0
  189.2910  177.5790  145.9340 C   0  0  0  0  0  3  0  0  0  0  0  0
  186.4530  177.7570  145.4470 C   0  0  0  0  0  3  0  0  0  0  0  0
  185.7070  178.2650  142.6530 C   0  0  0  0  0  3  0  0  0  0  0  0
  187.1280  178.1510  143.0380 C   0  0  0  0  0  0  0  0  0  0  0  0
  189.4390  178.1870  142.3930 N   0  0  0  0  0  0  0  0  0  0  0  0
  187.7750  178.5220  140.7740 C   0  0  0  0  0  0  0  0  0  0  0  0
  186.4160  178.6260  140.4270 O   0  0  0  0  0  0  0  0  0  0  0  0
  189.8290  177.9520  143.6730 C   0  0  0  0  0  3  0  0  0  0  0  0
  183.9910  178.6180  140.9450 C   0  0  0  0  0  0  0  0  0  0  0  0
  183.6930  178.7080  139.6820 N   0  0  0  0  0  0  0  0  0  0  0  0
  183.0190  178.6320  141.8950 F   0  0  0  0  0  0  0  0  0  0  0  0
  182.3690  178.8260  139.1450 C   0  0  0  0  0  0  0  0  0  0  0  0
  181.5590  179.6860  139.5840 O   0  0  0  0  0  0  0  0  0  0  0  0
  181.9320  177.8870  138.0780 C   0  0  0  0  0  2  0  0  0  0  0  0
  182.5380  178.2660  136.8080 N   0  0  0  0  0  0  0  0  0  0  0  0
  182.4240  176.5430  135.0340 C   0  0  0  0  0  2  0  0  0  0  0  0
  184.2640  176.3630  136.9990 C   0  0  2  0  0  3  0  0  0  0  0  0
  181.4300  178.5800  135.9050 C   0  0  0  0  0  2  0  0  0  0  0  0
  183.1620  177.0860  136.2280 C   0  0  2  0  0  0  0  0  0  0  0  0
  184.6140  177.3540  135.8970 C   0  0  0  0  0  2  0  0  0  0  0  0
  181.5110  177.6870  134.6700 C   0  0  0  0  0  2  0  0  0  0  0  0
  184.4180  174.9960  136.5160 N   0  0  2  0  0  0  0  0  0  0  0  0
  186.1510  173.4860  136.9960 C   0  0  0  0  0  0  0  0  0  0  0  0
  185.0110  173.0020  137.7830 C   0  0  0  0  0  2  0  0  0  0  0  0
  187.3500  173.0960  137.2160 N   0  0  0  0  0  2  0  0  0  0  0  0
  183.9780  174.1000  137.5930 C   0  0  0  0  0  2  0  0  0  0  0  0
  185.8470  174.7600  136.3200 C   0  0  0  0  0  2  0  0  0  0  0  0
  188.7590  178.6610  139.7920 O   0  0  0  0  0  0  0  0  0  0  0  0
  188.9920  177.8780  136.1020 C   0  0  0  0  0  2  0  0  0  0  0  0
  189.3730  176.4060  136.3070 C   0  0  2  0  0  3  0  0  0  0  0  0
  189.8190  176.7440  138.7750 C   0  0  0  0  0  2  0  0  0  0  0  0
  189.0560  178.7130  137.3870 C   0  0  0  0  0  2  0  0  0  0  0  0
  188.7720  177.8560  138.6210 C   0  0  2  0  0  3  0  0  0  0  0  0
  190.3900  176.2500  137.4400 C   0  0  0  0  0  2  0  0  0  0  0  0
  189.9290  174.3890  135.0630 N   0  0  0  0  0  1  0  0  0  0  0  0
  189.9250  175.8400  135.0120 C   0  0  0  0  0  2  0  0  0  0  0  0
  1  6  1  0  0  0  0
  2 12  1  0  0  0  0
  2 11  1  0  0  0  0
  3 10  2  0  0  0  0
  4 15  1  6  0  0  0
  4  8  1  0  0  0  0
  5  1  1  0  0  0  0
  7  4  1  0  0  0  0
  7  9  1  0  0  0  0
  8  1  2  0  0  0  0
  9  5  2  0  0  0  0
 10 11  1  0  0  0  0
 11  7  2  0  0  0  0
 12 15  2  0  0  0  0
 13  2  2  0  0  0  0
 14 13  1  0  0  0  0
 14  3  1  0  0  0  0
 16  3  1  0  0  0  0
 16 18  1  0  0  0  0
 17 16  2  0  0  0  0
 19 20  2  0  0  0  0
 19 17  1  0  0  0  0
 21 19  1  0  0  0  0
 22 21  1  0  0  0  0
 24 27  1  6  0  0  0
 25 22  1  0  0  0  0
 26 23  1  6  0  0  0
 26 22  1  0  0  0  0
 26 24  1  0  0  0  0
 27 26  1  0  0  0  0
 28 23  1  0  0  0  0
 28 25  1  0  0  0  0
 29 34  1  1  0  0  0
 29 24  1  0  0  0  0
 29 33  1  0  0  0  0
 30 32  2  0  0  0  0
 30 31  1  0  0  0  0
 33 31  1  0  0  0  0
 34 30  1  0  0  0  0
 35 13  1  0  0  0  0
 36 37  1  0  0  0  0
 36 39  1  0  0  0  0
 37 43  1  6  0  0  0
 37 41  1  0  0  0  0
 39 40  1  0  0  0  0
 40 38  1  0  0  0  0
 40 35  1  1  0  0  0
 41 38  1  0  0  0  0
 43 42  1  0  0  0  0
M  END
>  <MODEL>
9

>  <REMARK>
 VINA RESULT:      -8.8      1.575      2.123
  Name = 
  8 active torsions:
  status: ('A' for Active; 'I' for Inactive)
    1  A    between atoms: O_1  and  C_34
    2  A    between atoms: O_1  and  C_35
    3  A    between atoms: C_2  and  C_13
    4  A    between atoms: C_3  and  N_4
    5  A    between atoms: C_3  and  C_12
    6  A    between atoms: N_6  and  C_12
    7  A    between atoms: N_11  and  C_14
    8  A    between atoms: C_19  and  C_37
                            x       y       z     vdW  Elec       q    Type
                         _______ _______ _______ _____ _____    ______ ____

>  <TORSDO>
F 8

$$$$
