=
 OpenBabel11052417053D

 32 36  0  0  1  0  0  0  0  0999 V2000
  180.0630  178.3600  141.8980 C   0  0  1  0  0  3  0  0  0  0  0  0
  184.9870  178.5580  143.2510 C   0  0  0  0  0  0  0  0  0  0  0  0
  185.3030  179.0860  138.9000 C   0  0  0  0  0  1  0  0  0  0  0  0
  186.1980  178.2630  145.4900 C   0  0  1  0  0  3  0  0  0  0  0  0
  187.4860  177.7870  146.1250 C   0  0  0  0  0  0  0  0  0  0  0  0
  182.5520  178.6130  143.2860 C   0  0  0  0  0  0  0  0  0  0  0  0
  183.7260  178.4470  141.1770 C   0  0  0  0  0  3  0  0  0  0  0  0
  189.8760  176.9310  147.3220 C   0  0  0  0  0  3  0  0  0  0  0  0
  181.3080  178.4710  141.2050 O   0  0  0  0  0  0  0  0  0  0  0  0
  186.3680  178.6890  139.8070 N   0  0  0  0  0  0  0  0  0  0  0  0
  184.9660  178.4950  141.8360 C   0  0  0  0  0  0  0  0  0  0  0  0
  186.2570  178.4150  141.0790 C   0  0  0  0  0  0  0  0  0  0  0  0
  187.3030  177.6630  143.2660 C   0  0  1  0  0  3  0  0  0  0  0  0
  188.7470  177.1710  148.1100 C   0  0  0  0  0  3  0  0  0  0  0  0
  180.1120  179.1520  143.2020 C   0  0  0  0  0  2  0  0  0  0  0  0
  182.5290  178.4990  141.8880 C   0  0  0  0  0  0  0  0  0  0  0  0
  187.5560  177.5940  147.5140 C   0  0  0  0  0  3  0  0  0  0  0  0
  181.2700  178.6470  144.0630 C   0  0  0  0  0  2  0  0  0  0  0  0
  187.5370  178.1210  141.8250 C   0  0  1  0  0  3  0  0  0  0  0  0
  188.5500  177.6210  143.9500 O   0  0  0  0  0  0  0  0  0  0  0  0
  183.7730  178.6290  143.9560 C   0  0  0  0  0  3  0  0  0  0  0  0
  185.6870  179.4960  146.2260 C   0  0  0  0  0  1  0  0  0  0  0  0
  189.8090  177.0960  145.9370 C   0  0  0  0  0  3  0  0  0  0  0  0
  186.3170  178.5950  143.9810 C   0  0  1  0  0  3  0  0  0  0  0  0
  188.6140  177.5030  145.3360 C   0  0  0  0  0  0  0  0  0  0  0  0
  189.5190  177.7450  140.9040 C   0  0  0  0  0  1  0  0  0  0  0  0
  188.2790  177.1500  141.1430 O   0  0  0  0  0  0  0  0  0  0  0  0
  178.9340  178.8750  141.0270 C   0  0  0  0  0  2  0  0  0  0  0  0
  179.4950  179.5230  139.7730 C   0  0  0  0  0  2  0  0  0  0  0  0
  180.2340  181.6990  139.1530 O   0  0  0  0  0  0  0  0  0  0  0  0
  178.9350  181.5930  141.0400 O   0  0  0  0  0  1  0  0  0  0  0  0
  179.5700  180.9970  139.9590 C   0  0  0  0  0  0  0  0  0  0  0  0
  1 28  1  6  0  0  0
  1 15  1  0  0  0  0
  2 21  1  0  0  0  0
  3 10  1  0  0  0  0
  4  5  1  0  0  0  0
  4 22  1  1  0  0  0
  5 17  1  0  0  0  0
  6 21  2  0  0  0  0
  6 18  1  0  0  0  0
  7 11  1  0  0  0  0
  7 16  2  0  0  0  0
  8 14  1  0  0  0  0
  9 16  1  0  0  0  0
  9  1  1  0  0  0  0
 10 12  2  0  0  0  0
 11  2  2  0  0  0  0
 12 19  1  0  0  0  0
 12 11  1  0  0  0  0
 13 20  1  1  0  0  0
 13 24  1  0  0  0  0
 15 18  1  0  0  0  0
 16  6  1  0  0  0  0
 17 14  2  0  0  0  0
 19 27  1  6  0  0  0
 19 13  1  0  0  0  0
 20 25  1  0  0  0  0
 23  8  2  0  0  0  0
 24  2  1  6  0  0  0
 24  4  1  0  0  0  0
 25 23  1  0  0  0  0
 25  5  2  0  0  0  0
 26 27  1  0  0  0  0
 29 32  1  0  0  0  0
 29 28  1  0  0  0  0
 30 32  2  0  0  0  0
 32 31  1  0  0  0  0
M  END
>  <MODEL>
1

>  <REMARK>
 VINA RESULT:      -9.6      0.000      0.000
  Name = 
  4 active torsions:
  status: ('A' for Active; 'I' for Inactive)
    1  A    between atoms: C_2  and  C_24
    2  A    between atoms: C_10  and  C_20
    3  A    between atoms: C_10  and  C_24
    4  A    between atoms: O_25  and  C_26
                            x       y       z     vdW  Elec       q    Type
                         _______ _______ _______ _____ _____    ______ ____

>  <TORSDO>
F 4

$$$$
=
 OpenBabel11052417053D

 32 36  0  0  1  0  0  0  0  0999 V2000
  189.0480  178.6100  137.3950 C   0  0  1  0  0  3  0  0  0  0  0  0
  187.3610  177.8130  142.1520 C   0  0  0  0  0  0  0  0  0  0  0  0
  183.5630  178.3280  140.0040 C   0  0  0  0  0  1  0  0  0  0  0  0
  188.5530  177.4930  144.3980 C   0  0  1  0  0  3  0  0  0  0  0  0
  188.4280  177.7280  145.8870 C   0  0  0  0  0  0  0  0  0  0  0  0
  188.7410  177.8900  140.1460 C   0  0  0  0  0  0  0  0  0  0  0  0
  186.4000  178.4900  140.0260 C   0  0  0  0  0  3  0  0  0  0  0  0
  188.2090  178.1340  148.6560 C   0  0  0  0  0  3  0  0  0  0  0  0
  187.7700  178.5980  138.0360 O   0  0  0  0  0  0  0  0  0  0  0  0
  183.7710  178.4340  141.4390 N   0  0  0  0  0  0  0  0  0  0  0  0
  186.2350  178.2150  141.3930 C   0  0  0  0  0  0  0  0  0  0  0  0
  184.9110  178.4000  142.0730 C   0  0  0  0  0  0  0  0  0  0  0  0
  186.2300  178.5450  144.2370 C   0  0  1  0  0  3  0  0  0  0  0  0
  189.4390  177.7770  148.0980 C   0  0  0  0  0  3  0  0  0  0  0  0
  189.9460  177.5260  137.9850 C   0  0  0  0  0  2  0  0  0  0  0  0
  187.6380  178.3370  139.4040 C   0  0  0  0  0  0  0  0  0  0  0  0
  189.5490  177.5780  146.7190 C   0  0  0  0  0  3  0  0  0  0  0  0
  190.0830  177.7430  139.4930 C   0  0  0  0  0  2  0  0  0  0  0  0
  184.8520  178.4340  143.5830 C   0  0  1  0  0  3  0  0  0  0  0  0
  186.0960  178.3500  145.6410 O   0  0  0  0  0  0  0  0  0  0  0  0
  188.6000  177.6440  141.5110 C   0  0  0  0  0  3  0  0  0  0  0  0
  189.2280  176.1500  144.1440 C   0  0  0  0  0  1  0  0  0  0  0  0
  187.0940  178.3110  147.8340 C   0  0  0  0  0  3  0  0  0  0  0  0
  187.2050  177.5260  143.6350 C   0  0  1  0  0  3  0  0  0  0  0  0
  187.2050  178.1280  146.4520 C   0  0  0  0  0  0  0  0  0  0  0  0
  182.9690  178.8940  144.6590 C   0  0  0  0  0  1  0  0  0  0  0  0
  184.0470  179.4960  144.0080 O   0  0  0  0  0  0  0  0  0  0  0  0
  188.8840  178.3840  135.9040 C   0  0  0  0  0  2  0  0  0  0  0  0
  187.5060  177.8200  135.6080 C   0  0  0  0  0  2  0  0  0  0  0  0
  188.7080  175.8700  134.9590 O   0  0  0  0  0  0  0  0  0  0  0  0
  186.4860  175.5530  135.4340 O   0  0  0  0  0  1  0  0  0  0  0  0
  187.6090  176.3630  135.3260 C   0  0  0  0  0  0  0  0  0  0  0  0
  1 28  1  6  0  0  0
  1 15  1  0  0  0  0
  1  9  1  0  0  0  0
  3 10  1  0  0  0  0
  4 22  1  1  0  0  0
  4  5  1  0  0  0  0
  5 25  2  0  0  0  0
  5 17  1  0  0  0  0
  6 21  2  0  0  0  0
  7 11  1  0  0  0  0
  9 16  1  0  0  0  0
 10 12  2  0  0  0  0
 11 12  1  0  0  0  0
 11  2  2  0  0  0  0
 12 19  1  0  0  0  0
 13 20  1  1  0  0  0
 14  8  1  0  0  0  0
 15 18  1  0  0  0  0
 16  7  2  0  0  0  0
 16  6  1  0  0  0  0
 17 14  2  0  0  0  0
 18  6  1  0  0  0  0
 19 27  1  6  0  0  0
 19 13  1  0  0  0  0
 20 25  1  0  0  0  0
 21  2  1  0  0  0  0
 23  8  2  0  0  0  0
 24  2  1  6  0  0  0
 24 13  1  0  0  0  0
 24  4  1  0  0  0  0
 25 23  1  0  0  0  0
 27 26  1  0  0  0  0
 29 28  1  0  0  0  0
 30 32  2  0  0  0  0
 32 31  1  0  0  0  0
 32 29  1  0  0  0  0
M  END
>  <MODEL>
2

>  <REMARK>
 VINA RESULT:      -9.3      2.780      6.298
  Name = 
  4 active torsions:
  status: ('A' for Active; 'I' for Inactive)
    1  A    between atoms: C_2  and  C_24
    2  A    between atoms: C_10  and  C_20
    3  A    between atoms: C_10  and  C_24
    4  A    between atoms: O_25  and  C_26
                            x       y       z     vdW  Elec       q    Type
                         _______ _______ _______ _____ _____    ______ ____

>  <TORSDO>
F 4

$$$$
=
 OpenBabel11052417053D

 32 36  0  0  1  0  0  0  0  0999 V2000
  188.1160  178.7900  137.1970 C   0  0  1  0  0  3  0  0  0  0  0  0
  188.0570  177.4620  142.1320 C   0  0  0  0  0  0  0  0  0  0  0  0
  183.8270  178.4680  141.4950 C   0  0  0  0  0  1  0  0  0  0  0  0
  189.8970  176.7800  143.7800 C   0  0  1  0  0  3  0  0  0  0  0  0
  190.3030  176.8210  145.2360 C   0  0  0  0  0  0  0  0  0  0  0  0
  188.6820  177.7290  139.7930 C   0  0  0  0  0  0  0  0  0  0  0  0
  186.5080  178.4690  140.5530 C   0  0  0  0  0  3  0  0  0  0  0  0
  191.0680  176.8670  147.9370 C   0  0  0  0  0  3  0  0  0  0  0  0
  187.1330  178.7640  138.2350 O   0  0  0  0  0  0  0  0  0  0  0  0
  184.5150  178.3710  142.7730 N   0  0  0  0  0  0  0  0  0  0  0  0
  186.7860  178.0230  141.8560 C   0  0  0  0  0  0  0  0  0  0  0  0
  185.7930  178.1900  142.9670 C   0  0  0  0  0  0  0  0  0  0  0  0
  187.7690  177.9720  144.5440 C   0  0  1  0  0  3  0  0  0  0  0  0
  191.9980  176.5200  146.9530 C   0  0  0  0  0  3  0  0  0  0  0  0
  189.0490  177.5900  137.3230 C   0  0  0  0  0  2  0  0  0  0  0  0
  187.4440  178.3310  139.5290 C   0  0  0  0  0  0  0  0  0  0  0  0
  191.6180  176.5000  145.6090 C   0  0  0  0  0  3  0  0  0  0  0  0
  189.7060  177.5960  138.7040 C   0  0  0  0  0  2  0  0  0  0  0  0
  186.2470  178.0250  144.3980 C   0  0  1  0  0  3  0  0  0  0  0  0
  188.0970  177.6000  145.8790 O   0  0  0  0  0  0  0  0  0  0  0  0
  188.9850  177.3110  141.0870 C   0  0  0  0  0  3  0  0  0  0  0  0
  190.3120  175.4470  143.1670 C   0  0  0  0  0  1  0  0  0  0  0  0
  189.7650  177.2130  147.5740 C   0  0  0  0  0  3  0  0  0  0  0  0
  188.3800  176.9890  143.5370 C   0  0  1  0  0  3  0  0  0  0  0  0
  189.3870  177.2100  146.2280 C   0  0  0  0  0  0  0  0  0  0  0  0
  185.0250  178.4300  146.2030 C   0  0  0  0  0  1  0  0  0  0  0  0
  185.7410  179.0640  145.1860 O   0  0  0  0  0  0  0  0  0  0  0  0
  187.4400  178.7750  135.8400 C   0  0  0  0  0  2  0  0  0  0  0  0
  187.2220  177.3440  135.3810 C   0  0  0  0  0  2  0  0  0  0  0  0
  184.9350  177.2650  134.7240 O   0  0  0  0  0  0  0  0  0  0  0  0
  185.4200  176.2960  136.7450 O   0  0  0  0  0  1  0  0  0  0  0  0
  185.8000  176.9600  135.5860 C   0  0  0  0  0  0  0  0  0  0  0  0
  1 28  1  6  0  0  0
  1 15  1  0  0  0  0
  1  9  1  0  0  0  0
  3 10  1  0  0  0  0
  4 22  1  1  0  0  0
  4  5  1  0  0  0  0
  5 17  2  0  0  0  0
  5 25  1  0  0  0  0
  6 21  1  0  0  0  0
  7 11  2  0  0  0  0
  9 16  1  0  0  0  0
 10 12  2  0  0  0  0
 11  2  1  0  0  0  0
 11 12  1  0  0  0  0
 12 19  1  0  0  0  0
 13 20  1  1  0  0  0
 14  8  2  0  0  0  0
 15 18  1  0  0  0  0
 16  6  2  0  0  0  0
 16  7  1  0  0  0  0
 17 14  1  0  0  0  0
 18  6  1  0  0  0  0
 19 13  1  0  0  0  0
 19 27  1  1  0  0  0
 20 25  1  0  0  0  0
 21  2  2  0  0  0  0
 23  8  1  0  0  0  0
 24  2  1  6  0  0  0
 24  4  1  0  0  0  0
 24 13  1  0  0  0  0
 25 23  2  0  0  0  0
 27 26  1  0  0  0  0
 29 32  1  0  0  0  0
 29 28  1  0  0  0  0
 30 32  2  0  0  0  0
 32 31  1  0  0  0  0
M  END
>  <MODEL>
3

>  <REMARK>
 VINA RESULT:      -9.2      3.290      5.951
  Name = 
  4 active torsions:
  status: ('A' for Active; 'I' for Inactive)
    1  A    between atoms: C_2  and  C_24
    2  A    between atoms: C_10  and  C_20
    3  A    between atoms: C_10  and  C_24
    4  A    between atoms: O_25  and  C_26
                            x       y       z     vdW  Elec       q    Type
                         _______ _______ _______ _____ _____    ______ ____

>  <TORSDO>
F 4

$$$$
=
 OpenBabel11052417053D

 32 36  0  0  1  0  0  0  0  0999 V2000
  188.5000  177.1390  145.8140 C   0  0  1  0  0  3  0  0  0  0  0  0
  189.6950  177.5030  140.8590 C   0  0  0  0  0  0  0  0  0  0  0  0
  185.6110  179.1250  140.8470 C   0  0  0  0  0  1  0  0  0  0  0  0
  191.7450  176.7880  139.4980 C   0  0  1  0  0  3  0  0  0  0  0  0
  192.1950  176.3050  138.1370 C   0  0  0  0  0  0  0  0  0  0  0  0
  189.8230  177.2950  143.2820 C   0  0  0  0  0  0  0  0  0  0  0  0
  187.7030  177.7810  142.2230 C   0  0  0  0  0  3  0  0  0  0  0  0
  193.0570  175.4300  135.6130 C   0  0  0  0  0  3  0  0  0  0  0  0
  187.8170  177.5470  144.6270 O   0  0  0  0  0  0  0  0  0  0  0  0
  186.3520  178.6280  139.6980 N   0  0  0  0  0  0  0  0  0  0  0  0
  188.3110  177.7920  140.9570 C   0  0  0  0  0  0  0  0  0  0  0  0
  187.5160  178.0370  139.7090 C   0  0  0  0  0  0  0  0  0  0  0  0
  189.4050  176.8770  138.4740 C   0  0  1  0  0  3  0  0  0  0  0  0
  193.9170  175.3480  136.7120 C   0  0  0  0  0  3  0  0  0  0  0  0
  189.9590  177.5830  145.7630 C   0  0  0  0  0  2  0  0  0  0  0  0
  188.4440  177.5300  143.3760 C   0  0  0  0  0  0  0  0  0  0  0  0
  193.4870  175.7810  137.9680 C   0  0  0  0  0  3  0  0  0  0  0  0
  190.6260  177.0030  144.5150 C   0  0  0  0  0  2  0  0  0  0  0  0
  188.1210  177.7000  138.3670 C   0  0  1  0  0  3  0  0  0  0  0  0
  190.0150  176.7960  137.1910 O   0  0  0  0  0  0  0  0  0  0  0  0
  190.4350  177.2710  142.0310 C   0  0  0  0  0  3  0  0  0  0  0  0
  192.7850  177.7400  140.0770 C   0  0  0  0  0  1  0  0  0  0  0  0
  191.7620  175.9270  135.7750 C   0  0  0  0  0  3  0  0  0  0  0  0
  190.3660  177.4950  139.4970 C   0  0  1  0  0  3  0  0  0  0  0  0
  191.3230  176.3440  137.0350 C   0  0  0  0  0  0  0  0  0  0  0  0
  186.9540  177.8460  136.4860 C   0  0  0  0  0  1  0  0  0  0  0  0
  187.1910  177.0110  137.5800 O   0  0  0  0  0  0  0  0  0  0  0  0
  187.8250  177.7340  147.0350 C   0  0  0  0  0  2  0  0  0  0  0  0
  186.3250  177.5150  146.9620 C   0  0  0  0  0  2  0  0  0  0  0  0
  186.0550  179.7670  147.6850 O   0  0  0  0  0  1  0  0  0  0  0  0
  184.4730  179.0030  146.2110 O   0  0  0  0  0  0  0  0  0  0  0  0
  185.6230  178.8260  146.9680 C   0  0  0  0  0  0  0  0  0  0  0  0
  1 28  1  1  0  0  0
  2 11  2  0  0  0  0
  2 21  1  0  0  0  0
  4 22  1  6  0  0  0
  5  4  1  0  0  0  0
  6 16  1  0  0  0  0
  6 18  1  0  0  0  0
  7 16  2  0  0  0  0
  8 23  2  0  0  0  0
  8 14  1  0  0  0  0
  9  1  1  0  0  0  0
 10 12  2  0  0  0  0
 10  3  1  0  0  0  0
 11  7  1  0  0  0  0
 12 11  1  0  0  0  0
 13 20  1  6  0  0  0
 13 24  1  0  0  0  0
 14 17  2  0  0  0  0
 15  1  1  0  0  0  0
 16  9  1  0  0  0  0
 17  5  1  0  0  0  0
 18 15  1  0  0  0  0
 19 27  1  6  0  0  0
 19 13  1  0  0  0  0
 19 12  1  0  0  0  0
 21  6  2  0  0  0  0
 23 25  1  0  0  0  0
 24  4  1  0  0  0  0
 24  2  1  1  0  0  0
 25 20  1  0  0  0  0
 25  5  2  0  0  0  0
 26 27  1  0  0  0  0
 29 32  1  0  0  0  0
 29 28  1  0  0  0  0
 31 32  2  0  0  0  0
 32 30  1  0  0  0  0
M  END
>  <MODEL>
4

>  <REMARK>
 VINA RESULT:      -9.0      3.874      8.047
  Name = 
  4 active torsions:
  status: ('A' for Active; 'I' for Inactive)
    1  A    between atoms: C_2  and  C_24
    2  A    between atoms: C_10  and  C_20
    3  A    between atoms: C_10  and  C_24
    4  A    between atoms: O_25  and  C_26
                            x       y       z     vdW  Elec       q    Type
                         _______ _______ _______ _____ _____    ______ ____

>  <TORSDO>
F 4

$$$$
=
 OpenBabel11052417053D

 32 36  0  0  1  0  0  0  0  0999 V2000
  181.0990  178.2020  138.9850 C   0  0  1  0  0  3  0  0  0  0  0  0
  185.4090  178.5180  141.7110 C   0  0  0  0  0  0  0  0  0  0  0  0
  186.9960  178.7780  137.6220 C   0  0  0  0  0  1  0  0  0  0  0  0
  185.9050  178.3700  144.2210 C   0  0  1  0  0  3  0  0  0  0  0  0
  186.9440  177.9430  145.2340 C   0  0  0  0  0  0  0  0  0  0  0  0
  183.0730  178.5580  141.0240 C   0  0  0  0  0  0  0  0  0  0  0  0
  184.8130  178.2700  139.3680 C   0  0  0  0  0  3  0  0  0  0  0  0
  188.8660  177.1790  147.1310 C   0  0  0  0  0  3  0  0  0  0  0  0
  182.4940  178.2790  138.6830 O   0  0  0  0  0  0  0  0  0  0  0  0
  187.7430  178.4460  138.8250 N   0  0  0  0  0  0  0  0  0  0  0  0
  185.8040  178.3680  140.3590 C   0  0  0  0  0  0  0  0  0  0  0  0
  187.2600  178.2500  140.0210 C   0  0  0  0  0  0  0  0  0  0  0  0
  187.6080  177.6420  142.4600 C   0  0  1  0  0  3  0  0  0  0  0  0
  187.5580  177.4590  147.5360 C   0  0  0  0  0  3  0  0  0  0  0  0
  180.7710  179.0740  140.1940 C   0  0  0  0  0  2  0  0  0  0  0  0
  183.4600  178.3570  139.6920 C   0  0  0  0  0  0  0  0  0  0  0  0
  186.6010  177.8370  146.5910 C   0  0  0  0  0  3  0  0  0  0  0  0
  181.6190  178.6310  141.3870 C   0  0  0  0  0  2  0  0  0  0  0  0
  188.2610  178.0110  141.1280 C   0  0  1  0  0  3  0  0  0  0  0  0
  188.5980  177.6510  143.4830 O   0  0  0  0  0  0  0  0  0  0  0  0
  184.0430  178.6240  142.0220 C   0  0  0  0  0  3  0  0  0  0  0  0
  185.2140  179.6430  144.6970 C   0  0  0  0  0  1  0  0  0  0  0  0
  189.2110  177.2580  145.7800 C   0  0  0  0  0  3  0  0  0  0  0  0
  186.4660  178.6090  142.7970 C   0  0  1  0  0  3  0  0  0  0  0  0
  188.2510  177.6190  144.8310 C   0  0  0  0  0  0  0  0  0  0  0  0
  190.4220  177.5910  140.8610 C   0  0  0  0  0  1  0  0  0  0  0  0
  189.1590  177.0050  140.7540 O   0  0  0  0  0  0  0  0  0  0  0  0
  180.2820  178.6540  137.7900 C   0  0  0  0  0  2  0  0  0  0  0  0
  181.1810  179.3150  136.7610 C   0  0  0  0  0  2  0  0  0  0  0  0
  180.5950  181.4530  137.6280 O   0  0  0  0  0  1  0  0  0  0  0  0
  180.6520  181.2930  135.3410 O   0  0  0  0  0  0  0  0  0  0  0  0
  180.8050  180.7460  136.6080 C   0  0  0  0  0  0  0  0  0  0  0  0
  1 28  1  6  0  0  0
  1 15  1  0  0  0  0
  2 21  1  0  0  0  0
  3 10  1  0  0  0  0
  4 22  1  1  0  0  0
  4  5  1  0  0  0  0
  5 17  1  0  0  0  0
  6 18  1  0  0  0  0
  6 21  2  0  0  0  0
  7 16  2  0  0  0  0
  7 11  1  0  0  0  0
  8 14  1  0  0  0  0
  9  1  1  0  0  0  0
  9 16  1  0  0  0  0
 10 12  2  0  0  0  0
 11  2  2  0  0  0  0
 12 11  1  0  0  0  0
 12 19  1  0  0  0  0
 13 24  1  0  0  0  0
 13 20  1  1  0  0  0
 15 18  1  0  0  0  0
 16  6  1  0  0  0  0
 17 14  2  0  0  0  0
 19 27  1  6  0  0  0
 19 13  1  0  0  0  0
 20 25  1  0  0  0  0
 23  8  2  0  0  0  0
 24  2  1  6  0  0  0
 24  4  1  0  0  0  0
 25  5  2  0  0  0  0
 25 23  1  0  0  0  0
 27 26  1  0  0  0  0
 29 28  1  0  0  0  0
 31 32  2  0  0  0  0
 32 29  1  0  0  0  0
 32 30  1  0  0  0  0
M  END
>  <MODEL>
5

>  <REMARK>
 VINA RESULT:      -8.4      1.678      2.236
  Name = 
  4 active torsions:
  status: ('A' for Active; 'I' for Inactive)
    1  A    between atoms: C_2  and  C_24
    2  A    between atoms: C_10  and  C_20
    3  A    between atoms: C_10  and  C_24
    4  A    between atoms: O_25  and  C_26
                            x       y       z     vdW  Elec       q    Type
                         _______ _______ _______ _____ _____    ______ ____

>  <TORSDO>
F 4

$$$$
=
 OpenBabel11052417053D

 32 36  0  0  1  0  0  0  0  0999 V2000
  182.2250  178.5340  142.9280 C   0  0  1  0  0  3  0  0  0  0  0  0
  187.2670  177.9990  143.5670 C   0  0  0  0  0  0  0  0  0  0  0  0
  187.0480  178.6540  139.2280 C   0  0  0  0  0  1  0  0  0  0  0  0
  188.7220  177.4500  145.6040 C   0  0  1  0  0  3  0  0  0  0  0  0
  190.0050  176.7760  146.0380 C   0  0  0  0  0  0  0  0  0  0  0  0
  184.8930  178.3860  143.9510 C   0  0  0  0  0  0  0  0  0  0  0  0
  185.7270  178.1460  141.6930 C   0  0  0  0  0  3  0  0  0  0  0  0
  192.3920  175.5520  146.8630 C   0  0  0  0  0  3  0  0  0  0  0  0
  183.3650  178.5010  142.0670 O   0  0  0  0  0  0  0  0  0  0  0  0
  188.1610  178.0780  139.9650 N   0  0  0  0  0  0  0  0  0  0  0  0
  187.0410  177.9970  142.1690 C   0  0  0  0  0  0  0  0  0  0  0  0
  188.1900  177.7710  141.2330 C   0  0  0  0  0  0  0  0  0  0  0  0
  189.4110  176.7950  143.2320 C   0  0  1  0  0  3  0  0  0  0  0  0
  191.4280  175.9120  147.8090 C   0  0  0  0  0  3  0  0  0  0  0  0
  182.5650  179.2590  144.2280 C   0  0  0  0  0  2  0  0  0  0  0  0
  184.6600  178.3330  142.5690 C   0  0  0  0  0  0  0  0  0  0  0  0
  190.2390  176.5190  147.3980 C   0  0  0  0  0  3  0  0  0  0  0  0
  183.7480  178.5650  144.9040 C   0  0  0  0  0  2  0  0  0  0  0  0
  189.5070  177.2740  141.7830 C   0  0  1  0  0  3  0  0  0  0  0  0
  190.7230  176.5540  143.7310 O   0  0  0  0  0  0  0  0  0  0  0  0
  186.1850  178.2080  144.4400 C   0  0  0  0  0  3  0  0  0  0  0  0
  188.4980  178.7110  146.4300 C   0  0  0  0  0  1  0  0  0  0  0  0
  192.1580  175.7800  145.5060 C   0  0  0  0  0  3  0  0  0  0  0  0
  188.6770  177.8230  144.1010 C   0  0  1  0  0  3  0  0  0  0  0  0
  190.9610  176.3720  145.0900 C   0  0  0  0  0  0  0  0  0  0  0  0
  191.0610  176.8060  140.2720 C   0  0  0  0  0  1  0  0  0  0  0  0
  190.0010  176.2390  140.9820 O   0  0  0  0  0  0  0  0  0  0  0  0
  181.0700  179.2340  142.2380 C   0  0  0  0  0  2  0  0  0  0  0  0
  180.8700  178.6640  140.8450 C   0  0  0  0  0  2  0  0  0  0  0  0
  180.5310  176.3900  140.2270 O   0  0  0  0  0  0  0  0  0  0  0  0
  179.0530  177.2300  141.7660 O   0  0  0  0  0  1  0  0  0  0  0  0
  180.1550  177.3620  140.9320 C   0  0  0  0  0  0  0  0  0  0  0  0
  1 28  1  6  0  0  0
  1 15  1  0  0  0  0
  2 21  1  0  0  0  0
  3 10  1  0  0  0  0
  4  5  1  0  0  0  0
  4 22  1  1  0  0  0
  5 17  1  0  0  0  0
  6 21  2  0  0  0  0
  6 18  1  0  0  0  0
  7 11  1  0  0  0  0
  7 16  2  0  0  0  0
  8 14  1  0  0  0  0
  9 16  1  0  0  0  0
  9  1  1  0  0  0  0
 10 12  2  0  0  0  0
 11  2  2  0  0  0  0
 12 19  1  0  0  0  0
 12 11  1  0  0  0  0
 13 20  1  1  0  0  0
 13 24  1  0  0  0  0
 15 18  1  0  0  0  0
 16  6  1  0  0  0  0
 17 14  2  0  0  0  0
 19 27  1  6  0  0  0
 19 13  1  0  0  0  0
 20 25  1  0  0  0  0
 23  8  2  0  0  0  0
 24  2  1  6  0  0  0
 24  4  1  0  0  0  0
 25 23  1  0  0  0  0
 25  5  2  0  0  0  0
 26 27  1  0  0  0  0
 29 32  1  0  0  0  0
 29 28  1  0  0  0  0
 30 32  2  0  0  0  0
 32 31  1  0  0  0  0
M  END
>  <MODEL>
6

>  <REMARK>
 VINA RESULT:      -8.4      1.894      2.701
  Name = 
  4 active torsions:
  status: ('A' for Active; 'I' for Inactive)
    1  A    between atoms: C_2  and  C_24
    2  A    between atoms: C_10  and  C_20
    3  A    between atoms: C_10  and  C_24
    4  A    between atoms: O_25  and  C_26
                            x       y       z     vdW  Elec       q    Type
                         _______ _______ _______ _____ _____    ______ ____

>  <TORSDO>
F 4

$$$$
=
 OpenBabel11052417053D

 32 36  0  0  1  0  0  0  0  0999 V2000
  184.1810  179.7590  139.1130 C   0  0  1  0  0  3  0  0  0  0  0  0
  186.1620  177.8940  143.4400 C   0  0  0  0  0  0  0  0  0  0  0  0
  182.0400  178.7300  144.7100 C   0  0  0  0  0  1  0  0  0  0  0  0
  188.5200  177.1380  144.0980 C   0  0  1  0  0  3  0  0  0  0  0  0
  189.4890  177.0410  145.2560 C   0  0  0  0  0  0  0  0  0  0  0  0
  185.7700  178.4510  141.1010 C   0  0  0  0  0  0  0  0  0  0  0  0
  184.0960  178.9820  142.7650 C   0  0  0  0  0  3  0  0  0  0  0  0
  191.2960  176.8320  147.3940 C   0  0  0  0  0  3  0  0  0  0  0  0
  183.7130  179.5640  140.4500 O   0  0  0  0  0  0  0  0  0  0  0  0
  183.1920  178.5300  145.5750 N   0  0  0  0  0  0  0  0  0  0  0  0
  184.8870  178.4110  143.7770 C   0  0  0  0  0  0  0  0  0  0  0  0
  184.4380  178.4000  145.2070 C   0  0  0  0  0  0  0  0  0  0  0  0
  186.8890  178.1190  145.8030 C   0  0  1  0  0  3  0  0  0  0  0  0
  191.7410  176.6470  146.0820 C   0  0  0  0  0  3  0  0  0  0  0  0
  185.0910  178.6050  138.6990 C   0  0  0  0  0  2  0  0  0  0  0  0
  184.5300  179.0090  141.4410 C   0  0  0  0  0  0  0  0  0  0  0  0
  190.8430  176.7540  145.0180 C   0  0  0  0  0  3  0  0  0  0  0  0
  186.2560  178.4950  139.6820 C   0  0  0  0  0  2  0  0  0  0  0  0
  185.4410  178.1040  146.2970 C   0  0  1  0  0  3  0  0  0  0  0  0
  187.7370  177.6210  146.8310 O   0  0  0  0  0  0  0  0  0  0  0  0
  186.5800  177.9110  142.0980 C   0  0  0  0  0  3  0  0  0  0  0  0
  188.6550  175.9060  143.2110 C   0  0  0  0  0  1  0  0  0  0  0  0
  189.9570  177.1430  147.6390 C   0  0  0  0  0  3  0  0  0  0  0  0
  187.0370  177.2890  144.5220 C   0  0  1  0  0  3  0  0  0  0  0  0
  189.0590  177.2680  146.5750 C   0  0  0  0  0  0  0  0  0  0  0  0
  186.0580  180.1280  146.9610 C   0  0  0  0  0  1  0  0  0  0  0  0
  185.2970  179.0210  147.3440 O   0  0  0  0  0  0  0  0  0  0  0  0
  183.0070  179.8550  138.1580 C   0  0  0  0  0  2  0  0  0  0  0  0
  181.7030  179.8960  138.9350 C   0  0  0  0  0  2  0  0  0  0  0  0
  181.7070  182.1650  138.2130 O   0  0  0  0  0  0  0  0  0  0  0  0
  179.9390  181.5490  139.5360 O   0  0  0  0  0  1  0  0  0  0  0  0
  181.1170  181.2620  138.8620 C   0  0  0  0  0  0  0  0  0  0  0  0
  1 28  1  6  0  0  0
  1  9  1  0  0  0  0
  2 11  1  0  0  0  0
  3 10  1  0  0  0  0
  4 22  1  1  0  0  0
  4 24  1  0  0  0  0
  4  5  1  0  0  0  0
  5 25  1  0  0  0  0
  6 16  2  0  0  0  0
  6 21  1  0  0  0  0
  7 11  2  0  0  0  0
  8 23  1  0  0  0  0
  9 16  1  0  0  0  0
 11 12  1  0  0  0  0
 12 10  2  0  0  0  0
 12 19  1  0  0  0  0
 13 19  1  0  0  0  0
 13 20  1  1  0  0  0
 14  8  2  0  0  0  0
 15  1  1  0  0  0  0
 15 18  1  0  0  0  0
 16  7  1  0  0  0  0
 17  5  2  0  0  0  0
 17 14  1  0  0  0  0
 18  6  1  0  0  0  0
 19 27  1  1  0  0  0
 21  2  2  0  0  0  0
 24  2  1  6  0  0  0
 24 13  1  0  0  0  0
 25 20  1  0  0  0  0
 25 23  2  0  0  0  0
 26 27  1  0  0  0  0
 28 29  1  0  0  0  0
 30 32  2  0  0  0  0
 32 29  1  0  0  0  0
 32 31  1  0  0  0  0
M  END
>  <MODEL>
7

>  <REMARK>
 VINA RESULT:      -8.3      2.259      4.124
  Name = 
  4 active torsions:
  status: ('A' for Active; 'I' for Inactive)
    1  A    between atoms: C_2  and  C_24
    2  A    between atoms: C_10  and  C_20
    3  A    between atoms: C_10  and  C_24
    4  A    between atoms: O_25  and  C_26
                            x       y       z     vdW  Elec       q    Type
                         _______ _______ _______ _____ _____    ______ ____

>  <TORSDO>
F 4

$$$$
=
 OpenBabel11052417053D

 32 36  0  0  1  0  0  0  0  0999 V2000
  191.2530  175.9910  138.3240 C   0  0  1  0  0  3  0  0  0  0  0  0
  187.9690  177.9020  141.7420 C   0  0  0  0  0  0  0  0  0  0  0  0
  191.6150  177.6020  144.1760 C   0  0  0  0  0  1  0  0  0  0  0  0
  185.4650  178.4390  141.6480 C   0  0  1  0  0  3  0  0  0  0  0  0
  184.2020  178.5040  142.4780 C   0  0  0  0  0  0  0  0  0  0  0  0
  189.0580  177.2430  139.6650 C   0  0  0  0  0  0  0  0  0  0  0  0
  190.2270  177.0040  141.7690 C   0  0  0  0  0  3  0  0  0  0  0  0
  181.8500  178.6530  144.0030 C   0  0  0  0  0  3  0  0  0  0  0  0
  191.3030  176.3200  139.7140 O   0  0  0  0  0  0  0  0  0  0  0  0
  190.2510  177.7300  144.6650 N   0  0  0  0  0  0  0  0  0  0  0  0
  189.1350  177.5490  142.4650 C   0  0  0  0  0  0  0  0  0  0  0  0
  189.1550  177.7010  143.9560 C   0  0  0  0  0  0  0  0  0  0  0  0
  186.6220  177.7520  143.8210 C   0  0  1  0  0  3  0  0  0  0  0  0
  181.7830  178.7040  142.6070 C   0  0  0  0  0  3  0  0  0  0  0  0
  190.4040  177.0100  137.5700 C   0  0  0  0  0  2  0  0  0  0  0  0
  190.1930  176.8450  140.3850 C   0  0  0  0  0  0  0  0  0  0  0  0
  182.9530  178.6270  141.8490 C   0  0  0  0  0  3  0  0  0  0  0  0
  189.0020  177.0560  138.1770 C   0  0  0  0  0  2  0  0  0  0  0  0
  187.8610  177.9550  144.6930 C   0  0  1  0  0  3  0  0  0  0  0  0
  185.4750  178.2200  144.5240 O   0  0  0  0  0  0  0  0  0  0  0  0
  187.9540  177.7550  140.3440 C   0  0  0  0  0  3  0  0  0  0  0  0
  185.4840  179.5900  140.6490 C   0  0  0  0  0  1  0  0  0  0  0  0
  183.0850  178.5050  144.6370 C   0  0  0  0  0  3  0  0  0  0  0  0
  186.7730  178.4780  142.4780 C   0  0  1  0  0  3  0  0  0  0  0  0
  184.2560  178.4110  143.8790 C   0  0  0  0  0  0  0  0  0  0  0  0
  187.6620  178.0020  146.9010 C   0  0  0  0  0  1  0  0  0  0  0  0
  187.7790  177.1280  145.8190 O   0  0  0  0  0  0  0  0  0  0  0  0
  192.6540  175.9620  137.7450 C   0  0  0  0  0  2  0  0  0  0  0  0
  193.1290  174.5270  137.5960 C   0  0  0  0  0  2  0  0  0  0  0  0
  195.3780  175.2450  137.2880 O   0  0  0  0  0  0  0  0  0  0  0  0
  195.0880  173.4800  138.7240 O   0  0  0  0  0  1  0  0  0  0  0  0
  194.5900  174.4500  137.8650 C   0  0  0  0  0  0  0  0  0  0  0  0
  1 28  1  6  0  0  0
  1  9  1  0  0  0  0
  2 11  1  0  0  0  0
  3 10  1  0  0  0  0
  4 22  1  6  0  0  0
  4 24  1  0  0  0  0
  4  5  1  0  0  0  0
  5 25  1  0  0  0  0
  6 21  1  0  0  0  0
  6 16  2  0  0  0  0
  7 11  2  0  0  0  0
  8 23  1  0  0  0  0
  9 16  1  0  0  0  0
 11 12  1  0  0  0  0
 12 10  2  0  0  0  0
 12 19  1  0  0  0  0
 13 20  1  1  0  0  0
 13 19  1  0  0  0  0
 14  8  2  0  0  0  0
 15 18  1  0  0  0  0
 15  1  1  0  0  0  0
 16  7  1  0  0  0  0
 17  5  2  0  0  0  0
 17 14  1  0  0  0  0
 18  6  1  0  0  0  0
 19 27  1  1  0  0  0
 21  2  2  0  0  0  0
 24  2  1  6  0  0  0
 24 13  1  0  0  0  0
 25 20  1  0  0  0  0
 25 23  2  0  0  0  0
 27 26  1  0  0  0  0
 29 28  1  0  0  0  0
 29 32  1  0  0  0  0
 30 32  2  0  0  0  0
 32 31  1  0  0  0  0
M  END
>  <MODEL>
8

>  <REMARK>
 VINA RESULT:      -8.2      3.384      8.988
  Name = 
  4 active torsions:
  status: ('A' for Active; 'I' for Inactive)
    1  A    between atoms: C_2  and  C_24
    2  A    between atoms: C_10  and  C_20
    3  A    between atoms: C_10  and  C_24
    4  A    between atoms: O_25  and  C_26
                            x       y       z     vdW  Elec       q    Type
                         _______ _______ _______ _____ _____    ______ ____

>  <TORSDO>
F 4

$$$$
=
 OpenBabel11052417053D

 32 36  0  0  1  0  0  0  0  0999 V2000
  189.4610  176.7530  145.3300 C   0  0  1  0  0  3  0  0  0  0  0  0
  190.0790  177.1690  140.2740 C   0  0  0  0  0  0  0  0  0  0  0  0
  186.1180  179.0030  140.7770 C   0  0  0  0  0  1  0  0  0  0  0  0
  191.9120  176.3780  138.6670 C   0  0  1  0  0  3  0  0  0  0  0  0
  192.1700  175.9040  137.2540 C   0  0  0  0  0  0  0  0  0  0  0  0
  190.4820  176.8980  142.6610 C   0  0  0  0  0  0  0  0  0  0  0  0
  188.2810  177.5190  141.8710 C   0  0  0  0  0  3  0  0  0  0  0  0
  192.6780  175.0440  134.6300 C   0  0  0  0  0  3  0  0  0  0  0  0
  188.6650  177.2240  144.2400 O   0  0  0  0  0  0  0  0  0  0  0  0
  186.6900  178.4940  139.5400 N   0  0  0  0  0  0  0  0  0  0  0  0
  188.7350  177.5270  140.5410 C   0  0  0  0  0  0  0  0  0  0  0  0
  187.8120  177.8430  139.4020 C   0  0  0  0  0  0  0  0  0  0  0  0
  189.4760  176.6140  137.9310 C   0  0  1  0  0  3  0  0  0  0  0  0
  193.6560  174.8910  135.6170 C   0  0  0  0  0  3  0  0  0  0  0  0
  190.9260  177.1210  145.1120 C   0  0  0  0  0  2  0  0  0  0  0  0
  189.1380  177.2030  142.9230 C   0  0  0  0  0  0  0  0  0  0  0  0
  193.4020  175.3170  136.9230 C   0  0  0  0  0  3  0  0  0  0  0  0
  191.4080  176.5350  143.7840 C   0  0  0  0  0  2  0  0  0  0  0  0
  188.2340  177.5060  137.9910 C   0  0  1  0  0  3  0  0  0  0  0  0
  189.9240  176.5300  136.5820 O   0  0  0  0  0  0  0  0  0  0  0  0
  190.9390  176.8710  141.3450 C   0  0  0  0  0  3  0  0  0  0  0  0
  193.0640  177.2610  139.1330 C   0  0  0  0  0  1  0  0  0  0  0  0
  191.4400  175.6040  134.9550 C   0  0  0  0  0  3  0  0  0  0  0  0
  190.5830  177.1570  138.8420 C   0  0  1  0  0  3  0  0  0  0  0  0
  191.1780  176.0140  136.2650 C   0  0  0  0  0  0  0  0  0  0  0  0
  186.8600  177.7590  136.2700 C   0  0  0  0  0  1  0  0  0  0  0  0
  187.1820  176.8850  137.3100 O   0  0  0  0  0  0  0  0  0  0  0  0
  188.9690  177.3550  146.6320 C   0  0  0  0  0  2  0  0  0  0  0  0
  187.5530  177.8770  146.4650 C   0  0  0  0  0  2  0  0  0  0  0  0
  186.1070  179.3030  147.7070 O   0  0  0  0  0  0  0  0  0  0  0  0
  187.8290  178.3600  148.8930 O   0  0  0  0  0  1  0  0  0  0  0  0
  187.1120  178.5450  147.7180 C   0  0  0  0  0  0  0  0  0  0  0  0
  1 28  1  1  0  0  0
  2 11  2  0  0  0  0
  2 21  1  0  0  0  0
  4 24  1  0  0  0  0
  4 22  1  6  0  0  0
  5  4  1  0  0  0  0
  6 16  1  0  0  0  0
  6 18  1  0  0  0  0
  7 16  2  0  0  0  0
  8 23  2  0  0  0  0
  8 14  1  0  0  0  0
  9  1  1  0  0  0  0
 10  3  1  0  0  0  0
 11  7  1  0  0  0  0
 12 10  2  0  0  0  0
 12 11  1  0  0  0  0
 13 20  1  6  0  0  0
 13 19  1  0  0  0  0
 13 24  1  0  0  0  0
 14 17  2  0  0  0  0
 15  1  1  0  0  0  0
 16  9  1  0  0  0  0
 17  5  1  0  0  0  0
 18 15  1  0  0  0  0
 19 27  1  1  0  0  0
 19 12  1  0  0  0  0
 21  6  2  0  0  0  0
 23 25  1  0  0  0  0
 24  2  1  1  0  0  0
 25 20  1  0  0  0  0
 25  5  2  0  0  0  0
 26 27  1  0  0  0  0
 29 28  1  0  0  0  0
 29 32  1  0  0  0  0
 30 32  2  0  0  0  0
 32 31  1  0  0  0  0
M  END
>  <MODEL>
9

>  <REMARK>
 VINA RESULT:      -8.2      4.315      8.865
  Name = 
  4 active torsions:
  status: ('A' for Active; 'I' for Inactive)
    1  A    between atoms: C_2  and  C_24
    2  A    between atoms: C_10  and  C_20
    3  A    between atoms: C_10  and  C_24
    4  A    between atoms: O_25  and  C_26
                            x       y       z     vdW  Elec       q    Type
                         _______ _______ _______ _____ _____    ______ ____

>  <TORSDO>
F 4

$$$$
