=
 OpenBabel11052415373D

 37 40  0  0  1  0  0  0  0  0999 V2000
  186.9910  177.9880  146.7900 C   0  0  1  0  0  3  0  0  0  0  0  0
  192.4760  175.3570  146.8860 C   0  0  0  0  0  2  0  0  0  0  0  0
  191.1270  175.4040  146.1590 C   0  0  0  0  0  2  0  0  0  0  0  0
  191.3800  177.5990  145.2620 C   0  0  0  0  0  2  0  0  0  0  0  0
  188.8100  177.2710  141.6110 C   0  0  2  0  0  3  0  0  0  0  0  0
  190.5480  176.7560  146.1140 N   0  0  2  0  0  0  0  0  0  0  0  0
  190.5150  178.6240  144.5350 C   0  0  0  0  0  2  0  0  0  0  0  0
  190.4160  177.3980  147.4390 C   0  0  1  0  0  3  0  0  0  0  0  0
  188.9480  177.5800  147.7880 C   0  0  0  0  0  2  0  0  0  0  0  0
  192.0540  178.7600  142.5380 C   0  0  0  0  0  1  0  0  0  0  0  0
  186.7550  176.8500  145.7870 C   0  0  0  0  0  2  0  0  0  0  0  0
  190.6310  178.5300  143.0160 C   0  0  1  0  0  3  0  0  0  0  0  0
  188.3310  178.3890  146.8300 O   0  0  0  0  0  0  0  0  0  0  0  0
  187.6530  176.9670  144.5660 C   0  0  2  0  0  3  0  0  0  0  0  0
  190.6100  176.1890  142.6780 O   0  0  0  0  0  0  0  0  0  0  0  0
  187.6390  177.9820  142.3030 C   0  0  0  0  0  2  0  0  0  0  0  0
  192.5150  176.2340  148.1410 C   0  0  0  0  0  2  0  0  0  0  0  0
  191.1170  176.6460  148.5780 C   0  0  0  0  0  2  0  0  0  0  0  0
  186.8240  177.1530  143.3090 C   0  0  1  0  0  3  0  0  0  0  0  0
  187.4150  175.7900  143.6490 C   0  0  0  0  0  2  0  0  0  0  0  0
  190.0560  177.2560  142.4600 C   0  0  0  0  0  0  0  0  0  0  0  0
  189.9630  176.9110  139.3420 C   0  0  2  0  0  3  0  0  0  0  0  0
  188.5760  177.3340  137.4010 O   0  0  0  0  0  0  0  0  0  0  0  0
  187.7020  178.0690  139.5010 C   0  0  0  0  0  2  0  0  0  0  0  0
  189.9070  177.3270  137.8580 C   0  0  2  0  0  3  0  0  0  0  0  0
  189.0430  177.8080  140.1910 C   0  0  1  0  0  3  0  0  0  0  0  0
  187.9410  178.4140  138.0350 C   0  0  0  0  0  2  0  0  0  0  0  0
  191.2620  177.0030  139.8080 F   0  0  0  0  0  0  0  0  0  0  0  0
  190.7250  175.1050  137.4180 O   0  0  0  0  0  1  0  0  0  0  0  0
  190.2990  176.4680  135.5000 C   0  0  0  0  0  1  0  0  0  0  0  0
  190.7490  176.4200  136.9530 C   0  0  1  0  0  3  0  0  0  0  0  0
  186.1200  179.1690  146.4990 C   0  0  0  0  0  0  0  0  0  0  0  0
  186.0400  180.0960  147.3440 O   0  0  0  0  0  0  0  0  0  0  0  0
  185.4590  179.2700  145.2810 O   0  0  0  0  0  0  0  0  0  0  0  0
  184.0670  179.0190  145.1560 C   0  0  0  0  0  2  0  0  0  0  0  0
  183.6840  178.9920  143.6890 C   0  0  0  0  0  2  0  0  0  0  0  0
  182.1720  179.0170  143.5450 C   0  0  0  0  0  1  0  0  0  0  0  0
  1 32  1  6  0  0  0
  1 13  1  0  0  0  0
  2 17  1  0  0  0  0
  3  2  1  0  0  0  0
  5 16  1  1  0  0  0
  5 21  1  0  0  0  0
  6  4  1  6  0  0  0
  6  3  1  0  0  0  0
  6  8  1  0  0  0  0
  7  4  1  0  0  0  0
  8  9  1  1  0  0  0
  8 18  1  0  0  0  0
 11  1  1  0  0  0  0
 12 10  1  1  0  0  0
 12  7  1  0  0  0  0
 13  9  1  0  0  0  0
 14 20  1  6  0  0  0
 14 11  1  0  0  0  0
 17 18  1  0  0  0  0
 19 16  1  6  0  0  0
 19 20  1  0  0  0  0
 19 14  1  0  0  0  0
 21 15  2  0  0  0  0
 21 12  1  0  0  0  0
 22 28  1  1  0  0  0
 22 26  1  0  0  0  0
 23 25  1  0  0  0  0
 23 27  1  0  0  0  0
 25 31  1  6  0  0  0
 25 22  1  0  0  0  0
 26 24  1  6  0  0  0
 26  5  1  0  0  0  0
 27 24  1  0  0  0  0
 31 30  1  6  0  0  0
 31 29  1  0  0  0  0
 32 33  2  0  0  0  0
 34 32  1  0  0  0  0
 35 34  1  0  0  0  0
 36 35  1  0  0  0  0
 37 36  1  0  0  0  0
M  END
>  <MODEL>
1

>  <REMARK>
 VINA RESULT:      -6.0      0.000      0.000
  Name = 
  6 active torsions:
  status: ('A' for Active; 'I' for Inactive)
    1  A    between atoms: C_1  and  C_12
    2  A    between atoms: O_5  and  C_12
    3  A    between atoms: O_5  and  C_26
    4  A    between atoms: C_8  and  C_19
    5  A    between atoms: C_10  and  C_14
    6  A    between atoms: C_11  and  C_26
                            x       y       z     vdW  Elec       q    Type
                         _______ _______ _______ _____ _____    ______ ____

>  <TORSDO>
F 6

$$$$
=
 OpenBabel11052415373D

 37 40  0  0  1  0  0  0  0  0999 V2000
  180.8350  175.8540  138.2500 C   0  0  1  0  0  3  0  0  0  0  0  0
  182.2680  171.2070  134.5940 C   0  0  0  0  0  2  0  0  0  0  0  0
  182.3560  172.7270  134.7730 C   0  0  0  0  0  2  0  0  0  0  0  0
  183.8560  172.6940  136.6260 C   0  0  0  0  0  2  0  0  0  0  0  0
  185.8700  176.6560  136.0940 C   0  0  2  0  0  3  0  0  0  0  0  0
  182.5380  173.1280  136.1770 N   0  0  2  0  0  0  0  0  0  0  0  0
  184.4190  173.6890  137.6360 C   0  0  0  0  0  2  0  0  0  0  0  0
  181.5160  172.5820  137.0950 C   0  0  1  0  0  3  0  0  0  0  0  0
  180.6600  173.7080  137.6530 C   0  0  0  0  0  2  0  0  0  0  0  0
  186.8210  173.2160  137.0200 C   0  0  0  0  0  1  0  0  0  0  0  0
  181.2870  176.6290  137.0040 C   0  0  0  0  0  2  0  0  0  0  0  0
  185.7570  174.2830  137.2030 C   0  0  1  0  0  3  0  0  0  0  0  0
  181.4650  174.6090  138.3560 O   0  0  0  0  0  0  0  0  0  0  0  0
  182.7470  176.3740  136.6690 C   0  0  2  0  0  3  0  0  0  0  0  0
  185.3810  174.6840  134.9020 O   0  0  0  0  0  0  0  0  0  0  0  0
  184.9890  177.3110  137.1660 C   0  0  0  0  0  2  0  0  0  0  0  0
  181.4440  170.5180  135.6850 C   0  0  0  0  0  2  0  0  0  0  0  0
  180.6050  171.5190  136.4670 C   0  0  0  0  0  2  0  0  0  0  0  0
  183.5480  177.6590  136.7580 C   0  0  1  0  0  3  0  0  0  0  0  0
  183.1120  177.1160  135.4040 C   0  0  0  0  0  2  0  0  0  0  0  0
  185.6430  175.1690  135.9930 C   0  0  0  0  0  0  0  0  0  0  0  0
  187.9340  176.6390  137.6270 C   0  0  2  0  0  3  0  0  0  0  0  0
  190.0140  176.0220  136.5500 O   0  0  0  0  0  0  0  0  0  0  0  0
  188.1710  176.4770  135.0980 C   0  0  0  0  0  2  0  0  0  0  0  0
  189.4710  176.7620  137.6160 C   0  0  2  0  0  3  0  0  0  0  0  0
  187.3480  177.0400  136.2600 C   0  0  1  0  0  3  0  0  0  0  0  0
  189.6550  176.6950  135.3720 C   0  0  0  0  0  2  0  0  0  0  0  0
  187.4040  177.4490  138.6160 F   0  0  0  0  0  0  0  0  0  0  0  0
  191.1580  175.4150  138.6820 O   0  0  0  0  0  1  0  0  0  0  0  0
  190.6140  177.4740  139.7690 C   0  0  0  0  0  1  0  0  0  0  0  0
  190.1140  176.3070  138.9300 C   0  0  1  0  0  3  0  0  0  0  0  0
  181.0610  176.6420  139.5000 C   0  0  0  0  0  0  0  0  0  0  0  0
  180.0750  176.9620  140.2110 O   0  0  0  0  0  0  0  0  0  0  0  0
  182.3520  176.9590  139.9060 O   0  0  0  0  0  0  0  0  0  0  0  0
  182.6690  178.2080  140.5030 C   0  0  0  0  0  2  0  0  0  0  0  0
  184.0750  178.1610  141.0680 C   0  0  0  0  0  2  0  0  0  0  0  0
  184.0770  178.6570  142.5040 C   0  0  0  0  0  1  0  0  0  0  0  0
  1 13  1  0  0  0  0
  1 32  1  1  0  0  0
  2  3  1  0  0  0  0
  2 17  1  0  0  0  0
  4  7  1  0  0  0  0
  5 26  1  0  0  0  0
  5 16  1  1  0  0  0
  6  3  1  6  0  0  0
  6  4  1  0  0  0  0
  6  8  1  0  0  0  0
  8 18  1  6  0  0  0
  8  9  1  0  0  0  0
  9 13  1  0  0  0  0
 11  1  1  0  0  0  0
 12 10  1  6  0  0  0
 12  7  1  0  0  0  0
 14 20  1  6  0  0  0
 14 19  1  0  0  0  0
 14 11  1  0  0  0  0
 15 21  2  0  0  0  0
 17 18  1  0  0  0  0
 19 20  1  6  0  0  0
 19 16  1  0  0  0  0
 21  5  1  0  0  0  0
 21 12  1  0  0  0  0
 22 28  1  1  0  0  0
 23 25  1  0  0  0  0
 24 27  1  0  0  0  0
 25 22  1  0  0  0  0
 25 31  1  1  0  0  0
 26 24  1  6  0  0  0
 26 22  1  0  0  0  0
 27 23  1  0  0  0  0
 29 31  1  0  0  0  0
 31 30  1  6  0  0  0
 32 34  1  0  0  0  0
 32 33  2  0  0  0  0
 34 35  1  0  0  0  0
 35 36  1  0  0  0  0
 36 37  1  0  0  0  0
M  END
>  <MODEL>
2

>  <REMARK>
 VINA RESULT:      -5.6      5.949      9.387
  Name = 
  6 active torsions:
  status: ('A' for Active; 'I' for Inactive)
    1  A    between atoms: C_1  and  C_12
    2  A    between atoms: O_5  and  C_12
    3  A    between atoms: O_5  and  C_26
    4  A    between atoms: C_8  and  C_19
    5  A    between atoms: C_10  and  C_14
    6  A    between atoms: C_11  and  C_26
                            x       y       z     vdW  Elec       q    Type
                         _______ _______ _______ _____ _____    ______ ____

>  <TORSDO>
F 6

$$$$
=
 OpenBabel11052415373D

 37 40  0  0  1  0  0  0  0  0999 V2000
  180.1080  179.1620  141.9910 C   0  0  1  0  0  3  0  0  0  0  0  0
  180.8910  183.0320  137.3620 C   0  0  0  0  0  2  0  0  0  0  0  0
  181.5920  182.0140  138.2690 C   0  0  0  0  0  2  0  0  0  0  0  0
  180.4640  180.0870  137.4330 C   0  0  0  0  0  2  0  0  0  0  0  0
  183.5400  176.9410  138.2580 C   0  0  2  0  0  3  0  0  0  0  0  0
  180.7270  180.8790  138.6290 N   0  0  2  0  0  0  0  0  0  0  0  0
  180.3320  178.6120  137.8000 C   0  0  0  0  0  2  0  0  0  0  0  0
  179.4380  181.2740  139.2350 C   0  0  1  0  0  3  0  0  0  0  0  0
  179.3830  180.8250  140.6860 C   0  0  0  0  0  2  0  0  0  0  0  0
  181.1750  177.8030  135.5620 C   0  0  0  0  0  1  0  0  0  0  0  0
  181.6410  179.1630  141.9040 C   0  0  0  0  0  2  0  0  0  0  0  0
  181.3380  177.7260  137.0700 C   0  0  1  0  0  3  0  0  0  0  0  0
  179.5080  179.4350  140.7560 O   0  0  0  0  0  0  0  0  0  0  0  0
  182.1390  178.6300  140.5710 C   0  0  2  0  0  3  0  0  0  0  0  0
  183.3070  179.0310  137.1950 O   0  0  0  0  0  0  0  0  0  0  0  0
  182.8110  176.4820  139.5280 C   0  0  0  0  0  2  0  0  0  0  0  0
  179.4350  183.2920  137.7580 C   0  0  0  0  0  2  0  0  0  0  0  0
  179.1380  182.7770  139.1600 C   0  0  0  0  0  2  0  0  0  0  0  0
  182.9650  177.3730  140.7720 C   0  0  1  0  0  3  0  0  0  0  0  0
  183.6480  178.7120  140.5260 C   0  0  0  0  0  2  0  0  0  0  0  0
  182.7600  177.9790  137.4900 C   0  0  0  0  0  0  0  0  0  0  0  0
  185.5140  175.6590  137.2240 C   0  0  2  0  0  3  0  0  0  0  0  0
  185.3860  173.2470  137.4050 O   0  0  0  0  0  0  0  0  0  0  0  0
  183.3940  174.4510  137.9480 C   0  0  0  0  0  2  0  0  0  0  0  0
  185.9120  174.2940  136.6270 C   0  0  2  0  0  3  0  0  0  0  0  0
  183.9860  175.7500  137.3960 C   0  0  1  0  0  3  0  0  0  0  0  0
  183.9960  173.2620  137.2080 C   0  0  0  0  0  2  0  0  0  0  0  0
  185.9510  176.6800  136.3980 F   0  0  0  0  0  0  0  0  0  0  0  0
  188.0980  175.0750  137.2660 O   0  0  0  0  0  1  0  0  0  0  0  0
  187.8900  172.7230  136.8910 C   0  0  0  0  0  1  0  0  0  0  0  0
  187.4300  174.1200  136.5000 C   0  0  1  0  0  3  0  0  0  0  0  0
  179.5870  177.8690  142.5300 C   0  0  0  0  0  0  0  0  0  0  0  0
  179.6970  177.6260  143.7580 O   0  0  0  0  0  0  0  0  0  0  0  0
  178.9310  176.9740  141.6930 O   0  0  0  0  0  0  0  0  0  0  0  0
  179.6160  175.9230  141.0270 C   0  0  0  0  0  2  0  0  0  0  0  0
  179.0870  175.7870  139.6130 C   0  0  0  0  0  2  0  0  0  0  0  0
  179.4000  174.4020  139.0710 C   0  0  0  0  0  1  0  0  0  0  0  0
  1 32  1  6  0  0  0
  2 17  1  0  0  0  0
  2  3  1  0  0  0  0
  3  6  1  0  0  0  0
  4  7  1  0  0  0  0
  5 16  1  1  0  0  0
  6  4  1  6  0  0  0
  6  8  1  0  0  0  0
  8 18  1  1  0  0  0
  8  9  1  0  0  0  0
  9 13  1  0  0  0  0
 11  1  1  0  0  0  0
 12 10  1  6  0  0  0
 12 21  1  0  0  0  0
 12  7  1  0  0  0  0
 13  1  1  0  0  0  0
 14 20  1  1  0  0  0
 14 19  1  0  0  0  0
 14 11  1  0  0  0  0
 15 21  2  0  0  0  0
 17 18  1  0  0  0  0
 19 16  1  6  0  0  0
 20 19  1  0  0  0  0
 21  5  1  0  0  0  0
 22 28  1  6  0  0  0
 22 26  1  0  0  0  0
 25 31  1  1  0  0  0
 25 22  1  0  0  0  0
 25 23  1  0  0  0  0
 26 24  1  1  0  0  0
 26  5  1  0  0  0  0
 27 23  1  0  0  0  0
 27 24  1  0  0  0  0
 31 30  1  1  0  0  0
 31 29  1  0  0  0  0
 32 33  2  0  0  0  0
 34 32  1  0  0  0  0
 35 34  1  0  0  0  0
 36 35  1  0  0  0  0
 37 36  1  0  0  0  0
M  END
>  <MODEL>
3

>  <REMARK>
 VINA RESULT:      -5.5      7.085      9.603
  Name = 
  6 active torsions:
  status: ('A' for Active; 'I' for Inactive)
    1  A    between atoms: C_1  and  C_12
    2  A    between atoms: O_5  and  C_12
    3  A    between atoms: O_5  and  C_26
    4  A    between atoms: C_8  and  C_19
    5  A    between atoms: C_10  and  C_14
    6  A    between atoms: C_11  and  C_26
                            x       y       z     vdW  Elec       q    Type
                         _______ _______ _______ _____ _____    ______ ____

>  <TORSDO>
F 6

$$$$
=
 OpenBabel11052415373D

 37 40  0  0  1  0  0  0  0  0999 V2000
  179.3770  176.6670  139.8900 C   0  0  1  0  0  3  0  0  0  0  0  0
  180.8450  180.5480  135.4400 C   0  0  0  0  0  2  0  0  0  0  0  0
  180.8470  180.3310  136.9570 C   0  0  0  0  0  2  0  0  0  0  0  0
  182.4730  178.5860  136.9770 C   0  0  0  0  0  2  0  0  0  0  0  0
  184.1870  179.1370  141.0750 C   0  0  2  0  0  3  0  0  0  0  0  0
  181.1010  178.9310  137.3340 N   0  0  2  0  0  0  0  0  0  0  0  0
  183.0400  177.5880  137.9810 C   0  0  0  0  0  2  0  0  0  0  0  0
  180.1830  177.9620  136.7000 C   0  0  1  0  0  3  0  0  0  0  0  0
  179.2990  177.3140  137.7520 C   0  0  0  0  0  2  0  0  0  0  0  0
  185.4190  178.3790  137.6820 C   0  0  0  0  0  1  0  0  0  0  0  0
  179.6900  177.9180  140.7230 C   0  0  0  0  0  2  0  0  0  0  0  0
  184.3040  178.0930  138.6730 C   0  0  1  0  0  3  0  0  0  0  0  0
  180.0910  176.6410  138.6860 O   0  0  0  0  0  0  0  0  0  0  0  0
  181.1370  178.3590  140.5730 C   0  0  2  0  0  3  0  0  0  0  0  0
  183.7440  180.3500  139.1050 O   0  0  0  0  0  0  0  0  0  0  0  0
  183.3440  177.9880  141.6430 C   0  0  0  0  0  2  0  0  0  0  0  0
  180.1440  179.4240  134.6710 C   0  0  0  0  0  2  0  0  0  0  0  0
  179.3000  178.5570  135.5950 C   0  0  0  0  0  2  0  0  0  0  0  0
  181.8580  178.2870  141.9060 C   0  0  1  0  0  3  0  0  0  0  0  0
  181.3640  179.6240  141.3690 C   0  0  0  0  0  2  0  0  0  0  0  0
  184.0490  179.2660  139.5790 C   0  0  0  0  0  0  0  0  0  0  0  0
  185.8250  178.2460  142.8460 C   0  0  2  0  0  3  0  0  0  0  0  0
  187.8850  177.3180  141.9710 O   0  0  0  0  0  0  0  0  0  0  0  0
  186.5410  178.5440  140.4220 C   0  0  0  0  0  2  0  0  0  0  0  0
  187.3160  177.9450  143.0960 C   0  0  2  0  0  3  0  0  0  0  0  0
  185.6460  179.0610  141.5500 C   0  0  1  0  0  3  0  0  0  0  0  0
  187.9440  178.2890  140.9600 C   0  0  0  0  0  2  0  0  0  0  0  0
  185.3010  178.9510  143.9150 F   0  0  0  0  0  0  0  0  0  0  0  0
  188.7560  176.3840  144.2300 O   0  0  0  0  0  1  0  0  0  0  0  0
  187.5180  177.8780  145.6260 C   0  0  0  0  0  1  0  0  0  0  0  0
  187.5480  177.0740  144.3350 C   0  0  1  0  0  3  0  0  0  0  0  0
  179.6390  175.4130  140.6590 C   0  0  0  0  0  0  0  0  0  0  0  0
  179.2280  175.3210  141.8440 O   0  0  0  0  0  0  0  0  0  0  0  0
  180.2710  174.3350  140.0500 O   0  0  0  0  0  0  0  0  0  0  0  0
  179.5580  173.3820  139.2770 C   0  0  0  0  0  2  0  0  0  0  0  0
  180.1160  173.3490  137.8670 C   0  0  0  0  0  2  0  0  0  0  0  0
  180.0720  171.9320  137.3220 C   0  0  0  0  0  1  0  0  0  0  0  0
  1 32  1  1  0  0  0
  1 11  1  0  0  0  0
  2  3  1  0  0  0  0
  4  6  1  0  0  0  0
  4  7  1  0  0  0  0
  5 26  1  0  0  0  0
  5 16  1  6  0  0  0
  6  3  1  6  0  0  0
  7 12  1  0  0  0  0
  8 18  1  6  0  0  0
  8  6  1  0  0  0  0
  8  9  1  0  0  0  0
  9 13  1  0  0  0  0
 12 10  1  6  0  0  0
 12 21  1  0  0  0  0
 13  1  1  0  0  0  0
 14 11  1  1  0  0  0
 14 20  1  0  0  0  0
 14 19  1  0  0  0  0
 15 21  2  0  0  0  0
 16 19  1  0  0  0  0
 17  2  1  0  0  0  0
 17 18  1  0  0  0  0
 19 20  1  6  0  0  0
 21  5  1  0  0  0  0
 22 25  1  0  0  0  0
 22 28  1  1  0  0  0
 23 25  1  0  0  0  0
 24 27  1  0  0  0  0
 25 31  1  1  0  0  0
 26 24  1  6  0  0  0
 26 22  1  0  0  0  0
 27 23  1  0  0  0  0
 29 31  1  0  0  0  0
 31 30  1  1  0  0  0
 32 33  2  0  0  0  0
 34 32  1  0  0  0  0
 35 34  1  0  0  0  0
 36 35  1  0  0  0  0
 37 36  1  0  0  0  0
M  END
>  <MODEL>
4

>  <REMARK>
 VINA RESULT:      -5.5      5.861      9.982
  Name = 
  6 active torsions:
  status: ('A' for Active; 'I' for Inactive)
    1  A    between atoms: C_1  and  C_12
    2  A    between atoms: O_5  and  C_12
    3  A    between atoms: O_5  and  C_26
    4  A    between atoms: C_8  and  C_19
    5  A    between atoms: C_10  and  C_14
    6  A    between atoms: C_11  and  C_26
                            x       y       z     vdW  Elec       q    Type
                         _______ _______ _______ _____ _____    ______ ____

>  <TORSDO>
F 6

$$$$
=
 OpenBabel11052415373D

 37 40  0  0  1  0  0  0  0  0999 V2000
  188.7360  172.7130  135.2800 C   0  0  1  0  0  3  0  0  0  0  0  0
  193.8230  176.0340  134.9300 C   0  0  0  0  0  2  0  0  0  0  0  0
  192.2910  176.0880  134.8800 C   0  0  0  0  0  2  0  0  0  0  0  0
  191.9280  175.5390  137.1720 C   0  0  0  0  0  2  0  0  0  0  0  0
  187.9900  177.5530  137.8610 C   0  0  2  0  0  3  0  0  0  0  0  0
  191.6550  175.1300  135.7990 N   0  0  2  0  0  0  0  0  0  0  0  0
  190.7480  175.1790  138.0700 C   0  0  0  0  0  2  0  0  0  0  0  0
  192.1050  173.7330  135.6170 C   0  0  1  0  0  3  0  0  0  0  0  0
  190.9580  172.8770  135.1060 C   0  0  0  0  0  2  0  0  0  0  0  0
  191.1670  177.0840  139.6740 C   0  0  0  0  0  1  0  0  0  0  0  0
  188.1500  174.0420  134.7820 C   0  0  0  0  0  2  0  0  0  0  0  0
  190.1520  176.3910  138.7820 C   0  0  1  0  0  3  0  0  0  0  0  0
  189.9060  172.8970  136.0260 O   0  0  0  0  0  0  0  0  0  0  0  0
  188.3660  175.1720  135.7760 C   0  0  2  0  0  3  0  0  0  0  0  0
  190.1580  178.0110  137.0590 O   0  0  0  0  0  0  0  0  0  0  0  0
  187.2240  176.2330  137.7050 C   0  0  0  0  0  2  0  0  0  0  0  0
  194.3730  174.6080  135.0290 C   0  0  0  0  0  2  0  0  0  0  0  0
  193.3110  173.5740  134.6820 C   0  0  0  0  0  2  0  0  0  0  0  0
  187.0370  175.7090  136.2710 C   0  0  1  0  0  3  0  0  0  0  0  0
  187.8210  176.4600  135.2030 C   0  0  0  0  0  2  0  0  0  0  0  0
  189.4850  177.3570  137.8420 C   0  0  0  0  0  0  0  0  0  0  0  0
  185.9700  178.2800  139.2750 C   0  0  2  0  0  3  0  0  0  0  0  0
  186.3000  178.1820  141.6730 O   0  0  0  0  0  0  0  0  0  0  0  0
  188.2620  177.9440  140.3290 C   0  0  0  0  0  2  0  0  0  0  0  0
  185.5780  178.8380  140.6580 C   0  0  2  0  0  3  0  0  0  0  0  0
  187.4950  178.3590  139.0710 C   0  0  1  0  0  3  0  0  0  0  0  0
  187.6330  178.6040  141.5510 C   0  0  0  0  0  2  0  0  0  0  0  0
  185.3300  178.9980  138.2800 F   0  0  0  0  0  0  0  0  0  0  0  0
  183.5360  177.6200  140.2740 O   0  0  0  0  0  1  0  0  0  0  0  0
  183.7740  178.6210  142.4330 C   0  0  0  0  0  1  0  0  0  0  0  0
  184.0770  178.7180  140.9440 C   0  0  1  0  0  3  0  0  0  0  0  0
  187.7420  171.9400  136.0850 C   0  0  0  0  0  0  0  0  0  0  0  0
  187.8800  171.8740  137.3330 O   0  0  0  0  0  0  0  0  0  0  0  0
  186.6410  171.3570  135.4690 O   0  0  0  0  0  0  0  0  0  0  0  0
  185.3530  171.3620  136.0660 C   0  0  0  0  0  2  0  0  0  0  0  0
  184.8050  172.7760  136.0830 C   0  0  0  0  0  2  0  0  0  0  0  0
  184.6400  173.2530  137.5150 C   0  0  0  0  0  1  0  0  0  0  0  0
  1 13  1  0  0  0  0
  1 32  1  1  0  0  0
  2 17  1  0  0  0  0
  3  2  1  0  0  0  0
  4  7  1  0  0  0  0
  5 16  1  1  0  0  0
  5 26  1  0  0  0  0
  6  3  1  6  0  0  0
  6  4  1  0  0  0  0
  7 12  1  0  0  0  0
  8 18  1  6  0  0  0
  8  6  1  0  0  0  0
  9  8  1  0  0  0  0
  9 13  1  0  0  0  0
 11  1  1  0  0  0  0
 12 10  1  6  0  0  0
 14 11  1  6  0  0  0
 14 19  1  0  0  0  0
 15 21  2  0  0  0  0
 18 17  1  0  0  0  0
 19 20  1  6  0  0  0
 19 16  1  0  0  0  0
 20 14  1  0  0  0  0
 21  5  1  0  0  0  0
 21 12  1  0  0  0  0
 22 28  1  6  0  0  0
 22 25  1  0  0  0  0
 24 27  1  0  0  0  0
 25 31  1  1  0  0  0
 25 23  1  0  0  0  0
 26 22  1  0  0  0  0
 26 24  1  1  0  0  0
 27 23  1  0  0  0  0
 29 31  1  0  0  0  0
 31 30  1  1  0  0  0
 32 33  2  0  0  0  0
 34 35  1  0  0  0  0
 34 32  1  0  0  0  0
 35 36  1  0  0  0  0
 36 37  1  0  0  0  0
M  END
>  <MODEL>
5

>  <REMARK>
 VINA RESULT:      -5.2      4.642      9.276
  Name = 
  6 active torsions:
  status: ('A' for Active; 'I' for Inactive)
    1  A    between atoms: C_1  and  C_12
    2  A    between atoms: O_5  and  C_12
    3  A    between atoms: O_5  and  C_26
    4  A    between atoms: C_8  and  C_19
    5  A    between atoms: C_10  and  C_14
    6  A    between atoms: C_11  and  C_26
                            x       y       z     vdW  Elec       q    Type
                         _______ _______ _______ _____ _____    ______ ____

>  <TORSDO>
F 6

$$$$
=
 OpenBabel11052415373D

 37 40  0  0  1  0  0  0  0  0999 V2000
  184.9440  179.0160  142.4560 C   0  0  1  0  0  3  0  0  0  0  0  0
  178.9410  179.6200  141.6700 C   0  0  0  0  0  2  0  0  0  0  0  0
  180.3080  179.7480  140.9880 C   0  0  0  0  0  2  0  0  0  0  0  0
  180.8210  177.4200  140.9720 C   0  0  0  0  0  2  0  0  0  0  0  0
  183.5290  177.2220  137.4130 C   0  0  2  0  0  3  0  0  0  0  0  0
  181.2690  178.7280  141.4360 N   0  0  2  0  0  0  0  0  0  0  0  0
  182.0230  176.5340  140.6610 C   0  0  0  0  0  2  0  0  0  0  0  0
  181.4530  178.6780  142.9030 C   0  0  1  0  0  3  0  0  0  0  0  0
  182.8640  179.1090  143.2670 C   0  0  0  0  0  2  0  0  0  0  0  0
  180.8080  175.2140  138.8850 C   0  0  0  0  0  1  0  0  0  0  0  0
  184.9270  179.7330  141.0980 C   0  0  0  0  0  2  0  0  0  0  0  0
  182.0390  176.0390  139.2170 C   0  0  1  0  0  3  0  0  0  0  0  0
  183.7900  178.2520  142.6660 O   0  0  0  0  0  0  0  0  0  0  0  0
  184.2340  178.9100  140.0240 C   0  0  2  0  0  3  0  0  0  0  0  0
  181.3880  177.9820  138.0360 O   0  0  0  0  0  0  0  0  0  0  0  0
  184.7830  177.2160  138.2970 C   0  0  0  0  0  2  0  0  0  0  0  0
  179.0410  179.2840  143.1610 C   0  0  0  0  0  2  0  0  0  0  0  0
  180.4460  179.5220  143.6950 C   0  0  0  0  0  2  0  0  0  0  0  0
  185.2030  178.5620  138.9100 C   0  0  1  0  0  3  0  0  0  0  0  0
  184.1990  179.6930  138.7320 C   0  0  0  0  0  2  0  0  0  0  0  0
  182.2570  177.1420  138.2190 C   0  0  0  0  0  0  0  0  0  0  0  0
  184.1010  174.7940  136.7910 C   0  0  2  0  0  3  0  0  0  0  0  0
  182.5200  173.7090  135.3100 O   0  0  0  0  0  0  0  0  0  0  0  0
  182.2750  176.0730  135.5630 C   0  0  0  0  0  2  0  0  0  0  0  0
  183.8690  173.7180  135.7120 C   0  0  2  0  0  3  0  0  0  0  0  0
  183.6140  176.1700  136.2980 C   0  0  1  0  0  3  0  0  0  0  0  0
  182.3090  174.8970  134.5940 C   0  0  0  0  0  2  0  0  0  0  0  0
  185.4470  174.8630  137.1060 F   0  0  0  0  0  0  0  0  0  0  0  0
  183.3960  171.8550  137.1620 O   0  0  0  0  0  1  0  0  0  0  0  0
  184.3300  171.3160  135.0280 C   0  0  0  0  0  1  0  0  0  0  0  0
  184.2700  172.3130  136.1760 C   0  0  1  0  0  3  0  0  0  0  0  0
  186.1550  178.1520  142.6060 C   0  0  0  0  0  0  0  0  0  0  0  0
  187.0900  178.2540  141.7730 O   0  0  0  0  0  0  0  0  0  0  0  0
  186.2740  177.2940  143.6930 O   0  0  0  0  0  0  0  0  0  0  0  0
  187.1800  177.5470  144.7570 C   0  0  0  0  0  2  0  0  0  0  0  0
  186.4320  177.5340  146.0770 C   0  0  0  0  0  2  0  0  0  0  0  0
  185.4480  178.6900  146.1290 C   0  0  0  0  0  1  0  0  0  0  0  0
  1 32  1  6  0  0  0
  1 13  1  0  0  0  0
  2 17  1  0  0  0  0
  3  6  1  0  0  0  0
  3  2  1  0  0  0  0
  5 21  1  0  0  0  0
  5 16  1  1  0  0  0
  6  4  1  1  0  0  0
  6  8  1  0  0  0  0
  7  4  1  0  0  0  0
  8  9  1  6  0  0  0
  8 18  1  0  0  0  0
 11  1  1  0  0  0  0
 12 10  1  6  0  0  0
 12  7  1  0  0  0  0
 13  9  1  0  0  0  0
 14 20  1  6  0  0  0
 14 11  1  0  0  0  0
 15 21  2  0  0  0  0
 17 18  1  0  0  0  0
 19 16  1  6  0  0  0
 19 14  1  0  0  0  0
 20 19  1  0  0  0  0
 21 12  1  0  0  0  0
 22 28  1  6  0  0  0
 23 25  1  0  0  0  0
 25 31  1  1  0  0  0
 25 22  1  0  0  0  0
 26 24  1  1  0  0  0
 26 22  1  0  0  0  0
 26  5  1  0  0  0  0
 27 23  1  0  0  0  0
 27 24  1  0  0  0  0
 31 30  1  6  0  0  0
 31 29  1  0  0  0  0
 32 34  1  0  0  0  0
 33 32  2  0  0  0  0
 34 35  1  0  0  0  0
 35 36  1  0  0  0  0
 36 37  1  0  0  0  0
M  END
>  <MODEL>
6

>  <REMARK>
 VINA RESULT:      -5.1      4.979      8.385
  Name = 
  6 active torsions:
  status: ('A' for Active; 'I' for Inactive)
    1  A    between atoms: C_1  and  C_12
    2  A    between atoms: O_5  and  C_12
    3  A    between atoms: O_5  and  C_26
    4  A    between atoms: C_8  and  C_19
    5  A    between atoms: C_10  and  C_14
    6  A    between atoms: C_11  and  C_26
                            x       y       z     vdW  Elec       q    Type
                         _______ _______ _______ _____ _____    ______ ____

>  <TORSDO>
F 6

$$$$
=
 OpenBabel11052415373D

 37 40  0  0  1  0  0  0  0  0999 V2000
  183.8280  178.9880  140.1890 C   0  0  1  0  0  3  0  0  0  0  0  0
  179.8560  176.7670  136.1500 C   0  0  0  0  0  2  0  0  0  0  0  0
  181.2640  177.3490  136.3260 C   0  0  0  0  0  2  0  0  0  0  0  0
  182.1600  175.5150  137.5600 C   0  0  0  0  0  2  0  0  0  0  0  0
  186.4890  175.8630  136.4750 C   0  0  2  0  0  3  0  0  0  0  0  0
  181.8940  176.9490  137.5950 N   0  0  2  0  0  0  0  0  0  0  0  0
  183.4310  175.2000  138.3440 C   0  0  0  0  0  2  0  0  0  0  0  0
  181.0810  177.2560  138.7920 C   0  0  1  0  0  3  0  0  0  0  0  0
  181.7710  178.3160  139.6340 C   0  0  0  0  0  2  0  0  0  0  0  0
  184.0010  173.1810  136.9390 C   0  0  0  0  0  1  0  0  0  0  0  0
  184.5430  179.3630  138.8830 C   0  0  0  0  0  2  0  0  0  0  0  0
  184.4940  174.5040  137.4980 C   0  0  1  0  0  3  0  0  0  0  0  0
  183.0230  177.8520  140.0450 O   0  0  0  0  0  0  0  0  0  0  0  0
  184.9240  178.1380  138.0670 C   0  0  2  0  0  3  0  0  0  0  0  0
  184.3630  175.7170  135.4710 O   0  0  0  0  0  0  0  0  0  0  0  0
  186.8230  176.5650  137.7980 C   0  0  0  0  0  2  0  0  0  0  0  0
  179.0300  176.7890  137.4390 C   0  0  0  0  0  2  0  0  0  0  0  0
  179.6480  177.7080  138.4840 C   0  0  0  0  0  2  0  0  0  0  0  0
  186.4300  178.0470  137.9110 C   0  0  1  0  0  3  0  0  0  0  0  0
  185.5680  178.5750  136.7710 C   0  0  0  0  0  2  0  0  0  0  0  0
  185.0590  175.3880  136.4200 C   0  0  0  0  0  0  0  0  0  0  0  0
  188.9720  175.2040  136.3610 C   0  0  2  0  0  3  0  0  0  0  0  0
  189.4950  173.0020  137.2240 O   0  0  0  0  0  0  0  0  0  0  0  0
  187.1770  173.4830  136.9030 C   0  0  0  0  0  2  0  0  0  0  0  0
  189.9170  173.9860  136.3110 C   0  0  2  0  0  3  0  0  0  0  0  0
  187.5120  174.7660  136.1390 C   0  0  1  0  0  3  0  0  0  0  0  0
  188.3000  172.4700  136.7160 C   0  0  0  0  0  2  0  0  0  0  0  0
  189.3350  176.1210  135.3910 F   0  0  0  0  0  0  0  0  0  0  0  0
  191.5830  174.5100  137.9690 O   0  0  0  0  0  1  0  0  0  0  0  0
  192.3550  173.3310  136.0370 C   0  0  0  0  0  1  0  0  0  0  0  0
  191.3770  174.3530  136.5980 C   0  0  1  0  0  3  0  0  0  0  0  0
  184.7980  178.7800  141.3080 C   0  0  0  0  0  0  0  0  0  0  0  0
  185.9730  179.2110  141.1910 O   0  0  0  0  0  0  0  0  0  0  0  0
  184.3870  178.1760  142.4900 O   0  0  0  0  0  0  0  0  0  0  0  0
  185.1550  178.2540  143.6820 C   0  0  0  0  0  2  0  0  0  0  0  0
  184.3310  178.9040  144.7770 C   0  0  0  0  0  2  0  0  0  0  0  0
  182.8770  179.0030  144.3460 C   0  0  0  0  0  1  0  0  0  0  0  0
  1 32  1  1  0  0  0
  2  3  1  0  0  0  0
  2 17  1  0  0  0  0
  4  6  1  0  0  0  0
  4  7  1  0  0  0  0
  5 16  1  1  0  0  0
  6  3  1  6  0  0  0
  6  8  1  0  0  0  0
  8 18  1  6  0  0  0
  8  9  1  0  0  0  0
  9 13  1  0  0  0  0
 11  1  1  0  0  0  0
 12 10  1  6  0  0  0
 12  7  1  0  0  0  0
 13  1  1  0  0  0  0
 14 20  1  6  0  0  0
 14 11  1  0  0  0  0
 15 21  2  0  0  0  0
 16 19  1  0  0  0  0
 17 18  1  0  0  0  0
 19 20  1  6  0  0  0
 19 14  1  0  0  0  0
 21  5  1  0  0  0  0
 21 12  1  0  0  0  0
 22 28  1  6  0  0  0
 25 22  1  0  0  0  0
 25 31  1  1  0  0  0
 25 23  1  0  0  0  0
 26 22  1  0  0  0  0
 26  5  1  0  0  0  0
 26 24  1  1  0  0  0
 27 24  1  0  0  0  0
 27 23  1  0  0  0  0
 31 30  1  1  0  0  0
 31 29  1  0  0  0  0
 32 34  1  0  0  0  0
 33 32  2  0  0  0  0
 34 35  1  0  0  0  0
 35 36  1  0  0  0  0
 37 36  1  0  0  0  0
M  END
>  <MODEL>
7

>  <REMARK>
 VINA RESULT:      -5.0      5.021      8.546
  Name = 
  6 active torsions:
  status: ('A' for Active; 'I' for Inactive)
    1  A    between atoms: C_1  and  C_12
    2  A    between atoms: O_5  and  C_12
    3  A    between atoms: O_5  and  C_26
    4  A    between atoms: C_8  and  C_19
    5  A    between atoms: C_10  and  C_14
    6  A    between atoms: C_11  and  C_26
                            x       y       z     vdW  Elec       q    Type
                         _______ _______ _______ _____ _____    ______ ____

>  <TORSDO>
F 6

$$$$
=
 OpenBabel11052415373D

 37 40  0  0  1  0  0  0  0  0999 V2000
  181.9220  174.4390  135.5120 C   0  0  1  0  0  3  0  0  0  0  0  0
  186.8040  177.8860  136.6570 C   0  0  0  0  0  2  0  0  0  0  0  0
  185.3000  177.9110  136.3610 C   0  0  0  0  0  2  0  0  0  0  0  0
  184.6050  176.9170  138.4140 C   0  0  0  0  0  2  0  0  0  0  0  0
  180.5000  178.6620  138.7970 C   0  0  2  0  0  3  0  0  0  0  0  0
  184.5790  176.7780  136.9620 N   0  0  2  0  0  0  0  0  0  0  0  0
  183.3180  176.3600  139.0160 C   0  0  0  0  0  2  0  0  0  0  0  0
  185.1300  175.4550  136.5980 C   0  0  1  0  0  3  0  0  0  0  0  0
  184.1300  174.6880  135.7490 C   0  0  0  0  0  2  0  0  0  0  0  0
  183.3660  177.9240  140.9970 C   0  0  0  0  0  1  0  0  0  0  0  0
  181.3500  175.8250  135.1820 C   0  0  0  0  0  2  0  0  0  0  0  0
  182.5480  177.3940  139.8320 C   0  0  1  0  0  3  0  0  0  0  0  0
  182.9450  174.5020  136.4650 O   0  0  0  0  0  0  0  0  0  0  0  0
  181.3400  176.7440  136.3930 C   0  0  2  0  0  3  0  0  0  0  0  0
  182.7390  179.3200  138.4720 O   0  0  0  0  0  0  0  0  0  0  0  0
  179.8450  177.3800  138.2670 C   0  0  0  0  0  2  0  0  0  0  0  0
  187.4100  176.4810  136.5760 C   0  0  0  0  0  2  0  0  0  0  0  0
  186.4770  175.5100  135.8670 C   0  0  0  0  0  2  0  0  0  0  0  0
  179.9200  177.1420  136.7500 C   0  0  1  0  0  3  0  0  0  0  0  0
  180.8220  178.1060  135.9900 C   0  0  0  0  0  2  0  0  0  0  0  0
  181.9880  178.5090  138.9930 C   0  0  0  0  0  0  0  0  0  0  0  0
  180.2900  178.6080  141.3590 C   0  0  2  0  0  3  0  0  0  0  0  0
  180.0560  180.7720  142.4210 O   0  0  0  0  0  0  0  0  0  0  0  0
  179.8130  180.7340  140.0440 C   0  0  0  0  0  2  0  0  0  0  0  0
  179.7500  179.4060  142.5620 C   0  0  2  0  0  3  0  0  0  0  0  0
  179.7720  179.2040  140.0360 C   0  0  1  0  0  3  0  0  0  0  0  0
  179.2630  181.2530  141.3670 C   0  0  0  0  0  2  0  0  0  0  0  0
  179.8980  177.2840  141.4570 F   0  0  0  0  0  0  0  0  0  0  0  0
  179.6810  177.6970  144.2570 O   0  0  0  0  0  1  0  0  0  0  0  0
  181.8050  178.7340  143.8940 C   0  0  0  0  0  1  0  0  0  0  0  0
  180.2920  178.9000  143.9030 C   0  0  1  0  0  3  0  0  0  0  0  0
  180.8560  173.5000  135.9770 C   0  0  0  0  0  0  0  0  0  0  0  0
  179.9780  173.1160  135.1640 O   0  0  0  0  0  0  0  0  0  0  0  0
  180.8760  173.0040  137.2760 O   0  0  0  0  0  0  0  0  0  0  0  0
  179.6880  172.6260  137.9560 C   0  0  0  0  0  2  0  0  0  0  0  0
  179.1170  173.8260  138.6880 C   0  0  0  0  0  2  0  0  0  0  0  0
  180.0550  174.2480  139.8060 C   0  0  0  0  0  1  0  0  0  0  0  0
  1 32  1  1  0  0  0
  1 13  1  0  0  0  0
  3  2  1  0  0  0  0
  4  7  1  0  0  0  0
  5 16  1  1  0  0  0
  5 21  1  0  0  0  0
  5 26  1  0  0  0  0
  6  3  1  6  0  0  0
  6  4  1  0  0  0  0
  7 12  1  0  0  0  0
  8  9  1  6  0  0  0
  8  6  1  0  0  0  0
  9 13  1  0  0  0  0
 11  1  1  0  0  0  0
 12 10  1  1  0  0  0
 14 11  1  6  0  0  0
 14 19  1  0  0  0  0
 15 21  2  0  0  0  0
 17  2  1  0  0  0  0
 18 17  1  0  0  0  0
 18  8  1  0  0  0  0
 19 20  1  6  0  0  0
 19 16  1  0  0  0  0
 20 14  1  0  0  0  0
 21 12  1  0  0  0  0
 22 28  1  1  0  0  0
 22 25  1  0  0  0  0
 23 25  1  0  0  0  0
 24 27  1  0  0  0  0
 25 31  1  1  0  0  0
 26 24  1  1  0  0  0
 26 22  1  0  0  0  0
 27 23  1  0  0  0  0
 31 30  1  6  0  0  0
 31 29  1  0  0  0  0
 32 34  1  0  0  0  0
 33 32  2  0  0  0  0
 34 35  1  0  0  0  0
 35 36  1  0  0  0  0
 36 37  1  0  0  0  0
M  END
>  <MODEL>
8

>  <REMARK>
 VINA RESULT:      -4.8      7.072     10.978
  Name = 
  6 active torsions:
  status: ('A' for Active; 'I' for Inactive)
    1  A    between atoms: C_1  and  C_12
    2  A    between atoms: O_5  and  C_12
    3  A    between atoms: O_5  and  C_26
    4  A    between atoms: C_8  and  C_19
    5  A    between atoms: C_10  and  C_14
    6  A    between atoms: C_11  and  C_26
                            x       y       z     vdW  Elec       q    Type
                         _______ _______ _______ _____ _____    ______ ____

>  <TORSDO>
F 6

$$$$
=
 OpenBabel11052415373D

 37 40  0  0  1  0  0  0  0  0999 V2000
  182.7880  177.2080  140.6170 C   0  0  1  0  0  3  0  0  0  0  0  0
  180.7910  174.1210  135.7690 C   0  0  0  0  0  2  0  0  0  0  0  0
  180.3910  175.1080  136.8720 C   0  0  0  0  0  2  0  0  0  0  0  0
  181.7070  176.9360  136.0890 C   0  0  0  0  0  2  0  0  0  0  0  0
  179.3260  180.3750  137.6810 C   0  0  2  0  0  3  0  0  0  0  0  0
  181.4700  176.0460  137.2200 N   0  0  2  0  0  0  0  0  0  0  0  0
  182.1260  178.3150  136.5870 C   0  0  0  0  0  2  0  0  0  0  0  0
  182.7430  175.3880  137.5860 C   0  0  1  0  0  3  0  0  0  0  0  0
  183.0550  175.6350  139.0520 C   0  0  0  0  0  2  0  0  0  0  0  0
  181.1510  179.5200  134.5940 C   0  0  0  0  0  1  0  0  0  0  0  0
  181.2770  177.4480  140.7560 C   0  0  0  0  0  2  0  0  0  0  0  0
  181.1970  179.4280  136.1090 C   0  0  1  0  0  3  0  0  0  0  0  0
  183.1720  177.0080  139.2870 O   0  0  0  0  0  0  0  0  0  0  0  0
  180.7090  178.2150  139.5730 C   0  0  2  0  0  3  0  0  0  0  0  0
  179.0710  178.4270  136.3810 O   0  0  0  0  0  0  0  0  0  0  0  0
  180.2750  180.5540  138.8730 C   0  0  0  0  0  2  0  0  0  0  0  0
  182.2220  173.5970  135.9200 C   0  0  0  0  0  2  0  0  0  0  0  0
  182.7770  173.8800  137.3090 C   0  0  0  0  0  2  0  0  0  0  0  0
  180.1360  179.5450  140.0240 C   0  0  1  0  0  3  0  0  0  0  0  0
  179.2140  178.3660  139.7410 C   0  0  0  0  0  2  0  0  0  0  0  0
  179.8180  179.3390  136.7030 C   0  0  0  0  0  0  0  0  0  0  0  0
  179.8000  182.9000  137.5740 C   0  0  2  0  0  3  0  0  0  0  0  0
  179.9520  183.8270  135.3410 O   0  0  0  0  0  0  0  0  0  0  0  0
  179.0870  181.6060  135.5020 C   0  0  0  0  0  2  0  0  0  0  0  0
  179.6340  184.1420  136.6760 C   0  0  2  0  0  3  0  0  0  0  0  0
  178.9770  181.7200  137.0250 C   0  0  1  0  0  3  0  0  0  0  0  0
  178.9310  182.9860  134.8750 C   0  0  0  0  0  2  0  0  0  0  0  0
  179.3900  183.1930  138.8630 F   0  0  0  0  0  0  0  0  0  0  0  0
  179.8550  186.0180  138.1690 O   0  0  0  0  0  1  0  0  0  0  0  0
  181.8850  184.9050  137.5700 C   0  0  0  0  0  1  0  0  0  0  0  0
  180.4890  185.3280  137.1350 C   0  0  1  0  0  3  0  0  0  0  0  0
  183.5800  178.3300  141.2080 C   0  0  0  0  0  0  0  0  0  0  0  0
  184.0800  179.1960  140.4470 O   0  0  0  0  0  0  0  0  0  0  0  0
  183.7060  178.4500  142.5870 O   0  0  0  0  0  0  0  0  0  0  0  0
  184.9720  178.4630  143.2290 C   0  0  0  0  0  2  0  0  0  0  0  0
  184.8880  179.2800  144.5040 C   0  0  0  0  0  2  0  0  0  0  0  0
  185.2870  178.4270  145.6970 C   0  0  0  0  0  1  0  0  0  0  0  0
  1 11  1  0  0  0  0
  1 32  1  6  0  0  0
  2 17  1  0  0  0  0
  2  3  1  0  0  0  0
  3  6  1  0  0  0  0
  4  7  1  0  0  0  0
  5 16  1  1  0  0  0
  6  4  1  6  0  0  0
  6  8  1  0  0  0  0
  8 18  1  1  0  0  0
  8  9  1  0  0  0  0
  9 13  1  0  0  0  0
 12 10  1  6  0  0  0
 12  7  1  0  0  0  0
 12 21  1  0  0  0  0
 13  1  1  0  0  0  0
 14 20  1  1  0  0  0
 14 19  1  0  0  0  0
 14 11  1  0  0  0  0
 15 21  2  0  0  0  0
 17 18  1  0  0  0  0
 19 16  1  6  0  0  0
 20 19  1  0  0  0  0
 21  5  1  0  0  0  0
 22 28  1  1  0  0  0
 23 25  1  0  0  0  0
 25 31  1  1  0  0  0
 25 22  1  0  0  0  0
 26 24  1  6  0  0  0
 26 22  1  0  0  0  0
 26  5  1  0  0  0  0
 27 23  1  0  0  0  0
 27 24  1  0  0  0  0
 31 30  1  1  0  0  0
 31 29  1  0  0  0  0
 32 34  1  0  0  0  0
 33 32  2  0  0  0  0
 34 35  1  0  0  0  0
 35 36  1  0  0  0  0
 36 37  1  0  0  0  0
M  END
>  <MODEL>
9

>  <REMARK>
 VINA RESULT:      -4.7      7.355     11.096
  Name = 
  6 active torsions:
  status: ('A' for Active; 'I' for Inactive)
    1  A    between atoms: C_1  and  C_12
    2  A    between atoms: O_5  and  C_12
    3  A    between atoms: O_5  and  C_26
    4  A    between atoms: C_8  and  C_19
    5  A    between atoms: C_10  and  C_14
    6  A    between atoms: C_11  and  C_26
                            x       y       z     vdW  Elec       q    Type
                         _______ _______ _______ _____ _____    ______ ____

>  <TORSDO>
F 6

$$$$
