=
 OpenBabel11052415243D

 37 41  0  0  1  0  0  0  0  0999 V2000
  188.8170  178.4410  141.1050 C   0  0  0  0  0  2  0  0  0  0  0  0
  188.8900  177.8380  136.7470 C   0  0  2  0  0  3  0  0  0  0  0  0
  187.6320  177.9810  138.9190 C   0  0  2  0  0  3  0  0  0  0  0  0
  189.5310  176.4400  136.8490 C   0  0  1  0  0  3  0  0  0  0  0  0
  188.7860  178.5630  138.0970 C   0  0  0  0  0  2  0  0  0  0  0  0
  186.3360  178.0840  138.1670 C   0  0  0  0  0  3  0  0  0  0  0  0
  191.1800  176.0180  138.8000 C   0  0  1  0  0  3  0  0  0  0  0  0
  190.7150  176.8020  141.1110 C   0  0  0  0  0  2  0  0  0  0  0  0
  187.5480  177.8070  136.0560 C   0  0  0  0  0  0  0  0  0  0  0  0
  186.3040  177.9670  136.8340 C   0  0  0  0  0  3  0  0  0  0  0  0
  191.1930  177.2180  139.7270 C   0  0  1  0  0  3  0  0  0  0  0  0
  187.4820  177.6690  134.7400 C   0  0  0  0  0  2  0  0  0  0  0  0
  190.9880  176.5170  137.3630 C   0  0  1  0  0  3  0  0  0  0  0  0
  187.5250  178.6050  140.3070 C   0  0  0  0  0  2  0  0  0  0  0  0
  189.2060  176.9720  141.2350 C   0  0  0  0  0  2  0  0  0  0  0  0
  192.4890  176.5190  139.3870 C   0  0  0  0  0  2  0  0  0  0  0  0
  188.6430  175.4200  137.5760 C   0  0  0  0  0  2  0  0  0  0  0  0
  188.5740  173.4920  136.2790 C   0  0  0  0  0  1  0  0  0  0  0  0
  187.8220  174.6870  136.6250 N   0  0  0  0  0  0  0  0  0  0  0  0
  185.2790  174.7550  135.0350 C   0  0  0  0  0  2  0  0  0  0  0  0
  185.3770  174.5540  136.5310 C   0  0  1  0  0  3  0  0  0  0  0  0
  185.9400  173.1430  136.5710 C   0  0  2  0  0  3  0  0  0  0  0  0
  183.7380  172.1890  136.2300 C   0  0  0  0  0  3  0  0  0  0  0  0
  183.7730  172.6610  134.7800 C   0  0  0  0  0  2  0  0  0  0  0  0
  184.7610  172.3930  137.0850 C   0  0  0  0  0  3  0  0  0  0  0  0
  183.9140  174.1920  134.5970 C   0  0  0  0  0  2  0  0  0  0  0  0
  186.6300  174.2470  137.3390 C   0  0  1  0  0  3  0  0  0  0  0  0
  192.0150  175.9120  136.3980 C   0  0  2  0  0  3  0  0  0  0  0  0
  192.5230  173.4650  136.9080 C   0  0  0  0  0  1  0  0  0  0  0  0
  191.7070  174.4430  136.0770 C   0  0  0  0  0  3  0  0  0  0  0  0
  191.8980  174.1550  134.6010 C   0  0  0  0  0  1  0  0  0  0  0  0
  193.4670  176.1750  136.8100 C   0  0  0  0  0  2  0  0  0  0  0  0
  194.2880  176.6880  135.6400 C   0  0  0  0  0  2  0  0  0  0  0  0
  195.6760  176.0700  135.6620 C   0  0  0  0  0  2  0  0  0  0  0  0
  195.6530  174.7430  136.3980 C   0  0  0  0  0  2  0  0  0  0  0  0
  197.7520  175.6960  137.1460 N   0  0  0  0  0  1  0  0  0  0  0  0
  197.0080  174.4570  137.0170 C   0  0  0  0  0  2  0  0  0  0  0  0
  1 15  1  0  0  0  0
  2  4  1  0  0  0  0
  2  5  1  1  0  0  0
  3  5  1  6  0  0  0
  3 14  1  0  0  0  0
  4 13  1  0  0  0  0
  4 17  1  1  0  0  0
  6  3  1  0  0  0  0
  7 16  1  6  0  0  0
  7 11  1  0  0  0  0
  8 15  1  0  0  0  0
  9  2  1  0  0  0  0
  9 10  1  0  0  0  0
 10  6  2  0  0  0  0
 11 16  1  1  0  0  0
 11  8  1  0  0  0  0
 12  9  2  0  0  0  0
 13 28  1  6  0  0  0
 13  7  1  0  0  0  0
 14  1  1  0  0  0  0
 18 19  1  0  0  0  0
 19 17  1  0  0  0  0
 21 20  1  6  0  0  0
 21 22  1  0  0  0  0
 21 27  1  0  0  0  0
 22 25  1  1  0  0  0
 22 27  1  0  0  0  0
 23 25  2  0  0  0  0
 24 23  1  0  0  0  0
 26 24  1  0  0  0  0
 26 20  1  0  0  0  0
 27 19  1  6  0  0  0
 28 32  1  1  0  0  0
 30 28  1  0  0  0  0
 30 29  1  0  0  0  0
 31 30  1  0  0  0  0
 33 34  1  0  0  0  0
 33 32  1  0  0  0  0
 34 35  1  0  0  0  0
 35 37  1  0  0  0  0
 37 36  1  0  0  0  0
M  END
>  <MODEL>
1

>  <REMARK>
 VINA RESULT:      -5.2      0.000      0.000
  Name = 
  10 active torsions:
  status: ('A' for Active; 'I' for Inactive)
    1  A    between atoms: C_1  and  C_5
    2  A    between atoms: C_1  and  C_23
    3  A    between atoms: C_5  and  C_17
    4  A    between atoms: C_10  and  C_14
    5  A    between atoms: C_14  and  N_31
    6  A    between atoms: C_17  and  C_26
    7  A    between atoms: C_26  and  C_33
    8  A    between atoms: C_27  and  C_33
    9  A    between atoms: C_29  and  C_33
   10  A    between atoms: N_31  and  C_37
                            x       y       z     vdW  Elec       q    Type
                         _______ _______ _______ _____ _____    ______ ____

>  <TORSDO>
F 10

$$$$
=
 OpenBabel11052415243D

 37 41  0  0  1  0  0  0  0  0999 V2000
  193.7790  174.2530  135.3620 C   0  0  0  0  0  2  0  0  0  0  0  0
  189.8830  173.7020  137.3310 C   0  0  2  0  0  3  0  0  0  0  0  0
  191.3430  173.5810  135.2880 C   0  0  2  0  0  3  0  0  0  0  0  0
  189.6020  175.2150  137.4250 C   0  0  1  0  0  3  0  0  0  0  0  0
  191.2880  173.3720  136.8040 C   0  0  0  0  0  2  0  0  0  0  0  0
  190.3100  172.7380  134.5950 C   0  0  0  0  0  3  0  0  0  0  0  0
  191.6310  176.7900  137.7520 C   0  0  1  0  0  3  0  0  0  0  0  0
  193.7460  176.4950  136.4820 C   0  0  0  0  0  2  0  0  0  0  0  0
  188.8300  172.9700  136.5330 C   0  0  0  0  0  0  0  0  0  0  0  0
  189.1280  172.4880  135.1700 C   0  0  0  0  0  3  0  0  0  0  0  0
  192.9180  175.9940  137.6560 C   0  0  1  0  0  3  0  0  0  0  0  0
  187.6420  172.7280  137.0680 C   0  0  0  0  0  2  0  0  0  0  0  0
  190.5650  175.9120  138.4160 C   0  0  1  0  0  3  0  0  0  0  0  0
  192.7350  173.3460  134.7110 C   0  0  0  0  0  2  0  0  0  0  0  0
  193.4070  175.7230  135.2130 C   0  0  0  0  0  2  0  0  0  0  0  0
  192.7810  177.0750  138.7030 C   0  0  0  0  0  2  0  0  0  0  0  0
  189.4840  175.8940  136.0530 C   0  0  0  0  0  2  0  0  0  0  0  0
  188.3510  177.4530  134.7550 C   0  0  0  0  0  1  0  0  0  0  0  0
  188.2460  176.6490  135.9610 N   0  0  0  0  0  0  0  0  0  0  0  0
  185.6910  177.2190  137.4260 C   0  0  0  0  0  2  0  0  0  0  0  0
  186.0250  175.9300  136.7090 C   0  0  1  0  0  3  0  0  0  0  0  0
  185.9250  176.3980  135.2660 C   0  0  2  0  0  3  0  0  0  0  0  0
  183.5130  176.1690  135.2950 C   0  0  0  0  0  3  0  0  0  0  0  0
  183.4210  177.4010  136.1890 C   0  0  0  0  0  2  0  0  0  0  0  0
  184.6880  175.6920  134.8360 C   0  0  0  0  0  3  0  0  0  0  0  0
  184.1560  177.2780  137.5450 C   0  0  0  0  0  2  0  0  0  0  0  0
  187.1730  175.6870  135.7390 C   0  0  1  0  0  3  0  0  0  0  0  0
  189.8490  176.6370  139.5630 C   0  0  2  0  0  3  0  0  0  0  0  0
  189.3870  178.8080  138.3070 C   0  0  0  0  0  1  0  0  0  0  0  0
  188.7900  177.6220  139.0490 C   0  0  0  0  0  3  0  0  0  0  0  0
  187.9030  178.1080  140.1780 C   0  0  0  0  0  1  0  0  0  0  0  0
  190.8080  177.2280  140.6010 C   0  0  0  0  0  2  0  0  0  0  0  0
  190.5360  176.6680  141.9850 C   0  0  0  0  0  2  0  0  0  0  0  0
  191.1960  177.5370  143.0430 C   0  0  0  0  0  2  0  0  0  0  0  0
  190.1470  178.1570  143.9480 C   0  0  0  0  0  2  0  0  0  0  0  0
  188.4550  177.5650  145.5790 N   0  0  0  0  0  1  0  0  0  0  0  0
  189.1370  177.1110  144.3810 C   0  0  0  0  0  2  0  0  0  0  0  0
  2  5  1  6  0  0  0
  2  4  1  0  0  0  0
  3  6  1  6  0  0  0
  3  5  1  0  0  0  0
  4 17  1  6  0  0  0
  4 13  1  0  0  0  0
  6 10  2  0  0  0  0
  7 13  1  0  0  0  0
  7 16  1  1  0  0  0
  9 12  2  0  0  0  0
  9  2  1  0  0  0  0
 10  9  1  0  0  0  0
 11  8  1  6  0  0  0
 11  7  1  0  0  0  0
 11 16  1  0  0  0  0
 13 28  1  1  0  0  0
 14  3  1  0  0  0  0
 14  1  1  0  0  0  0
 15  1  1  0  0  0  0
 15  8  1  0  0  0  0
 18 19  1  0  0  0  0
 19 17  1  0  0  0  0
 20 26  1  0  0  0  0
 21 20  1  1  0  0  0
 22 25  1  6  0  0  0
 22 27  1  0  0  0  0
 22 21  1  0  0  0  0
 23 24  1  0  0  0  0
 24 26  1  0  0  0  0
 25 23  2  0  0  0  0
 27 19  1  1  0  0  0
 27 21  1  0  0  0  0
 28 32  1  6  0  0  0
 29 30  1  0  0  0  0
 30 28  1  0  0  0  0
 30 31  1  0  0  0  0
 32 33  1  0  0  0  0
 33 34  1  0  0  0  0
 34 35  1  0  0  0  0
 35 37  1  0  0  0  0
 37 36  1  0  0  0  0
M  END
>  <MODEL>
2

>  <REMARK>
 VINA RESULT:      -5.0      2.305      5.997
  Name = 
  10 active torsions:
  status: ('A' for Active; 'I' for Inactive)
    1  A    between atoms: C_1  and  C_5
    2  A    between atoms: C_1  and  C_23
    3  A    between atoms: C_5  and  C_17
    4  A    between atoms: C_10  and  C_14
    5  A    between atoms: C_14  and  N_31
    6  A    between atoms: C_17  and  C_26
    7  A    between atoms: C_26  and  C_33
    8  A    between atoms: C_27  and  C_33
    9  A    between atoms: C_29  and  C_33
   10  A    between atoms: N_31  and  C_37
                            x       y       z     vdW  Elec       q    Type
                         _______ _______ _______ _____ _____    ______ ____

>  <TORSDO>
F 10

$$$$
=
 OpenBabel11052415243D

 37 41  0  0  1  0  0  0  0  0999 V2000
  181.6820  179.4620  140.7870 C   0  0  0  0  0  2  0  0  0  0  0  0
  182.4490  178.2000  136.6420 C   0  0  2  0  0  3  0  0  0  0  0  0
  180.9760  178.2580  138.6780 C   0  0  2  0  0  3  0  0  0  0  0  0
  183.5030  177.1510  137.0480 C   0  0  1  0  0  3  0  0  0  0  0  0
  181.9560  179.0590  137.8160 C   0  0  0  0  0  2  0  0  0  0  0  0
  179.8150  177.7730  137.8570 C   0  0  0  0  0  3  0  0  0  0  0  0
  184.9650  177.6660  139.1230 C   0  0  1  0  0  3  0  0  0  0  0  0
  184.0040  178.6140  141.2080 C   0  0  0  0  0  2  0  0  0  0  0  0
  181.2830  177.5860  135.9050 C   0  0  0  0  0  0  0  0  0  0  0  0
  179.9760  177.4300  136.5740 C   0  0  0  0  0  3  0  0  0  0  0  0
  184.4700  178.9320  139.7960 C   0  0  1  0  0  3  0  0  0  0  0  0
  181.4180  177.2150  134.6400 C   0  0  0  0  0  2  0  0  0  0  0  0
  184.7820  177.8170  137.6090 C   0  0  1  0  0  3  0  0  0  0  0  0
  180.5090  179.0280  139.9090 C   0  0  0  0  0  2  0  0  0  0  0  0
  182.5200  178.2650  141.2220 C   0  0  0  0  0  2  0  0  0  0  0  0
  185.9550  178.6830  139.6640 C   0  0  0  0  0  2  0  0  0  0  0  0
  182.9290  176.0230  137.9170 C   0  0  0  0  0  2  0  0  0  0  0  0
  183.8140  173.9620  137.3060 C   0  0  0  0  0  1  0  0  0  0  0  0
  182.6720  174.8390  137.1130 N   0  0  0  0  0  0  0  0  0  0  0  0
  180.6450  173.8280  135.1460 C   0  0  0  0  0  2  0  0  0  0  0  0
  180.4490  173.9200  136.6430 C   0  0  1  0  0  3  0  0  0  0  0  0
  181.3560  172.7900  137.0990 C   0  0  2  0  0  3  0  0  0  0  0  0
  179.6450  171.1410  136.6200 C   0  0  0  0  0  3  0  0  0  0  0  0
  179.8800  171.3510  135.1280 C   0  0  0  0  0  2  0  0  0  0  0  0
  180.3470  171.8000  137.5650 C   0  0  0  0  0  3  0  0  0  0  0  0
  179.6290  172.7930  134.6250 C   0  0  0  0  0  2  0  0  0  0  0  0
  181.5170  174.1680  137.6980 C   0  0  1  0  0  3  0  0  0  0  0  0
  186.0560  177.4560  136.8340 C   0  0  2  0  0  3  0  0  0  0  0  0
  185.9670  176.0230  134.7260 C   0  0  0  0  0  1  0  0  0  0  0  0
  185.8150  177.4160  135.3180 C   0  0  0  0  0  3  0  0  0  0  0  0
  186.7230  178.3900  134.5940 C   0  0  0  0  0  1  0  0  0  0  0  0
  186.7790  176.2260  137.3900 C   0  0  0  0  0  2  0  0  0  0  0  0
  188.2760  176.4620  137.4850 C   0  0  0  0  0  2  0  0  0  0  0  0
  188.5620  177.9420  137.6850 C   0  0  0  0  0  2  0  0  0  0  0  0
  189.3840  178.1560  138.9430 C   0  0  0  0  0  2  0  0  0  0  0  0
  190.3780  176.4660  140.3680 N   0  0  0  0  0  1  0  0  0  0  0  0
  190.4580  177.0910  139.0610 C   0  0  0  0  0  2  0  0  0  0  0  0
  1 15  1  0  0  0  0
  2  4  1  0  0  0  0
  2  5  1  1  0  0  0
  3  5  1  6  0  0  0
  3 14  1  0  0  0  0
  4 13  1  0  0  0  0
  4 17  1  1  0  0  0
  6  3  1  0  0  0  0
  7 16  1  6  0  0  0
  7 11  1  0  0  0  0
  8 15  1  0  0  0  0
  9 10  1  0  0  0  0
  9  2  1  0  0  0  0
 10  6  2  0  0  0  0
 11 16  1  1  0  0  0
 11  8  1  0  0  0  0
 12  9  2  0  0  0  0
 13 28  1  6  0  0  0
 13  7  1  0  0  0  0
 14  1  1  0  0  0  0
 19 18  1  0  0  0  0
 19 17  1  0  0  0  0
 21 20  1  6  0  0  0
 21 22  1  0  0  0  0
 21 27  1  0  0  0  0
 22 25  1  1  0  0  0
 22 27  1  0  0  0  0
 23 25  2  0  0  0  0
 24 23  1  0  0  0  0
 26 24  1  0  0  0  0
 26 20  1  0  0  0  0
 27 19  1  6  0  0  0
 28 32  1  1  0  0  0
 29 30  1  0  0  0  0
 30 28  1  0  0  0  0
 31 30  1  0  0  0  0
 32 33  1  0  0  0  0
 33 34  1  0  0  0  0
 34 35  1  0  0  0  0
 35 37  1  0  0  0  0
 37 36  1  0  0  0  0
M  END
>  <MODEL>
3

>  <REMARK>
 VINA RESULT:      -4.9      3.623      6.277
  Name = 
  10 active torsions:
  status: ('A' for Active; 'I' for Inactive)
    1  A    between atoms: C_1  and  C_5
    2  A    between atoms: C_1  and  C_23
    3  A    between atoms: C_5  and  C_17
    4  A    between atoms: C_10  and  C_14
    5  A    between atoms: C_14  and  N_31
    6  A    between atoms: C_17  and  C_26
    7  A    between atoms: C_26  and  C_33
    8  A    between atoms: C_27  and  C_33
    9  A    between atoms: C_29  and  C_33
   10  A    between atoms: N_31  and  C_37
                            x       y       z     vdW  Elec       q    Type
                         _______ _______ _______ _____ _____    ______ ____

>  <TORSDO>
F 10

$$$$
=
 OpenBabel11052415243D

 37 41  0  0  1  0  0  0  0  0999 V2000
  179.6780  180.9010  136.3160 C   0  0  0  0  0  2  0  0  0  0  0  0
  181.6160  177.7320  138.6730 C   0  0  2  0  0  3  0  0  0  0  0  0
  181.5880  180.0690  137.7480 C   0  0  2  0  0  3  0  0  0  0  0  0
  182.0120  176.9090  137.4310 C   0  0  1  0  0  3  0  0  0  0  0  0
  180.7350  178.9470  138.3470 C   0  0  0  0  0  2  0  0  0  0  0  0
  182.6940  180.4590  138.6880 C   0  0  0  0  0  3  0  0  0  0  0  0
  180.4190  176.9820  135.3910 C   0  0  1  0  0  3  0  0  0  0  0  0
  179.3950  179.1010  134.5950 C   0  0  0  0  0  2  0  0  0  0  0  0
  182.8150  178.1480  139.4920 C   0  0  0  0  0  0  0  0  0  0  0  0
  183.2820  179.5480  139.4720 C   0  0  0  0  0  3  0  0  0  0  0  0
  179.3180  177.9950  135.6370 C   0  0  1  0  0  3  0  0  0  0  0  0
  183.4320  177.2630  140.2610 C   0  0  0  0  0  2  0  0  0  0  0  0
  180.7720  176.3130  136.7240 C   0  0  1  0  0  3  0  0  0  0  0  0
  180.7590  181.2780  137.3280 C   0  0  0  0  0  2  0  0  0  0  0  0
  180.2800  180.2410  135.0810 C   0  0  0  0  0  2  0  0  0  0  0  0
  178.9890  176.6750  134.9800 C   0  0  0  0  0  2  0  0  0  0  0  0
  182.9910  177.6450  136.5060 C   0  0  0  0  0  2  0  0  0  0  0  0
  184.3790  176.7870  134.8500 C   0  0  0  0  0  1  0  0  0  0  0  0
  184.1880  176.8490  136.2890 N   0  0  0  0  0  0  0  0  0  0  0  0
  186.6260  175.2290  136.9430 C   0  0  0  0  0  2  0  0  0  0  0  0
  186.3860  176.6640  137.3560 C   0  0  1  0  0  3  0  0  0  0  0  0
  186.5540  177.3560  136.0140 C   0  0  2  0  0  3  0  0  0  0  0  0
  188.9680  177.3260  136.2300 C   0  0  0  0  0  3  0  0  0  0  0  0
  188.9580  175.8220  135.9770 C   0  0  0  0  0  2  0  0  0  0  0  0
  187.8420  178.0690  136.2330 C   0  0  0  0  0  3  0  0  0  0  0  0
  188.1480  174.9950  137.0050 C   0  0  0  0  0  2  0  0  0  0  0  0
  185.3090  177.6040  136.8350 C   0  0  1  0  0  3  0  0  0  0  0  0
  180.8000  174.7830  136.6140 C   0  0  2  0  0  3  0  0  0  0  0  0
  178.9310  175.0300  138.3310 C   0  0  0  0  0  1  0  0  0  0  0  0
  179.5810  174.1360  137.2860 C   0  0  0  0  0  3  0  0  0  0  0  0
  179.9410  172.7970  137.8990 C   0  0  0  0  0  1  0  0  0  0  0  0
  182.1430  174.1680  137.0190 C   0  0  0  0  0  2  0  0  0  0  0  0
  182.8420  173.5360  135.8290 C   0  0  0  0  0  2  0  0  0  0  0  0
  183.9510  172.6110  136.3020 C   0  0  0  0  0  2  0  0  0  0  0  0
  183.3650  171.3770  136.9630 C   0  0  0  0  0  2  0  0  0  0  0  0
  184.7530  170.2170  135.3500 N   0  0  0  0  0  1  0  0  0  0  0  0
  183.4770  170.1780  136.0410 C   0  0  0  0  0  2  0  0  0  0  0  0
  1 14  1  0  0  0  0
  2  5  1  6  0  0  0
  2  9  1  0  0  0  0
  3 14  1  1  0  0  0
  3  5  1  0  0  0  0
  3  6  1  0  0  0  0
  4 17  1  6  0  0  0
  4  2  1  0  0  0  0
  6 10  2  0  0  0  0
  7 16  1  6  0  0  0
  7 11  1  0  0  0  0
  7 13  1  0  0  0  0
  8 15  1  0  0  0  0
  9 12  2  0  0  0  0
 10  9  1  0  0  0  0
 11  8  1  6  0  0  0
 13 28  1  6  0  0  0
 13  4  1  0  0  0  0
 15  1  1  0  0  0  0
 16 11  1  0  0  0  0
 18 19  1  0  0  0  0
 19 17  1  0  0  0  0
 20 26  1  0  0  0  0
 21 20  1  6  0  0  0
 22 25  1  1  0  0  0
 22 27  1  0  0  0  0
 22 21  1  0  0  0  0
 23 25  2  0  0  0  0
 24 23  1  0  0  0  0
 24 26  1  0  0  0  0
 27 19  1  6  0  0  0
 27 21  1  0  0  0  0
 28 32  1  1  0  0  0
 28 30  1  0  0  0  0
 30 31  1  0  0  0  0
 30 29  1  0  0  0  0
 33 34  1  0  0  0  0
 33 32  1  0  0  0  0
 34 35  1  0  0  0  0
 36 37  1  0  0  0  0
 37 35  1  0  0  0  0
M  END
>  <MODEL>
4

>  <REMARK>
 VINA RESULT:      -4.8      4.200      9.461
  Name = 
  10 active torsions:
  status: ('A' for Active; 'I' for Inactive)
    1  A    between atoms: C_1  and  C_5
    2  A    between atoms: C_1  and  C_23
    3  A    between atoms: C_5  and  C_17
    4  A    between atoms: C_10  and  C_14
    5  A    between atoms: C_14  and  N_31
    6  A    between atoms: C_17  and  C_26
    7  A    between atoms: C_26  and  C_33
    8  A    between atoms: C_27  and  C_33
    9  A    between atoms: C_29  and  C_33
   10  A    between atoms: N_31  and  C_37
                            x       y       z     vdW  Elec       q    Type
                         _______ _______ _______ _____ _____    ______ ____

>  <TORSDO>
F 10

$$$$
=
 OpenBabel11052415243D

 37 41  0  0  1  0  0  0  0  0999 V2000
  181.5070  179.4990  142.3850 C   0  0  0  0  0  2  0  0  0  0  0  0
  182.6670  179.0870  138.1600 C   0  0  2  0  0  3  0  0  0  0  0  0
  181.0210  178.7280  140.0260 C   0  0  2  0  0  3  0  0  0  0  0  0
  183.7100  177.9890  138.4490 C   0  0  1  0  0  3  0  0  0  0  0  0
  182.0500  179.6930  139.4300 C   0  0  0  0  0  2  0  0  0  0  0  0
  179.9500  178.4040  139.0240 C   0  0  0  0  0  3  0  0  0  0  0  0
  184.9700  178.0990  140.7080 C   0  0  1  0  0  3  0  0  0  0  0  0
  183.8050  178.6080  142.8420 C   0  0  0  0  0  2  0  0  0  0  0  0
  181.5870  178.6200  137.2150 C   0  0  0  0  0  0  0  0  0  0  0  0
  180.2320  178.3220  137.7190 C   0  0  0  0  0  3  0  0  0  0  0  0
  184.3850  179.2030  141.5680 C   0  0  1  0  0  3  0  0  0  0  0  0
  181.8420  178.5070  135.9200 C   0  0  0  0  0  2  0  0  0  0  0  0
  184.9170  178.5440  139.2430 C   0  0  1  0  0  3  0  0  0  0  0  0
  180.4270  179.2360  141.3360 C   0  0  0  0  0  2  0  0  0  0  0  0
  182.3370  178.2490  142.6520 C   0  0  0  0  0  2  0  0  0  0  0  0
  185.8810  178.9990  141.5260 C   0  0  0  0  0  2  0  0  0  0  0  0
  183.0940  176.7060  139.0240 C   0  0  0  0  0  2  0  0  0  0  0  0
  183.8660  174.7790  137.9790 C   0  0  0  0  0  1  0  0  0  0  0  0
  182.7950  175.7610  137.9610 N   0  0  0  0  0  0  0  0  0  0  0  0
  181.0050  174.9830  135.6830 C   0  0  0  0  0  2  0  0  0  0  0  0
  180.6340  174.9390  137.1480 C   0  0  1  0  0  3  0  0  0  0  0  0
  181.4680  173.7510  137.5960 C   0  0  2  0  0  3  0  0  0  0  0  0
  179.8090  172.1920  136.7650 C   0  0  0  0  0  3  0  0  0  0  0  0
  180.2210  172.5370  135.3380 C   0  0  0  0  0  2  0  0  0  0  0  0
  180.4010  172.7450  137.8440 C   0  0  0  0  0  3  0  0  0  0  0  0
  180.0460  174.0250  134.9500 C   0  0  0  0  0  2  0  0  0  0  0  0
  181.5720  175.0630  138.3400 C   0  0  1  0  0  3  0  0  0  0  0  0
  186.2630  178.3550  138.5310 C   0  0  2  0  0  3  0  0  0  0  0  0
  186.6880  176.2370  137.1760 C   0  0  0  0  0  1  0  0  0  0  0  0
  186.1040  177.6410  137.1820 C   0  0  0  0  0  3  0  0  0  0  0  0
  186.7080  178.4580  136.0570 C   0  0  0  0  0  1  0  0  0  0  0  0
  187.3510  177.7640  139.4330 C   0  0  0  0  0  2  0  0  0  0  0  0
  188.6800  178.4690  139.2280 C   0  0  0  0  0  2  0  0  0  0  0  0
  189.8290  177.5230  139.5380 C   0  0  0  0  0  2  0  0  0  0  0  0
  189.6170  176.8570  140.8850 C   0  0  0  0  0  2  0  0  0  0  0  0
  189.5900  178.1400  142.9410 N   0  0  0  0  0  1  0  0  0  0  0  0
  190.4590  177.5340  141.9490 C   0  0  0  0  0  2  0  0  0  0  0  0
  1 15  1  0  0  0  0
  2  4  1  0  0  0  0
  2  5  1  1  0  0  0
  3  6  1  6  0  0  0
  3 14  1  0  0  0  0
  4 17  1  1  0  0  0
  4 13  1  0  0  0  0
  5  3  1  0  0  0  0
  7 16  1  1  0  0  0
  7 11  1  0  0  0  0
  9 10  1  0  0  0  0
  9  2  1  0  0  0  0
 10  6  2  0  0  0  0
 11 16  1  1  0  0  0
 11  8  1  0  0  0  0
 12  9  2  0  0  0  0
 13 28  1  6  0  0  0
 13  7  1  0  0  0  0
 14  1  1  0  0  0  0
 15  8  1  0  0  0  0
 19 18  1  0  0  0  0
 19 17  1  0  0  0  0
 21 20  1  6  0  0  0
 21 22  1  0  0  0  0
 21 27  1  0  0  0  0
 22 25  1  1  0  0  0
 22 27  1  0  0  0  0
 23 25  2  0  0  0  0
 24 23  1  0  0  0  0
 26 24  1  0  0  0  0
 26 20  1  0  0  0  0
 27 19  1  6  0  0  0
 28 32  1  1  0  0  0
 29 30  1  0  0  0  0
 30 28  1  0  0  0  0
 31 30  1  0  0  0  0
 33 32  1  0  0  0  0
 33 34  1  0  0  0  0
 34 35  1  0  0  0  0
 35 37  1  0  0  0  0
 37 36  1  0  0  0  0
M  END
>  <MODEL>
5

>  <REMARK>
 VINA RESULT:      -4.6      4.042      6.465
  Name = 
  10 active torsions:
  status: ('A' for Active; 'I' for Inactive)
    1  A    between atoms: C_1  and  C_5
    2  A    between atoms: C_1  and  C_23
    3  A    between atoms: C_5  and  C_17
    4  A    between atoms: C_10  and  C_14
    5  A    between atoms: C_14  and  N_31
    6  A    between atoms: C_17  and  C_26
    7  A    between atoms: C_26  and  C_33
    8  A    between atoms: C_27  and  C_33
    9  A    between atoms: C_29  and  C_33
   10  A    between atoms: N_31  and  C_37
                            x       y       z     vdW  Elec       q    Type
                         _______ _______ _______ _____ _____    ______ ____

>  <TORSDO>
F 10

$$$$
=
 OpenBabel11052415243D

 37 41  0  0  1  0  0  0  0  0999 V2000
  181.0300  179.6540  140.8960 C   0  0  0  0  0  2  0  0  0  0  0  0
  182.3840  178.3180  136.9280 C   0  0  2  0  0  3  0  0  0  0  0  0
  180.6070  178.4740  138.7000 C   0  0  2  0  0  3  0  0  0  0  0  0
  183.2980  177.2160  137.4990 C   0  0  1  0  0  3  0  0  0  0  0  0
  181.7560  179.2130  138.0080 C   0  0  0  0  0  2  0  0  0  0  0  0
  179.5680  178.0490  137.7010 C   0  0  0  0  0  3  0  0  0  0  0  0
  184.4320  177.6660  139.7830 C   0  0  1  0  0  3  0  0  0  0  0  0
  183.2020  178.6830  141.6860 C   0  0  0  0  0  2  0  0  0  0  0  0
  181.3190  177.7640  136.0120 C   0  0  0  0  0  0  0  0  0  0  0  0
  179.9150  177.6870  136.4610 C   0  0  0  0  0  3  0  0  0  0  0  0
  183.9080  178.9630  140.3680 C   0  0  1  0  0  3  0  0  0  0  0  0
  181.6350  177.3770  134.7850 C   0  0  0  0  0  2  0  0  0  0  0  0
  184.5050  177.8150  138.2590 C   0  0  1  0  0  3  0  0  0  0  0  0
  179.9920  179.2800  139.8400 C   0  0  0  0  0  2  0  0  0  0  0  0
  181.7190  178.4170  141.4600 C   0  0  0  0  0  2  0  0  0  0  0  0
  185.3780  178.6310  140.4770 C   0  0  0  0  0  2  0  0  0  0  0  0
  182.5290  176.1290  138.2620 C   0  0  0  0  0  2  0  0  0  0  0  0
  183.5060  174.0720  137.7950 C   0  0  0  0  0  1  0  0  0  0  0  0
  182.3890  174.9330  137.4470 N   0  0  0  0  0  0  0  0  0  0  0  0
  180.5860  173.9770  135.2480 C   0  0  0  0  0  2  0  0  0  0  0  0
  180.2280  174.0360  136.7160 C   0  0  1  0  0  3  0  0  0  0  0  0
  181.0770  172.8910  137.2420 C   0  0  2  0  0  3  0  0  0  0  0  0
  179.4250  171.2620  136.5420 C   0  0  0  0  0  3  0  0  0  0  0  0
  179.8210  171.5050  135.0900 C   0  0  0  0  0  2  0  0  0  0  0  0
  180.0210  171.8970  137.5730 C   0  0  0  0  0  3  0  0  0  0  0  0
  179.6290  172.9590  134.5960 C   0  0  0  0  0  2  0  0  0  0  0  0
  181.1760  174.2550  137.8870 C   0  0  1  0  0  3  0  0  0  0  0  0
  185.8650  177.3770  137.6990 C   0  0  2  0  0  3  0  0  0  0  0  0
  187.4420  178.9590  136.4680 C   0  0  0  0  0  1  0  0  0  0  0  0
  186.9190  178.4880  137.8160 C   0  0  0  0  0  3  0  0  0  0  0  0
  188.0730  178.0540  138.6980 C   0  0  0  0  0  1  0  0  0  0  0  0
  185.7750  176.7380  136.3100 C   0  0  0  0  0  2  0  0  0  0  0  0
  186.3360  175.3270  136.3160 C   0  0  0  0  0  2  0  0  0  0  0  0
  187.8200  175.3510  135.9860 C   0  0  0  0  0  2  0  0  0  0  0  0
  188.5710  174.3610  136.8560 C   0  0  0  0  0  2  0  0  0  0  0  0
  190.6260  175.0370  137.9480 N   0  0  0  0  0  1  0  0  0  0  0  0
  190.0680  174.5490  136.7010 C   0  0  0  0  0  2  0  0  0  0  0  0
  1 15  1  0  0  0  0
  2  4  1  0  0  0  0
  2  5  1  1  0  0  0
  3  6  1  6  0  0  0
  3 14  1  0  0  0  0
  4 13  1  0  0  0  0
  4 17  1  1  0  0  0
  5  3  1  0  0  0  0
  7 11  1  0  0  0  0
  7 16  1  1  0  0  0
  9 10  1  0  0  0  0
  9  2  1  0  0  0  0
 10  6  2  0  0  0  0
 11 16  1  1  0  0  0
 11  8  1  0  0  0  0
 12  9  2  0  0  0  0
 13 28  1  6  0  0  0
 13  7  1  0  0  0  0
 14  1  1  0  0  0  0
 15  8  1  0  0  0  0
 19 18  1  0  0  0  0
 19 17  1  0  0  0  0
 21 20  1  6  0  0  0
 21 22  1  0  0  0  0
 21 27  1  0  0  0  0
 22 25  1  1  0  0  0
 22 27  1  0  0  0  0
 23 25  2  0  0  0  0
 24 23  1  0  0  0  0
 26 24  1  0  0  0  0
 26 20  1  0  0  0  0
 27 19  1  6  0  0  0
 28 32  1  6  0  0  0
 28 30  1  0  0  0  0
 29 30  1  0  0  0  0
 30 31  1  0  0  0  0
 32 33  1  0  0  0  0
 34 33  1  0  0  0  0
 34 35  1  0  0  0  0
 37 35  1  0  0  0  0
 37 36  1  0  0  0  0
M  END
>  <MODEL>
6

>  <REMARK>
 VINA RESULT:      -4.5      3.843      6.559
  Name = 
  10 active torsions:
  status: ('A' for Active; 'I' for Inactive)
    1  A    between atoms: C_1  and  C_5
    2  A    between atoms: C_1  and  C_23
    3  A    between atoms: C_5  and  C_17
    4  A    between atoms: C_10  and  C_14
    5  A    between atoms: C_14  and  N_31
    6  A    between atoms: C_17  and  C_26
    7  A    between atoms: C_26  and  C_33
    8  A    between atoms: C_27  and  C_33
    9  A    between atoms: C_29  and  C_33
   10  A    between atoms: N_31  and  C_37
                            x       y       z     vdW  Elec       q    Type
                         _______ _______ _______ _____ _____    ______ ____

>  <TORSDO>
F 10

$$$$
=
 OpenBabel11052415243D

 37 41  0  0  1  0  0  0  0  0999 V2000
  181.3520  178.9460  140.5590 C   0  0  0  0  0  2  0  0  0  0  0  0
  183.6880  178.3350  136.8800 C   0  0  2  0  0  3  0  0  0  0  0  0
  181.6410  177.9020  138.2740 C   0  0  2  0  0  3  0  0  0  0  0  0
  184.7320  177.4360  137.5710 C   0  0  1  0  0  3  0  0  0  0  0  0
  182.6720  178.9530  137.8530 C   0  0  0  0  0  2  0  0  0  0  0  0
  180.9390  177.3330  137.0740 C   0  0  0  0  0  3  0  0  0  0  0  0
  185.2870  177.9360  140.0510 C   0  0  1  0  0  3  0  0  0  0  0  0
  183.5200  178.4540  141.7180 C   0  0  0  0  0  2  0  0  0  0  0  0
  182.9780  177.6280  135.7500 C   0  0  0  0  0  0  0  0  0  0  0  0
  181.5820  177.1770  135.9110 C   0  0  0  0  0  3  0  0  0  0  0  0
  184.3570  179.0120  140.5760 C   0  0  1  0  0  3  0  0  0  0  0  0
  183.5970  177.4390  134.5940 C   0  0  0  0  0  2  0  0  0  0  0  0
  185.5930  178.2340  138.5790 C   0  0  1  0  0  3  0  0  0  0  0  0
  180.6480  178.4320  139.3040 C   0  0  0  0  0  2  0  0  0  0  0  0
  182.2170  177.8640  141.1930 C   0  0  0  0  0  2  0  0  0  0  0  0
  185.8190  179.0320  140.9580 C   0  0  0  0  0  2  0  0  0  0  0  0
  184.1370  176.1320  138.1220 C   0  0  0  0  0  2  0  0  0  0  0  0
  185.7180  174.7190  137.1700 C   0  0  0  0  0  1  0  0  0  0  0  0
  184.3030  175.0500  137.1650 N   0  0  0  0  0  0  0  0  0  0  0  0
  182.3910  173.7310  135.2670 C   0  0  0  0  0  2  0  0  0  0  0  0
  182.4840  173.4600  136.7520 C   0  0  1  0  0  3  0  0  0  0  0  0
  183.7970  172.6960  136.7990 C   0  0  2  0  0  3  0  0  0  0  0  0
  182.6960  170.6420  136.1350 C   0  0  0  0  0  3  0  0  0  0  0  0
  182.5350  171.2000  134.7250 C   0  0  0  0  0  2  0  0  0  0  0  0
  183.3060  171.3290  137.1230 C   0  0  0  0  0  3  0  0  0  0  0  0
  181.7070  172.5050  134.6320 C   0  0  0  0  0  2  0  0  0  0  0  0
  183.5940  173.8940  137.6990 C   0  0  1  0  0  3  0  0  0  0  0  0
  187.0970  178.1860  138.2780 C   0  0  2  0  0  3  0  0  0  0  0  0
  188.7410  177.5010  136.4530 C   0  0  0  0  0  1  0  0  0  0  0  0
  187.3790  178.1000  136.7720 C   0  0  0  0  0  3  0  0  0  0  0  0
  187.2420  179.4570  136.1120 C   0  0  0  0  0  1  0  0  0  0  0  0
  187.8540  177.1560  139.1220 C   0  0  0  0  0  2  0  0  0  0  0  0
  189.1460  177.7340  139.6700 C   0  0  0  0  0  2  0  0  0  0  0  0
  189.4600  177.1240  141.0270 C   0  0  0  0  0  2  0  0  0  0  0  0
  189.1820  178.1250  142.1340 C   0  0  0  0  0  2  0  0  0  0  0  0
  189.4690  177.8640  144.5260 N   0  0  0  0  0  1  0  0  0  0  0  0
  190.1800  177.9540  143.2640 C   0  0  0  0  0  2  0  0  0  0  0  0
  1 15  1  0  0  0  0
  2  4  1  0  0  0  0
  2  5  1  1  0  0  0
  3  6  1  6  0  0  0
  3 14  1  0  0  0  0
  4 17  1  1  0  0  0
  4 13  1  0  0  0  0
  5  3  1  0  0  0  0
  7 11  1  0  0  0  0
  7 16  1  1  0  0  0
  9 10  1  0  0  0  0
  9  2  1  0  0  0  0
 10  6  2  0  0  0  0
 11 16  1  1  0  0  0
 11  8  1  0  0  0  0
 12  9  2  0  0  0  0
 13 28  1  6  0  0  0
 13  7  1  0  0  0  0
 14  1  1  0  0  0  0
 15  8  1  0  0  0  0
 19 18  1  0  0  0  0
 19 17  1  0  0  0  0
 21 20  1  6  0  0  0
 21 22  1  0  0  0  0
 21 27  1  0  0  0  0
 22 25  1  1  0  0  0
 22 27  1  0  0  0  0
 23 25  2  0  0  0  0
 24 23  1  0  0  0  0
 26 24  1  0  0  0  0
 26 20  1  0  0  0  0
 27 19  1  6  0  0  0
 28 32  1  1  0  0  0
 29 30  1  0  0  0  0
 30 28  1  0  0  0  0
 31 30  1  0  0  0  0
 32 33  1  0  0  0  0
 33 34  1  0  0  0  0
 34 35  1  0  0  0  0
 35 37  1  0  0  0  0
 37 36  1  0  0  0  0
M  END
>  <MODEL>
7

>  <REMARK>
 VINA RESULT:      -4.2      3.862      5.949
  Name = 
  10 active torsions:
  status: ('A' for Active; 'I' for Inactive)
    1  A    between atoms: C_1  and  C_5
    2  A    between atoms: C_1  and  C_23
    3  A    between atoms: C_5  and  C_17
    4  A    between atoms: C_10  and  C_14
    5  A    between atoms: C_14  and  N_31
    6  A    between atoms: C_17  and  C_26
    7  A    between atoms: C_26  and  C_33
    8  A    between atoms: C_27  and  C_33
    9  A    between atoms: C_29  and  C_33
   10  A    between atoms: N_31  and  C_37
                            x       y       z     vdW  Elec       q    Type
                         _______ _______ _______ _____ _____    ______ ____

>  <TORSDO>
F 10

$$$$
=
 OpenBabel11052415243D

 37 41  0  0  1  0  0  0  0  0999 V2000
  183.4360  178.6540  143.9800 C   0  0  0  0  0  2  0  0  0  0  0  0
  182.7530  177.5240  139.7820 C   0  0  2  0  0  3  0  0  0  0  0  0
  183.9860  178.8580  141.5210 C   0  0  2  0  0  3  0  0  0  0  0  0
  181.4210  178.2930  139.6860 C   0  0  1  0  0  3  0  0  0  0  0  0
  183.3470  177.5040  141.1990 C   0  0  0  0  0  2  0  0  0  0  0  0
  185.0460  179.2010  140.5120 C   0  0  0  0  0  3  0  0  0  0  0  0
  179.9630  178.4340  141.8210 C   0  0  1  0  0  3  0  0  0  0  0  0
  180.9420  178.9050  144.0560 C   0  0  0  0  0  2  0  0  0  0  0  0
  183.7750  178.0160  138.7850 C   0  0  0  0  0  0  0  0  0  0  0  0
  184.9200  178.8330  139.2310 C   0  0  0  0  0  3  0  0  0  0  0  0
  180.7160  177.8380  142.9950 C   0  0  1  0  0  3  0  0  0  0  0  0
  183.6650  177.6870  137.5060 C   0  0  0  0  0  2  0  0  0  0  0  0
  180.3230  177.6420  140.5600 C   0  0  1  0  0  3  0  0  0  0  0  0
  184.5260  178.9310  142.9450 C   0  0  0  0  0  2  0  0  0  0  0  0
  182.2670  179.6210  143.8270 C   0  0  0  0  0  2  0  0  0  0  0  0
  179.2390  177.5630  142.8330 C   0  0  0  0  0  2  0  0  0  0  0  0
  181.5830  179.8080  139.8750 C   0  0  0  0  0  2  0  0  0  0  0  0
  179.7900  181.2830  139.7450 C   0  0  0  0  0  1  0  0  0  0  0  0
  180.7400  180.5340  138.9390 N   0  0  0  0  0  0  0  0  0  0  0  0
  179.8230  181.3600  136.2050 C   0  0  0  0  0  2  0  0  0  0  0  0
  181.1750  181.6680  136.8100 C   0  0  1  0  0  3  0  0  0  0  0  0
  180.7710  182.7070  137.8420 C   0  0  2  0  0  3  0  0  0  0  0  0
  180.7330  184.4520  136.1590 C   0  0  0  0  0  3  0  0  0  0  0  0
  179.4550  183.8490  135.5840 C   0  0  0  0  0  2  0  0  0  0  0  0
  181.3570  183.9340  137.2370 C   0  0  0  0  0  3  0  0  0  0  0  0
  179.5910  182.3910  135.0830 C   0  0  0  0  0  2  0  0  0  0  0  0
  181.5890  181.5090  138.2660 C   0  0  1  0  0  3  0  0  0  0  0  0
  179.0780  177.2150  139.7700 C   0  0  2  0  0  3  0  0  0  0  0  0
  178.9420  175.0160  141.0530 C   0  0  0  0  0  1  0  0  0  0  0  0
  178.9450  175.6880  139.6890 C   0  0  0  0  0  3  0  0  0  0  0  0
  180.0330  175.0910  138.8180 C   0  0  0  0  0  1  0  0  0  0  0  0
  178.9350  177.9330  138.4250 C   0  0  0  0  0  2  0  0  0  0  0  0
  179.7600  177.2530  137.3470 C   0  0  0  0  0  2  0  0  0  0  0  0
  179.4360  177.8460  135.9850 C   0  0  0  0  0  2  0  0  0  0  0  0
  180.2290  177.1420  134.8990 C   0  0  0  0  0  2  0  0  0  0  0  0
  180.5710  174.7500  134.7180 N   0  0  0  0  0  1  0  0  0  0  0  0
  180.9480  175.9330  135.4680 C   0  0  0  0  0  2  0  0  0  0  0  0
  2  5  1  1  0  0  0
  3  6  1  6  0  0  0
  3 14  1  0  0  0  0
  4  2  1  0  0  0  0
  4 17  1  1  0  0  0
  4 13  1  0  0  0  0
  5  3  1  0  0  0  0
  7 16  1  1  0  0  0
  7 11  1  0  0  0  0
  9 10  1  0  0  0  0
  9  2  1  0  0  0  0
 10  6  2  0  0  0  0
 11 16  1  1  0  0  0
 11  8  1  0  0  0  0
 12  9  2  0  0  0  0
 13 28  1  6  0  0  0
 13  7  1  0  0  0  0
 14  1  1  0  0  0  0
 15  1  1  0  0  0  0
 15  8  1  0  0  0  0
 19 18  1  0  0  0  0
 19 17  1  0  0  0  0
 21 20  1  1  0  0  0
 21 22  1  0  0  0  0
 21 27  1  0  0  0  0
 22 25  1  6  0  0  0
 22 27  1  0  0  0  0
 23 25  2  0  0  0  0
 24 23  1  0  0  0  0
 26 24  1  0  0  0  0
 26 20  1  0  0  0  0
 27 19  1  1  0  0  0
 28 32  1  6  0  0  0
 30 28  1  0  0  0  0
 30 29  1  0  0  0  0
 31 30  1  0  0  0  0
 33 32  1  0  0  0  0
 34 33  1  0  0  0  0
 35 37  1  0  0  0  0
 35 34  1  0  0  0  0
 36 37  1  0  0  0  0
M  END
>  <MODEL>
8

>  <REMARK>
 VINA RESULT:      -4.1      7.284     10.986
  Name = 
  10 active torsions:
  status: ('A' for Active; 'I' for Inactive)
    1  A    between atoms: C_1  and  C_5
    2  A    between atoms: C_1  and  C_23
    3  A    between atoms: C_5  and  C_17
    4  A    between atoms: C_10  and  C_14
    5  A    between atoms: C_14  and  N_31
    6  A    between atoms: C_17  and  C_26
    7  A    between atoms: C_26  and  C_33
    8  A    between atoms: C_27  and  C_33
    9  A    between atoms: C_29  and  C_33
   10  A    between atoms: N_31  and  C_37
                            x       y       z     vdW  Elec       q    Type
                         _______ _______ _______ _____ _____    ______ ____

>  <TORSDO>
F 10

$$$$
=
 OpenBabel11052415243D

 37 41  0  0  1  0  0  0  0  0999 V2000
  184.7610  179.3400  142.5250 C   0  0  0  0  0  2  0  0  0  0  0  0
  181.3200  178.8210  139.8330 C   0  0  2  0  0  3  0  0  0  0  0  0
  182.3970  178.5560  142.0890 C   0  0  2  0  0  3  0  0  0  0  0  0
  181.9870  177.6850  139.0330 C   0  0  1  0  0  3  0  0  0  0  0  0
  182.2510  179.4690  140.8680 C   0  0  0  0  0  2  0  0  0  0  0  0
  181.0560  178.2630  142.6990 C   0  0  0  0  0  3  0  0  0  0  0  0
  184.5590  177.7740  138.7460 C   0  0  1  0  0  3  0  0  0  0  0  0
  186.0740  178.3610  140.6260 C   0  0  0  0  0  2  0  0  0  0  0  0
  180.0270  178.3850  140.4800 C   0  0  0  0  0  0  0  0  0  0  0  0
  179.9630  178.1510  141.9360 C   0  0  0  0  0  3  0  0  0  0  0  0
  185.1270  178.9140  139.5720 C   0  0  1  0  0  3  0  0  0  0  0  0
  178.9330  178.2440  139.7460 C   0  0  0  0  0  2  0  0  0  0  0  0
  183.1900  178.2000  138.2070 C   0  0  1  0  0  3  0  0  0  0  0  0
  183.3740  179.1070  143.1220 C   0  0  0  0  0  2  0  0  0  0  0  0
  185.3270  178.0610  141.9200 C   0  0  0  0  0  2  0  0  0  0  0  0
  185.6700  178.6470  138.1870 C   0  0  0  0  0  2  0  0  0  0  0  0
  182.2740  176.4370  139.8800 C   0  0  0  0  0  2  0  0  0  0  0  0
  180.5090  174.9850  140.3050 C   0  0  0  0  0  1  0  0  0  0  0  0
  181.5630  175.2850  139.3500 N   0  0  0  0  0  0  0  0  0  0  0  0
  181.7820  173.3700  137.0510 C   0  0  0  0  0  2  0  0  0  0  0  0
  181.2910  174.7980  136.9630 C   0  0  1  0  0  3  0  0  0  0  0  0
  179.9410  174.6540  137.6460 C   0  0  2  0  0  3  0  0  0  0  0  0
  178.9320  173.8090  135.6110 C   0  0  0  0  0  3  0  0  0  0  0  0
  179.6880  172.4970  135.7980 C   0  0  0  0  0  2  0  0  0  0  0  0
  179.0280  174.8320  136.4840 C   0  0  0  0  0  3  0  0  0  0  0  0
  181.2300  172.6310  135.8170 C   0  0  0  0  0  2  0  0  0  0  0  0
  180.9110  175.7130  138.1180 C   0  0  1  0  0  3  0  0  0  0  0  0
  183.0570  177.9460  136.6990 C   0  0  2  0  0  3  0  0  0  0  0  0
  181.3760  177.6930  134.7990 C   0  0  0  0  0  1  0  0  0  0  0  0
  181.6430  178.2530  136.1870 C   0  0  0  0  0  3  0  0  0  0  0  0
  181.3670  179.7440  136.2070 C   0  0  0  0  0  1  0  0  0  0  0  0
  183.6040  176.5840  136.2610 C   0  0  0  0  0  2  0  0  0  0  0  0
  184.7650  176.7410  135.2950 C   0  0  0  0  0  2  0  0  0  0  0  0
  185.5220  175.4290  135.1660 C   0  0  0  0  0  2  0  0  0  0  0  0
  185.7590  174.8190  136.5350 C   0  0  0  0  0  2  0  0  0  0  0  0
  186.0160  172.7190  137.7180 N   0  0  0  0  0  1  0  0  0  0  0  0
  186.0730  173.3400  136.4080 C   0  0  0  0  0  2  0  0  0  0  0  0
  1 14  1  0  0  0  0
  2  9  1  0  0  0  0
  2  5  1  1  0  0  0
  3  5  1  6  0  0  0
  3  6  1  0  0  0  0
  3 14  1  0  0  0  0
  4  2  1  0  0  0  0
  4 17  1  1  0  0  0
  7 16  1  6  0  0  0
  7 11  1  0  0  0  0
  8 15  1  0  0  0  0
  9 10  1  0  0  0  0
 10  6  2  0  0  0  0
 11 16  1  6  0  0  0
 11  8  1  0  0  0  0
 12  9  2  0  0  0  0
 13 28  1  6  0  0  0
 13  7  1  0  0  0  0
 13  4  1  0  0  0  0
 15  1  1  0  0  0  0
 19 17  1  0  0  0  0
 19 18  1  0  0  0  0
 21 20  1  1  0  0  0
 21 22  1  0  0  0  0
 21 27  1  0  0  0  0
 22 25  1  6  0  0  0
 22 27  1  0  0  0  0
 23 24  1  0  0  0  0
 23 25  2  0  0  0  0
 24 26  1  0  0  0  0
 26 20  1  0  0  0  0
 27 19  1  1  0  0  0
 28 32  1  1  0  0  0
 29 30  1  0  0  0  0
 30 31  1  0  0  0  0
 30 28  1  0  0  0  0
 33 32  1  0  0  0  0
 34 33  1  0  0  0  0
 34 35  1  0  0  0  0
 37 35  1  0  0  0  0
 37 36  1  0  0  0  0
M  END
>  <MODEL>
9

>  <REMARK>
 VINA RESULT:      -4.0      5.336      7.936
  Name = 
  10 active torsions:
  status: ('A' for Active; 'I' for Inactive)
    1  A    between atoms: C_1  and  C_5
    2  A    between atoms: C_1  and  C_23
    3  A    between atoms: C_5  and  C_17
    4  A    between atoms: C_10  and  C_14
    5  A    between atoms: C_14  and  N_31
    6  A    between atoms: C_17  and  C_26
    7  A    between atoms: C_26  and  C_33
    8  A    between atoms: C_27  and  C_33
    9  A    between atoms: C_29  and  C_33
   10  A    between atoms: N_31  and  C_37
                            x       y       z     vdW  Elec       q    Type
                         _______ _______ _______ _____ _____    ______ ____

>  <TORSDO>
F 10

$$$$
