=
 OpenBabel11052416503D

 32 37  0  0  1  0  0  0  0  0999 V2000
  182.1920  175.7480  138.8380 C   0  0  2  0  0  3  0  0  0  0  0  0
  183.7510  178.5330  138.3030 C   0  0  0  0  0  2  0  0  0  0  0  0
  186.5600  177.9800  142.7800 C   0  0  0  0  0  2  0  0  0  0  0  0
  190.3630  176.6630  138.4510 C   0  0  0  0  0  3  0  0  0  0  0  0
  191.3080  176.8780  139.4730 C   0  0  0  0  0  3  0  0  0  0  0  0
  184.6130  178.3370  141.1450 C   0  0  2  0  0  3  0  0  0  0  0  0
  186.4340  178.6600  139.4980 C   0  0  0  0  0  2  0  0  0  0  0  0
  181.8590  176.9870  138.0120 C   0  0  0  0  0  2  0  0  0  0  0  0
  184.3490  179.7020  139.0830 C   0  0  0  0  0  2  0  0  0  0  0  0
  189.0060  176.9500  138.6670 C   0  0  0  0  0  3  0  0  0  0  0  0
  187.2690  177.7740  140.4180 C   0  0  1  0  0  3  0  0  0  0  0  0
  188.6310  177.4660  139.9080 C   0  0  0  0  0  0  0  0  0  0  0  0
  188.9360  178.1580  142.0860 N   0  0  0  0  0  0  0  0  0  0  0  0
  182.6190  176.2240  140.2170 C   0  0  0  0  0  2  0  0  0  0  0  0
  182.3020  177.7030  140.2390 C   0  0  1  0  0  3  0  0  0  0  0  0
  183.2440  175.0550  138.2410 O   0  0  0  0  0  1  0  0  0  0  0  0
  185.2490  179.2500  140.1540 N   0  0  1  0  0  0  0  0  0  0  0  0
  183.0950  178.5150  141.2650 C   0  0  0  0  0  2  0  0  0  0  0  0
  182.3490  178.1890  138.7970 C   0  0  1  0  0  3  0  0  0  0  0  0
  190.9010  177.3750  140.7220 C   0  0  0  0  0  3  0  0  0  0  0  0
  189.5470  177.6520  140.9100 C   0  0  0  0  0  0  0  0  0  0  0  0
  185.1900  178.6160  142.5400 C   0  0  0  0  0  2  0  0  0  0  0  0
  187.5510  178.4810  141.7490 C   0  0  2  0  0  3  0  0  0  0  0  0
  189.6640  178.7740  143.1910 C   0  0  0  0  0  2  0  0  0  0  0  0
  188.8990  177.8990  145.3190 C   0  0  0  0  0  3  0  0  0  0  0  0
  188.8580  176.9600  146.4790 C   0  0  1  0  0  3  0  0  0  0  0  0
  191.5640  176.3560  145.3480 C   0  0  0  0  0  3  0  0  0  0  0  0
  191.3110  176.6900  146.7630 C   0  0  0  0  0  3  0  0  0  0  0  0
  190.1200  177.0030  147.2720 C   0  0  0  0  0  3  0  0  0  0  0  0
  187.7920  177.2860  147.2950 F   0  0  0  0  0  0  0  0  0  0  0  0
  190.9000  176.8430  144.2930 C   0  0  0  0  0  3  0  0  0  0  0  0
  189.7900  177.8180  144.3280 C   0  0  0  0  0  0  0  0  0  0  0  0
  1 16  1  6  0  0  0
  1 14  1  0  0  0  0
  2 19  1  0  0  0  0
  2  9  1  0  0  0  0
  4 10  2  0  0  0  0
  4  5  1  0  0  0  0
  5 20  2  0  0  0  0
  6 18  1  1  0  0  0
  6 22  1  0  0  0  0
  7 17  1  0  0  0  0
  8  1  1  0  0  0  0
 10 12  1  0  0  0  0
 11  7  1  6  0  0  0
 11 23  1  0  0  0  0
 12 11  1  0  0  0  0
 12 21  2  0  0  0  0
 13 24  1  0  0  0  0
 15 14  1  6  0  0  0
 15 18  1  0  0  0  0
 17  9  1  6  0  0  0
 17  6  1  0  0  0  0
 19  8  1  6  0  0  0
 19 15  1  0  0  0  0
 20 21  1  0  0  0  0
 21 13  1  0  0  0  0
 22  3  1  0  0  0  0
 23 13  1  0  0  0  0
 23  3  1  1  0  0  0
 24 32  1  0  0  0  0
 25 26  1  0  0  0  0
 26 29  1  0  0  0  0
 26 30  1  1  0  0  0
 27 28  1  0  0  0  0
 28 29  2  0  0  0  0
 31 32  1  0  0  0  0
 31 27  2  0  0  0  0
 32 25  2  0  0  0  0
M  END
>  <MODEL>
1

>  <REMARK>
 VINA RESULT:      -9.4      0.000      0.000
  Name = 
  2 active torsions:
  status: ('A' for Active; 'I' for Inactive)
    1  A    between atoms: N_16  and  C_27
    2  A    between atoms: C_27  and  C_32
                            x       y       z     vdW  Elec       q    Type
                         _______ _______ _______ _____ _____    ______ ____

>  <TORSDO>
F 2

$$$$
=
 OpenBabel11052416503D

 32 37  0  0  1  0  0  0  0  0999 V2000
  180.9720  176.0280  138.7410 C   0  0  2  0  0  3  0  0  0  0  0  0
  182.3530  178.9040  138.1980 C   0  0  0  0  0  2  0  0  0  0  0  0
  185.9140  178.0760  142.0540 C   0  0  0  0  0  2  0  0  0  0  0  0
  188.9270  177.2740  137.0320 C   0  0  0  0  0  3  0  0  0  0  0  0
  190.0320  177.4350  137.8920 C   0  0  0  0  0  3  0  0  0  0  0  0
  183.7040  178.5000  140.8190 C   0  0  2  0  0  3  0  0  0  0  0  0
  185.2010  179.0280  138.9180 C   0  0  0  0  0  2  0  0  0  0  0  0
  180.4730  177.3200  138.1000 C   0  0  0  0  0  2  0  0  0  0  0  0
  183.0530  180.0240  138.9660 C   0  0  0  0  0  2  0  0  0  0  0  0
  187.6230  177.4910  137.5050 C   0  0  0  0  0  3  0  0  0  0  0  0
  186.2030  178.0980  139.5960 C   0  0  1  0  0  3  0  0  0  0  0  0
  187.4600  177.8860  138.8330 C   0  0  0  0  0  0  0  0  0  0  0  0
  188.1280  178.4010  140.9790 N   0  0  0  0  0  0  0  0  0  0  0  0
  181.6240  176.4000  140.0620 C   0  0  0  0  0  2  0  0  0  0  0  0
  181.2840  177.8600  140.2720 C   0  0  1  0  0  3  0  0  0  0  0  0
  181.9180  175.4270  137.9110 O   0  0  0  0  0  1  0  0  0  0  0  0
  184.1370  179.5160  139.8190 N   0  0  1  0  0  0  0  0  0  0  0  0
  182.2270  178.6100  141.2150 C   0  0  0  0  0  2  0  0  0  0  0  0
  181.0670  178.4680  138.8940 C   0  0  1  0  0  3  0  0  0  0  0  0
  189.8400  177.8090  139.2310 C   0  0  0  0  0  3  0  0  0  0  0  0
  188.5330  178.0190  139.6750 C   0  0  0  0  0  0  0  0  0  0  0  0
  184.5110  178.6790  142.1130 C   0  0  0  0  0  2  0  0  0  0  0  0
  186.6980  178.6990  140.9170 C   0  0  2  0  0  3  0  0  0  0  0  0
  189.0240  178.9470  141.9930 C   0  0  0  0  0  2  0  0  0  0  0  0
  189.1410  178.1600  144.2830 C   0  0  0  0  0  3  0  0  0  0  0  0
  189.3710  177.1780  145.3850 C   0  0  1  0  0  3  0  0  0  0  0  0
  190.8700  175.8820  143.1400 C   0  0  0  0  0  3  0  0  0  0  0  0
  191.4410  176.1500  144.4730 C   0  0  0  0  0  3  0  0  0  0  0  0
  190.8020  176.7640  145.4680 C   0  0  0  0  0  3  0  0  0  0  0  0
  188.9850  177.7390  146.5870 F   0  0  0  0  0  0  0  0  0  0  0  0
  189.9710  176.6410  142.5020 C   0  0  0  0  0  3  0  0  0  0  0  0
  189.3750  177.9000  142.9950 C   0  0  0  0  0  0  0  0  0  0  0  0
  1 16  1  6  0  0  0
  1 14  1  0  0  0  0
  2 19  1  0  0  0  0
  2  9  1  0  0  0  0
  3 22  1  0  0  0  0
  4 10  2  0  0  0  0
  4  5  1  0  0  0  0
  5 20  2  0  0  0  0
  6 18  1  1  0  0  0
  6 22  1  0  0  0  0
  8  1  1  0  0  0  0
  9 17  1  0  0  0  0
 10 12  1  0  0  0  0
 11  7  1  6  0  0  0
 11 23  1  0  0  0  0
 12 11  1  0  0  0  0
 12 21  2  0  0  0  0
 13 24  1  0  0  0  0
 15 14  1  6  0  0  0
 15 18  1  0  0  0  0
 17  7  1  6  0  0  0
 17  6  1  0  0  0  0
 19  8  1  6  0  0  0
 19 15  1  0  0  0  0
 20 21  1  0  0  0  0
 21 13  1  0  0  0  0
 23 13  1  0  0  0  0
 23  3  1  1  0  0  0
 24 32  1  0  0  0  0
 25 26  1  0  0  0  0
 26 29  1  0  0  0  0
 26 30  1  1  0  0  0
 27 28  1  0  0  0  0
 28 29  2  0  0  0  0
 31 32  1  0  0  0  0
 31 27  2  0  0  0  0
 32 25  2  0  0  0  0
M  END
>  <MODEL>
2

>  <REMARK>
 VINA RESULT:      -8.2      1.215      1.526
  Name = 
  2 active torsions:
  status: ('A' for Active; 'I' for Inactive)
    1  A    between atoms: N_16  and  C_27
    2  A    between atoms: C_27  and  C_32
                            x       y       z     vdW  Elec       q    Type
                         _______ _______ _______ _____ _____    ______ ____

>  <TORSDO>
F 2

$$$$
=
 OpenBabel11052416503D

 32 37  0  0  1  0  0  0  0  0999 V2000
  188.9800  174.6530  136.1930 C   0  0  2  0  0  3  0  0  0  0  0  0
  189.9870  177.4840  137.3950 C   0  0  0  0  0  2  0  0  0  0  0  0
  185.3420  178.2460  139.8610 C   0  0  0  0  0  2  0  0  0  0  0  0
  189.0910  176.7040  144.1640 C   0  0  0  0  0  3  0  0  0  0  0  0
  188.0830  177.2550  144.9800 C   0  0  0  0  0  3  0  0  0  0  0  0
  187.1220  177.9790  138.0310 C   0  0  2  0  0  3  0  0  0  0  0  0
  188.6960  178.2470  139.9240 C   0  0  0  0  0  2  0  0  0  0  0  0
  190.0600  175.6420  135.7650 C   0  0  0  0  0  2  0  0  0  0  0  0
  189.4310  178.8600  137.7570 C   0  0  0  0  0  2  0  0  0  0  0  0
  189.0140  176.8180  142.7670 C   0  0  0  0  0  3  0  0  0  0  0  0
  187.5690  177.6940  140.7910 C   0  0  1  0  0  3  0  0  0  0  0  0
  187.9280  177.5030  142.2200 C   0  0  0  0  0  0  0  0  0  0  0  0
  185.9250  178.6440  142.2410 N   0  0  0  0  0  0  0  0  0  0  0  0
  187.7070  175.4470  136.4320 C   0  0  0  0  0  2  0  0  0  0  0  0
  188.0060  176.8370  135.9140 C   0  0  1  0  0  3  0  0  0  0  0  0
  189.3620  174.0250  137.3770 O   0  0  0  0  0  1  0  0  0  0  0  0
  188.2420  178.7670  138.6170 N   0  0  1  0  0  0  0  0  0  0  0  0
  187.1250  177.9440  136.4980 C   0  0  0  0  0  2  0  0  0  0  0  0
  189.5120  177.0340  136.0160 C   0  0  1  0  0  3  0  0  0  0  0  0
  186.9870  177.9180  144.4040 C   0  0  0  0  0  3  0  0  0  0  0  0
  186.9360  178.0180  143.0130 C   0  0  0  0  0  0  0  0  0  0  0  0
  185.7830  178.6080  138.4430 C   0  0  0  0  0  2  0  0  0  0  0  0
  186.3970  178.6810  140.8580 C   0  0  2  0  0  3  0  0  0  0  0  0
  184.9310  179.5670  142.7810 C   0  0  0  0  0  2  0  0  0  0  0  0
  183.0070  178.7010  141.5860 C   0  0  0  0  0  3  0  0  0  0  0  0
  181.6930  178.0100  141.4210 C   0  0  1  0  0  3  0  0  0  0  0  0
  181.6380  178.6570  144.3440 C   0  0  0  0  0  3  0  0  0  0  0  0
  180.5590  178.9980  143.3980 C   0  0  0  0  0  3  0  0  0  0  0  0
  180.5870  178.7560  142.0880 C   0  0  0  0  0  3  0  0  0  0  0  0
  181.4110  177.8770  140.0750 F   0  0  0  0  0  0  0  0  0  0  0  0
  182.9470  178.6280  144.0680 C   0  0  0  0  0  3  0  0  0  0  0  0
  183.5780  178.9390  142.7680 C   0  0  0  0  0  0  0  0  0  0  0  0
  1 14  1  0  0  0  0
  1 16  1  1  0  0  0
  2  9  1  0  0  0  0
  4  5  1  0  0  0  0
  6 18  1  6  0  0  0
  6 22  1  0  0  0  0
  6 17  1  0  0  0  0
  8  1  1  0  0  0  0
 10  4  2  0  0  0  0
 11  7  1  6  0  0  0
 11 23  1  0  0  0  0
 11 12  1  0  0  0  0
 12 10  1  0  0  0  0
 12 21  2  0  0  0  0
 13 24  1  0  0  0  0
 13 21  1  0  0  0  0
 15 19  1  0  0  0  0
 15 14  1  1  0  0  0
 15 18  1  0  0  0  0
 17  9  1  6  0  0  0
 17  7  1  0  0  0  0
 19  8  1  1  0  0  0
 19  2  1  0  0  0  0
 20  5  2  0  0  0  0
 21 20  1  0  0  0  0
 22  3  1  0  0  0  0
 23  3  1  6  0  0  0
 23 13  1  0  0  0  0
 25 32  2  0  0  0  0
 26 30  1  6  0  0  0
 26 25  1  0  0  0  0
 26 29  1  0  0  0  0
 28 27  1  0  0  0  0
 29 28  2  0  0  0  0
 31 27  2  0  0  0  0
 32 24  1  0  0  0  0
 32 31  1  0  0  0  0
M  END
>  <MODEL>
3

>  <REMARK>
 VINA RESULT:      -8.0      2.914      6.495
  Name = 
  2 active torsions:
  status: ('A' for Active; 'I' for Inactive)
    1  A    between atoms: N_16  and  C_27
    2  A    between atoms: C_27  and  C_32
                            x       y       z     vdW  Elec       q    Type
                         _______ _______ _______ _____ _____    ______ ____

>  <TORSDO>
F 2

$$$$
=
 OpenBabel11052416503D

 32 37  0  0  1  0  0  0  0  0999 V2000
  180.0530  175.1670  136.8680 C   0  0  2  0  0  3  0  0  0  0  0  0
  181.0160  178.2480  136.6340 C   0  0  0  0  0  2  0  0  0  0  0  0
  182.9770  178.1550  141.5720 C   0  0  0  0  0  2  0  0  0  0  0  0
  187.7280  177.8910  138.0650 C   0  0  0  0  0  3  0  0  0  0  0  0
  188.3890  178.2690  139.2500 C   0  0  0  0  0  3  0  0  0  0  0  0
  181.3460  178.1360  139.5900 C   0  0  2  0  0  3  0  0  0  0  0  0
  183.3250  178.9210  138.3250 C   0  0  0  0  0  2  0  0  0  0  0  0
  179.6120  176.3330  135.9890 C   0  0  0  0  0  2  0  0  0  0  0  0
  181.1750  179.4890  137.5110 C   0  0  0  0  0  2  0  0  0  0  0  0
  186.3260  177.8600  138.0140 C   0  0  0  0  0  3  0  0  0  0  0  0
  184.1480  178.2070  139.3920 C   0  0  1  0  0  3  0  0  0  0  0  0
  185.6160  178.2300  139.1570 C   0  0  0  0  0  0  0  0  0  0  0  0
  185.3390  178.8850  141.3500 N   0  0  0  0  0  0  0  0  0  0  0  0
  180.0930  175.6710  138.3020 C   0  0  0  0  0  2  0  0  0  0  0  0
  179.4520  177.0400  138.2570 C   0  0  1  0  0  3  0  0  0  0  0  0
  181.3280  174.7500  136.4890 O   0  0  0  0  0  1  0  0  0  0  0  0
  181.9350  179.2060  138.7370 N   0  0  1  0  0  0  0  0  0  0  0  0
  179.8320  177.9660  139.4140 C   0  0  0  0  0  2  0  0  0  0  0  0
  179.6600  177.5820  136.8490 C   0  0  1  0  0  3  0  0  0  0  0  0
  187.6520  178.6130  140.3950 C   0  0  0  0  0  3  0  0  0  0  0  0
  186.2590  178.5750  140.3160 C   0  0  0  0  0  0  0  0  0  0  0  0
  181.5700  178.4800  141.0690 C   0  0  0  0  0  2  0  0  0  0  0  0
  184.0060  178.9050  140.7510 C   0  0  2  0  0  3  0  0  0  0  0  0
  185.6860  179.6030  142.5730 C   0  0  0  0  0  2  0  0  0  0  0  0
  185.2770  178.8300  144.8340 C   0  0  0  0  0  3  0  0  0  0  0  0
  185.3680  177.9060  146.0040 C   0  0  1  0  0  3  0  0  0  0  0  0
  187.7030  176.9910  144.3680 C   0  0  0  0  0  3  0  0  0  0  0  0
  187.7820  177.3580  145.7950 C   0  0  0  0  0  3  0  0  0  0  0  0
  186.7630  177.8080  146.5250 C   0  0  0  0  0  3  0  0  0  0  0  0
  184.5330  178.3560  147.0090 F   0  0  0  0  0  0  0  0  0  0  0  0
  186.8970  177.5470  143.4560 C   0  0  0  0  0  3  0  0  0  0  0  0
  185.9330  178.6430  143.6870 C   0  0  0  0  0  0  0  0  0  0  0  0
  1 16  1  6  0  0  0
  1 14  1  0  0  0  0
  2 19  1  0  0  0  0
  2  9  1  0  0  0  0
  4  5  1  0  0  0  0
  5 20  2  0  0  0  0
  6 18  1  1  0  0  0
  6 22  1  0  0  0  0
  7 17  1  0  0  0  0
  8  1  1  0  0  0  0
 10  4  2  0  0  0  0
 10 12  1  0  0  0  0
 11  7  1  6  0  0  0
 11 23  1  0  0  0  0
 12 11  1  0  0  0  0
 12 21  2  0  0  0  0
 13 24  1  0  0  0  0
 15 14  1  6  0  0  0
 15 18  1  0  0  0  0
 17  9  1  6  0  0  0
 17  6  1  0  0  0  0
 19  8  1  6  0  0  0
 19 15  1  0  0  0  0
 21 20  1  0  0  0  0
 21 13  1  0  0  0  0
 22  3  1  0  0  0  0
 23 13  1  0  0  0  0
 23  3  1  1  0  0  0
 24 32  1  0  0  0  0
 25 26  1  0  0  0  0
 26 29  1  0  0  0  0
 26 30  1  1  0  0  0
 27 28  1  0  0  0  0
 28 29  2  0  0  0  0
 31 32  1  0  0  0  0
 31 27  2  0  0  0  0
 32 25  2  0  0  0  0
M  END
>  <MODEL>
4

>  <REMARK>
 VINA RESULT:      -7.7      2.238      3.519
  Name = 
  2 active torsions:
  status: ('A' for Active; 'I' for Inactive)
    1  A    between atoms: N_16  and  C_27
    2  A    between atoms: C_27  and  C_32
                            x       y       z     vdW  Elec       q    Type
                         _______ _______ _______ _____ _____    ______ ____

>  <TORSDO>
F 2

$$$$
=
 OpenBabel11052416503D

 32 37  0  0  1  0  0  0  0  0999 V2000
  180.7400  177.1680  134.9400 C   0  0  2  0  0  3  0  0  0  0  0  0
  182.0160  175.2180  137.1860 C   0  0  0  0  0  2  0  0  0  0  0  0
  184.5190  179.2940  139.5010 C   0  0  0  0  0  2  0  0  0  0  0  0
  179.9710  178.0960  143.0820 C   0  0  0  0  0  3  0  0  0  0  0  0
  180.7310  178.8590  143.9910 C   0  0  0  0  0  3  0  0  0  0  0  0
  183.8340  177.4910  137.8070 C   0  0  2  0  0  3  0  0  0  0  0  0
  182.6070  176.5480  139.7400 C   0  0  0  0  0  2  0  0  0  0  0  0
  181.0190  175.6690  134.9810 C   0  0  0  0  0  2  0  0  0  0  0  0
  183.2890  175.0740  138.0160 C   0  0  0  0  0  2  0  0  0  0  0  0
  180.5040  177.7420  141.8330 C   0  0  0  0  0  3  0  0  0  0  0  0
  182.5670  177.9790  140.2670 C   0  0  1  0  0  3  0  0  0  0  0  0
  181.8050  178.1480  141.5320 C   0  0  0  0  0  0  0  0  0  0  0  0
  183.8130  179.2270  141.8800 N   0  0  0  0  0  0  0  0  0  0  0  0
  182.0060  177.8770  135.3950 C   0  0  0  0  0  2  0  0  0  0  0  0
  183.0610  176.7940  135.4650 C   0  0  1  0  0  3  0  0  0  0  0  0
  179.6980  177.4760  135.8120 O   0  0  0  0  0  1  0  0  0  0  0  0
  183.6410  176.3220  138.7100 N   0  0  1  0  0  0  0  0  0  0  0  0
  184.2460  177.1110  136.3800 C   0  0  0  0  0  2  0  0  0  0  0  0
  182.3330  175.4810  135.7160 C   0  0  1  0  0  3  0  0  0  0  0  0
  182.0290  179.2770  143.6540 C   0  0  0  0  0  3  0  0  0  0  0  0
  182.5350  178.9100  142.4070 C   0  0  0  0  0  0  0  0  0  0  0  0
  184.9580  178.3820  138.3550 C   0  0  0  0  0  2  0  0  0  0  0  0
  183.9730  178.4620  140.6440 C   0  0  2  0  0  3  0  0  0  0  0  0
  184.9330  179.7180  142.6770 C   0  0  0  0  0  2  0  0  0  0  0  0
  185.0050  178.8010  144.9200 C   0  0  0  0  0  3  0  0  0  0  0  0
  185.3130  177.7940  145.9800 C   0  0  1  0  0  3  0  0  0  0  0  0
  187.1800  176.9270  143.8060 C   0  0  0  0  0  3  0  0  0  0  0  0
  187.5910  177.1890  145.1980 C   0  0  0  0  0  3  0  0  0  0  0  0
  186.7820  177.6180  146.1660 C   0  0  0  0  0  3  0  0  0  0  0  0
  184.7450  178.1980  147.1730 F   0  0  0  0  0  0  0  0  0  0  0  0
  186.2160  177.5690  143.1350 C   0  0  0  0  0  3  0  0  0  0  0  0
  185.3790  178.6750  143.6450 C   0  0  0  0  0  0  0  0  0  0  0  0
  1  8  1  0  0  0  0
  1 14  1  0  0  0  0
  1 16  1  1  0  0  0
  2  9  1  0  0  0  0
  4  5  1  0  0  0  0
  6 18  1  6  0  0  0
  6 22  1  0  0  0  0
  6 17  1  0  0  0  0
 10  4  2  0  0  0  0
 11  7  1  1  0  0  0
 11 23  1  0  0  0  0
 11 12  1  0  0  0  0
 12 10  1  0  0  0  0
 12 21  2  0  0  0  0
 13 21  1  0  0  0  0
 13 24  1  0  0  0  0
 15 14  1  1  0  0  0
 15 19  1  0  0  0  0
 15 18  1  0  0  0  0
 17  9  1  6  0  0  0
 17  7  1  0  0  0  0
 19  8  1  6  0  0  0
 19  2  1  0  0  0  0
 20  5  2  0  0  0  0
 21 20  1  0  0  0  0
 22  3  1  0  0  0  0
 23  3  1  6  0  0  0
 23 13  1  0  0  0  0
 24 32  1  0  0  0  0
 25 26  1  0  0  0  0
 26 29  1  0  0  0  0
 26 30  1  1  0  0  0
 27 28  1  0  0  0  0
 28 29  2  0  0  0  0
 31 32  1  0  0  0  0
 31 27  2  0  0  0  0
 32 25  2  0  0  0  0
M  END
>  <MODEL>
5

>  <REMARK>
 VINA RESULT:      -7.6      3.137      5.687
  Name = 
  2 active torsions:
  status: ('A' for Active; 'I' for Inactive)
    1  A    between atoms: N_16  and  C_27
    2  A    between atoms: C_27  and  C_32
                            x       y       z     vdW  Elec       q    Type
                         _______ _______ _______ _____ _____    ______ ____

>  <TORSDO>
F 2

$$$$
=
 OpenBabel11052416503D

 32 37  0  0  1  0  0  0  0  0999 V2000
  185.6910  174.9470  135.6510 C   0  0  2  0  0  3  0  0  0  0  0  0
  187.2290  177.7940  135.5980 C   0  0  0  0  0  2  0  0  0  0  0  0
  187.8140  177.7320  140.8790 C   0  0  0  0  0  2  0  0  0  0  0  0
  193.1710  176.4070  138.7620 C   0  0  0  0  0  3  0  0  0  0  0  0
  193.5650  176.7530  140.0690 C   0  0  0  0  0  3  0  0  0  0  0  0
  186.7680  177.8460  138.5380 C   0  0  2  0  0  3  0  0  0  0  0  0
  189.1130  178.1870  137.8210 C   0  0  0  0  0  2  0  0  0  0  0  0
  185.7100  176.1040  134.6550 C   0  0  0  0  0  2  0  0  0  0  0  0
  187.3840  179.0510  136.4520 C   0  0  0  0  0  2  0  0  0  0  0  0
  191.8470  176.6100  138.3420 C   0  0  0  0  0  3  0  0  0  0  0  0
  189.4920  177.4230  139.0860 C   0  0  1  0  0  3  0  0  0  0  0  0
  190.9490  177.1790  139.2460 C   0  0  0  0  0  0  0  0  0  0  0  0
  190.2470  178.0310  141.2710 N   0  0  0  0  0  0  0  0  0  0  0  0
  185.4550  175.5410  137.0300 C   0  0  0  0  0  2  0  0  0  0  0  0
  185.1090  176.9930  136.7810 C   0  0  1  0  0  3  0  0  0  0  0  0
  186.9210  174.2920  135.6330 O   0  0  0  0  0  1  0  0  0  0  0  0
  187.7410  178.7340  137.8430 N   0  0  1  0  0  0  0  0  0  0  0  0
  185.3450  177.9240  137.9730 C   0  0  0  0  0  2  0  0  0  0  0  0
  185.7650  177.3860  135.4640 C   0  0  1  0  0  3  0  0  0  0  0  0
  192.6360  177.3010  140.9680 C   0  0  0  0  0  3  0  0  0  0  0  0
  191.3270  177.4940  140.5250 C   0  0  0  0  0  0  0  0  0  0  0  0
  186.6660  178.2540  140.0140 C   0  0  0  0  0  2  0  0  0  0  0  0
  189.1380  178.2340  140.3400 C   0  0  2  0  0  3  0  0  0  0  0  0
  190.3960  178.7680  142.5220 C   0  0  0  0  0  2  0  0  0  0  0  0
  188.8180  177.8780  144.1330 C   0  0  0  0  0  3  0  0  0  0  0  0
  188.3370  176.9930  145.2360 C   0  0  1  0  0  3  0  0  0  0  0  0
  191.3040  176.7540  145.5600 C   0  0  0  0  0  3  0  0  0  0  0  0
  190.3760  177.1050  146.6510 C   0  0  0  0  0  3  0  0  0  0  0  0
  189.0590  177.2580  146.5140 C   0  0  0  0  0  3  0  0  0  0  0  0
  186.9830  177.1900  145.4250 F   0  0  0  0  0  0  0  0  0  0  0  0
  191.1700  177.0910  144.2720 C   0  0  0  0  0  3  0  0  0  0  0  0
  190.0740  177.8900  143.6830 C   0  0  0  0  0  0  0  0  0  0  0  0
  1 16  1  1  0  0  0
  1 14  1  0  0  0  0
  2  9  1  0  0  0  0
  4  5  1  0  0  0  0
  5 20  2  0  0  0  0
  6 18  1  6  0  0  0
  6 22  1  0  0  0  0
  7 17  1  0  0  0  0
  8  1  1  0  0  0  0
 10  4  2  0  0  0  0
 10 12  1  0  0  0  0
 11  7  1  6  0  0  0
 11 12  1  0  0  0  0
 11 23  1  0  0  0  0
 12 21  2  0  0  0  0
 13 24  1  0  0  0  0
 15 14  1  1  0  0  0
 15 18  1  0  0  0  0
 17  9  1  6  0  0  0
 17  6  1  0  0  0  0
 19  8  1  6  0  0  0
 19  2  1  0  0  0  0
 19 15  1  0  0  0  0
 21 20  1  0  0  0  0
 21 13  1  0  0  0  0
 22  3  1  0  0  0  0
 23  3  1  1  0  0  0
 23 13  1  0  0  0  0
 24 32  1  0  0  0  0
 25 26  1  0  0  0  0
 26 30  1  1  0  0  0
 26 29  1  0  0  0  0
 27 28  1  0  0  0  0
 29 28  2  0  0  0  0
 31 27  2  0  0  0  0
 32 25  2  0  0  0  0
 32 31  1  0  0  0  0
M  END
>  <MODEL>
6

>  <REMARK>
 VINA RESULT:      -7.5      2.314      3.029
  Name = 
  2 active torsions:
  status: ('A' for Active; 'I' for Inactive)
    1  A    between atoms: N_16  and  C_27
    2  A    between atoms: C_27  and  C_32
                            x       y       z     vdW  Elec       q    Type
                         _______ _______ _______ _____ _____    ______ ____

>  <TORSDO>
F 2

$$$$
=
 OpenBabel11052416503D

 32 37  0  0  1  0  0  0  0  0999 V2000
  188.6730  173.6480  135.4600 C   0  0  2  0  0  3  0  0  0  0  0  0
  189.9770  176.5800  135.8810 C   0  0  0  0  0  2  0  0  0  0  0  0
  186.2290  177.8920  139.4120 C   0  0  0  0  0  2  0  0  0  0  0  0
  191.0530  176.8420  142.6640 C   0  0  0  0  0  3  0  0  0  0  0  0
  190.3190  177.5480  143.6370 C   0  0  0  0  0  3  0  0  0  0  0  0
  187.4120  177.2840  137.2160 C   0  0  2  0  0  3  0  0  0  0  0  0
  189.4610  177.7600  138.5230 C   0  0  0  0  0  2  0  0  0  0  0  0
  189.5840  174.5170  134.5980 C   0  0  0  0  0  2  0  0  0  0  0  0
  189.5460  178.0160  136.1700 C   0  0  0  0  0  2  0  0  0  0  0  0
  190.5800  176.7520  141.3450 C   0  0  0  0  0  3  0  0  0  0  0  0
  188.6290  177.3890  139.7470 C   0  0  1  0  0  3  0  0  0  0  0  0
  189.3820  177.3950  141.0290 C   0  0  0  0  0  0  0  0  0  0  0  0
  187.4660  178.6110  141.4400 N   0  0  0  0  0  0  0  0  0  0  0  0
  187.5190  174.5220  135.9240 C   0  0  0  0  0  2  0  0  0  0  0  0
  187.6570  175.8070  135.1360 C   0  0  1  0  0  3  0  0  0  0  0  0
  189.3780  173.1850  136.5690 O   0  0  0  0  0  1  0  0  0  0  0  0
  188.6530  178.1010  137.3350 N   0  0  1  0  0  0  0  0  0  0  0  0
  186.9780  177.0240  135.7690 C   0  0  0  0  0  2  0  0  0  0  0  0
  189.1290  175.9530  134.7780 C   0  0  1  0  0  3  0  0  0  0  0  0
  189.1040  178.1650  143.2990 C   0  0  0  0  0  3  0  0  0  0  0  0
  188.6570  178.0620  141.9810 C   0  0  0  0  0  0  0  0  0  0  0  0
  186.2470  178.0220  137.8880 C   0  0  0  0  0  2  0  0  0  0  0  0
  187.5240  178.4240  139.9910 C   0  0  2  0  0  3  0  0  0  0  0  0
  186.6670  179.6440  142.0900 C   0  0  0  0  0  2  0  0  0  0  0  0
  184.3310  178.9960  142.1620 C   0  0  0  0  0  3  0  0  0  0  0  0
  183.1050  178.3480  142.7170 C   0  0  1  0  0  3  0  0  0  0  0  0
  184.8280  178.5030  145.1610 C   0  0  0  0  0  3  0  0  0  0  0  0
  183.4410  179.0010  145.0900 C   0  0  0  0  0  3  0  0  0  0  0  0
  182.6770  178.9790  143.9990 C   0  0  0  0  0  3  0  0  0  0  0  0
  182.0810  178.4420  141.7950 F   0  0  0  0  0  0  0  0  0  0  0  0
  185.7200  178.5140  144.1640 C   0  0  0  0  0  3  0  0  0  0  0  0
  185.5050  179.0330  142.7980 C   0  0  0  0  0  0  0  0  0  0  0  0
  1 14  1  0  0  0  0
  1 16  1  1  0  0  0
  2  9  1  0  0  0  0
  4  5  1  0  0  0  0
  6 18  1  6  0  0  0
  6 17  1  0  0  0  0
  6 22  1  0  0  0  0
  8  1  1  0  0  0  0
 10  4  2  0  0  0  0
 11  7  1  6  0  0  0
 11 23  1  0  0  0  0
 11 12  1  0  0  0  0
 12 10  1  0  0  0  0
 12 21  2  0  0  0  0
 13 21  1  0  0  0  0
 13 24  1  0  0  0  0
 15 18  1  1  0  0  0
 15 14  1  0  0  0  0
 17  9  1  6  0  0  0
 17  7  1  0  0  0  0
 19  8  1  1  0  0  0
 19 15  1  0  0  0  0
 19  2  1  0  0  0  0
 20  5  2  0  0  0  0
 21 20  1  0  0  0  0
 22  3  1  0  0  0  0
 23  3  1  1  0  0  0
 23 13  1  0  0  0  0
 24 32  1  0  0  0  0
 25 26  1  0  0  0  0
 25 32  2  0  0  0  0
 26 30  1  6  0  0  0
 26 29  1  0  0  0  0
 28 27  1  0  0  0  0
 29 28  2  0  0  0  0
 31 27  2  0  0  0  0
 32 31  1  0  0  0  0
M  END
>  <MODEL>
7

>  <REMARK>
 VINA RESULT:      -7.5      3.043      5.708
  Name = 
  2 active torsions:
  status: ('A' for Active; 'I' for Inactive)
    1  A    between atoms: N_16  and  C_27
    2  A    between atoms: C_27  and  C_32
                            x       y       z     vdW  Elec       q    Type
                         _______ _______ _______ _____ _____    ______ ____

>  <TORSDO>
F 2

$$$$
=
 OpenBabel11052416503D

 32 37  0  0  1  0  0  0  0  0999 V2000
  184.2410  174.9010  136.0260 C   0  0  2  0  0  3  0  0  0  0  0  0
  186.4100  177.0390  134.9320 C   0  0  0  0  0  2  0  0  0  0  0  0
  188.7410  177.3210  139.6990 C   0  0  0  0  0  2  0  0  0  0  0  0
  192.4190  174.0530  136.4220 C   0  0  0  0  0  3  0  0  0  0  0  0
  193.3220  174.3770  137.4540 C   0  0  0  0  0  3  0  0  0  0  0  0
  187.0290  177.5420  137.7990 C   0  0  2  0  0  3  0  0  0  0  0  0
  188.9750  176.9950  136.3690 C   0  0  0  0  0  2  0  0  0  0  0  0
  184.2440  175.8750  134.8510 C   0  0  0  0  0  2  0  0  0  0  0  0
  187.2030  178.2490  135.4220 C   0  0  0  0  0  2  0  0  0  0  0  0
  191.1480  174.6490  136.3780 C   0  0  0  0  0  3  0  0  0  0  0  0
  189.5320  176.2820  137.5970 C   0  0  1  0  0  3  0  0  0  0  0  0
  190.8210  175.5770  137.3680 C   0  0  0  0  0  0  0  0  0  0  0  0
  191.1360  176.8180  139.2860 N   0  0  0  0  0  0  0  0  0  0  0  0
  184.6760  175.6770  137.2580 C   0  0  0  0  0  2  0  0  0  0  0  0
  184.6950  177.1260  136.8260 C   0  0  1  0  0  3  0  0  0  0  0  0
  185.1470  173.8710  135.7830 O   0  0  0  0  0  1  0  0  0  0  0  0
  187.9120  177.9730  136.6800 N   0  0  1  0  0  0  0  0  0  0  0  0
  185.5840  178.0390  137.6750 C   0  0  0  0  0  2  0  0  0  0  0  0
  184.9390  177.1380  135.3230 C   0  0  1  0  0  3  0  0  0  0  0  0
  192.9590  175.2950  138.4520 C   0  0  0  0  0  3  0  0  0  0  0  0
  191.6910  175.8740  138.3840 C   0  0  0  0  0  0  0  0  0  0  0  0
  187.5650  178.1090  139.1220 C   0  0  0  0  0  2  0  0  0  0  0  0
  189.8810  177.2870  138.7020 C   0  0  2  0  0  3  0  0  0  0  0  0
  191.9120  177.5840  140.2560 C   0  0  0  0  0  2  0  0  0  0  0  0
  191.3300  178.5110  142.4200 C   0  0  0  0  0  3  0  0  0  0  0  0
  190.7080  178.5360  143.7780 C   0  0  1  0  0  3  0  0  0  0  0  0
  190.7790  175.5920  143.2330 C   0  0  0  0  0  3  0  0  0  0  0  0
  191.3170  176.2240  144.4530 C   0  0  0  0  0  3  0  0  0  0  0  0
  191.3320  177.5350  144.6910 C   0  0  0  0  0  3  0  0  0  0  0  0
  190.8440  179.7990  144.3200 F   0  0  0  0  0  0  0  0  0  0  0  0
  190.7790  176.1240  142.0050 C   0  0  0  0  0  3  0  0  0  0  0  0
  191.3240  177.4430  141.6190 C   0  0  0  0  0  0  0  0  0  0  0  0
  1 16  1  6  0  0  0
  1 14  1  0  0  0  0
  2 19  1  0  0  0  0
  2  9  1  0  0  0  0
  4  5  1  0  0  0  0
  5 20  2  0  0  0  0
  6 18  1  6  0  0  0
  6 22  1  0  0  0  0
  7 17  1  0  0  0  0
  8  1  1  0  0  0  0
 10  4  2  0  0  0  0
 10 12  1  0  0  0  0
 11  7  1  6  0  0  0
 11 23  1  0  0  0  0
 12 11  1  0  0  0  0
 12 21  2  0  0  0  0
 13 24  1  0  0  0  0
 15 14  1  1  0  0  0
 15 18  1  0  0  0  0
 17  9  1  6  0  0  0
 17  6  1  0  0  0  0
 19  8  1  6  0  0  0
 19 15  1  0  0  0  0
 21 20  1  0  0  0  0
 21 13  1  0  0  0  0
 22  3  1  0  0  0  0
 23 13  1  0  0  0  0
 23  3  1  1  0  0  0
 24 32  1  0  0  0  0
 25 26  1  0  0  0  0
 26 30  1  1  0  0  0
 26 29  1  0  0  0  0
 27 28  1  0  0  0  0
 28 29  2  0  0  0  0
 31 27  2  0  0  0  0
 32 31  1  0  0  0  0
 32 25  2  0  0  0  0
M  END
>  <MODEL>
8

>  <REMARK>
 VINA RESULT:      -6.7      2.824      3.877
  Name = 
  2 active torsions:
  status: ('A' for Active; 'I' for Inactive)
    1  A    between atoms: N_16  and  C_27
    2  A    between atoms: C_27  and  C_32
                            x       y       z     vdW  Elec       q    Type
                         _______ _______ _______ _____ _____    ______ ____

>  <TORSDO>
F 2

$$$$
=
 OpenBabel11052416503D

 32 37  0  0  1  0  0  0  0  0999 V2000
  179.4520  178.3650  136.6490 C   0  0  2  0  0  3  0  0  0  0  0  0
  181.0110  176.0170  138.2410 C   0  0  0  0  0  2  0  0  0  0  0  0
  185.2220  179.1600  139.0320 C   0  0  0  0  0  2  0  0  0  0  0  0
  182.4980  178.9530  144.2740 C   0  0  0  0  0  3  0  0  0  0  0  0
  183.7420  179.4370  144.7260 C   0  0  0  0  0  3  0  0  0  0  0  0
  183.4390  177.7030  137.8970 C   0  0  2  0  0  3  0  0  0  0  0  0
  182.9570  176.9890  140.2180 C   0  0  0  0  0  2  0  0  0  0  0  0
  179.3230  176.8450  136.6520 C   0  0  0  0  0  2  0  0  0  0  0  0
  182.4320  175.4990  138.4540 C   0  0  0  0  0  2  0  0  0  0  0  0
  182.3360  178.5520  142.9390 C   0  0  0  0  0  3  0  0  0  0  0  0
  183.5170  178.3470  140.6310 C   0  0  1  0  0  3  0  0  0  0  0  0
  183.4400  178.6280  142.0880 C   0  0  0  0  0  0  0  0  0  0  0  0
  185.6080  179.1290  141.4840 N   0  0  0  0  0  0  0  0  0  0  0  0
  180.9260  178.6950  136.4800 C   0  0  0  0  0  2  0  0  0  0  0  0
  181.5900  177.3750  136.1530 C   0  0  1  0  0  3  0  0  0  0  0  0
  179.0000  178.8770  137.8650 O   0  0  0  0  0  1  0  0  0  0  0  0
  183.3550  176.5680  138.8590 N   0  0  1  0  0  0  0  0  0  0  0  0
  183.0900  177.3180  136.4540 C   0  0  0  0  0  2  0  0  0  0  0  0
  180.7270  176.2800  136.7640 C   0  0  1  0  0  3  0  0  0  0  0  0
  184.8310  179.5270  143.8450 C   0  0  0  0  0  3  0  0  0  0  0  0
  184.6430  179.1200  142.5230 C   0  0  0  0  0  0  0  0  0  0  0  0
  184.8780  178.2380  137.8620 C   0  0  0  0  0  2  0  0  0  0  0  0
  185.0210  178.4280  140.3430 C   0  0  2  0  0  3  0  0  0  0  0  0
  187.0460  179.2650  141.6970 C   0  0  0  0  0  2  0  0  0  0  0  0
  187.2540  178.0430  143.7800 C   0  0  0  0  0  3  0  0  0  0  0  0
  187.6410  176.9080  144.6700 C   0  0  1  0  0  3  0  0  0  0  0  0
  189.4150  176.4150  142.3100 C   0  0  0  0  0  3  0  0  0  0  0  0
  189.8910  176.4920  143.7040 C   0  0  0  0  0  3  0  0  0  0  0  0
  189.1220  176.7530  144.7600 C   0  0  0  0  0  3  0  0  0  0  0  0
  187.1240  177.1200  145.9340 F   0  0  0  0  0  0  0  0  0  0  0  0
  188.4030  177.1150  141.7830 C   0  0  0  0  0  3  0  0  0  0  0  0
  187.5660  178.1110  142.4840 C   0  0  0  0  0  0  0  0  0  0  0  0
  1  8  1  0  0  0  0
  1 16  1  1  0  0  0
  2  9  1  0  0  0  0
  4  5  1  0  0  0  0
  6 18  1  6  0  0  0
  6 17  1  0  0  0  0
 10  4  2  0  0  0  0
 11  7  1  1  0  0  0
 11 12  1  0  0  0  0
 12 21  2  0  0  0  0
 12 10  1  0  0  0  0
 13 24  1  0  0  0  0
 13 21  1  0  0  0  0
 14  1  1  0  0  0  0
 15 18  1  1  0  0  0
 15 14  1  0  0  0  0
 15 19  1  0  0  0  0
 17  9  1  6  0  0  0
 17  7  1  0  0  0  0
 19  8  1  1  0  0  0
 19  2  1  0  0  0  0
 20  5  2  0  0  0  0
 21 20  1  0  0  0  0
 22  6  1  0  0  0  0
 22  3  1  0  0  0  0
 23  3  1  6  0  0  0
 23 11  1  0  0  0  0
 23 13  1  0  0  0  0
 24 32  1  0  0  0  0
 25 26  1  0  0  0  0
 26 29  1  0  0  0  0
 26 30  1  1  0  0  0
 27 28  1  0  0  0  0
 28 29  2  0  0  0  0
 31 27  2  0  0  0  0
 31 32  1  0  0  0  0
 32 25  2  0  0  0  0
M  END
>  <MODEL>
9

>  <REMARK>
 VINA RESULT:      -6.6      2.168      4.782
  Name = 
  2 active torsions:
  status: ('A' for Active; 'I' for Inactive)
    1  A    between atoms: N_16  and  C_27
    2  A    between atoms: C_27  and  C_32
                            x       y       z     vdW  Elec       q    Type
                         _______ _______ _______ _____ _____    ______ ____

>  <TORSDO>
F 2

$$$$
