=
 OpenBabel11052413293D

 28 32  0  0  1  0  0  0  0  0999 V2000
  188.9620  177.2990  138.2410 C   0  0  2  0  0  0  0  0  0  0  0  0
  190.4450  177.5700  137.9520 C   0  0  0  0  0  2  0  0  0  0  0  0
  190.8130  175.2390  137.1460 C   0  0  0  0  0  2  0  0  0  0  0  0
  191.0030  178.4660  143.3310 C   0  0  0  0  0  3  0  0  0  0  0  0
  185.3040  179.3270  141.1640 C   0  0  0  0  0  1  0  0  0  0  0  0
  190.9720  176.7150  136.8050 C   0  0  0  0  0  2  0  0  0  0  0  0
  188.7220  175.7840  138.4560 C   0  0  0  0  0  2  0  0  0  0  0  0
  189.0770  177.2290  144.1480 C   0  0  0  0  0  0  0  0  0  0  0  0
  188.8980  178.4830  141.9600 C   0  0  1  0  0  3  0  0  0  0  0  0
  189.3410  174.8810  137.3750 C   0  0  1  0  0  3  0  0  0  0  0  0
  191.1410  177.2380  145.4160 C   0  0  0  0  0  0  0  0  0  0  0  0
  189.6730  178.0600  143.1760 C   0  0  0  0  0  0  0  0  0  0  0  0
  186.9940  177.0760  142.8260 C   0  0  0  0  0  2  0  0  0  0  0  0
  189.8140  176.8280  145.2650 C   0  0  0  0  0  3  0  0  0  0  0  0
  187.0770  178.2510  139.7210 C   0  0  0  0  0  0  0  0  0  0  0  0
  189.2680  177.5930  140.7750 C   0  0  0  0  0  2  0  0  0  0  0  0
  187.7420  176.8320  144.0170 O   0  0  0  0  0  0  0  0  0  0  0  0
  186.6290  177.6570  137.3310 C   0  0  0  0  0  2  0  0  0  0  0  0
  186.6070  178.6900  141.0120 N   0  0  0  0  0  0  0  0  0  0  0  0
  186.2220  178.1370  138.6940 C   0  0  0  0  0  3  0  0  0  0  0  0
  191.8880  176.8260  146.5530 N   0  0  0  0  0  1  0  0  0  0  0  0
  191.7350  178.0570  144.4500 C   0  0  0  0  0  3  0  0  0  0  0  0
  187.3810  178.4300  142.2260 C   0  0  2  0  0  3  0  0  0  0  0  0
  188.1240  177.8420  137.0750 C   0  0  0  0  0  2  0  0  0  0  0  0
  188.5710  178.0880  139.5090 C   0  0  1  0  0  3  0  0  0  0  0  0
  188.5320  174.8700  136.0740 C   0  0  1  0  0  3  0  0  0  0  0  0
  189.2330  174.1940  135.0750 O   0  0  0  0  0  1  0  0  0  0  0  0
  187.1960  174.1800  136.2850 C   0  0  0  0  0  1  0  0  0  0  0  0
  1 24  1  6  0  0  0
  1  7  1  0  0  0  0
  1 25  1  0  0  0  0
  2  1  1  0  0  0  0
  3 10  1  0  0  0  0
  4 22  1  0  0  0  0
  6  3  1  0  0  0  0
  6  2  1  0  0  0  0
  8 14  2  0  0  0  0
  9 16  1  6  0  0  0
  9 23  1  0  0  0  0
  9 12  1  0  0  0  0
 10 26  1  6  0  0  0
 10  7  1  0  0  0  0
 11 21  1  0  0  0  0
 12  4  2  0  0  0  0
 12  8  1  0  0  0  0
 13 17  1  0  0  0  0
 14 11  1  0  0  0  0
 15 19  1  0  0  0  0
 17  8  1  0  0  0  0
 18 20  1  0  0  0  0
 19  5  1  0  0  0  0
 19 23  1  0  0  0  0
 20 15  2  0  0  0  0
 22 11  2  0  0  0  0
 23 13  1  6  0  0  0
 24 18  1  0  0  0  0
 25 15  1  0  0  0  0
 25 16  1  1  0  0  0
 26 28  1  1  0  0  0
 27 26  1  0  0  0  0
M  END
>  <MODEL>
1

>  <REMARK>
 VINA RESULT:      -7.1      0.000      0.000
  Name = 
  1 active torsions:
  status: ('A' for Active; 'I' for Inactive)
    1  A    between atoms: C_6  and  C_11
                            x       y       z     vdW  Elec       q    Type
                         _______ _______ _______ _____ _____    ______ ____

>  <TORSDO>
F 1

$$$$
=
 OpenBabel11052413293D

 28 32  0  0  1  0  0  0  0  0999 V2000
  184.0170  176.3800  137.1550 C   0  0  2  0  0  0  0  0  0  0  0  0
  185.4910  176.0680  137.4500 C   0  0  0  0  0  2  0  0  0  0  0  0
  185.0400  173.6200  137.6090 C   0  0  0  0  0  2  0  0  0  0  0  0
  184.8700  179.0200  142.0270 C   0  0  0  0  0  3  0  0  0  0  0  0
  180.9190  180.4170  137.5160 C   0  0  0  0  0  1  0  0  0  0  0  0
  185.8980  174.6890  136.9440 C   0  0  0  0  0  2  0  0  0  0  0  0
  183.1070  175.2470  137.6900 C   0  0  0  0  0  2  0  0  0  0  0  0
  182.4600  178.8620  142.2850 C   0  0  0  0  0  0  0  0  0  0  0  0
  183.4410  179.0300  139.9610 C   0  0  1  0  0  3  0  0  0  0  0  0
  183.5560  173.8290  137.2940 C   0  0  1  0  0  3  0  0  0  0  0  0
  183.8940  178.8410  144.2370 C   0  0  0  0  0  0  0  0  0  0  0  0
  183.5940  178.9800  141.4560 C   0  0  0  0  0  0  0  0  0  0  0  0
  180.9620  178.7420  140.3220 C   0  0  0  0  0  2  0  0  0  0  0  0
  182.6170  178.7980  143.6720 C   0  0  0  0  0  3  0  0  0  0  0  0
  182.3890  178.3700  137.3460 C   0  0  0  0  0  0  0  0  0  0  0  0
  183.7070  177.6490  139.3670 C   0  0  0  0  0  2  0  0  0  0  0  0
  181.1750  178.8410  141.7300 O   0  0  0  0  0  0  0  0  0  0  0  0
  182.4080  176.9470  135.2870 C   0  0  0  0  0  2  0  0  0  0  0  0
  181.8140  179.4400  138.1230 N   0  0  0  0  0  0  0  0  0  0  0  0
  181.8860  178.0650  136.1410 C   0  0  0  0  0  3  0  0  0  0  0  0
  184.0500  178.7730  145.6490 N   0  0  0  0  0  1  0  0  0  0  0  0
  185.0200  178.9520  143.4160 C   0  0  0  0  0  3  0  0  0  0  0  0
  182.0360  179.5290  139.5670 C   0  0  2  0  0  3  0  0  0  0  0  0
  183.8460  176.5720  135.6410 C   0  0  0  0  0  2  0  0  0  0  0  0
  183.6650  177.7170  137.8420 C   0  0  1  0  0  3  0  0  0  0  0  0
  183.2120  173.4810  135.8410 C   0  0  1  0  0  3  0  0  0  0  0  0
  183.8100  172.2730  135.4800 O   0  0  0  0  0  1  0  0  0  0  0  0
  181.7090  173.3520  135.6680 C   0  0  0  0  0  1  0  0  0  0  0  0
  1 24  1  6  0  0  0
  1  2  1  0  0  0  0
  1  7  1  0  0  0  0
  1 25  1  0  0  0  0
  4 22  1  0  0  0  0
  5 19  1  0  0  0  0
  6  2  1  0  0  0  0
  6  3  1  0  0  0  0
  8 14  2  0  0  0  0
  9 16  1  1  0  0  0
  9 12  1  0  0  0  0
 10 26  1  6  0  0  0
 10  3  1  0  0  0  0
 10  7  1  0  0  0  0
 11 21  1  0  0  0  0
 12  4  2  0  0  0  0
 12  8  1  0  0  0  0
 13 17  1  0  0  0  0
 14 11  1  0  0  0  0
 15 25  1  0  0  0  0
 15 19  1  0  0  0  0
 17  8  1  0  0  0  0
 18 24  1  0  0  0  0
 18 20  1  0  0  0  0
 19 23  1  0  0  0  0
 20 15  2  0  0  0  0
 22 11  2  0  0  0  0
 23  9  1  0  0  0  0
 23 13  1  1  0  0  0
 25 16  1  1  0  0  0
 26 28  1  1  0  0  0
 27 26  1  0  0  0  0
M  END
>  <MODEL>
2

>  <REMARK>
 VINA RESULT:      -6.4      4.682      6.068
  Name = 
  1 active torsions:
  status: ('A' for Active; 'I' for Inactive)
    1  A    between atoms: C_6  and  C_11
                            x       y       z     vdW  Elec       q    Type
                         _______ _______ _______ _____ _____    ______ ____

>  <TORSDO>
F 1

$$$$
=
 OpenBabel11052413293D

 28 32  0  0  1  0  0  0  0  0999 V2000
  182.7890  178.5940  140.5940 C   0  0  2  0  0  0  0  0  0  0  0  0
  183.0230  179.1170  139.1700 C   0  0  0  0  0  2  0  0  0  0  0  0
  181.9450  177.1120  138.1530 C   0  0  0  0  0  2  0  0  0  0  0  0
  188.3830  178.7810  140.2680 C   0  0  0  0  0  3  0  0  0  0  0  0
  184.7800  179.3780  145.2250 C   0  0  0  0  0  1  0  0  0  0  0  0
  181.9520  178.6340  138.1970 C   0  0  0  0  0  2  0  0  0  0  0  0
  182.6320  177.0530  140.5840 C   0  0  0  0  0  2  0  0  0  0  0  0
  188.3240  177.1460  142.0640 C   0  0  0  0  0  0  0  0  0  0  0  0
  186.4630  178.8460  141.8860 C   0  0  1  0  0  3  0  0  0  0  0  0
  181.6420  176.5200  139.5330 C   0  0  1  0  0  3  0  0  0  0  0  0
  190.1400  177.1240  140.4620 C   0  0  0  0  0  0  0  0  0  0  0  0
  187.7550  178.2530  141.4020 C   0  0  0  0  0  0  0  0  0  0  0  0
  186.4250  177.0390  143.6430 C   0  0  0  0  0  2  0  0  0  0  0  0
  189.5170  176.5910  141.5930 C   0  0  0  0  0  3  0  0  0  0  0  0
  183.7730  178.9150  142.9550 C   0  0  0  0  0  0  0  0  0  0  0  0
  185.3030  178.3180  141.0460 C   0  0  0  0  0  2  0  0  0  0  0  0
  187.7190  176.6190  143.2110 O   0  0  0  0  0  0  0  0  0  0  0  0
  181.2940  178.8490  142.6180 C   0  0  0  0  0  2  0  0  0  0  0  0
  184.9160  178.9710  143.8320 N   0  0  0  0  0  0  0  0  0  0  0  0
  182.5310  178.9360  143.4630 C   0  0  0  0  0  3  0  0  0  0  0  0
  191.3530  176.5560  139.9830 N   0  0  0  0  0  1  0  0  0  0  0  0
  189.5740  178.2180  139.8000 C   0  0  0  0  0  3  0  0  0  0  0  0
  186.2370  178.5350  143.3790 C   0  0  2  0  0  3  0  0  0  0  0  0
  181.5460  179.2830  141.1750 C   0  0  0  0  0  2  0  0  0  0  0  0
  184.0010  179.0030  141.4580 C   0  0  1  0  0  3  0  0  0  0  0  0
  180.1780  176.7120  139.9440 C   0  0  1  0  0  3  0  0  0  0  0  0
  179.3450  176.5940  138.8300 O   0  0  0  0  0  1  0  0  0  0  0  0
  179.7730  175.6680  140.9690 C   0  0  0  0  0  1  0  0  0  0  0  0
  1  2  1  6  0  0  0
  1 24  1  0  0  0  0
  1 25  1  0  0  0  0
  3  6  1  0  0  0  0
  3 10  1  0  0  0  0
  4 12  1  0  0  0  0
  6  2  1  0  0  0  0
  7  1  1  0  0  0  0
  8 17  1  0  0  0  0
  9 16  1  6  0  0  0
  9 23  1  0  0  0  0
 10 26  1  1  0  0  0
 10  7  1  0  0  0  0
 11 14  2  0  0  0  0
 12  9  1  0  0  0  0
 12  8  2  0  0  0  0
 14  8  1  0  0  0  0
 15 20  2  0  0  0  0
 15 19  1  0  0  0  0
 17 13  1  0  0  0  0
 18 20  1  0  0  0  0
 19  5  1  0  0  0  0
 21 11  1  0  0  0  0
 22  4  2  0  0  0  0
 22 11  1  0  0  0  0
 23 13  1  6  0  0  0
 23 19  1  0  0  0  0
 24 18  1  0  0  0  0
 25 16  1  6  0  0  0
 25 15  1  0  0  0  0
 26 28  1  1  0  0  0
 27 26  1  0  0  0  0
M  END
>  <MODEL>
3

>  <REMARK>
 VINA RESULT:      -6.3      3.733      6.168
  Name = 
  1 active torsions:
  status: ('A' for Active; 'I' for Inactive)
    1  A    between atoms: C_6  and  C_11
                            x       y       z     vdW  Elec       q    Type
                         _______ _______ _______ _____ _____    ______ ____

>  <TORSDO>
F 1

$$$$
=
 OpenBabel11052413293D

 28 32  0  0  1  0  0  0  0  0999 V2000
  179.9070  180.9680  138.1780 C   0  0  2  0  0  0  0  0  0  0  0  0
  179.1870  181.8500  139.2070 C   0  0  0  0  0  2  0  0  0  0  0  0
  180.2540  183.9220  138.3210 C   0  0  0  0  0  2  0  0  0  0  0  0
  181.9420  179.0700  143.0450 C   0  0  0  0  0  3  0  0  0  0  0  0
  181.1900  176.0500  137.7320 C   0  0  0  0  0  1  0  0  0  0  0  0
  178.9310  183.2570  138.6790 C   0  0  0  0  0  2  0  0  0  0  0  0
  181.1940  181.6670  137.6730 C   0  0  0  0  0  2  0  0  0  0  0  0
  183.8040  178.2700  141.7040 C   0  0  0  0  0  0  0  0  0  0  0  0
  181.5070  178.4160  140.6590 C   0  0  1  0  0  3  0  0  0  0  0  0
  180.9950  183.1310  137.2400 C   0  0  1  0  0  3  0  0  0  0  0  0
  184.1620  178.9320  144.0060 C   0  0  0  0  0  0  0  0  0  0  0  0
  182.4340  178.5790  141.8300 C   0  0  0  0  0  0  0  0  0  0  0  0
  183.5190  177.7110  139.3130 C   0  0  0  0  0  2  0  0  0  0  0  0
  184.6590  178.4430  142.7960 C   0  0  0  0  0  3  0  0  0  0  0  0
  180.6170  178.5050  137.9060 C   0  0  0  0  0  0  0  0  0  0  0  0
  181.2880  179.7650  139.9800 C   0  0  0  0  0  2  0  0  0  0  0  0
  184.3060  177.7580  140.5020 O   0  0  0  0  0  0  0  0  0  0  0  0
  179.5800  179.7400  135.9910 C   0  0  0  0  0  2  0  0  0  0  0  0
  181.2540  177.3250  138.4370 N   0  0  0  0  0  0  0  0  0  0  0  0
  180.2200  178.5380  136.6250 C   0  0  0  0  0  3  0  0  0  0  0  0
  185.0360  179.1090  145.1140 N   0  0  0  0  0  1  0  0  0  0  0  0
  182.8050  179.2450  144.1320 C   0  0  0  0  0  3  0  0  0  0  0  0
  182.0620  177.3860  139.6550 C   0  0  2  0  0  3  0  0  0  0  0  0
  178.9400  180.6660  137.0240 C   0  0  0  0  0  2  0  0  0  0  0  0
  180.2580  179.6280  138.8590 C   0  0  1  0  0  3  0  0  0  0  0  0
  180.3330  183.2580  135.8640 C   0  0  1  0  0  3  0  0  0  0  0  0
  180.1920  184.6030  135.5180 O   0  0  0  0  0  1  0  0  0  0  0  0
  181.1720  182.5680  134.8040 C   0  0  0  0  0  1  0  0  0  0  0  0
  1 24  1  6  0  0  0
  1 25  1  0  0  0  0
  1  2  1  0  0  0  0
  3  6  1  0  0  0  0
  4 22  1  0  0  0  0
  5 19  1  0  0  0  0
  6  2  1  0  0  0  0
  7  1  1  0  0  0  0
  8 12  1  0  0  0  0
  8 14  2  0  0  0  0
  9 16  1  6  0  0  0
  9 12  1  0  0  0  0
 10 26  1  6  0  0  0
 10  7  1  0  0  0  0
 10  3  1  0  0  0  0
 11 22  2  0  0  0  0
 11 21  1  0  0  0  0
 12  4  2  0  0  0  0
 13 17  1  0  0  0  0
 14 11  1  0  0  0  0
 15 19  1  0  0  0  0
 15 25  1  0  0  0  0
 17  8  1  0  0  0  0
 18 20  1  0  0  0  0
 18 24  1  0  0  0  0
 19 23  1  0  0  0  0
 20 15  2  0  0  0  0
 23 13  1  6  0  0  0
 23  9  1  0  0  0  0
 25 16  1  1  0  0  0
 26 28  1  6  0  0  0
 27 26  1  0  0  0  0
M  END
>  <MODEL>
4

>  <REMARK>
 VINA RESULT:      -5.9      6.122      9.019
  Name = 
  1 active torsions:
  status: ('A' for Active; 'I' for Inactive)
    1  A    between atoms: C_6  and  C_11
                            x       y       z     vdW  Elec       q    Type
                         _______ _______ _______ _____ _____    ______ ____

>  <TORSDO>
F 1

$$$$
=
 OpenBabel11052413293D

 28 32  0  0  1  0  0  0  0  0999 V2000
  187.3290  177.4230  136.5570 C   0  0  2  0  0  0  0  0  0  0  0  0
  187.5840  178.9180  136.7930 C   0  0  0  0  0  2  0  0  0  0  0  0
  189.3520  178.4470  138.4890 C   0  0  0  0  0  2  0  0  0  0  0  0
  182.4130  179.1940  138.5900 C   0  0  0  0  0  3  0  0  0  0  0  0
  183.5440  174.5330  134.7280 C   0  0  0  0  0  1  0  0  0  0  0  0
  189.0270  179.1970  137.2040 C   0  0  0  0  0  2  0  0  0  0  0  0
  187.7780  176.5980  137.7890 C   0  0  0  0  0  2  0  0  0  0  0  0
  182.0710  176.8650  139.1920 C   0  0  0  0  0  0  0  0  0  0  0  0
  183.4740  177.4190  137.1640 C   0  0  1  0  0  3  0  0  0  0  0  0
  189.1880  176.9360  138.3040 C   0  0  1  0  0  3  0  0  0  0  0  0
  181.0890  178.6240  140.5370 C   0  0  0  0  0  0  0  0  0  0  0  0
  182.6270  177.8350  138.3330 C   0  0  0  0  0  0  0  0  0  0  0  0
  183.1630  175.0380  137.9340 C   0  0  0  0  0  2  0  0  0  0  0  0
  181.3000  177.2660  140.2870 C   0  0  0  0  0  3  0  0  0  0  0  0
  185.4420  175.9020  135.6790 C   0  0  0  0  0  0  0  0  0  0  0  0
  184.9520  177.5430  137.5250 C   0  0  0  0  0  2  0  0  0  0  0  0
  182.2590  175.5020  138.9370 O   0  0  0  0  0  0  0  0  0  0  0  0
  187.8110  175.5200  134.9620 C   0  0  0  0  0  2  0  0  0  0  0  0
  184.0580  175.4990  135.6910 N   0  0  0  0  0  0  0  0  0  0  0  0
  186.3480  175.1840  134.9970 C   0  0  0  0  0  3  0  0  0  0  0  0
  180.3050  179.0290  141.6530 N   0  0  0  0  0  1  0  0  0  0  0  0
  181.6440  179.5870  139.6890 C   0  0  0  0  0  3  0  0  0  0  0  0
  183.1420  175.9780  136.7260 C   0  0  2  0  0  3  0  0  0  0  0  0
  188.0740  176.9890  135.2870 C   0  0  0  0  0  2  0  0  0  0  0  0
  185.8180  177.2310  136.3060 C   0  0  1  0  0  3  0  0  0  0  0  0
  190.2980  176.3300  137.4370 C   0  0  1  0  0  3  0  0  0  0  0  0
  191.5470  176.7760  137.8700 O   0  0  0  0  0  1  0  0  0  0  0  0
  190.2670  174.8140  137.5180 C   0  0  0  0  0  1  0  0  0  0  0  0
  1 24  1  6  0  0  0
  1  2  1  0  0  0  0
  1  7  1  0  0  0  0
  2  6  1  0  0  0  0
  4 22  1  0  0  0  0
  5 19  1  0  0  0  0
  6  3  1  0  0  0  0
  7 10  1  0  0  0  0
  8 14  2  0  0  0  0
  9 16  1  1  0  0  0
  9 12  1  0  0  0  0
 10 26  1  6  0  0  0
 10  3  1  0  0  0  0
 11 21  1  0  0  0  0
 12  4  2  0  0  0  0
 12  8  1  0  0  0  0
 13 17  1  0  0  0  0
 14 11  1  0  0  0  0
 15 19  1  0  0  0  0
 15 25  1  0  0  0  0
 17  8  1  0  0  0  0
 18 20  1  0  0  0  0
 18 24  1  0  0  0  0
 19 23  1  0  0  0  0
 20 15  2  0  0  0  0
 22 11  2  0  0  0  0
 23  9  1  0  0  0  0
 23 13  1  1  0  0  0
 25  1  1  0  0  0  0
 25 16  1  1  0  0  0
 26 28  1  1  0  0  0
 26 27  1  0  0  0  0
M  END
>  <MODEL>
5

>  <REMARK>
 VINA RESULT:      -5.8      4.637      6.749
  Name = 
  1 active torsions:
  status: ('A' for Active; 'I' for Inactive)
    1  A    between atoms: C_6  and  C_11
                            x       y       z     vdW  Elec       q    Type
                         _______ _______ _______ _____ _____    ______ ____

>  <TORSDO>
F 1

$$$$
=
 OpenBabel11052413293D

 28 32  0  0  1  0  0  0  0  0999 V2000
  189.3530  177.7520  141.4500 C   0  0  2  0  0  0  0  0  0  0  0  0
  188.0140  178.5000  141.4090 C   0  0  0  0  0  2  0  0  0  0  0  0
  187.1250  177.2110  143.3500 C   0  0  0  0  0  2  0  0  0  0  0  0
  187.3060  176.3170  136.4310 C   0  0  0  0  0  3  0  0  0  0  0  0
  193.1800  176.7860  138.2170 C   0  0  0  0  0  1  0  0  0  0  0  0
  187.3720  178.6050  142.7890 C   0  0  0  0  0  2  0  0  0  0  0  0
  189.1830  176.3780  142.1430 C   0  0  0  0  0  2  0  0  0  0  0  0
  188.7880  174.4010  136.6170 C   0  0  0  0  0  0  0  0  0  0  0  0
  189.4410  176.5750  137.7300 C   0  0  1  0  0  3  0  0  0  0  0  0
  188.4360  176.4300  143.4880 C   0  0  1  0  0  3  0  0  0  0  0  0
  186.7070  174.2120  135.3920 C   0  0  0  0  0  0  0  0  0  0  0  0
  188.4970  175.7510  136.9000 C   0  0  0  0  0  0  0  0  0  0  0  0
  190.8560  174.5020  137.9680 C   0  0  0  0  0  2  0  0  0  0  0  0
  187.8930  173.6400  135.8600 C   0  0  0  0  0  3  0  0  0  0  0  0
  191.3030  177.1960  139.8570 C   0  0  0  0  0  0  0  0  0  0  0  0
  188.9460  176.6330  139.1730 C   0  0  0  0  0  2  0  0  0  0  0  0
  189.9850  173.8260  137.0620 O   0  0  0  0  0  0  0  0  0  0  0  0
  191.7600  177.9610  142.1970 C   0  0  0  0  0  2  0  0  0  0  0  0
  191.7740  176.6970  138.5890 N   0  0  0  0  0  0  0  0  0  0  0  0
  192.1750  177.4700  140.8400 C   0  0  0  0  0  3  0  0  0  0  0  0
  185.7980  173.4340  134.6240 N   0  0  0  0  0  1  0  0  0  0  0  0
  186.4140  175.5490  135.6770 C   0  0  0  0  0  3  0  0  0  0  0  0
  190.8720  176.0030  137.6700 C   0  0  2  0  0  3  0  0  0  0  0  0
  190.3850  178.6260  142.1760 C   0  0  0  0  0  2  0  0  0  0  0  0
  189.8370  177.5610  139.9960 C   0  0  1  0  0  3  0  0  0  0  0  0
  189.3100  176.9520  144.6340 C   0  0  1  0  0  3  0  0  0  0  0  0
  188.6030  176.9120  145.8360 O   0  0  0  0  0  1  0  0  0  0  0  0
  190.5610  176.1030  144.7760 C   0  0  0  0  0  1  0  0  0  0  0  0
  1  2  1  6  0  0  0
  1  7  1  0  0  0  0
  1 24  1  0  0  0  0
  2  6  1  0  0  0  0
  3 10  1  0  0  0  0
  4 12  1  0  0  0  0
  5 19  1  0  0  0  0
  6  3  1  0  0  0  0
  7 10  1  0  0  0  0
  8 12  2  0  0  0  0
  8 17  1  0  0  0  0
  9 16  1  1  0  0  0
 10 26  1  1  0  0  0
 11 22  1  0  0  0  0
 11 14  2  0  0  0  0
 12  9  1  0  0  0  0
 14  8  1  0  0  0  0
 15 25  1  0  0  0  0
 15 20  2  0  0  0  0
 17 13  1  0  0  0  0
 19 15  1  0  0  0  0
 20 18  1  0  0  0  0
 21 11  1  0  0  0  0
 22  4  2  0  0  0  0
 23  9  1  0  0  0  0
 23 13  1  1  0  0  0
 23 19  1  0  0  0  0
 24 18  1  0  0  0  0
 25 16  1  1  0  0  0
 25  1  1  0  0  0  0
 26 28  1  1  0  0  0
 26 27  1  0  0  0  0
M  END
>  <MODEL>
6

>  <REMARK>
 VINA RESULT:      -5.6      2.406      7.609
  Name = 
  1 active torsions:
  status: ('A' for Active; 'I' for Inactive)
    1  A    between atoms: C_6  and  C_11
                            x       y       z     vdW  Elec       q    Type
                         _______ _______ _______ _____ _____    ______ ____

>  <TORSDO>
F 1

$$$$
=
 OpenBabel11052413293D

 28 32  0  0  1  0  0  0  0  0999 V2000
  183.1340  175.9940  136.4860 C   0  0  2  0  0  0  0  0  0  0  0  0
  184.3590  175.4040  135.7750 C   0  0  0  0  0  2  0  0  0  0  0  0
  183.7650  173.0840  136.4690 C   0  0  0  0  0  2  0  0  0  0  0  0
  187.4010  178.3490  139.2570 C   0  0  0  0  0  3  0  0  0  0  0  0
  181.7220  180.5380  138.3260 C   0  0  0  0  0  1  0  0  0  0  0  0
  184.1110  173.9810  135.2880 C   0  0  0  0  0  2  0  0  0  0  0  0
  182.6540  175.0450  137.6120 C   0  0  0  0  0  2  0  0  0  0  0  0
  185.7880  178.6450  141.0500 C   0  0  0  0  0  0  0  0  0  0  0  0
  184.9830  178.6610  138.6540 C   0  0  1  0  0  3  0  0  0  0  0  0
  182.5030  173.5740  137.1850 C   0  0  1  0  0  3  0  0  0  0  0  0
  188.1320  178.3230  141.5660 C   0  0  0  0  0  0  0  0  0  0  0  0
  186.0820  178.5600  139.6730 C   0  0  0  0  0  0  0  0  0  0  0  0
  183.3680  178.8420  140.5820 C   0  0  0  0  0  2  0  0  0  0  0  0
  186.8170  178.5320  141.9880 C   0  0  0  0  0  3  0  0  0  0  0  0
  182.3730  178.2530  137.4690 C   0  0  0  0  0  0  0  0  0  0  0  0
  184.5730  177.2640  138.1940 C   0  0  0  0  0  2  0  0  0  0  0  0
  184.4770  178.8770  141.4810 O   0  0  0  0  0  0  0  0  0  0  0  0
  180.8000  176.8830  136.0840 C   0  0  0  0  0  2  0  0  0  0  0  0
  182.6320  179.4000  138.3040 N   0  0  0  0  0  0  0  0  0  0  0  0
  181.1560  178.0680  136.9350 C   0  0  0  0  0  3  0  0  0  0  0  0
  189.1770  178.2050  142.5250 N   0  0  0  0  0  1  0  0  0  0  0  0
  188.4250  178.2320  140.2020 C   0  0  0  0  0  3  0  0  0  0  0  0
  183.7690  179.4220  139.2240 C   0  0  2  0  0  3  0  0  0  0  0  0
  182.0300  176.2390  135.4470 C   0  0  0  0  0  2  0  0  0  0  0  0
  183.5360  177.3630  137.0760 C   0  0  1  0  0  3  0  0  0  0  0  0
  181.2320  173.3200  136.3670 C   0  0  1  0  0  3  0  0  0  0  0  0
  181.2460  172.0270  135.8420 O   0  0  0  0  0  1  0  0  0  0  0  0
  179.9990  173.4780  137.2390 C   0  0  0  0  0  1  0  0  0  0  0  0
  1 24  1  6  0  0  0
  1 25  1  0  0  0  0
  1  7  1  0  0  0  0
  2  1  1  0  0  0  0
  3 10  1  0  0  0  0
  4 12  2  0  0  0  0
  4 22  1  0  0  0  0
  6  2  1  0  0  0  0
  6  3  1  0  0  0  0
  8 17  1  0  0  0  0
  8 14  2  0  0  0  0
  9 16  1  1  0  0  0
  9 23  1  0  0  0  0
  9 12  1  0  0  0  0
 10 26  1  6  0  0  0
 10  7  1  0  0  0  0
 11 14  1  0  0  0  0
 11 21  1  0  0  0  0
 12  8  1  0  0  0  0
 13 17  1  0  0  0  0
 15 19  1  0  0  0  0
 18 20  1  0  0  0  0
 19  5  1  0  0  0  0
 19 23  1  0  0  0  0
 20 15  2  0  0  0  0
 22 11  2  0  0  0  0
 23 13  1  1  0  0  0
 24 18  1  0  0  0  0
 25 15  1  0  0  0  0
 25 16  1  1  0  0  0
 26 28  1  1  0  0  0
 27 26  1  0  0  0  0
M  END
>  <MODEL>
7

>  <REMARK>
 VINA RESULT:      -5.4      4.086      5.898
  Name = 
  1 active torsions:
  status: ('A' for Active; 'I' for Inactive)
    1  A    between atoms: C_6  and  C_11
                            x       y       z     vdW  Elec       q    Type
                         _______ _______ _______ _____ _____    ______ ____

>  <TORSDO>
F 1

$$$$
=
 OpenBabel11052413293D

 28 32  0  0  1  0  0  0  0  0999 V2000
  189.8810  177.7220  141.1800 C   0  0  2  0  0  0  0  0  0  0  0  0
  189.3190  178.8290  142.0820 C   0  0  0  0  0  2  0  0  0  0  0  0
  189.1650  177.2890  144.0380 C   0  0  0  0  0  2  0  0  0  0  0  0
  185.0220  178.9780  138.6820 C   0  0  0  0  0  3  0  0  0  0  0  0
  190.2060  176.8020  136.1720 C   0  0  0  0  0  1  0  0  0  0  0  0
  189.7010  178.6270  143.5440 C   0  0  0  0  0  2  0  0  0  0  0  0
  189.4810  176.3270  141.7220 C   0  0  0  0  0  2  0  0  0  0  0  0
  185.1920  176.7530  137.7190 C   0  0  0  0  0  0  0  0  0  0  0  0
  187.3080  178.0260  138.2620 C   0  0  1  0  0  3  0  0  0  0  0  0
  189.7460  176.1280  143.2250 C   0  0  1  0  0  3  0  0  0  0  0  0
  183.0160  177.7210  138.1640 C   0  0  0  0  0  0  0  0  0  0  0  0
  185.8100  177.9220  138.2100 C   0  0  0  0  0  0  0  0  0  0  0  0
  187.3860  175.6680  137.3720 C   0  0  0  0  0  2  0  0  0  0  0  0
  183.7980  176.6620  137.6940 C   0  0  0  0  0  3  0  0  0  0  0  0
  190.0460  177.1770  138.6650 C   0  0  0  0  0  0  0  0  0  0  0  0
  187.8010  177.7130  139.6720 C   0  0  0  0  0  2  0  0  0  0  0  0
  185.9660  175.6970  137.2250 O   0  0  0  0  0  0  0  0  0  0  0  0
  192.0230  176.8390  140.1630 C   0  0  0  0  0  2  0  0  0  0  0  0
  189.4190  177.0510  137.3730 N   0  0  0  0  0  0  0  0  0  0  0  0
  191.3120  176.7700  138.8430 C   0  0  0  0  0  3  0  0  0  0  0  0
  181.5980  177.6230  138.1390 N   0  0  0  0  0  1  0  0  0  0  0  0
  183.6270  178.8780  138.6570 C   0  0  0  0  0  3  0  0  0  0  0  0
  187.9620  177.0790  137.2350 C   0  0  2  0  0  3  0  0  0  0  0  0
  191.4070  177.8780  141.0980 C   0  0  0  0  0  2  0  0  0  0  0  0
  189.3110  177.9270  139.7600 C   0  0  1  0  0  3  0  0  0  0  0  0
  191.2250  175.8760  143.5400 C   0  0  1  0  0  3  0  0  0  0  0  0
  191.6500  176.7190  144.5690 O   0  0  0  0  0  1  0  0  0  0  0  0
  191.4380  174.4360  143.9690 C   0  0  0  0  0  1  0  0  0  0  0  0
  1 24  1  6  0  0  0
  1  7  1  0  0  0  0
  1  2  1  0  0  0  0
  2  6  1  0  0  0  0
  5 19  1  0  0  0  0
  6  3  1  0  0  0  0
  7 10  1  0  0  0  0
  8 12  1  0  0  0  0
  9 16  1  1  0  0  0
 10 26  1  6  0  0  0
 10  3  1  0  0  0  0
 11 22  2  0  0  0  0
 12  9  1  0  0  0  0
 12  4  2  0  0  0  0
 14  8  2  0  0  0  0
 14 11  1  0  0  0  0
 15 20  2  0  0  0  0
 15 25  1  0  0  0  0
 17 13  1  0  0  0  0
 17  8  1  0  0  0  0
 18 24  1  0  0  0  0
 19 15  1  0  0  0  0
 20 18  1  0  0  0  0
 21 11  1  0  0  0  0
 22  4  1  0  0  0  0
 23 13  1  1  0  0  0
 23 19  1  0  0  0  0
 23  9  1  0  0  0  0
 25 16  1  1  0  0  0
 25  1  1  0  0  0  0
 26 28  1  1  0  0  0
 26 27  1  0  0  0  0
M  END
>  <MODEL>
8

>  <REMARK>
 VINA RESULT:      -4.8      2.708      7.025
  Name = 
  1 active torsions:
  status: ('A' for Active; 'I' for Inactive)
    1  A    between atoms: C_6  and  C_11
                            x       y       z     vdW  Elec       q    Type
                         _______ _______ _______ _____ _____    ______ ____

>  <TORSDO>
F 1

$$$$
=
 OpenBabel11052413293D

 28 32  0  0  1  0  0  0  0  0999 V2000
  187.3090  177.3100  136.9340 C   0  0  2  0  0  0  0  0  0  0  0  0
  188.5540  178.0630  137.4210 C   0  0  0  0  0  2  0  0  0  0  0  0
  189.8380  175.9450  137.7170 C   0  0  0  0  0  2  0  0  0  0  0  0
  185.4960  179.7370  141.6510 C   0  0  0  0  0  3  0  0  0  0  0  0
  182.2970  178.2070  136.6180 C   0  0  0  0  0  1  0  0  0  0  0  0
  189.8440  177.3270  137.0740 C   0  0  0  0  0  2  0  0  0  0  0  0
  187.3270  175.8480  137.4460 C   0  0  0  0  0  2  0  0  0  0  0  0
  183.8040  177.9940  141.6400 C   0  0  0  0  0  0  0  0  0  0  0  0
  184.7300  178.8260  139.4390 C   0  0  1  0  0  3  0  0  0  0  0  0
  188.6570  175.1080  137.2160 C   0  0  1  0  0  3  0  0  0  0  0  0
  184.5970  178.9020  143.7400 C   0  0  0  0  0  0  0  0  0  0  0  0
  184.6680  178.8610  140.9400 C   0  0  0  0  0  0  0  0  0  0  0  0
  183.0600  176.9390  139.5310 C   0  0  0  0  0  2  0  0  0  0  0  0
  183.7690  178.0240  143.0360 C   0  0  0  0  0  3  0  0  0  0  0  0
  184.7630  177.6840  136.7800 C   0  0  0  0  0  0  0  0  0  0  0  0
  185.9290  177.9950  138.9900 C   0  0  0  0  0  2  0  0  0  0  0  0
  182.9550  177.1270  140.9420 O   0  0  0  0  0  0  0  0  0  0  0  0
  186.0120  176.6860  134.8540 C   0  0  0  0  0  2  0  0  0  0  0  0
  183.5200  178.0730  137.3990 N   0  0  0  0  0  0  0  0  0  0  0  0
  184.7650  177.1450  135.5510 C   0  0  0  0  0  3  0  0  0  0  0  0
  184.5610  178.9290  145.1620 N   0  0  0  0  0  1  0  0  0  0  0  0
  185.4590  179.7590  143.0490 C   0  0  0  0  0  3  0  0  0  0  0  0
  183.4240  178.2590  138.8470 C   0  0  2  0  0  3  0  0  0  0  0  0
  187.2650  177.3680  135.4000 C   0  0  0  0  0  2  0  0  0  0  0  0
  186.0640  178.0490  137.4690 C   0  0  1  0  0  3  0  0  0  0  0  0
  188.8380  174.6490  135.7650 C   0  0  1  0  0  3  0  0  0  0  0  0
  190.1580  174.2510  135.5460 O   0  0  0  0  0  1  0  0  0  0  0  0
  187.9200  173.4810  135.4590 C   0  0  0  0  0  1  0  0  0  0  0  0
  1 24  1  6  0  0  0
  1  2  1  0  0  0  0
  1  7  1  0  0  0  0
  1 25  1  0  0  0  0
  4 22  1  0  0  0  0
  5 19  1  0  0  0  0
  6  2  1  0  0  0  0
  6  3  1  0  0  0  0
  8 14  2  0  0  0  0
  9 16  1  1  0  0  0
  9 12  1  0  0  0  0
 10 26  1  6  0  0  0
 10  7  1  0  0  0  0
 10  3  1  0  0  0  0
 11 21  1  0  0  0  0
 12  8  1  0  0  0  0
 12  4  2  0  0  0  0
 13 17  1  0  0  0  0
 14 11  1  0  0  0  0
 15 19  1  0  0  0  0
 15 25  1  0  0  0  0
 17  8  1  0  0  0  0
 18 24  1  0  0  0  0
 18 20  1  0  0  0  0
 19 23  1  0  0  0  0
 20 15  2  0  0  0  0
 22 11  2  0  0  0  0
 23  9  1  0  0  0  0
 23 13  1  1  0  0  0
 25 16  1  1  0  0  0
 26 28  1  1  0  0  0
 27 26  1  0  0  0  0
M  END
>  <MODEL>
9

>  <REMARK>
 VINA RESULT:      -4.6      3.627      4.398
  Name = 
  1 active torsions:
  status: ('A' for Active; 'I' for Inactive)
    1  A    between atoms: C_6  and  C_11
                            x       y       z     vdW  Elec       q    Type
                         _______ _______ _______ _____ _____    ______ ____

>  <TORSDO>
F 1

$$$$
