=
 OpenBabel11052414413D

 32 37  0  0  1  0  0  0  0  0999 V2000
  186.7700  178.3490  139.9070 C   0  0  0  0  0  0  0  0  0  0  0  0
  187.5650  178.3780  142.2880 C   0  0  2  0  0  3  0  0  0  0  0  0
  187.0350  178.2400  138.5730 N   0  0  0  0  0  0  0  0  0  0  0  0
  187.8140  178.1470  140.8300 C   0  0  0  0  0  0  0  0  0  0  0  0
  188.6100  177.7240  143.1630 C   0  0  0  0  0  0  0  0  0  0  0  0
  184.8360  178.8880  146.2110 C   0  0  0  0  0  2  0  0  0  0  0  0
  186.1440  177.9810  142.6520 C   0  0  2  0  0  3  0  0  0  0  0  0
  187.0500  177.7660  146.4210 C   0  0  0  0  0  2  0  0  0  0  0  0
  187.0100  177.3340  144.9580 C   0  0  2  0  0  3  0  0  0  0  0  0
  189.0960  177.8110  140.3690 C   0  0  0  0  0  0  0  0  0  0  0  0
  188.3460  177.3620  144.3780 N   0  0  0  0  0  0  0  0  0  0  0  0
  190.1420  177.5580  141.2690 O   0  0  0  0  0  0  0  0  0  0  0  0
  189.3230  177.7000  138.9980 C   0  0  0  0  0  3  0  0  0  0  0  0
  185.1880  178.8390  141.8200 C   0  0  0  0  0  2  0  0  0  0  0  0
  185.4280  178.6350  140.3840 N   0  0  0  0  0  0  0  0  0  0  0  0
  185.9980  178.1110  144.1380 C   0  0  0  0  0  0  0  0  0  0  0  0
  190.0390  177.7390  142.6880 C   0  0  1  0  0  3  0  0  0  0  0  0
  188.2730  177.9270  138.1060 C   0  0  0  0  0  3  0  0  0  0  0  0
  185.6270  177.8200  146.9640 C   0  0  0  0  0  2  0  0  0  0  0  0
  184.9550  178.7350  144.7160 C   0  0  0  0  0  3  0  0  0  0  0  0
  183.1320  177.8330  137.4120 C   0  0  1  0  0  3  0  0  0  0  0  0
  180.2010  180.1920  138.2070 C   0  0  0  0  0  1  0  0  0  0  0  0
  183.1870  176.5800  136.5580 C   0  0  0  0  0  1  0  0  0  0  0  0
  182.6560  180.4520  138.4440 C   0  0  0  0  0  2  0  0  0  0  0  0
  184.3130  178.8130  139.4890 C   0  0  0  0  0  0  0  0  0  0  0  0
  181.6880  178.3420  137.4920 C   0  0  0  0  0  2  0  0  0  0  0  0
  183.7780  180.0420  139.3520 C   0  0  0  0  0  3  0  0  0  0  0  0
  183.7800  177.5820  138.7800 C   0  0  1  0  0  3  0  0  0  0  0  0
  182.9240  176.7340  139.7130 C   0  0  0  0  0  1  0  0  0  0  0  0
  181.4980  179.4690  138.5040 C   0  0  2  0  0  3  0  0  0  0  0  0
  190.7570  179.0110  143.1200 C   0  0  0  0  0  2  0  0  0  0  0  0
  191.6780  178.7420  144.1350 O   0  0  0  0  0  1  0  0  0  0  0  0
  1 15  1  0  0  0  0
  1  4  1  0  0  0  0
  2  4  1  6  0  0  0
  2  7  1  0  0  0  0
  2  5  1  0  0  0  0
  3  1  2  0  0  0  0
  5 11  2  0  0  0  0
  6 19  1  0  0  0  0
  7 14  1  6  0  0  0
  7 16  1  0  0  0  0
  8 19  1  0  0  0  0
  9  8  1  1  0  0  0
 10  4  2  0  0  0  0
 10 12  1  0  0  0  0
 11  9  1  0  0  0  0
 12 17  1  0  0  0  0
 13 10  1  0  0  0  0
 15 14  1  0  0  0  0
 16 20  2  0  0  0  0
 16  9  1  0  0  0  0
 17 31  1  6  0  0  0
 17  5  1  0  0  0  0
 18  3  1  0  0  0  0
 18 13  2  0  0  0  0
 20  6  1  0  0  0  0
 21 23  1  6  0  0  0
 21 26  1  0  0  0  0
 21 28  1  0  0  0  0
 24 30  1  0  0  0  0
 24 27  1  0  0  0  0
 25 15  1  0  0  0  0
 26 30  1  0  0  0  0
 27 25  2  0  0  0  0
 28 25  1  0  0  0  0
 28 29  1  1  0  0  0
 30 22  1  6  0  0  0
 31 32  1  0  0  0  0
M  END
>  <MODEL>
1

>  <REMARK>
 VINA RESULT:      -9.4      0.000      0.000
  Name = 
  2 active torsions:
  status: ('A' for Active; 'I' for Inactive)
    1  A    between atoms: C_13  and  C_29
    2  A    between atoms: C_16  and  N_27
                            x       y       z     vdW  Elec       q    Type
                         _______ _______ _______ _____ _____    ______ ____

>  <TORSDO>
F 2

$$$$
=
 OpenBabel11052414413D

 32 37  0  0  1  0  0  0  0  0999 V2000
  189.0470  177.4710  141.8850 C   0  0  0  0  0  0  0  0  0  0  0  0
  187.1800  177.7240  140.2260 C   0  0  2  0  0  3  0  0  0  0  0  0
  190.3690  177.2780  142.1570 N   0  0  0  0  0  0  0  0  0  0  0  0
  188.6390  177.6290  140.5470 C   0  0  0  0  0  0  0  0  0  0  0  0
  186.9270  178.3080  138.8550 C   0  0  0  0  0  0  0  0  0  0  0  0
  182.5430  178.4920  141.2290 C   0  0  0  0  0  2  0  0  0  0  0  0
  186.4410  178.4530  141.3350 C   0  0  2  0  0  3  0  0  0  0  0  0
  183.4230  179.1740  139.0010 C   0  0  0  0  0  2  0  0  0  0  0  0
  184.8320  179.3300  139.5640 C   0  0  2  0  0  3  0  0  0  0  0  0
  189.5960  177.6150  139.5210 C   0  0  0  0  0  0  0  0  0  0  0  0
  185.8270  178.9330  138.5770 N   0  0  0  0  0  0  0  0  0  0  0  0
  189.2230  177.8180  138.1840 O   0  0  0  0  0  0  0  0  0  0  0  0
  190.9400  177.4250  139.8410 C   0  0  0  0  0  3  0  0  0  0  0  0
  186.6360  177.6620  142.6310 C   0  0  0  0  0  2  0  0  0  0  0  0
  188.0660  177.5480  142.9540 N   0  0  0  0  0  0  0  0  0  0  0  0
  185.0170  178.6300  140.8970 C   0  0  0  0  0  0  0  0  0  0  0  0
  187.8630  177.9250  137.7400 C   0  0  1  0  0  3  0  0  0  0  0  0
  191.3110  177.2500  141.1760 C   0  0  0  0  0  3  0  0  0  0  0  0
  182.4110  179.5020  140.0920 C   0  0  0  0  0  2  0  0  0  0  0  0
  183.9700  178.3410  141.6920 C   0  0  0  0  0  3  0  0  0  0  0  0
  190.3230  176.7250  145.9510 C   0  0  1  0  0  3  0  0  0  0  0  0
  188.3010  178.4030  148.7590 C   0  0  0  0  0  1  0  0  0  0  0  0
  191.7900  176.3450  145.8820 C   0  0  0  0  0  1  0  0  0  0  0  0
  187.6100  177.1320  146.7450 C   0  0  0  0  0  2  0  0  0  0  0  0
  188.4290  177.4320  144.3440 C   0  0  0  0  0  0  0  0  0  0  0  0
  190.0430  177.4750  147.2580 C   0  0  0  0  0  2  0  0  0  0  0  0
  187.4510  177.3130  145.2630 C   0  0  0  0  0  3  0  0  0  0  0  0
  189.9050  177.4940  144.6910 C   0  0  1  0  0  3  0  0  0  0  0  0
  190.4220  178.9270  144.6520 C   0  0  0  0  0  1  0  0  0  0  0  0
  188.6450  178.0860  147.3190 C   0  0  2  0  0  3  0  0  0  0  0  0
  187.4190  176.6370  137.0570 C   0  0  0  0  0  2  0  0  0  0  0  0
  188.5220  175.8590  136.6990 O   0  0  0  0  0  1  0  0  0  0  0  0
  1  3  1  0  0  0  0
  1 15  1  0  0  0  0
  2  5  1  6  0  0  0
  2  4  1  0  0  0  0
  2  7  1  0  0  0  0
  4  1  2  0  0  0  0
  6 20  1  0  0  0  0
  7 14  1  1  0  0  0
  8 19  1  0  0  0  0
  9  8  1  6  0  0  0
  9 16  1  0  0  0  0
 10 13  2  0  0  0  0
 10  4  1  0  0  0  0
 11  5  2  0  0  0  0
 11  9  1  0  0  0  0
 12 10  1  0  0  0  0
 13 18  1  0  0  0  0
 14 15  1  0  0  0  0
 15 25  1  0  0  0  0
 16  7  1  0  0  0  0
 16 20  2  0  0  0  0
 17 31  1  1  0  0  0
 17 12  1  0  0  0  0
 17  5  1  0  0  0  0
 18  3  2  0  0  0  0
 19  6  1  0  0  0  0
 21 23  1  6  0  0  0
 21 26  1  0  0  0  0
 24 30  1  0  0  0  0
 25 28  1  0  0  0  0
 25 27  2  0  0  0  0
 26 30  1  0  0  0  0
 27 24  1  0  0  0  0
 28 29  1  1  0  0  0
 28 21  1  0  0  0  0
 30 22  1  1  0  0  0
 32 31  1  0  0  0  0
M  END
>  <MODEL>
2

>  <REMARK>
 VINA RESULT:      -8.6      2.136      7.205
  Name = 
  2 active torsions:
  status: ('A' for Active; 'I' for Inactive)
    1  A    between atoms: C_13  and  C_29
    2  A    between atoms: C_16  and  N_27
                            x       y       z     vdW  Elec       q    Type
                         _______ _______ _______ _____ _____    ______ ____

>  <TORSDO>
F 2

$$$$
=
 OpenBabel11052414413D

 32 37  0  0  1  0  0  0  0  0999 V2000
  187.4040  178.0900  141.7090 C   0  0  0  0  0  0  0  0  0  0  0  0
  188.5780  177.9470  139.4940 C   0  0  2  0  0  3  0  0  0  0  0  0
  186.2940  178.3930  142.4410 N   0  0  0  0  0  0  0  0  0  0  0  0
  187.3380  178.1630  140.3040 C   0  0  0  0  0  0  0  0  0  0  0  0
  188.2750  177.6340  138.0470 C   0  0  0  0  0  0  0  0  0  0  0  0
  193.0580  176.3880  138.7240 C   0  0  0  0  0  2  0  0  0  0  0  0
  189.4700  176.9130  140.1580 C   0  0  2  0  0  3  0  0  0  0  0  0
  191.4160  176.3070  136.8530 C   0  0  0  0  0  2  0  0  0  0  0  0
  190.2490  176.2220  137.8330 C   0  0  2  0  0  3  0  0  0  0  0  0
  186.1310  178.5150  139.6810 C   0  0  0  0  0  0  0  0  0  0  0  0
  189.0920  176.9430  137.3170 N   0  0  0  0  0  0  0  0  0  0  0  0
  186.0240  178.5490  138.2830 O   0  0  0  0  0  0  0  0  0  0  0  0
  185.0150  178.8080  140.4660 C   0  0  0  0  0  3  0  0  0  0  0  0
  189.8430  177.4350  141.5480 C   0  0  0  0  0  2  0  0  0  0  0  0
  188.6340  177.6650  142.3530 N   0  0  0  0  0  0  0  0  0  0  0  0
  190.6250  176.6470  139.2390 C   0  0  0  0  0  0  0  0  0  0  0  0
  187.1310  178.3600  137.3900 C   0  0  1  0  0  3  0  0  0  0  0  0
  185.1190  178.7490  141.8570 C   0  0  0  0  0  3  0  0  0  0  0  0
  192.6340  175.6290  137.4690 C   0  0  0  0  0  2  0  0  0  0  0  0
  191.9030  176.6240  139.6630 C   0  0  0  0  0  3  0  0  0  0  0  0
  190.3430  176.8260  145.6890 C   0  0  1  0  0  3  0  0  0  0  0  0
  187.8410  178.4440  148.1190 C   0  0  0  0  0  1  0  0  0  0  0  0
  191.8040  176.4620  145.8730 C   0  0  0  0  0  1  0  0  0  0  0  0
  187.5280  177.1940  146.0010 C   0  0  0  0  0  2  0  0  0  0  0  0
  188.7510  177.5350  143.7840 C   0  0  0  0  0  0  0  0  0  0  0  0
  189.8290  177.5550  146.9360 C   0  0  0  0  0  2  0  0  0  0  0  0
  187.6280  177.3930  144.5170 C   0  0  0  0  0  3  0  0  0  0  0  0
  190.1420  177.6070  144.3840 C   0  0  1  0  0  3  0  0  0  0  0  0
  190.6400  179.0460  144.4530 C   0  0  0  0  0  1  0  0  0  0  0  0
  188.4350  178.1510  146.7580 C   0  0  2  0  0  3  0  0  0  0  0  0
  187.5790  179.6930  136.8030 C   0  0  0  0  0  2  0  0  0  0  0  0
  188.8210  180.0700  137.3180 O   0  0  0  0  0  1  0  0  0  0  0  0
  1 15  1  0  0  0  0
  1  3  1  0  0  0  0
  2  5  1  6  0  0  0
  2  7  1  0  0  0  0
  2  4  1  0  0  0  0
  4  1  2  0  0  0  0
  6 20  1  0  0  0  0
  7 14  1  1  0  0  0
  8 19  1  0  0  0  0
  9  8  1  6  0  0  0
  9 16  1  0  0  0  0
 10  4  1  0  0  0  0
 10 13  2  0  0  0  0
 11  9  1  0  0  0  0
 11  5  2  0  0  0  0
 12 10  1  0  0  0  0
 13 18  1  0  0  0  0
 14 15  1  0  0  0  0
 15 25  1  0  0  0  0
 16 20  2  0  0  0  0
 16  7  1  0  0  0  0
 17 31  1  1  0  0  0
 17  5  1  0  0  0  0
 17 12  1  0  0  0  0
 18  3  2  0  0  0  0
 19  6  1  0  0  0  0
 21 23  1  1  0  0  0
 21 26  1  0  0  0  0
 24 30  1  0  0  0  0
 25 28  1  0  0  0  0
 25 27  2  0  0  0  0
 27 24  1  0  0  0  0
 28 29  1  1  0  0  0
 28 21  1  0  0  0  0
 30 26  1  0  0  0  0
 30 22  1  1  0  0  0
 31 32  1  0  0  0  0
M  END
>  <MODEL>
3

>  <REMARK>
 VINA RESULT:      -8.5      2.892      7.946
  Name = 
  2 active torsions:
  status: ('A' for Active; 'I' for Inactive)
    1  A    between atoms: C_13  and  C_29
    2  A    between atoms: C_16  and  N_27
                            x       y       z     vdW  Elec       q    Type
                         _______ _______ _______ _____ _____    ______ ____

>  <TORSDO>
F 2

$$$$
=
 OpenBabel11052414413D

 32 37  0  0  1  0  0  0  0  0999 V2000
  185.7790  178.2940  142.8340 C   0  0  0  0  0  0  0  0  0  0  0  0
  185.7400  178.7860  140.3730 C   0  0  2  0  0  3  0  0  0  0  0  0
  185.1360  178.2180  144.0350 N   0  0  0  0  0  0  0  0  0  0  0  0
  185.0320  178.5850  141.6760 C   0  0  0  0  0  0  0  0  0  0  0  0
  184.8120  178.6600  139.1860 C   0  0  0  0  0  0  0  0  0  0  0  0
  189.4320  178.4050  137.3190 C   0  0  0  0  0  2  0  0  0  0  0  0
  186.9550  177.8780  140.2840 C   0  0  2  0  0  3  0  0  0  0  0  0
  187.1100  178.2770  136.4250 C   0  0  0  0  0  2  0  0  0  0  0  0
  186.5820  177.7750  137.7660 C   0  0  2  0  0  3  0  0  0  0  0  0
  183.6430  178.7610  141.7690 C   0  0  0  0  0  0  0  0  0  0  0  0
  185.2470  178.2980  138.0210 N   0  0  0  0  0  0  0  0  0  0  0  0
  182.8700  179.0030  140.6240 O   0  0  0  0  0  0  0  0  0  0  0  0
  183.0220  178.6650  143.0140 C   0  0  0  0  0  3  0  0  0  0  0  0
  187.8910  178.2290  141.4420 C   0  0  0  0  0  2  0  0  0  0  0  0
  187.2070  178.0500  142.7310 N   0  0  0  0  0  0  0  0  0  0  0  0
  187.5420  178.0300  138.9120 C   0  0  0  0  0  0  0  0  0  0  0  0
  183.4190  179.2150  139.3160 C   0  0  1  0  0  3  0  0  0  0  0  0
  183.7930  178.3980  144.1470 C   0  0  0  0  0  3  0  0  0  0  0  0
  188.5420  177.7910  136.2390 C   0  0  0  0  0  2  0  0  0  0  0  0
  188.8580  178.2200  138.7010 C   0  0  0  0  0  3  0  0  0  0  0  0
  190.2540  176.6500  144.6030 C   0  0  1  0  0  3  0  0  0  0  0  0
  189.5490  178.0450  148.1160 C   0  0  0  0  0  1  0  0  0  0  0  0
  191.5500  176.1820  143.9680 C   0  0  0  0  0  1  0  0  0  0  0  0
  188.0560  177.1280  146.3620 C   0  0  0  0  0  2  0  0  0  0  0  0
  188.0150  177.7110  143.8750 C   0  0  0  0  0  0  0  0  0  0  0  0
  190.5370  177.2220  145.9970 C   0  0  0  0  0  2  0  0  0  0  0  0
  187.4120  177.5300  145.0670 C   0  0  0  0  0  3  0  0  0  0  0  0
  189.5160  177.6190  143.6710 C   0  0  1  0  0  3  0  0  0  0  0  0
  190.1510  179.0030  143.6040 C   0  0  0  0  0  1  0  0  0  0  0  0
  189.3300  177.9150  146.6240 C   0  0  2  0  0  3  0  0  0  0  0  0
  183.3700  180.6930  138.9470 C   0  0  0  0  0  2  0  0  0  0  0  0
  182.0560  181.1050  138.7180 O   0  0  0  0  0  1  0  0  0  0  0  0
  1  3  1  0  0  0  0
  2  5  1  6  0  0  0
  2  4  1  0  0  0  0
  3 18  2  0  0  0  0
  4 10  1  0  0  0  0
  4  1  2  0  0  0  0
  5 17  1  0  0  0  0
  6 20  1  0  0  0  0
  7  2  1  0  0  0  0
  7 14  1  1  0  0  0
  9  8  1  6  0  0  0
  9 11  1  0  0  0  0
  9 16  1  0  0  0  0
 10 13  2  0  0  0  0
 11  5  2  0  0  0  0
 12 10  1  0  0  0  0
 13 18  1  0  0  0  0
 14 15  1  0  0  0  0
 15  1  1  0  0  0  0
 15 25  1  0  0  0  0
 16  7  1  0  0  0  0
 17 31  1  1  0  0  0
 17 12  1  0  0  0  0
 19  8  1  0  0  0  0
 19  6  1  0  0  0  0
 20 16  2  0  0  0  0
 21 23  1  6  0  0  0
 21 26  1  0  0  0  0
 24 30  1  0  0  0  0
 25 27  2  0  0  0  0
 26 30  1  0  0  0  0
 27 24  1  0  0  0  0
 28 29  1  1  0  0  0
 28 25  1  0  0  0  0
 28 21  1  0  0  0  0
 30 22  1  1  0  0  0
 32 31  1  0  0  0  0
M  END
>  <MODEL>
4

>  <REMARK>
 VINA RESULT:      -8.5      2.728      8.105
  Name = 
  2 active torsions:
  status: ('A' for Active; 'I' for Inactive)
    1  A    between atoms: C_13  and  C_29
    2  A    between atoms: C_16  and  N_27
                            x       y       z     vdW  Elec       q    Type
                         _______ _______ _______ _____ _____    ______ ____

>  <TORSDO>
F 2

$$$$
=
 OpenBabel11052414413D

 32 37  0  0  1  0  0  0  0  0999 V2000
  187.8160  178.0910  140.6850 C   0  0  0  0  0  0  0  0  0  0  0  0
  188.7320  177.6930  138.3820 C   0  0  2  0  0  3  0  0  0  0  0  0
  186.7970  178.4880  141.5000 N   0  0  0  0  0  0  0  0  0  0  0  0
  187.5920  178.0140  139.2970 C   0  0  0  0  0  0  0  0  0  0  0  0
  188.2680  177.2310  137.0200 C   0  0  0  0  0  0  0  0  0  0  0  0
  193.0930  175.9910  137.2900 C   0  0  0  0  0  2  0  0  0  0  0  0
  189.6910  176.7220  139.0500 C   0  0  2  0  0  3  0  0  0  0  0  0
  191.2500  175.7350  135.6340 C   0  0  0  0  0  2  0  0  0  0  0  0
  190.2000  175.7740  136.7410 C   0  0  2  0  0  3  0  0  0  0  0  0
  186.3240  178.3150  138.7790 C   0  0  0  0  0  0  0  0  0  0  0  0
  188.9950  176.4530  136.2830 N   0  0  0  0  0  0  0  0  0  0  0  0
  186.0600  178.2000  137.4060 O   0  0  0  0  0  0  0  0  0  0  0  0
  185.3050  178.7080  139.6460 C   0  0  0  0  0  3  0  0  0  0  0  0
  190.2200  177.3850  140.3250 C   0  0  0  0  0  2  0  0  0  0  0  0
  189.1100  177.7190  141.2300 N   0  0  0  0  0  0  0  0  0  0  0  0
  190.7340  176.3410  138.0430 C   0  0  0  0  0  0  0  0  0  0  0  0
  187.0590  177.9000  136.4210 C   0  0  1  0  0  3  0  0  0  0  0  0
  185.5650  178.7970  141.0150 C   0  0  0  0  0  3  0  0  0  0  0  0
  192.5270  175.1080  136.1800 C   0  0  0  0  0  2  0  0  0  0  0  0
  192.0510  176.3450  138.3210 C   0  0  0  0  0  3  0  0  0  0  0  0
  188.3020  177.9870  144.9760 C   0  0  1  0  0  3  0  0  0  0  0  0
  191.6530  176.8040  146.4440 C   0  0  0  0  0  1  0  0  0  0  0  0
  186.9140  178.0200  145.5860 C   0  0  0  0  0  1  0  0  0  0  0  0
  191.1050  178.2090  144.4760 C   0  0  0  0  0  2  0  0  0  0  0  0
  189.3860  177.7410  142.6450 C   0  0  0  0  0  0  0  0  0  0  0  0
  189.2790  177.3150  145.9470 C   0  0  0  0  0  2  0  0  0  0  0  0
  190.6240  178.0770  143.0600 C   0  0  0  0  0  3  0  0  0  0  0  0
  188.2640  177.3400  143.5850 C   0  0  1  0  0  3  0  0  0  0  0  0
  188.0870  175.8280  143.6210 C   0  0  0  0  0  1  0  0  0  0  0  0
  190.6500  177.0400  145.3340 C   0  0  2  0  0  3  0  0  0  0  0  0
  187.4430  179.1550  135.6460 C   0  0  0  0  0  2  0  0  0  0  0  0
  187.2080  180.3000  136.4090 O   0  0  0  0  0  1  0  0  0  0  0  0
  1 15  1  0  0  0  0
  1  3  1  0  0  0  0
  2  5  1  6  0  0  0
  2  7  1  0  0  0  0
  2  4  1  0  0  0  0
  4  1  2  0  0  0  0
  6 20  1  0  0  0  0
  7 14  1  1  0  0  0
  8 19  1  0  0  0  0
  9  8  1  6  0  0  0
  9 16  1  0  0  0  0
 10  4  1  0  0  0  0
 10 13  2  0  0  0  0
 11  9  1  0  0  0  0
 11  5  2  0  0  0  0
 12 10  1  0  0  0  0
 13 18  1  0  0  0  0
 14 15  1  0  0  0  0
 15 25  1  0  0  0  0
 16 20  2  0  0  0  0
 16  7  1  0  0  0  0
 17 31  1  1  0  0  0
 17  5  1  0  0  0  0
 17 12  1  0  0  0  0
 18  3  2  0  0  0  0
 19  6  1  0  0  0  0
 21 23  1  1  0  0  0
 21 26  1  0  0  0  0
 24 30  1  0  0  0  0
 25 27  2  0  0  0  0
 25 28  1  0  0  0  0
 27 24  1  0  0  0  0
 28 29  1  1  0  0  0
 28 21  1  0  0  0  0
 30 26  1  0  0  0  0
 30 22  1  1  0  0  0
 31 32  1  0  0  0  0
M  END
>  <MODEL>
5

>  <REMARK>
 VINA RESULT:      -8.4      2.986      8.186
  Name = 
  2 active torsions:
  status: ('A' for Active; 'I' for Inactive)
    1  A    between atoms: C_13  and  C_29
    2  A    between atoms: C_16  and  N_27
                            x       y       z     vdW  Elec       q    Type
                         _______ _______ _______ _____ _____    ______ ____

>  <TORSDO>
F 2

$$$$
=
 OpenBabel11052414413D

 32 37  0  0  1  0  0  0  0  0999 V2000
  189.3460  177.6510  140.0250 C   0  0  0  0  0  0  0  0  0  0  0  0
  189.2470  177.9870  142.5110 C   0  0  2  0  0  3  0  0  0  0  0  0
  190.0690  177.4290  138.8900 N   0  0  0  0  0  0  0  0  0  0  0  0
  190.0040  177.6300  141.2700 C   0  0  0  0  0  0  0  0  0  0  0  0
  189.9410  177.5130  143.7680 C   0  0  0  0  0  0  0  0  0  0  0  0
  185.2890  178.6680  145.1520 C   0  0  0  0  0  2  0  0  0  0  0  0
  187.8070  177.5140  142.4070 C   0  0  2  0  0  3  0  0  0  0  0  0
  187.3300  177.7590  146.2520 C   0  0  0  0  0  2  0  0  0  0  0  0
  187.8270  177.1780  144.9320 C   0  0  2  0  0  3  0  0  0  0  0  0
  191.3780  177.3550  141.3270 C   0  0  0  0  0  0  0  0  0  0  0  0
  189.2800  177.2560  144.8510 N   0  0  0  0  0  0  0  0  0  0  0  0
  192.0480  177.2810  142.5570 O   0  0  0  0  0  0  0  0  0  0  0  0
  192.0800  177.1240  140.1440 C   0  0  0  0  0  3  0  0  0  0  0  0
  187.1710  178.2020  141.1960 C   0  0  0  0  0  2  0  0  0  0  0  0
  187.9120  177.8730  139.9690 N   0  0  0  0  0  0  0  0  0  0  0  0
  187.1390  177.7820  143.7230 C   0  0  0  0  0  0  0  0  0  0  0  0
  191.4430  177.5960  143.8190 C   0  0  1  0  0  3  0  0  0  0  0  0
  191.4040  177.1730  138.9240 C   0  0  0  0  0  3  0  0  0  0  0  0
  185.8060  177.7510  146.2580 C   0  0  0  0  0  2  0  0  0  0  0  0
  185.9340  178.3740  143.8210 C   0  0  0  0  0  3  0  0  0  0  0  0
  187.4320  177.8150  136.1590 C   0  0  1  0  0  3  0  0  0  0  0  0
  183.6550  177.1120  135.9970 C   0  0  0  0  0  1  0  0  0  0  0  0
  188.5220  177.5930  135.1280 C   0  0  0  0  0  1  0  0  0  0  0  0
  185.0210  178.5100  137.5220 C   0  0  0  0  0  2  0  0  0  0  0  0
  187.1790  177.8670  138.7280 C   0  0  0  0  0  0  0  0  0  0  0  0
  186.1020  177.2600  135.6340 C   0  0  0  0  0  2  0  0  0  0  0  0
  185.9310  178.3760  138.7080 C   0  0  0  0  0  3  0  0  0  0  0  0
  187.8510  177.2430  137.5190 C   0  0  1  0  0  3  0  0  0  0  0  0
  187.8010  175.7220  137.5820 C   0  0  0  0  0  1  0  0  0  0  0  0
  184.9960  177.2410  136.6860 C   0  0  2  0  0  3  0  0  0  0  0  0
  191.9100  178.9610  144.3120 C   0  0  0  0  0  2  0  0  0  0  0  0
  190.9850  179.9520  143.9770 O   0  0  0  0  0  1  0  0  0  0  0  0
  1  4  1  0  0  0  0
  2  4  1  6  0  0  0
  2  5  1  0  0  0  0
  3 18  1  0  0  0  0
  3  1  2  0  0  0  0
  4 10  2  0  0  0  0
  5 17  1  0  0  0  0
  5 11  2  0  0  0  0
  6 19  1  0  0  0  0
  7 14  1  6  0  0  0
  7  2  1  0  0  0  0
  7 16  1  0  0  0  0
  8 19  1  0  0  0  0
  9  8  1  1  0  0  0
 10 12  1  0  0  0  0
 11  9  1  0  0  0  0
 12 17  1  0  0  0  0
 13 10  1  0  0  0  0
 15  1  1  0  0  0  0
 15 14  1  0  0  0  0
 16 20  2  0  0  0  0
 16  9  1  0  0  0  0
 17 31  1  6  0  0  0
 18 13  2  0  0  0  0
 20  6  1  0  0  0  0
 21 23  1  6  0  0  0
 21 28  1  0  0  0  0
 24 27  1  0  0  0  0
 25 15  1  0  0  0  0
 26 21  1  0  0  0  0
 26 30  1  0  0  0  0
 27 25  2  0  0  0  0
 28 29  1  6  0  0  0
 28 25  1  0  0  0  0
 30 22  1  6  0  0  0
 30 24  1  0  0  0  0
 32 31  1  0  0  0  0
M  END
>  <MODEL>
6

>  <REMARK>
 VINA RESULT:      -8.0      1.988      2.997
  Name = 
  2 active torsions:
  status: ('A' for Active; 'I' for Inactive)
    1  A    between atoms: C_13  and  C_29
    2  A    between atoms: C_16  and  N_27
                            x       y       z     vdW  Elec       q    Type
                         _______ _______ _______ _____ _____    ______ ____

>  <TORSDO>
F 2

$$$$
=
 OpenBabel11052414413D

 32 37  0  0  1  0  0  0  0  0999 V2000
  185.1850  178.5840  143.1030 C   0  0  0  0  0  0  0  0  0  0  0  0
  183.0410  178.6560  141.7980 C   0  0  2  0  0  3  0  0  0  0  0  0
  185.8510  178.6910  144.2880 N   0  0  0  0  0  0  0  0  0  0  0  0
  183.7790  178.6540  143.1010 C   0  0  0  0  0  0  0  0  0  0  0  0
  181.5800  178.3050  141.9600 C   0  0  0  0  0  0  0  0  0  0  0  0
  182.5350  177.8790  137.0820 C   0  0  0  0  0  2  0  0  0  0  0  0
  183.7590  177.7820  140.7830 C   0  0  2  0  0  3  0  0  0  0  0  0
  180.5730  177.5340  138.5780 C   0  0  0  0  0  2  0  0  0  0  0  0
  181.4850  177.2480  139.7680 C   0  0  2  0  0  3  0  0  0  0  0  0
  183.0860  178.8010  144.3130 C   0  0  0  0  0  0  0  0  0  0  0  0
  180.9010  177.7670  140.9980 N   0  0  0  0  0  0  0  0  0  0  0  0
  181.6840  178.8250  144.3430 O   0  0  0  0  0  0  0  0  0  0  0  0
  183.8050  178.8970  145.5040 C   0  0  0  0  0  3  0  0  0  0  0  0
  185.1660  178.3510  140.5840 C   0  0  0  0  0  2  0  0  0  0  0  0
  185.9000  178.3690  141.8580 N   0  0  0  0  0  0  0  0  0  0  0  0
  182.9090  177.7210  139.5490 C   0  0  0  0  0  0  0  0  0  0  0  0
  180.8570  178.8320  143.1710 C   0  0  1  0  0  3  0  0  0  0  0  0
  185.2000  178.8470  145.4720 C   0  0  0  0  0  3  0  0  0  0  0  0
  181.2600  177.0670  137.3000 C   0  0  0  0  0  2  0  0  0  0  0  0
  183.4060  177.9110  138.3120 C   0  0  0  0  0  3  0  0  0  0  0  0
  189.4840  178.2720  143.2360 C   0  0  1  0  0  3  0  0  0  0  0  0
  191.3290  176.9330  140.1390 C   0  0  0  0  0  1  0  0  0  0  0  0
  189.8730  178.2530  144.7020 C   0  0  0  0  0  1  0  0  0  0  0  0
  189.4470  178.5270  140.3920 C   0  0  0  0  0  2  0  0  0  0  0  0
  187.3350  178.2510  141.8030 C   0  0  0  0  0  0  0  0  0  0  0  0
  190.5240  177.5030  142.4140 C   0  0  0  0  0  2  0  0  0  0  0  0
  187.9680  178.5370  140.6480 C   0  0  0  0  0  3  0  0  0  0  0  0
  188.0470  177.7660  143.0530 C   0  0  1  0  0  3  0  0  0  0  0  0
  187.9070  176.2580  143.2180 C   0  0  0  0  0  1  0  0  0  0  0  0
  190.1060  177.2820  140.9620 C   0  0  2  0  0  3  0  0  0  0  0  0
  180.2920  180.2250  142.9210 C   0  0  0  0  0  2  0  0  0  0  0  0
  178.9550  180.1550  142.5260 O   0  0  0  0  0  1  0  0  0  0  0  0
  1  3  1  0  0  0  0
  2  5  1  1  0  0  0
  2  4  1  0  0  0  0
  3 18  2  0  0  0  0
  4  1  2  0  0  0  0
  4 10  1  0  0  0  0
  5 17  1  0  0  0  0
  6 19  1  0  0  0  0
  6 20  1  0  0  0  0
  7 14  1  6  0  0  0
  7  2  1  0  0  0  0
  9  8  1  6  0  0  0
  9 11  1  0  0  0  0
 10 12  1  0  0  0  0
 10 13  2  0  0  0  0
 11  5  2  0  0  0  0
 14 15  1  0  0  0  0
 15  1  1  0  0  0  0
 16  9  1  0  0  0  0
 16  7  1  0  0  0  0
 17 31  1  6  0  0  0
 17 12  1  0  0  0  0
 18 13  1  0  0  0  0
 19  8  1  0  0  0  0
 20 16  2  0  0  0  0
 21 23  1  1  0  0  0
 24 27  1  0  0  0  0
 24 30  1  0  0  0  0
 25 15  1  0  0  0  0
 25 28  1  0  0  0  0
 26 21  1  0  0  0  0
 27 25  2  0  0  0  0
 28 29  1  6  0  0  0
 28 21  1  0  0  0  0
 30 22  1  6  0  0  0
 30 26  1  0  0  0  0
 32 31  1  0  0  0  0
M  END
>  <MODEL>
7

>  <REMARK>
 VINA RESULT:      -7.9      3.281      7.856
  Name = 
  2 active torsions:
  status: ('A' for Active; 'I' for Inactive)
    1  A    between atoms: C_13  and  C_29
    2  A    between atoms: C_16  and  N_27
                            x       y       z     vdW  Elec       q    Type
                         _______ _______ _______ _____ _____    ______ ____

>  <TORSDO>
F 2

$$$$
=
 OpenBabel11052414413D

 32 37  0  0  1  0  0  0  0  0999 V2000
  185.8080  178.5300  142.6500 C   0  0  0  0  0  0  0  0  0  0  0  0
  185.6390  178.8490  140.1660 C   0  0  2  0  0  3  0  0  0  0  0  0
  185.2200  178.4950  143.8800 N   0  0  0  0  0  0  0  0  0  0  0  0
  184.9980  178.6920  141.5100 C   0  0  0  0  0  0  0  0  0  0  0  0
  184.6760  178.5820  139.0310 C   0  0  0  0  0  0  0  0  0  0  0  0
  189.2250  178.4980  136.9840 C   0  0  0  0  0  2  0  0  0  0  0  0
  186.9080  178.0170  140.0840 C   0  0  2  0  0  3  0  0  0  0  0  0
  186.8840  178.1590  136.2040 C   0  0  0  0  0  2  0  0  0  0  0  0
  186.4440  177.7180  137.5970 C   0  0  2  0  0  3  0  0  0  0  0  0
  183.6050  178.7830  141.6510 C   0  0  0  0  0  0  0  0  0  0  0  0
  185.0880  178.1700  137.8750 N   0  0  0  0  0  0  0  0  0  0  0  0
  182.7730  178.8960  140.5280 O   0  0  0  0  0  0  0  0  0  0  0  0
  183.0420  178.7330  142.9260 C   0  0  0  0  0  3  0  0  0  0  0  0
  187.8640  178.5070  141.1740 C   0  0  0  0  0  2  0  0  0  0  0  0
  187.2440  178.3720  142.5010 N   0  0  0  0  0  0  0  0  0  0  0  0
  187.4290  178.1130  138.6810 C   0  0  0  0  0  0  0  0  0  0  0  0
  183.2540  179.0530  139.1860 C   0  0  1  0  0  3  0  0  0  0  0  0
  183.8730  178.5950  144.0390 C   0  0  0  0  0  3  0  0  0  0  0  0
  188.3370  177.7560  135.9880 C   0  0  0  0  0  2  0  0  0  0  0  0
  188.7200  178.3720  138.3990 C   0  0  0  0  0  3  0  0  0  0  0  0
  188.2130  178.1040  146.2080 C   0  0  1  0  0  3  0  0  0  0  0  0
  191.7140  176.5550  145.8480 C   0  0  0  0  0  1  0  0  0  0  0  0
  187.2510  178.1090  147.3810 C   0  0  0  0  0  1  0  0  0  0  0  0
  190.5100  178.2680  144.5200 C   0  0  0  0  0  2  0  0  0  0  0  0
  188.1180  178.1660  143.6280 C   0  0  0  0  0  0  0  0  0  0  0  0
  189.4380  177.2470  146.5460 C   0  0  0  0  0  2  0  0  0  0  0  0
  189.4400  178.3760  143.4720 C   0  0  0  0  0  3  0  0  0  0  0  0
  187.4920  177.6800  144.9220 C   0  0  1  0  0  3  0  0  0  0  0  0
  187.1830  176.1890  144.8610 C   0  0  0  0  0  1  0  0  0  0  0  0
  190.3560  177.0040  145.3510 C   0  0  2  0  0  3  0  0  0  0  0  0
  183.0910  180.4960  138.7230 C   0  0  0  0  0  2  0  0  0  0  0  0
  181.7680  180.7550  138.3600 O   0  0  0  0  0  1  0  0  0  0  0  0
  1  3  1  0  0  0  0
  2  5  1  6  0  0  0
  2  4  1  0  0  0  0
  3 18  2  0  0  0  0
  4 10  1  0  0  0  0
  4  1  2  0  0  0  0
  5 17  1  0  0  0  0
  6 20  1  0  0  0  0
  7  2  1  0  0  0  0
  7 14  1  1  0  0  0
  9  8  1  6  0  0  0
  9 11  1  0  0  0  0
  9 16  1  0  0  0  0
 10 13  2  0  0  0  0
 11  5  2  0  0  0  0
 12 10  1  0  0  0  0
 13 18  1  0  0  0  0
 14 15  1  0  0  0  0
 15  1  1  0  0  0  0
 15 25  1  0  0  0  0
 16  7  1  0  0  0  0
 17 31  1  1  0  0  0
 17 12  1  0  0  0  0
 19  8  1  0  0  0  0
 19  6  1  0  0  0  0
 20 16  2  0  0  0  0
 21 26  1  0  0  0  0
 21 23  1  1  0  0  0
 24 30  1  0  0  0  0
 25 28  1  0  0  0  0
 27 25  2  0  0  0  0
 27 24  1  0  0  0  0
 28 29  1  6  0  0  0
 28 21  1  0  0  0  0
 30 22  1  1  0  0  0
 30 26  1  0  0  0  0
 32 31  1  0  0  0  0
M  END
>  <MODEL>
8

>  <REMARK>
 VINA RESULT:      -7.9      2.714      8.144
  Name = 
  2 active torsions:
  status: ('A' for Active; 'I' for Inactive)
    1  A    between atoms: C_13  and  C_29
    2  A    between atoms: C_16  and  N_27
                            x       y       z     vdW  Elec       q    Type
                         _______ _______ _______ _____ _____    ______ ____

>  <TORSDO>
F 2

$$$$
=
 OpenBabel11052414413D

 32 37  0  0  1  0  0  0  0  0999 V2000
  186.3110  178.4190  141.6000 C   0  0  0  0  0  0  0  0  0  0  0  0
  187.9480  178.2660  143.4970 C   0  0  2  0  0  3  0  0  0  0  0  0
  186.0520  178.4520  140.2620 N   0  0  0  0  0  0  0  0  0  0  0  0
  187.6290  178.1890  142.0370 C   0  0  0  0  0  0  0  0  0  0  0  0
  189.2560  177.5910  143.8400 C   0  0  0  0  0  0  0  0  0  0  0  0
  186.9010  178.2530  148.1880 C   0  0  0  0  0  2  0  0  0  0  0  0
  186.7770  177.7600  144.3220 C   0  0  2  0  0  3  0  0  0  0  0  0
  189.0460  177.2400  147.4290 C   0  0  0  0  0  2  0  0  0  0  0  0
  188.4620  176.9460  146.0510 C   0  0  2  0  0  3  0  0  0  0  0  0
  188.6460  177.9680  141.0950 C   0  0  0  0  0  0  0  0  0  0  0  0
  189.4780  177.1020  145.0180 N   0  0  0  0  0  0  0  0  0  0  0  0
  189.9580  177.6890  141.5040 O   0  0  0  0  0  0  0  0  0  0  0  0
  188.3390  178.0000  139.7350 C   0  0  0  0  0  3  0  0  0  0  0  0
  185.5640  178.6390  144.0080 C   0  0  0  0  0  2  0  0  0  0  0  0
  185.2460  178.5850  142.5740 N   0  0  0  0  0  0  0  0  0  0  0  0
  187.2030  177.7400  145.7600 C   0  0  0  0  0  0  0  0  0  0  0  0
  190.3980  177.7290  142.8690 C   0  0  1  0  0  3  0  0  0  0  0  0
  187.0250  178.2530  139.3330 C   0  0  0  0  0  3  0  0  0  0  0  0
  187.9350  177.1640  148.4680 C   0  0  0  0  0  2  0  0  0  0  0  0
  186.4470  178.2490  146.7510 C   0  0  0  0  0  3  0  0  0  0  0  0
  182.3350  179.4340  140.2160 C   0  0  1  0  0  3  0  0  0  0  0  0
  179.3880  178.2260  142.3700 C   0  0  0  0  0  1  0  0  0  0  0  0
  182.4390  179.6540  138.7180 C   0  0  0  0  0  1  0  0  0  0  0  0
  181.5060  179.3780  142.9480 C   0  0  0  0  0  2  0  0  0  0  0  0
  183.8720  178.7850  142.1870 C   0  0  0  0  0  0  0  0  0  0  0  0
  180.9660  178.8350  140.5580 C   0  0  0  0  0  2  0  0  0  0  0  0
  182.9660  179.0840  143.1390 C   0  0  0  0  0  3  0  0  0  0  0  0
  183.5220  178.6030  140.7220 C   0  0  1  0  0  3  0  0  0  0  0  0
  183.4340  177.1280  140.3530 C   0  0  0  0  0  1  0  0  0  0  0  0
  180.8510  178.3770  142.0100 C   0  0  2  0  0  3  0  0  0  0  0  0
  191.2080  178.9930  143.1350 C   0  0  0  0  0  2  0  0  0  0  0  0
  192.0560  178.8180  144.2300 O   0  0  0  0  0  1  0  0  0  0  0  0
  1  4  1  0  0  0  0
  1 15  1  0  0  0  0
  2  4  1  6  0  0  0
  2  5  1  0  0  0  0
  2  7  1  0  0  0  0
  3  1  2  0  0  0  0
  5 11  2  0  0  0  0
  6 19  1  0  0  0  0
  7 14  1  1  0  0  0
  7 16  1  0  0  0  0
  8 19  1  0  0  0  0
  9  8  1  1  0  0  0
 10 12  1  0  0  0  0
 10  4  2  0  0  0  0
 11  9  1  0  0  0  0
 12 17  1  0  0  0  0
 13 10  1  0  0  0  0
 15 14  1  0  0  0  0
 16  9  1  0  0  0  0
 16 20  2  0  0  0  0
 17 31  1  1  0  0  0
 17  5  1  0  0  0  0
 18 13  2  0  0  0  0
 18  3  1  0  0  0  0
 20  6  1  0  0  0  0
 21 23  1  6  0  0  0
 21 26  1  0  0  0  0
 21 28  1  0  0  0  0
 24 27  1  0  0  0  0
 25 15  1  0  0  0  0
 25 27  2  0  0  0  0
 26 30  1  0  0  0  0
 28 29  1  1  0  0  0
 28 25  1  0  0  0  0
 30 22  1  1  0  0  0
 30 24  1  0  0  0  0
 31 32  1  0  0  0  0
M  END
>  <MODEL>
9

>  <REMARK>
 VINA RESULT:      -7.9      1.774      2.447
  Name = 
  2 active torsions:
  status: ('A' for Active; 'I' for Inactive)
    1  A    between atoms: C_13  and  C_29
    2  A    between atoms: C_16  and  N_27
                            x       y       z     vdW  Elec       q    Type
                         _______ _______ _______ _____ _____    ______ ____

>  <TORSDO>
F 2

$$$$
