=
 OpenBabel11052416113D

 43 48  0  0  1  0  0  0  0  0999 V2000
  187.8770  177.7510  147.4130 C   0  0  0  0  0  0  0  0  0  0  0  0
  186.3430  178.6510  142.7030 C   0  0  2  0  0  3  0  0  0  0  0  0
  188.4490  177.7400  141.0840 C   0  0  0  0  0  0  0  0  0  0  0  0
  186.5310  178.1390  145.4970 C   0  0  0  0  0  0  0  0  0  0  0  0
  188.9120  177.2600  146.6140 C   0  0  0  0  0  3  0  0  0  0  0  0
  188.0330  177.8020  148.8260 N   0  0  0  0  0  1  0  0  0  0  0  0
  187.5580  177.6660  144.6570 C   0  0  0  0  0  0  0  0  0  0  0  0
  186.7130  178.1670  146.8470 N   0  0  0  0  0  0  0  0  0  0  0  0
  188.7450  177.2050  145.2300 C   0  0  0  0  0  3  0  0  0  0  0  0
  188.4870  177.4740  142.3580 N   0  0  0  0  0  0  0  0  0  0  0  0
  187.2740  177.5280  143.1830 C   0  0  2  0  0  3  0  0  0  0  0  0
  185.1290  178.7610  143.5900 C   0  0  0  0  0  3  0  0  0  0  0  0
  186.0000  178.3760  141.2430 C   0  0  2  0  0  3  0  0  0  0  0  0
  187.2410  178.2450  140.4790 N   0  0  0  0  0  2  0  0  0  0  0  0
  185.2430  178.5700  144.9110 C   0  0  0  0  0  3  0  0  0  0  0  0
  189.6890  177.6100  140.2640 C   0  0  1  0  0  3  0  0  0  0  0  0
  190.8650  177.2890  141.1800 C   0  0  0  0  0  1  0  0  0  0  0  0
  189.5160  176.6030  139.2990 O   0  0  0  0  0  0  0  0  0  0  0  0
  190.4660  176.8560  138.3010 C   0  0  1  0  0  3  0  0  0  0  0  0
  191.1460  175.5550  137.9230 C   0  0  0  0  0  1  0  0  0  0  0  0
  189.8120  177.4500  137.0490 C   0  0  0  0  0  2  0  0  0  0  0  0
  188.3850  177.1260  136.8910 N   0  0  0  0  0  0  0  0  0  0  0  0
  185.6990  177.0360  135.9900 C   0  0  0  0  0  2  0  0  0  0  0  0
  187.6430  178.3860  136.9180 C   0  0  0  0  0  2  0  0  0  0  0  0
  188.1140  176.3400  135.6570 C   0  0  2  0  0  3  0  0  0  0  0  0
  186.7850  176.7040  134.9650 C   0  0  0  0  0  2  0  0  0  0  0  0
  186.1420  178.1170  136.9820 C   0  0  0  0  0  2  0  0  0  0  0  0
  188.0680  174.0210  134.5940 C   0  0  0  0  0  2  0  0  0  0  0  0
  188.2080  174.8300  135.9050 C   0  0  2  0  0  3  0  0  0  0  0  0
  185.1950  172.8960  137.9520 Cl  0  0  0  0  0  0  0  0  0  0  0  0
  186.6380  172.3790  135.7470 C   0  0  0  0  0  3  0  0  0  0  0  0
  186.0990  173.5200  136.5570 C   0  0  2  0  0  3  0  0  0  0  0  0
  187.5840  172.6170  134.8290 C   0  0  0  0  0  3  0  0  0  0  0  0
  187.2560  174.3970  137.0480 C   0  0  0  0  0  2  0  0  0  0  0  0
  185.1970  179.4590  140.6940 N   0  0  0  0  0  2  0  0  0  0  0  0
  182.2860  179.6520  138.4930 C   0  0  0  0  0  3  0  0  0  0  0  0
  181.7600  178.2330  138.5340 C   0  0  0  0  0  0  0  0  0  0  0  0
  180.2430  178.2550  138.4990 C   0  0  0  0  0  1  0  0  0  0  0  0
  183.4010  177.8370  140.3540 C   0  0  0  0  0  3  0  0  0  0  0  0
  183.4700  179.9560  139.0520 C   0  0  0  0  0  3  0  0  0  0  0  0
  184.2920  178.8760  139.7110 C   0  0  1  0  0  3  0  0  0  0  0  0
  182.2650  177.4700  137.3260 C   0  0  0  0  0  1  0  0  0  0  0  0
  182.2190  177.5330  139.7940 C   0  0  0  0  0  3  0  0  0  0  0  0
  1  6  1  0  0  0  0
  2 11  1  0  0  0  0
  2 12  1  1  0  0  0
  3 10  2  0  0  0  0
  4  8  2  0  0  0  0
  5  1  2  0  0  0  0
  7  9  2  0  0  0  0
  7  4  1  0  0  0  0
  8  1  1  0  0  0  0
  9  5  1  0  0  0  0
 11 10  1  6  0  0  0
 11  7  1  0  0  0  0
 12 15  2  0  0  0  0
 13 35  1  6  0  0  0
 13  2  1  0  0  0  0
 14  3  1  0  0  0  0
 14 13  1  0  0  0  0
 15  4  1  0  0  0  0
 16  3  1  0  0  0  0
 16 17  1  1  0  0  0
 18 16  1  0  0  0  0
 19 20  1  6  0  0  0
 19 18  1  0  0  0  0
 21 19  1  0  0  0  0
 22 24  1  0  0  0  0
 22 21  1  0  0  0  0
 23 27  1  0  0  0  0
 24 27  1  0  0  0  0
 25 26  1  1  0  0  0
 25 29  1  0  0  0  0
 25 22  1  0  0  0  0
 26 23  1  0  0  0  0
 28 33  1  0  0  0  0
 29 28  1  6  0  0  0
 29 34  1  0  0  0  0
 31 32  1  0  0  0  0
 32 34  1  0  0  0  0
 32 30  1  1  0  0  0
 33 31  2  0  0  0  0
 36 37  1  0  0  0  0
 36 40  2  0  0  0  0
 37 43  1  0  0  0  0
 38 37  1  0  0  0  0
 40 41  1  0  0  0  0
 41 39  1  0  0  0  0
 41 35  1  1  0  0  0
 42 37  1  0  0  0  0
 43 39  2  0  0  0  0
M  END
>  <MODEL>
1

>  <REMARK>
 VINA RESULT:      -9.5      0.000      0.000
  Name = 
  8 active torsions:
  status: ('A' for Active; 'I' for Inactive)
    1  A    between atoms: N_1  and  C_34
    2  A    between atoms: N_1  and  C_35
    3  A    between atoms: C_2  and  O_6
    4  A    between atoms: C_2  and  C_13
    5  A    between atoms: C_3  and  N_4
    6  A    between atoms: C_3  and  C_12
    7  A    between atoms: O_6  and  C_12
    8  A    between atoms: C_14  and  C_22
                            x       y       z     vdW  Elec       q    Type
                         _______ _______ _______ _____ _____    ______ ____

>  <TORSDO>
F 8

$$$$
=
 OpenBabel11052416113D

 43 48  0  0  1  0  0  0  0  0999 V2000
  187.7860  177.6870  147.5190 C   0  0  0  0  0  0  0  0  0  0  0  0
  186.5570  178.6900  142.7410 C   0  0  2  0  0  3  0  0  0  0  0  0
  188.6970  177.6800  141.2300 C   0  0  0  0  0  0  0  0  0  0  0  0
  186.5670  178.1540  145.5360 C   0  0  0  0  0  0  0  0  0  0  0  0
  188.8360  177.1480  146.7730 C   0  0  0  0  0  3  0  0  0  0  0  0
  187.8680  177.7230  148.9380 N   0  0  0  0  0  1  0  0  0  0  0  0
  187.6130  177.6330  144.7500 C   0  0  0  0  0  0  0  0  0  0  0  0
  186.6770  178.1660  146.8940 N   0  0  0  0  0  0  0  0  0  0  0  0
  188.7420  177.1090  145.3820 C   0  0  0  0  0  3  0  0  0  0  0  0
  188.6530  177.4060  142.5010 N   0  0  0  0  0  0  0  0  0  0  0  0
  187.4020  177.5180  143.2610 C   0  0  2  0  0  3  0  0  0  0  0  0
  185.3040  178.8580  143.5620 C   0  0  0  0  0  3  0  0  0  0  0  0
  186.2800  178.4400  141.2620 C   0  0  2  0  0  3  0  0  0  0  0  0
  187.5520  178.2500  140.5650 N   0  0  0  0  0  2  0  0  0  0  0  0
  185.3360  178.6540  144.8860 C   0  0  0  0  0  3  0  0  0  0  0  0
  189.9720  177.4900  140.4770 C   0  0  1  0  0  3  0  0  0  0  0  0
  191.1470  177.5980  141.4420 C   0  0  0  0  0  1  0  0  0  0  0  0
  189.9630  176.2400  139.8360 O   0  0  0  0  0  0  0  0  0  0  0  0
  190.3420  176.4810  138.5090 C   0  0  1  0  0  3  0  0  0  0  0  0
  191.7860  176.0590  138.3220 C   0  0  0  0  0  1  0  0  0  0  0  0
  189.4680  175.6910  137.5300 C   0  0  0  0  0  2  0  0  0  0  0  0
  188.3650  176.4610  136.9330 N   0  0  0  0  0  0  0  0  0  0  0  0
  186.8310  178.1930  135.2960 C   0  0  0  0  0  2  0  0  0  0  0  0
  188.7820  177.8630  136.8920 C   0  0  0  0  0  2  0  0  0  0  0  0
  187.9760  175.9510  135.5910 C   0  0  2  0  0  3  0  0  0  0  0  0
  187.5770  177.0570  134.5940 C   0  0  0  0  0  2  0  0  0  0  0  0
  187.6090  178.7530  136.4910 C   0  0  0  0  0  2  0  0  0  0  0  0
  186.1620  174.9000  137.0450 C   0  0  0  0  0  2  0  0  0  0  0  0
  186.8890  174.8740  135.6800 C   0  0  2  0  0  3  0  0  0  0  0  0
  187.9540  170.8920  135.8130 Cl  0  0  0  0  0  0  0  0  0  0  0  0
  186.1880  172.4370  137.1200 C   0  0  0  0  0  3  0  0  0  0  0  0
  187.5170  172.5000  136.4270 C   0  0  2  0  0  3  0  0  0  0  0  0
  185.5410  173.5760  137.3960 C   0  0  0  0  0  3  0  0  0  0  0  0
  187.4450  173.4900  135.2600 C   0  0  0  0  0  2  0  0  0  0  0  0
  185.5640  179.5670  140.6790 N   0  0  0  0  0  2  0  0  0  0  0  0
  183.0230  176.9900  140.1690 C   0  0  0  0  0  3  0  0  0  0  0  0
  182.8310  177.0240  138.6680 C   0  0  0  0  0  0  0  0  0  0  0  0
  182.5920  175.6170  138.1570 C   0  0  0  0  0  1  0  0  0  0  0  0
  184.8000  178.5350  138.6000 C   0  0  0  0  0  3  0  0  0  0  0  0
  183.7700  177.9260  140.7820 C   0  0  0  0  0  3  0  0  0  0  0  0
  184.4070  179.0300  139.9740 C   0  0  1  0  0  3  0  0  0  0  0  0
  181.6240  177.8770  138.3310 C   0  0  0  0  0  1  0  0  0  0  0  0
  184.0540  177.6000  137.9890 C   0  0  0  0  0  3  0  0  0  0  0  0
  1  6  1  0  0  0  0
  2 11  1  0  0  0  0
  2 12  1  1  0  0  0
  3 10  2  0  0  0  0
  4  8  2  0  0  0  0
  5  1  2  0  0  0  0
  7  9  2  0  0  0  0
  7  4  1  0  0  0  0
  8  1  1  0  0  0  0
  9  5  1  0  0  0  0
 11 10  1  6  0  0  0
 11  7  1  0  0  0  0
 12 15  2  0  0  0  0
 13 35  1  6  0  0  0
 13  2  1  0  0  0  0
 14  3  1  0  0  0  0
 14 13  1  0  0  0  0
 15  4  1  0  0  0  0
 16  3  1  0  0  0  0
 16 17  1  1  0  0  0
 18 16  1  0  0  0  0
 19 20  1  1  0  0  0
 19 18  1  0  0  0  0
 21 19  1  0  0  0  0
 22 21  1  0  0  0  0
 23 27  1  0  0  0  0
 24 22  1  0  0  0  0
 25 26  1  6  0  0  0
 25 29  1  0  0  0  0
 25 22  1  0  0  0  0
 26 23  1  0  0  0  0
 27 24  1  0  0  0  0
 28 33  1  0  0  0  0
 29 34  1  1  0  0  0
 29 28  1  0  0  0  0
 31 33  2  0  0  0  0
 32 30  1  6  0  0  0
 32 31  1  0  0  0  0
 34 32  1  0  0  0  0
 36 40  2  0  0  0  0
 37 36  1  0  0  0  0
 38 37  1  0  0  0  0
 39 41  1  0  0  0  0
 41 35  1  1  0  0  0
 41 40  1  0  0  0  0
 42 37  1  0  0  0  0
 43 39  2  0  0  0  0
 43 37  1  0  0  0  0
M  END
>  <MODEL>
2

>  <REMARK>
 VINA RESULT:      -9.5      1.059      1.608
  Name = 
  8 active torsions:
  status: ('A' for Active; 'I' for Inactive)
    1  A    between atoms: N_1  and  C_34
    2  A    between atoms: N_1  and  C_35
    3  A    between atoms: C_2  and  O_6
    4  A    between atoms: C_2  and  C_13
    5  A    between atoms: C_3  and  N_4
    6  A    between atoms: C_3  and  C_12
    7  A    between atoms: O_6  and  C_12
    8  A    between atoms: C_14  and  C_22
                            x       y       z     vdW  Elec       q    Type
                         _______ _______ _______ _____ _____    ______ ____

>  <TORSDO>
F 8

$$$$
=
 OpenBabel11052416113D

 43 48  0  0  1  0  0  0  0  0999 V2000
  191.4200  176.6670  147.0200 C   0  0  0  0  0  0  0  0  0  0  0  0
  187.7130  177.9630  143.8700 C   0  0  2  0  0  3  0  0  0  0  0  0
  188.7610  177.4890  141.3080 C   0  0  0  0  0  0  0  0  0  0  0  0
  189.2860  177.1380  146.0940 C   0  0  0  0  0  0  0  0  0  0  0  0
  191.9340  176.3920  145.7520 C   0  0  0  0  0  3  0  0  0  0  0  0
  192.2570  176.5610  148.1650 N   0  0  0  0  0  1  0  0  0  0  0  0
  189.7730  176.8840  144.7970 C   0  0  0  0  0  0  0  0  0  0  0  0
  190.1150  177.0200  147.1680 N   0  0  0  0  0  0  0  0  0  0  0  0
  191.1020  176.4880  144.6360 C   0  0  0  0  0  3  0  0  0  0  0  0
  189.4380  177.0760  142.3400 N   0  0  0  0  0  0  0  0  0  0  0  0
  188.7960  176.8970  143.6480 C   0  0  2  0  0  3  0  0  0  0  0  0
  187.1010  177.8320  145.2400 C   0  0  0  0  0  3  0  0  0  0  0  0
  186.6980  177.8320  142.7390 C   0  0  2  0  0  3  0  0  0  0  0  0
  187.3970  177.9300  141.4580 N   0  0  0  0  0  2  0  0  0  0  0  0
  187.8630  177.4950  146.2880 C   0  0  0  0  0  3  0  0  0  0  0  0
  189.4310  177.5940  139.9780 C   0  0  1  0  0  3  0  0  0  0  0  0
  190.8660  177.0930  140.0980 C   0  0  0  0  0  1  0  0  0  0  0  0
  188.7170  176.8480  139.0260 O   0  0  0  0  0  0  0  0  0  0  0  0
  188.1250  177.7810  138.1660 C   0  0  1  0  0  3  0  0  0  0  0  0
  189.1300  178.8720  137.8510 C   0  0  0  0  0  1  0  0  0  0  0  0
  187.6860  177.1250  136.8520 C   0  0  0  0  0  2  0  0  0  0  0  0
  186.3680  176.4720  136.9050 N   0  0  0  0  0  0  0  0  0  0  0  0
  183.6430  175.8070  136.4950 C   0  0  0  0  0  2  0  0  0  0  0  0
  185.3840  177.4970  137.2550 C   0  0  0  0  0  2  0  0  0  0  0  0
  186.0270  175.7760  135.6350 C   0  0  2  0  0  3  0  0  0  0  0  0
  184.5360  175.8650  135.2550 C   0  0  0  0  0  2  0  0  0  0  0  0
  184.0300  176.8550  137.5440 C   0  0  0  0  0  2  0  0  0  0  0  0
  186.5050  173.7080  137.0520 C   0  0  0  0  0  2  0  0  0  0  0  0
  186.5090  174.3200  135.6310 C   0  0  2  0  0  3  0  0  0  0  0  0
  190.4540  173.4690  134.7840 Cl  0  0  0  0  0  0  0  0  0  0  0  0
  188.6680  172.6180  136.6000 C   0  0  0  0  0  3  0  0  0  0  0  0
  189.0220  173.8180  135.7740 C   0  0  2  0  0  3  0  0  0  0  0  0
  187.4670  172.5610  137.1900 C   0  0  0  0  0  3  0  0  0  0  0  0
  187.8460  174.1830  134.8610 C   0  0  0  0  0  2  0  0  0  0  0  0
  185.6920  178.8820  142.8320 N   0  0  0  0  0  2  0  0  0  0  0  0
  183.2670  179.1410  140.1100 C   0  0  0  0  0  3  0  0  0  0  0  0
  181.9930  178.6620  140.7710 C   0  0  0  0  0  0  0  0  0  0  0  0
  180.8180  179.4620  140.2430 C   0  0  0  0  0  1  0  0  0  0  0  0
  183.2550  178.7240  142.9080 C   0  0  0  0  0  3  0  0  0  0  0  0
  184.4470  179.0340  140.7470 C   0  0  0  0  0  3  0  0  0  0  0  0
  184.5090  178.4150  142.1210 C   0  0  1  0  0  3  0  0  0  0  0  0
  181.7730  177.1980  140.4450 C   0  0  0  0  0  1  0  0  0  0  0  0
  182.0770  178.8320  142.2720 C   0  0  0  0  0  3  0  0  0  0  0  0
  1  8  1  0  0  0  0
  1  6  1  0  0  0  0
  2 12  1  1  0  0  0
  3 14  1  0  0  0  0
  3 10  2  0  0  0  0
  4 15  1  0  0  0  0
  4  8  2  0  0  0  0
  5  1  2  0  0  0  0
  7  4  1  0  0  0  0
  9  7  2  0  0  0  0
  9  5  1  0  0  0  0
 11 10  1  6  0  0  0
 11  2  1  0  0  0  0
 11  7  1  0  0  0  0
 12 15  2  0  0  0  0
 13 35  1  1  0  0  0
 13  2  1  0  0  0  0
 14 13  1  0  0  0  0
 16 17  1  1  0  0  0
 16  3  1  0  0  0  0
 18 16  1  0  0  0  0
 19 20  1  6  0  0  0
 19 18  1  0  0  0  0
 21 22  1  0  0  0  0
 21 19  1  0  0  0  0
 22 24  1  0  0  0  0
 23 27  1  0  0  0  0
 24 27  1  0  0  0  0
 25 26  1  1  0  0  0
 25 22  1  0  0  0  0
 26 23  1  0  0  0  0
 28 33  1  0  0  0  0
 29 34  1  1  0  0  0
 29 25  1  0  0  0  0
 29 28  1  0  0  0  0
 31 33  2  0  0  0  0
 32 30  1  6  0  0  0
 32 31  1  0  0  0  0
 34 32  1  0  0  0  0
 36 40  2  0  0  0  0
 36 37  1  0  0  0  0
 37 43  1  0  0  0  0
 38 37  1  0  0  0  0
 40 41  1  0  0  0  0
 41 35  1  1  0  0  0
 41 39  1  0  0  0  0
 42 37  1  0  0  0  0
 43 39  2  0  0  0  0
M  END
>  <MODEL>
3

>  <REMARK>
 VINA RESULT:      -8.8      1.972      2.637
  Name = 
  8 active torsions:
  status: ('A' for Active; 'I' for Inactive)
    1  A    between atoms: N_1  and  C_34
    2  A    between atoms: N_1  and  C_35
    3  A    between atoms: C_2  and  O_6
    4  A    between atoms: C_2  and  C_13
    5  A    between atoms: C_3  and  N_4
    6  A    between atoms: C_3  and  C_12
    7  A    between atoms: O_6  and  C_12
    8  A    between atoms: C_14  and  C_22
                            x       y       z     vdW  Elec       q    Type
                         _______ _______ _______ _____ _____    ______ ____

>  <TORSDO>
F 8

$$$$
=
 OpenBabel11052416113D

 43 48  0  0  1  0  0  0  0  0999 V2000
  191.0690  176.7610  146.7830 C   0  0  0  0  0  0  0  0  0  0  0  0
  188.3200  177.9730  142.7430 C   0  0  2  0  0  3  0  0  0  0  0  0
  189.8570  177.1150  140.5550 C   0  0  0  0  0  0  0  0  0  0  0  0
  189.2580  177.2910  145.3420 C   0  0  0  0  0  0  0  0  0  0  0  0
  191.8220  176.2960  145.7030 C   0  0  0  0  0  3  0  0  0  0  0  0
  191.6140  176.7240  148.0960 N   0  0  0  0  0  1  0  0  0  0  0  0
  189.9930  176.8470  144.2260 C   0  0  0  0  0  0  0  0  0  0  0  0
  189.8090  177.2340  146.5870 N   0  0  0  0  0  0  0  0  0  0  0  0
  191.2750  176.3280  144.4190 C   0  0  0  0  0  3  0  0  0  0  0  0
  190.2370  176.7730  141.7520 N   0  0  0  0  0  0  0  0  0  0  0  0
  189.3050  176.8030  142.8850 C   0  0  2  0  0  3  0  0  0  0  0  0
  187.4060  178.0550  143.9390 C   0  0  0  0  0  3  0  0  0  0  0  0
  187.5750  177.7930  141.4250 C   0  0  2  0  0  3  0  0  0  0  0  0
  188.5480  177.6810  140.3390 N   0  0  0  0  0  2  0  0  0  0  0  0
  187.8750  177.7840  145.1630 C   0  0  0  0  0  3  0  0  0  0  0  0
  190.8140  177.0070  139.4150 C   0  0  1  0  0  3  0  0  0  0  0  0
  192.2210  177.3260  139.9090 C   0  0  0  0  0  1  0  0  0  0  0  0
  190.7560  175.7150  138.8670 O   0  0  0  0  0  0  0  0  0  0  0  0
  190.6810  175.8860  137.4790 C   0  0  1  0  0  3  0  0  0  0  0  0
  191.8930  175.2430  136.8340 C   0  0  0  0  0  1  0  0  0  0  0  0
  189.4170  175.2340  136.9070 C   0  0  0  0  0  2  0  0  0  0  0  0
  188.3130  176.1690  136.6390 N   0  0  0  0  0  0  0  0  0  0  0  0
  186.6820  178.2060  135.5330 C   0  0  0  0  0  2  0  0  0  0  0  0
  188.8780  177.5180  136.6120 C   0  0  0  0  0  2  0  0  0  0  0  0
  187.5820  175.8410  135.3850 C   0  0  2  0  0  3  0  0  0  0  0  0
  187.1130  177.0780  134.5940 C   0  0  0  0  0  2  0  0  0  0  0  0
  187.7630  178.5590  136.5580 C   0  0  0  0  0  2  0  0  0  0  0  0
  185.9550  174.9030  137.1120 C   0  0  0  0  0  2  0  0  0  0  0  0
  186.4170  174.8760  135.6360 C   0  0  2  0  0  3  0  0  0  0  0  0
  187.0490  170.8060  135.4360 Cl  0  0  0  0  0  0  0  0  0  0  0  0
  185.7250  172.4500  137.0970 C   0  0  0  0  0  3  0  0  0  0  0  0
  186.9070  172.4140  136.1740 C   0  0  2  0  0  3  0  0  0  0  0  0
  185.2660  173.6320  137.5250 C   0  0  0  0  0  3  0  0  0  0  0  0
  186.7350  173.4680  135.0740 C   0  0  0  0  0  2  0  0  0  0  0  0
  186.6910  178.9240  141.1790 N   0  0  0  0  0  2  0  0  0  0  0  0
  183.5460  179.0940  139.3260 C   0  0  0  0  0  3  0  0  0  0  0  0
  182.5680  178.4690  140.2980 C   0  0  0  0  0  0  0  0  0  0  0  0
  181.2340  179.1840  140.2030 C   0  0  0  0  0  1  0  0  0  0  0  0
  184.4080  178.5420  141.9630 C   0  0  0  0  0  3  0  0  0  0  0  0
  184.8670  179.0630  139.5740 C   0  0  0  0  0  3  0  0  0  0  0  0
  185.3850  178.3860  140.8190 C   0  0  1  0  0  3  0  0  0  0  0  0
  182.3660  177.0090  139.9460 C   0  0  0  0  0  1  0  0  0  0  0  0
  183.0890  178.5730  141.7150 C   0  0  0  0  0  3  0  0  0  0  0  0
  1  6  1  0  0  0  0
  2 11  1  0  0  0  0
  2 12  1  1  0  0  0
  3 10  2  0  0  0  0
  4  8  2  0  0  0  0
  5  1  2  0  0  0  0
  7  9  2  0  0  0  0
  7  4  1  0  0  0  0
  8  1  1  0  0  0  0
  9  5  1  0  0  0  0
 11 10  1  6  0  0  0
 11  7  1  0  0  0  0
 12 15  2  0  0  0  0
 13 35  1  6  0  0  0
 13  2  1  0  0  0  0
 14  3  1  0  0  0  0
 14 13  1  0  0  0  0
 15  4  1  0  0  0  0
 16 17  1  1  0  0  0
 16  3  1  0  0  0  0
 18 16  1  0  0  0  0
 19 20  1  6  0  0  0
 19 18  1  0  0  0  0
 21 19  1  0  0  0  0
 22 21  1  0  0  0  0
 23 27  1  0  0  0  0
 24 22  1  0  0  0  0
 25 26  1  1  0  0  0
 25 29  1  0  0  0  0
 25 22  1  0  0  0  0
 26 23  1  0  0  0  0
 27 24  1  0  0  0  0
 28 33  1  0  0  0  0
 29 34  1  1  0  0  0
 29 28  1  0  0  0  0
 31 33  2  0  0  0  0
 32 30  1  6  0  0  0
 32 31  1  0  0  0  0
 34 32  1  0  0  0  0
 36 40  2  0  0  0  0
 36 37  1  0  0  0  0
 37 43  1  0  0  0  0
 38 37  1  0  0  0  0
 40 41  1  0  0  0  0
 41 35  1  1  0  0  0
 41 39  1  0  0  0  0
 42 37  1  0  0  0  0
 43 39  2  0  0  0  0
M  END
>  <MODEL>
4

>  <REMARK>
 VINA RESULT:      -8.7      1.664      2.258
  Name = 
  8 active torsions:
  status: ('A' for Active; 'I' for Inactive)
    1  A    between atoms: N_1  and  C_34
    2  A    between atoms: N_1  and  C_35
    3  A    between atoms: C_2  and  O_6
    4  A    between atoms: C_2  and  C_13
    5  A    between atoms: C_3  and  N_4
    6  A    between atoms: C_3  and  C_12
    7  A    between atoms: O_6  and  C_12
    8  A    between atoms: C_14  and  C_22
                            x       y       z     vdW  Elec       q    Type
                         _______ _______ _______ _____ _____    ______ ____

>  <TORSDO>
F 8

$$$$
=
 OpenBabel11052416113D

 43 48  0  0  1  0  0  0  0  0999 V2000
  191.4360  176.6900  147.1090 C   0  0  0  0  0  0  0  0  0  0  0  0
  189.7650  177.1490  142.3820 C   0  0  2  0  0  3  0  0  0  0  0  0
  187.0890  177.9570  142.6510 C   0  0  0  0  0  0  0  0  0  0  0  0
  191.3250  176.9980  144.7580 C   0  0  0  0  0  0  0  0  0  0  0  0
  190.1180  177.1290  147.2510 C   0  0  0  0  0  3  0  0  0  0  0  0
  192.1840  176.3050  148.2560 N   0  0  0  0  0  1  0  0  0  0  0  0
  189.9890  177.4300  144.8600 C   0  0  0  0  0  0  0  0  0  0  0  0
  192.0140  176.6430  145.8790 N   0  0  0  0  0  0  0  0  0  0  0  0
  189.3960  177.5140  146.1210 C   0  0  0  0  0  3  0  0  0  0  0  0
  187.8370  177.9280  143.7150 N   0  0  0  0  0  0  0  0  0  0  0  0
  189.3020  177.9370  143.6160 C   0  0  2  0  0  3  0  0  0  0  0  0
  191.2690  177.0900  142.3140 C   0  0  0  0  0  3  0  0  0  0  0  0
  189.1300  177.7950  141.1560 C   0  0  2  0  0  3  0  0  0  0  0  0
  187.6790  177.8420  141.3400 N   0  0  0  0  0  2  0  0  0  0  0  0
  191.9890  176.9650  143.4360 C   0  0  0  0  0  3  0  0  0  0  0  0
  185.6050  178.0150  142.7910 C   0  0  1  0  0  3  0  0  0  0  0  0
  185.2480  178.2990  144.2460 C   0  0  0  0  0  1  0  0  0  0  0  0
  185.0860  179.0100  141.9450 O   0  0  0  0  0  0  0  0  0  0  0  0
  184.0710  178.3960  141.2000 C   0  0  1  0  0  3  0  0  0  0  0  0
  182.7300  178.7160  141.8310 C   0  0  0  0  0  1  0  0  0  0  0  0
  184.0650  178.8970  139.7520 C   0  0  0  0  0  2  0  0  0  0  0  0
  182.7760  178.7470  139.0570 N   0  0  0  0  0  0  0  0  0  0  0  0
  180.6930  178.8440  137.1370 C   0  0  0  0  0  2  0  0  0  0  0  0
  182.3650  180.0760  138.6050 C   0  0  0  0  0  2  0  0  0  0  0  0
  182.8440  177.7680  137.9390 C   0  0  2  0  0  3  0  0  0  0  0  0
  181.9950  178.1600  136.7140 C   0  0  0  0  0  2  0  0  0  0  0  0
  180.9350  180.0340  138.0710 C   0  0  0  0  0  2  0  0  0  0  0  0
  182.1930  175.4110  137.2100 C   0  0  0  0  0  2  0  0  0  0  0  0
  182.5160  176.3440  138.4020 C   0  0  2  0  0  3  0  0  0  0  0  0
  179.0370  175.6190  140.4950 Cl  0  0  0  0  0  0  0  0  0  0  0  0
  180.3400  174.4050  138.4840 C   0  0  0  0  0  3  0  0  0  0  0  0
  180.1130  175.7580  139.0890 C   0  0  2  0  0  3  0  0  0  0  0  0
  181.3380  174.2400  137.6070 C   0  0  0  0  0  3  0  0  0  0  0  0
  181.4520  176.3590  139.5280 C   0  0  0  0  0  2  0  0  0  0  0  0
  189.4490  177.0350  139.9550 N   0  0  0  0  0  2  0  0  0  0  0  0
  187.7350  176.4540  136.7800 C   0  0  0  0  0  3  0  0  0  0  0  0
  187.5340  177.8620  136.2630 C   0  0  0  0  0  0  0  0  0  0  0  0
  187.6990  177.8760  134.7560 C   0  0  0  0  0  1  0  0  0  0  0  0
  188.9960  178.5960  138.1300 C   0  0  0  0  0  3  0  0  0  0  0  0
  188.1910  176.2450  138.0280 C   0  0  0  0  0  3  0  0  0  0  0  0
  188.4870  177.4180  138.9290 C   0  0  1  0  0  3  0  0  0  0  0  0
  186.1340  178.3320  136.6050 C   0  0  0  0  0  1  0  0  0  0  0  0
  188.5410  178.8050  136.8840 C   0  0  0  0  0  3  0  0  0  0  0  0
  1  5  1  0  0  0  0
  1  6  1  0  0  0  0
  2 12  1  6  0  0  0
  2 11  1  0  0  0  0
  3 16  1  0  0  0  0
  3 10  2  0  0  0  0
  4  7  2  0  0  0  0
  4  8  1  0  0  0  0
  7  9  1  0  0  0  0
  8  1  2  0  0  0  0
  9  5  2  0  0  0  0
 11 10  1  1  0  0  0
 11  7  1  0  0  0  0
 12 15  2  0  0  0  0
 13 35  1  6  0  0  0
 13 14  1  0  0  0  0
 13  2  1  0  0  0  0
 14  3  1  0  0  0  0
 15  4  1  0  0  0  0
 16 17  1  1  0  0  0
 18 16  1  0  0  0  0
 19 20  1  1  0  0  0
 19 18  1  0  0  0  0
 21 19  1  0  0  0  0
 22 21  1  0  0  0  0
 23 27  1  0  0  0  0
 24 22  1  0  0  0  0
 25 26  1  6  0  0  0
 25 29  1  0  0  0  0
 25 22  1  0  0  0  0
 26 23  1  0  0  0  0
 27 24  1  0  0  0  0
 28 33  1  0  0  0  0
 29 28  1  6  0  0  0
 29 34  1  0  0  0  0
 31 32  1  0  0  0  0
 32 34  1  0  0  0  0
 32 30  1  1  0  0  0
 33 31  2  0  0  0  0
 36 40  2  0  0  0  0
 37 42  1  0  0  0  0
 37 36  1  0  0  0  0
 37 43  1  0  0  0  0
 38 37  1  0  0  0  0
 39 41  1  0  0  0  0
 40 41  1  0  0  0  0
 41 35  1  1  0  0  0
 43 39  2  0  0  0  0
M  END
>  <MODEL>
5

>  <REMARK>
 VINA RESULT:      -8.6      2.464      5.658
  Name = 
  8 active torsions:
  status: ('A' for Active; 'I' for Inactive)
    1  A    between atoms: N_1  and  C_34
    2  A    between atoms: N_1  and  C_35
    3  A    between atoms: C_2  and  O_6
    4  A    between atoms: C_2  and  C_13
    5  A    between atoms: C_3  and  N_4
    6  A    between atoms: C_3  and  C_12
    7  A    between atoms: O_6  and  C_12
    8  A    between atoms: C_14  and  C_22
                            x       y       z     vdW  Elec       q    Type
                         _______ _______ _______ _____ _____    ______ ____

>  <TORSDO>
F 8

$$$$
=
 OpenBabel11052416113D

 43 48  0  0  1  0  0  0  0  0999 V2000
  191.3310  176.3720  146.9980 C   0  0  0  0  0  0  0  0  0  0  0  0
  189.8410  177.0520  142.2380 C   0  0  2  0  0  3  0  0  0  0  0  0
  187.2480  178.1080  142.4500 C   0  0  0  0  0  0  0  0  0  0  0  0
  191.3150  176.7210  144.6500 C   0  0  0  0  0  0  0  0  0  0  0  0
  190.0580  176.9320  147.1130 C   0  0  0  0  0  3  0  0  0  0  0  0
  192.0080  175.9020  148.1570 N   0  0  0  0  0  1  0  0  0  0  0  0
  190.0230  177.2770  144.7240 C   0  0  0  0  0  0  0  0  0  0  0  0
  191.9360  176.2870  145.7830 N   0  0  0  0  0  0  0  0  0  0  0  0
  189.4060  177.3990  145.9710 C   0  0  0  0  0  3  0  0  0  0  0  0
  187.9600  177.9940  143.5330 N   0  0  0  0  0  0  0  0  0  0  0  0
  189.4210  177.8640  143.4720 C   0  0  2  0  0  3  0  0  0  0  0  0
  191.3340  176.8520  142.2070 C   0  0  0  0  0  3  0  0  0  0  0  0
  189.3030  177.7740  141.0060 C   0  0  2  0  0  3  0  0  0  0  0  0
  187.8590  177.9560  141.1540 N   0  0  0  0  0  2  0  0  0  0  0  0
  192.0080  176.6430  143.3460 C   0  0  0  0  0  3  0  0  0  0  0  0
  185.7720  178.3060  142.5530 C   0  0  1  0  0  3  0  0  0  0  0  0
  185.3710  178.3380  144.0240 C   0  0  0  0  0  1  0  0  0  0  0  0
  185.4060  179.4990  141.9070 O   0  0  0  0  0  0  0  0  0  0  0  0
  184.4180  179.1500  140.9790 C   0  0  1  0  0  3  0  0  0  0  0  0
  185.0790  178.7770  139.6670 C   0  0  0  0  0  1  0  0  0  0  0  0
  183.5920  177.9550  141.4700 C   0  0  0  0  0  2  0  0  0  0  0  0
  182.1580  178.2330  141.6480 N   0  0  0  0  0  0  0  0  0  0  0  0
  179.6630  179.5270  142.0090 C   0  0  0  0  0  2  0  0  0  0  0  0
  182.0180  179.0610  142.8450 C   0  0  0  0  0  2  0  0  0  0  0  0
  181.5500  178.8710  140.4490 C   0  0  2  0  0  3  0  0  0  0  0  0
  180.4810  179.9310  140.7810 C   0  0  0  0  0  2  0  0  0  0  0  0
  180.5450  179.2060  143.2190 C   0  0  0  0  0  2  0  0  0  0  0  0
  180.6070  176.5160  140.1690 C   0  0  0  0  0  2  0  0  0  0  0  0
  181.0060  177.8320  139.4610 C   0  0  2  0  0  3  0  0  0  0  0  0
  183.5360  176.1090  136.6980 Cl  0  0  0  0  0  0  0  0  0  0  0  0
  181.6010  175.2120  138.3300 C   0  0  0  0  0  3  0  0  0  0  0  0
  182.6380  176.2890  138.2190 C   0  0  2  0  0  3  0  0  0  0  0  0
  180.6300  175.3310  139.2440 C   0  0  0  0  0  3  0  0  0  0  0  0
  181.9620  177.6640  138.2540 C   0  0  0  0  0  2  0  0  0  0  0  0
  189.5820  177.0030  139.8020 N   0  0  0  0  0  2  0  0  0  0  0  0
  187.7170  176.4650  136.7050 C   0  0  0  0  0  3  0  0  0  0  0  0
  187.6780  177.8560  136.1100 C   0  0  0  0  0  0  0  0  0  0  0  0
  187.8000  177.7630  134.6010 C   0  0  0  0  0  1  0  0  0  0  0  0
  189.2750  178.5030  137.8970 C   0  0  0  0  0  3  0  0  0  0  0  0
  188.1790  176.2700  137.9530 C   0  0  0  0  0  3  0  0  0  0  0  0
  188.6450  177.4460  138.7760 C   0  0  1  0  0  3  0  0  0  0  0  0
  186.3580  178.5170  136.4530 C   0  0  0  0  0  1  0  0  0  0  0  0
  188.8130  178.6970  136.6510 C   0  0  0  0  0  3  0  0  0  0  0  0
  1  5  1  0  0  0  0
  1  6  1  0  0  0  0
  2 12  1  6  0  0  0
  2 11  1  0  0  0  0
  3 16  1  0  0  0  0
  3 10  2  0  0  0  0
  4  7  2  0  0  0  0
  4  8  1  0  0  0  0
  7  9  1  0  0  0  0
  8  1  2  0  0  0  0
  9  5  2  0  0  0  0
 11 10  1  1  0  0  0
 11  7  1  0  0  0  0
 12 15  2  0  0  0  0
 13 35  1  6  0  0  0
 13 14  1  0  0  0  0
 13  2  1  0  0  0  0
 14  3  1  0  0  0  0
 15  4  1  0  0  0  0
 16 17  1  1  0  0  0
 18 16  1  0  0  0  0
 19 20  1  6  0  0  0
 19 21  1  0  0  0  0
 19 18  1  0  0  0  0
 21 22  1  0  0  0  0
 22 24  1  0  0  0  0
 23 27  1  0  0  0  0
 24 27  1  0  0  0  0
 25 26  1  1  0  0  0
 25 22  1  0  0  0  0
 26 23  1  0  0  0  0
 29 34  1  6  0  0  0
 29 28  1  0  0  0  0
 29 25  1  0  0  0  0
 31 33  2  0  0  0  0
 32 30  1  6  0  0  0
 32 34  1  0  0  0  0
 32 31  1  0  0  0  0
 33 28  1  0  0  0  0
 36 40  2  0  0  0  0
 37 42  1  0  0  0  0
 37 43  1  0  0  0  0
 37 36  1  0  0  0  0
 38 37  1  0  0  0  0
 39 41  1  0  0  0  0
 40 41  1  0  0  0  0
 41 35  1  1  0  0  0
 43 39  2  0  0  0  0
M  END
>  <MODEL>
6

>  <REMARK>
 VINA RESULT:      -8.5      2.378      6.167
  Name = 
  8 active torsions:
  status: ('A' for Active; 'I' for Inactive)
    1  A    between atoms: N_1  and  C_34
    2  A    between atoms: N_1  and  C_35
    3  A    between atoms: C_2  and  O_6
    4  A    between atoms: C_2  and  C_13
    5  A    between atoms: C_3  and  N_4
    6  A    between atoms: C_3  and  C_12
    7  A    between atoms: O_6  and  C_12
    8  A    between atoms: C_14  and  C_22
                            x       y       z     vdW  Elec       q    Type
                         _______ _______ _______ _____ _____    ______ ____

>  <TORSDO>
F 8

$$$$
=
 OpenBabel11052416113D

 43 48  0  0  1  0  0  0  0  0999 V2000
  187.7370  177.8820  147.2020 C   0  0  0  0  0  0  0  0  0  0  0  0
  185.6880  178.8410  142.7050 C   0  0  2  0  0  3  0  0  0  0  0  0
  187.6810  178.1420  140.8530 C   0  0  0  0  0  0  0  0  0  0  0  0
  186.1850  178.2420  145.4420 C   0  0  0  0  0  0  0  0  0  0  0  0
  188.7180  177.4950  146.2880 C   0  0  0  0  0  3  0  0  0  0  0  0
  188.0280  177.8920  148.5940 N   0  0  0  0  0  1  0  0  0  0  0  0
  187.1540  177.8740  144.4890 C   0  0  0  0  0  0  0  0  0  0  0  0
  186.4970  178.2330  146.7690 N   0  0  0  0  0  0  0  0  0  0  0  0
  188.4200  177.4790  144.9250 C   0  0  0  0  0  3  0  0  0  0  0  0
  187.8620  177.8330  142.1040 N   0  0  0  0  0  0  0  0  0  0  0  0
  186.7360  177.7700  143.0440 C   0  0  2  0  0  3  0  0  0  0  0  0
  184.5630  178.8310  143.7080 C   0  0  0  0  0  3  0  0  0  0  0  0
  185.2230  178.5950  141.2730 C   0  0  2  0  0  3  0  0  0  0  0  0
  186.3880  178.5810  140.3890 N   0  0  0  0  0  2  0  0  0  0  0  0
  184.8190  178.6010  145.0020 C   0  0  0  0  0  3  0  0  0  0  0  0
  188.8400  178.1300  139.9130 C   0  0  1  0  0  3  0  0  0  0  0  0
  190.1230  177.8900  140.7010 C   0  0  0  0  0  1  0  0  0  0  0  0
  188.6530  177.1330  138.9420 O   0  0  0  0  0  0  0  0  0  0  0  0
  188.2150  177.7930  137.7870 C   0  0  1  0  0  3  0  0  0  0  0  0
  189.0520  179.0390  137.5800 C   0  0  0  0  0  1  0  0  0  0  0  0
  188.3520  176.8980  136.5500 C   0  0  0  0  0  2  0  0  0  0  0  0
  188.4760  175.4610  136.8450 N   0  0  0  0  0  0  0  0  0  0  0  0
  188.5730  172.6370  136.6210 C   0  0  0  0  0  2  0  0  0  0  0  0
  187.2740  174.8030  136.3330 C   0  0  0  0  0  2  0  0  0  0  0  0
  189.7210  174.8720  136.2840 C   0  0  2  0  0  3  0  0  0  0  0  0
  189.5480  173.4340  135.7530 C   0  0  0  0  0  2  0  0  0  0  0  0
  187.2280  173.3490  136.7950 C   0  0  0  0  0  2  0  0  0  0  0  0
  191.5600  176.3500  137.2550 C   0  0  0  0  0  2  0  0  0  0  0  0
  190.8910  174.9550  137.2710 C   0  0  2  0  0  3  0  0  0  0  0  0
  194.3330  172.7980  136.5580 Cl  0  0  0  0  0  0  0  0  0  0  0  0
  193.7850  175.2980  137.3710 C   0  0  0  0  0  3  0  0  0  0  0  0
  193.2270  174.1870  136.5330 C   0  0  2  0  0  3  0  0  0  0  0  0
  192.9870  176.3130  137.7260 C   0  0  0  0  0  3  0  0  0  0  0  0
  191.8610  173.7620  137.0820 C   0  0  0  0  0  2  0  0  0  0  0  0
  184.2970  179.6370  140.8510 N   0  0  0  0  0  2  0  0  0  0  0  0
  180.8830  178.3390  140.7630 C   0  0  0  0  0  3  0  0  0  0  0  0
  181.0190  177.1440  139.8440 C   0  0  0  0  0  0  0  0  0  0  0  0
  180.1150  176.0270  140.3300 C   0  0  0  0  0  1  0  0  0  0  0  0
  183.4710  177.5100  139.9770 C   0  0  0  0  0  3  0  0  0  0  0  0
  181.9050  179.1980  140.9190 C   0  0  0  0  0  3  0  0  0  0  0  0
  183.1920  178.9850  140.1610 C   0  0  1  0  0  3  0  0  0  0  0  0
  180.6020  177.5330  138.4400 C   0  0  0  0  0  1  0  0  0  0  0  0
  182.4490  176.6520  139.8210 C   0  0  0  0  0  3  0  0  0  0  0  0
  1  6  1  0  0  0  0
  2 11  1  0  0  0  0
  2 12  1  1  0  0  0
  3 10  2  0  0  0  0
  4  8  2  0  0  0  0
  5  1  2  0  0  0  0
  7  9  2  0  0  0  0
  7  4  1  0  0  0  0
  8  1  1  0  0  0  0
  9  5  1  0  0  0  0
 11 10  1  6  0  0  0
 11  7  1  0  0  0  0
 12 15  2  0  0  0  0
 13 35  1  6  0  0  0
 13  2  1  0  0  0  0
 14  3  1  0  0  0  0
 14 13  1  0  0  0  0
 15  4  1  0  0  0  0
 16 17  1  1  0  0  0
 16  3  1  0  0  0  0
 18 16  1  0  0  0  0
 19 20  1  6  0  0  0
 19 18  1  0  0  0  0
 21 22  1  0  0  0  0
 21 19  1  0  0  0  0
 23 27  1  0  0  0  0
 24 27  1  0  0  0  0
 24 22  1  0  0  0  0
 25 26  1  1  0  0  0
 25 22  1  0  0  0  0
 25 29  1  0  0  0  0
 26 23  1  0  0  0  0
 28 29  1  0  0  0  0
 28 33  1  0  0  0  0
 29 34  1  6  0  0  0
 31 33  2  0  0  0  0
 32 30  1  1  0  0  0
 32 34  1  0  0  0  0
 32 31  1  0  0  0  0
 36 40  2  0  0  0  0
 37 38  1  0  0  0  0
 37 36  1  0  0  0  0
 39 41  1  0  0  0  0
 41 35  1  1  0  0  0
 41 40  1  0  0  0  0
 42 37  1  0  0  0  0
 43 37  1  0  0  0  0
 43 39  2  0  0  0  0
M  END
>  <MODEL>
7

>  <REMARK>
 VINA RESULT:      -8.4      1.929      3.294
  Name = 
  8 active torsions:
  status: ('A' for Active; 'I' for Inactive)
    1  A    between atoms: N_1  and  C_34
    2  A    between atoms: N_1  and  C_35
    3  A    between atoms: C_2  and  O_6
    4  A    between atoms: C_2  and  C_13
    5  A    between atoms: C_3  and  N_4
    6  A    between atoms: C_3  and  C_12
    7  A    between atoms: O_6  and  C_12
    8  A    between atoms: C_14  and  C_22
                            x       y       z     vdW  Elec       q    Type
                         _______ _______ _______ _____ _____    ______ ____

>  <TORSDO>
F 8

$$$$
=
 OpenBabel11052416113D

 43 48  0  0  1  0  0  0  0  0999 V2000
  189.3280  176.9500  136.2190 C   0  0  0  0  0  0  0  0  0  0  0  0
  184.8400  177.8380  138.3210 C   0  0  2  0  0  3  0  0  0  0  0  0
  185.4350  178.7020  140.9260 C   0  0  0  0  0  0  0  0  0  0  0  0
  187.0300  177.4490  136.5450 C   0  0  0  0  0  0  0  0  0  0  0  0
  189.6340  177.4160  137.5000 C   0  0  0  0  0  3  0  0  0  0  0  0
  190.3620  176.4520  135.3790 N   0  0  0  0  0  1  0  0  0  0  0  0
  187.2980  177.9120  137.8490 C   0  0  0  0  0  0  0  0  0  0  0  0
  188.0470  176.9860  135.7660 N   0  0  0  0  0  0  0  0  0  0  0  0
  188.6150  177.9110  138.3130 C   0  0  0  0  0  3  0  0  0  0  0  0
  186.4140  178.5650  140.0800 N   0  0  0  0  0  0  0  0  0  0  0  0
  186.1720  178.5380  138.6330 C   0  0  2  0  0  3  0  0  0  0  0  0
  184.6180  177.7400  136.8340 C   0  0  0  0  0  3  0  0  0  0  0  0
  183.7370  178.6000  139.0480 C   0  0  2  0  0  3  0  0  0  0  0  0
  184.0680  178.6750  140.4710 N   0  0  0  0  0  2  0  0  0  0  0  0
  185.6510  177.5030  136.0150 C   0  0  0  0  0  3  0  0  0  0  0  0
  185.7270  178.7930  142.3870 C   0  0  1  0  0  3  0  0  0  0  0  0
  184.5360  179.4250  143.0990 C   0  0  0  0  0  1  0  0  0  0  0  0
  185.9950  177.5120  142.8990 O   0  0  0  0  0  0  0  0  0  0  0  0
  187.0780  177.6630  143.7740 C   0  0  1  0  0  3  0  0  0  0  0  0
  186.5530  177.8780  145.1800 C   0  0  0  0  0  1  0  0  0  0  0  0
  187.9720  176.4180  143.7700 C   0  0  0  0  0  2  0  0  0  0  0  0
  189.3080  176.6260  143.1870 N   0  0  0  0  0  0  0  0  0  0  0  0
  191.4790  177.5730  141.6310 C   0  0  0  0  0  2  0  0  0  0  0  0
  189.1770  176.4990  141.7360 C   0  0  0  0  0  2  0  0  0  0  0  0
  189.9050  177.9290  143.5850 C   0  0  2  0  0  3  0  0  0  0  0  0
  190.7260  178.6060  142.4700 C   0  0  0  0  0  2  0  0  0  0  0  0
  190.5560  176.4820  141.0790 C   0  0  0  0  0  2  0  0  0  0  0  0
  191.3860  176.4240  145.0180 C   0  0  0  0  0  2  0  0  0  0  0  0
  190.7230  177.8150  144.8770 C   0  0  2  0  0  3  0  0  0  0  0  0
  188.7990  177.7660  148.5240 Cl  0  0  0  0  0  0  0  0  0  0  0  0
  190.8130  176.3790  147.4130 C   0  0  0  0  0  3  0  0  0  0  0  0
  189.5580  177.1180  147.0560 C   0  0  2  0  0  3  0  0  0  0  0  0
  191.6860  176.0670  146.4470 C   0  0  0  0  0  3  0  0  0  0  0  0
  189.8900  178.2700  146.1010 C   0  0  0  0  0  2  0  0  0  0  0  0
  182.4550  177.9300  138.8750 N   0  0  0  0  0  2  0  0  0  0  0  0
  180.7250  179.8000  136.2560 C   0  0  0  0  0  3  0  0  0  0  0  0
  180.5350  181.1550  136.9020 C   0  0  0  0  0  0  0  0  0  0  0  0
  180.6950  182.2410  135.8560 C   0  0  0  0  0  1  0  0  0  0  0  0
  182.0120  180.3280  138.7180 C   0  0  0  0  0  3  0  0  0  0  0  0
  181.1830  178.7600  136.9740 C   0  0  0  0  0  3  0  0  0  0  0  0
  181.4940  178.9350  138.4400 C   0  0  1  0  0  3  0  0  0  0  0  0
  179.1410  181.2460  137.4900 C   0  0  0  0  0  1  0  0  0  0  0  0
  181.5540  181.3660  138.0000 C   0  0  0  0  0  3  0  0  0  0  0  0
  1  5  1  0  0  0  0
  2 12  1  6  0  0  0
  2 11  1  0  0  0  0
  2 13  1  0  0  0  0
  3 16  1  0  0  0  0
  4  7  2  0  0  0  0
  5  9  2  0  0  0  0
  6  1  1  0  0  0  0
  7  9  1  0  0  0  0
  8  1  2  0  0  0  0
  8  4  1  0  0  0  0
 10  3  2  0  0  0  0
 11  7  1  6  0  0  0
 11 10  1  0  0  0  0
 13 35  1  1  0  0  0
 13 14  1  0  0  0  0
 14  3  1  0  0  0  0
 15  4  1  0  0  0  0
 15 12  2  0  0  0  0
 16 18  1  0  0  0  0
 16 17  1  1  0  0  0
 18 19  1  0  0  0  0
 19 20  1  1  0  0  0
 21 19  1  0  0  0  0
 22 25  1  0  0  0  0
 22 21  1  0  0  0  0
 23 26  1  0  0  0  0
 24 22  1  0  0  0  0
 25 26  1  6  0  0  0
 25 29  1  0  0  0  0
 27 23  1  0  0  0  0
 27 24  1  0  0  0  0
 28 33  1  0  0  0  0
 29 28  1  1  0  0  0
 29 34  1  0  0  0  0
 32 31  1  0  0  0  0
 32 30  1  1  0  0  0
 33 31  2  0  0  0  0
 34 32  1  0  0  0  0
 36 37  1  0  0  0  0
 36 40  2  0  0  0  0
 37 42  1  0  0  0  0
 37 43  1  0  0  0  0
 38 37  1  0  0  0  0
 40 41  1  0  0  0  0
 41 39  1  0  0  0  0
 41 35  1  6  0  0  0
 43 39  2  0  0  0  0
M  END
>  <MODEL>
8

>  <REMARK>
 VINA RESULT:      -8.3      2.985      7.734
  Name = 
  8 active torsions:
  status: ('A' for Active; 'I' for Inactive)
    1  A    between atoms: N_1  and  C_34
    2  A    between atoms: N_1  and  C_35
    3  A    between atoms: C_2  and  O_6
    4  A    between atoms: C_2  and  C_13
    5  A    between atoms: C_3  and  N_4
    6  A    between atoms: C_3  and  C_12
    7  A    between atoms: O_6  and  C_12
    8  A    between atoms: C_14  and  C_22
                            x       y       z     vdW  Elec       q    Type
                         _______ _______ _______ _____ _____    ______ ____

>  <TORSDO>
F 8

$$$$
=
 OpenBabel11052416113D

 43 48  0  0  1  0  0  0  0  0999 V2000
  187.8870  177.8000  146.4340 C   0  0  0  0  0  0  0  0  0  0  0  0
  185.9160  178.8850  141.9300 C   0  0  2  0  0  3  0  0  0  0  0  0
  187.8990  178.1340  140.0890 C   0  0  0  0  0  0  0  0  0  0  0  0
  186.3650  178.2370  144.6650 C   0  0  0  0  0  0  0  0  0  0  0  0
  188.8620  177.3880  145.5240 C   0  0  0  0  0  3  0  0  0  0  0  0
  188.1640  177.7840  147.8290 N   0  0  0  0  0  1  0  0  0  0  0  0
  187.3290  177.8450  143.7160 C   0  0  0  0  0  0  0  0  0  0  0  0
  186.6650  178.2020  145.9940 N   0  0  0  0  0  0  0  0  0  0  0  0
  188.5760  177.3980  144.1580 C   0  0  0  0  0  3  0  0  0  0  0  0
  188.0570  177.8050  141.3380 N   0  0  0  0  0  0  0  0  0  0  0  0
  186.9210  177.7720  142.2660 C   0  0  2  0  0  3  0  0  0  0  0  0
  184.7830  178.9050  142.9230 C   0  0  0  0  0  3  0  0  0  0  0  0
  185.4560  178.6720  140.4920 C   0  0  2  0  0  3  0  0  0  0  0  0
  186.6280  178.6250  139.6180 N   0  0  0  0  0  2  0  0  0  0  0  0
  185.0180  178.6510  144.2170 C   0  0  0  0  0  3  0  0  0  0  0  0
  189.0660  178.0910  139.1590 C   0  0  1  0  0  3  0  0  0  0  0  0
  189.0570  179.3380  138.2830 C   0  0  0  0  0  1  0  0  0  0  0  0
  190.2580  178.0050  139.8970 O   0  0  0  0  0  0  0  0  0  0  0  0
  191.1670  177.3110  139.0870 C   0  0  1  0  0  3  0  0  0  0  0  0
  192.4680  177.1290  139.8440 C   0  0  0  0  0  1  0  0  0  0  0  0
  190.6250  175.9300  138.7030 C   0  0  0  0  0  2  0  0  0  0  0  0
  191.1170  175.4160  137.4150 N   0  0  0  0  0  0  0  0  0  0  0  0
  192.1330  173.7470  135.3610 C   0  0  0  0  0  2  0  0  0  0  0  0
  192.4210  174.7980  137.6580 C   0  0  0  0  0  2  0  0  0  0  0  0
  190.1590  174.4730  136.7760 C   0  0  2  0  0  3  0  0  0  0  0  0
  190.8360  173.3010  136.0370 C   0  0  0  0  0  2  0  0  0  0  0  0
  193.0920  174.4390  136.3350 C   0  0  0  0  0  2  0  0  0  0  0  0
  189.5760  176.6690  135.6130 C   0  0  0  0  0  2  0  0  0  0  0  0
  189.1640  175.1980  135.8610 C   0  0  2  0  0  3  0  0  0  0  0  0
  185.3570  176.0170  137.2160 Cl  0  0  0  0  0  0  0  0  0  0  0  0
  187.2280  177.3770  135.8520 C   0  0  0  0  0  3  0  0  0  0  0  0
  187.0770  176.2940  136.8780 C   0  0  2  0  0  3  0  0  0  0  0  0
  188.4090  177.5410  135.2420 C   0  0  0  0  0  3  0  0  0  0  0  0
  187.7110  174.9990  136.3580 C   0  0  0  0  0  2  0  0  0  0  0  0
  184.5730  179.7530  140.0740 N   0  0  0  0  0  2  0  0  0  0  0  0
  181.4300  179.8190  138.2110 C   0  0  0  0  0  3  0  0  0  0  0  0
  181.1560  178.3460  137.9950 C   0  0  0  0  0  0  0  0  0  0  0  0
  179.6640  178.0900  138.0910 C   0  0  0  0  0  1  0  0  0  0  0  0
  183.0460  177.9200  139.5480 C   0  0  0  0  0  3  0  0  0  0  0  0
  182.6050  180.2250  138.7230 C   0  0  0  0  0  3  0  0  0  0  0  0
  183.6680  179.2120  139.0680 C   0  0  1  0  0  3  0  0  0  0  0  0
  181.6330  177.9390  136.6150 C   0  0  0  0  0  1  0  0  0  0  0  0
  181.8720  177.5140  139.0360 C   0  0  0  0  0  3  0  0  0  0  0  0
  1  6  1  0  0  0  0
  2 11  1  0  0  0  0
  2 12  1  1  0  0  0
  3 10  2  0  0  0  0
  4  8  2  0  0  0  0
  5  1  2  0  0  0  0
  7  9  2  0  0  0  0
  7  4  1  0  0  0  0
  8  1  1  0  0  0  0
  9  5  1  0  0  0  0
 11 10  1  6  0  0  0
 11  7  1  0  0  0  0
 12 15  2  0  0  0  0
 13 35  1  6  0  0  0
 13  2  1  0  0  0  0
 14  3  1  0  0  0  0
 14 13  1  0  0  0  0
 15  4  1  0  0  0  0
 16 17  1  1  0  0  0
 16 18  1  0  0  0  0
 16  3  1  0  0  0  0
 19 20  1  1  0  0  0
 19 18  1  0  0  0  0
 21 19  1  0  0  0  0
 22 24  1  0  0  0  0
 22 21  1  0  0  0  0
 23 26  1  0  0  0  0
 23 27  1  0  0  0  0
 25 26  1  6  0  0  0
 25 22  1  0  0  0  0
 27 24  1  0  0  0  0
 29 28  1  1  0  0  0
 29 34  1  0  0  0  0
 29 25  1  0  0  0  0
 31 32  1  0  0  0  0
 32 30  1  6  0  0  0
 33 28  1  0  0  0  0
 33 31  2  0  0  0  0
 34 32  1  0  0  0  0
 36 40  2  0  0  0  0
 37 38  1  0  0  0  0
 37 36  1  0  0  0  0
 37 43  1  0  0  0  0
 40 41  1  0  0  0  0
 41 39  1  0  0  0  0
 41 35  1  1  0  0  0
 42 37  1  0  0  0  0
 43 39  2  0  0  0  0
M  END
>  <MODEL>
9

>  <REMARK>
 VINA RESULT:      -8.3      1.517      2.809
  Name = 
  8 active torsions:
  status: ('A' for Active; 'I' for Inactive)
    1  A    between atoms: N_1  and  C_34
    2  A    between atoms: N_1  and  C_35
    3  A    between atoms: C_2  and  O_6
    4  A    between atoms: C_2  and  C_13
    5  A    between atoms: C_3  and  N_4
    6  A    between atoms: C_3  and  C_12
    7  A    between atoms: O_6  and  C_12
    8  A    between atoms: C_14  and  C_22
                            x       y       z     vdW  Elec       q    Type
                         _______ _______ _______ _____ _____    ______ ____

>  <TORSDO>
F 8

$$$$
