=
 OpenBabel11052415493D

 34 39  0  0  0  0  0  0  0  0999 V2000
  187.7580  178.1100  143.3350 C   0  0  0  0  0  0  0  0  0  0  0  0
  184.6850  178.1370  145.5520 C   0  0  0  0  0  3  0  0  0  0  0  0
  186.9190  177.6160  145.9890 C   0  0  0  0  0  3  0  0  0  0  0  0
  189.4370  178.9130  141.8250 O   0  0  0  0  0  0  0  0  0  0  0  0
  188.2170  178.2340  141.9070 C   0  0  0  0  0  2  0  0  0  0  0  0
  190.0240  177.4770  144.3320 C   0  0  0  0  0  0  0  0  0  0  0  0
  190.4230  177.1060  145.5700 N   0  0  0  0  0  0  0  0  0  0  0  0
  191.0160  177.7280  143.2320 C   0  0  0  0  0  2  0  0  0  0  0  0
  190.3860  177.9470  141.9340 N   0  0  0  0  0  0  0  0  0  0  0  0
  188.2400  177.4660  145.6070 C   0  0  0  0  0  0  0  0  0  0  0  0
  188.6560  177.7090  144.3340 C   0  0  0  0  0  0  0  0  0  0  0  0
  189.3270  177.0880  146.3620 C   0  0  0  0  0  3  0  0  0  0  0  0
  183.4880  178.4980  144.9540 C   0  0  0  0  0  3  0  0  0  0  0  0
  183.2290  178.8550  143.6400 C   0  0  0  0  0  0  0  0  0  0  0  0
  184.1650  178.9230  142.6230 C   0  0  0  0  0  3  0  0  0  0  0  0
  185.9710  178.0250  145.0370 C   0  0  0  0  0  0  0  0  0  0  0  0
  185.5270  178.6690  142.6510 C   0  0  0  0  0  3  0  0  0  0  0  0
  186.3810  178.2730  143.6850 C   0  0  0  0  0  0  0  0  0  0  0  0
  192.8320  176.8580  139.3110 C   0  0  0  0  0  3  0  0  0  0  0  0
  190.0970  176.6190  139.8680 C   0  0  0  0  0  3  0  0  0  0  0  0
  191.7070  174.8480  136.4030 C   0  0  0  0  0  0  0  0  0  0  0  0
  192.5340  175.5620  137.2870 C   0  0  0  0  0  3  0  0  0  0  0  0
  192.0050  176.1510  138.4360 C   0  0  0  0  0  0  0  0  0  0  0  0
  189.7990  175.3240  137.8430 C   0  0  0  0  0  3  0  0  0  0  0  0
  190.6270  176.0310  138.7170 C   0  0  0  0  0  0  0  0  0  0  0  0
  190.3360  174.7370  136.6940 C   0  0  0  0  0  3  0  0  0  0  0  0
  190.9260  177.3310  140.7500 C   0  0  0  0  0  0  0  0  0  0  0  0
  192.2960  177.4450  140.4600 C   0  0  0  0  0  3  0  0  0  0  0  0
  192.2550  174.2420  135.2170 N   0  0  0  0  0  0  0  0  0  0  0  0
  191.6190  173.0900  134.5970 C   0  0  0  0  0  1  0  0  0  0  0  0
  193.4640  174.7590  134.5950 C   0  0  0  0  0  1  0  0  0  0  0  0
  181.8240  179.1990  143.2670 C   0  0  0  0  0  3  0  0  0  0  0  0
  180.9220  178.5190  144.0880 O   0  0  0  0  0  1  0  0  0  0  0  0
  181.5810  178.8770  141.9310 O   0  0  0  0  0  1  0  0  0  0  0  0
  1 18  2  0  0  0  0
  1 11  1  0  0  0  0
  4  5  1  0  0  0  0
  4  9  1  0  0  0  0
  5  1  1  0  0  0  0
  6 11  2  0  0  0  0
  6  7  1  0  0  0  0
  7 12  2  0  0  0  0
  8  6  1  0  0  0  0
  9  8  1  0  0  0  0
 10  3  2  0  0  0  0
 10 12  1  0  0  0  0
 11 10  1  0  0  0  0
 13  2  1  0  0  0  0
 14 13  2  0  0  0  0
 15 17  2  0  0  0  0
 15 14  1  0  0  0  0
 16  2  2  0  0  0  0
 16  3  1  0  0  0  0
 17 18  1  0  0  0  0
 18 16  1  0  0  0  0
 19 28  1  0  0  0  0
 20 27  1  0  0  0  0
 21 26  1  0  0  0  0
 21 22  2  0  0  0  0
 22 23  1  0  0  0  0
 23 25  1  0  0  0  0
 23 19  2  0  0  0  0
 24 25  1  0  0  0  0
 25 20  2  0  0  0  0
 26 24  2  0  0  0  0
 27  9  1  0  0  0  0
 28 27  2  0  0  0  0
 29 21  1  0  0  0  0
 30 29  1  0  0  0  0
 31 29  1  0  0  0  0
 32 14  1  0  0  0  0
 32 33  1  0  0  0  0
 34 32  1  0  0  0  0
M  END
>  <MODEL>
1

>  <REMARK>
 VINA RESULT:      -9.9      0.000      0.000
  Name = 
  3 active torsions:
  status: ('A' for Active; 'I' for Inactive)
    1  A    between atoms: C_3  and  C_25
    2  A    between atoms: C_7  and  N_11
    3  A    between atoms: N_18  and  C_30
                            x       y       z     vdW  Elec       q    Type
                         _______ _______ _______ _____ _____    ______ ____

>  <TORSDO>
F 3

$$$$
=
 OpenBabel11052415493D

 34 39  0  0  0  0  0  0  0  0999 V2000
  189.0970  177.7520  141.9930 C   0  0  0  0  0  0  0  0  0  0  0  0
  190.9300  177.0410  145.2320 C   0  0  0  0  0  3  0  0  0  0  0  0
  191.6390  177.0450  143.0070 C   0  0  0  0  0  3  0  0  0  0  0  0
  187.7860  178.9400  140.3760 O   0  0  0  0  0  0  0  0  0  0  0  0
  187.7320  177.9970  141.4070 C   0  0  0  0  0  2  0  0  0  0  0  0
  190.3670  177.6480  139.7780 C   0  0  0  0  0  0  0  0  0  0  0  0
  191.6500  177.3640  139.4550 N   0  0  0  0  0  0  0  0  0  0  0  0
  189.3900  178.1350  138.7460 C   0  0  0  0  0  2  0  0  0  0  0  0
  188.0230  178.2190  139.2500 N   0  0  0  0  0  0  0  0  0  0  0  0
  191.4200  177.2100  141.6510 C   0  0  0  0  0  0  0  0  0  0  0  0
  190.2020  177.5580  141.1530 C   0  0  0  0  0  0  0  0  0  0  0  0
  192.3050  177.0840  140.6050 C   0  0  0  0  0  3  0  0  0  0  0  0
  190.1880  177.1230  146.3990 C   0  0  0  0  0  3  0  0  0  0  0  0
  188.8460  177.4260  146.5740 C   0  0  0  0  0  0  0  0  0  0  0  0
  187.9470  177.7220  145.5650 C   0  0  0  0  0  3  0  0  0  0  0  0
  190.5740  177.2350  143.9030 C   0  0  0  0  0  0  0  0  0  0  0  0
  188.1420  177.7890  144.1950 C   0  0  0  0  0  3  0  0  0  0  0  0
  189.2770  177.5880  143.4020 C   0  0  0  0  0  0  0  0  0  0  0  0
  186.0790  176.3550  136.6420 C   0  0  0  0  0  3  0  0  0  0  0  0
  185.6250  178.2610  138.6440 C   0  0  0  0  0  3  0  0  0  0  0  0
  182.4310  176.9100  136.2540 C   0  0  0  0  0  0  0  0  0  0  0  0
  183.7300  176.4100  136.0550 C   0  0  0  0  0  3  0  0  0  0  0  0
  184.7910  176.8550  136.8450 C   0  0  0  0  0  0  0  0  0  0  0  0
  183.2760  178.3170  138.0570 C   0  0  0  0  0  3  0  0  0  0  0  0
  184.5630  177.8160  137.8540 C   0  0  0  0  0  0  0  0  0  0  0  0
  182.2180  177.8670  137.2630 C   0  0  0  0  0  3  0  0  0  0  0  0
  186.9220  177.7590  138.4440 C   0  0  0  0  0  0  0  0  0  0  0  0
  187.1370  176.8050  137.4360 C   0  0  0  0  0  3  0  0  0  0  0  0
  181.3380  176.4500  135.4380 N   0  0  0  0  0  0  0  0  0  0  0  0
  180.5680  177.3740  134.6190 C   0  0  0  0  0  1  0  0  0  0  0  0
  180.9610  175.0460  135.4030 C   0  0  0  0  0  1  0  0  0  0  0  0
  188.3030  177.4410  147.9660 C   0  0  0  0  0  3  0  0  0  0  0  0
  187.0170  177.9840  147.9820 O   0  0  0  0  0  1  0  0  0  0  0  0
  189.1380  178.1780  148.8070 O   0  0  0  0  0  1  0  0  0  0  0  0
  1 18  1  0  0  0  0
  2 13  2  0  0  0  0
  3 16  2  0  0  0  0
  4  5  1  0  0  0  0
  5  1  1  0  0  0  0
  6 11  1  0  0  0  0
  7  6  2  0  0  0  0
  7 12  1  0  0  0  0
  8  9  1  0  0  0  0
  8  6  1  0  0  0  0
  9  4  1  0  0  0  0
 10  3  1  0  0  0  0
 11 10  1  0  0  0  0
 11  1  2  0  0  0  0
 12 10  2  0  0  0  0
 13 14  1  0  0  0  0
 14 32  1  0  0  0  0
 15 14  2  0  0  0  0
 16  2  1  0  0  0  0
 17 15  1  0  0  0  0
 18 16  1  0  0  0  0
 18 17  2  0  0  0  0
 19 23  2  0  0  0  0
 19 28  1  0  0  0  0
 21 26  1  0  0  0  0
 22 21  2  0  0  0  0
 22 23  1  0  0  0  0
 23 25  1  0  0  0  0
 25 24  1  0  0  0  0
 25 20  2  0  0  0  0
 26 24  2  0  0  0  0
 27 20  1  0  0  0  0
 27  9  1  0  0  0  0
 28 27  2  0  0  0  0
 29 21  1  0  0  0  0
 30 29  1  0  0  0  0
 31 29  1  0  0  0  0
 32 33  1  0  0  0  0
 32 34  1  0  0  0  0
M  END
>  <MODEL>
2

>  <REMARK>
 VINA RESULT:      -9.6      4.445      6.836
  Name = 
  3 active torsions:
  status: ('A' for Active; 'I' for Inactive)
    1  A    between atoms: C_3  and  C_25
    2  A    between atoms: C_7  and  N_11
    3  A    between atoms: N_18  and  C_30
                            x       y       z     vdW  Elec       q    Type
                         _______ _______ _______ _____ _____    ______ ____

>  <TORSDO>
F 3

$$$$
=
 OpenBabel11052415493D

 34 39  0  0  0  0  0  0  0  0999 V2000
  182.3170  177.1730  139.9370 C   0  0  0  0  0  0  0  0  0  0  0  0
  180.6790  175.2530  137.1100 C   0  0  0  0  0  3  0  0  0  0  0  0
  179.7900  176.3610  138.9650 C   0  0  0  0  0  3  0  0  0  0  0  0
  183.6630  178.8210  141.0400 O   0  0  0  0  0  0  0  0  0  0  0  0
  183.6470  177.5090  140.5560 C   0  0  0  0  0  2  0  0  0  0  0  0
  180.8600  178.2430  141.7430 C   0  0  0  0  0  0  0  0  0  0  0  0
  179.5240  178.2820  141.9570 N   0  0  0  0  0  0  0  0  0  0  0  0
  181.8110  179.0410  142.5890 C   0  0  0  0  0  2  0  0  0  0  0  0
  183.2110  178.7320  142.3170 N   0  0  0  0  0  0  0  0  0  0  0  0
  179.9150  177.1070  140.1220 C   0  0  0  0  0  0  0  0  0  0  0  0
  181.1260  177.5110  140.5950 C   0  0  0  0  0  0  0  0  0  0  0  0
  178.9330  177.5760  140.9650 C   0  0  0  0  0  3  0  0  0  0  0  0
  181.5230  174.7050  136.1580 C   0  0  0  0  0  3  0  0  0  0  0  0
  182.9070  174.7450  136.0760 C   0  0  0  0  0  0  0  0  0  0  0  0
  183.7510  175.3720  136.9740 C   0  0  0  0  0  3  0  0  0  0  0  0
  180.9460  175.9980  138.2530 C   0  0  0  0  0  0  0  0  0  0  0  0
  183.4520  176.0850  138.1240 C   0  0  0  0  0  3  0  0  0  0  0  0
  182.2350  176.3980  138.7380 C   0  0  0  0  0  0  0  0  0  0  0  0
  184.6780  178.8180  145.7660 C   0  0  0  0  0  3  0  0  0  0  0  0
  185.4320  178.0620  143.1760 C   0  0  0  0  0  3  0  0  0  0  0  0
  188.1470  177.6470  146.3700 C   0  0  0  0  0  0  0  0  0  0  0  0
  186.8590  178.1640  146.5930 C   0  0  0  0  0  3  0  0  0  0  0  0
  185.9560  178.3040  145.5380 C   0  0  0  0  0  0  0  0  0  0  0  0
  187.6140  177.4100  144.0030 C   0  0  0  0  0  3  0  0  0  0  0  0
  186.3360  177.9240  144.2320 C   0  0  0  0  0  0  0  0  0  0  0  0
  188.5120  177.2730  145.0640 C   0  0  0  0  0  3  0  0  0  0  0  0
  184.1450  178.5780  143.4030 C   0  0  0  0  0  0  0  0  0  0  0  0
  183.7790  178.9550  144.7050 C   0  0  0  0  0  3  0  0  0  0  0  0
  189.0770  177.5050  147.4590 N   0  0  0  0  0  0  0  0  0  0  0  0
  188.8580  178.1780  148.7300 C   0  0  0  0  0  1  0  0  0  0  0  0
  190.2700  176.6830  147.3300 C   0  0  0  0  0  1  0  0  0  0  0  0
  183.5640  174.0560  134.9240 C   0  0  0  0  0  3  0  0  0  0  0  0
  183.4850  172.6700  135.0760 O   0  0  0  0  0  1  0  0  0  0  0  0
  184.9000  174.4440  134.8220 O   0  0  0  0  0  1  0  0  0  0  0  0
  1  5  1  0  0  0  0
  1 11  1  0  0  0  0
  2 16  2  0  0  0  0
  3 10  2  0  0  0  0
  4  9  1  0  0  0  0
  5  4  1  0  0  0  0
  6  7  1  0  0  0  0
  6  8  1  0  0  0  0
  9  8  1  0  0  0  0
  9 27  1  0  0  0  0
 10 11  1  0  0  0  0
 10 12  1  0  0  0  0
 11  6  2  0  0  0  0
 12  7  2  0  0  0  0
 13  2  1  0  0  0  0
 14 13  2  0  0  0  0
 14 15  1  0  0  0  0
 15 17  2  0  0  0  0
 16 18  1  0  0  0  0
 16  3  1  0  0  0  0
 17 18  1  0  0  0  0
 18  1  2  0  0  0  0
 20 27  2  0  0  0  0
 20 25  1  0  0  0  0
 21 22  1  0  0  0  0
 21 29  1  0  0  0  0
 23 19  1  0  0  0  0
 23 22  2  0  0  0  0
 24 25  2  0  0  0  0
 24 26  1  0  0  0  0
 25 23  1  0  0  0  0
 26 21  2  0  0  0  0
 27 28  1  0  0  0  0
 28 19  2  0  0  0  0
 29 30  1  0  0  0  0
 31 29  1  0  0  0  0
 32 33  1  0  0  0  0
 32 14  1  0  0  0  0
 34 32  1  0  0  0  0
M  END
>  <MODEL>
3

>  <REMARK>
 VINA RESULT:      -9.6      5.076      9.436
  Name = 
  3 active torsions:
  status: ('A' for Active; 'I' for Inactive)
    1  A    between atoms: C_3  and  C_25
    2  A    between atoms: C_7  and  N_11
    3  A    between atoms: N_18  and  C_30
                            x       y       z     vdW  Elec       q    Type
                         _______ _______ _______ _____ _____    ______ ____

>  <TORSDO>
F 3

$$$$
=
 OpenBabel11052415493D

 34 39  0  0  0  0  0  0  0  0999 V2000
  189.5930  177.2770  142.1310 C   0  0  0  0  0  0  0  0  0  0  0  0
  192.8470  177.3710  140.1920 C   0  0  0  0  0  3  0  0  0  0  0  0
  192.3180  177.9810  142.3830 C   0  0  0  0  0  3  0  0  0  0  0  0
  187.5990  176.3850  143.1180 O   0  0  0  0  0  0  0  0  0  0  0  0
  188.1130  177.0390  141.9940 C   0  0  0  0  0  2  0  0  0  0  0  0
  189.5560  178.0470  144.5670 C   0  0  0  0  0  0  0  0  0  0  0  0
  190.5020  178.5340  145.4020 N   0  0  0  0  0  0  0  0  0  0  0  0
  188.1720  177.7240  145.0560 C   0  0  0  0  0  2  0  0  0  0  0  0
  187.2530  177.3780  143.9770 N   0  0  0  0  0  0  0  0  0  0  0  0
  191.4330  178.1270  143.4350 C   0  0  0  0  0  0  0  0  0  0  0  0
  190.1190  177.7840  143.3270 C   0  0  0  0  0  0  0  0  0  0  0  0
  191.6630  178.5950  144.7090 C   0  0  0  0  0  3  0  0  0  0  0  0
  192.8030  176.9320  138.8780 C   0  0  0  0  0  3  0  0  0  0  0  0
  191.7290  176.4560  138.1410 C   0  0  0  0  0  0  0  0  0  0  0  0
  190.4310  176.3210  138.6010 C   0  0  0  0  0  3  0  0  0  0  0  0
  191.8550  177.4680  141.1600 C   0  0  0  0  0  0  0  0  0  0  0  0
  189.8960  176.6090  139.8460 C   0  0  0  0  0  3  0  0  0  0  0  0
  190.4730  177.1130  141.0160 C   0  0  0  0  0  0  0  0  0  0  0  0
  184.0440  178.9130  145.1600 C   0  0  0  0  0  3  0  0  0  0  0  0
  185.1460  177.9020  142.7910 C   0  0  0  0  0  3  0  0  0  0  0  0
  181.2170  179.4200  142.8110 C   0  0  0  0  0  0  0  0  0  0  0  0
  181.9840  179.4160  143.9890 C   0  0  0  0  0  3  0  0  0  0  0  0
  183.2870  178.9140  143.9870 C   0  0  0  0  0  0  0  0  0  0  0  0
  183.0860  178.4040  141.6200 C   0  0  0  0  0  3  0  0  0  0  0  0
  183.8430  178.4040  142.7940 C   0  0  0  0  0  0  0  0  0  0  0  0
  181.7830  178.9080  141.6290 C   0  0  0  0  0  3  0  0  0  0  0  0
  185.9110  177.9010  143.9700 C   0  0  0  0  0  0  0  0  0  0  0  0
  185.3470  178.4100  145.1520 C   0  0  0  0  0  3  0  0  0  0  0  0
  179.8740  179.9380  142.8150 N   0  0  0  0  0  0  0  0  0  0  0  0
  179.3810  180.7640  141.7230 C   0  0  0  0  0  1  0  0  0  0  0  0
  178.9590  179.6540  143.9090 C   0  0  0  0  0  1  0  0  0  0  0  0
  191.9730  176.0480  136.7240 C   0  0  0  0  0  3  0  0  0  0  0  0
  191.6320  174.7070  136.5370 O   0  0  0  0  0  1  0  0  0  0  0  0
  193.3120  176.2460  136.3850 O   0  0  0  0  0  1  0  0  0  0  0  0
  1 11  1  0  0  0  0
  2 16  2  0  0  0  0
  3 10  2  0  0  0  0
  4  9  1  0  0  0  0
  5  1  1  0  0  0  0
  5  4  1  0  0  0  0
  6  8  1  0  0  0  0
  6  7  1  0  0  0  0
  9  8  1  0  0  0  0
 10 12  1  0  0  0  0
 11 10  1  0  0  0  0
 11  6  2  0  0  0  0
 12  7  2  0  0  0  0
 13  2  1  0  0  0  0
 14 15  1  0  0  0  0
 14 13  2  0  0  0  0
 15 17  2  0  0  0  0
 16  3  1  0  0  0  0
 17 18  1  0  0  0  0
 18 16  1  0  0  0  0
 18  1  2  0  0  0  0
 20 25  2  0  0  0  0
 20 27  1  0  0  0  0
 21 29  1  0  0  0  0
 21 22  2  0  0  0  0
 23 22  1  0  0  0  0
 23 19  2  0  0  0  0
 24 26  2  0  0  0  0
 24 25  1  0  0  0  0
 25 23  1  0  0  0  0
 26 21  1  0  0  0  0
 27  9  1  0  0  0  0
 27 28  2  0  0  0  0
 28 19  1  0  0  0  0
 29 31  1  0  0  0  0
 30 29  1  0  0  0  0
 32 14  1  0  0  0  0
 33 32  1  0  0  0  0
 34 32  1  0  0  0  0
M  END
>  <MODEL>
4

>  <REMARK>
 VINA RESULT:      -9.5      2.909      9.276
  Name = 
  3 active torsions:
  status: ('A' for Active; 'I' for Inactive)
    1  A    between atoms: C_3  and  C_25
    2  A    between atoms: C_7  and  N_11
    3  A    between atoms: N_18  and  C_30
                            x       y       z     vdW  Elec       q    Type
                         _______ _______ _______ _____ _____    ______ ____

>  <TORSDO>
F 3

$$$$
=
 OpenBabel11052415493D

 34 39  0  0  0  0  0  0  0  0999 V2000
  183.3940  178.4390  141.3200 C   0  0  0  0  0  0  0  0  0  0  0  0
  181.2200  177.5070  138.3590 C   0  0  0  0  0  3  0  0  0  0  0  0
  180.7070  177.9420  140.5960 C   0  0  0  0  0  3  0  0  0  0  0  0
  184.9750  179.6650  142.6390 O   0  0  0  0  0  0  0  0  0  0  0  0
  184.8230  178.5790  141.7710 C   0  0  0  0  0  2  0  0  0  0  0  0
  182.3120  178.8440  143.5990 C   0  0  0  0  0  0  0  0  0  0  0  0
  181.0350  178.7900  144.0440 N   0  0  0  0  0  0  0  0  0  0  0  0
  183.4260  179.3420  144.4750 C   0  0  0  0  0  2  0  0  0  0  0  0
  184.7450  179.1600  143.8790 N   0  0  0  0  0  0  0  0  0  0  0  0
  181.0580  178.2770  141.8910 C   0  0  0  0  0  0  0  0  0  0  0  0
  182.3480  178.5260  142.2490 C   0  0  0  0  0  0  0  0  0  0  0  0
  180.2550  178.4320  142.9980 C   0  0  0  0  0  3  0  0  0  0  0  0
  181.8660  177.3090  137.1500 C   0  0  0  0  0  3  0  0  0  0  0  0
  183.2150  177.3960  136.8440 C   0  0  0  0  0  0  0  0  0  0  0  0
  184.2260  177.7140  137.7340 C   0  0  0  0  0  3  0  0  0  0  0  0
  181.7080  177.8480  139.6150 C   0  0  0  0  0  0  0  0  0  0  0  0
  184.1570  178.0130  139.0850 C   0  0  0  0  0  3  0  0  0  0  0  0
  183.0760  178.0910  139.9700 C   0  0  0  0  0  0  0  0  0  0  0  0
  186.7810  178.1530  146.8610 C   0  0  0  0  0  3  0  0  0  0  0  0
  187.0510  178.2870  144.0760 C   0  0  0  0  0  3  0  0  0  0  0  0
  190.2510  176.9090  146.4410 C   0  0  0  0  0  0  0  0  0  0  0  0
  189.0430  177.3040  147.0400 C   0  0  0  0  0  3  0  0  0  0  0  0
  187.9800  177.7620  146.2600 C   0  0  0  0  0  0  0  0  0  0  0  0
  189.3130  177.4400  144.2550 C   0  0  0  0  0  3  0  0  0  0  0  0
  188.1150  177.8300  144.8560 C   0  0  0  0  0  0  0  0  0  0  0  0
  190.3730  176.9820  145.0420 C   0  0  0  0  0  3  0  0  0  0  0  0
  185.8430  178.6810  144.6770 C   0  0  0  0  0  0  0  0  0  0  0  0
  185.7210  178.6100  146.0740 C   0  0  0  0  0  3  0  0  0  0  0  0
  191.3470  176.4380  147.2470 N   0  0  0  0  0  0  0  0  0  0  0  0
  192.1050  175.2540  146.8710 C   0  0  0  0  0  1  0  0  0  0  0  0
  191.7380  177.1270  148.4670 C   0  0  0  0  0  1  0  0  0  0  0  0
  183.6370  177.1270  135.4360 C   0  0  0  0  0  3  0  0  0  0  0  0
  182.9520  176.0220  134.9250 O   0  0  0  0  0  1  0  0  0  0  0  0
  185.0120  176.8990  135.3750 O   0  0  0  0  0  1  0  0  0  0  0  0
  1  5  1  0  0  0  0
  1 11  1  0  0  0  0
  2 16  2  0  0  0  0
  3 10  2  0  0  0  0
  4  9  1  0  0  0  0
  5  4  1  0  0  0  0
  6  7  1  0  0  0  0
  6  8  1  0  0  0  0
  9  8  1  0  0  0  0
  9 27  1  0  0  0  0
 10 11  1  0  0  0  0
 10 12  1  0  0  0  0
 11  6  2  0  0  0  0
 12  7  2  0  0  0  0
 13  2  1  0  0  0  0
 14 13  2  0  0  0  0
 14 15  1  0  0  0  0
 15 17  2  0  0  0  0
 16 18  1  0  0  0  0
 16  3  1  0  0  0  0
 17 18  1  0  0  0  0
 18  1  2  0  0  0  0
 20 27  2  0  0  0  0
 20 25  1  0  0  0  0
 21 22  1  0  0  0  0
 21 29  1  0  0  0  0
 23 19  1  0  0  0  0
 23 22  2  0  0  0  0
 24 25  2  0  0  0  0
 24 26  1  0  0  0  0
 25 23  1  0  0  0  0
 26 21  2  0  0  0  0
 27 28  1  0  0  0  0
 28 19  2  0  0  0  0
 29 31  1  0  0  0  0
 30 29  1  0  0  0  0
 32 14  1  0  0  0  0
 33 32  1  0  0  0  0
 34 32  1  0  0  0  0
M  END
>  <MODEL>
5

>  <REMARK>
 VINA RESULT:      -9.2      4.943      8.247
  Name = 
  3 active torsions:
  status: ('A' for Active; 'I' for Inactive)
    1  A    between atoms: C_3  and  C_25
    2  A    between atoms: C_7  and  N_11
    3  A    between atoms: N_18  and  C_30
                            x       y       z     vdW  Elec       q    Type
                         _______ _______ _______ _____ _____    ______ ____

>  <TORSDO>
F 3

$$$$
=
 OpenBabel11052415493D

 34 39  0  0  0  0  0  0  0  0999 V2000
  190.1960  176.8030  137.6390 C   0  0  0  0  0  0  0  0  0  0  0  0
  192.3730  174.8560  135.2250 C   0  0  0  0  0  3  0  0  0  0  0  0
  190.1010  175.3950  135.1900 C   0  0  0  0  0  3  0  0  0  0  0  0
  189.4300  178.6250  138.9940 O   0  0  0  0  0  0  0  0  0  0  0  0
  190.1780  177.4440  139.0010 C   0  0  0  0  0  2  0  0  0  0  0  0
  187.7180  177.1400  137.1100 C   0  0  0  0  0  0  0  0  0  0  0  0
  186.9250  176.7440  136.0890 N   0  0  0  0  0  0  0  0  0  0  0  0
  187.2170  178.0730  138.1750 C   0  0  0  0  0  2  0  0  0  0  0  0
  188.1590  178.2400  139.2770 N   0  0  0  0  0  0  0  0  0  0  0  0
  188.9740  175.9890  135.7280 C   0  0  0  0  0  0  0  0  0  0  0  0
  189.0100  176.6760  136.9030 C   0  0  0  0  0  0  0  0  0  0  0  0
  187.6900  176.0260  135.2340 C   0  0  0  0  0  3  0  0  0  0  0  0
  193.7090  174.7160  135.5650 C   0  0  0  0  0  3  0  0  0  0  0  0
  194.3920  175.1840  136.6770 C   0  0  0  0  0  0  0  0  0  0  0  0
  193.8410  175.9170  137.7130 C   0  0  0  0  0  3  0  0  0  0  0  0
  191.3230  175.4940  135.8750 C   0  0  0  0  0  0  0  0  0  0  0  0
  192.5380  176.3510  137.8980 C   0  0  0  0  0  3  0  0  0  0  0  0
  191.3850  176.2000  137.1220 C   0  0  0  0  0  0  0  0  0  0  0  0
  185.9120  178.6380  142.2500 C   0  0  0  0  0  3  0  0  0  0  0  0
  188.5440  177.8610  141.6910 C   0  0  0  0  0  3  0  0  0  0  0  0
  187.1530  177.8890  145.6660 C   0  0  0  0  0  0  0  0  0  0  0  0
  186.3040  178.2680  144.6120 C   0  0  0  0  0  3  0  0  0  0  0  0
  186.7600  178.2600  143.2930 C   0  0  0  0  0  0  0  0  0  0  0  0
  188.9370  177.4930  144.0520 C   0  0  0  0  0  3  0  0  0  0  0  0
  188.0870  177.8690  143.0100 C   0  0  0  0  0  0  0  0  0  0  0  0
  188.4720  177.5030  145.3700 C   0  0  0  0  0  3  0  0  0  0  0  0
  187.6920  178.2390  140.6390 C   0  0  0  0  0  0  0  0  0  0  0  0
  186.3750  178.6280  140.9320 C   0  0  0  0  0  3  0  0  0  0  0  0
  186.6800  177.8990  147.0260 N   0  0  0  0  0  0  0  0  0  0  0  0
  185.3060  178.2530  147.3430 C   0  0  0  0  0  1  0  0  0  0  0  0
  187.5590  177.5540  148.1320 C   0  0  0  0  0  1  0  0  0  0  0  0
  195.8510  174.8800  136.7870 C   0  0  0  0  0  3  0  0  0  0  0  0
  196.2480  174.8740  138.1260 O   0  0  0  0  0  1  0  0  0  0  0  0
  196.5990  175.8200  136.0770 O   0  0  0  0  0  1  0  0  0  0  0  0
  1  5  1  0  0  0  0
  2 13  2  0  0  0  0
  2 16  1  0  0  0  0
  3 10  1  0  0  0  0
  3 16  2  0  0  0  0
  4  5  1  0  0  0  0
  4  9  1  0  0  0  0
  6  8  1  0  0  0  0
  7  6  2  0  0  0  0
  8  9  1  0  0  0  0
  9 27  1  0  0  0  0
 10 11  1  0  0  0  0
 11  6  1  0  0  0  0
 11  1  2  0  0  0  0
 12 10  2  0  0  0  0
 12  7  1  0  0  0  0
 13 14  1  0  0  0  0
 14 32  1  0  0  0  0
 14 15  2  0  0  0  0
 15 17  1  0  0  0  0
 16 18  1  0  0  0  0
 18  1  1  0  0  0  0
 18 17  2  0  0  0  0
 19 23  1  0  0  0  0
 20 25  1  0  0  0  0
 21 29  1  0  0  0  0
 22 21  2  0  0  0  0
 23 22  1  0  0  0  0
 24 26  2  0  0  0  0
 25 23  2  0  0  0  0
 25 24  1  0  0  0  0
 26 21  1  0  0  0  0
 27 28  1  0  0  0  0
 27 20  2  0  0  0  0
 28 19  2  0  0  0  0
 29 30  1  0  0  0  0
 29 31  1  0  0  0  0
 32 33  1  0  0  0  0
 34 32  1  0  0  0  0
M  END
>  <MODEL>
6

>  <REMARK>
 VINA RESULT:      -8.9      3.103     10.359
  Name = 
  3 active torsions:
  status: ('A' for Active; 'I' for Inactive)
    1  A    between atoms: C_3  and  C_25
    2  A    between atoms: C_7  and  N_11
    3  A    between atoms: N_18  and  C_30
                            x       y       z     vdW  Elec       q    Type
                         _______ _______ _______ _____ _____    ______ ____

>  <TORSDO>
F 3

$$$$
=
 OpenBabel11052415493D

 34 39  0  0  0  0  0  0  0  0999 V2000
  182.0200  177.8200  140.7890 C   0  0  0  0  0  0  0  0  0  0  0  0
  178.9520  176.5070  138.9930 C   0  0  0  0  0  3  0  0  0  0  0  0
  179.2330  177.4700  141.1030 C   0  0  0  0  0  3  0  0  0  0  0  0
  183.9870  179.1260  141.2000 O   0  0  0  0  0  0  0  0  0  0  0  0
  183.5210  177.9000  140.7130 C   0  0  0  0  0  2  0  0  0  0  0  0
  181.7770  178.8250  143.1270 C   0  0  0  0  0  0  0  0  0  0  0  0
  180.7230  179.0060  143.9550 N   0  0  0  0  0  0  0  0  0  0  0  0
  183.1350  179.3780  143.4550 C   0  0  0  0  0  2  0  0  0  0  0  0
  184.1710  178.9300  142.5310 N   0  0  0  0  0  0  0  0  0  0  0  0
  180.0070  178.0390  142.0970 C   0  0  0  0  0  0  0  0  0  0  0  0
  181.3490  178.2190  141.9540 C   0  0  0  0  0  0  0  0  0  0  0  0
  179.6270  178.5160  143.3300 C   0  0  0  0  0  3  0  0  0  0  0  0
  179.1490  175.9840  137.7260 C   0  0  0  0  0  3  0  0  0  0  0  0
  180.3190  175.8570  136.9940 C   0  0  0  0  0  0  0  0  0  0  0  0
  181.5790  176.2490  137.4110 C   0  0  0  0  0  3  0  0  0  0  0  0
  179.8430  177.0580  139.9070 C   0  0  0  0  0  0  0  0  0  0  0  0
  181.9760  176.8390  138.6000 C   0  0  0  0  0  3  0  0  0  0  0  0
  181.2580  177.2240  139.7370 C   0  0  0  0  0  0  0  0  0  0  0  0
  187.7670  177.8710  142.6000 C   0  0  0  0  0  3  0  0  0  0  0  0
  185.6780  178.3470  144.4050 C   0  0  0  0  0  3  0  0  0  0  0  0
  189.4510  177.1240  145.8210 C   0  0  0  0  0  0  0  0  0  0  0  0
  189.2290  177.2970  144.4440 C   0  0  0  0  0  3  0  0  0  0  0  0
  187.9800  177.7020  143.9700 C   0  0  0  0  0  0  0  0  0  0  0  0
  187.1390  177.7710  146.2480 C   0  0  0  0  0  3  0  0  0  0  0  0
  186.9270  177.9410  144.8780 C   0  0  0  0  0  0  0  0  0  0  0  0
  188.3920  177.3660  146.7150 C   0  0  0  0  0  3  0  0  0  0  0  0
  185.4590  178.5200  143.0270 C   0  0  0  0  0  0  0  0  0  0  0  0
  186.5140  178.2770  142.1320 C   0  0  0  0  0  3  0  0  0  0  0  0
  190.7390  176.7060  146.3080 N   0  0  0  0  0  0  0  0  0  0  0  0
  191.0810  176.8070  147.7180 C   0  0  0  0  0  1  0  0  0  0  0  0
  191.7470  176.1670  145.4080 C   0  0  0  0  0  1  0  0  0  0  0  0
  180.2360  175.2440  135.6330 C   0  0  0  0  0  3  0  0  0  0  0  0
  179.1330  174.3930  135.5490 O   0  0  0  0  0  1  0  0  0  0  0  0
  181.4030  174.5340  135.3470 O   0  0  0  0  0  1  0  0  0  0  0  0
  1 11  1  0  0  0  0
  2 16  2  0  0  0  0
  3 10  2  0  0  0  0
  4  9  1  0  0  0  0
  5  1  1  0  0  0  0
  5  4  1  0  0  0  0
  6  8  1  0  0  0  0
  6  7  1  0  0  0  0
  9 27  1  0  0  0  0
  9  8  1  0  0  0  0
 10 12  1  0  0  0  0
 11 10  1  0  0  0  0
 11  6  2  0  0  0  0
 12  7  2  0  0  0  0
 13  2  1  0  0  0  0
 14 15  1  0  0  0  0
 14 13  2  0  0  0  0
 15 17  2  0  0  0  0
 16  3  1  0  0  0  0
 17 18  1  0  0  0  0
 18 16  1  0  0  0  0
 18  1  2  0  0  0  0
 19 23  1  0  0  0  0
 20 25  1  0  0  0  0
 21 29  1  0  0  0  0
 21 26  1  0  0  0  0
 22 21  2  0  0  0  0
 23 22  1  0  0  0  0
 23 25  2  0  0  0  0
 24 26  2  0  0  0  0
 25 24  1  0  0  0  0
 27 20  2  0  0  0  0
 28 19  2  0  0  0  0
 28 27  1  0  0  0  0
 29 30  1  0  0  0  0
 31 29  1  0  0  0  0
 32 14  1  0  0  0  0
 33 32  1  0  0  0  0
 34 32  1  0  0  0  0
M  END
>  <MODEL>
7

>  <REMARK>
 VINA RESULT:      -8.9      4.833      8.376
  Name = 
  3 active torsions:
  status: ('A' for Active; 'I' for Inactive)
    1  A    between atoms: C_3  and  C_25
    2  A    between atoms: C_7  and  N_11
    3  A    between atoms: N_18  and  C_30
                            x       y       z     vdW  Elec       q    Type
                         _______ _______ _______ _____ _____    ______ ____

>  <TORSDO>
F 3

$$$$
=
 OpenBabel11052415493D

 34 39  0  0  0  0  0  0  0  0999 V2000
  181.3990  179.7760  138.4660 C   0  0  0  0  0  0  0  0  0  0  0  0
  180.7870  181.2140  135.0140 C   0  0  0  0  0  3  0  0  0  0  0  0
  181.1960  179.0340  135.7470 C   0  0  0  0  0  3  0  0  0  0  0  0
  181.0190  179.2530  140.7740 O   0  0  0  0  0  0  0  0  0  0  0  0
  181.6450  180.1500  139.9030 C   0  0  0  0  0  2  0  0  0  0  0  0
  181.7730  177.2620  138.7350 C   0  0  0  0  0  0  0  0  0  0  0  0
  181.8200  176.2310  137.8610 N   0  0  0  0  0  0  0  0  0  0  0  0
  181.8170  177.0320  140.2190 C   0  0  0  0  0  2  0  0  0  0  0  0
  181.9310  178.2690  140.9850 N   0  0  0  0  0  0  0  0  0  0  0  0
  181.4460  178.1000  136.7350 C   0  0  0  0  0  0  0  0  0  0  0  0
  181.5380  178.4450  138.0490 C   0  0  0  0  0  0  0  0  0  0  0  0
  181.6270  176.7410  136.6220 C   0  0  0  0  0  3  0  0  0  0  0  0
  180.5820  182.5820  134.9360 C   0  0  0  0  0  3  0  0  0  0  0  0
  180.5700  183.5330  135.9460 C   0  0  0  0  0  0  0  0  0  0  0  0
  180.7690  183.2830  137.2920 C   0  0  0  0  0  3  0  0  0  0  0  0
  181.0360  180.3840  136.1010 C   0  0  0  0  0  0  0  0  0  0  0  0
  181.0170  182.0870  137.9460 C   0  0  0  0  0  3  0  0  0  0  0  0
  181.1430  180.7750  137.4760 C   0  0  0  0  0  0  0  0  0  0  0  0
  183.2650  179.0010  144.4110 C   0  0  0  0  0  3  0  0  0  0  0  0
  184.1530  177.8810  142.0020 C   0  0  0  0  0  3  0  0  0  0  0  0
  186.7670  178.1520  145.2920 C   0  0  0  0  0  0  0  0  0  0  0  0
  185.4460  178.6210  145.3930 C   0  0  0  0  0  3  0  0  0  0  0  0
  184.5760  178.5340  144.3050 C   0  0  0  0  0  0  0  0  0  0  0  0
  186.3350  177.5030  142.9830 C   0  0  0  0  0  3  0  0  0  0  0  0
  185.0230  177.9700  143.0900 C   0  0  0  0  0  0  0  0  0  0  0  0
  187.2000  177.5930  144.0760 C   0  0  0  0  0  3  0  0  0  0  0  0
  182.8320  178.3500  142.1050 C   0  0  0  0  0  0  0  0  0  0  0  0
  182.3990  178.9110  143.3180 C   0  0  0  0  0  3  0  0  0  0  0  0
  187.6640  178.2440  146.4150 N   0  0  0  0  0  0  0  0  0  0  0  0
  189.0690  177.8920  146.2880 C   0  0  0  0  0  1  0  0  0  0  0  0
  187.1970  178.6920  147.7180 C   0  0  0  0  0  1  0  0  0  0  0  0
  180.3220  184.9570  135.5680 C   0  0  0  0  0  3  0  0  0  0  0  0
  180.1950  185.7490  136.7110 O   0  0  0  0  0  1  0  0  0  0  0  0
  179.1680  185.0620  134.7910 O   0  0  0  0  0  1  0  0  0  0  0  0
  1  5  1  0  0  0  0
  2 16  2  0  0  0  0
  3 16  1  0  0  0  0
  3 10  2  0  0  0  0
  4  9  1  0  0  0  0
  5  4  1  0  0  0  0
  6  8  1  0  0  0  0
  7  6  1  0  0  0  0
  8  9  1  0  0  0  0
  9 27  1  0  0  0  0
 10 11  1  0  0  0  0
 11  1  1  0  0  0  0
 11  6  2  0  0  0  0
 12 10  1  0  0  0  0
 12  7  2  0  0  0  0
 13  2  1  0  0  0  0
 13 14  2  0  0  0  0
 14 15  1  0  0  0  0
 15 17  2  0  0  0  0
 16 18  1  0  0  0  0
 18 17  1  0  0  0  0
 18  1  2  0  0  0  0
 20 27  2  0  0  0  0
 20 25  1  0  0  0  0
 21 22  1  0  0  0  0
 21 29  1  0  0  0  0
 23 19  1  0  0  0  0
 23 22  2  0  0  0  0
 24 25  2  0  0  0  0
 24 26  1  0  0  0  0
 25 23  1  0  0  0  0
 26 21  2  0  0  0  0
 27 28  1  0  0  0  0
 28 19  2  0  0  0  0
 29 31  1  0  0  0  0
 30 29  1  0  0  0  0
 32 14  1  0  0  0  0
 32 33  1  0  0  0  0
 34 32  1  0  0  0  0
M  END
>  <MODEL>
8

>  <REMARK>
 VINA RESULT:      -8.8      5.731     10.062
  Name = 
  3 active torsions:
  status: ('A' for Active; 'I' for Inactive)
    1  A    between atoms: C_3  and  C_25
    2  A    between atoms: C_7  and  N_11
    3  A    between atoms: N_18  and  C_30
                            x       y       z     vdW  Elec       q    Type
                         _______ _______ _______ _____ _____    ______ ____

>  <TORSDO>
F 3

$$$$
=
 OpenBabel11052415493D

 34 39  0  0  0  0  0  0  0  0999 V2000
  191.4900  175.6320  138.0360 C   0  0  0  0  0  0  0  0  0  0  0  0
  193.1360  173.3520  135.4960 C   0  0  0  0  0  3  0  0  0  0  0  0
  190.9190  174.0340  135.7750 C   0  0  0  0  0  3  0  0  0  0  0  0
  191.0540  177.6080  139.3200 O   0  0  0  0  0  0  0  0  0  0  0  0
  191.7310  176.3850  139.3170 C   0  0  0  0  0  2  0  0  0  0  0  0
  188.9800  176.0870  137.8810 C   0  0  0  0  0  0  0  0  0  0  0  0
  188.0090  175.6610  137.0410 N   0  0  0  0  0  0  0  0  0  0  0  0
  188.7100  177.1360  138.9210 C   0  0  0  0  0  2  0  0  0  0  0  0
  189.8290  177.3330  139.8370 N   0  0  0  0  0  0  0  0  0  0  0  0
  189.9290  174.7450  136.4280 C   0  0  0  0  0  0  0  0  0  0  0  0
  190.1940  175.5230  137.5130 C   0  0  0  0  0  0  0  0  0  0  0  0
  188.5850  174.8250  136.1450 C   0  0  0  0  0  3  0  0  0  0  0  0
  194.5000  173.1530  135.6290 C   0  0  0  0  0  3  0  0  0  0  0  0
  195.3810  173.6660  136.5690 C   0  0  0  0  0  0  0  0  0  0  0  0
  195.0470  174.5170  137.6080 C   0  0  0  0  0  3  0  0  0  0  0  0
  192.2420  174.1100  136.2430 C   0  0  0  0  0  0  0  0  0  0  0  0
  193.8170  175.0510  137.9570 C   0  0  0  0  0  3  0  0  0  0  0  0
  192.5450  174.9110  137.3930 C   0  0  0  0  0  0  0  0  0  0  0  0
  190.4620  177.7940  143.5030 C   0  0  0  0  0  3  0  0  0  0  0  0
  188.2900  177.4250  141.7720 C   0  0  0  0  0  3  0  0  0  0  0  0
  187.6420  177.8270  145.9130 C   0  0  0  0  0  0  0  0  0  0  0  0
  188.9450  177.8760  145.3900 C   0  0  0  0  0  3  0  0  0  0  0  0
  189.1640  177.7440  144.0170 C   0  0  0  0  0  0  0  0  0  0  0  0
  186.7730  177.5060  143.6580 C   0  0  0  0  0  3  0  0  0  0  0  0
  188.0710  177.5570  143.1450 C   0  0  0  0  0  0  0  0  0  0  0  0
  186.5610  177.6410  145.0330 C   0  0  0  0  0  3  0  0  0  0  0  0
  189.5940  177.4760  141.2510 C   0  0  0  0  0  0  0  0  0  0  0  0
  190.6750  177.6600  142.1290 C   0  0  0  0  0  3  0  0  0  0  0  0
  187.4170  177.9640  147.3290 N   0  0  0  0  0  0  0  0  0  0  0  0
  188.3010  177.3340  148.2970 C   0  0  0  0  0  1  0  0  0  0  0  0
  186.2970  178.7360  147.8440 C   0  0  0  0  0  1  0  0  0  0  0  0
  196.8200  173.2760  136.4720 C   0  0  0  0  0  3  0  0  0  0  0  0
  197.1880  172.4930  137.5680 O   0  0  0  0  0  1  0  0  0  0  0  0
  197.6290  174.4120  136.4110 O   0  0  0  0  0  1  0  0  0  0  0  0
  1  5  1  0  0  0  0
  2 13  1  0  0  0  0
  2 16  2  0  0  0  0
  3 16  1  0  0  0  0
  3 10  2  0  0  0  0
  4  9  1  0  0  0  0
  5  4  1  0  0  0  0
  6  8  1  0  0  0  0
  7  6  1  0  0  0  0
  8  9  1  0  0  0  0
  9 27  1  0  0  0  0
 10 11  1  0  0  0  0
 11  6  2  0  0  0  0
 11  1  1  0  0  0  0
 12 10  1  0  0  0  0
 12  7  2  0  0  0  0
 13 14  2  0  0  0  0
 14 15  1  0  0  0  0
 15 17  2  0  0  0  0
 16 18  1  0  0  0  0
 18 17  1  0  0  0  0
 18  1  2  0  0  0  0
 19 23  1  0  0  0  0
 20 25  1  0  0  0  0
 21 29  1  0  0  0  0
 22 21  1  0  0  0  0
 23 22  2  0  0  0  0
 24 26  1  0  0  0  0
 25 24  2  0  0  0  0
 25 23  1  0  0  0  0
 26 21  2  0  0  0  0
 27 20  2  0  0  0  0
 27 28  1  0  0  0  0
 28 19  2  0  0  0  0
 29 31  1  0  0  0  0
 29 30  1  0  0  0  0
 32 14  1  0  0  0  0
 32 33  1  0  0  0  0
 34 32  1  0  0  0  0
M  END
>  <MODEL>
9

>  <REMARK>
 VINA RESULT:      -8.6      3.307     10.602
  Name = 
  3 active torsions:
  status: ('A' for Active; 'I' for Inactive)
    1  A    between atoms: C_3  and  C_25
    2  A    between atoms: C_7  and  N_11
    3  A    between atoms: N_18  and  C_30
                            x       y       z     vdW  Elec       q    Type
                         _______ _______ _______ _____ _____    ______ ____

>  <TORSDO>
F 3

$$$$
