=
 OpenBabel11052412203D

 30 33  0  0  1  0  0  0  0  0999 V2000
  188.3390  178.1130  142.4610 C   0  0  2  0  0  3  0  0  0  0  0  0
  186.9070  177.9160  143.0580 C   0  0  1  0  0  0  0  0  0  0  0  0
  188.3830  178.6270  141.0190 C   0  0  0  0  0  2  0  0  0  0  0  0
  184.6300  178.3990  139.6050 S   0  0  0  0  0  0  0  0  0  0  0  0
  184.3220  178.4890  144.1450 C   0  0  2  0  0  3  0  0  0  0  0  0
  185.9570  178.7230  140.7950 C   0  0  2  0  0  3  0  0  0  0  0  0
  187.2420  178.5140  138.7870 C   0  0  0  0  0  2  0  0  0  0  0  0
  185.4750  178.5170  145.1590 C   0  0  0  0  0  2  0  0  0  0  0  0
  187.2000  178.0990  140.2350 C   0  0  1  0  0  3  0  0  0  0  0  0
  185.6360  178.1890  142.1930 C   0  0  2  0  0  3  0  0  0  0  0  0
  185.7490  177.0120  137.5960 N   0  0  0  0  0  1  0  0  0  0  0  0
  185.8390  178.3140  138.2340 C   0  0  1  0  0  3  0  0  0  0  0  0
  186.7250  176.7020  143.9600 C   0  0  0  0  0  2  0  0  0  0  0  0
  186.8320  178.0820  144.5830 C   0  0  1  0  0  3  0  0  0  0  0  0
  185.2580  180.2890  143.0460 O   0  0  0  0  0  1  0  0  0  0  0  0
  184.6690  179.0780  142.8490 N   0  0  0  0  0  0  0  0  0  0  0  0
  183.0840  178.9510  144.6450 O   0  0  0  0  0  0  0  0  0  0  0  0
  180.8960  178.5960  144.0980 O   0  0  0  0  0  1  0  0  0  0  0  0
  182.1440  178.9740  143.6040 C   0  0  0  0  0  2  0  0  0  0  0  0
  189.3940  177.0130  142.7120 C   0  0  2  0  0  3  0  0  0  0  0  0
  190.4870  177.4210  143.7210 C   0  0  0  0  0  3  0  0  0  0  0  0
  190.5510  176.4740  144.9180 C   0  0  0  0  0  2  0  0  0  0  0  0
  189.8720  177.0970  146.1220 C   0  0  0  0  0  1  0  0  0  0  0  0
  190.3330  178.8720  144.1860 C   0  0  0  0  0  2  0  0  0  0  0  0
  191.6480  179.6370  144.1440 C   0  0  0  0  0  1  0  0  0  0  0  0
  189.9510  176.6090  141.4920 O   0  0  0  0  0  0  0  0  0  0  0  0
  191.2730  177.0530  141.5350 C   0  0  0  0  0  2  0  0  0  0  0  0
  191.7810  177.2300  140.1490 C   0  0  0  0  0  0  0  0  0  0  0  0
  193.1440  177.3620  139.9200 O   0  0  0  0  0  1  0  0  0  0  0  0
  190.9790  177.2270  139.1790 O   0  0  0  0  0  0  0  0  0  0  0  0
  1 20  1  6  0  0  0
  1  2  1  0  0  0  0
  2 13  1  6  0  0  0
  2 14  1  0  0  0  0
  3  1  1  0  0  0  0
  5 17  1  1  0  0  0
  5  8  1  0  0  0  0
  6  4  1  6  0  0  0
  6 10  1  0  0  0  0
  9  7  1  6  0  0  0
  9  6  1  0  0  0  0
  9  3  1  0  0  0  0
 10 16  1  1  0  0  0
 10  2  1  0  0  0  0
 12 11  1  1  0  0  0
 12  7  1  0  0  0  0
 12  4  1  0  0  0  0
 14 13  1  1  0  0  0
 14  8  1  0  0  0  0
 16 15  1  0  0  0  0
 16  5  1  0  0  0  0
 19 18  1  0  0  0  0
 19 17  1  0  0  0  0
 20 26  1  6  0  0  0
 20 21  1  0  0  0  0
 21 24  1  0  0  0  0
 21 22  1  0  0  0  0
 22 23  1  0  0  0  0
 25 24  1  0  0  0  0
 26 27  1  0  0  0  0
 28 27  1  0  0  0  0
 29 28  1  0  0  0  0
 30 28  2  0  0  0  0
M  END
>  <MODEL>
1

>  <REMARK>
 VINA RESULT:      -6.5      0.000      0.000
  Name = 
  9 active torsions:
  status: ('A' for Active; 'I' for Inactive)
    1  A    between atoms: C_1  and  C_22
    2  A    between atoms: C_2  and  C_14
    3  A    between atoms: C_3  and  C_19
    4  A    between atoms: C_7  and  O_16
    5  A    between atoms: C_14  and  C_20
    6  A    between atoms: C_14  and  C_22
    7  A    between atoms: O_16  and  C_26
    8  A    between atoms: C_19  and  O_29
    9  A    between atoms: C_22  and  O_29
                            x       y       z     vdW  Elec       q    Type
                         _______ _______ _______ _____ _____    ______ ____

>  <TORSDO>
F 9

$$$$
=
 OpenBabel11052412203D

 30 33  0  0  1  0  0  0  0  0999 V2000
  188.3850  177.4150  144.6650 C   0  0  2  0  0  3  0  0  0  0  0  0
  189.5350  177.8260  143.6890 C   0  0  1  0  0  0  0  0  0  0  0  0
  187.0380  177.1110  144.0010 C   0  0  0  0  0  2  0  0  0  0  0  0
  187.3410  178.3290  140.1850 S   0  0  0  0  0  0  0  0  0  0  0  0
  191.5830  177.6690  141.6950 C   0  0  2  0  0  3  0  0  0  0  0  0
  187.8500  177.5670  141.7470 C   0  0  2  0  0  3  0  0  0  0  0  0
  185.4970  177.7770  142.1360 C   0  0  0  0  0  2  0  0  0  0  0  0
  192.0170  177.2540  143.1090 C   0  0  0  0  0  2  0  0  0  0  0  0
  186.8450  177.9840  142.7790 C   0  0  1  0  0  3  0  0  0  0  0  0
  189.2730  177.9550  142.1540 C   0  0  2  0  0  3  0  0  0  0  0  0
  185.1050  179.7150  140.7240 N   0  0  0  0  0  1  0  0  0  0  0  0
  185.5930  178.3470  140.7280 C   0  0  1  0  0  3  0  0  0  0  0  0
  190.4780  178.9120  144.1920 C   0  0  0  0  0  2  0  0  0  0  0  0
  190.9420  177.4670  144.1870 C   0  0  1  0  0  3  0  0  0  0  0  0
  190.1220  175.8840  141.6310 O   0  0  0  0  0  1  0  0  0  0  0  0
  190.2390  177.2080  141.3380 N   0  0  0  0  0  0  0  0  0  0  0  0
  192.5380  177.4150  140.6850 O   0  0  0  0  0  0  0  0  0  0  0  0
  192.7690  176.6940  138.5310 O   0  0  0  0  0  1  0  0  0  0  0  0
  191.8780  177.2280  139.4610 C   0  0  0  0  0  2  0  0  0  0  0  0
  188.2130  178.2190  145.9730 C   0  0  2  0  0  3  0  0  0  0  0  0
  189.2990  177.9250  147.0290 C   0  0  0  0  0  3  0  0  0  0  0  0
  189.5680  176.4300  147.1800 C   0  0  0  0  0  2  0  0  0  0  0  0
  191.0450  176.1800  147.4180 C   0  0  0  0  0  1  0  0  0  0  0  0
  188.9730  178.5580  148.3850 C   0  0  0  0  0  2  0  0  0  0  0  0
  187.9710  177.7340  149.1820 C   0  0  0  0  0  1  0  0  0  0  0  0
  186.9280  178.0070  146.4890 O   0  0  0  0  0  0  0  0  0  0  0  0
  186.2250  179.1760  146.1950 C   0  0  0  0  0  2  0  0  0  0  0  0
  184.7740  178.8700  146.0960 C   0  0  0  0  0  0  0  0  0  0  0  0
  184.0520  179.2770  144.9820 O   0  0  0  0  0  0  0  0  0  0  0  0
  184.2050  178.2140  147.0070 O   0  0  0  0  0  1  0  0  0  0  0  0
  1 20  1  1  0  0  0
  2 14  1  0  0  0  0
  2 13  1  1  0  0  0
  2  1  1  0  0  0  0
  3  1  1  0  0  0  0
  4 12  1  0  0  0  0
  5 17  1  6  0  0  0
  5  8  1  0  0  0  0
  6  4  1  6  0  0  0
  6 10  1  0  0  0  0
  6  9  1  0  0  0  0
  9  7  1  6  0  0  0
  9  3  1  0  0  0  0
 10 16  1  6  0  0  0
 10  2  1  0  0  0  0
 12 11  1  1  0  0  0
 12  7  1  0  0  0  0
 14  8  1  6  0  0  0
 14 13  1  0  0  0  0
 16 15  1  0  0  0  0
 16  5  1  0  0  0  0
 18 19  1  0  0  0  0
 19 17  1  0  0  0  0
 20 26  1  1  0  0  0
 20 21  1  0  0  0  0
 21 22  1  0  0  0  0
 21 24  1  0  0  0  0
 22 23  1  0  0  0  0
 24 25  1  0  0  0  0
 27 26  1  0  0  0  0
 28 27  1  0  0  0  0
 28 30  1  0  0  0  0
 29 28  2  0  0  0  0
M  END
>  <MODEL>
2

>  <REMARK>
 VINA RESULT:      -6.2      2.049      6.364
  Name = 
  9 active torsions:
  status: ('A' for Active; 'I' for Inactive)
    1  A    between atoms: C_1  and  C_22
    2  A    between atoms: C_2  and  C_14
    3  A    between atoms: C_3  and  C_19
    4  A    between atoms: C_7  and  O_16
    5  A    between atoms: C_14  and  C_20
    6  A    between atoms: C_14  and  C_22
    7  A    between atoms: O_16  and  C_26
    8  A    between atoms: C_19  and  O_29
    9  A    between atoms: C_22  and  O_29
                            x       y       z     vdW  Elec       q    Type
                         _______ _______ _______ _____ _____    ______ ____

>  <TORSDO>
F 9

$$$$
=
 OpenBabel11052412203D

 30 33  0  0  1  0  0  0  0  0999 V2000
  187.8070  177.0110  142.8190 C   0  0  2  0  0  3  0  0  0  0  0  0
  187.0120  178.1050  142.0340 C   0  0  1  0  0  0  0  0  0  0  0  0
  187.2070  176.6080  144.1700 C   0  0  0  0  0  2  0  0  0  0  0  0
  184.3250  179.2840  144.9880 S   0  0  0  0  0  0  0  0  0  0  0  0
  184.9750  179.3880  140.4850 C   0  0  2  0  0  3  0  0  0  0  0  0
  185.3270  178.1510  143.9920 C   0  0  2  0  0  3  0  0  0  0  0  0
  185.9880  177.4680  146.1880 C   0  0  0  0  0  2  0  0  0  0  0  0
  186.0080  178.5930  139.6720 C   0  0  0  0  0  2  0  0  0  0  0  0
  186.5260  177.7950  144.8190 C   0  0  1  0  0  3  0  0  0  0  0  0
  185.7280  178.7530  142.6430 C   0  0  2  0  0  3  0  0  0  0  0  0
  185.6320  179.5920  147.3130 N   0  0  0  0  0  1  0  0  0  0  0  0
  184.9810  178.5550  146.5330 C   0  0  1  0  0  3  0  0  0  0  0  0
  187.8560  179.1260  141.2810 C   0  0  0  0  0  2  0  0  0  0  0  0
  187.1630  178.0190  140.5080 C   0  0  1  0  0  3  0  0  0  0  0  0
  184.2600  177.4290  141.4730 O   0  0  0  0  0  1  0  0  0  0  0  0
  184.5790  178.7260  141.7310 N   0  0  0  0  0  0  0  0  0  0  0  0
  183.8730  179.8620  139.7390 O   0  0  0  0  0  0  0  0  0  0  0  0
  182.5200  178.3360  138.7130 O   0  0  0  0  0  1  0  0  0  0  0  0
  183.7060  179.0600  138.6000 C   0  0  0  0  0  2  0  0  0  0  0  0
  189.3450  177.1290  142.8860 C   0  0  2  0  0  3  0  0  0  0  0  0
  189.8530  177.9450  144.0920 C   0  0  0  0  0  3  0  0  0  0  0  0
  190.6390  179.1820  143.6630 C   0  0  0  0  0  2  0  0  0  0  0  0
  192.0460  179.1370  144.2270 C   0  0  0  0  0  1  0  0  0  0  0  0
  190.6730  177.0920  145.0640 C   0  0  0  0  0  2  0  0  0  0  0  0
  190.0550  177.0420  146.4540 C   0  0  0  0  0  1  0  0  0  0  0  0
  189.8290  177.6460  141.6780 O   0  0  0  0  0  0  0  0  0  0  0  0
  190.5990  176.6200  141.1290 C   0  0  0  0  0  2  0  0  0  0  0  0
  190.5450  176.7000  139.6460 C   0  0  0  0  0  0  0  0  0  0  0  0
  190.7330  175.5560  138.8810 O   0  0  0  0  0  0  0  0  0  0  0  0
  190.2960  177.7980  139.0830 O   0  0  0  0  0  1  0  0  0  0  0  0
  1 20  1  1  0  0  0
  1  3  1  0  0  0  0
  2 13  1  1  0  0  0
  2 10  1  0  0  0  0
  2  1  1  0  0  0  0
  4 12  1  0  0  0  0
  5 17  1  6  0  0  0
  5 16  1  0  0  0  0
  6  9  1  0  0  0  0
  6  4  1  1  0  0  0
  7 12  1  0  0  0  0
  8  5  1  0  0  0  0
  9  3  1  6  0  0  0
  9  7  1  0  0  0  0
 10 16  1  6  0  0  0
 10  6  1  0  0  0  0
 12 11  1  1  0  0  0
 14  8  1  6  0  0  0
 14 13  1  0  0  0  0
 14  2  1  0  0  0  0
 15 16  1  0  0  0  0
 19 18  1  0  0  0  0
 19 17  1  0  0  0  0
 20 26  1  6  0  0  0
 20 21  1  0  0  0  0
 21 24  1  0  0  0  0
 22 21  1  0  0  0  0
 22 23  1  0  0  0  0
 24 25  1  0  0  0  0
 27 26  1  0  0  0  0
 28 27  1  0  0  0  0
 29 28  2  0  0  0  0
 30 28  1  0  0  0  0
M  END
>  <MODEL>
3

>  <REMARK>
 VINA RESULT:      -6.1      2.141      4.238
  Name = 
  9 active torsions:
  status: ('A' for Active; 'I' for Inactive)
    1  A    between atoms: C_1  and  C_22
    2  A    between atoms: C_2  and  C_14
    3  A    between atoms: C_3  and  C_19
    4  A    between atoms: C_7  and  O_16
    5  A    between atoms: C_14  and  C_20
    6  A    between atoms: C_14  and  C_22
    7  A    between atoms: O_16  and  C_26
    8  A    between atoms: C_19  and  O_29
    9  A    between atoms: C_22  and  O_29
                            x       y       z     vdW  Elec       q    Type
                         _______ _______ _______ _____ _____    ______ ____

>  <TORSDO>
F 9

$$$$
=
 OpenBabel11052412203D

 30 33  0  0  1  0  0  0  0  0999 V2000
  189.4680  177.7240  141.3820 C   0  0  2  0  0  3  0  0  0  0  0  0
  189.5820  177.0230  142.7740 C   0  0  1  0  0  0  0  0  0  0  0  0
  188.3160  178.7240  141.2430 C   0  0  0  0  0  2  0  0  0  0  0  0
  185.9750  178.2280  144.4690 S   0  0  0  0  0  0  0  0  0  0  0  0
  190.0800  176.5940  145.5610 C   0  0  2  0  0  3  0  0  0  0  0  0
  187.5090  178.3730  143.5170 C   0  0  2  0  0  3  0  0  0  0  0  0
  185.9400  179.1880  141.9040 C   0  0  0  0  0  2  0  0  0  0  0  0
  191.3180  176.4980  144.6560 C   0  0  0  0  0  2  0  0  0  0  0  0
  187.1290  178.2770  142.0700 C   0  0  1  0  0  3  0  0  0  0  0  0
  188.5420  177.3120  143.9040 C   0  0  2  0  0  3  0  0  0  0  0  0
  184.0030  177.9400  142.6710 N   0  0  0  0  0  1  0  0  0  0  0  0
  185.0080  178.9080  143.0730 C   0  0  1  0  0  3  0  0  0  0  0  0
  189.9900  175.5540  142.7480 C   0  0  0  0  0  2  0  0  0  0  0  0
  191.0100  176.6030  143.1530 C   0  0  1  0  0  3  0  0  0  0  0  0
  189.8670  178.8260  145.0140 O   0  0  0  0  0  1  0  0  0  0  0  0
  189.1640  177.6740  145.1830 N   0  0  0  0  0  0  0  0  0  0  0  0
  190.3570  176.5680  146.9460 O   0  0  0  0  0  0  0  0  0  0  0  0
  192.2740  176.9080  148.1390 O   0  0  0  0  0  1  0  0  0  0  0  0
  191.6760  176.1340  147.1460 C   0  0  0  0  0  2  0  0  0  0  0  0
  189.6370  176.8610  140.1120 C   0  0  2  0  0  3  0  0  0  0  0  0
  190.9670  177.1030  139.3690 C   0  0  0  0  0  3  0  0  0  0  0  0
  191.4240  175.8740  138.5860 C   0  0  0  0  0  2  0  0  0  0  0  0
  191.3790  176.1500  137.0960 C   0  0  0  0  0  1  0  0  0  0  0  0
  192.0740  177.5900  140.3090 C   0  0  0  0  0  2  0  0  0  0  0  0
  193.4540  177.1190  139.8720 C   0  0  0  0  0  1  0  0  0  0  0  0
  188.5370  177.0510  139.2660 O   0  0  0  0  0  0  0  0  0  0  0  0
  188.8700  178.1590  138.4850 C   0  0  0  0  0  2  0  0  0  0  0  0
  188.0460  178.1600  137.2480 C   0  0  0  0  0  0  0  0  0  0  0  0
  187.4480  179.3350  136.8130 O   0  0  0  0  0  1  0  0  0  0  0  0
  187.9170  177.1030  136.5770 O   0  0  0  0  0  0  0  0  0  0  0  0
  1 20  1  6  0  0  0
  1  2  1  0  0  0  0
  2 13  1  6  0  0  0
  2 14  1  0  0  0  0
  2 10  1  0  0  0  0
  3  1  1  0  0  0  0
  5 17  1  1  0  0  0
  6 10  1  0  0  0  0
  6  4  1  1  0  0  0
  7  9  1  0  0  0  0
  7 12  1  0  0  0  0
  8  5  1  0  0  0  0
  9  3  1  6  0  0  0
  9  6  1  0  0  0  0
 10 16  1  1  0  0  0
 12 11  1  6  0  0  0
 12  4  1  0  0  0  0
 14 13  1  6  0  0  0
 14  8  1  0  0  0  0
 15 16  1  0  0  0  0
 16  5  1  0  0  0  0
 17 19  1  0  0  0  0
 19 18  1  0  0  0  0
 20 26  1  6  0  0  0
 21 20  1  0  0  0  0
 21 24  1  0  0  0  0
 22 21  1  0  0  0  0
 23 22  1  0  0  0  0
 25 24  1  0  0  0  0
 27 26  1  0  0  0  0
 28 27  1  0  0  0  0
 29 28  1  0  0  0  0
 30 28  2  0  0  0  0
M  END
>  <MODEL>
4

>  <REMARK>
 VINA RESULT:      -6.1      3.186      5.559
  Name = 
  9 active torsions:
  status: ('A' for Active; 'I' for Inactive)
    1  A    between atoms: C_1  and  C_22
    2  A    between atoms: C_2  and  C_14
    3  A    between atoms: C_3  and  C_19
    4  A    between atoms: C_7  and  O_16
    5  A    between atoms: C_14  and  C_20
    6  A    between atoms: C_14  and  C_22
    7  A    between atoms: O_16  and  C_26
    8  A    between atoms: C_19  and  O_29
    9  A    between atoms: C_22  and  O_29
                            x       y       z     vdW  Elec       q    Type
                         _______ _______ _______ _____ _____    ______ ____

>  <TORSDO>
F 9

$$$$
=
 OpenBabel11052412203D

 30 33  0  0  1  0  0  0  0  0999 V2000
  189.3910  176.8020  144.2580 C   0  0  2  0  0  3  0  0  0  0  0  0
  189.7570  177.5600  142.9400 C   0  0  1  0  0  0  0  0  0  0  0  0
  187.8920  176.6410  144.5280 C   0  0  0  0  0  2  0  0  0  0  0  0
  185.9930  178.9960  141.8840 S   0  0  0  0  0  0  0  0  0  0  0  0
  190.1180  178.1460  140.1610 C   0  0  2  0  0  3  0  0  0  0  0  0
  187.2240  177.8180  142.4990 C   0  0  2  0  0  3  0  0  0  0  0  0
  185.6580  177.7620  144.3080 C   0  0  0  0  0  2  0  0  0  0  0  0
  191.2540  177.3400  140.8100 C   0  0  0  0  0  2  0  0  0  0  0  0
  187.1300  177.8370  143.9950 C   0  0  1  0  0  3  0  0  0  0  0  0
  188.6400  178.1420  142.0160 C   0  0  2  0  0  3  0  0  0  0  0  0
  184.7860  180.0160  144.0550 N   0  0  0  0  0  1  0  0  0  0  0  0
  184.9630  178.7440  143.3760 C   0  0  1  0  0  3  0  0  0  0  0  0
  190.9620  178.4890  143.0200 C   0  0  0  0  0  2  0  0  0  0  0  0
  191.1030  177.1460  142.3270 C   0  0  1  0  0  3  0  0  0  0  0  0
  188.6710  176.3880  140.5320 O   0  0  0  0  0  1  0  0  0  0  0  0
  188.7840  177.7410  140.6110 N   0  0  0  0  0  0  0  0  0  0  0  0
  190.2110  178.2720  138.7570 O   0  0  0  0  0  0  0  0  0  0  0  0
  189.0550  179.7530  137.4590 O   0  0  0  0  0  1  0  0  0  0  0  0
  188.9500  178.6010  138.2380 C   0  0  0  0  0  2  0  0  0  0  0  0
  190.1730  177.1500  145.5430 C   0  0  2  0  0  3  0  0  0  0  0  0
  191.5000  176.3770  145.6910 C   0  0  0  0  0  3  0  0  0  0  0  0
  191.7460  175.4230  144.5240 C   0  0  0  0  0  2  0  0  0  0  0  0
  192.4300  174.1600  145.0080 C   0  0  0  0  0  1  0  0  0  0  0  0
  191.5900  175.6330  147.0270 C   0  0  0  0  0  2  0  0  0  0  0  0
  192.4300  176.3820  148.0510 C   0  0  0  0  0  1  0  0  0  0  0  0
  189.3480  176.9660  146.6590 O   0  0  0  0  0  0  0  0  0  0  0  0
  189.1400  178.2490  147.1690 C   0  0  0  0  0  2  0  0  0  0  0  0
  187.9200  178.2530  148.0180 C   0  0  0  0  0  0  0  0  0  0  0  0
  186.6980  178.6330  147.4770 O   0  0  0  0  0  0  0  0  0  0  0  0
  187.9870  177.8810  149.2180 O   0  0  0  0  0  1  0  0  0  0  0  0
  1  3  1  0  0  0  0
  1 20  1  1  0  0  0
  2 13  1  1  0  0  0
  2  1  1  0  0  0  0
  4 12  1  0  0  0  0
  5 17  1  6  0  0  0
  5 16  1  0  0  0  0
  5  8  1  0  0  0  0
  6  4  1  6  0  0  0
  6  9  1  0  0  0  0
  9  7  1  6  0  0  0
  9  3  1  0  0  0  0
 10 16  1  6  0  0  0
 10  6  1  0  0  0  0
 10  2  1  0  0  0  0
 12 11  1  1  0  0  0
 12  7  1  0  0  0  0
 14  8  1  6  0  0  0
 14  2  1  0  0  0  0
 14 13  1  0  0  0  0
 15 16  1  0  0  0  0
 18 19  1  0  0  0  0
 19 17  1  0  0  0  0
 20 21  1  1  0  0  0
 20 26  1  0  0  0  0
 21 24  1  0  0  0  0
 22 23  1  0  0  0  0
 22 21  1  0  0  0  0
 24 25  1  0  0  0  0
 26 27  1  0  0  0  0
 27 28  1  0  0  0  0
 28 30  1  0  0  0  0
 29 28  2  0  0  0  0
M  END
>  <MODEL>
5

>  <REMARK>
 VINA RESULT:      -5.8      2.583      6.035
  Name = 
  9 active torsions:
  status: ('A' for Active; 'I' for Inactive)
    1  A    between atoms: C_1  and  C_22
    2  A    between atoms: C_2  and  C_14
    3  A    between atoms: C_3  and  C_19
    4  A    between atoms: C_7  and  O_16
    5  A    between atoms: C_14  and  C_20
    6  A    between atoms: C_14  and  C_22
    7  A    between atoms: O_16  and  C_26
    8  A    between atoms: C_19  and  O_29
    9  A    between atoms: C_22  and  O_29
                            x       y       z     vdW  Elec       q    Type
                         _______ _______ _______ _____ _____    ______ ____

>  <TORSDO>
F 9

$$$$
=
 OpenBabel11052412203D

 30 33  0  0  1  0  0  0  0  0999 V2000
  188.4880  178.1720  144.1600 C   0  0  2  0  0  3  0  0  0  0  0  0
  187.1810  177.8260  143.3750 C   0  0  1  0  0  0  0  0  0  0  0  0
  189.7100  178.4890  143.2920 C   0  0  0  0  0  2  0  0  0  0  0  0
  188.7410  177.4610  139.5310 S   0  0  0  0  0  0  0  0  0  0  0  0
  184.8300  178.1080  141.7660 C   0  0  2  0  0  3  0  0  0  0  0  0
  188.5200  178.1540  141.1900 C   0  0  2  0  0  3  0  0  0  0  0  0
  190.8980  177.8910  141.1640 C   0  0  0  0  0  2  0  0  0  0  0  0
  184.6490  178.4610  143.2500 C   0  0  0  0  0  2  0  0  0  0  0  0
  189.6750  177.6740  142.0160 C   0  0  1  0  0  3  0  0  0  0  0  0
  187.1760  177.7680  141.8140 C   0  0  2  0  0  3  0  0  0  0  0  0
  191.0040  176.0190  139.6200 N   0  0  0  0  0  1  0  0  0  0  0  0
  190.5540  177.3920  139.7690 C   0  0  1  0  0  3  0  0  0  0  0  0
  186.3120  176.7300  143.9810 C   0  0  0  0  0  2  0  0  0  0  0  0
  185.8850  178.1810  144.1200 C   0  0  1  0  0  3  0  0  0  0  0  0
  186.2980  179.8730  141.5360 O   0  0  0  0  0  1  0  0  0  0  0  0
  186.1050  178.5670  141.2080 N   0  0  0  0  0  0  0  0  0  0  0  0
  183.7240  178.4250  140.9450 O   0  0  0  0  0  0  0  0  0  0  0  0
  181.4680  178.1260  141.1170 O   0  0  0  0  0  1  0  0  0  0  0  0
  182.5970  178.6430  141.7500 C   0  0  0  0  0  2  0  0  0  0  0  0
  188.8590  177.3040  145.3820 C   0  0  2  0  0  3  0  0  0  0  0  0
  187.8850  177.4540  146.5690 C   0  0  0  0  0  3  0  0  0  0  0  0
  187.3930  178.8890  146.7350 C   0  0  0  0  0  2  0  0  0  0  0  0
  185.9410  178.9030  147.1730 C   0  0  0  0  0  1  0  0  0  0  0  0
  188.4830  176.9300  147.8770 C   0  0  0  0  0  2  0  0  0  0  0  0
  188.8260  178.0510  148.8470 C   0  0  0  0  0  1  0  0  0  0  0  0
  190.1780  177.5750  145.7670 O   0  0  0  0  0  0  0  0  0  0  0  0
  190.8760  176.3930  145.5190 C   0  0  0  0  0  2  0  0  0  0  0  0
  191.8460  176.1490  146.6180 C   0  0  0  0  0  0  0  0  0  0  0  0
  192.6480  175.0160  146.6000 O   0  0  0  0  0  0  0  0  0  0  0  0
  191.9640  176.9870  147.5510 O   0  0  0  0  0  1  0  0  0  0  0  0
  1 20  1  1  0  0  0
  2 13  1  1  0  0  0
  2 14  1  0  0  0  0
  2  1  1  0  0  0  0
  3  1  1  0  0  0  0
  4 12  1  0  0  0  0
  5 17  1  6  0  0  0
  5  8  1  0  0  0  0
  6  4  1  6  0  0  0
  6 10  1  0  0  0  0
  6  9  1  0  0  0  0
  9  7  1  6  0  0  0
  9  3  1  0  0  0  0
 10 16  1  6  0  0  0
 10  2  1  0  0  0  0
 12 11  1  1  0  0  0
 12  7  1  0  0  0  0
 13 14  1  0  0  0  0
 14  8  1  6  0  0  0
 16 15  1  0  0  0  0
 16  5  1  0  0  0  0
 17 19  1  0  0  0  0
 18 19  1  0  0  0  0
 20 26  1  1  0  0  0
 20 21  1  0  0  0  0
 21 22  1  0  0  0  0
 21 24  1  0  0  0  0
 22 23  1  0  0  0  0
 24 25  1  0  0  0  0
 27 26  1  0  0  0  0
 27 28  1  0  0  0  0
 28 30  1  0  0  0  0
 29 28  2  0  0  0  0
M  END
>  <MODEL>
6

>  <REMARK>
 VINA RESULT:      -5.7      2.751      4.031
  Name = 
  9 active torsions:
  status: ('A' for Active; 'I' for Inactive)
    1  A    between atoms: C_1  and  C_22
    2  A    between atoms: C_2  and  C_14
    3  A    between atoms: C_3  and  C_19
    4  A    between atoms: C_7  and  O_16
    5  A    between atoms: C_14  and  C_20
    6  A    between atoms: C_14  and  C_22
    7  A    between atoms: O_16  and  C_26
    8  A    between atoms: C_19  and  O_29
    9  A    between atoms: C_22  and  O_29
                            x       y       z     vdW  Elec       q    Type
                         _______ _______ _______ _____ _____    ______ ____

>  <TORSDO>
F 9

$$$$
=
 OpenBabel11052412203D

 30 33  0  0  1  0  0  0  0  0999 V2000
  185.7610  179.0090  142.0180 C   0  0  2  0  0  3  0  0  0  0  0  0
  184.7440  178.5620  140.9180 C   0  0  1  0  0  0  0  0  0  0  0  0
  187.1980  179.2250  141.5340 C   0  0  0  0  0  2  0  0  0  0  0  0
  187.3850  177.7390  137.8070 S   0  0  0  0  0  0  0  0  0  0  0  0
  183.0020  178.6310  138.6470 C   0  0  2  0  0  3  0  0  0  0  0  0
  186.6930  178.6280  139.2240 C   0  0  2  0  0  3  0  0  0  0  0  0
  188.9570  178.3790  139.9570 C   0  0  0  0  0  2  0  0  0  0  0  0
  182.3910  179.1610  139.9530 C   0  0  0  0  0  2  0  0  0  0  0  0
  187.5260  178.2590  140.4140 C   0  0  1  0  0  3  0  0  0  0  0  0
  185.2120  178.3130  139.4490 C   0  0  2  0  0  3  0  0  0  0  0  0
  189.4680  176.3320  138.7520 N   0  0  0  0  0  1  0  0  0  0  0  0
  189.0370  177.7100  138.5930 C   0  0  1  0  0  3  0  0  0  0  0  0
  183.6970  177.5430  141.3560 C   0  0  0  0  0  2  0  0  0  0  0  0
  183.2950  178.9970  141.1850 C   0  0  1  0  0  3  0  0  0  0  0  0
  184.5260  180.3630  138.6690 O   0  0  0  0  0  1  0  0  0  0  0  0
  184.4000  179.0250  138.4550 N   0  0  0  0  0  0  0  0  0  0  0  0
  182.2090  178.8380  137.4960 O   0  0  0  0  0  0  0  0  0  0  0  0
  180.7560  180.3800  136.6470 O   0  0  0  0  0  1  0  0  0  0  0  0
  181.1670  179.7230  137.8060 C   0  0  0  0  0  2  0  0  0  0  0  0
  185.7160  178.3000  143.3890 C   0  0  2  0  0  3  0  0  0  0  0  0
  184.8710  179.0420  144.4450 C   0  0  0  0  0  3  0  0  0  0  0  0
  185.6520  179.3020  145.7320 C   0  0  0  0  0  2  0  0  0  0  0  0
  185.1690  178.3830  146.8370 C   0  0  0  0  0  1  0  0  0  0  0  0
  183.5550  178.3190  144.7450 C   0  0  0  0  0  2  0  0  0  0  0  0
  182.3380  179.1510  144.3690 C   0  0  0  0  0  1  0  0  0  0  0  0
  187.0210  178.0750  143.8450 O   0  0  0  0  0  0  0  0  0  0  0  0
  187.2250  176.7040  143.6920 C   0  0  0  0  0  2  0  0  0  0  0  0
  188.6840  176.4190  143.6700 C   0  0  0  0  0  0  0  0  0  0  0  0
  189.4810  176.7890  144.7460 O   0  0  0  0  0  1  0  0  0  0  0  0
  189.1920  175.8120  142.6910 O   0  0  0  0  0  0  0  0  0  0  0  0
  1 20  1  1  0  0  0
  2 14  1  0  0  0  0
  2 13  1  1  0  0  0
  2  1  1  0  0  0  0
  3  1  1  0  0  0  0
  4 12  1  0  0  0  0
  5 17  1  6  0  0  0
  5  8  1  0  0  0  0
  6  4  1  6  0  0  0
  6 10  1  0  0  0  0
  6  9  1  0  0  0  0
  9  7  1  6  0  0  0
  9  3  1  0  0  0  0
 10 16  1  6  0  0  0
 10  2  1  0  0  0  0
 12 11  1  1  0  0  0
 12  7  1  0  0  0  0
 14  8  1  6  0  0  0
 14 13  1  0  0  0  0
 16  5  1  0  0  0  0
 16 15  1  0  0  0  0
 17 19  1  0  0  0  0
 18 19  1  0  0  0  0
 20 26  1  1  0  0  0
 20 21  1  0  0  0  0
 21 24  1  0  0  0  0
 21 22  1  0  0  0  0
 22 23  1  0  0  0  0
 25 24  1  0  0  0  0
 27 26  1  0  0  0  0
 28 27  1  0  0  0  0
 28 29  1  0  0  0  0
 30 28  2  0  0  0  0
M  END
>  <MODEL>
7

>  <REMARK>
 VINA RESULT:      -5.5      2.921      4.909
  Name = 
  9 active torsions:
  status: ('A' for Active; 'I' for Inactive)
    1  A    between atoms: C_1  and  C_22
    2  A    between atoms: C_2  and  C_14
    3  A    between atoms: C_3  and  C_19
    4  A    between atoms: C_7  and  O_16
    5  A    between atoms: C_14  and  C_20
    6  A    between atoms: C_14  and  C_22
    7  A    between atoms: O_16  and  C_26
    8  A    between atoms: C_19  and  O_29
    9  A    between atoms: C_22  and  O_29
                            x       y       z     vdW  Elec       q    Type
                         _______ _______ _______ _____ _____    ______ ____

>  <TORSDO>
F 9

$$$$
=
 OpenBabel11052412203D

 30 33  0  0  1  0  0  0  0  0999 V2000
  189.2240  177.8830  143.8640 C   0  0  2  0  0  3  0  0  0  0  0  0
  187.6960  177.6830  143.5990 C   0  0  1  0  0  0  0  0  0  0  0  0
  190.0520  178.2990  142.6430 C   0  0  0  0  0  2  0  0  0  0  0  0
  187.6710  177.8570  139.4390 S   0  0  0  0  0  0  0  0  0  0  0  0
  184.9420  178.2480  143.0600 C   0  0  2  0  0  3  0  0  0  0  0  0
  188.1390  178.3030  141.1300 C   0  0  2  0  0  3  0  0  0  0  0  0
  190.3090  177.9980  140.1660 C   0  0  0  0  0  2  0  0  0  0  0  0
  185.3570  178.3810  144.5320 C   0  0  0  0  0  2  0  0  0  0  0  0
  189.4800  177.6820  141.3840 C   0  0  1  0  0  3  0  0  0  0  0  0
  187.1030  177.8560  142.1640 C   0  0  2  0  0  3  0  0  0  0  0  0
  189.6870  176.3710  138.4710 N   0  0  0  0  0  1  0  0  0  0  0  0
  189.4300  177.7160  138.9550 C   0  0  1  0  0  3  0  0  0  0  0  0
  187.0380  176.5280  144.3450 C   0  0  0  0  0  2  0  0  0  0  0  0
  186.8050  177.9510  144.8210 C   0  0  1  0  0  3  0  0  0  0  0  0
  186.3450  179.9960  142.5160 O   0  0  0  0  0  1  0  0  0  0  0  0
  185.9450  178.7570  142.1210 N   0  0  0  0  0  0  0  0  0  0  0  0
  183.6360  178.7050  142.7700 O   0  0  0  0  0  0  0  0  0  0  0  0
  181.9070  178.6230  144.2590 O   0  0  0  0  0  1  0  0  0  0  0  0
  183.0850  179.2880  143.9200 C   0  0  0  0  0  2  0  0  0  0  0  0
  189.9600  176.8370  144.7290 C   0  0  2  0  0  3  0  0  0  0  0  0
  190.2520  177.3160  146.1660 C   0  0  0  0  0  3  0  0  0  0  0  0
  191.6830  177.0030  146.6000 C   0  0  0  0  0  2  0  0  0  0  0  0
  191.6870  175.9440  147.6840 C   0  0  0  0  0  1  0  0  0  0  0  0
  189.2460  176.7580  147.1770 C   0  0  0  0  0  2  0  0  0  0  0  0
  188.5500  177.8570  147.9680 C   0  0  0  0  0  1  0  0  0  0  0  0
  191.1310  176.4300  144.0780 O   0  0  0  0  0  0  0  0  0  0  0  0
  190.8150  175.1980  143.5040 C   0  0  0  0  0  2  0  0  0  0  0  0
  191.6490  174.1340  144.1220 C   0  0  0  0  0  0  0  0  0  0  0  0
  191.3130  172.7980  143.9480 O   0  0  0  0  0  0  0  0  0  0  0  0
  192.6790  174.4420  144.7760 O   0  0  0  0  0  1  0  0  0  0  0  0
  1 20  1  6  0  0  0
  2  1  1  0  0  0  0
  2 13  1  1  0  0  0
  2 14  1  0  0  0  0
  3  1  1  0  0  0  0
  5 17  1  1  0  0  0
  5  8  1  0  0  0  0
  6  4  1  6  0  0  0
  6  9  1  0  0  0  0
  6 10  1  0  0  0  0
  8 14  1  0  0  0  0
  9  7  1  6  0  0  0
  9  3  1  0  0  0  0
 10 16  1  1  0  0  0
 10  2  1  0  0  0  0
 12 11  1  1  0  0  0
 12  4  1  0  0  0  0
 12  7  1  0  0  0  0
 14 13  1  1  0  0  0
 16 15  1  0  0  0  0
 16  5  1  0  0  0  0
 17 19  1  0  0  0  0
 19 18  1  0  0  0  0
 20 26  1  6  0  0  0
 20 21  1  0  0  0  0
 21 22  1  0  0  0  0
 21 24  1  0  0  0  0
 22 23  1  0  0  0  0
 24 25  1  0  0  0  0
 27 26  1  0  0  0  0
 27 28  1  0  0  0  0
 28 30  1  0  0  0  0
 29 28  2  0  0  0  0
M  END
>  <MODEL>
8

>  <REMARK>
 VINA RESULT:      -5.5      2.155      3.025
  Name = 
  9 active torsions:
  status: ('A' for Active; 'I' for Inactive)
    1  A    between atoms: C_1  and  C_22
    2  A    between atoms: C_2  and  C_14
    3  A    between atoms: C_3  and  C_19
    4  A    between atoms: C_7  and  O_16
    5  A    between atoms: C_14  and  C_20
    6  A    between atoms: C_14  and  C_22
    7  A    between atoms: O_16  and  C_26
    8  A    between atoms: C_19  and  O_29
    9  A    between atoms: C_22  and  O_29
                            x       y       z     vdW  Elec       q    Type
                         _______ _______ _______ _____ _____    ______ ____

>  <TORSDO>
F 9

$$$$
=
 OpenBabel11052412203D

 30 33  0  0  1  0  0  0  0  0999 V2000
  185.9570  178.5640  139.9610 C   0  0  2  0  0  3  0  0  0  0  0  0
  186.6920  177.9450  138.7270 C   0  0  1  0  0  0  0  0  0  0  0  0
  186.8490  178.8730  141.1680 C   0  0  0  0  0  2  0  0  0  0  0  0
  190.3980  177.1350  140.4450 S   0  0  0  0  0  0  0  0  0  0  0  0
  188.3580  177.6850  136.4140 C   0  0  2  0  0  3  0  0  0  0  0  0
  188.8820  178.0620  140.0930 C   0  0  2  0  0  3  0  0  0  0  0  0
  188.8300  178.0750  142.4850 C   0  0  0  0  0  2  0  0  0  0  0  0
  186.9560  178.2530  136.1460 C   0  0  0  0  0  2  0  0  0  0  0  0
  187.9710  177.8600  141.2660 C   0  0  1  0  0  3  0  0  0  0  0  0
  188.2210  177.6300  138.7810 C   0  0  2  0  0  3  0  0  0  0  0  0
  190.0380  175.9990  142.8510 N   0  0  0  0  0  1  0  0  0  0  0  0
  190.1270  177.3160  142.2450 C   0  0  1  0  0  3  0  0  0  0  0  0
  185.9230  176.8710  137.9670 C   0  0  0  0  0  2  0  0  0  0  0  0
  186.0340  178.2650  137.3770 C   0  0  1  0  0  3  0  0  0  0  0  0
  188.8590  179.5450  137.6830 O   0  0  0  0  0  1  0  0  0  0  0  0
  188.9670  178.1890  137.6470 N   0  0  0  0  0  0  0  0  0  0  0  0
  189.2350  177.7320  135.3080 O   0  0  0  0  0  0  0  0  0  0  0  0
  188.9560  175.4900  135.6360 O   0  0  0  0  0  1  0  0  0  0  0  0
  189.8050  176.4650  135.1140 C   0  0  0  0  0  2  0  0  0  0  0  0
  184.6020  177.9580  140.3870 C   0  0  2  0  0  3  0  0  0  0  0  0
  183.3800  178.7100  139.8190 C   0  0  0  0  0  3  0  0  0  0  0  0
  182.5220  177.8220  138.9210 C   0  0  0  0  0  2  0  0  0  0  0  0
  182.5750  176.3830  139.3940 C   0  0  0  0  0  1  0  0  0  0  0  0
  183.7800  179.9950  139.0890 C   0  0  0  0  0  2  0  0  0  0  0  0
  182.5770  180.8500  138.7200 C   0  0  0  0  0  1  0  0  0  0  0  0
  184.5450  177.8700  141.7830 O   0  0  0  0  0  0  0  0  0  0  0  0
  183.4600  178.6680  142.1500 C   0  0  0  0  0  2  0  0  0  0  0  0
  183.6090  179.0860  143.5690 C   0  0  0  0  0  0  0  0  0  0  0  0
  184.5830  180.0100  143.9220 O   0  0  0  0  0  0  0  0  0  0  0  0
  182.8310  178.6270  144.4450 O   0  0  0  0  0  1  0  0  0  0  0  0
  1 20  1  1  0  0  0
  1  3  1  0  0  0  0
  2 13  1  1  0  0  0
  2 10  1  0  0  0  0
  2  1  1  0  0  0  0
  4 12  1  0  0  0  0
  5 17  1  6  0  0  0
  5 16  1  0  0  0  0
  6  4  1  1  0  0  0
  6  9  1  0  0  0  0
  8  5  1  0  0  0  0
  9  3  1  6  0  0  0
  9  7  1  0  0  0  0
 10 16  1  6  0  0  0
 10  6  1  0  0  0  0
 12  7  1  0  0  0  0
 12 11  1  1  0  0  0
 14  8  1  6  0  0  0
 14 13  1  0  0  0  0
 14  2  1  0  0  0  0
 16 15  1  0  0  0  0
 19 17  1  0  0  0  0
 19 18  1  0  0  0  0
 20 21  1  1  0  0  0
 20 26  1  0  0  0  0
 22 23  1  0  0  0  0
 22 21  1  0  0  0  0
 24 21  1  0  0  0  0
 25 24  1  0  0  0  0
 26 27  1  0  0  0  0
 27 28  1  0  0  0  0
 28 29  2  0  0  0  0
 28 30  1  0  0  0  0
M  END
>  <MODEL>
9

>  <REMARK>
 VINA RESULT:      -5.4      2.948      7.737
  Name = 
  9 active torsions:
  status: ('A' for Active; 'I' for Inactive)
    1  A    between atoms: C_1  and  C_22
    2  A    between atoms: C_2  and  C_14
    3  A    between atoms: C_3  and  C_19
    4  A    between atoms: C_7  and  O_16
    5  A    between atoms: C_14  and  C_20
    6  A    between atoms: C_14  and  C_22
    7  A    between atoms: O_16  and  C_26
    8  A    between atoms: C_19  and  O_29
    9  A    between atoms: C_22  and  O_29
                            x       y       z     vdW  Elec       q    Type
                         _______ _______ _______ _____ _____    ______ ____

>  <TORSDO>
F 9

$$$$
