=
 OpenBabel11052416373D

 43 48  0  0  1  0  0  0  0  0999 V2000
  188.7140  177.8570  148.3290 C   0  0  1  0  0  3  0  0  0  0  0  0
  185.9050  178.2730  143.9790 C   0  0  0  0  0  0  0  0  0  0  0  0
  187.7640  178.1010  141.8680 C   0  0  0  0  0  0  0  0  0  0  0  0
  186.7070  177.9400  146.7320 C   0  0  1  0  0  3  0  0  0  0  0  0
  189.1320  176.7240  147.3870 C   0  0  0  0  0  2  0  0  0  0  0  0
  189.5280  178.9570  148.1320 F   0  0  0  0  0  0  0  0  0  0  0  0
  187.8070  178.1130  145.6770 C   0  0  1  0  0  3  0  0  0  0  0  0
  187.2430  178.2590  148.1320 C   0  0  0  0  0  2  0  0  0  0  0  0
  188.9290  177.0860  145.9060 C   0  0  0  0  0  2  0  0  0  0  0  0
  188.1970  178.0390  143.1950 C   0  0  0  0  0  3  0  0  0  0  0  0
  187.2830  178.0940  144.2570 C   0  0  0  0  0  0  0  0  0  0  0  0
  184.8960  178.3350  145.1000 C   0  0  0  0  0  2  0  0  0  0  0  0
  185.4700  178.3260  142.6390 C   0  0  0  0  0  0  0  0  0  0  0  0
  186.3990  178.2410  141.5990 C   0  0  0  0  0  3  0  0  0  0  0  0
  185.5130  178.8180  146.4050 C   0  0  0  0  0  2  0  0  0  0  0  0
  188.7400  178.0250  140.7700 C   0  0  0  0  0  0  0  0  0  0  0  0
  189.8440  177.4390  140.9430 O   0  0  0  0  0  0  0  0  0  0  0  0
  188.4350  178.6030  139.5340 O   0  0  0  0  0  0  0  0  0  0  0  0
  189.1050  178.2240  138.3410 C   0  0  0  0  0  2  0  0  0  0  0  0
  186.6810  178.0280  137.7850 C   0  0  0  0  0  2  0  0  0  0  0  0
  188.2990  176.1700  137.2020 C   0  0  0  0  0  2  0  0  0  0  0  0
  186.4300  176.1490  135.1980 C   0  0  2  0  0  3  0  0  0  0  0  0
  188.1030  177.6780  137.3410 C   0  0  2  0  0  3  0  0  0  0  0  0
  185.6330  177.5100  136.8030 C   0  0  0  0  0  2  0  0  0  0  0  0
  187.5410  175.4950  136.0390 C   0  0  1  0  0  0  0  0  0  0  0  0
  187.8590  176.0450  134.6690 C   0  0  0  0  0  2  0  0  0  0  0  0
  186.1680  177.4940  135.5100 O   0  0  0  0  0  0  0  0  0  0  0  0
  187.5400  174.0940  136.0340 O   0  0  0  0  0  0  0  0  0  0  0  0
  187.3460  173.7360  137.2890 O   0  0  0  0  0  0  0  0  0  0  0  0
  186.3570  172.7510  137.2310 C   0  0  0  0  0  2  0  0  0  0  0  0
  185.0330  173.2990  137.7750 C   0  0  0  0  0  2  0  0  0  0  0  0
  183.6760  171.5650  137.1180 O   0  0  0  0  0  1  0  0  0  0  0  0
  184.1130  173.1720  135.5790 C   0  0  0  0  0  1  0  0  0  0  0  0
  183.8620  172.9000  136.9860 N   0  0  0  0  0  0  0  0  0  0  0  0
  184.0190  178.4630  142.2900 C   0  0  0  0  0  2  0  0  0  0  0  0
  183.1650  179.3670  138.6880 C   0  0  0  0  0  2  0  0  0  0  0  0
  181.6640  179.3380  139.0040 C   0  0  2  0  0  3  0  0  0  0  0  0
  182.3810  177.5340  140.6460 C   0  0  0  0  0  2  0  0  0  0  0  0
  183.9940  179.4150  139.9670 C   0  0  0  0  0  2  0  0  0  0  0  0
  183.7750  178.1540  140.8210 C   0  0  1  0  0  3  0  0  0  0  0  0
  181.3290  178.5900  140.3080 C   0  0  0  0  0  2  0  0  0  0  0  0
  181.7890  178.6380  136.6750 N   0  0  0  0  0  1  0  0  0  0  0  0
  180.9150  178.7310  137.8310 C   0  0  0  0  0  2  0  0  0  0  0  0
  1  6  1  6  0  0  0
  2 11  1  0  0  0  0
  2 12  1  0  0  0  0
  3 10  1  0  0  0  0
  4 15  1  6  0  0  0
  4  8  1  0  0  0  0
  5  1  1  0  0  0  0
  7  9  1  6  0  0  0
  7  4  1  0  0  0  0
  8  1  1  0  0  0  0
  9  5  1  0  0  0  0
 10 11  2  0  0  0  0
 11  7  1  0  0  0  0
 12 15  1  0  0  0  0
 13  2  2  0  0  0  0
 14  3  2  0  0  0  0
 14 13  1  0  0  0  0
 16 17  2  0  0  0  0
 16  3  1  0  0  0  0
 18 16  1  0  0  0  0
 19 18  1  0  0  0  0
 21 23  1  0  0  0  0
 22 26  1  6  0  0  0
 22 27  1  0  0  0  0
 22 25  1  0  0  0  0
 23 20  1  0  0  0  0
 23 19  1  1  0  0  0
 24 20  1  0  0  0  0
 25 28  1  1  0  0  0
 25 21  1  0  0  0  0
 26 25  1  0  0  0  0
 27 24  1  0  0  0  0
 28 29  1  0  0  0  0
 30 29  1  0  0  0  0
 30 31  1  0  0  0  0
 33 34  1  0  0  0  0
 34 32  1  0  0  0  0
 34 31  1  0  0  0  0
 35 13  1  0  0  0  0
 36 37  1  0  0  0  0
 36 39  1  0  0  0  0
 37 43  1  6  0  0  0
 37 41  1  0  0  0  0
 38 40  1  0  0  0  0
 39 40  1  0  0  0  0
 40 35  1  1  0  0  0
 41 38  1  0  0  0  0
 42 43  1  0  0  0  0
M  END
>  <MODEL>
1

>  <REMARK>
 VINA RESULT:      -8.5      0.000      0.000
  Name = 
  12 active torsions:
  status: ('A' for Active; 'I' for Inactive)
    1  A    between atoms: C_1  and  C_34
    2  A    between atoms: C_1  and  C_35
    3  A    between atoms: C_2  and  O_6
    4  A    between atoms: C_2  and  C_13
    5  A    between atoms: O_6  and  C_17
    6  A    between atoms: O_11  and  O_14
    7  A    between atoms: O_11  and  C_36
    8  A    between atoms: C_12  and  C_17
    9  A    between atoms: O_14  and  C_22
   10  A    between atoms: C_19  and  C_37
   11  A    between atoms: N_31  and  C_40
   12  A    between atoms: C_36  and  C_40
                            x       y       z     vdW  Elec       q    Type
                         _______ _______ _______ _____ _____    ______ ____

>  <TORSDO>
F 12

$$$$
=
 OpenBabel11052416373D

 43 48  0  0  1  0  0  0  0  0999 V2000
  188.6620  177.1260  148.3010 C   0  0  1  0  0  3  0  0  0  0  0  0
  188.3400  178.0510  143.2000 C   0  0  0  0  0  0  0  0  0  0  0  0
  185.5830  178.2060  142.6390 C   0  0  0  0  0  0  0  0  0  0  0  0
  189.3200  177.7310  145.8960 C   0  0  1  0  0  3  0  0  0  0  0  0
  187.6970  178.2970  148.0940 C   0  0  0  0  0  2  0  0  0  0  0  0
  187.9590  175.9350  148.3200 F   0  0  0  0  0  0  0  0  0  0  0  0
  187.8220  177.5240  145.6450 C   0  0  1  0  0  3  0  0  0  0  0  0
  189.7460  177.0710  147.2120 C   0  0  0  0  0  2  0  0  0  0  0  0
  186.9970  178.2460  146.7250 C   0  0  0  0  0  2  0  0  0  0  0  0
  186.0240  177.9480  143.9400 C   0  0  0  0  0  3  0  0  0  0  0  0
  187.3930  177.8950  144.2420 C   0  0  0  0  0  0  0  0  0  0  0  0
  189.8200  178.0010  143.4920 C   0  0  0  0  0  2  0  0  0  0  0  0
  187.8930  178.3200  141.8910 C   0  0  0  0  0  0  0  0  0  0  0  0
  186.5230  178.3950  141.6220 C   0  0  0  0  0  3  0  0  0  0  0  0
  190.1340  177.1840  144.7380 C   0  0  0  0  0  2  0  0  0  0  0  0
  184.1420  178.2720  142.3490 C   0  0  0  0  0  0  0  0  0  0  0  0
  183.3570  178.8330  143.1630 O   0  0  0  0  0  0  0  0  0  0  0  0
  183.6500  177.7130  141.1660 O   0  0  0  0  0  0  0  0  0  0  0  0
  183.1420  178.5150  140.1100 C   0  0  0  0  0  2  0  0  0  0  0  0
  182.6250  176.1820  139.3940 C   0  0  0  0  0  2  0  0  0  0  0  0
  183.8080  177.7860  137.8320 C   0  0  0  0  0  2  0  0  0  0  0  0
  182.2700  176.2040  136.2070 C   0  0  2  0  0  3  0  0  0  0  0  0
  182.7620  177.6350  138.9340 C   0  0  2  0  0  3  0  0  0  0  0  0
  182.2310  175.2550  138.2480 C   0  0  0  0  0  2  0  0  0  0  0  0
  183.4460  177.1630  136.4670 C   0  0  1  0  0  0  0  0  0  0  0  0
  182.1700  177.6850  135.8500 C   0  0  0  0  0  2  0  0  0  0  0  0
  181.4510  175.9580  137.3220 O   0  0  0  0  0  0  0  0  0  0  0  0
  184.4780  177.1050  135.5220 O   0  0  0  0  0  0  0  0  0  0  0  0
  185.5830  177.3810  136.1870 O   0  0  0  0  0  0  0  0  0  0  0  0
  186.5900  176.6830  135.5160 C   0  0  0  0  0  2  0  0  0  0  0  0
  186.3590  175.1730  135.6390 C   0  0  0  0  0  2  0  0  0  0  0  0
  187.7510  173.8810  136.9320 O   0  0  0  0  0  1  0  0  0  0  0  0
  185.5310  173.7840  137.3910 C   0  0  0  0  0  1  0  0  0  0  0  0
  186.6320  174.6430  136.9800 N   0  0  0  0  0  0  0  0  0  0  0  0
  188.8540  178.5440  140.7630 C   0  0  0  0  0  2  0  0  0  0  0  0
  190.8200  176.1060  138.5910 C   0  0  0  0  0  2  0  0  0  0  0  0
  190.5720  176.9680  137.3470 C   0  0  2  0  0  3  0  0  0  0  0  0
  188.3910  177.4870  138.5450 C   0  0  0  0  0  2  0  0  0  0  0  0
  190.5110  176.8830  139.8660 C   0  0  0  0  0  2  0  0  0  0  0  0
  189.0260  177.2830  139.9280 C   0  0  1  0  0  3  0  0  0  0  0  0
  189.4150  177.9690  137.5170 C   0  0  0  0  0  2  0  0  0  0  0  0
  191.4340  175.1370  135.9910 N   0  0  0  0  0  1  0  0  0  0  0  0
  190.3280  176.0630  136.1510 C   0  0  0  0  0  2  0  0  0  0  0  0
  1  6  1  6  0  0  0
  2 12  1  0  0  0  0
  2 11  1  0  0  0  0
  3 10  1  0  0  0  0
  4 15  1  6  0  0  0
  4  8  1  0  0  0  0
  5  1  1  0  0  0  0
  7  4  1  0  0  0  0
  7  9  1  1  0  0  0
  8  1  1  0  0  0  0
  9  5  1  0  0  0  0
 10 11  2  0  0  0  0
 11  7  1  0  0  0  0
 12 15  1  0  0  0  0
 13  2  2  0  0  0  0
 14 13  1  0  0  0  0
 14  3  2  0  0  0  0
 16  3  1  0  0  0  0
 16 17  2  0  0  0  0
 18 16  1  0  0  0  0
 19 18  1  0  0  0  0
 21 23  1  0  0  0  0
 22 26  1  6  0  0  0
 22 25  1  0  0  0  0
 22 27  1  0  0  0  0
 23 20  1  0  0  0  0
 23 19  1  1  0  0  0
 24 20  1  0  0  0  0
 25 28  1  6  0  0  0
 25 21  1  0  0  0  0
 26 25  1  0  0  0  0
 27 24  1  0  0  0  0
 28 29  1  0  0  0  0
 30 31  1  0  0  0  0
 30 29  1  0  0  0  0
 31 34  1  0  0  0  0
 32 34  1  0  0  0  0
 34 33  1  0  0  0  0
 35 13  1  0  0  0  0
 36 39  1  0  0  0  0
 37 43  1  6  0  0  0
 37 41  1  0  0  0  0
 37 36  1  0  0  0  0
 38 40  1  0  0  0  0
 39 40  1  0  0  0  0
 40 35  1  1  0  0  0
 41 38  1  0  0  0  0
 42 43  1  0  0  0  0
M  END
>  <MODEL>
2

>  <REMARK>
 VINA RESULT:      -8.5      2.463      5.137
  Name = 
  12 active torsions:
  status: ('A' for Active; 'I' for Inactive)
    1  A    between atoms: C_1  and  C_34
    2  A    between atoms: C_1  and  C_35
    3  A    between atoms: C_2  and  O_6
    4  A    between atoms: C_2  and  C_13
    5  A    between atoms: O_6  and  C_17
    6  A    between atoms: O_11  and  O_14
    7  A    between atoms: O_11  and  C_36
    8  A    between atoms: C_12  and  C_17
    9  A    between atoms: O_14  and  C_22
   10  A    between atoms: C_19  and  C_37
   11  A    between atoms: N_31  and  C_40
   12  A    between atoms: C_36  and  C_40
                            x       y       z     vdW  Elec       q    Type
                         _______ _______ _______ _____ _____    ______ ____

>  <TORSDO>
F 12

$$$$
=
 OpenBabel11052416373D

 43 48  0  0  1  0  0  0  0  0999 V2000
  188.6350  177.8230  148.1460 C   0  0  1  0  0  3  0  0  0  0  0  0
  185.8880  178.2100  143.7540 C   0  0  0  0  0  0  0  0  0  0  0  0
  187.7860  178.1170  141.6720 C   0  0  0  0  0  0  0  0  0  0  0  0
  186.6530  177.8670  146.5150 C   0  0  1  0  0  3  0  0  0  0  0  0
  189.1010  176.7140  147.1980 C   0  0  0  0  0  2  0  0  0  0  0  0
  189.4210  178.9480  147.9750 F   0  0  0  0  0  0  0  0  0  0  0  0
  187.7650  178.0850  145.4820 C   0  0  1  0  0  3  0  0  0  0  0  0
  187.1560  178.1850  147.9280 C   0  0  0  0  0  2  0  0  0  0  0  0
  188.9130  177.0880  145.7180 C   0  0  0  0  0  2  0  0  0  0  0  0
  188.1980  178.0510  143.0060 C   0  0  0  0  0  3  0  0  0  0  0  0
  187.2660  178.0670  144.0530 C   0  0  0  0  0  0  0  0  0  0  0  0
  184.8590  178.2300  144.8580 C   0  0  0  0  0  2  0  0  0  0  0  0
  185.4740  178.2670  142.4070 C   0  0  0  0  0  0  0  0  0  0  0  0
  186.4220  178.2200  141.3820 C   0  0  0  0  0  3  0  0  0  0  0  0
  185.4400  178.7140  146.1790 C   0  0  0  0  0  2  0  0  0  0  0  0
  188.7820  178.0820  140.5900 C   0  0  0  0  0  0  0  0  0  0  0  0
  188.6920  178.8870  139.6220 O   0  0  0  0  0  0  0  0  0  0  0  0
  189.8280  177.1580  140.6450 O   0  0  0  0  0  0  0  0  0  0  0  0
  191.1270  177.4620  140.1580 C   0  0  0  0  0  2  0  0  0  0  0  0
  193.0050  176.5790  138.7730 C   0  0  0  0  0  2  0  0  0  0  0  0
  190.6740  176.8000  137.8090 C   0  0  0  0  0  2  0  0  0  0  0  0
  191.7470  174.5900  136.5940 C   0  0  2  0  0  3  0  0  0  0  0  0
  191.5030  176.4930  139.0540 C   0  0  2  0  0  3  0  0  0  0  0  0
  193.4370  175.6110  137.6750 C   0  0  0  0  0  2  0  0  0  0  0  0
  190.7400  175.7510  136.6780 C   0  0  1  0  0  0  0  0  0  0  0  0
  190.3170  174.3580  137.0780 C   0  0  0  0  0  2  0  0  0  0  0  0
  192.6130  174.4790  137.6960 O   0  0  0  0  0  0  0  0  0  0  0  0
  190.1630  176.1240  135.4570 O   0  0  0  0  0  0  0  0  0  0  0  0
  189.5150  177.2470  135.7000 O   0  0  0  0  0  0  0  0  0  0  0  0
  188.1830  176.9680  135.3820 C   0  0  0  0  0  2  0  0  0  0  0  0
  187.2440  177.8040  136.2580 C   0  0  0  0  0  2  0  0  0  0  0  0
  187.1010  175.7770  137.3300 O   0  0  0  0  0  1  0  0  0  0  0  0
  185.2350  177.0660  137.3090 C   0  0  0  0  0  1  0  0  0  0  0  0
  186.6880  177.0650  137.3970 N   0  0  0  0  0  0  0  0  0  0  0  0
  184.0260  178.3660  142.0360 C   0  0  0  0  0  2  0  0  0  0  0  0
  182.5860  179.3400  138.6440 C   0  0  0  0  0  2  0  0  0  0  0  0
  181.2820  178.5910  138.9490 C   0  0  2  0  0  3  0  0  0  0  0  0
  182.8460  177.0690  140.2520 C   0  0  0  0  0  2  0  0  0  0  0  0
  183.4040  179.5550  139.9130 C   0  0  0  0  0  2  0  0  0  0  0  0
  183.8310  178.2130  140.5340 C   0  0  1  0  0  3  0  0  0  0  0  0
  181.4130  177.5800  140.1020 C   0  0  0  0  0  2  0  0  0  0  0  0
  180.9860  178.7710  136.5380 N   0  0  0  0  0  1  0  0  0  0  0  0
  180.7910  177.9050  137.6860 C   0  0  0  0  0  2  0  0  0  0  0  0
  1  6  1  6  0  0  0
  2 11  1  0  0  0  0
  2 12  1  0  0  0  0
  3 10  1  0  0  0  0
  4 15  1  6  0  0  0
  4  8  1  0  0  0  0
  5  1  1  0  0  0  0
  7  9  1  6  0  0  0
  7  4  1  0  0  0  0
  8  1  1  0  0  0  0
  9  5  1  0  0  0  0
 10 11  2  0  0  0  0
 11  7  1  0  0  0  0
 12 15  1  0  0  0  0
 13  2  2  0  0  0  0
 14  3  2  0  0  0  0
 14 13  1  0  0  0  0
 16 18  1  0  0  0  0
 16  3  1  0  0  0  0
 17 16  2  0  0  0  0
 19 18  1  0  0  0  0
 20 23  1  0  0  0  0
 21 23  1  0  0  0  0
 22 25  1  0  0  0  0
 22 26  1  1  0  0  0
 22 27  1  0  0  0  0
 23 19  1  1  0  0  0
 24 27  1  0  0  0  0
 24 20  1  0  0  0  0
 25 28  1  6  0  0  0
 25 26  1  0  0  0  0
 25 21  1  0  0  0  0
 28 29  1  0  0  0  0
 30 29  1  0  0  0  0
 30 31  1  0  0  0  0
 31 34  1  0  0  0  0
 32 34  1  0  0  0  0
 33 34  1  0  0  0  0
 35 13  1  0  0  0  0
 36 37  1  0  0  0  0
 36 39  1  0  0  0  0
 37 43  1  6  0  0  0
 37 41  1  0  0  0  0
 38 40  1  0  0  0  0
 39 40  1  0  0  0  0
 40 35  1  1  0  0  0
 41 38  1  0  0  0  0
 42 43  1  0  0  0  0
M  END
>  <MODEL>
3

>  <REMARK>
 VINA RESULT:      -8.4      2.058      3.145
  Name = 
  12 active torsions:
  status: ('A' for Active; 'I' for Inactive)
    1  A    between atoms: C_1  and  C_34
    2  A    between atoms: C_1  and  C_35
    3  A    between atoms: C_2  and  O_6
    4  A    between atoms: C_2  and  C_13
    5  A    between atoms: O_6  and  C_17
    6  A    between atoms: O_11  and  O_14
    7  A    between atoms: O_11  and  C_36
    8  A    between atoms: C_12  and  C_17
    9  A    between atoms: O_14  and  C_22
   10  A    between atoms: C_19  and  C_37
   11  A    between atoms: N_31  and  C_40
   12  A    between atoms: C_36  and  C_40
                            x       y       z     vdW  Elec       q    Type
                         _______ _______ _______ _____ _____    ______ ____

>  <TORSDO>
F 12

$$$$
=
 OpenBabel11052416373D

 43 48  0  0  1  0  0  0  0  0999 V2000
  180.3580  178.7200  140.2710 C   0  0  1  0  0  3  0  0  0  0  0  0
  184.4290  178.6650  143.4970 C   0  0  0  0  0  0  0  0  0  0  0  0
  186.6860  178.3020  141.8500 C   0  0  0  0  0  0  0  0  0  0  0  0
  181.7820  178.9800  142.3900 C   0  0  1  0  0  3  0  0  0  0  0  0
  181.4160  179.6770  139.7130 C   0  0  0  0  0  2  0  0  0  0  0  0
  180.5310  177.4600  139.7290 F   0  0  0  0  0  0  0  0  0  0  0  0
  182.9020  178.5090  141.4550 C   0  0  1  0  0  3  0  0  0  0  0  0
  180.4070  178.6370  141.8060 C   0  0  0  0  0  2  0  0  0  0  0  0
  182.8430  179.2790  140.1250 C   0  0  0  0  0  2  0  0  0  0  0  0
  185.4050  178.3480  141.2910 C   0  0  0  0  0  3  0  0  0  0  0  0
  184.2740  178.5570  142.0930 C   0  0  0  0  0  0  0  0  0  0  0  0
  183.2310  178.8910  144.3880 C   0  0  0  0  0  2  0  0  0  0  0  0
  185.7220  178.6280  144.0570 C   0  0  0  0  0  0  0  0  0  0  0  0
  186.8350  178.4470  143.2320 C   0  0  0  0  0  3  0  0  0  0  0  0
  181.9440  178.3650  143.7670 C   0  0  0  0  0  2  0  0  0  0  0  0
  187.8600  178.0980  140.9860 C   0  0  0  0  0  0  0  0  0  0  0  0
  188.8730  177.4890  141.4290 O   0  0  0  0  0  0  0  0  0  0  0  0
  187.8420  178.5770  139.6740 O   0  0  0  0  0  0  0  0  0  0  0  0
  189.0100  178.6000  138.8660 C   0  0  0  0  0  2  0  0  0  0  0  0
  187.4080  177.1510  137.6170 C   0  0  0  0  0  2  0  0  0  0  0  0
  189.8150  176.4370  137.9490 C   0  0  0  0  0  2  0  0  0  0  0  0
  189.1010  175.4380  135.4990 C   0  0  2  0  0  3  0  0  0  0  0  0
  188.8640  177.6110  137.7250 C   0  0  2  0  0  3  0  0  0  0  0  0
  187.2050  176.1610  136.4740 C   0  0  0  0  0  2  0  0  0  0  0  0
  189.9840  175.4680  136.7590 C   0  0  1  0  0  0  0  0  0  0  0  0
  190.4720  176.1100  135.4820 C   0  0  0  0  0  2  0  0  0  0  0  0
  188.1150  176.4380  135.4460 O   0  0  0  0  0  0  0  0  0  0  0  0
  190.6770  174.2800  137.0250 O   0  0  0  0  0  0  0  0  0  0  0  0
  191.5370  174.5780  137.9800 O   0  0  0  0  0  0  0  0  0  0  0  0
  192.7790  174.1740  137.4830 C   0  0  0  0  0  2  0  0  0  0  0  0
  193.7650  175.3460  137.5050 C   0  0  0  0  0  2  0  0  0  0  0  0
  196.0490  175.2550  137.2800 O   0  0  0  0  0  1  0  0  0  0  0  0
  195.0680  173.6200  138.5080 C   0  0  0  0  0  1  0  0  0  0  0  0
  195.0410  175.0320  138.1560 N   0  0  0  0  0  0  0  0  0  0  0  0
  185.9450  178.7890  145.5300 C   0  0  0  0  0  2  0  0  0  0  0  0
  188.3100  177.1360  148.0200 C   0  0  0  0  0  2  0  0  0  0  0  0
  189.5310  177.6800  147.2670 C   0  0  2  0  0  3  0  0  0  0  0  0
  188.0040  177.3980  145.2540 C   0  0  0  0  0  2  0  0  0  0  0  0
  187.0360  177.8570  147.5900 C   0  0  0  0  0  2  0  0  0  0  0  0
  186.7410  177.6240  146.0980 C   0  0  1  0  0  3  0  0  0  0  0  0
  189.2110  178.1380  145.8320 C   0  0  0  0  0  2  0  0  0  0  0  0
  191.6220  176.9480  146.2550 N   0  0  0  0  0  1  0  0  0  0  0  0
  190.6270  176.6290  147.2630 C   0  0  0  0  0  2  0  0  0  0  0  0
  1  6  1  6  0  0  0
  1  8  1  0  0  0  0
  2 13  1  0  0  0  0
  2 12  1  0  0  0  0
  3 14  1  0  0  0  0
  4  8  1  6  0  0  0
  4 15  1  0  0  0  0
  5  9  1  0  0  0  0
  5  1  1  0  0  0  0
  7  9  1  6  0  0  0
  7 11  1  0  0  0  0
  7  4  1  0  0  0  0
 10  3  2  0  0  0  0
 10 11  1  0  0  0  0
 11  2  2  0  0  0  0
 13 35  1  0  0  0  0
 14 13  2  0  0  0  0
 15 12  1  0  0  0  0
 16 17  2  0  0  0  0
 16  3  1  0  0  0  0
 18 16  1  0  0  0  0
 19 18  1  0  0  0  0
 20 23  1  0  0  0  0
 22 26  1  6  0  0  0
 22 25  1  0  0  0  0
 23 21  1  0  0  0  0
 23 19  1  1  0  0  0
 24 20  1  0  0  0  0
 25 28  1  1  0  0  0
 25 21  1  0  0  0  0
 26 25  1  0  0  0  0
 27 22  1  0  0  0  0
 27 24  1  0  0  0  0
 28 29  1  0  0  0  0
 30 31  1  0  0  0  0
 30 29  1  0  0  0  0
 31 34  1  0  0  0  0
 32 34  1  0  0  0  0
 34 33  1  0  0  0  0
 37 43  1  6  0  0  0
 37 36  1  0  0  0  0
 38 41  1  0  0  0  0
 38 40  1  0  0  0  0
 39 36  1  0  0  0  0
 40 35  1  6  0  0  0
 40 39  1  0  0  0  0
 41 37  1  0  0  0  0
 42 43  1  0  0  0  0
M  END
>  <MODEL>
4

>  <REMARK>
 VINA RESULT:      -8.4      4.045      7.215
  Name = 
  12 active torsions:
  status: ('A' for Active; 'I' for Inactive)
    1  A    between atoms: C_1  and  C_34
    2  A    between atoms: C_1  and  C_35
    3  A    between atoms: C_2  and  O_6
    4  A    between atoms: C_2  and  C_13
    5  A    between atoms: O_6  and  C_17
    6  A    between atoms: O_11  and  O_14
    7  A    between atoms: O_11  and  C_36
    8  A    between atoms: C_12  and  C_17
    9  A    between atoms: O_14  and  C_22
   10  A    between atoms: C_19  and  C_37
   11  A    between atoms: N_31  and  C_40
   12  A    between atoms: C_36  and  C_40
                            x       y       z     vdW  Elec       q    Type
                         _______ _______ _______ _____ _____    ______ ____

>  <TORSDO>
F 12

$$$$
=
 OpenBabel11052416373D

 43 48  0  0  1  0  0  0  0  0999 V2000
  188.6880  177.8520  148.5240 C   0  0  1  0  0  3  0  0  0  0  0  0
  185.9680  178.2490  144.1160 C   0  0  0  0  0  0  0  0  0  0  0  0
  187.8640  178.0310  142.0430 C   0  0  0  0  0  0  0  0  0  0  0  0
  186.7140  177.9390  146.8870 C   0  0  1  0  0  3  0  0  0  0  0  0
  189.1110  176.7030  147.6030 C   0  0  0  0  0  2  0  0  0  0  0  0
  189.5190  178.9410  148.3290 F   0  0  0  0  0  0  0  0  0  0  0  0
  187.8350  178.0880  145.8520 C   0  0  1  0  0  3  0  0  0  0  0  0
  187.2260  178.2690  148.2940 C   0  0  0  0  0  2  0  0  0  0  0  0
  188.9410  177.0510  146.1140 C   0  0  0  0  0  2  0  0  0  0  0  0
  188.2710  177.9800  143.3790 C   0  0  0  0  0  3  0  0  0  0  0  0
  187.3380  178.0580  144.4230 C   0  0  0  0  0  0  0  0  0  0  0  0
  184.9380  178.3360  145.2160 C   0  0  0  0  0  2  0  0  0  0  0  0
  185.5590  178.2910  142.7680 C   0  0  0  0  0  0  0  0  0  0  0  0
  186.5060  178.1830  141.7460 C   0  0  0  0  0  3  0  0  0  0  0  0
  185.5360  178.8260  146.5280 C   0  0  0  0  0  2  0  0  0  0  0  0
  188.8600  177.9320  140.9640 C   0  0  0  0  0  0  0  0  0  0  0  0
  189.9910  177.4220  141.1920 O   0  0  0  0  0  0  0  0  0  0  0  0
  188.5430  178.4020  139.6870 O   0  0  0  0  0  0  0  0  0  0  0  0
  189.4930  178.4110  138.6320 C   0  0  0  0  0  2  0  0  0  0  0  0
  187.7270  176.8480  137.8200 C   0  0  0  0  0  2  0  0  0  0  0  0
  190.1600  176.1480  137.8590 C   0  0  0  0  0  2  0  0  0  0  0  0
  189.0830  174.8830  135.6790 C   0  0  2  0  0  3  0  0  0  0  0  0
  189.1790  177.3000  137.6490 C   0  0  2  0  0  3  0  0  0  0  0  0
  187.3560  175.7360  136.8430 C   0  0  0  0  0  2  0  0  0  0  0  0
  190.1500  175.0470  136.7770 C   0  0  1  0  0  0  0  0  0  0  0  0
  190.4320  175.5310  135.3750 C   0  0  0  0  0  2  0  0  0  0  0  0
  188.0950  175.8810  135.6630 O   0  0  0  0  0  0  0  0  0  0  0  0
  190.8820  173.8890  137.0690 O   0  0  0  0  0  0  0  0  0  0  0  0
  191.7730  174.2520  137.9720 O   0  0  0  0  0  0  0  0  0  0  0  0
  193.0110  174.0150  137.3700 C   0  0  0  0  0  2  0  0  0  0  0  0
  194.1160  174.7660  138.1200 C   0  0  0  0  0  2  0  0  0  0  0  0
  195.0730  172.7270  138.5710 O   0  0  0  0  0  1  0  0  0  0  0  0
  196.1650  174.5670  139.3240 C   0  0  0  0  0  1  0  0  0  0  0  0
  195.3660  174.0080  138.2430 N   0  0  0  0  0  0  0  0  0  0  0  0
  184.1170  178.4400  142.3900 C   0  0  0  0  0  2  0  0  0  0  0  0
  183.5060  179.4000  138.7520 C   0  0  0  0  0  2  0  0  0  0  0  0
  181.9980  179.5260  139.0070 C   0  0  2  0  0  3  0  0  0  0  0  0
  182.4590  177.6710  140.6820 C   0  0  0  0  0  2  0  0  0  0  0  0
  184.2830  179.3730  140.0640 C   0  0  0  0  0  2  0  0  0  0  0  0
  183.9020  178.1470  140.9120 C   0  0  1  0  0  3  0  0  0  0  0  0
  181.5360  178.8270  140.2980 C   0  0  0  0  0  2  0  0  0  0  0  0
  181.8200  177.7340  137.3680 N   0  0  0  0  0  1  0  0  0  0  0  0
  181.2400  178.9900  137.8050 C   0  0  0  0  0  2  0  0  0  0  0  0
  1  6  1  6  0  0  0
  2 11  1  0  0  0  0
  2 12  1  0  0  0  0
  3 10  1  0  0  0  0
  4 15  1  6  0  0  0
  4  8  1  0  0  0  0
  5  1  1  0  0  0  0
  7  9  1  6  0  0  0
  7  4  1  0  0  0  0
  8  1  1  0  0  0  0
  9  5  1  0  0  0  0
 10 11  2  0  0  0  0
 11  7  1  0  0  0  0
 12 15  1  0  0  0  0
 13  2  2  0  0  0  0
 14  3  2  0  0  0  0
 14 13  1  0  0  0  0
 16 17  2  0  0  0  0
 16  3  1  0  0  0  0
 18 16  1  0  0  0  0
 19 18  1  0  0  0  0
 22 26  1  6  0  0  0
 22 25  1  0  0  0  0
 23 20  1  0  0  0  0
 23 21  1  0  0  0  0
 23 19  1  1  0  0  0
 24 20  1  0  0  0  0
 25 28  1  1  0  0  0
 25 21  1  0  0  0  0
 26 25  1  0  0  0  0
 27 22  1  0  0  0  0
 27 24  1  0  0  0  0
 28 29  1  0  0  0  0
 30 29  1  0  0  0  0
 30 31  1  0  0  0  0
 31 34  1  0  0  0  0
 34 32  1  0  0  0  0
 34 33  1  0  0  0  0
 35 13  1  0  0  0  0
 36 37  1  0  0  0  0
 36 39  1  0  0  0  0
 37 43  1  6  0  0  0
 37 41  1  0  0  0  0
 38 40  1  0  0  0  0
 39 40  1  0  0  0  0
 40 35  1  1  0  0  0
 41 38  1  0  0  0  0
 42 43  1  0  0  0  0
M  END
>  <MODEL>
5

>  <REMARK>
 VINA RESULT:      -8.4      2.971      3.858
  Name = 
  12 active torsions:
  status: ('A' for Active; 'I' for Inactive)
    1  A    between atoms: C_1  and  C_34
    2  A    between atoms: C_1  and  C_35
    3  A    between atoms: C_2  and  O_6
    4  A    between atoms: C_2  and  C_13
    5  A    between atoms: O_6  and  C_17
    6  A    between atoms: O_11  and  O_14
    7  A    between atoms: O_11  and  C_36
    8  A    between atoms: C_12  and  C_17
    9  A    between atoms: O_14  and  C_22
   10  A    between atoms: C_19  and  C_37
   11  A    between atoms: N_31  and  C_40
   12  A    between atoms: C_36  and  C_40
                            x       y       z     vdW  Elec       q    Type
                         _______ _______ _______ _____ _____    ______ ____

>  <TORSDO>
F 12

$$$$
=
 OpenBabel11052416373D

 43 48  0  0  1  0  0  0  0  0999 V2000
  190.3980  176.7250  147.5930 C   0  0  1  0  0  3  0  0  0  0  0  0
  188.8650  177.9780  142.7910 C   0  0  0  0  0  0  0  0  0  0  0  0
  186.0570  178.1690  142.9260 C   0  0  0  0  0  0  0  0  0  0  0  0
  190.4630  177.4850  145.1430 C   0  0  1  0  0  3  0  0  0  0  0  0
  189.4290  177.9070  147.7000 C   0  0  0  0  0  2  0  0  0  0  0  0
  189.7020  175.5360  147.7070 F   0  0  0  0  0  0  0  0  0  0  0  0
  188.9460  177.2940  145.2500 C   0  0  1  0  0  3  0  0  0  0  0  0
  191.1850  176.7420  146.2730 C   0  0  0  0  0  2  0  0  0  0  0  0
  188.4180  177.9450  146.5410 C   0  0  0  0  0  2  0  0  0  0  0  0
  186.7960  177.8270  144.0620 C   0  0  0  0  0  3  0  0  0  0  0  0
  188.1960  177.7550  144.0190 C   0  0  0  0  0  0  0  0  0  0  0  0
  190.3710  177.9100  142.7110 C   0  0  0  0  0  2  0  0  0  0  0  0
  188.1180  178.3320  141.6480 C   0  0  0  0  0  0  0  0  0  0  0  0
  186.7260  178.4230  141.7250 C   0  0  0  0  0  3  0  0  0  0  0  0
  190.9650  177.0140  143.7900 C   0  0  0  0  0  2  0  0  0  0  0  0
  184.5900  178.2520  142.9980 C   0  0  0  0  0  0  0  0  0  0  0  0
  184.0270  178.5810  144.0790 O   0  0  0  0  0  0  0  0  0  0  0  0
  183.8260  177.9700  141.8630 O   0  0  0  0  0  0  0  0  0  0  0  0
  182.5990  178.6350  141.5970 C   0  0  0  0  0  2  0  0  0  0  0  0
  182.7810  176.8560  139.8570 C   0  0  0  0  0  2  0  0  0  0  0  0
  181.7640  179.1100  139.3080 C   0  0  0  0  0  2  0  0  0  0  0  0
  180.3970  177.3090  137.7600 C   0  0  2  0  0  3  0  0  0  0  0  0
  181.9420  178.0290  140.3720 C   0  0  2  0  0  3  0  0  0  0  0  0
  182.1540  176.2030  138.6280 C   0  0  0  0  0  2  0  0  0  0  0  0
  180.8810  178.7300  138.1000 C   0  0  1  0  0  0  0  0  0  0  0  0
  179.4730  178.3100  138.4500 C   0  0  0  0  0  2  0  0  0  0  0  0
  180.7610  176.3220  138.6920 O   0  0  0  0  0  0  0  0  0  0  0  0
  180.8880  179.6270  137.0240 O   0  0  0  0  0  0  0  0  0  0  0  0
  181.3690  180.7550  137.5080 O   0  0  0  0  0  0  0  0  0  0  0  0
  180.7530  181.7590  136.7560 C   0  0  0  0  0  2  0  0  0  0  0  0
  180.5230  183.0030  137.6220 C   0  0  0  0  0  2  0  0  0  0  0  0
  181.9320  184.7720  137.2180 O   0  0  0  0  0  1  0  0  0  0  0  0
  179.7130  185.2260  137.3370 C   0  0  0  0  0  1  0  0  0  0  0  0
  180.7160  184.2660  136.9020 N   0  0  0  0  0  0  0  0  0  0  0  0
  188.7810  178.6280  140.3380 C   0  0  0  0  0  2  0  0  0  0  0  0
  189.9160  176.3100  137.5330 C   0  0  0  0  0  2  0  0  0  0  0  0
  189.5070  177.3420  136.4740 C   0  0  2  0  0  3  0  0  0  0  0  0
  187.7200  177.9090  138.1910 C   0  0  0  0  0  2  0  0  0  0  0  0
  189.9890  176.9460  138.9180 C   0  0  0  0  0  2  0  0  0  0  0  0
  188.6130  177.4730  139.3620 C   0  0  1  0  0  3  0  0  0  0  0  0
  188.5450  178.4180  137.0090 C   0  0  0  0  0  2  0  0  0  0  0  0
  188.3370  175.3510  135.6990 N   0  0  0  0  0  1  0  0  0  0  0  0
  188.8990  176.6230  135.2820 C   0  0  0  0  0  2  0  0  0  0  0  0
  1  5  1  0  0  0  0
  1  6  1  6  0  0  0
  2 11  1  0  0  0  0
  3 16  1  0  0  0  0
  3 10  1  0  0  0  0
  4 15  1  6  0  0  0
  4  7  1  0  0  0  0
  4  8  1  0  0  0  0
  7  9  1  1  0  0  0
  8  1  1  0  0  0  0
  9  5  1  0  0  0  0
 11 10  2  0  0  0  0
 11  7  1  0  0  0  0
 12  2  1  0  0  0  0
 12 15  1  0  0  0  0
 13 14  1  0  0  0  0
 13  2  2  0  0  0  0
 14  3  2  0  0  0  0
 16 17  2  0  0  0  0
 18 16  1  0  0  0  0
 19 18  1  0  0  0  0
 20 23  1  0  0  0  0
 21 23  1  0  0  0  0
 22 25  1  0  0  0  0
 22 26  1  1  0  0  0
 22 27  1  0  0  0  0
 23 19  1  1  0  0  0
 24 27  1  0  0  0  0
 24 20  1  0  0  0  0
 25 28  1  6  0  0  0
 25 26  1  0  0  0  0
 25 21  1  0  0  0  0
 28 29  1  0  0  0  0
 30 29  1  0  0  0  0
 30 31  1  0  0  0  0
 34 32  1  0  0  0  0
 34 33  1  0  0  0  0
 34 31  1  0  0  0  0
 35 13  1  0  0  0  0
 36 39  1  0  0  0  0
 37 43  1  6  0  0  0
 37 41  1  0  0  0  0
 37 36  1  0  0  0  0
 38 40  1  0  0  0  0
 39 40  1  0  0  0  0
 40 35  1  1  0  0  0
 41 38  1  0  0  0  0
 43 42  1  0  0  0  0
M  END
>  <MODEL>
6

>  <REMARK>
 VINA RESULT:      -8.3      3.223      6.832
  Name = 
  12 active torsions:
  status: ('A' for Active; 'I' for Inactive)
    1  A    between atoms: C_1  and  C_34
    2  A    between atoms: C_1  and  C_35
    3  A    between atoms: C_2  and  O_6
    4  A    between atoms: C_2  and  C_13
    5  A    between atoms: O_6  and  C_17
    6  A    between atoms: O_11  and  O_14
    7  A    between atoms: O_11  and  C_36
    8  A    between atoms: C_12  and  C_17
    9  A    between atoms: O_14  and  C_22
   10  A    between atoms: C_19  and  C_37
   11  A    between atoms: N_31  and  C_40
   12  A    between atoms: C_36  and  C_40
                            x       y       z     vdW  Elec       q    Type
                         _______ _______ _______ _____ _____    ______ ____

>  <TORSDO>
F 12

$$$$
=
 OpenBabel11052416373D

 43 48  0  0  1  0  0  0  0  0999 V2000
  180.1640  178.6060  140.5530 C   0  0  1  0  0  3  0  0  0  0  0  0
  184.2740  178.7740  143.7250 C   0  0  0  0  0  0  0  0  0  0  0  0
  186.5140  178.3240  142.0750 C   0  0  0  0  0  0  0  0  0  0  0  0
  181.6120  179.0050  142.6330 C   0  0  1  0  0  3  0  0  0  0  0  0
  181.2090  179.5330  139.9230 C   0  0  0  0  0  2  0  0  0  0  0  0
  180.3400  177.3160  140.0870 F   0  0  0  0  0  0  0  0  0  0  0  0
  182.7240  178.4830  141.7160 C   0  0  1  0  0  3  0  0  0  0  0  0
  180.2330  178.6180  142.0880 C   0  0  0  0  0  2  0  0  0  0  0  0
  182.6440  179.1700  140.3410 C   0  0  0  0  0  2  0  0  0  0  0  0
  185.2260  178.3270  141.5310 C   0  0  0  0  0  3  0  0  0  0  0  0
  184.1030  178.5780  142.3320 C   0  0  0  0  0  0  0  0  0  0  0  0
  183.0860  179.0480  144.6150 C   0  0  0  0  0  2  0  0  0  0  0  0
  185.5740  178.7790  144.2700 C   0  0  0  0  0  0  0  0  0  0  0  0
  186.6790  178.5540  143.4450 C   0  0  0  0  0  3  0  0  0  0  0  0
  181.7950  178.4770  144.0440 C   0  0  0  0  0  2  0  0  0  0  0  0
  187.6780  178.0730  141.2120 C   0  0  0  0  0  0  0  0  0  0  0  0
  188.6320  177.3580  141.6270 O   0  0  0  0  0  0  0  0  0  0  0  0
  187.7180  178.6270  139.9300 O   0  0  0  0  0  0  0  0  0  0  0  0
  188.8340  178.4520  139.0690 C   0  0  0  0  0  2  0  0  0  0  0  0
  189.0530  178.2670  136.5910 C   0  0  0  0  0  2  0  0  0  0  0  0
  186.8940  177.6340  137.7530 C   0  0  0  0  0  2  0  0  0  0  0  0
  187.0860  175.9270  135.6180 C   0  0  2  0  0  3  0  0  0  0  0  0
  188.4180  177.6600  137.8440 C   0  0  2  0  0  3  0  0  0  0  0  0
  188.6730  177.4970  135.3290 C   0  0  0  0  0  2  0  0  0  0  0  0
  186.2950  176.6590  136.7170 C   0  0  1  0  0  0  0  0  0  0  0  0
  186.6860  175.2120  136.9070 C   0  0  0  0  0  2  0  0  0  0  0  0
  188.4740  176.1470  135.6440 O   0  0  0  0  0  0  0  0  0  0  0  0
  184.9210  176.7840  136.4750 O   0  0  0  0  0  0  0  0  0  0  0  0
  184.3910  177.1520  137.6250 O   0  0  0  0  0  0  0  0  0  0  0  0
  183.0230  176.9000  137.4860 C   0  0  0  0  0  2  0  0  0  0  0  0
  182.6400  175.6280  138.2490 C   0  0  0  0  0  2  0  0  0  0  0  0
  183.0170  173.6060  137.2260 O   0  0  0  0  0  1  0  0  0  0  0  0
  181.7800  175.1250  136.0830 C   0  0  0  0  0  1  0  0  0  0  0  0
  182.0840  174.5730  137.3940 N   0  0  0  0  0  0  0  0  0  0  0  0
  185.8130  179.0320  145.7270 C   0  0  0  0  0  2  0  0  0  0  0  0
  188.2320  177.3840  148.1690 C   0  0  0  0  0  2  0  0  0  0  0  0
  189.4010  177.5910  147.1980 C   0  0  2  0  0  3  0  0  0  0  0  0
  187.5770  177.2810  145.4540 C   0  0  0  0  0  2  0  0  0  0  0  0
  187.0340  178.2410  147.7750 C   0  0  0  0  0  2  0  0  0  0  0  0
  186.4960  177.8440  146.3880 C   0  0  1  0  0  3  0  0  0  0  0  0
  188.9520  177.8780  145.7530 C   0  0  0  0  0  2  0  0  0  0  0  0
  191.6990  176.7890  147.1230 N   0  0  0  0  0  1  0  0  0  0  0  0
  190.3120  176.3770  147.2450 C   0  0  0  0  0  2  0  0  0  0  0  0
  1  6  1  6  0  0  0
  1  8  1  0  0  0  0
  2 13  1  0  0  0  0
  2 12  1  0  0  0  0
  3 14  1  0  0  0  0
  4  8  1  6  0  0  0
  4 15  1  0  0  0  0
  5  9  1  0  0  0  0
  5  1  1  0  0  0  0
  7  9  1  6  0  0  0
  7 11  1  0  0  0  0
  7  4  1  0  0  0  0
 10  3  2  0  0  0  0
 10 11  1  0  0  0  0
 11  2  2  0  0  0  0
 13 35  1  0  0  0  0
 14 13  2  0  0  0  0
 15 12  1  0  0  0  0
 16 17  2  0  0  0  0
 16  3  1  0  0  0  0
 18 16  1  0  0  0  0
 19 18  1  0  0  0  0
 20 23  1  0  0  0  0
 21 23  1  0  0  0  0
 22 27  1  0  0  0  0
 22 25  1  0  0  0  0
 22 26  1  1  0  0  0
 23 19  1  1  0  0  0
 24 27  1  0  0  0  0
 24 20  1  0  0  0  0
 25 28  1  6  0  0  0
 25 26  1  0  0  0  0
 25 21  1  0  0  0  0
 28 29  1  0  0  0  0
 30 29  1  0  0  0  0
 30 31  1  0  0  0  0
 32 34  1  0  0  0  0
 33 34  1  0  0  0  0
 34 31  1  0  0  0  0
 37 43  1  6  0  0  0
 37 36  1  0  0  0  0
 38 41  1  0  0  0  0
 38 40  1  0  0  0  0
 39 36  1  0  0  0  0
 40 35  1  6  0  0  0
 40 39  1  0  0  0  0
 41 37  1  0  0  0  0
 42 43  1  0  0  0  0
M  END
>  <MODEL>
7

>  <REMARK>
 VINA RESULT:      -8.2      3.184      6.409
  Name = 
  12 active torsions:
  status: ('A' for Active; 'I' for Inactive)
    1  A    between atoms: C_1  and  C_34
    2  A    between atoms: C_1  and  C_35
    3  A    between atoms: C_2  and  O_6
    4  A    between atoms: C_2  and  C_13
    5  A    between atoms: O_6  and  C_17
    6  A    between atoms: O_11  and  O_14
    7  A    between atoms: O_11  and  C_36
    8  A    between atoms: C_12  and  C_17
    9  A    between atoms: O_14  and  C_22
   10  A    between atoms: C_19  and  C_37
   11  A    between atoms: N_31  and  C_40
   12  A    between atoms: C_36  and  C_40
                            x       y       z     vdW  Elec       q    Type
                         _______ _______ _______ _____ _____    ______ ____

>  <TORSDO>
F 12

$$$$
=
 OpenBabel11052416373D

 43 48  0  0  1  0  0  0  0  0999 V2000
  188.8270  177.9030  148.5610 C   0  0  1  0  0  3  0  0  0  0  0  0
  185.9980  178.2300  144.2160 C   0  0  0  0  0  0  0  0  0  0  0  0
  187.8480  178.0330  142.1000 C   0  0  0  0  0  0  0  0  0  0  0  0
  186.8130  177.9480  146.9710 C   0  0  1  0  0  3  0  0  0  0  0  0
  189.2470  176.7560  147.6360 C   0  0  0  0  0  2  0  0  0  0  0  0
  189.6340  179.0030  148.3410 F   0  0  0  0  0  0  0  0  0  0  0  0
  187.9070  178.1100  145.9090 C   0  0  1  0  0  3  0  0  0  0  0  0
  187.3530  178.2930  148.3630 C   0  0  0  0  0  2  0  0  0  0  0  0
  189.0360  177.0930  146.1500 C   0  0  0  0  0  2  0  0  0  0  0  0
  188.2870  177.9960  143.4270 C   0  0  0  0  0  3  0  0  0  0  0  0
  187.3770  178.0640  144.4920 C   0  0  0  0  0  0  0  0  0  0  0  0
  184.9920  178.3060  145.3400 C   0  0  0  0  0  2  0  0  0  0  0  0
  185.5560  178.2590  142.8780 C   0  0  0  0  0  0  0  0  0  0  0  0
  186.4810  178.1610  141.8350 C   0  0  0  0  0  3  0  0  0  0  0  0
  185.6130  178.8130  146.6350 C   0  0  0  0  0  2  0  0  0  0  0  0
  188.8200  177.9450  140.9990 C   0  0  0  0  0  0  0  0  0  0  0  0
  189.9870  177.5170  141.2180 O   0  0  0  0  0  0  0  0  0  0  0  0
  188.4410  178.3340  139.7110 O   0  0  0  0  0  0  0  0  0  0  0  0
  189.3410  178.2800  138.6140 C   0  0  0  0  0  2  0  0  0  0  0  0
  189.2720  177.9010  136.1490 C   0  0  0  0  0  2  0  0  0  0  0  0
  187.2260  177.4870  137.5820 C   0  0  0  0  0  2  0  0  0  0  0  0
  187.0910  175.6200  135.5810 C   0  0  2  0  0  3  0  0  0  0  0  0
  188.7500  177.4270  137.5080 C   0  0  2  0  0  3  0  0  0  0  0  0
  188.7150  177.0650  135.0000 C   0  0  0  0  0  2  0  0  0  0  0  0
  186.4660  176.4760  136.6970 C   0  0  1  0  0  0  0  0  0  0  0  0
  186.7990  175.0260  136.9580 C   0  0  0  0  0  2  0  0  0  0  0  0
  188.4820  175.7570  135.4410 O   0  0  0  0  0  0  0  0  0  0  0  0
  185.0820  176.6660  136.5930 O   0  0  0  0  0  0  0  0  0  0  0  0
  184.5410  175.7720  137.3990 O   0  0  0  0  0  0  0  0  0  0  0  0
  183.2540  176.2530  137.6550 C   0  0  0  0  0  2  0  0  0  0  0  0
  182.2120  175.1890  137.2960 C   0  0  0  0  0  2  0  0  0  0  0  0
  180.8050  173.6290  138.2270 O   0  0  0  0  0  1  0  0  0  0  0  0
  180.1400  175.7960  138.3080 C   0  0  0  0  0  1  0  0  0  0  0  0
  181.2760  174.8890  138.3850 N   0  0  0  0  0  0  0  0  0  0  0  0
  184.1030  178.3820  142.5330 C   0  0  0  0  0  2  0  0  0  0  0  0
  183.6140  179.5000  138.9220 C   0  0  0  0  0  2  0  0  0  0  0  0
  182.1260  179.7710  139.1760 C   0  0  2  0  0  3  0  0  0  0  0  0
  182.3870  177.8320  140.7990 C   0  0  0  0  0  2  0  0  0  0  0  0
  184.3770  179.3580  140.2360 C   0  0  0  0  0  2  0  0  0  0  0  0
  183.8690  178.1530  141.0470 C   0  0  1  0  0  3  0  0  0  0  0  0
  181.5870  179.0860  140.4450 C   0  0  0  0  0  2  0  0  0  0  0  0
  180.3760  180.3870  137.5980 N   0  0  0  0  0  1  0  0  0  0  0  0
  181.3240  179.3480  137.9570 C   0  0  0  0  0  2  0  0  0  0  0  0
  1  6  1  6  0  0  0
  2 11  1  0  0  0  0
  2 12  1  0  0  0  0
  3 10  1  0  0  0  0
  4 15  1  6  0  0  0
  4  8  1  0  0  0  0
  5  1  1  0  0  0  0
  7  9  1  6  0  0  0
  7  4  1  0  0  0  0
  8  1  1  0  0  0  0
  9  5  1  0  0  0  0
 10 11  2  0  0  0  0
 11  7  1  0  0  0  0
 12 15  1  0  0  0  0
 13  2  2  0  0  0  0
 14  3  2  0  0  0  0
 14 13  1  0  0  0  0
 16 17  2  0  0  0  0
 16  3  1  0  0  0  0
 18 16  1  0  0  0  0
 19 18  1  0  0  0  0
 20 23  1  0  0  0  0
 22 25  1  0  0  0  0
 22 26  1  1  0  0  0
 23 21  1  0  0  0  0
 23 19  1  1  0  0  0
 24 27  1  0  0  0  0
 24 20  1  0  0  0  0
 25 28  1  6  0  0  0
 25 26  1  0  0  0  0
 25 21  1  0  0  0  0
 27 22  1  0  0  0  0
 28 29  1  0  0  0  0
 29 30  1  0  0  0  0
 31 30  1  0  0  0  0
 31 34  1  0  0  0  0
 32 34  1  0  0  0  0
 33 34  1  0  0  0  0
 35 13  1  0  0  0  0
 36 37  1  0  0  0  0
 36 39  1  0  0  0  0
 37 43  1  6  0  0  0
 37 41  1  0  0  0  0
 38 40  1  0  0  0  0
 39 40  1  0  0  0  0
 40 35  1  1  0  0  0
 41 38  1  0  0  0  0
 42 43  1  0  0  0  0
M  END
>  <MODEL>
8

>  <REMARK>
 VINA RESULT:      -8.0      1.444      1.987
  Name = 
  12 active torsions:
  status: ('A' for Active; 'I' for Inactive)
    1  A    between atoms: C_1  and  C_34
    2  A    between atoms: C_1  and  C_35
    3  A    between atoms: C_2  and  O_6
    4  A    between atoms: C_2  and  C_13
    5  A    between atoms: O_6  and  C_17
    6  A    between atoms: O_11  and  O_14
    7  A    between atoms: O_11  and  C_36
    8  A    between atoms: C_12  and  C_17
    9  A    between atoms: O_14  and  C_22
   10  A    between atoms: C_19  and  C_37
   11  A    between atoms: N_31  and  C_40
   12  A    between atoms: C_36  and  C_40
                            x       y       z     vdW  Elec       q    Type
                         _______ _______ _______ _____ _____    ______ ____

>  <TORSDO>
F 12

$$$$
=
 OpenBabel11052416373D

 43 48  0  0  1  0  0  0  0  0999 V2000
  188.5960  177.0550  148.0710 C   0  0  1  0  0  3  0  0  0  0  0  0
  188.1690  178.0810  142.9970 C   0  0  0  0  0  0  0  0  0  0  0  0
  185.4040  178.3190  142.5100 C   0  0  0  0  0  0  0  0  0  0  0  0
  189.2090  177.6860  145.6600 C   0  0  1  0  0  3  0  0  0  0  0  0
  187.6570  178.2540  147.9090 C   0  0  0  0  0  2  0  0  0  0  0  0
  187.8620  175.8830  148.0870 F   0  0  0  0  0  0  0  0  0  0  0  0
  187.6990  177.5230  145.4450 C   0  0  1  0  0  3  0  0  0  0  0  0
  189.6500  176.9920  146.9530 C   0  0  0  0  0  2  0  0  0  0  0  0
  186.9220  178.2470  146.5580 C   0  0  0  0  0  2  0  0  0  0  0  0
  185.8710  178.0250  143.7940 C   0  0  0  0  0  3  0  0  0  0  0  0
  187.2450  177.9310  144.0600 C   0  0  0  0  0  0  0  0  0  0  0  0
  189.6550  177.9870  143.2490 C   0  0  0  0  0  2  0  0  0  0  0  0
  187.6960  178.3860  141.7040 C   0  0  0  0  0  0  0  0  0  0  0  0
  186.3230  178.5020  141.4720 C   0  0  0  0  0  3  0  0  0  0  0  0
  189.9780  177.1390  144.4720 C   0  0  0  0  0  2  0  0  0  0  0  0
  183.9580  178.4270  142.2580 C   0  0  0  0  0  0  0  0  0  0  0  0
  183.1510  178.4970  143.2260 O   0  0  0  0  0  0  0  0  0  0  0  0
  183.4880  178.4580  140.9430 O   0  0  0  0  0  0  0  0  0  0  0  0
  182.7100  177.4010  140.3980 C   0  0  0  0  0  2  0  0  0  0  0  0
  182.1780  177.8670  138.0060 C   0  0  0  0  0  2  0  0  0  0  0  0
  183.1540  175.6380  138.7070 C   0  0  0  0  0  2  0  0  0  0  0  0
  184.1790  176.1170  136.2110 C   0  0  2  0  0  3  0  0  0  0  0  0
  183.1280  177.1430  138.9630 C   0  0  2  0  0  3  0  0  0  0  0  0
  182.5640  177.6480  136.5450 C   0  0  0  0  0  2  0  0  0  0  0  0
  183.8050  175.1900  137.3810 C   0  0  1  0  0  0  0  0  0  0  0  0
  185.2390  175.6280  137.1970 C   0  0  0  0  0  2  0  0  0  0  0  0
  183.9500  177.4840  136.4450 O   0  0  0  0  0  0  0  0  0  0  0  0
  183.6410  173.8410  137.0390 O   0  0  0  0  0  0  0  0  0  0  0  0
  182.3620  173.5820  137.2260 O   0  0  0  0  0  0  0  0  0  0  0  0
  182.2130  172.2380  136.8730 C   0  0  0  0  0  2  0  0  0  0  0  0
  181.1620  172.0950  135.7670 C   0  0  0  0  0  2  0  0  0  0  0  0
  179.8310  171.8460  137.6230 O   0  0  0  0  0  1  0  0  0  0  0  0
  179.2550  170.6640  135.7750 C   0  0  0  0  0  1  0  0  0  0  0  0
  179.7950  171.9200  136.2710 N   0  0  0  0  0  0  0  0  0  0  0  0
  188.6340  178.6050  140.5570 C   0  0  0  0  0  2  0  0  0  0  0  0
  190.5070  176.0440  138.4440 C   0  0  0  0  0  2  0  0  0  0  0  0
  190.4450  176.9650  137.2190 C   0  0  2  0  0  3  0  0  0  0  0  0
  188.2410  177.6700  138.2700 C   0  0  0  0  0  2  0  0  0  0  0  0
  190.1790  176.8100  139.7220 C   0  0  0  0  0  2  0  0  0  0  0  0
  188.7420  177.3600  139.6890 C   0  0  1  0  0  3  0  0  0  0  0  0
  189.3850  178.0750  137.3410 C   0  0  0  0  0  2  0  0  0  0  0  0
  189.6700  176.9590  134.9100 N   0  0  0  0  0  1  0  0  0  0  0  0
  190.2040  176.1280  135.9740 C   0  0  0  0  0  2  0  0  0  0  0  0
  1  6  1  6  0  0  0
  2 12  1  0  0  0  0
  2 11  1  0  0  0  0
  3 10  1  0  0  0  0
  4 15  1  6  0  0  0
  4  8  1  0  0  0  0
  5  1  1  0  0  0  0
  7  4  1  0  0  0  0
  7  9  1  1  0  0  0
  8  1  1  0  0  0  0
  9  5  1  0  0  0  0
 10 11  2  0  0  0  0
 11  7  1  0  0  0  0
 12 15  1  0  0  0  0
 13  2  2  0  0  0  0
 14 13  1  0  0  0  0
 14  3  2  0  0  0  0
 16  3  1  0  0  0  0
 16 17  2  0  0  0  0
 18 16  1  0  0  0  0
 19 18  1  0  0  0  0
 20 23  1  0  0  0  0
 21 23  1  0  0  0  0
 22 27  1  0  0  0  0
 22 26  1  1  0  0  0
 22 25  1  0  0  0  0
 23 19  1  1  0  0  0
 24 20  1  0  0  0  0
 25 28  1  6  0  0  0
 25 21  1  0  0  0  0
 26 25  1  0  0  0  0
 27 24  1  0  0  0  0
 28 29  1  0  0  0  0
 30 29  1  0  0  0  0
 31 34  1  0  0  0  0
 31 30  1  0  0  0  0
 33 34  1  0  0  0  0
 34 32  1  0  0  0  0
 35 13  1  0  0  0  0
 36 39  1  0  0  0  0
 37 43  1  6  0  0  0
 37 41  1  0  0  0  0
 37 36  1  0  0  0  0
 38 40  1  0  0  0  0
 40 39  1  0  0  0  0
 40 35  1  1  0  0  0
 41 38  1  0  0  0  0
 42 43  1  0  0  0  0
M  END
>  <MODEL>
9

>  <REMARK>
 VINA RESULT:      -7.9      2.628      4.967
  Name = 
  12 active torsions:
  status: ('A' for Active; 'I' for Inactive)
    1  A    between atoms: C_1  and  C_34
    2  A    between atoms: C_1  and  C_35
    3  A    between atoms: C_2  and  O_6
    4  A    between atoms: C_2  and  C_13
    5  A    between atoms: O_6  and  C_17
    6  A    between atoms: O_11  and  O_14
    7  A    between atoms: O_11  and  C_36
    8  A    between atoms: C_12  and  C_17
    9  A    between atoms: O_14  and  C_22
   10  A    between atoms: C_19  and  C_37
   11  A    between atoms: N_31  and  C_40
   12  A    between atoms: C_36  and  C_40
                            x       y       z     vdW  Elec       q    Type
                         _______ _______ _______ _____ _____    ______ ____

>  <TORSDO>
F 12

$$$$
