=
 OpenBabel11052415173D

 37 41  0  0  1  0  0  0  0  0999 V2000
  185.0710  178.3150  142.6240 C   0  0  0  0  0  0  0  0  0  0  0  0
  182.7910  179.0010  143.2510 C   0  0  0  0  0  2  0  0  0  0  0  0
  184.8130  178.3210  141.1430 C   0  0  2  0  0  3  0  0  0  0  0  0
  184.1820  178.5420  143.5330 C   0  0  0  0  0  0  0  0  0  0  0  0
  185.8310  179.0310  140.4860 O   0  0  0  0  0  0  0  0  0  0  0  0
  184.7920  178.4920  144.7970 N   0  0  0  0  0  2  0  0  0  0  0  0
  182.3460  178.5980  141.8350 C   0  0  2  0  0  3  0  0  0  0  0  0
  187.4590  178.8940  142.7990 C   0  0  0  0  0  2  0  0  0  0  0  0
  186.1270  178.2150  144.7000 O   0  0  0  0  0  0  0  0  0  0  0  0
  186.3470  177.9820  143.3130 C   0  0  1  0  0  3  0  0  0  0  0  0
  183.4450  178.9370  140.7880 C   0  0  2  0  0  3  0  0  0  0  0  0
  186.9120  178.1410  140.3910 C   0  0  2  0  0  3  0  0  0  0  0  0
  187.9990  178.4640  141.4270 C   0  0  0  0  0  2  0  0  0  0  0  0
  182.9920  177.0250  139.1360 C   0  0  0  0  0  2  0  0  0  0  0  0
  181.5780  176.4900  139.3110 C   0  0  0  0  0  2  0  0  0  0  0  0
  180.4300  178.0180  137.6180 C   0  0  2  0  0  3  0  0  0  0  0  0
  180.8240  176.5790  137.9860 C   0  0  2  0  0  3  0  0  0  0  0  0
  181.5460  178.8830  137.4890 O   0  0  0  0  0  0  0  0  0  0  0  0
  181.9220  179.3550  138.7630 C   0  0  1  0  0  3  0  0  0  0  0  0
  179.2530  178.5940  138.4140 C   0  0  0  0  0  1  0  0  0  0  0  0
  183.0920  178.5450  139.3390 C   0  0  1  0  0  3  0  0  0  0  0  0
  181.0660  181.6560  138.3610 C   0  0  0  0  0  1  0  0  0  0  0  0
  182.2950  180.8260  138.6720 C   0  0  0  0  0  2  0  0  0  0  0  0
  179.4900  174.8740  138.9490 C   0  0  0  0  0  2  0  0  0  0  0  0
  179.6620  175.7270  138.0060 N   0  0  0  0  0  0  0  0  0  0  0  0
  188.8670  178.2080  138.8380 C   0  0  0  0  0  3  0  0  0  0  0  0
  187.4800  178.1360  139.0100 C   0  0  0  0  0  0  0  0  0  0  0  0
  186.6420  178.0930  137.8840 C   0  0  0  0  0  3  0  0  0  0  0  0
  186.3830  178.0430  135.5150 F   0  0  0  0  0  0  0  0  0  0  0  0
  188.5800  178.1750  136.4340 C   0  0  0  0  0  3  0  0  0  0  0  0
  187.1930  178.1080  136.6000 C   0  0  0  0  0  0  0  0  0  0  0  0
  189.4160  178.2260  137.5520 C   0  0  0  0  0  3  0  0  0  0  0  0
  181.0420  179.3270  141.5250 C   0  0  0  0  0  2  0  0  0  0  0  0
  179.8770  178.6910  142.2180 C   0  0  0  0  0  0  0  0  0  0  0  0
  179.7070  177.4850  142.1330 O   0  0  0  0  0  0  0  0  0  0  0  0
  178.9310  179.5200  143.0250 C   0  0  0  0  0  2  0  0  0  0  0  0
  179.0140  179.1370  144.4900 C   0  0  0  0  0  1  0  0  0  0  0  0
  1 10  1  0  0  0  0
  1  4  2  0  0  0  0
  2  4  1  0  0  0  0
  3  5  1  6  0  0  0
  3  1  1  0  0  0  0
  4  6  1  0  0  0  0
  7 33  1  6  0  0  0
  7  2  1  0  0  0  0
  9  6  1  0  0  0  0
 10  8  1  6  0  0  0
 10  9  1  0  0  0  0
 11 21  1  6  0  0  0
 11  3  1  0  0  0  0
 11  7  1  0  0  0  0
 12 27  1  6  0  0  0
 12  5  1  0  0  0  0
 12 13  1  0  0  0  0
 13  8  1  0  0  0  0
 14 15  1  0  0  0  0
 16 17  1  0  0  0  0
 16 20  1  1  0  0  0
 17 25  1  1  0  0  0
 17 15  1  0  0  0  0
 18 16  1  0  0  0  0
 18 19  1  0  0  0  0
 19 23  1  6  0  0  0
 19 21  1  0  0  0  0
 21 14  1  1  0  0  0
 22 23  1  0  0  0  0
 25 24  2  0  0  0  0
 26 27  1  0  0  0  0
 28 27  2  0  0  0  0
 29 31  1  0  0  0  0
 30 31  2  0  0  0  0
 30 32  1  0  0  0  0
 31 28  1  0  0  0  0
 32 26  2  0  0  0  0
 33 34  1  0  0  0  0
 34 36  1  0  0  0  0
 35 34  2  0  0  0  0
 36 37  1  0  0  0  0
M  END
>  <MODEL>
1

>  <REMARK>
 VINA RESULT:      -6.8      0.000      0.000
  Name = 
  7 active torsions:
  status: ('A' for Active; 'I' for Inactive)
    1  A    between atoms: C_3  and  C_21
    2  A    between atoms: C_6  and  C_31
    3  A    between atoms: C_17  and  N_23
    4  A    between atoms: C_20  and  C_25
    5  A    between atoms: C_21  and  C_25
    6  A    between atoms: C_27  and  C_33
    7  A    between atoms: C_29  and  C_36
                            x       y       z     vdW  Elec       q    Type
                         _______ _______ _______ _____ _____    ______ ____

>  <TORSDO>
F 7

$$$$
=
 OpenBabel11052415173D

 37 41  0  0  1  0  0  0  0  0999 V2000
  190.9500  176.8720  139.5790 C   0  0  0  0  0  0  0  0  0  0  0  0
  191.7610  177.8790  141.6740 C   0  0  0  0  0  2  0  0  0  0  0  0
  189.5120  176.7950  140.0120 C   0  0  2  0  0  3  0  0  0  0  0  0
  191.9270  177.2750  140.3200 C   0  0  0  0  0  0  0  0  0  0  0  0
  188.6840  177.3220  139.0080 O   0  0  0  0  0  0  0  0  0  0  0  0
  193.1150  177.2480  139.5710 N   0  0  0  0  0  2  0  0  0  0  0  0
  190.4460  177.4260  142.3300 C   0  0  2  0  0  3  0  0  0  0  0  0
  190.8050  177.1640  137.1370 C   0  0  0  0  0  2  0  0  0  0  0  0
  192.8960  176.8040  138.2980 O   0  0  0  0  0  0  0  0  0  0  0  0
  191.5200  176.4390  138.2750 C   0  0  1  0  0  3  0  0  0  0  0  0
  189.2570  177.5460  141.3350 C   0  0  2  0  0  3  0  0  0  0  0  0
  188.5510  176.3010  138.0540 C   0  0  2  0  0  3  0  0  0  0  0  0
  189.4260  176.5670  136.8190 C   0  0  0  0  0  2  0  0  0  0  0  0
  188.0350  176.2090  143.1540 C   0  0  0  0  0  2  0  0  0  0  0  0
  187.9750  177.0010  144.4520 C   0  0  0  0  0  2  0  0  0  0  0  0
  185.7440  178.1690  144.0290 C   0  0  2  0  0  3  0  0  0  0  0  0
  186.5230  177.1640  144.8920 C   0  0  2  0  0  3  0  0  0  0  0  0
  185.6970  177.8050  142.6600 O   0  0  0  0  0  0  0  0  0  0  0  0
  186.8790  178.2310  142.0210 C   0  0  1  0  0  3  0  0  0  0  0  0
  186.0700  179.6440  144.2960 C   0  0  0  0  0  1  0  0  0  0  0  0
  187.8980  177.0890  141.9020 C   0  0  1  0  0  3  0  0  0  0  0  0
  185.0500  179.0090  140.5250 C   0  0  0  0  0  1  0  0  0  0  0  0
  186.5430  178.7810  140.6430 C   0  0  0  0  0  2  0  0  0  0  0  0
  187.5120  177.5650  147.0080 C   0  0  0  0  0  2  0  0  0  0  0  0
  186.4530  177.5340  146.2840 N   0  0  0  0  0  0  0  0  0  0  0  0
  186.6680  174.8510  137.2850 C   0  0  0  0  0  3  0  0  0  0  0  0
  187.1210  176.1200  137.6610 C   0  0  0  0  0  0  0  0  0  0  0  0
  186.2370  177.2100  137.6320 C   0  0  0  0  0  3  0  0  0  0  0  0
  184.0490  178.0720  137.2380 F   0  0  0  0  0  0  0  0  0  0  0  0
  184.4580  175.7510  136.8740 C   0  0  0  0  0  3  0  0  0  0  0  0
  184.9070  177.0230  137.2430 C   0  0  0  0  0  0  0  0  0  0  0  0
  185.3380  174.6650  136.8940 C   0  0  0  0  0  3  0  0  0  0  0  0
  190.2180  178.2830  143.5710 C   0  0  0  0  0  2  0  0  0  0  0  0
  191.3510  178.1620  144.5410 C   0  0  0  0  0  0  0  0  0  0  0  0
  192.0560  179.1330  144.7710 O   0  0  0  0  0  0  0  0  0  0  0  0
  191.6150  176.8690  145.2420 C   0  0  0  0  0  2  0  0  0  0  0  0
  191.0610  176.9110  146.6520 C   0  0  0  0  0  1  0  0  0  0  0  0
  1  3  1  0  0  0  0
  1  4  2  0  0  0  0
  2  7  1  0  0  0  0
  3  5  1  6  0  0  0
  3 11  1  0  0  0  0
  4  2  1  0  0  0  0
  6  4  1  0  0  0  0
  7 33  1  1  0  0  0
  9  6  1  0  0  0  0
 10  8  1  6  0  0  0
 10  9  1  0  0  0  0
 10  1  1  0  0  0  0
 11 21  1  1  0  0  0
 11  7  1  0  0  0  0
 12 27  1  6  0  0  0
 12  5  1  0  0  0  0
 13  8  1  0  0  0  0
 13 12  1  0  0  0  0
 14 15  1  0  0  0  0
 15 17  1  0  0  0  0
 16 20  1  6  0  0  0
 16 17  1  0  0  0  0
 17 25  1  1  0  0  0
 18 16  1  0  0  0  0
 19 23  1  6  0  0  0
 19 18  1  0  0  0  0
 21 19  1  0  0  0  0
 21 14  1  1  0  0  0
 22 23  1  0  0  0  0
 25 24  2  0  0  0  0
 26 27  1  0  0  0  0
 28 27  2  0  0  0  0
 29 31  1  0  0  0  0
 30 32  1  0  0  0  0
 30 31  2  0  0  0  0
 31 28  1  0  0  0  0
 32 26  2  0  0  0  0
 33 34  1  0  0  0  0
 34 35  2  0  0  0  0
 34 36  1  0  0  0  0
 36 37  1  0  0  0  0
M  END
>  <MODEL>
2

>  <REMARK>
 VINA RESULT:      -6.2      4.016      7.787
  Name = 
  7 active torsions:
  status: ('A' for Active; 'I' for Inactive)
    1  A    between atoms: C_3  and  C_21
    2  A    between atoms: C_6  and  C_31
    3  A    between atoms: C_17  and  N_23
    4  A    between atoms: C_20  and  C_25
    5  A    between atoms: C_21  and  C_25
    6  A    between atoms: C_27  and  C_33
    7  A    between atoms: C_29  and  C_36
                            x       y       z     vdW  Elec       q    Type
                         _______ _______ _______ _____ _____    ______ ____

>  <TORSDO>
F 7

$$$$
=
 OpenBabel11052415173D

 37 41  0  0  1  0  0  0  0  0999 V2000
  187.0930  178.2800  139.4820 C   0  0  0  0  0  0  0  0  0  0  0  0
  186.2630  177.6220  137.2600 C   0  0  0  0  0  2  0  0  0  0  0  0
  185.7330  178.3660  140.1170 C   0  0  2  0  0  3  0  0  0  0  0  0
  187.3160  178.0250  138.2360 C   0  0  0  0  0  0  0  0  0  0  0  0
  185.7300  177.6670  141.3340 O   0  0  0  0  0  0  0  0  0  0  0  0
  188.7030  177.9860  138.0150 N   0  0  0  0  0  2  0  0  0  0  0  0
  184.8750  178.1170  137.6990 C   0  0  2  0  0  3  0  0  0  0  0  0
  188.5620  177.6270  141.3500 C   0  0  0  0  0  2  0  0  0  0  0  0
  189.4020  178.2300  139.1630 O   0  0  0  0  0  0  0  0  0  0  0  0
  188.4060  178.5370  140.1330 C   0  0  1  0  0  3  0  0  0  0  0  0
  184.6230  177.8100  139.2020 C   0  0  2  0  0  3  0  0  0  0  0  0
  186.3250  178.5320  142.2670 C   0  0  2  0  0  3  0  0  0  0  0  0
  187.7730  178.1200  142.5720 C   0  0  0  0  0  2  0  0  0  0  0  0
  183.0740  179.8150  139.6150 C   0  0  0  0  0  2  0  0  0  0  0  0
  182.3830  180.2320  138.3240 C   0  0  0  0  0  2  0  0  0  0  0  0
  180.3030  178.7710  138.5710 C   0  0  2  0  0  3  0  0  0  0  0  0
  180.8690  180.1990  138.5150 C   0  0  2  0  0  3  0  0  0  0  0  0
  180.8450  178.0010  139.6300 O   0  0  0  0  0  0  0  0  0  0  0  0
  182.0800  177.4540  139.2270 C   0  0  1  0  0  3  0  0  0  0  0  0
  180.2250  178.0500  137.2200 C   0  0  0  0  0  1  0  0  0  0  0  0
  183.2600  178.2940  139.7350 C   0  0  1  0  0  3  0  0  0  0  0  0
  180.9110  175.2700  139.4550 C   0  0  0  0  0  1  0  0  0  0  0  0
  182.1940  176.0250  139.7360 C   0  0  0  0  0  2  0  0  0  0  0  0
  180.6820  182.0940  137.1050 C   0  0  0  0  0  2  0  0  0  0  0  0
  180.2110  180.9620  137.4830 N   0  0  0  0  0  0  0  0  0  0  0  0
  184.1650  178.9470  143.4500 C   0  0  0  0  0  3  0  0  0  0  0  0
  185.5180  178.6010  143.5220 C   0  0  0  0  0  0  0  0  0  0  0  0
  186.1070  178.3560  144.7730 C   0  0  0  0  0  3  0  0  0  0  0  0
  185.9030  178.1850  147.1420 F   0  0  0  0  0  0  0  0  0  0  0  0
  183.9850  178.7850  145.8590 C   0  0  0  0  0  3  0  0  0  0  0  0
  185.3390  178.4440  145.9380 C   0  0  0  0  0  0  0  0  0  0  0  0
  183.3980  179.0380  144.6160 C   0  0  0  0  0  3  0  0  0  0  0  0
  183.8320  177.4440  136.8130 C   0  0  0  0  0  2  0  0  0  0  0  0
  184.3040  176.1140  136.3170 C   0  0  0  0  0  0  0  0  0  0  0  0
  184.8880  176.0400  135.2460 O   0  0  0  0  0  0  0  0  0  0  0  0
  184.0800  174.8790  137.1280 C   0  0  0  0  0  2  0  0  0  0  0  0
  185.3710  174.0930  137.2580 C   0  0  0  0  0  1  0  0  0  0  0  0
  1 10  1  0  0  0  0
  2  7  1  0  0  0  0
  2  4  1  0  0  0  0
  3  1  1  6  0  0  0
  3  5  1  0  0  0  0
  4  1  2  0  0  0  0
  5 12  1  0  0  0  0
  6  4  1  0  0  0  0
  6  9  1  0  0  0  0
  7 33  1  6  0  0  0
  7 11  1  0  0  0  0
  8 13  1  0  0  0  0
  9 10  1  0  0  0  0
 10  8  1  1  0  0  0
 11 21  1  1  0  0  0
 11  3  1  0  0  0  0
 12 13  1  0  0  0  0
 12 27  1  1  0  0  0
 15 17  1  0  0  0  0
 15 14  1  0  0  0  0
 16 20  1  6  0  0  0
 16 18  1  0  0  0  0
 17 25  1  6  0  0  0
 17 16  1  0  0  0  0
 19 18  1  0  0  0  0
 19 21  1  0  0  0  0
 19 23  1  1  0  0  0
 21 14  1  6  0  0  0
 22 23  1  0  0  0  0
 24 25  2  0  0  0  0
 26 27  2  0  0  0  0
 26 32  1  0  0  0  0
 27 28  1  0  0  0  0
 28 31  2  0  0  0  0
 30 31  1  0  0  0  0
 31 29  1  0  0  0  0
 32 30  2  0  0  0  0
 34 33  1  0  0  0  0
 34 36  1  0  0  0  0
 35 34  2  0  0  0  0
 36 37  1  0  0  0  0
M  END
>  <MODEL>
3

>  <REMARK>
 VINA RESULT:      -6.2      3.124      6.101
  Name = 
  7 active torsions:
  status: ('A' for Active; 'I' for Inactive)
    1  A    between atoms: C_3  and  C_21
    2  A    between atoms: C_6  and  C_31
    3  A    between atoms: C_17  and  N_23
    4  A    between atoms: C_20  and  C_25
    5  A    between atoms: C_21  and  C_25
    6  A    between atoms: C_27  and  C_33
    7  A    between atoms: C_29  and  C_36
                            x       y       z     vdW  Elec       q    Type
                         _______ _______ _______ _____ _____    ______ ____

>  <TORSDO>
F 7

$$$$
=
 OpenBabel11052415173D

 37 41  0  0  1  0  0  0  0  0999 V2000
  182.0860  178.6120  142.3730 C   0  0  0  0  0  0  0  0  0  0  0  0
  180.3180  178.7810  140.6680 C   0  0  0  0  0  2  0  0  0  0  0  0
  183.1070  178.0050  141.4520 C   0  0  2  0  0  3  0  0  0  0  0  0
  180.8650  178.8830  142.0520 C   0  0  0  0  0  0  0  0  0  0  0  0
  184.3250  178.6920  141.5730 O   0  0  0  0  0  0  0  0  0  0  0  0
  180.2200  179.4760  143.1510 N   0  0  0  0  0  2  0  0  0  0  0  0
  181.1230  177.7810  139.8220 C   0  0  2  0  0  3  0  0  0  0  0  0
  183.4450  179.8850  143.9860 C   0  0  0  0  0  2  0  0  0  0  0  0
  181.0570  179.5860  144.2250 O   0  0  0  0  0  0  0  0  0  0  0  0
  182.2580  178.9400  143.8140 C   0  0  1  0  0  3  0  0  0  0  0  0
  182.6510  178.0220  139.9790 C   0  0  2  0  0  3  0  0  0  0  0  0
  184.9310  178.1850  142.7340 C   0  0  2  0  0  3  0  0  0  0  0  0
  184.8000  179.1640  143.9100 C   0  0  0  0  0  2  0  0  0  0  0  0
  182.9200  175.6460  139.0440 C   0  0  0  0  0  2  0  0  0  0  0  0
  182.1020  175.4750  137.7710 C   0  0  0  0  0  2  0  0  0  0  0  0
  183.9160  176.1680  136.1130 C   0  0  2  0  0  3  0  0  0  0  0  0
  183.0120  175.0360  136.6270 C   0  0  2  0  0  3  0  0  0  0  0  0
  184.7740  176.6910  137.1130 O   0  0  0  0  0  0  0  0  0  0  0  0
  184.0750  177.6480  137.8750 C   0  0  1  0  0  3  0  0  0  0  0  0
  183.2110  177.2210  135.2490 C   0  0  0  0  0  1  0  0  0  0  0  0
  183.5390  177.0460  139.1810 C   0  0  1  0  0  3  0  0  0  0  0  0
  186.4130  178.4940  137.7720 C   0  0  0  0  0  1  0  0  0  0  0  0
  184.9900  178.8250  138.1760 C   0  0  0  0  0  2  0  0  0  0  0  0
  181.0200  174.1150  135.7340 C   0  0  0  0  0  2  0  0  0  0  0  0
  182.2360  174.4800  135.5470 N   0  0  0  0  0  0  0  0  0  0  0  0
  187.0480  177.0410  143.4020 C   0  0  0  0  0  3  0  0  0  0  0  0
  186.3640  177.8450  142.4840 C   0  0  0  0  0  0  0  0  0  0  0  0
  187.0400  178.3480  141.3620 C   0  0  0  0  0  3  0  0  0  0  0  0
  189.0310  178.5010  140.0590 F   0  0  0  0  0  0  0  0  0  0  0  0
  189.0640  177.2250  142.0730 C   0  0  0  0  0  3  0  0  0  0  0  0
  188.3860  178.0340  141.1560 C   0  0  0  0  0  0  0  0  0  0  0  0
  188.3960  176.7300  143.1960 C   0  0  0  0  0  3  0  0  0  0  0  0
  180.6850  177.9320  138.3690 C   0  0  0  0  0  2  0  0  0  0  0  0
  180.3940  179.3600  138.0250 C   0  0  0  0  0  0  0  0  0  0  0  0
  179.2480  179.7770  138.0950 O   0  0  0  0  0  0  0  0  0  0  0  0
  181.4960  180.2810  137.6140 C   0  0  0  0  0  2  0  0  0  0  0  0
  181.4550  181.5530  138.4390 C   0  0  0  0  0  1  0  0  0  0  0  0
  1 10  1  0  0  0  0
  2  4  1  0  0  0  0
  3  5  1  6  0  0  0
  3  1  1  0  0  0  0
  4  1  2  0  0  0  0
  4  6  1  0  0  0  0
  5 12  1  0  0  0  0
  6  9  1  0  0  0  0
  7 33  1  6  0  0  0
  7 11  1  0  0  0  0
  7  2  1  0  0  0  0
 10  8  1  6  0  0  0
 10  9  1  0  0  0  0
 11 21  1  6  0  0  0
 11  3  1  0  0  0  0
 12 27  1  6  0  0  0
 12 13  1  0  0  0  0
 13  8  1  0  0  0  0
 15 14  1  0  0  0  0
 16 20  1  1  0  0  0
 16 17  1  0  0  0  0
 16 18  1  0  0  0  0
 17 25  1  6  0  0  0
 17 15  1  0  0  0  0
 18 19  1  0  0  0  0
 19 23  1  1  0  0  0
 19 21  1  0  0  0  0
 21 14  1  6  0  0  0
 22 23  1  0  0  0  0
 25 24  2  0  0  0  0
 27 26  2  0  0  0  0
 28 27  1  0  0  0  0
 29 31  1  0  0  0  0
 30 32  2  0  0  0  0
 31 28  2  0  0  0  0
 31 30  1  0  0  0  0
 32 26  1  0  0  0  0
 34 35  2  0  0  0  0
 34 33  1  0  0  0  0
 36 34  1  0  0  0  0
 36 37  1  0  0  0  0
M  END
>  <MODEL>
4

>  <REMARK>
 VINA RESULT:      -5.8      2.242      4.145
  Name = 
  7 active torsions:
  status: ('A' for Active; 'I' for Inactive)
    1  A    between atoms: C_3  and  C_21
    2  A    between atoms: C_6  and  C_31
    3  A    between atoms: C_17  and  N_23
    4  A    between atoms: C_20  and  C_25
    5  A    between atoms: C_21  and  C_25
    6  A    between atoms: C_27  and  C_33
    7  A    between atoms: C_29  and  C_36
                            x       y       z     vdW  Elec       q    Type
                         _______ _______ _______ _____ _____    ______ ____

>  <TORSDO>
F 7

$$$$
=
 OpenBabel11052415173D

 37 41  0  0  1  0  0  0  0  0999 V2000
  187.5850  178.0940  139.7180 C   0  0  0  0  0  0  0  0  0  0  0  0
  189.5020  178.6450  141.1620 C   0  0  0  0  0  2  0  0  0  0  0  0
  186.6090  177.9160  140.8480 C   0  0  2  0  0  3  0  0  0  0  0  0
  188.8450  178.3410  139.8570 C   0  0  0  0  0  0  0  0  0  0  0  0
  185.4340  178.6360  140.5780 O   0  0  0  0  0  0  0  0  0  0  0  0
  189.4300  178.4810  138.5880 N   0  0  0  0  0  2  0  0  0  0  0  0
  188.7070  178.0540  142.3380 C   0  0  2  0  0  3  0  0  0  0  0  0
  186.1800  178.8910  137.8580 C   0  0  0  0  0  2  0  0  0  0  0  0
  188.5130  178.3120  137.5900 O   0  0  0  0  0  0  0  0  0  0  0  0
  187.3110  177.9490  138.2630 C   0  0  1  0  0  3  0  0  0  0  0  0
  187.1910  178.3700  142.2020 C   0  0  2  0  0  3  0  0  0  0  0  0
  184.6980  177.8360  139.6900 C   0  0  2  0  0  3  0  0  0  0  0  0
  184.7920  178.3630  138.2490 C   0  0  0  0  0  2  0  0  0  0  0  0
  186.9900  176.6440  144.0920 C   0  0  0  0  0  2  0  0  0  0  0  0
  187.7490  177.1110  145.3260 C   0  0  0  0  0  2  0  0  0  0  0  0
  185.8220  178.3460  146.4570 C   0  0  2  0  0  3  0  0  0  0  0  0
  186.8050  177.1660  146.5240 C   0  0  2  0  0  3  0  0  0  0  0  0
  184.9920  178.3130  145.3090 O   0  0  0  0  0  0  0  0  0  0  0  0
  185.6810  178.8760  144.2170 C   0  0  1  0  0  3  0  0  0  0  0  0
  186.4300  179.7170  146.7770 C   0  0  0  0  0  1  0  0  0  0  0  0
  186.3120  177.7930  143.3300 C   0  0  1  0  0  3  0  0  0  0  0  0
  183.3450  179.7090  144.0210 C   0  0  0  0  0  1  0  0  0  0  0  0
  184.7270  179.7340  143.4000 C   0  0  0  0  0  2  0  0  0  0  0  0
  188.8310  177.1200  147.7500 C   0  0  0  0  0  2  0  0  0  0  0  0
  187.5510  177.2000  147.7570 N   0  0  0  0  0  0  0  0  0  0  0  0
  182.5550  176.5620  139.8440 C   0  0  0  0  0  3  0  0  0  0  0  0
  183.2720  177.7300  140.1230 C   0  0  0  0  0  0  0  0  0  0  0  0
  182.6340  178.7970  140.7750 C   0  0  0  0  0  3  0  0  0  0  0  0
  180.6860  179.7070  141.8060 F   0  0  0  0  0  0  0  0  0  0  0  0
  180.5830  177.5130  140.8790 C   0  0  0  0  0  3  0  0  0  0  0  0
  181.2940  178.6850  141.1550 C   0  0  0  0  0  0  0  0  0  0  0  0
  181.2130  176.4520  140.2220 C   0  0  0  0  0  3  0  0  0  0  0  0
  189.2790  178.6290  143.6300 C   0  0  0  0  0  2  0  0  0  0  0  0
  190.7160  178.2540  143.8130 C   0  0  0  0  0  0  0  0  0  0  0  0
  191.5550  179.1280  143.9680 O   0  0  0  0  0  0  0  0  0  0  0  0
  191.1300  176.8170  143.8250 C   0  0  0  0  0  2  0  0  0  0  0  0
  191.6770  176.4390  145.1880 C   0  0  0  0  0  1  0  0  0  0  0  0
  1  4  2  0  0  0  0
  2  7  1  0  0  0  0
  3  1  1  6  0  0  0
  3 11  1  0  0  0  0
  4  2  1  0  0  0  0
  5  3  1  0  0  0  0
  6  4  1  0  0  0  0
  7 33  1  1  0  0  0
  8 13  1  0  0  0  0
  9 10  1  0  0  0  0
  9  6  1  0  0  0  0
 10  8  1  6  0  0  0
 10  1  1  0  0  0  0
 11  7  1  0  0  0  0
 11 21  1  1  0  0  0
 12 27  1  1  0  0  0
 12  5  1  0  0  0  0
 13 12  1  0  0  0  0
 14 15  1  0  0  0  0
 15 17  1  0  0  0  0
 16 17  1  0  0  0  0
 16 20  1  6  0  0  0
 17 25  1  1  0  0  0
 18 16  1  0  0  0  0
 19 23  1  6  0  0  0
 19 18  1  0  0  0  0
 21 14  1  1  0  0  0
 21 19  1  0  0  0  0
 23 22  1  0  0  0  0
 24 25  2  0  0  0  0
 26 27  2  0  0  0  0
 26 32  1  0  0  0  0
 27 28  1  0  0  0  0
 28 31  2  0  0  0  0
 30 31  1  0  0  0  0
 31 29  1  0  0  0  0
 32 30  2  0  0  0  0
 33 34  1  0  0  0  0
 34 36  1  0  0  0  0
 34 35  2  0  0  0  0
 36 37  1  0  0  0  0
M  END
>  <MODEL>
5

>  <REMARK>
 VINA RESULT:      -5.6      3.208      8.051
  Name = 
  7 active torsions:
  status: ('A' for Active; 'I' for Inactive)
    1  A    between atoms: C_3  and  C_21
    2  A    between atoms: C_6  and  C_31
    3  A    between atoms: C_17  and  N_23
    4  A    between atoms: C_20  and  C_25
    5  A    between atoms: C_21  and  C_25
    6  A    between atoms: C_27  and  C_33
    7  A    between atoms: C_29  and  C_36
                            x       y       z     vdW  Elec       q    Type
                         _______ _______ _______ _____ _____    ______ ____

>  <TORSDO>
F 7

$$$$
=
 OpenBabel11052415173D

 37 41  0  0  1  0  0  0  0  0999 V2000
  189.1950  177.2520  139.9760 C   0  0  0  0  0  0  0  0  0  0  0  0
  187.0420  178.4450  140.0150 C   0  0  0  0  0  2  0  0  0  0  0  0
  189.0120  176.6830  138.5960 C   0  0  2  0  0  3  0  0  0  0  0  0
  188.3180  177.9540  140.6120 C   0  0  0  0  0  0  0  0  0  0  0  0
  190.1660  176.9110  137.8310 O   0  0  0  0  0  0  0  0  0  0  0  0
  188.8500  178.3440  141.8520 N   0  0  0  0  0  2  0  0  0  0  0  0
  186.6010  177.5620  138.8360 C   0  0  2  0  0  3  0  0  0  0  0  0
  191.6370  177.5120  140.1750 C   0  0  0  0  0  2  0  0  0  0  0  0
  190.1200  177.8690  142.0250 O   0  0  0  0  0  0  0  0  0  0  0  0
  190.3600  177.0570  140.8800 C   0  0  1  0  0  3  0  0  0  0  0  0
  187.7890  177.2830  137.8730 C   0  0  2  0  0  3  0  0  0  0  0  0
  191.0800  175.9190  138.2220 C   0  0  2  0  0  3  0  0  0  0  0  0
  192.1580  176.4840  139.1590 C   0  0  0  0  0  2  0  0  0  0  0  0
  186.9350  174.9930  137.0870 C   0  0  0  0  0  2  0  0  0  0  0  0
  185.4190  174.9180  137.2020 C   0  0  0  0  0  2  0  0  0  0  0  0
  184.8640  175.7590  134.8550 C   0  0  2  0  0  3  0  0  0  0  0  0
  184.8140  174.5810  135.8420 C   0  0  2  0  0  3  0  0  0  0  0  0
  186.1830  176.2070  134.5940 O   0  0  0  0  0  0  0  0  0  0  0  0
  186.5870  177.0930  135.6110 C   0  0  1  0  0  3  0  0  0  0  0  0
  183.8420  176.8710  135.1200 C   0  0  0  0  0  1  0  0  0  0  0  0
  187.4410  176.3830  136.6700 C   0  0  1  0  0  3  0  0  0  0  0  0
  188.7470  177.7900  134.5940 C   0  0  0  0  0  1  0  0  0  0  0  0
  187.3620  178.2510  135.0000 C   0  0  0  0  0  2  0  0  0  0  0  0
  183.1130  173.4370  137.0310 C   0  0  0  0  0  2  0  0  0  0  0  0
  183.4610  174.1060  135.9930 N   0  0  0  0  0  0  0  0  0  0  0  0
  191.8160  175.9850  135.8360 C   0  0  0  0  0  3  0  0  0  0  0  0
  191.7030  175.2670  137.0310 C   0  0  0  0  0  0  0  0  0  0  0  0
  192.1440  173.9350  137.0850 C   0  0  0  0  0  3  0  0  0  0  0  0
  193.1530  172.0590  136.0150 F   0  0  0  0  0  0  0  0  0  0  0  0
  192.8230  174.0620  134.7640 C   0  0  0  0  0  3  0  0  0  0  0  0
  192.7070  173.3370  135.9540 C   0  0  0  0  0  0  0  0  0  0  0  0
  192.3770  175.3850  134.7040 C   0  0  0  0  0  3  0  0  0  0  0  0
  185.4590  178.2720  138.1160 C   0  0  0  0  0  2  0  0  0  0  0  0
  184.5090  178.9100  139.0810 C   0  0  0  0  0  0  0  0  0  0  0  0
  184.5720  180.1130  139.2850 O   0  0  0  0  0  0  0  0  0  0  0  0
  183.4760  178.0900  139.7840 C   0  0  0  0  0  2  0  0  0  0  0  0
  182.9870  176.9740  138.8820 C   0  0  0  0  0  1  0  0  0  0  0  0
  1  4  2  0  0  0  0
  1 10  1  0  0  0  0
  2  4  1  0  0  0  0
  3  5  1  6  0  0  0
  3  1  1  0  0  0  0
  4  6  1  0  0  0  0
  5 12  1  0  0  0  0
  6  9  1  0  0  0  0
  7 33  1  6  0  0  0
  7  2  1  0  0  0  0
 10  8  1  6  0  0  0
 10  9  1  0  0  0  0
 11 21  1  6  0  0  0
 11  3  1  0  0  0  0
 11  7  1  0  0  0  0
 12 27  1  6  0  0  0
 12 13  1  0  0  0  0
 13  8  1  0  0  0  0
 14 15  1  0  0  0  0
 16 20  1  1  0  0  0
 16 17  1  0  0  0  0
 17 25  1  1  0  0  0
 17 15  1  0  0  0  0
 18 16  1  0  0  0  0
 18 19  1  0  0  0  0
 19 23  1  6  0  0  0
 19 21  1  0  0  0  0
 21 14  1  1  0  0  0
 22 23  1  0  0  0  0
 25 24  2  0  0  0  0
 26 27  1  0  0  0  0
 27 28  2  0  0  0  0
 30 31  2  0  0  0  0
 31 29  1  0  0  0  0
 31 28  1  0  0  0  0
 32 30  1  0  0  0  0
 32 26  2  0  0  0  0
 33 34  1  0  0  0  0
 34 35  2  0  0  0  0
 34 36  1  0  0  0  0
 37 36  1  0  0  0  0
M  END
>  <MODEL>
6

>  <REMARK>
 VINA RESULT:      -5.4      3.767      5.809
  Name = 
  7 active torsions:
  status: ('A' for Active; 'I' for Inactive)
    1  A    between atoms: C_3  and  C_21
    2  A    between atoms: C_6  and  C_31
    3  A    between atoms: C_17  and  N_23
    4  A    between atoms: C_20  and  C_25
    5  A    between atoms: C_21  and  C_25
    6  A    between atoms: C_27  and  C_33
    7  A    between atoms: C_29  and  C_36
                            x       y       z     vdW  Elec       q    Type
                         _______ _______ _______ _____ _____    ______ ____

>  <TORSDO>
F 7

$$$$
=
 OpenBabel11052415173D

 37 41  0  0  1  0  0  0  0  0999 V2000
  185.7970  178.3820  140.1060 C   0  0  0  0  0  0  0  0  0  0  0  0
  188.0910  178.4780  140.9960 C   0  0  0  0  0  2  0  0  0  0  0  0
  185.1320  178.2880  141.4510 C   0  0  2  0  0  3  0  0  0  0  0  0
  187.0730  178.3950  139.9080 C   0  0  0  0  0  0  0  0  0  0  0  0
  184.0840  179.2180  141.5300 O   0  0  0  0  0  0  0  0  0  0  0  0
  187.3250  178.5310  138.5330 N   0  0  0  0  0  2  0  0  0  0  0  0
  187.5330  177.9440  142.3250 C   0  0  2  0  0  3  0  0  0  0  0  0
  184.1330  179.5520  138.7180 C   0  0  0  0  0  2  0  0  0  0  0  0
  186.1640  178.6010  137.8150 O   0  0  0  0  0  0  0  0  0  0  0  0
  185.1330  178.4000  138.7750 C   0  0  1  0  0  3  0  0  0  0  0  0
  186.1210  178.5270  142.6110 C   0  0  2  0  0  3  0  0  0  0  0  0
  183.0060  178.6300  140.8500 C   0  0  2  0  0  3  0  0  0  0  0  0
  182.8200  179.2430  139.4540 C   0  0  0  0  0  2  0  0  0  0  0  0
  186.2270  176.8430  144.5460 C   0  0  0  0  0  2  0  0  0  0  0  0
  187.2630  177.2730  145.5750 C   0  0  0  0  0  2  0  0  0  0  0  0
  185.7070  178.6490  147.0610 C   0  0  2  0  0  3  0  0  0  0  0  0
  186.6060  177.4070  146.9460 C   0  0  2  0  0  3  0  0  0  0  0  0
  184.6480  178.6560  146.1190 O   0  0  0  0  0  0  0  0  0  0  0  0
  185.1180  179.1580  144.8900 C   0  0  1  0  0  3  0  0  0  0  0  0
  186.4550  179.9800  147.2050 C   0  0  0  0  0  1  0  0  0  0  0  0
  185.4730  178.0250  143.9180 C   0  0  1  0  0  3  0  0  0  0  0  0
  182.6810  179.6290  144.7120 C   0  0  0  0  0  1  0  0  0  0  0  0
  184.0640  180.0670  144.2750 C   0  0  0  0  0  2  0  0  0  0  0  0
  188.7460  176.8560  147.8000 C   0  0  0  0  0  2  0  0  0  0  0  0
  187.6020  177.4060  147.9880 N   0  0  0  0  0  0  0  0  0  0  0  0
  180.8630  179.7920  141.3950 C   0  0  0  0  0  3  0  0  0  0  0  0
  181.7480  178.7380  141.6480 C   0  0  0  0  0  0  0  0  0  0  0  0
  181.4590  177.8190  142.6680 C   0  0  0  0  0  3  0  0  0  0  0  0
  179.9970  177.0460  144.3860 F   0  0  0  0  0  0  0  0  0  0  0  0
  179.4010  179.0000  143.1550 C   0  0  0  0  0  3  0  0  0  0  0  0
  180.2850  177.9480  143.4170 C   0  0  0  0  0  0  0  0  0  0  0  0
  179.6910  179.9220  142.1460 C   0  0  0  0  0  3  0  0  0  0  0  0
  188.5180  178.3090  143.4310 C   0  0  0  0  0  2  0  0  0  0  0  0
  189.7490  177.4590  143.3770 C   0  0  0  0  0  0  0  0  0  0  0  0
  189.6840  176.3300  142.9150 O   0  0  0  0  0  0  0  0  0  0  0  0
  191.0570  177.9870  143.8700 C   0  0  0  0  0  2  0  0  0  0  0  0
  191.4440  177.3060  145.1680 C   0  0  0  0  0  1  0  0  0  0  0  0
  2  7  1  0  0  0  0
  3  1  1  6  0  0  0
  3  5  1  0  0  0  0
  3 11  1  0  0  0  0
  4  1  2  0  0  0  0
  4  2  1  0  0  0  0
  6  4  1  0  0  0  0
  7 11  1  0  0  0  0
  7 33  1  1  0  0  0
  8 13  1  0  0  0  0
  9  6  1  0  0  0  0
  9 10  1  0  0  0  0
 10  8  1  1  0  0  0
 10  1  1  0  0  0  0
 11 21  1  1  0  0  0
 12  5  1  0  0  0  0
 12 27  1  1  0  0  0
 13 12  1  0  0  0  0
 14 15  1  0  0  0  0
 15 17  1  0  0  0  0
 16 20  1  6  0  0  0
 17 16  1  0  0  0  0
 17 25  1  1  0  0  0
 18 16  1  0  0  0  0
 19 23  1  6  0  0  0
 19 18  1  0  0  0  0
 21 14  1  1  0  0  0
 21 19  1  0  0  0  0
 23 22  1  0  0  0  0
 24 25  2  0  0  0  0
 26 27  2  0  0  0  0
 26 32  1  0  0  0  0
 27 28  1  0  0  0  0
 28 31  2  0  0  0  0
 30 31  1  0  0  0  0
 31 29  1  0  0  0  0
 32 30  2  0  0  0  0
 34 33  1  0  0  0  0
 34 36  1  0  0  0  0
 35 34  2  0  0  0  0
 36 37  1  0  0  0  0
M  END
>  <MODEL>
7

>  <REMARK>
 VINA RESULT:      -4.9      3.320      8.288
  Name = 
  7 active torsions:
  status: ('A' for Active; 'I' for Inactive)
    1  A    between atoms: C_3  and  C_21
    2  A    between atoms: C_6  and  C_31
    3  A    between atoms: C_17  and  N_23
    4  A    between atoms: C_20  and  C_25
    5  A    between atoms: C_21  and  C_25
    6  A    between atoms: C_27  and  C_33
    7  A    between atoms: C_29  and  C_36
                            x       y       z     vdW  Elec       q    Type
                         _______ _______ _______ _____ _____    ______ ____

>  <TORSDO>
F 7

$$$$
=
 OpenBabel11052415173D

 37 41  0  0  1  0  0  0  0  0999 V2000
  183.7200  173.7920  136.7320 C   0  0  0  0  0  0  0  0  0  0  0  0
  181.3170  173.8500  137.2650 C   0  0  0  0  0  2  0  0  0  0  0  0
  183.9230  175.2770  136.8530 C   0  0  2  0  0  3  0  0  0  0  0  0
  182.5850  173.1870  136.8430 C   0  0  0  0  0  0  0  0  0  0  0  0
  185.0420  175.5400  137.6590 O   0  0  0  0  0  0  0  0  0  0  0  0
  182.7860  171.8030  136.7110 N   0  0  0  0  0  2  0  0  0  0  0  0
  181.3490  175.3580  136.9670 C   0  0  2  0  0  3  0  0  0  0  0  0
  185.9000  172.8540  137.3930 C   0  0  0  0  0  2  0  0  0  0  0  0
  184.1020  171.5040  136.5000 O   0  0  0  0  0  0  0  0  0  0  0  0
  184.7470  172.7690  136.3950 C   0  0  1  0  0  3  0  0  0  0  0  0
  182.6880  175.9910  137.4390 C   0  0  2  0  0  3  0  0  0  0  0  0
  186.1580  175.3590  136.8260 C   0  0  2  0  0  3  0  0  0  0  0  0
  186.8570  174.0200  137.1050 C   0  0  0  0  0  2  0  0  0  0  0  0
  182.3380  177.8930  135.7520 C   0  0  0  0  0  2  0  0  0  0  0  0
  180.8750  178.3130  135.7130 C   0  0  0  0  0  2  0  0  0  0  0  0
  181.0020  180.1310  137.5020 C   0  0  2  0  0  3  0  0  0  0  0  0
  180.7570  179.8040  136.0210 C   0  0  2  0  0  3  0  0  0  0  0  0
  182.2900  179.7420  137.9510 O   0  0  0  0  0  0  0  0  0  0  0  0
  182.2730  178.3770  138.2960 C   0  0  1  0  0  3  0  0  0  0  0  0
  179.8500  179.7670  138.4470 C   0  0  0  0  0  1  0  0  0  0  0  0
  182.8170  177.5020  137.1580 C   0  0  1  0  0  3  0  0  0  0  0  0
  184.3900  178.9320  139.4770 C   0  0  0  0  0  1  0  0  0  0  0  0
  183.0890  178.1610  139.5610 C   0  0  0  0  0  2  0  0  0  0  0  0
  179.3590  181.5010  135.1390 C   0  0  0  0  0  2  0  0  0  0  0  0
  179.4750  180.3080  135.5980 N   0  0  0  0  0  0  0  0  0  0  0  0
  186.6680  177.8030  136.7410 C   0  0  0  0  0  3  0  0  0  0  0  0
  187.1170  176.4960  136.9630 C   0  0  0  0  0  0  0  0  0  0  0  0
  188.4660  176.2690  137.2780 C   0  0  0  0  0  3  0  0  0  0  0  0
  190.6480  177.1260  137.7090 F   0  0  0  0  0  0  0  0  0  0  0  0
  188.8960  178.6500  137.1650 C   0  0  0  0  0  3  0  0  0  0  0  0
  189.3510  177.3450  137.3820 C   0  0  0  0  0  0  0  0  0  0  0  0
  187.5560  178.8780  136.8430 C   0  0  0  0  0  3  0  0  0  0  0  0
  180.1550  176.0020  137.6630 C   0  0  0  0  0  2  0  0  0  0  0  0
  179.7870  175.2720  138.9170 C   0  0  0  0  0  0  0  0  0  0  0  0
  178.9630  174.3710  138.8720 O   0  0  0  0  0  0  0  0  0  0  0  0
  180.4310  175.6270  140.2180 C   0  0  0  0  0  2  0  0  0  0  0  0
  179.7790  176.8610  140.8090 C   0  0  0  0  0  1  0  0  0  0  0  0
  1  4  2  0  0  0  0
  3  1  1  1  0  0  0
  3 11  1  0  0  0  0
  3  5  1  0  0  0  0
  4  2  1  0  0  0  0
  6  4  1  0  0  0  0
  7  2  1  0  0  0  0
  7 11  1  0  0  0  0
  7 33  1  1  0  0  0
  9  6  1  0  0  0  0
 10  9  1  0  0  0  0
 10  1  1  0  0  0  0
 10  8  1  1  0  0  0
 11 21  1  6  0  0  0
 12 27  1  1  0  0  0
 12 13  1  0  0  0  0
 12  5  1  0  0  0  0
 13  8  1  0  0  0  0
 15 14  1  0  0  0  0
 15 17  1  0  0  0  0
 16 18  1  0  0  0  0
 16 20  1  1  0  0  0
 17 25  1  1  0  0  0
 17 16  1  0  0  0  0
 18 19  1  0  0  0  0
 19 23  1  1  0  0  0
 21 14  1  6  0  0  0
 21 19  1  0  0  0  0
 22 23  1  0  0  0  0
 24 25  2  0  0  0  0
 26 32  2  0  0  0  0
 26 27  1  0  0  0  0
 27 28  2  0  0  0  0
 28 31  1  0  0  0  0
 30 31  2  0  0  0  0
 31 29  1  0  0  0  0
 32 30  1  0  0  0  0
 33 34  1  0  0  0  0
 34 36  1  0  0  0  0
 35 34  2  0  0  0  0
 36 37  1  0  0  0  0
M  END
>  <MODEL>
8

>  <REMARK>
 VINA RESULT:      -4.8      3.522      5.415
  Name = 
  7 active torsions:
  status: ('A' for Active; 'I' for Inactive)
    1  A    between atoms: C_3  and  C_21
    2  A    between atoms: C_6  and  C_31
    3  A    between atoms: C_17  and  N_23
    4  A    between atoms: C_20  and  C_25
    5  A    between atoms: C_21  and  C_25
    6  A    between atoms: C_27  and  C_33
    7  A    between atoms: C_29  and  C_36
                            x       y       z     vdW  Elec       q    Type
                         _______ _______ _______ _____ _____    ______ ____

>  <TORSDO>
F 7

$$$$
=
 OpenBabel11052415173D

 37 41  0  0  1  0  0  0  0  0999 V2000
  184.7850  178.6290  140.0300 C   0  0  0  0  0  0  0  0  0  0  0  0
  185.2040  177.7530  137.7680 C   0  0  0  0  0  2  0  0  0  0  0  0
  183.2860  178.6000  139.9130 C   0  0  2  0  0  3  0  0  0  0  0  0
  185.6100  178.3290  139.0830 C   0  0  0  0  0  0  0  0  0  0  0  0
  182.7330  177.9780  141.0430 O   0  0  0  0  0  0  0  0  0  0  0  0
  186.9240  178.4330  139.5670 N   0  0  0  0  0  2  0  0  0  0  0  0
  183.7500  178.1150  137.4240 C   0  0  2  0  0  3  0  0  0  0  0  0
  185.1850  178.2570  142.4320 C   0  0  0  0  0  2  0  0  0  0  0  0
  186.9490  178.8220  140.8760 O   0  0  0  0  0  0  0  0  0  0  0  0
  185.5860  179.0710  141.2040 C   0  0  1  0  0  3  0  0  0  0  0  0
  182.8130  177.8690  138.6400 C   0  0  2  0  0  3  0  0  0  0  0  0
  182.7300  178.9570  142.0490 C   0  0  2  0  0  3  0  0  0  0  0  0
  183.8650  178.7290  143.0590 C   0  0  0  0  0  2  0  0  0  0  0  0
  181.1050  179.7350  138.2020 C   0  0  0  0  0  2  0  0  0  0  0  0
  181.1460  180.1680  136.7430 C   0  0  0  0  0  2  0  0  0  0  0  0
  179.3750  178.5520  135.8650 C   0  0  2  0  0  3  0  0  0  0  0  0
  179.7610  180.0180  136.1200 C   0  0  2  0  0  3  0  0  0  0  0  0
  179.3570  177.7690  137.0460 O   0  0  0  0  0  0  0  0  0  0  0  0
  180.6640  177.3330  137.3390 C   0  0  1  0  0  3  0  0  0  0  0  0
  180.0700  177.8970  134.6650 C   0  0  0  0  0  1  0  0  0  0  0  0
  181.3330  178.2280  138.3920 C   0  0  1  0  0  3  0  0  0  0  0  0
  179.5590  175.1200  137.0700 C   0  0  0  0  0  1  0  0  0  0  0  0
  180.6230  175.8920  137.8240 C   0  0  0  0  0  2  0  0  0  0  0  0
  180.4930  181.7360  134.6620 C   0  0  0  0  0  2  0  0  0  0  0  0
  179.6680  180.7840  134.9020 N   0  0  0  0  0  0  0  0  0  0  0  0
  180.5350  180.0690  142.4770 C   0  0  0  0  0  3  0  0  0  0  0  0
  181.4070  179.0080  142.7410 C   0  0  0  0  0  0  0  0  0  0  0  0
  181.0430  178.0260  143.6760 C   0  0  0  0  0  3  0  0  0  0  0  0
  179.4480  177.1410  145.2110 F   0  0  0  0  0  0  0  0  0  0  0  0
  178.9380  179.1620  144.0540 C   0  0  0  0  0  3  0  0  0  0  0  0
  179.8080  178.1020  144.3270 C   0  0  0  0  0  0  0  0  0  0  0  0
  179.3010  180.1460  143.1300 C   0  0  0  0  0  3  0  0  0  0  0  0
  183.3270  177.2780  136.2210 C   0  0  0  0  0  2  0  0  0  0  0  0
  184.4250  176.3660  135.7690 C   0  0  0  0  0  0  0  0  0  0  0  0
  185.2670  176.7750  134.9850 O   0  0  0  0  0  0  0  0  0  0  0  0
  184.5080  174.9650  136.2840 C   0  0  0  0  0  2  0  0  0  0  0  0
  183.2330  174.2110  135.9620 C   0  0  0  0  0  1  0  0  0  0  0  0
  1 10  1  0  0  0  0
  2  4  1  0  0  0  0
  3  1  1  1  0  0  0
  3  5  1  0  0  0  0
  4  6  1  0  0  0  0
  4  1  2  0  0  0  0
  5 12  1  0  0  0  0
  6  9  1  0  0  0  0
  7 33  1  6  0  0  0
  7  2  1  0  0  0  0
  7 11  1  0  0  0  0
  8 13  1  0  0  0  0
  9 10  1  0  0  0  0
 10  8  1  1  0  0  0
 11 21  1  6  0  0  0
 11  3  1  0  0  0  0
 12 27  1  1  0  0  0
 12 13  1  0  0  0  0
 15 14  1  0  0  0  0
 16 20  1  6  0  0  0
 16 17  1  0  0  0  0
 16 18  1  0  0  0  0
 17 25  1  6  0  0  0
 17 15  1  0  0  0  0
 18 19  1  0  0  0  0
 19 23  1  1  0  0  0
 19 21  1  0  0  0  0
 21 14  1  6  0  0  0
 22 23  1  0  0  0  0
 24 25  2  0  0  0  0
 26 27  2  0  0  0  0
 26 32  1  0  0  0  0
 27 28  1  0  0  0  0
 28 31  2  0  0  0  0
 30 31  1  0  0  0  0
 31 29  1  0  0  0  0
 32 30  2  0  0  0  0
 34 33  1  0  0  0  0
 34 36  1  0  0  0  0
 35 34  2  0  0  0  0
 37 36  1  0  0  0  0
M  END
>  <MODEL>
9

>  <REMARK>
 VINA RESULT:      -4.8      3.174      6.618
  Name = 
  7 active torsions:
  status: ('A' for Active; 'I' for Inactive)
    1  A    between atoms: C_3  and  C_21
    2  A    between atoms: C_6  and  C_31
    3  A    between atoms: C_17  and  N_23
    4  A    between atoms: C_20  and  C_25
    5  A    between atoms: C_21  and  C_25
    6  A    between atoms: C_27  and  C_33
    7  A    between atoms: C_29  and  C_36
                            x       y       z     vdW  Elec       q    Type
                         _______ _______ _______ _____ _____    ______ ____

>  <TORSDO>
F 7

$$$$
