=
 OpenBabel11052412413D

 25 27  0  0  1  0  0  0  0  0999 V2000
  186.1430  177.3930  145.0360 C   0  0  1  0  0  3  0  0  0  0  0  0
  187.6100  177.3400  145.4000 C   0  0  0  0  0  0  0  0  0  0  0  0
  185.8500  178.9330  147.0170 C   0  0  0  0  0  2  0  0  0  0  0  0
  187.1240  178.3960  147.6550 C   0  0  0  0  0  2  0  0  0  0  0  0
  189.4550  177.8120  146.9180 C   0  0  0  0  0  0  0  0  0  0  0  0
  189.9420  178.3100  148.1210 O   0  0  0  0  0  1  0  0  0  0  0  0
  188.5170  176.7760  144.4930 C   0  0  0  0  0  3  0  0  0  0  0  0
  185.2090  177.8490  146.1630 C   0  0  0  0  0  2  0  0  0  0  0  0
  190.3480  177.2550  145.9980 C   0  0  0  0  0  3  0  0  0  0  0  0
  189.8800  176.7320  144.7910 C   0  0  0  0  0  0  0  0  0  0  0  0
  188.0820  177.8630  146.6250 C   0  0  0  0  0  0  0  0  0  0  0  0
  185.8400  178.0570  143.7180 C   0  0  0  0  0  0  0  0  0  0  0  0
  185.4490  179.2350  141.1970 C   0  0  0  0  0  3  0  0  0  0  0  0
  184.5790  178.6000  143.3720 C   0  0  0  0  0  0  0  0  0  0  0  0
  184.3980  179.1850  142.1140 C   0  0  0  0  0  3  0  0  0  0  0  0
  186.6920  178.6970  141.5330 C   0  0  0  0  0  3  0  0  0  0  0  0
  183.2000  178.5960  144.4610 Cl  0  0  0  0  0  0  0  0  0  0  0  0
  186.8840  178.1120  142.7850 C   0  0  0  0  0  3  0  0  0  0  0  0
  190.8380  176.1580  143.8060 C   0  0  0  0  0  2  0  0  0  0  0  0
  190.1980  176.1030  142.4290 C   0  0  0  0  0  2  0  0  0  0  0  0
  190.6050  177.3130  141.6040 C   0  0  1  0  0  3  0  0  0  0  0  0
  191.9800  177.5160  141.7210 O   0  0  0  0  0  1  0  0  0  0  0  0
  190.2410  177.1280  140.1660 C   0  0  0  0  0  0  0  0  0  0  0  0
  189.6040  178.0210  139.5470 O   0  0  0  0  0  1  0  0  0  0  0  0
  190.6230  175.9690  139.5050 O   0  0  0  0  0  0  0  0  0  0  0  0
  1 12  1  6  0  0  0
  1  2  1  0  0  0  0
  1  8  1  0  0  0  0
  2 11  1  0  0  0  0
  3  4  1  0  0  0  0
  5  6  1  0  0  0  0
  7 10  1  0  0  0  0
  7  2  2  0  0  0  0
  8  3  1  0  0  0  0
  9  5  1  0  0  0  0
 10  9  2  0  0  0  0
 11  5  2  0  0  0  0
 11  4  1  0  0  0  0
 13 16  2  0  0  0  0
 13 15  1  0  0  0  0
 14 12  1  0  0  0  0
 14 17  1  0  0  0  0
 15 14  2  0  0  0  0
 16 18  1  0  0  0  0
 18 12  2  0  0  0  0
 19 10  1  0  0  0  0
 20 19  1  0  0  0  0
 21 22  1  6  0  0  0
 21 20  1  0  0  0  0
 23 21  1  0  0  0  0
 24 23  1  0  0  0  0
 25 23  2  0  0  0  0
M  END
>  <MODEL>
1

>  <REMARK>
 VINA RESULT:      -9.1      0.000      0.000
  Name = 
  5 active torsions:
  status: ('A' for Active; 'I' for Inactive)
    1  A    between atoms: C_1  and  C_5
    2  A    between atoms: C_2  and  C_21
    3  A    between atoms: C_6  and  C_15
    4  A    between atoms: C_6  and  C_23
    5  A    between atoms: C_15  and  C_21
                            x       y       z     vdW  Elec       q    Type
                         _______ _______ _______ _____ _____    ______ ____

>  <TORSDO>
F 5

$$$$
=
 OpenBabel11052412413D

 25 27  0  0  1  0  0  0  0  0999 V2000
  188.8010  177.0580  141.8720 C   0  0  1  0  0  3  0  0  0  0  0  0
  187.4660  177.7480  142.0420 C   0  0  0  0  0  0  0  0  0  0  0  0
  188.9640  178.2270  139.6370 C   0  0  0  0  0  2  0  0  0  0  0  0
  187.4510  178.4000  139.5900 C   0  0  0  0  0  2  0  0  0  0  0  0
  185.6170  179.0740  141.1710 C   0  0  0  0  0  0  0  0  0  0  0  0
  184.9860  179.7400  140.1280 O   0  0  0  0  0  1  0  0  0  0  0  0
  186.8420  177.7250  143.2960 C   0  0  0  0  0  3  0  0  0  0  0  0
  189.3100  176.9740  140.4290 C   0  0  0  0  0  2  0  0  0  0  0  0
  185.0130  179.0490  142.4310 C   0  0  0  0  0  3  0  0  0  0  0  0
  185.6190  178.3710  143.4900 C   0  0  0  0  0  0  0  0  0  0  0  0
  186.8490  178.4290  140.9680 C   0  0  0  0  0  0  0  0  0  0  0  0
  189.8670  177.4900  142.8460 C   0  0  0  0  0  0  0  0  0  0  0  0
  191.7840  178.4760  144.6470 C   0  0  0  0  0  3  0  0  0  0  0  0
  190.7040  176.5960  143.5570 C   0  0  0  0  0  0  0  0  0  0  0  0
  191.6560  177.1010  144.4490 C   0  0  0  0  0  3  0  0  0  0  0  0
  190.9570  179.3600  143.9520 C   0  0  0  0  0  3  0  0  0  0  0  0
  190.6270  174.8510  143.3660 Cl  0  0  0  0  0  0  0  0  0  0  0  0
  190.0050  178.8680  143.0580 C   0  0  0  0  0  3  0  0  0  0  0  0
  184.9810  178.3650  144.8350 C   0  0  0  0  0  2  0  0  0  0  0  0
  185.8690  177.6370  145.8300 C   0  0  0  0  0  2  0  0  0  0  0  0
  186.6660  178.6310  146.6590 C   0  0  1  0  0  3  0  0  0  0  0  0
  185.8110  179.2920  147.5420 O   0  0  0  0  0  1  0  0  0  0  0  0
  187.7500  177.9430  147.4230 C   0  0  0  0  0  0  0  0  0  0  0  0
  187.8520  178.0980  148.6700 O   0  0  0  0  0  1  0  0  0  0  0  0
  188.6410  177.1140  146.7570 O   0  0  0  0  0  0  0  0  0  0  0  0
  1  2  1  0  0  0  0
  1 12  1  1  0  0  0
  2  7  1  0  0  0  0
  3  8  1  0  0  0  0
  4  3  1  0  0  0  0
  4 11  1  0  0  0  0
  5  9  2  0  0  0  0
  6  5  1  0  0  0  0
  7 10  2  0  0  0  0
  8  1  1  0  0  0  0
  9 10  1  0  0  0  0
 10 19  1  0  0  0  0
 11  5  1  0  0  0  0
 11  2  2  0  0  0  0
 12 18  2  0  0  0  0
 12 14  1  0  0  0  0
 14 15  2  0  0  0  0
 15 13  1  0  0  0  0
 16 13  2  0  0  0  0
 17 14  1  0  0  0  0
 18 16  1  0  0  0  0
 19 20  1  0  0  0  0
 20 21  1  0  0  0  0
 21 23  1  0  0  0  0
 21 22  1  1  0  0  0
 23 24  1  0  0  0  0
 25 23  2  0  0  0  0
M  END
>  <MODEL>
2

>  <REMARK>
 VINA RESULT:      -9.0      2.913      6.718
  Name = 
  5 active torsions:
  status: ('A' for Active; 'I' for Inactive)
    1  A    between atoms: C_1  and  C_5
    2  A    between atoms: C_2  and  C_21
    3  A    between atoms: C_6  and  C_15
    4  A    between atoms: C_6  and  C_23
    5  A    between atoms: C_15  and  C_21
                            x       y       z     vdW  Elec       q    Type
                         _______ _______ _______ _____ _____    ______ ____

>  <TORSDO>
F 5

$$$$
=
 OpenBabel11052412413D

 25 27  0  0  1  0  0  0  0  0999 V2000
  187.0130  177.1340  144.8820 C   0  0  1  0  0  3  0  0  0  0  0  0
  188.2540  177.3630  144.0480 C   0  0  0  0  0  0  0  0  0  0  0  0
  188.2990  178.1310  146.8160 C   0  0  0  0  0  2  0  0  0  0  0  0
  189.6230  177.7980  146.1400 C   0  0  0  0  0  2  0  0  0  0  0  0
  190.6080  177.9500  143.8320 C   0  0  0  0  0  0  0  0  0  0  0  0
  191.8290  178.2990  144.3950 O   0  0  0  0  0  1  0  0  0  0  0  0
  188.1730  177.2270  142.6560 C   0  0  0  0  0  3  0  0  0  0  0  0
  187.2420  177.1180  146.3970 C   0  0  0  0  0  2  0  0  0  0  0  0
  190.5080  177.8200  142.4440 C   0  0  0  0  0  3  0  0  0  0  0  0
  189.2960  177.4520  141.8570 C   0  0  0  0  0  0  0  0  0  0  0  0
  189.4830  177.7280  144.6440 C   0  0  0  0  0  0  0  0  0  0  0  0
  185.8170  177.9570  144.4790 C   0  0  0  0  0  0  0  0  0  0  0  0
  183.6300  179.4500  143.5400 C   0  0  0  0  0  3  0  0  0  0  0  0
  184.8530  178.4590  145.3870 C   0  0  0  0  0  0  0  0  0  0  0  0
  183.7710  179.2030  144.9060 C   0  0  0  0  0  3  0  0  0  0  0  0
  184.5740  178.9530  142.6410 C   0  0  0  0  0  3  0  0  0  0  0  0
  184.9510  178.2110  147.1230 Cl  0  0  0  0  0  0  0  0  0  0  0  0
  185.6590  178.2110  143.1090 C   0  0  0  0  0  3  0  0  0  0  0  0
  189.1900  177.3340  140.3760 C   0  0  0  0  0  2  0  0  0  0  0  0
  188.0740  178.2280  139.8610 C   0  0  0  0  0  2  0  0  0  0  0  0
  187.8010  177.9450  138.3920 C   0  0  1  0  0  3  0  0  0  0  0  0
  186.5730  178.5000  138.0310 O   0  0  0  0  0  1  0  0  0  0  0  0
  188.8840  178.5080  137.5290 C   0  0  0  0  0  0  0  0  0  0  0  0
  189.0100  179.7540  137.3910 O   0  0  0  0  0  1  0  0  0  0  0  0
  189.7680  177.6500  136.8890 O   0  0  0  0  0  0  0  0  0  0  0  0
  1 12  1  1  0  0  0
  1  8  1  0  0  0  0
  2 11  1  0  0  0  0
  2  1  1  0  0  0  0
  4  3  1  0  0  0  0
  5  6  1  0  0  0  0
  5 11  2  0  0  0  0
  7  2  2  0  0  0  0
  8  3  1  0  0  0  0
  9  5  1  0  0  0  0
 10  9  2  0  0  0  0
 10  7  1  0  0  0  0
 11  4  1  0  0  0  0
 12 14  1  0  0  0  0
 13 15  1  0  0  0  0
 14 17  1  0  0  0  0
 15 14  2  0  0  0  0
 16 18  1  0  0  0  0
 16 13  2  0  0  0  0
 18 12  2  0  0  0  0
 19 10  1  0  0  0  0
 20 19  1  0  0  0  0
 21 22  1  6  0  0  0
 21 20  1  0  0  0  0
 23 21  1  0  0  0  0
 24 23  1  0  0  0  0
 25 23  2  0  0  0  0
M  END
>  <MODEL>
3

>  <REMARK>
 VINA RESULT:      -9.0      1.915      3.138
  Name = 
  5 active torsions:
  status: ('A' for Active; 'I' for Inactive)
    1  A    between atoms: C_1  and  C_5
    2  A    between atoms: C_2  and  C_21
    3  A    between atoms: C_6  and  C_15
    4  A    between atoms: C_6  and  C_23
    5  A    between atoms: C_15  and  C_21
                            x       y       z     vdW  Elec       q    Type
                         _______ _______ _______ _____ _____    ______ ____

>  <TORSDO>
F 5

$$$$
=
 OpenBabel11052412413D

 25 27  0  0  1  0  0  0  0  0999 V2000
  188.8540  176.7210  144.3750 C   0  0  1  0  0  3  0  0  0  0  0  0
  188.1160  177.3730  143.2270 C   0  0  0  0  0  0  0  0  0  0  0  0
  190.9750  177.6350  143.3480 C   0  0  0  0  0  2  0  0  0  0  0  0
  190.2990  177.7420  141.9870 C   0  0  0  0  0  2  0  0  0  0  0  0
  188.0880  178.5190  141.0780 C   0  0  0  0  0  0  0  0  0  0  0  0
  188.7460  179.0380  139.9690 O   0  0  0  0  0  1  0  0  0  0  0  0
  186.7190  177.4670  143.2820 C   0  0  0  0  0  3  0  0  0  0  0  0
  190.3520  176.4930  144.1390 C   0  0  0  0  0  2  0  0  0  0  0  0
  186.6950  178.6130  141.1520 C   0  0  0  0  0  3  0  0  0  0  0  0
  186.0110  178.0830  142.2480 C   0  0  0  0  0  0  0  0  0  0  0  0
  188.8090  177.9030  142.1150 C   0  0  0  0  0  0  0  0  0  0  0  0
  188.5550  177.3010  145.7330 C   0  0  0  0  0  0  0  0  0  0  0  0
  187.8130  178.4040  148.2080 C   0  0  0  0  0  3  0  0  0  0  0  0
  189.4650  177.2940  146.8190 C   0  0  0  0  0  0  0  0  0  0  0  0
  189.0830  177.8490  148.0450 C   0  0  0  0  0  3  0  0  0  0  0  0
  186.9120  178.4080  147.1420 C   0  0  0  0  0  3  0  0  0  0  0  0
  191.0870  176.6300  146.7080 Cl  0  0  0  0  0  0  0  0  0  0  0  0
  187.2830  177.8590  145.9140 C   0  0  0  0  0  3  0  0  0  0  0  0
  184.5300  178.2050  142.3310 C   0  0  0  0  0  2  0  0  0  0  0  0
  184.1500  179.2260  143.3900 C   0  0  0  0  0  2  0  0  0  0  0  0
  183.1080  178.6500  144.3360 C   0  0  1  0  0  3  0  0  0  0  0  0
  183.2970  179.1760  145.6140 O   0  0  0  0  0  1  0  0  0  0  0  0
  181.7250  178.9600  143.8600 C   0  0  0  0  0  0  0  0  0  0  0  0
  181.5250  179.8950  143.0390 O   0  0  0  0  0  0  0  0  0  0  0  0
  180.6560  178.2010  144.3150 O   0  0  0  0  0  1  0  0  0  0  0  0
  1 12  1  1  0  0  0
  2  7  1  0  0  0  0
  2  1  1  0  0  0  0
  3  8  1  0  0  0  0
  4 11  1  0  0  0  0
  4  3  1  0  0  0  0
  5  9  2  0  0  0  0
  5 11  1  0  0  0  0
  6  5  1  0  0  0  0
  8  1  1  0  0  0  0
  9 10  1  0  0  0  0
 10 19  1  0  0  0  0
 10  7  2  0  0  0  0
 11  2  2  0  0  0  0
 12 18  2  0  0  0  0
 12 14  1  0  0  0  0
 14 15  2  0  0  0  0
 15 13  1  0  0  0  0
 16 13  2  0  0  0  0
 17 14  1  0  0  0  0
 18 16  1  0  0  0  0
 19 20  1  0  0  0  0
 20 21  1  0  0  0  0
 21 22  1  1  0  0  0
 23 25  1  0  0  0  0
 23 21  1  0  0  0  0
 24 23  2  0  0  0  0
M  END
>  <MODEL>
4

>  <REMARK>
 VINA RESULT:      -9.0      3.672      6.780
  Name = 
  5 active torsions:
  status: ('A' for Active; 'I' for Inactive)
    1  A    between atoms: C_1  and  C_5
    2  A    between atoms: C_2  and  C_21
    3  A    between atoms: C_6  and  C_15
    4  A    between atoms: C_6  and  C_23
    5  A    between atoms: C_15  and  C_21
                            x       y       z     vdW  Elec       q    Type
                         _______ _______ _______ _____ _____    ______ ____

>  <TORSDO>
F 5

$$$$
=
 OpenBabel11052412413D

 25 27  0  0  1  0  0  0  0  0999 V2000
  187.6320  176.9340  144.3420 C   0  0  1  0  0  3  0  0  0  0  0  0
  186.5030  177.7120  143.7040 C   0  0  0  0  0  0  0  0  0  0  0  0
  189.1190  177.8690  142.5250 C   0  0  0  0  0  2  0  0  0  0  0  0
  187.9100  178.1210  141.6320 C   0  0  0  0  0  2  0  0  0  0  0  0
  185.5880  179.0490  141.8850 C   0  0  0  0  0  0  0  0  0  0  0  0
  185.7080  179.6450  140.6360 O   0  0  0  0  0  1  0  0  0  0  0  0
  185.2920  177.8450  144.3950 C   0  0  0  0  0  3  0  0  0  0  0  0
  188.8420  176.6820  143.4360 C   0  0  0  0  0  2  0  0  0  0  0  0
  184.3890  179.1810  142.5920 C   0  0  0  0  0  3  0  0  0  0  0  0
  184.2380  178.5750  143.8410 C   0  0  0  0  0  0  0  0  0  0  0  0
  186.6540  178.3190  142.4360 C   0  0  0  0  0  0  0  0  0  0  0  0
  188.0210  177.3980  145.7230 C   0  0  0  0  0  0  0  0  0  0  0  0
  188.5540  178.2880  148.3330 C   0  0  0  0  0  3  0  0  0  0  0  0
  189.3290  177.3010  146.2560 C   0  0  0  0  0  0  0  0  0  0  0  0
  189.5810  177.7500  147.5570 C   0  0  0  0  0  3  0  0  0  0  0  0
  187.2620  178.3810  147.8130 C   0  0  0  0  0  3  0  0  0  0  0  0
  190.6880  176.6510  145.3530 Cl  0  0  0  0  0  0  0  0  0  0  0  0
  186.9990  177.9370  146.5170 C   0  0  0  0  0  3  0  0  0  0  0  0
  182.9670  178.7360  144.5990 C   0  0  0  0  0  2  0  0  0  0  0  0
  181.8950  179.3260  143.6970 C   0  0  0  0  0  2  0  0  0  0  0  0
  180.6870  178.4040  143.6340 C   0  0  1  0  0  3  0  0  0  0  0  0
  179.6760  178.9030  144.4550 O   0  0  0  0  0  1  0  0  0  0  0  0
  180.1850  178.2770  142.2320 C   0  0  0  0  0  0  0  0  0  0  0  0
  180.7470  178.8990  141.2920 O   0  0  0  0  0  0  0  0  0  0  0  0
  179.1010  177.4530  141.9630 O   0  0  0  0  0  1  0  0  0  0  0  0
  1 12  1  1  0  0  0
  2  1  1  0  0  0  0
  2  7  1  0  0  0  0
  3  8  1  0  0  0  0
  4 11  1  0  0  0  0
  4  3  1  0  0  0  0
  5 11  1  0  0  0  0
  5  9  2  0  0  0  0
  6  5  1  0  0  0  0
  8  1  1  0  0  0  0
  9 10  1  0  0  0  0
 10  7  2  0  0  0  0
 10 19  1  0  0  0  0
 11  2  2  0  0  0  0
 12 14  2  0  0  0  0
 12 18  1  0  0  0  0
 14 15  1  0  0  0  0
 15 13  2  0  0  0  0
 16 13  1  0  0  0  0
 17 14  1  0  0  0  0
 18 16  2  0  0  0  0
 20 19  1  0  0  0  0
 21 20  1  0  0  0  0
 21 22  1  1  0  0  0
 23 21  1  0  0  0  0
 24 23  2  0  0  0  0
 25 23  1  0  0  0  0
M  END
>  <MODEL>
5

>  <REMARK>
 VINA RESULT:      -8.9      4.282      7.362
  Name = 
  5 active torsions:
  status: ('A' for Active; 'I' for Inactive)
    1  A    between atoms: C_1  and  C_5
    2  A    between atoms: C_2  and  C_21
    3  A    between atoms: C_6  and  C_15
    4  A    between atoms: C_6  and  C_23
    5  A    between atoms: C_15  and  C_21
                            x       y       z     vdW  Elec       q    Type
                         _______ _______ _______ _____ _____    ______ ____

>  <TORSDO>
F 5

$$$$
=
 OpenBabel11052412413D

 25 27  0  0  1  0  0  0  0  0999 V2000
  186.4410  177.4000  143.3830 C   0  0  1  0  0  3  0  0  0  0  0  0
  186.7890  177.6980  144.8250 C   0  0  0  0  0  0  0  0  0  0  0  0
  184.8730  179.3780  143.4980 C   0  0  0  0  0  2  0  0  0  0  0  0
  184.8050  179.2680  145.0160 C   0  0  0  0  0  2  0  0  0  0  0  0
  186.4080  178.8890  146.9150 C   0  0  0  0  0  0  0  0  0  0  0  0
  185.6810  179.7880  147.6850 O   0  0  0  0  0  1  0  0  0  0  0  0
  187.8890  177.0540  145.4070 C   0  0  0  0  0  3  0  0  0  0  0  0
  185.1180  178.0020  142.8960 C   0  0  0  0  0  2  0  0  0  0  0  0
  187.5130  178.2450  147.4780 C   0  0  0  0  0  3  0  0  0  0  0  0
  188.2490  177.3240  146.7280 C   0  0  0  0  0  0  0  0  0  0  0  0
  186.0400  178.6250  145.5850 C   0  0  0  0  0  0  0  0  0  0  0  0
  187.5700  177.5930  142.4040 C   0  0  0  0  0  0  0  0  0  0  0  0
  189.6010  178.1320  140.5390 C   0  0  0  0  0  3  0  0  0  0  0  0
  188.6730  176.7150  142.2770 C   0  0  0  0  0  0  0  0  0  0  0  0
  189.6760  176.9940  141.3440 C   0  0  0  0  0  3  0  0  0  0  0  0
  188.5180  179.0030  140.6640 C   0  0  0  0  0  3  0  0  0  0  0  0
  188.8500  175.2530  143.2350 Cl  0  0  0  0  0  0  0  0  0  0  0  0
  187.5100  178.7340  141.5920 C   0  0  0  0  0  3  0  0  0  0  0  0
  189.4370  176.6560  147.3270 C   0  0  0  0  0  2  0  0  0  0  0  0
  190.6780  177.5040  147.1040 C   0  0  0  0  0  2  0  0  0  0  0  0
  191.7980  176.6630  146.5130 C   0  0  1  0  0  3  0  0  0  0  0  0
  191.7530  175.3790  147.0570 O   0  0  0  0  0  1  0  0  0  0  0  0
  191.6810  176.5860  145.0250 C   0  0  0  0  0  0  0  0  0  0  0  0
  191.3060  177.5880  144.3590 O   0  0  0  0  0  0  0  0  0  0  0  0
  192.0040  175.4060  144.3700 O   0  0  0  0  0  1  0  0  0  0  0  0
  1 12  1  6  0  0  0
  1  2  1  0  0  0  0
  2  7  2  0  0  0  0
  2 11  1  0  0  0  0
  3  4  1  0  0  0  0
  4 11  1  0  0  0  0
  5  9  1  0  0  0  0
  5  6  1  0  0  0  0
  7 10  1  0  0  0  0
  8  1  1  0  0  0  0
  8  3  1  0  0  0  0
 10 19  1  0  0  0  0
 10  9  2  0  0  0  0
 11  5  2  0  0  0  0
 13 16  2  0  0  0  0
 13 15  1  0  0  0  0
 14 12  1  0  0  0  0
 14 17  1  0  0  0  0
 15 14  2  0  0  0  0
 16 18  1  0  0  0  0
 18 12  2  0  0  0  0
 20 19  1  0  0  0  0
 21 22  1  1  0  0  0
 21 20  1  0  0  0  0
 23 21  1  0  0  0  0
 24 23  2  0  0  0  0
 25 23  1  0  0  0  0
M  END
>  <MODEL>
6

>  <REMARK>
 VINA RESULT:      -8.6      2.408      4.014
  Name = 
  5 active torsions:
  status: ('A' for Active; 'I' for Inactive)
    1  A    between atoms: C_1  and  C_5
    2  A    between atoms: C_2  and  C_21
    3  A    between atoms: C_6  and  C_15
    4  A    between atoms: C_6  and  C_23
    5  A    between atoms: C_15  and  C_21
                            x       y       z     vdW  Elec       q    Type
                         _______ _______ _______ _____ _____    ______ ____

>  <TORSDO>
F 5

$$$$
=
 OpenBabel11052412413D

 25 27  0  0  1  0  0  0  0  0999 V2000
  187.1210  177.0400  145.0240 C   0  0  1  0  0  3  0  0  0  0  0  0
  188.4760  177.1300  144.3580 C   0  0  0  0  0  0  0  0  0  0  0  0
  188.1980  178.1090  147.0440 C   0  0  0  0  0  2  0  0  0  0  0  0
  189.5750  177.6480  146.5850 C   0  0  0  0  0  2  0  0  0  0  0  0
  190.8720  177.5610  144.4340 C   0  0  0  0  0  0  0  0  0  0  0  0
  192.0270  177.8810  145.1370 O   0  0  0  0  0  1  0  0  0  0  0  0
  188.5750  176.8890  142.9810 C   0  0  0  0  0  3  0  0  0  0  0  0
  187.1410  177.1300  146.5540 C   0  0  0  0  0  2  0  0  0  0  0  0
  190.9520  177.3270  143.0580 C   0  0  0  0  0  3  0  0  0  0  0  0
  189.8080  176.9860  142.3340 C   0  0  0  0  0  0  0  0  0  0  0  0
  189.6350  177.4690  145.0930 C   0  0  0  0  0  0  0  0  0  0  0  0
  186.0490  177.8960  144.4000 C   0  0  0  0  0  0  0  0  0  0  0  0
  184.1240  179.4440  143.0620 C   0  0  0  0  0  3  0  0  0  0  0  0
  184.9730  178.4720  145.1180 C   0  0  0  0  0  0  0  0  0  0  0  0
  184.0220  179.2420  144.4400 C   0  0  0  0  0  3  0  0  0  0  0  0
  185.1800  178.8750  142.3510 C   0  0  0  0  0  3  0  0  0  0  0  0
  184.7660  178.2850  146.8520 Cl  0  0  0  0  0  0  0  0  0  0  0  0
  186.1350  178.1060  143.0170 C   0  0  0  0  0  3  0  0  0  0  0  0
  189.8960  176.7580  140.8650 C   0  0  0  0  0  2  0  0  0  0  0  0
  191.1970  177.3310  140.3260 C   0  0  0  0  0  2  0  0  0  0  0  0
  191.6240  176.5890  139.0700 C   0  0  1  0  0  3  0  0  0  0  0  0
  190.8480  177.0160  137.9910 O   0  0  0  0  0  1  0  0  0  0  0  0
  193.0710  176.8240  138.7760 C   0  0  0  0  0  0  0  0  0  0  0  0
  193.8690  177.1370  139.7000 O   0  0  0  0  0  1  0  0  0  0  0  0
  193.5410  176.6780  137.4790 O   0  0  0  0  0  0  0  0  0  0  0  0
  1 12  1  6  0  0  0
  1  8  1  0  0  0  0
  2  1  1  0  0  0  0
  2 11  1  0  0  0  0
  4  3  1  0  0  0  0
  5 11  2  0  0  0  0
  5  6  1  0  0  0  0
  7  2  2  0  0  0  0
  8  3  1  0  0  0  0
  9  5  1  0  0  0  0
 10  7  1  0  0  0  0
 10  9  2  0  0  0  0
 11  4  1  0  0  0  0
 12 14  1  0  0  0  0
 13 15  1  0  0  0  0
 14 17  1  0  0  0  0
 15 14  2  0  0  0  0
 16 18  1  0  0  0  0
 16 13  2  0  0  0  0
 18 12  2  0  0  0  0
 19 10  1  0  0  0  0
 20 19  1  0  0  0  0
 21 22  1  6  0  0  0
 21 20  1  0  0  0  0
 23 21  1  0  0  0  0
 23 24  1  0  0  0  0
 25 23  2  0  0  0  0
M  END
>  <MODEL>
7

>  <REMARK>
 VINA RESULT:      -8.5      1.744      2.639
  Name = 
  5 active torsions:
  status: ('A' for Active; 'I' for Inactive)
    1  A    between atoms: C_1  and  C_5
    2  A    between atoms: C_2  and  C_21
    3  A    between atoms: C_6  and  C_15
    4  A    between atoms: C_6  and  C_23
    5  A    between atoms: C_15  and  C_21
                            x       y       z     vdW  Elec       q    Type
                         _______ _______ _______ _____ _____    ______ ____

>  <TORSDO>
F 5

$$$$
=
 OpenBabel11052412413D

 25 27  0  0  1  0  0  0  0  0999 V2000
  186.4580  177.5300  143.4320 C   0  0  1  0  0  3  0  0  0  0  0  0
  186.7730  177.7930  144.8880 C   0  0  0  0  0  0  0  0  0  0  0  0
  184.9820  179.5790  143.5250 C   0  0  0  0  0  2  0  0  0  0  0  0
  184.8590  179.4520  145.0380 C   0  0  0  0  0  2  0  0  0  0  0  0
  186.3800  178.9740  146.9810 C   0  0  0  0  0  0  0  0  0  0  0  0
  185.6710  179.8960  147.7410 O   0  0  0  0  0  1  0  0  0  0  0  0
  187.8210  177.0890  145.4950 C   0  0  0  0  0  3  0  0  0  0  0  0
  185.1820  178.2000  142.9110 C   0  0  0  0  0  2  0  0  0  0  0  0
  187.4350  178.2700  147.5700 C   0  0  0  0  0  3  0  0  0  0  0  0
  188.1500  177.3250  146.8320 C   0  0  0  0  0  0  0  0  0  0  0  0
  186.0440  178.7440  145.6360 C   0  0  0  0  0  0  0  0  0  0  0  0
  187.6260  177.6820  142.4920 C   0  0  0  0  0  0  0  0  0  0  0  0
  189.9140  177.8750  140.8740 C   0  0  0  0  0  3  0  0  0  0  0  0
  187.5190  178.1410  141.1570 C   0  0  0  0  0  0  0  0  0  0  0  0
  188.6660  178.2330  140.3620 C   0  0  0  0  0  3  0  0  0  0  0  0
  190.0240  177.4180  142.1880 C   0  0  0  0  0  3  0  0  0  0  0  0
  185.9950  178.6260  140.4280 Cl  0  0  0  0  0  0  0  0  0  0  0  0
  188.8860  177.3220  142.9900 C   0  0  0  0  0  3  0  0  0  0  0  0
  189.2850  176.5940  147.4580 C   0  0  0  0  0  2  0  0  0  0  0  0
  190.5910  177.3200  147.1770 C   0  0  0  0  0  2  0  0  0  0  0  0
  191.3420  176.6440  146.0430 C   0  0  1  0  0  3  0  0  0  0  0  0
  192.0470  177.6020  145.3140 O   0  0  0  0  0  1  0  0  0  0  0  0
  192.2870  175.6110  146.5670 C   0  0  0  0  0  0  0  0  0  0  0  0
  192.5750  174.5970  145.8770 O   0  0  0  0  0  0  0  0  0  0  0  0
  192.8640  175.7800  147.8180 O   0  0  0  0  0  1  0  0  0  0  0  0
  1 12  1  6  0  0  0
  1  2  1  0  0  0  0
  2  7  2  0  0  0  0
  2 11  1  0  0  0  0
  3  4  1  0  0  0  0
  4 11  1  0  0  0  0
  5  9  1  0  0  0  0
  5  6  1  0  0  0  0
  7 10  1  0  0  0  0
  8  1  1  0  0  0  0
  8  3  1  0  0  0  0
 10 19  1  0  0  0  0
 10  9  2  0  0  0  0
 11  5  2  0  0  0  0
 12 18  1  0  0  0  0
 13 16  1  0  0  0  0
 14 12  2  0  0  0  0
 15 13  2  0  0  0  0
 15 14  1  0  0  0  0
 16 18  2  0  0  0  0
 17 14  1  0  0  0  0
 20 19  1  0  0  0  0
 21 22  1  1  0  0  0
 21 23  1  0  0  0  0
 21 20  1  0  0  0  0
 23 25  1  0  0  0  0
 24 23  2  0  0  0  0
M  END
>  <MODEL>
8

>  <REMARK>
 VINA RESULT:      -8.4      2.509      4.291
  Name = 
  5 active torsions:
  status: ('A' for Active; 'I' for Inactive)
    1  A    between atoms: C_1  and  C_5
    2  A    between atoms: C_2  and  C_21
    3  A    between atoms: C_6  and  C_15
    4  A    between atoms: C_6  and  C_23
    5  A    between atoms: C_15  and  C_21
                            x       y       z     vdW  Elec       q    Type
                         _______ _______ _______ _____ _____    ______ ____

>  <TORSDO>
F 5

$$$$
=
 OpenBabel11052412413D

 25 27  0  0  1  0  0  0  0  0999 V2000
  188.9560  176.6640  144.4500 C   0  0  1  0  0  3  0  0  0  0  0  0
  188.1600  177.3420  143.3560 C   0  0  0  0  0  0  0  0  0  0  0  0
  191.0260  177.5440  143.2970 C   0  0  0  0  0  2  0  0  0  0  0  0
  190.2670  177.6770  141.9830 C   0  0  0  0  0  2  0  0  0  0  0  0
  188.0200  178.5080  141.2220 C   0  0  0  0  0  0  0  0  0  0  0  0
  188.6170  179.0230  140.0790 O   0  0  0  0  0  1  0  0  0  0  0  0
  186.7720  177.4640  143.5000 C   0  0  0  0  0  3  0  0  0  0  0  0
  190.4300  176.4080  144.1180 C   0  0  0  0  0  2  0  0  0  0  0  0
  186.6370  178.6300  141.3860 C   0  0  0  0  0  3  0  0  0  0  0  0
  186.0130  178.1040  142.5180 C   0  0  0  0  0  0  0  0  0  0  0  0
  188.7920  177.8680  142.2070 C   0  0  0  0  0  0  0  0  0  0  0  0
  188.7560  177.2370  145.8290 C   0  0  0  0  0  0  0  0  0  0  0  0
  188.1920  178.3210  148.3590 C   0  0  0  0  0  3  0  0  0  0  0  0
  189.7570  177.2700  146.8300 C   0  0  0  0  0  0  0  0  0  0  0  0
  189.4630  177.8140  148.0840 C   0  0  0  0  0  3  0  0  0  0  0  0
  187.2010  178.2860  147.3770 C   0  0  0  0  0  3  0  0  0  0  0  0
  191.3880  176.6690  146.5760 Cl  0  0  0  0  0  0  0  0  0  0  0  0
  187.4830  177.7460  146.1210 C   0  0  0  0  0  3  0  0  0  0  0  0
  184.5420  178.2540  142.6970 C   0  0  0  0  0  2  0  0  0  0  0  0
  183.9130  178.7700  141.4130 C   0  0  0  0  0  2  0  0  0  0  0  0
  182.7900  177.8490  140.9640 C   0  0  1  0  0  3  0  0  0  0  0  0
  181.6110  178.5810  140.8320 O   0  0  0  0  0  1  0  0  0  0  0  0
  183.1260  177.1920  139.6640 C   0  0  0  0  0  0  0  0  0  0  0  0
  183.8770  177.7670  138.8310 O   0  0  0  0  0  0  0  0  0  0  0  0
  182.6200  175.9310  139.3810 O   0  0  0  0  0  1  0  0  0  0  0  0
  1 12  1  1  0  0  0
  2  7  1  0  0  0  0
  2  1  1  0  0  0  0
  3  8  1  0  0  0  0
  4 11  1  0  0  0  0
  4  3  1  0  0  0  0
  5  9  2  0  0  0  0
  5 11  1  0  0  0  0
  6  5  1  0  0  0  0
  8  1  1  0  0  0  0
  9 10  1  0  0  0  0
 10 19  1  0  0  0  0
 10  7  2  0  0  0  0
 11  2  2  0  0  0  0
 12 18  2  0  0  0  0
 12 14  1  0  0  0  0
 14 15  2  0  0  0  0
 15 13  1  0  0  0  0
 16 13  2  0  0  0  0
 17 14  1  0  0  0  0
 18 16  1  0  0  0  0
 20 19  1  0  0  0  0
 21 22  1  6  0  0  0
 21 20  1  0  0  0  0
 23 21  1  0  0  0  0
 24 23  2  0  0  0  0
 25 23  1  0  0  0  0
M  END
>  <MODEL>
9

>  <REMARK>
 VINA RESULT:      -8.4      3.267      6.413
  Name = 
  5 active torsions:
  status: ('A' for Active; 'I' for Inactive)
    1  A    between atoms: C_1  and  C_5
    2  A    between atoms: C_2  and  C_21
    3  A    between atoms: C_6  and  C_15
    4  A    between atoms: C_6  and  C_23
    5  A    between atoms: C_15  and  C_21
                            x       y       z     vdW  Elec       q    Type
                         _______ _______ _______ _____ _____    ______ ____

>  <TORSDO>
F 5

$$$$
