=
 OpenBabel11052415143D

 37 44  0  0  1  0  0  0  0  0999 V2000
  184.9200  180.1500  143.7970 O   0  0  0  0  0  0  0  0  0  0  0  0
  183.0620  176.9150  139.0720 C   0  0  0  0  0  3  0  0  0  0  0  0
  190.2440  177.5370  143.5480 C   0  0  0  0  0  2  0  0  0  0  0  0
  187.6590  178.4070  140.6110 C   0  0  0  0  0  0  0  0  0  0  0  0
  184.5080  179.9360  145.1360 C   0  0  1  0  0  3  0  0  0  0  0  0
  183.6090  178.3080  139.3210 C   0  0  2  0  0  0  0  0  0  0  0  0
  183.8950  178.6940  140.6940 C   0  0  2  0  0  3  0  0  0  0  0  0
  182.8280  179.3680  138.5830 C   0  0  0  0  0  3  0  0  0  0  0  0
  189.1780  176.5530  141.4190 C   0  0  1  0  0  3  0  0  0  0  0  0
  186.5080  179.2280  141.1190 C   0  0  1  0  0  3  0  0  0  0  0  0
  188.1460  177.6390  141.5900 C   0  0  0  0  0  0  0  0  0  0  0  0
  185.3120  178.8410  140.4110 N   0  0  0  0  0  0  0  0  0  0  0  0
  181.5490  180.0410  136.7490 F   0  0  0  0  0  0  0  0  0  0  0  0
  190.4490  177.1250  141.2070 O   0  0  0  0  0  0  0  0  0  0  0  0
  183.4560  178.9730  145.2940 O   0  0  0  0  0  0  0  0  0  0  0  0
  182.3220  177.6850  136.8350 C   0  0  0  0  0  2  0  0  0  0  0  0
  182.2180  179.0720  137.4250 C   0  0  0  0  0  0  0  0  0  0  0  0
  187.2960  177.8090  142.7600 C   0  0  0  0  0  0  0  0  0  0  0  0
  188.2020  177.4490  145.0010 C   0  0  0  0  0  2  0  0  0  0  0  0
  187.3680  178.3080  138.1110 C   0  0  0  0  0  3  0  0  0  0  0  0
  189.4840  178.4690  139.0010 F   0  0  0  0  0  0  0  0  0  0  0  0
  187.3580  177.0530  143.9280 O   0  0  0  0  0  0  0  0  0  0  0  0
  182.9570  178.4720  144.0620 C   0  0  2  0  0  3  0  0  0  0  0  0
  183.6970  177.5830  141.7460 C   0  0  0  0  0  2  0  0  0  0  0  0
  188.1460  178.4140  139.2060 C   0  0  0  0  0  0  0  0  0  0  0  0
  186.3960  178.7440  142.5180 C   0  0  0  0  0  0  0  0  0  0  0  0
  190.2690  176.4850  142.4450 C   0  0  1  0  0  3  0  0  0  0  0  0
  185.0780  178.4000  139.0330 C   0  0  0  0  0  0  0  0  0  0  0  0
  189.6230  176.9420  144.7990 C   0  0  0  0  0  2  0  0  0  0  0  0
  184.1060  177.9640  143.1870 C   0  0  1  0  0  3  0  0  0  0  0  0
  182.4550  176.6330  137.9100 C   0  0  0  0  0  3  0  0  0  0  0  0
  185.1980  178.9260  143.2760 N   0  0  0  0  0  0  0  0  0  0  0  0
  185.8950  178.1810  138.0120 C   0  0  0  0  0  3  0  0  0  0  0  0
  182.0670  179.5040  143.3680 C   0  0  0  0  0  2  0  0  0  0  0  0
  180.7660  179.0110  143.2610 O   0  0  0  0  0  1  0  0  0  0  0  0
  185.2110  178.5250  146.8670 C   0  0  0  0  0  1  0  0  0  0  0  0
  185.6480  179.5810  145.9710 N   0  0  0  0  0  2  0  0  0  0  0  0
  1  5  1  0  0  0  0
  2  6  1  0  0  0  0
  3 29  1  0  0  0  0
  4 11  2  0  0  0  0
  5 15  1  0  0  0  0
  5 37  1  1  0  0  0
  6  8  1  6  0  0  0
  6  7  1  0  0  0  0
  7 24  1  1  0  0  0
  9 14  1  6  0  0  0
  9 11  1  0  0  0  0
  9 27  1  0  0  0  0
 10  4  1  6  0  0  0
 10 26  1  0  0  0  0
 11 18  1  0  0  0  0
 12  7  1  0  0  0  0
 12 10  1  0  0  0  0
 13 17  1  0  0  0  0
 14 27  1  0  0  0  0
 16 17  1  0  0  0  0
 16 31  1  0  0  0  0
 17  8  2  0  0  0  0
 18 22  1  0  0  0  0
 20 25  2  0  0  0  0
 21 25  1  0  0  0  0
 22 19  1  0  0  0  0
 23 34  1  6  0  0  0
 23 15  1  0  0  0  0
 25  4  1  0  0  0  0
 26 18  2  0  0  0  0
 26 32  1  0  0  0  0
 27  3  1  1  0  0  0
 28  6  1  0  0  0  0
 28 12  1  0  0  0  0
 29 19  1  0  0  0  0
 30 24  1  6  0  0  0
 30 32  1  0  0  0  0
 30 23  1  0  0  0  0
 31  2  2  0  0  0  0
 32  1  1  0  0  0  0
 33 20  1  0  0  0  0
 33 28  2  0  0  0  0
 35 34  1  0  0  0  0
 37 36  1  0  0  0  0
M  END
>  <MODEL>
1

>  <REMARK>
 VINA RESULT:      -8.2      0.000      0.000
  Name = 
  2 active torsions:
  status: ('A' for Active; 'I' for Inactive)
    1  A    between atoms: C_5  and  N_23
    2  A    between atoms: C_11  and  C_26
                            x       y       z     vdW  Elec       q    Type
                         _______ _______ _______ _____ _____    ______ ____

>  <TORSDO>
F 2

$$$$
=
 OpenBabel11052415143D

 37 44  0  0  1  0  0  0  0  0999 V2000
  189.9550  177.8390  136.8200 O   0  0  0  0  0  0  0  0  0  0  0  0
  188.8520  176.4200  142.5660 C   0  0  0  0  0  3  0  0  0  0  0  0
  184.2250  177.0600  135.4820 C   0  0  0  0  0  2  0  0  0  0  0  0
  185.9300  178.3230  138.8820 C   0  0  0  0  0  0  0  0  0  0  0  0
  190.6280  177.0030  135.8960 C   0  0  1  0  0  3  0  0  0  0  0  0
  189.0100  177.6840  141.7430 C   0  0  2  0  0  0  0  0  0  0  0  0
  189.3280  177.5440  140.3310 C   0  0  2  0  0  3  0  0  0  0  0  0
  189.8890  178.7030  142.4260 C   0  0  0  0  0  3  0  0  0  0  0  0
  184.1150  176.7750  138.0400 C   0  0  1  0  0  3  0  0  0  0  0  0
  187.4070  178.5320  138.7110 C   0  0  1  0  0  3  0  0  0  0  0  0
  185.4950  177.3840  138.0370 C   0  0  0  0  0  0  0  0  0  0  0  0
  188.0760  178.1620  139.9340 N   0  0  0  0  0  0  0  0  0  0  0  0
  190.7150  179.6940  144.3720 F   0  0  0  0  0  0  0  0  0  0  0  0
  183.1800  177.6980  137.5300 O   0  0  0  0  0  0  0  0  0  0  0  0
  191.2010  175.8160  136.4650 O   0  0  0  0  0  0  0  0  0  0  0  0
  189.1290  177.8000  144.6060 C   0  0  0  0  0  2  0  0  0  0  0  0
  189.9510  178.7490  143.7660 C   0  0  0  0  0  0  0  0  0  0  0  0
  186.6500  176.8360  137.3410 C   0  0  0  0  0  0  0  0  0  0  0  0
  186.3940  175.8560  135.1160 C   0  0  0  0  0  2  0  0  0  0  0  0
  185.3910  179.1670  141.1940 C   0  0  0  0  0  3  0  0  0  0  0  0
  183.8900  179.5100  139.4830 F   0  0  0  0  0  0  0  0  0  0  0  0
  186.6440  175.7190  136.5080 O   0  0  0  0  0  0  0  0  0  0  0  0
  191.0630  175.7430  137.8780 C   0  0  2  0  0  3  0  0  0  0  0  0
  189.3710  176.0940  139.8050 C   0  0  0  0  0  2  0  0  0  0  0  0
  185.0880  179.0240  139.8890 C   0  0  0  0  0  0  0  0  0  0  0  0
  187.7310  177.5140  137.6790 C   0  0  0  0  0  0  0  0  0  0  0  0
  183.4510  176.5900  136.7090 C   0  0  1  0  0  3  0  0  0  0  0  0
  187.6870  178.2690  141.3440 C   0  0  0  0  0  0  0  0  0  0  0  0
  184.9000  175.8700  134.8250 C   0  0  0  0  0  2  0  0  0  0  0  0
  189.6020  175.9540  138.2830 C   0  0  1  0  0  3  0  0  0  0  0  0
  188.9160  176.4800  143.9040 C   0  0  0  0  0  3  0  0  0  0  0  0
  189.0680  177.0510  137.4830 N   0  0  0  0  0  0  0  0  0  0  0  0
  186.5860  178.7050  141.9390 C   0  0  0  0  0  3  0  0  0  0  0  0
  192.0380  176.6910  138.5770 C   0  0  0  0  0  2  0  0  0  0  0  0
  193.3330  176.4690  138.1060 O   0  0  0  0  0  1  0  0  0  0  0  0
  189.8470  175.2210  134.5940 C   0  0  0  0  0  1  0  0  0  0  0  0
  189.7500  176.6570  134.7870 N   0  0  0  0  0  2  0  0  0  0  0  0
  1 32  1  0  0  0  0
  2 31  2  0  0  0  0
  4 25  1  0  0  0  0
  5 37  1  6  0  0  0
  5 15  1  0  0  0  0
  5  1  1  0  0  0  0
  6  8  1  1  0  0  0
  6  2  1  0  0  0  0
  7 24  1  6  0  0  0
  7  6  1  0  0  0  0
  8 17  2  0  0  0  0
  9 14  1  1  0  0  0
 10 26  1  6  0  0  0
 10  4  1  0  0  0  0
 10 12  1  0  0  0  0
 11  9  1  0  0  0  0
 11  4  2  0  0  0  0
 12  7  1  0  0  0  0
 12 28  1  0  0  0  0
 15 23  1  0  0  0  0
 17 13  1  0  0  0  0
 17 16  1  0  0  0  0
 18 26  2  0  0  0  0
 18 11  1  0  0  0  0
 19 22  1  0  0  0  0
 20 33  1  0  0  0  0
 21 25  1  0  0  0  0
 22 18  1  0  0  0  0
 23 30  1  0  0  0  0
 23 34  1  1  0  0  0
 25 20  2  0  0  0  0
 27  3  1  6  0  0  0
 27 14  1  0  0  0  0
 27  9  1  0  0  0  0
 28  6  1  0  0  0  0
 28 33  2  0  0  0  0
 29 19  1  0  0  0  0
 29  3  1  0  0  0  0
 30 24  1  1  0  0  0
 31 16  1  0  0  0  0
 32 26  1  0  0  0  0
 32 30  1  0  0  0  0
 35 34  1  0  0  0  0
 36 37  1  0  0  0  0
M  END
>  <MODEL>
2

>  <REMARK>
 VINA RESULT:      -7.0      3.551      8.431
  Name = 
  2 active torsions:
  status: ('A' for Active; 'I' for Inactive)
    1  A    between atoms: C_5  and  N_23
    2  A    between atoms: C_11  and  C_26
                            x       y       z     vdW  Elec       q    Type
                         _______ _______ _______ _____ _____    ______ ____

>  <TORSDO>
F 2

$$$$
=
 OpenBabel11052415143D

 37 44  0  0  1  0  0  0  0  0999 V2000
  187.5410  179.0540  137.2340 O   0  0  0  0  0  0  0  0  0  0  0  0
  188.7320  176.3810  142.4960 C   0  0  0  0  0  3  0  0  0  0  0  0
  181.7810  177.7500  137.8260 C   0  0  0  0  0  2  0  0  0  0  0  0
  184.5450  178.5420  140.6180 C   0  0  0  0  0  0  0  0  0  0  0  0
  187.8740  178.5210  135.9640 C   0  0  1  0  0  3  0  0  0  0  0  0
  188.4980  177.7930  141.9930 C   0  0  2  0  0  0  0  0  0  0  0  0
  188.2780  177.9820  140.5680 C   0  0  2  0  0  3  0  0  0  0  0  0
  189.5040  178.7700  142.5490 C   0  0  0  0  0  3  0  0  0  0  0  0
  182.6440  176.9510  140.1170 C   0  0  1  0  0  3  0  0  0  0  0  0
  185.8380  178.9900  139.9980 C   0  0  1  0  0  3  0  0  0  0  0  0
  183.8850  177.7380  139.7790 C   0  0  0  0  0  0  0  0  0  0  0  0
  186.9330  178.4830  140.7890 N   0  0  0  0  0  0  0  0  0  0  0  0
  190.9310  179.4630  144.2630 F   0  0  0  0  0  0  0  0  0  0  0  0
  181.5330  177.8150  140.1980 O   0  0  0  0  0  0  0  0  0  0  0  0
  188.6860  177.3400  136.0010 O   0  0  0  0  0  0  0  0  0  0  0  0
  189.6610  177.3550  144.5780 C   0  0  0  0  0  2  0  0  0  0  0  0
  190.0550  178.5580  143.7540 C   0  0  0  0  0  0  0  0  0  0  0  0
  184.7310  177.5090  138.6170 C   0  0  0  0  0  0  0  0  0  0  0  0
  183.7290  176.9630  136.4560 C   0  0  0  0  0  2  0  0  0  0  0  0
  184.8510  178.8270  143.1020 C   0  0  0  0  0  3  0  0  0  0  0  0
  182.8060  179.2850  142.1520 F   0  0  0  0  0  0  0  0  0  0  0  0
  184.4840  176.5890  137.5990 O   0  0  0  0  0  0  0  0  0  0  0  0
  189.0860  176.9680  137.3140 C   0  0  2  0  0  3  0  0  0  0  0  0
  188.2100  176.6870  139.7330 C   0  0  0  0  0  2  0  0  0  0  0  0
  184.0960  178.9040  141.9890 C   0  0  0  0  0  0  0  0  0  0  0  0
  185.8180  178.2530  138.7090 C   0  0  0  0  0  0  0  0  0  0  0  0
  181.5460  176.9420  139.0960 C   0  0  1  0  0  3  0  0  0  0  0  0
  187.0890  178.2520  142.2290 C   0  0  0  0  0  0  0  0  0  0  0  0
  182.2350  176.8230  136.7130 C   0  0  0  0  0  2  0  0  0  0  0  0
  187.8690  176.8860  138.2390 C   0  0  1  0  0  3  0  0  0  0  0  0
  189.2830  176.1840  143.7030 C   0  0  0  0  0  3  0  0  0  0  0  0
  187.0120  178.0320  137.9580 N   0  0  0  0  0  0  0  0  0  0  0  0
  186.2620  178.4010  143.2540 C   0  0  0  0  0  3  0  0  0  0  0  0
  190.1920  177.8880  137.8330 C   0  0  0  0  0  2  0  0  0  0  0  0
  191.2960  177.1280  138.2210 O   0  0  0  0  0  1  0  0  0  0  0  0
  186.7960  176.9590  134.5940 C   0  0  0  0  0  1  0  0  0  0  0  0
  186.6690  178.2810  135.1810 N   0  0  0  0  0  2  0  0  0  0  0  0
  1 32  1  0  0  0  0
  2 31  2  0  0  0  0
  4 25  1  0  0  0  0
  5 37  1  1  0  0  0
  5 15  1  0  0  0  0
  5  1  1  0  0  0  0
  6 28  1  0  0  0  0
  6  2  1  1  0  0  0
  6  8  1  0  0  0  0
  7 24  1  6  0  0  0
  7 12  1  0  0  0  0
  7  6  1  0  0  0  0
  8 17  2  0  0  0  0
  9 11  1  6  0  0  0
  9 14  1  0  0  0  0
 10 26  1  6  0  0  0
 10  4  1  0  0  0  0
 10 12  1  0  0  0  0
 11  4  2  0  0  0  0
 12 28  1  0  0  0  0
 15 23  1  0  0  0  0
 17 13  1  0  0  0  0
 17 16  1  0  0  0  0
 18 26  2  0  0  0  0
 18 11  1  0  0  0  0
 19 29  1  0  0  0  0
 19 22  1  0  0  0  0
 20 33  1  0  0  0  0
 22 18  1  0  0  0  0
 23 34  1  1  0  0  0
 23 30  1  0  0  0  0
 25 21  1  0  0  0  0
 25 20  2  0  0  0  0
 27  3  1  6  0  0  0
 27  9  1  0  0  0  0
 27 14  1  0  0  0  0
 28 33  2  0  0  0  0
 29  3  1  0  0  0  0
 30 24  1  1  0  0  0
 31 16  1  0  0  0  0
 32 30  1  0  0  0  0
 32 26  1  0  0  0  0
 34 35  1  0  0  0  0
 36 37  1  0  0  0  0
M  END
>  <MODEL>
3

>  <REMARK>
 VINA RESULT:      -6.8      2.828      7.995
  Name = 
  2 active torsions:
  status: ('A' for Active; 'I' for Inactive)
    1  A    between atoms: C_5  and  N_23
    2  A    between atoms: C_11  and  C_26
                            x       y       z     vdW  Elec       q    Type
                         _______ _______ _______ _____ _____    ______ ____

>  <TORSDO>
F 2

$$$$
=
 OpenBabel11052415143D

 37 44  0  0  1  0  0  0  0  0999 V2000
  182.7210  176.5120  139.9170 O   0  0  0  0  0  0  0  0  0  0  0  0
  186.4340  177.3750  135.2580 C   0  0  0  0  0  3  0  0  0  0  0  0
  180.1480  171.9760  137.0810 C   0  0  0  0  0  2  0  0  0  0  0  0
  183.9290  173.2960  136.9360 C   0  0  0  0  0  0  0  0  0  0  0  0
  181.6320  177.3550  140.2500 C   0  0  1  0  0  3  0  0  0  0  0  0
  186.4830  176.6800  136.6050 C   0  0  2  0  0  0  0  0  0  0  0  0
  185.3110  176.7700  137.4630 C   0  0  2  0  0  3  0  0  0  0  0  0
  187.7600  176.9750  137.3540 C   0  0  0  0  0  3  0  0  0  0  0  0
  182.0610  172.4880  135.4340 C   0  0  1  0  0  3  0  0  0  0  0  0
  184.1750  174.3700  137.9560 C   0  0  1  0  0  3  0  0  0  0  0  0
  182.6450  173.2960  136.5660 C   0  0  0  0  0  0  0  0  0  0  0  0
  185.0950  175.3350  137.4050 N   0  0  0  0  0  0  0  0  0  0  0  0
  190.0430  177.4630  137.3620 F   0  0  0  0  0  0  0  0  0  0  0  0
  181.9780  171.1300  135.8050 O   0  0  0  0  0  0  0  0  0  0  0  0
  181.5530  178.5660  139.4840 O   0  0  0  0  0  0  0  0  0  0  0  0
  188.9070  177.2170  135.1700 C   0  0  0  0  0  2  0  0  0  0  0  0
  188.8910  177.2360  136.6800 C   0  0  0  0  0  0  0  0  0  0  0  0
  181.9900  174.4210  137.2170 C   0  0  0  0  0  0  0  0  0  0  0  0
  179.5900  174.3480  137.6740 C   0  0  0  0  0  2  0  0  0  0  0  0
  186.1810  172.8030  135.9180 C   0  0  0  0  0  3  0  0  0  0  0  0
  184.6940  171.0820  136.2730 F   0  0  0  0  0  0  0  0  0  0  0  0
  180.6980  174.8720  136.9550 O   0  0  0  0  0  0  0  0  0  0  0  0
  182.6410  178.7400  138.5870 C   0  0  2  0  0  3  0  0  0  0  0  0
  184.0970  177.4950  136.8450 C   0  0  0  0  0  2  0  0  0  0  0  0
  184.9800  172.4020  136.3810 C   0  0  0  0  0  0  0  0  0  0  0  0
  182.8360  175.0050  138.0450 C   0  0  0  0  0  0  0  0  0  0  0  0
  180.7510  171.8060  135.6920 C   0  0  1  0  0  3  0  0  0  0  0  0
  186.2340  175.2050  136.4910 C   0  0  0  0  0  0  0  0  0  0  0  0
  179.0850  173.0580  137.0430 C   0  0  0  0  0  2  0  0  0  0  0  0
  182.8200  177.4930  137.7160 C   0  0  1  0  0  3  0  0  0  0  0  0
  187.5730  177.6300  134.5950 C   0  0  0  0  0  3  0  0  0  0  0  0
  182.6680  176.3220  138.5720 N   0  0  0  0  0  0  0  0  0  0  0  0
  186.7560  174.1670  135.8530 C   0  0  0  0  0  3  0  0  0  0  0  0
  183.9100  179.1550  139.3330 C   0  0  0  0  0  2  0  0  0  0  0  0
  184.1810  180.5020  139.0930 O   0  0  0  0  0  1  0  0  0  0  0  0
  179.3540  177.5690  139.7540 C   0  0  0  0  0  1  0  0  0  0  0  0
  180.3750  176.6240  140.1670 N   0  0  0  0  0  2  0  0  0  0  0  0
  1  5  1  0  0  0  0
  5 37  1  6  0  0  0
  6  2  1  6  0  0  0
  6  8  1  0  0  0  0
  6  7  1  0  0  0  0
  7 24  1  6  0  0  0
  9 27  1  0  0  0  0
  9 14  1  1  0  0  0
  9 11  1  0  0  0  0
 10  4  1  6  0  0  0
 10 26  1  0  0  0  0
 11  4  2  0  0  0  0
 11 18  1  0  0  0  0
 12  7  1  0  0  0  0
 12 10  1  0  0  0  0
 15  5  1  0  0  0  0
 16 17  1  0  0  0  0
 17  8  2  0  0  0  0
 17 13  1  0  0  0  0
 18 26  2  0  0  0  0
 20 25  2  0  0  0  0
 21 25  1  0  0  0  0
 22 18  1  0  0  0  0
 22 19  1  0  0  0  0
 23 34  1  1  0  0  0
 23 15  1  0  0  0  0
 25  4  1  0  0  0  0
 26 32  1  0  0  0  0
 27 14  1  0  0  0  0
 27  3  1  1  0  0  0
 28  6  1  0  0  0  0
 28 12  1  0  0  0  0
 29  3  1  0  0  0  0
 29 19  1  0  0  0  0
 30 24  1  1  0  0  0
 30 32  1  0  0  0  0
 30 23  1  0  0  0  0
 31 16  1  0  0  0  0
 31  2  2  0  0  0  0
 32  1  1  0  0  0  0
 33 20  1  0  0  0  0
 33 28  2  0  0  0  0
 35 34  1  0  0  0  0
 36 37  1  0  0  0  0
M  END
>  <MODEL>
4

>  <REMARK>
 VINA RESULT:      -6.4      4.740      7.810
  Name = 
  2 active torsions:
  status: ('A' for Active; 'I' for Inactive)
    1  A    between atoms: C_5  and  N_23
    2  A    between atoms: C_11  and  C_26
                            x       y       z     vdW  Elec       q    Type
                         _______ _______ _______ _____ _____    ______ ____

>  <TORSDO>
F 2

$$$$
=
 OpenBabel11052415143D

 37 44  0  0  1  0  0  0  0  0999 V2000
  182.5150  174.7720  138.4920 O   0  0  0  0  0  0  0  0  0  0  0  0
  187.0650  177.4050  135.5580 C   0  0  0  0  0  3  0  0  0  0  0  0
  183.5390  169.6870  135.6050 C   0  0  0  0  0  2  0  0  0  0  0  0
  186.0850  172.5690  136.7340 C   0  0  0  0  0  0  0  0  0  0  0  0
  181.1420  175.0220  138.2470 C   0  0  1  0  0  3  0  0  0  0  0  0
  186.8430  176.7500  136.9080 C   0  0  2  0  0  0  0  0  0  0  0  0
  185.5060  176.2680  137.2210 C   0  0  2  0  0  3  0  0  0  0  0  0
  187.4370  177.5540  138.0380 C   0  0  0  0  0  3  0  0  0  0  0  0
  185.5430  171.0730  134.7690 C   0  0  1  0  0  3  0  0  0  0  0  0
  185.4060  173.5960  137.5950 C   0  0  1  0  0  3  0  0  0  0  0  0
  185.2040  172.0080  135.9010 C   0  0  0  0  0  0  0  0  0  0  0  0
  185.9650  174.8930  137.3030 N   0  0  0  0  0  0  0  0  0  0  0  0
  189.0660  179.0140  138.8540 F   0  0  0  0  0  0  0  0  0  0  0  0
  185.9000  169.8070  135.2790 O   0  0  0  0  0  0  0  0  0  0  0  0
  180.8810  176.1000  137.3360 O   0  0  0  0  0  0  0  0  0  0  0  0
  189.1610  178.3780  136.4580 C   0  0  0  0  0  2  0  0  0  0  0  0
  188.5160  178.3230  137.8230 C   0  0  0  0  0  0  0  0  0  0  0  0
  183.9290  172.6910  136.0700 C   0  0  0  0  0  0  0  0  0  0  0  0
  181.8370  171.5290  135.5700 C   0  0  0  0  0  2  0  0  0  0  0  0
  188.5290  173.1820  136.7530 C   0  0  0  0  0  3  0  0  0  0  0  0
  187.9150  170.9640  136.7620 F   0  0  0  0  0  0  0  0  0  0  0  0
  182.8040  172.5250  135.2640 O   0  0  0  0  0  0  0  0  0  0  0  0
  182.0550  176.7810  136.9140 C   0  0  2  0  0  3  0  0  0  0  0  0
  184.4750  176.3960  136.0810 C   0  0  0  0  0  2  0  0  0  0  0  0
  187.5410  172.2660  136.7710 C   0  0  0  0  0  0  0  0  0  0  0  0
  184.0200  173.5570  137.0620 C   0  0  0  0  0  0  0  0  0  0  0  0
  184.6710  169.8650  134.6000 C   0  0  1  0  0  3  0  0  0  0  0  0
  187.3160  175.3260  136.9310 C   0  0  0  0  0  0  0  0  0  0  0  0
  182.2380  170.1780  134.9950 C   0  0  0  0  0  2  0  0  0  0  0  0
  183.0870  175.7850  136.3800 C   0  0  1  0  0  3  0  0  0  0  0  0
  188.1470  178.1710  135.3570 C   0  0  0  0  0  3  0  0  0  0  0  0
  183.1090  174.6350  137.2770 N   0  0  0  0  0  0  0  0  0  0  0  0
  188.4400  174.6610  136.7100 C   0  0  0  0  0  3  0  0  0  0  0  0
  182.5920  177.6900  138.0200 C   0  0  0  0  0  2  0  0  0  0  0  0
  181.9830  178.9420  137.9420 O   0  0  0  0  0  1  0  0  0  0  0  0
  179.3610  174.2160  136.9580 C   0  0  0  0  0  1  0  0  0  0  0  0
  180.4740  173.8080  137.7960 N   0  0  0  0  0  2  0  0  0  0  0  0
  4 25  1  0  0  0  0
  5 37  1  6  0  0  0
  5  1  1  0  0  0  0
  6  2  1  6  0  0  0
  6 28  1  0  0  0  0
  6  7  1  0  0  0  0
  6  8  1  0  0  0  0
  7 24  1  6  0  0  0
  7 12  1  0  0  0  0
  9 14  1  1  0  0  0
  9 11  1  0  0  0  0
 10  4  1  6  0  0  0
 11 18  1  0  0  0  0
 11  4  2  0  0  0  0
 12 10  1  0  0  0  0
 15  5  1  0  0  0  0
 16 17  1  0  0  0  0
 17  8  2  0  0  0  0
 17 13  1  0  0  0  0
 18 26  2  0  0  0  0
 20 25  2  0  0  0  0
 21 25  1  0  0  0  0
 22 19  1  0  0  0  0
 22 18  1  0  0  0  0
 23 15  1  0  0  0  0
 23 34  1  1  0  0  0
 26 32  1  0  0  0  0
 26 10  1  0  0  0  0
 27  9  1  0  0  0  0
 27 14  1  0  0  0  0
 27  3  1  1  0  0  0
 28 12  1  0  0  0  0
 29 19  1  0  0  0  0
 29  3  1  0  0  0  0
 30 24  1  1  0  0  0
 30 23  1  0  0  0  0
 30 32  1  0  0  0  0
 31  2  2  0  0  0  0
 31 16  1  0  0  0  0
 32  1  1  0  0  0  0
 33 20  1  0  0  0  0
 33 28  2  0  0  0  0
 35 34  1  0  0  0  0
 36 37  1  0  0  0  0
M  END
>  <MODEL>
5

>  <REMARK>
 VINA RESULT:      -5.8      5.334      8.293
  Name = 
  2 active torsions:
  status: ('A' for Active; 'I' for Inactive)
    1  A    between atoms: C_5  and  N_23
    2  A    between atoms: C_11  and  C_26
                            x       y       z     vdW  Elec       q    Type
                         _______ _______ _______ _____ _____    ______ ____

>  <TORSDO>
F 2

$$$$
=
 OpenBabel11052415143D

 37 44  0  0  1  0  0  0  0  0999 V2000
  183.8120  177.4700  141.3070 O   0  0  0  0  0  0  0  0  0  0  0  0
  187.1190  178.2610  136.3380 C   0  0  0  0  0  3  0  0  0  0  0  0
  178.9310  179.1520  138.3780 C   0  0  0  0  0  2  0  0  0  0  0  0
  182.2010  177.2480  137.0590 C   0  0  0  0  0  0  0  0  0  0  0  0
  183.8330  178.3250  142.4370 C   0  0  1  0  0  3  0  0  0  0  0  0
  186.4510  177.1040  137.0580 C   0  0  2  0  0  0  0  0  0  0  0  0
  185.7620  177.3840  138.3080 C   0  0  2  0  0  3  0  0  0  0  0  0
  187.3540  175.9000  137.1630 C   0  0  0  0  0  3  0  0  0  0  0  0
  180.6140  179.1140  136.4290 C   0  0  1  0  0  3  0  0  0  0  0  0
  183.1130  176.8720  138.1930 C   0  0  1  0  0  3  0  0  0  0  0  0
  181.4950  178.3370  137.3750 C   0  0  0  0  0  0  0  0  0  0  0  0
  184.4800  176.9910  137.7490 N   0  0  0  0  0  0  0  0  0  0  0  0
  189.0680  174.5660  136.3080 F   0  0  0  0  0  0  0  0  0  0  0  0
  179.4300  178.3930  136.1720 O   0  0  0  0  0  0  0  0  0  0  0  0
  184.8440  179.3430  142.4010 O   0  0  0  0  0  0  0  0  0  0  0  0
  188.4290  176.6020  135.0430 C   0  0  0  0  0  2  0  0  0  0  0  0
  188.2860  175.6720  136.2250 C   0  0  0  0  0  0  0  0  0  0  0  0
  181.9630  178.8160  138.6680 C   0  0  0  0  0  0  0  0  0  0  0  0
  180.4710  180.1020  140.1160 C   0  0  0  0  0  2  0  0  0  0  0  0
  183.2040  176.1860  135.0060 C   0  0  0  0  0  3  0  0  0  0  0  0
  180.9150  176.2670  135.2390 F   0  0  0  0  0  0  0  0  0  0  0  0
  181.6070  180.0230  139.2660 O   0  0  0  0  0  0  0  0  0  0  0  0
  185.7020  179.2490  141.2720 C   0  0  2  0  0  3  0  0  0  0  0  0
  185.7070  178.8720  138.7110 C   0  0  0  0  0  2  0  0  0  0  0  0
  182.1390  176.5360  135.7550 C   0  0  0  0  0  0  0  0  0  0  0  0
  182.8430  177.9650  139.1610 C   0  0  0  0  0  0  0  0  0  0  0  0
  179.2800  179.5540  136.9500 C   0  0  1  0  0  3  0  0  0  0  0  0
  185.1230  176.7520  136.4530 C   0  0  0  0  0  0  0  0  0  0  0  0
  179.1960  180.3200  139.3120 C   0  0  0  0  0  2  0  0  0  0  0  0
  184.8810  179.1780  139.9820 C   0  0  1  0  0  3  0  0  0  0  0  0
  188.0490  178.0190  135.4020 C   0  0  0  0  0  3  0  0  0  0  0  0
  183.7610  178.2730  140.2120 N   0  0  0  0  0  0  0  0  0  0  0  0
  184.6480  176.3880  135.2710 C   0  0  0  0  0  3  0  0  0  0  0  0
  186.6990  178.1000  141.4320 C   0  0  0  0  0  2  0  0  0  0  0  0
  188.0020  178.5880  141.3430 O   0  0  0  0  0  1  0  0  0  0  0  0
  182.2730  178.9160  144.0780 C   0  0  0  0  0  1  0  0  0  0  0  0
  182.5220  178.9230  142.6480 N   0  0  0  0  0  2  0  0  0  0  0  0
  1  5  1  0  0  0  0
  3 29  1  0  0  0  0
  4 11  2  0  0  0  0
  5 37  1  6  0  0  0
  6  2  1  6  0  0  0
  6  8  1  0  0  0  0
  6  7  1  0  0  0  0
  7 24  1  6  0  0  0
  9 14  1  6  0  0  0
  9 27  1  0  0  0  0
  9 11  1  0  0  0  0
 10  4  1  6  0  0  0
 10 26  1  0  0  0  0
 11 18  1  0  0  0  0
 12 10  1  0  0  0  0
 12  7  1  0  0  0  0
 14 27  1  0  0  0  0
 15  5  1  0  0  0  0
 16 31  1  0  0  0  0
 16 17  1  0  0  0  0
 17 13  1  0  0  0  0
 17  8  2  0  0  0  0
 18 26  2  0  0  0  0
 18 22  1  0  0  0  0
 20 33  1  0  0  0  0
 20 25  2  0  0  0  0
 21 25  1  0  0  0  0
 22 19  1  0  0  0  0
 23 34  1  1  0  0  0
 23 15  1  0  0  0  0
 25  4  1  0  0  0  0
 26 32  1  0  0  0  0
 27  3  1  1  0  0  0
 28  6  1  0  0  0  0
 28 12  1  0  0  0  0
 29 19  1  0  0  0  0
 30 24  1  6  0  0  0
 30 32  1  0  0  0  0
 30 23  1  0  0  0  0
 31  2  2  0  0  0  0
 32  1  1  0  0  0  0
 33 28  2  0  0  0  0
 35 34  1  0  0  0  0
 37 36  1  0  0  0  0
M  END
>  <MODEL>
6

>  <REMARK>
 VINA RESULT:      -5.5      2.762      6.978
  Name = 
  2 active torsions:
  status: ('A' for Active; 'I' for Inactive)
    1  A    between atoms: C_5  and  N_23
    2  A    between atoms: C_11  and  C_26
                            x       y       z     vdW  Elec       q    Type
                         _______ _______ _______ _____ _____    ______ ____

>  <TORSDO>
F 2

$$$$
=
 OpenBabel11052415143D

 37 44  0  0  1  0  0  0  0  0999 V2000
  185.6890  179.9970  142.2750 O   0  0  0  0  0  0  0  0  0  0  0  0
  186.4930  176.2220  137.6550 C   0  0  0  0  0  3  0  0  0  0  0  0
  189.9840  177.2540  145.3190 C   0  0  0  0  0  2  0  0  0  0  0  0
  189.5660  177.7970  141.3710 C   0  0  0  0  0  0  0  0  0  0  0  0
  184.5830  179.9670  143.1610 C   0  0  1  0  0  3  0  0  0  0  0  0
  186.9330  177.6230  138.0360 C   0  0  2  0  0  0  0  0  0  0  0  0
  186.4390  178.1760  139.2880 C   0  0  2  0  0  3  0  0  0  0  0  0
  186.7960  178.5960  136.8910 C   0  0  0  0  0  3  0  0  0  0  0  0
  190.2000  176.0280  143.0640 C   0  0  1  0  0  3  0  0  0  0  0  0
  188.4080  178.7020  141.0600 C   0  0  1  0  0  3  0  0  0  0  0  0
  189.3520  177.1510  142.5210 C   0  0  0  0  0  0  0  0  0  0  0  0
  187.7800  178.2540  139.8410 N   0  0  0  0  0  0  0  0  0  0  0  0
  186.8240  179.0550  134.6020 F   0  0  0  0  0  0  0  0  0  0  0  0
  191.4200  176.5400  143.5530 O   0  0  0  0  0  0  0  0  0  0  0  0
  183.5400  179.0560  142.7880 O   0  0  0  0  0  0  0  0  0  0  0  0
  187.1990  176.7130  135.3290 C   0  0  0  0  0  2  0  0  0  0  0  0
  186.9110  178.1660  135.6250 C   0  0  0  0  0  0  0  0  0  0  0  0
  188.0140  177.4890  142.9840 C   0  0  0  0  0  0  0  0  0  0  0  0
  187.4800  177.4010  145.3680 C   0  0  0  0  0  2  0  0  0  0  0  0
  190.7100  177.3820  139.1640 C   0  0  0  0  0  3  0  0  0  0  0  0
  191.9750  177.6090  141.0740 F   0  0  0  0  0  0  0  0  0  0  0  0
  187.3460  176.8890  144.0490 O   0  0  0  0  0  0  0  0  0  0  0  0
  183.7680  178.4120  141.5420 C   0  0  2  0  0  3  0  0  0  0  0  0
  185.5890  177.2150  140.1440 C   0  0  0  0  0  2  0  0  0  0  0  0
  190.7510  177.6110  140.4920 C   0  0  0  0  0  0  0  0  0  0  0  0
  187.4910  178.4050  142.1900 C   0  0  0  0  0  0  0  0  0  0  0  0
  190.5230  176.0690  144.5280 C   0  0  1  0  0  3  0  0  0  0  0  0
  188.3150  177.6430  138.6200 C   0  0  0  0  0  0  0  0  0  0  0  0
  188.7200  176.8410  146.0510 C   0  0  0  0  0  2  0  0  0  0  0  0
  185.1580  177.7690  141.5210 C   0  0  1  0  0  3  0  0  0  0  0  0
  186.6140  175.8060  136.3850 C   0  0  0  0  0  3  0  0  0  0  0  0
  186.0980  178.7100  142.1190 N   0  0  0  0  0  0  0  0  0  0  0  0
  189.5370  177.2760  138.2640 C   0  0  0  0  0  3  0  0  0  0  0  0
  183.5140  179.3650  140.3740 C   0  0  0  0  0  2  0  0  0  0  0  0
  182.1980  179.2330  139.9330 O   0  0  0  0  0  1  0  0  0  0  0  0
  184.0100  178.8710  145.1480 C   0  0  0  0  0  1  0  0  0  0  0  0
  185.0270  179.6970  144.5220 N   0  0  0  0  0  2  0  0  0  0  0  0
  1  5  1  0  0  0  0
  2  6  1  0  0  0  0
  3 29  1  0  0  0  0
  4 11  2  0  0  0  0
  5 37  1  1  0  0  0
  6  8  1  6  0  0  0
  6 28  1  0  0  0  0
  6  7  1  0  0  0  0
  7 12  1  0  0  0  0
  7 24  1  1  0  0  0
  9 11  1  1  0  0  0
  9 14  1  0  0  0  0
  9 27  1  0  0  0  0
 10  4  1  1  0  0  0
 10 26  1  0  0  0  0
 11 18  1  0  0  0  0
 12 10  1  0  0  0  0
 13 17  1  0  0  0  0
 14 27  1  0  0  0  0
 15  5  1  0  0  0  0
 16 17  1  0  0  0  0
 16 31  1  0  0  0  0
 17  8  2  0  0  0  0
 18 22  1  0  0  0  0
 19 29  1  0  0  0  0
 20 25  2  0  0  0  0
 22 19  1  0  0  0  0
 23 34  1  6  0  0  0
 23 15  1  0  0  0  0
 25 21  1  0  0  0  0
 25  4  1  0  0  0  0
 26 18  2  0  0  0  0
 27  3  1  1  0  0  0
 28 12  1  0  0  0  0
 30 24  1  6  0  0  0
 30 23  1  0  0  0  0
 30 32  1  0  0  0  0
 31  2  2  0  0  0  0
 32 26  1  0  0  0  0
 32  1  1  0  0  0  0
 33 28  2  0  0  0  0
 33 20  1  0  0  0  0
 35 34  1  0  0  0  0
 37 36  1  0  0  0  0
M  END
>  <MODEL>
7

>  <REMARK>
 VINA RESULT:      -5.5      2.138      2.970
  Name = 
  2 active torsions:
  status: ('A' for Active; 'I' for Inactive)
    1  A    between atoms: C_5  and  N_23
    2  A    between atoms: C_11  and  C_26
                            x       y       z     vdW  Elec       q    Type
                         _______ _______ _______ _____ _____    ______ ____

>  <TORSDO>
F 2

$$$$
=
 OpenBabel11052415143D

 37 44  0  0  1  0  0  0  0  0999 V2000
  190.6620  175.9110  140.2780 O   0  0  0  0  0  0  0  0  0  0  0  0
  194.2680  175.0130  135.5420 C   0  0  0  0  0  3  0  0  0  0  0  0
  186.0650  176.8770  136.6500 C   0  0  0  0  0  2  0  0  0  0  0  0
  189.2620  174.5060  136.1850 C   0  0  0  0  0  0  0  0  0  0  0  0
  190.6820  177.0630  141.1030 C   0  0  1  0  0  3  0  0  0  0  0  0
  193.4870  174.1600  136.5230 C   0  0  2  0  0  0  0  0  0  0  0  0
  192.7540  174.8350  137.5830 C   0  0  2  0  0  3  0  0  0  0  0  0
  194.2990  172.9990  137.0430 C   0  0  0  0  0  3  0  0  0  0  0  0
  187.8410  176.1740  134.9220 C   0  0  1  0  0  3  0  0  0  0  0  0
  190.0860  174.4430  137.4390 C   0  0  1  0  0  3  0  0  0  0  0  0
  188.6160  175.6740  136.1150 C   0  0  0  0  0  0  0  0  0  0  0  0
  191.4800  174.3560  137.0780 N   0  0  0  0  0  0  0  0  0  0  0  0
  195.9610  171.3870  136.7420 F   0  0  0  0  0  0  0  0  0  0  0  0
  186.6250  175.4690  134.8070 O   0  0  0  0  0  0  0  0  0  0  0  0
  191.7600  177.9720  140.8390 O   0  0  0  0  0  0  0  0  0  0  0  0
  195.5280  172.9800  134.8900 C   0  0  0  0  0  2  0  0  0  0  0  0
  195.2610  172.4550  136.2810 C   0  0  0  0  0  0  0  0  0  0  0  0
  189.0470  176.4940  137.2370 C   0  0  0  0  0  0  0  0  0  0  0  0
  187.5730  178.2270  138.1310 C   0  0  0  0  0  2  0  0  0  0  0  0
  190.2960  172.8300  134.6130 C   0  0  0  0  0  3  0  0  0  0  0  0
  188.0090  173.0900  134.6510 F   0  0  0  0  0  0  0  0  0  0  0  0
  188.7440  177.8410  137.4240 O   0  0  0  0  0  0  0  0  0  0  0  0
  192.6680  177.5030  139.8510 C   0  0  2  0  0  3  0  0  0  0  0  0
  192.7800  176.3760  137.5230 C   0  0  0  0  0  2  0  0  0  0  0  0
  189.2200  173.4410  135.1480 C   0  0  0  0  0  0  0  0  0  0  0  0
  189.8420  175.7880  138.0200 C   0  0  0  0  0  0  0  0  0  0  0  0
  186.5140  176.8150  135.1950 C   0  0  1  0  0  3  0  0  0  0  0  0
  192.1720  173.7080  135.9590 C   0  0  0  0  0  0  0  0  0  0  0  0
  186.3600  178.2560  137.2120 C   0  0  0  0  0  2  0  0  0  0  0  0
  191.9120  177.0890  138.5860 C   0  0  1  0  0  3  0  0  0  0  0  0
  195.2270  174.4560  134.7870 C   0  0  0  0  0  3  0  0  0  0  0  0
  190.7220  176.3500  138.9940 N   0  0  0  0  0  0  0  0  0  0  0  0
  191.7340  173.0310  134.9070 C   0  0  0  0  0  3  0  0  0  0  0  0
  193.5740  176.4060  140.4120 C   0  0  0  0  0  2  0  0  0  0  0  0
  194.9110  176.7530  140.2190 O   0  0  0  0  0  1  0  0  0  0  0  0
  188.5710  177.2330  142.1000 C   0  0  0  0  0  1  0  0  0  0  0  0
  189.4050  177.7610  141.0360 N   0  0  0  0  0  2  0  0  0  0  0  0
  1  5  1  0  0  0  0
  3 29  1  0  0  0  0
  5 37  1  6  0  0  0
  6  2  1  6  0  0  0
  6  8  1  0  0  0  0
  6  7  1  0  0  0  0
  7 24  1  6  0  0  0
  9 14  1  6  0  0  0
  9 27  1  0  0  0  0
  9 11  1  0  0  0  0
 10  4  1  6  0  0  0
 10 26  1  0  0  0  0
 11  4  2  0  0  0  0
 11 18  1  0  0  0  0
 12 10  1  0  0  0  0
 12  7  1  0  0  0  0
 14 27  1  0  0  0  0
 15  5  1  0  0  0  0
 16 17  1  0  0  0  0
 17 13  1  0  0  0  0
 17  8  2  0  0  0  0
 18 22  1  0  0  0  0
 18 26  2  0  0  0  0
 20 33  1  0  0  0  0
 20 25  2  0  0  0  0
 21 25  1  0  0  0  0
 22 19  1  0  0  0  0
 23 34  1  1  0  0  0
 23 15  1  0  0  0  0
 25  4  1  0  0  0  0
 26 32  1  0  0  0  0
 27  3  1  1  0  0  0
 28  6  1  0  0  0  0
 28 12  1  0  0  0  0
 29 19  1  0  0  0  0
 30 24  1  6  0  0  0
 30 32  1  0  0  0  0
 30 23  1  0  0  0  0
 31 16  1  0  0  0  0
 31  2  2  0  0  0  0
 32  1  1  0  0  0  0
 33 28  2  0  0  0  0
 35 34  1  0  0  0  0
 37 36  1  0  0  0  0
M  END
>  <MODEL>
8

>  <REMARK>
 VINA RESULT:      -5.3      5.700      9.569
  Name = 
  2 active torsions:
  status: ('A' for Active; 'I' for Inactive)
    1  A    between atoms: C_5  and  N_23
    2  A    between atoms: C_11  and  C_26
                            x       y       z     vdW  Elec       q    Type
                         _______ _______ _______ _____ _____    ______ ____

>  <TORSDO>
F 2

$$$$
