=
 OpenBabel11052414403D

 32 37  0  0  1  0  0  0  0  0999 V2000
  184.8360  178.6320  142.1070 C   0  0  1  0  0  3  0  0  0  0  0  0
  187.2230  178.1310  142.1250 C   0  0  0  0  0  0  0  0  0  0  0  0
  183.6940  178.7330  142.7990 C   0  0  0  0  0  3  0  0  0  0  0  0
  186.1040  178.3820  142.8230 C   0  0  0  0  0  0  0  0  0  0  0  0
  188.5490  177.9850  142.8330 C   0  0  2  0  0  3  0  0  0  0  0  0
  189.5670  176.8410  137.8520 C   0  0  0  0  0  2  0  0  0  0  0  0
  187.2150  178.1360  140.6430 C   0  0  0  0  0  0  0  0  0  0  0  0
  190.5130  176.4230  140.1020 O   0  0  0  0  0  0  0  0  0  0  0  0
  189.5250  177.1700  140.7460 C   0  0  0  0  0  0  0  0  0  0  0  0
  186.1620  178.4830  144.3280 C   0  0  0  0  0  0  0  0  0  0  0  0
  189.4950  177.1940  142.0460 N   0  0  0  0  0  0  0  0  0  0  0  0
  187.0490  177.3730  144.8770 C   0  0  0  0  0  2  0  0  0  0  0  0
  184.8010  178.4400  144.9700 C   0  0  0  0  0  3  0  0  0  0  0  0
  186.0930  178.4510  139.9770 C   0  0  0  0  0  3  0  0  0  0  0  0
  184.8590  178.7140  140.6700 N   0  0  0  0  0  0  0  0  0  0  0  0
  188.5090  177.9010  139.8990 C   0  0  1  0  0  3  0  0  0  0  0  0
  188.4610  177.4190  144.2670 C   0  0  2  0  0  3  0  0  0  0  0  0
  183.6740  178.5870  144.2660 C   0  0  0  0  0  3  0  0  0  0  0  0
  190.8170  176.6270  138.7220 C   0  0  0  0  0  2  0  0  0  0  0  0
  188.2780  177.0490  138.6490 C   0  0  0  0  0  2  0  0  0  0  0  0
  182.7630  178.0570  137.7040 C   0  0  1  0  0  3  0  0  0  0  0  0
  180.4240  181.0160  137.7730 N   0  0  0  0  0  1  0  0  0  0  0  0
  182.4950  176.7670  136.9500 C   0  0  0  0  0  1  0  0  0  0  0  0
  182.5900  180.8410  138.6510 N   0  0  0  0  0  0  0  0  0  0  0  0
  183.6490  179.0190  139.9100 C   0  0  1  0  0  3  0  0  0  0  0  0
  181.6310  178.9170  137.6180 O   0  0  0  0  0  0  0  0  0  0  0  0
  183.8670  180.2330  139.0070 C   0  0  0  0  0  2  0  0  0  0  0  0
  183.1540  177.7740  139.1620 C   0  0  1  0  0  3  0  0  0  0  0  0
  182.0190  177.1310  139.9440 C   0  0  0  0  0  1  0  0  0  0  0  0
  181.6010  180.2600  138.0300 C   0  0  0  0  0  0  0  0  0  0  0  0
  189.4370  178.1340  145.1930 C   0  0  0  0  0  2  0  0  0  0  0  0
  189.2130  177.7730  146.5230 O   0  0  0  0  0  1  0  0  0  0  0  0
  1  3  1  6  0  0  0
  1  4  1  0  0  0  0
  2  4  2  0  0  0  0
  2  5  1  0  0  0  0
  3 18  2  0  0  0  0
  4 10  1  0  0  0  0
  5 11  1  6  0  0  0
  5 17  1  0  0  0  0
  6 20  1  0  0  0  0
  6 19  1  0  0  0  0
  7  2  1  0  0  0  0
  8  9  1  0  0  0  0
  9 11  2  0  0  0  0
 10 12  1  0  0  0  0
 10 13  2  0  0  0  0
 14  7  2  0  0  0  0
 14 15  1  0  0  0  0
 15  1  1  0  0  0  0
 16 20  1  6  0  0  0
 16  7  1  0  0  0  0
 16  9  1  0  0  0  0
 17 12  1  0  0  0  0
 17 31  1  1  0  0  0
 18 13  1  0  0  0  0
 19  8  1  0  0  0  0
 21 23  1  1  0  0  0
 21 28  1  0  0  0  0
 22 30  1  0  0  0  0
 24 27  1  0  0  0  0
 25 27  1  6  0  0  0
 25 15  1  0  0  0  0
 26 21  1  0  0  0  0
 26 30  1  0  0  0  0
 28 25  1  0  0  0  0
 28 29  1  1  0  0  0
 30 24  2  0  0  0  0
 31 32  1  0  0  0  0
M  END
>  <MODEL>
1

>  <REMARK>
 VINA RESULT:      -9.3      0.000      0.000
  Name = 
  2 active torsions:
  status: ('A' for Active; 'I' for Inactive)
    1  A    between atoms: C_13  and  C_29
    2  A    between atoms: C_16  and  N_27
                            x       y       z     vdW  Elec       q    Type
                         _______ _______ _______ _____ _____    ______ ____

>  <TORSDO>
F 2

$$$$
=
 OpenBabel11052414403D

 32 37  0  0  1  0  0  0  0  0999 V2000
  186.8140  178.1880  144.9740 C   0  0  0  0  0  0  0  0  0  0  0  0
  185.7390  178.2230  142.7850 C   0  0  0  0  0  0  0  0  0  0  0  0
  186.7160  178.4240  146.2880 C   0  0  0  0  0  3  0  0  0  0  0  0
  185.6160  178.3120  144.1190 C   0  0  0  0  0  0  0  0  0  0  0  0
  184.5150  178.2340  141.9010 C   0  0  2  0  0  3  0  0  0  0  0  0
  188.5430  178.2960  138.5950 C   0  0  0  0  0  2  0  0  0  0  0  0
  187.0580  177.9660  142.1560 C   0  0  0  0  0  0  0  0  0  0  0  0
  186.1440  178.9050  138.6370 O   0  0  0  0  0  0  0  0  0  0  0  0
  185.9740  178.4810  139.9560 C   0  0  0  0  0  0  0  0  0  0  0  0
  184.2480  178.4610  144.7400 C   0  0  2  0  0  3  0  0  0  0  0  0
  184.8330  178.6850  140.5470 N   0  0  0  0  0  0  0  0  0  0  0  0
  183.4300  179.4600  143.9320 C   0  0  0  0  0  2  0  0  0  0  0  0
  184.3050  178.8700  146.1870 C   0  0  0  0  0  3  0  0  0  0  0  0
  188.1400  177.7600  142.9230 C   0  0  0  0  0  3  0  0  0  0  0  0
  188.0720  177.8580  144.3570 N   0  0  0  0  0  0  0  0  0  0  0  0
  187.1400  177.8210  140.6550 C   0  0  1  0  0  3  0  0  0  0  0  0
  183.3220  179.0440  142.4540 C   0  0  2  0  0  3  0  0  0  0  0  0
  185.4350  178.8200  146.9010 C   0  0  0  0  0  3  0  0  0  0  0  0
  187.2140  178.4140  137.8300 C   0  0  0  0  0  2  0  0  0  0  0  0
  188.4120  178.4740  140.1090 C   0  0  0  0  0  2  0  0  0  0  0  0
  191.1960  175.9750  144.9200 C   0  0  1  0  0  3  0  0  0  0  0  0
  192.1100  177.0730  148.4120 N   0  0  0  0  0  1  0  0  0  0  0  0
  192.1670  175.3550  143.9330 C   0  0  0  0  0  1  0  0  0  0  0  0
  189.9940  176.9940  147.4090 N   0  0  0  0  0  0  0  0  0  0  0  0
  189.2800  177.6620  145.1570 C   0  0  1  0  0  3  0  0  0  0  0  0
  191.8880  176.3800  146.0970 O   0  0  0  0  0  0  0  0  0  0  0  0
  188.9870  176.7850  146.3750 C   0  0  0  0  0  2  0  0  0  0  0  0
  190.4270  177.1410  144.2830 C   0  0  1  0  0  3  0  0  0  0  0  0
  191.3450  178.2950  143.9100 C   0  0  0  0  0  1  0  0  0  0  0  0
  191.2780  176.8090  147.2890 C   0  0  0  0  0  0  0  0  0  0  0  0
  182.0070  178.3260  142.1800 C   0  0  0  0  0  2  0  0  0  0  0  0
  181.2650  179.0040  141.2110 O   0  0  0  0  0  1  0  0  0  0  0  0
  1  3  2  0  0  0  0
  2  4  2  0  0  0  0
  3 18  1  0  0  0  0
  4 10  1  0  0  0  0
  4  1  1  0  0  0  0
  5 11  1  6  0  0  0
  5 17  1  0  0  0  0
  5  2  1  0  0  0  0
  6 20  1  0  0  0  0
  7  2  1  0  0  0  0
  7 14  2  0  0  0  0
  8  9  1  0  0  0  0
  9 11  2  0  0  0  0
  9 16  1  0  0  0  0
 10 12  1  6  0  0  0
 10 13  1  0  0  0  0
 13 18  2  0  0  0  0
 14 15  1  0  0  0  0
 15  1  1  0  0  0  0
 16 20  1  6  0  0  0
 16  7  1  0  0  0  0
 17 31  1  1  0  0  0
 17 12  1  0  0  0  0
 19  6  1  0  0  0  0
 19  8  1  0  0  0  0
 21 23  1  6  0  0  0
 21 26  1  0  0  0  0
 25 15  1  6  0  0  0
 25 27  1  0  0  0  0
 26 30  1  0  0  0  0
 27 24  1  0  0  0  0
 28 29  1  1  0  0  0
 28 21  1  0  0  0  0
 28 25  1  0  0  0  0
 30 24  2  0  0  0  0
 30 22  1  0  0  0  0
 32 31  1  0  0  0  0
M  END
>  <MODEL>
2

>  <REMARK>
 VINA RESULT:      -9.2      2.595      7.522
  Name = 
  2 active torsions:
  status: ('A' for Active; 'I' for Inactive)
    1  A    between atoms: C_13  and  C_29
    2  A    between atoms: C_16  and  N_27
                            x       y       z     vdW  Elec       q    Type
                         _______ _______ _______ _____ _____    ______ ____

>  <TORSDO>
F 2

$$$$
=
 OpenBabel11052414403D

 32 37  0  0  1  0  0  0  0  0999 V2000
  186.2700  177.9670  143.6100 C   0  0  1  0  0  3  0  0  0  0  0  0
  188.4320  177.9540  142.4810 C   0  0  0  0  0  0  0  0  0  0  0  0
  185.5830  177.7830  144.7440 C   0  0  0  0  0  3  0  0  0  0  0  0
  187.7460  177.9190  143.6350 C   0  0  0  0  0  0  0  0  0  0  0  0
  189.9410  178.0200  142.4880 C   0  0  2  0  0  3  0  0  0  0  0  0
  188.6580  177.5060  137.4640 C   0  0  0  0  0  2  0  0  0  0  0  0
  187.7300  178.0760  141.1800 C   0  0  0  0  0  0  0  0  0  0  0  0
  190.5950  177.1070  138.9540 O   0  0  0  0  0  0  0  0  0  0  0  0
  189.9300  177.5860  140.0840 C   0  0  0  0  0  0  0  0  0  0  0  0
  188.4870  177.9090  144.9490 C   0  0  0  0  0  0  0  0  0  0  0  0
  190.5090  177.5000  141.2450 N   0  0  0  0  0  0  0  0  0  0  0  0
  189.6740  176.9580  144.8560 C   0  0  0  0  0  2  0  0  0  0  0  0
  187.6060  177.5430  146.1140 C   0  0  0  0  0  3  0  0  0  0  0  0
  186.3960  178.2130  141.1460 C   0  0  0  0  0  3  0  0  0  0  0  0
  185.6070  178.1670  142.3490 N   0  0  0  0  0  0  0  0  0  0  0  0
  188.5450  178.1660  139.9110 C   0  0  1  0  0  3  0  0  0  0  0  0
  190.6140  177.3340  143.6970 C   0  0  2  0  0  3  0  0  0  0  0  0
  186.2720  177.5180  146.0210 C   0  0  0  0  0  3  0  0  0  0  0  0
  190.1860  177.4770  137.6370 C   0  0  0  0  0  2  0  0  0  0  0  0
  187.8770  177.3880  138.7740 C   0  0  0  0  0  2  0  0  0  0  0  0
  182.6540  179.4830  140.5680 C   0  0  1  0  0  3  0  0  0  0  0  0
  179.9400  178.9650  143.1370 N   0  0  0  0  0  1  0  0  0  0  0  0
  182.4050  179.6890  139.0850 C   0  0  0  0  0  1  0  0  0  0  0  0
  182.2420  179.2460  143.4750 N   0  0  0  0  0  0  0  0  0  0  0  0
  184.1520  178.2850  142.2690 C   0  0  1  0  0  3  0  0  0  0  0  0
  181.4270  179.2010  141.2340 O   0  0  0  0  0  0  0  0  0  0  0  0
  183.6510  179.4310  143.1480 C   0  0  0  0  0  2  0  0  0  0  0  0
  183.6980  178.3840  140.8070 C   0  0  1  0  0  3  0  0  0  0  0  0
  183.2140  177.0220  140.3330 C   0  0  0  0  0  1  0  0  0  0  0  0
  181.2560  179.1500  142.6280 C   0  0  0  0  0  0  0  0  0  0  0  0
  191.7980  178.1530  144.1940 C   0  0  0  0  0  2  0  0  0  0  0  0
  191.5740  179.5170  144.0000 O   0  0  0  0  0  1  0  0  0  0  0  0
  1  4  1  0  0  0  0
  1  3  1  6  0  0  0
  2  5  1  0  0  0  0
  2  4  2  0  0  0  0
  3 18  2  0  0  0  0
  4 10  1  0  0  0  0
  5 11  1  6  0  0  0
  5 17  1  0  0  0  0
  6 19  1  0  0  0  0
  6 20  1  0  0  0  0
  7  2  1  0  0  0  0
  8  9  1  0  0  0  0
  9 11  2  0  0  0  0
 10 13  2  0  0  0  0
 12 10  1  0  0  0  0
 14  7  2  0  0  0  0
 14 15  1  0  0  0  0
 15  1  1  0  0  0  0
 16 20  1  6  0  0  0
 16  9  1  0  0  0  0
 16  7  1  0  0  0  0
 17 31  1  1  0  0  0
 17 12  1  0  0  0  0
 18 13  1  0  0  0  0
 19  8  1  0  0  0  0
 21 23  1  6  0  0  0
 21 28  1  0  0  0  0
 21 26  1  0  0  0  0
 25 15  1  6  0  0  0
 25 27  1  0  0  0  0
 26 30  1  0  0  0  0
 27 24  1  0  0  0  0
 28 29  1  1  0  0  0
 28 25  1  0  0  0  0
 30 22  1  0  0  0  0
 30 24  2  0  0  0  0
 32 31  1  0  0  0  0
M  END
>  <MODEL>
3

>  <REMARK>
 VINA RESULT:      -9.0      2.074      2.752
  Name = 
  2 active torsions:
  status: ('A' for Active; 'I' for Inactive)
    1  A    between atoms: C_13  and  C_29
    2  A    between atoms: C_16  and  N_27
                            x       y       z     vdW  Elec       q    Type
                         _______ _______ _______ _____ _____    ______ ____

>  <TORSDO>
F 2

$$$$
=
 OpenBabel11052414403D

 32 37  0  0  1  0  0  0  0  0999 V2000
  189.8550  177.4420  142.6770 C   0  0  1  0  0  3  0  0  0  0  0  0
  187.8680  177.6510  144.0750 C   0  0  0  0  0  0  0  0  0  0  0  0
  191.1910  177.4220  142.6030 C   0  0  0  0  0  3  0  0  0  0  0  0
  189.1970  177.4810  143.9990 C   0  0  0  0  0  0  0  0  0  0  0  0
  187.1630  177.5830  145.4090 C   0  0  2  0  0  3  0  0  0  0  0  0
  183.4620  178.9900  142.0200 C   0  0  0  0  0  2  0  0  0  0  0  0
  187.0420  177.7660  142.8490 C   0  0  0  0  0  0  0  0  0  0  0  0
  183.9230  179.1120  144.4500 O   0  0  0  0  0  0  0  0  0  0  0  0
  185.1410  178.4400  144.3370 C   0  0  0  0  0  0  0  0  0  0  0  0
  190.0000  177.2550  145.2570 C   0  0  0  0  0  0  0  0  0  0  0  0
  185.8970  178.3150  145.3880 N   0  0  0  0  0  0  0  0  0  0  0  0
  189.5170  178.2040  146.3450 C   0  0  0  0  0  2  0  0  0  0  0  0
  191.4820  177.4080  145.0400 C   0  0  0  0  0  3  0  0  0  0  0  0
  187.6110  177.6410  141.6410 C   0  0  0  0  0  3  0  0  0  0  0  0
  189.0330  177.4720  141.4950 N   0  0  0  0  0  0  0  0  0  0  0  0
  185.5430  177.9030  142.9820 C   0  0  1  0  0  3  0  0  0  0  0  0
  188.0110  178.0390  146.6160 C   0  0  2  0  0  3  0  0  0  0  0  0
  192.0250  177.4520  143.8190 C   0  0  0  0  0  3  0  0  0  0  0  0
  182.9070  178.9840  143.4550 C   0  0  0  0  0  2  0  0  0  0  0  0
  184.9860  178.8730  141.9380 C   0  0  0  0  0  2  0  0  0  0  0  0
  188.5640  176.7990  137.8970 C   0  0  1  0  0  3  0  0  0  0  0  0
  192.1330  176.4020  136.7400 N   0  0  0  0  0  1  0  0  0  0  0  0
  187.3920  177.0990  136.9800 C   0  0  0  0  0  1  0  0  0  0  0  0
  191.2380  176.0470  138.8770 N   0  0  0  0  0  0  0  0  0  0  0  0
  189.6220  177.3740  140.1610 C   0  0  1  0  0  3  0  0  0  0  0  0
  189.7820  176.8310  137.1590 O   0  0  0  0  0  0  0  0  0  0  0  0
  190.2440  175.9950  139.9420 C   0  0  0  0  0  2  0  0  0  0  0  0
  188.5960  177.7660  139.0900 C   0  0  1  0  0  3  0  0  0  0  0  0
  188.8400  179.2030  138.6550 C   0  0  0  0  0  1  0  0  0  0  0  0
  191.0330  176.4110  137.6420 C   0  0  0  0  0  0  0  0  0  0  0  0
  187.7640  177.1420  147.8220 C   0  0  0  0  0  2  0  0  0  0  0  0
  187.9340  177.8530  149.0120 O   0  0  0  0  0  1  0  0  0  0  0  0
  1  3  1  6  0  0  0
  1  4  1  0  0  0  0
  3 18  2  0  0  0  0
  4  2  2  0  0  0  0
  4 10  1  0  0  0  0
  5  2  1  6  0  0  0
  5 17  1  0  0  0  0
  6 19  1  0  0  0  0
  7 16  1  0  0  0  0
  7  2  1  0  0  0  0
  9  8  1  0  0  0  0
  9 11  2  0  0  0  0
 10 12  1  0  0  0  0
 11  5  1  0  0  0  0
 12 17  1  0  0  0  0
 13 10  2  0  0  0  0
 14  7  2  0  0  0  0
 15 14  1  0  0  0  0
 15  1  1  0  0  0  0
 16 20  1  6  0  0  0
 16  9  1  0  0  0  0
 17 31  1  1  0  0  0
 18 13  1  0  0  0  0
 19  8  1  0  0  0  0
 20  6  1  0  0  0  0
 21 23  1  6  0  0  0
 21 28  1  0  0  0  0
 22 30  1  0  0  0  0
 24 27  1  0  0  0  0
 25 27  1  6  0  0  0
 25 15  1  0  0  0  0
 26 30  1  0  0  0  0
 26 21  1  0  0  0  0
 28 29  1  6  0  0  0
 28 25  1  0  0  0  0
 30 24  2  0  0  0  0
 31 32  1  0  0  0  0
M  END
>  <MODEL>
4

>  <REMARK>
 VINA RESULT:      -8.9      3.378      6.377
  Name = 
  2 active torsions:
  status: ('A' for Active; 'I' for Inactive)
    1  A    between atoms: C_13  and  C_29
    2  A    between atoms: C_16  and  N_27
                            x       y       z     vdW  Elec       q    Type
                         _______ _______ _______ _____ _____    ______ ____

>  <TORSDO>
F 2

$$$$
=
 OpenBabel11052414403D

 32 37  0  0  1  0  0  0  0  0999 V2000
  189.4190  177.5920  141.4600 C   0  0  1  0  0  3  0  0  0  0  0  0
  188.1120  177.6650  143.5170 C   0  0  0  0  0  0  0  0  0  0  0  0
  190.6290  177.5780  140.8860 C   0  0  0  0  0  3  0  0  0  0  0  0
  189.3080  177.5020  142.9300 C   0  0  0  0  0  0  0  0  0  0  0  0
  187.9560  177.4670  145.0060 C   0  0  2  0  0  3  0  0  0  0  0  0
  183.3110  179.2040  143.4060 C   0  0  0  0  0  2  0  0  0  0  0  0
  186.8910  177.9010  142.7090 C   0  0  0  0  0  0  0  0  0  0  0  0
  184.6540  179.0860  145.4830 O   0  0  0  0  0  0  0  0  0  0  0  0
  185.7140  178.4270  144.8580 C   0  0  0  0  0  0  0  0  0  0  0  0
  190.5140  177.1520  143.7660 C   0  0  0  0  0  0  0  0  0  0  0  0
  186.8040  178.1990  145.5300 N   0  0  0  0  0  0  0  0  0  0  0  0
  190.5120  177.9900  145.0380 C   0  0  0  0  0  2  0  0  0  0  0  0
  191.8110  177.3250  143.0210 C   0  0  0  0  0  3  0  0  0  0  0  0
  186.9600  177.8940  141.3690 C   0  0  0  0  0  3  0  0  0  0  0  0
  188.2160  177.7390  140.6840 N   0  0  0  0  0  0  0  0  0  0  0  0
  185.5580  178.0260  143.4090 C   0  0  1  0  0  3  0  0  0  0  0  0
  189.2120  177.8010  145.8400 C   0  0  2  0  0  3  0  0  0  0  0  0
  191.8580  177.4880  141.6950 C   0  0  0  0  0  3  0  0  0  0  0  0
  183.3350  179.0570  144.9370 C   0  0  0  0  0  2  0  0  0  0  0  0
  184.6870  179.0950  142.7450 C   0  0  0  0  0  2  0  0  0  0  0  0
  186.8690  176.5100  137.4740 C   0  0  1  0  0  3  0  0  0  0  0  0
  189.5100  177.6940  135.0540 N   0  0  0  0  0  1  0  0  0  0  0  0
  185.4570  176.1170  137.0810 C   0  0  0  0  0  1  0  0  0  0  0  0
  189.7260  177.2140  137.3380 N   0  0  0  0  0  0  0  0  0  0  0  0
  188.2570  177.7720  139.2230 C   0  0  1  0  0  3  0  0  0  0  0  0
  187.5680  177.0200  136.3430 O   0  0  0  0  0  0  0  0  0  0  0  0
  189.3350  176.8290  138.6890 C   0  0  0  0  0  2  0  0  0  0  0  0
  186.8630  177.5110  138.6380 C   0  0  1  0  0  3  0  0  0  0  0  0
  186.2180  178.8330  138.2510 C   0  0  0  0  0  1  0  0  0  0  0  0
  188.9460  177.2930  136.2970 C   0  0  0  0  0  0  0  0  0  0  0  0
  189.4020  176.7900  146.9630 C   0  0  0  0  0  2  0  0  0  0  0  0
  190.7480  176.6960  147.3230 O   0  0  0  0  0  1  0  0  0  0  0  0
  1  3  1  1  0  0  0
  1  4  1  0  0  0  0
  3 18  2  0  0  0  0
  4  2  2  0  0  0  0
  4 10  1  0  0  0  0
  5  2  1  6  0  0  0
  5 11  1  0  0  0  0
  5 17  1  0  0  0  0
  6 19  1  0  0  0  0
  7 16  1  0  0  0  0
  7  2  1  0  0  0  0
  9  8  1  0  0  0  0
  9 11  2  0  0  0  0
 10 12  1  0  0  0  0
 12 17  1  0  0  0  0
 13 10  2  0  0  0  0
 14  7  2  0  0  0  0
 15 14  1  0  0  0  0
 15  1  1  0  0  0  0
 16 20  1  6  0  0  0
 16  9  1  0  0  0  0
 17 31  1  1  0  0  0
 18 13  1  0  0  0  0
 19  8  1  0  0  0  0
 20  6  1  0  0  0  0
 21 23  1  6  0  0  0
 21 28  1  0  0  0  0
 22 30  1  0  0  0  0
 24 27  1  0  0  0  0
 25 27  1  6  0  0  0
 25 15  1  0  0  0  0
 26 21  1  0  0  0  0
 28 29  1  6  0  0  0
 28 25  1  0  0  0  0
 30 26  1  0  0  0  0
 30 24  2  0  0  0  0
 31 32  1  0  0  0  0
M  END
>  <MODEL>
5

>  <REMARK>
 VINA RESULT:      -8.5      3.143      5.722
  Name = 
  2 active torsions:
  status: ('A' for Active; 'I' for Inactive)
    1  A    between atoms: C_13  and  C_29
    2  A    between atoms: C_16  and  N_27
                            x       y       z     vdW  Elec       q    Type
                         _______ _______ _______ _____ _____    ______ ____

>  <TORSDO>
F 2

$$$$
=
 OpenBabel11052414403D

 32 37  0  0  1  0  0  0  0  0999 V2000
  187.3520  178.1210  141.1680 C   0  0  1  0  0  3  0  0  0  0  0  0
  188.3690  177.4700  143.2870 C   0  0  0  0  0  0  0  0  0  0  0  0
  187.5130  178.3700  139.8620 C   0  0  0  0  0  3  0  0  0  0  0  0
  188.4800  177.5800  141.9530 C   0  0  0  0  0  0  0  0  0  0  0  0
  189.4650  176.8160  144.0940 C   0  0  2  0  0  3  0  0  0  0  0  0
  186.0950  178.6160  147.6380 C   0  0  0  0  0  2  0  0  0  0  0  0
  187.1160  177.8500  143.9820 C   0  0  0  0  0  0  0  0  0  0  0  0
  188.4800  177.9700  147.4780 O   0  0  0  0  0  0  0  0  0  0  0  0
  188.3780  177.6100  146.1330 C   0  0  0  0  0  0  0  0  0  0  0  0
  189.7230  177.0810  141.2580 C   0  0  0  0  0  0  0  0  0  0  0  0
  189.4530  177.2690  145.4850 N   0  0  0  0  0  0  0  0  0  0  0  0
  190.9520  177.4900  142.0590 C   0  0  0  0  0  2  0  0  0  0  0  0
  189.8320  177.5660  139.8370 C   0  0  0  0  0  3  0  0  0  0  0  0
  186.0510  178.2570  143.2740 C   0  0  0  0  0  3  0  0  0  0  0  0
  186.1140  178.4090  141.8450 N   0  0  0  0  0  0  0  0  0  0  0  0
  187.0180  177.6590  145.4770 C   0  0  1  0  0  3  0  0  0  0  0  0
  190.8850  176.9720  143.5070 C   0  0  2  0  0  3  0  0  0  0  0  0
  188.8050  178.1280  139.1920 C   0  0  0  0  0  3  0  0  0  0  0  0
  187.3320  178.0120  148.3260 C   0  0  0  0  0  2  0  0  0  0  0  0
  186.2520  178.8130  146.1290 C   0  0  0  0  0  2  0  0  0  0  0  0
  183.0350  177.6080  139.9730 C   0  0  1  0  0  3  0  0  0  0  0  0
  182.2610  180.9270  138.3550 N   0  0  0  0  0  1  0  0  0  0  0  0
  182.0290  176.4880  140.1600 C   0  0  0  0  0  1  0  0  0  0  0  0
  184.3330  180.0900  139.0600 N   0  0  0  0  0  0  0  0  0  0  0  0
  184.9440  178.8880  141.1110 C   0  0  1  0  0  3  0  0  0  0  0  0
  182.3900  178.7600  139.4400 O   0  0  0  0  0  0  0  0  0  0  0  0
  185.2970  179.1680  139.6500 C   0  0  0  0  0  2  0  0  0  0  0  0
  183.7650  177.9220  141.2870 C   0  0  1  0  0  3  0  0  0  0  0  0
  182.8220  178.4620  142.3510 C   0  0  0  0  0  1  0  0  0  0  0  0
  183.0460  179.9070  138.9610 C   0  0  0  0  0  0  0  0  0  0  0  0
  191.6820  175.6840  143.6670 C   0  0  0  0  0  2  0  0  0  0  0  0
  192.0600  175.4970  144.9980 O   0  0  0  0  0  1  0  0  0  0  0  0
  1  3  1  1  0  0  0
  1 15  1  0  0  0  0
  1  4  1  0  0  0  0
  2  7  1  0  0  0  0
  4  2  2  0  0  0  0
  5  2  1  6  0  0  0
  5 11  1  0  0  0  0
  6 19  1  0  0  0  0
  7 16  1  0  0  0  0
  8 19  1  0  0  0  0
  9  8  1  0  0  0  0
 10  4  1  0  0  0  0
 10 12  1  0  0  0  0
 11  9  2  0  0  0  0
 12 17  1  0  0  0  0
 13 10  2  0  0  0  0
 14  7  2  0  0  0  0
 15 14  1  0  0  0  0
 16 20  1  1  0  0  0
 16  9  1  0  0  0  0
 17 31  1  6  0  0  0
 17  5  1  0  0  0  0
 18 13  1  0  0  0  0
 18  3  2  0  0  0  0
 20  6  1  0  0  0  0
 21 23  1  1  0  0  0
 21 28  1  0  0  0  0
 22 30  1  0  0  0  0
 24 27  1  0  0  0  0
 25 27  1  6  0  0  0
 25 28  1  0  0  0  0
 25 15  1  0  0  0  0
 26 21  1  0  0  0  0
 28 29  1  1  0  0  0
 30 24  2  0  0  0  0
 30 26  1  0  0  0  0
 31 32  1  0  0  0  0
M  END
>  <MODEL>
6

>  <REMARK>
 VINA RESULT:      -8.5      1.816      4.760
  Name = 
  2 active torsions:
  status: ('A' for Active; 'I' for Inactive)
    1  A    between atoms: C_13  and  C_29
    2  A    between atoms: C_16  and  N_27
                            x       y       z     vdW  Elec       q    Type
                         _______ _______ _______ _____ _____    ______ ____

>  <TORSDO>
F 2

$$$$
=
 OpenBabel11052414403D

 32 37  0  0  1  0  0  0  0  0999 V2000
  187.4440  178.0890  140.9650 C   0  0  0  0  0  0  0  0  0  0  0  0
  188.5500  177.3480  138.9220 C   0  0  0  0  0  0  0  0  0  0  0  0
  186.3990  178.7090  141.5270 C   0  0  0  0  0  3  0  0  0  0  0  0
  187.4450  177.8330  139.5110 C   0  0  0  0  0  0  0  0  0  0  0  0
  188.5370  176.9740  137.4590 C   0  0  2  0  0  3  0  0  0  0  0  0
  193.4990  176.3800  138.9360 C   0  0  0  0  0  2  0  0  0  0  0  0
  189.7620  177.0320  139.7160 C   0  0  0  0  0  0  0  0  0  0  0  0
  192.1910  176.7510  136.8660 O   0  0  0  0  0  0  0  0  0  0  0  0
  190.9680  176.7410  137.5390 C   0  0  0  0  0  0  0  0  0  0  0  0
  186.1900  178.0400  138.6990 C   0  0  2  0  0  3  0  0  0  0  0  0
  189.8790  177.0120  136.8800 N   0  0  0  0  0  0  0  0  0  0  0  0
  186.5510  178.6620  137.3560 C   0  0  0  0  0  2  0  0  0  0  0  0
  185.1650  178.8800  139.4130 C   0  0  0  0  0  3  0  0  0  0  0  0
  189.7460  177.1720  141.0510 C   0  0  0  0  0  3  0  0  0  0  0  0
  188.5970  177.7010  141.7360 N   0  0  0  0  0  0  0  0  0  0  0  0
  190.9640  176.4380  139.0200 C   0  0  1  0  0  3  0  0  0  0  0  0
  187.5690  177.8020  136.5860 C   0  0  2  0  0  3  0  0  0  0  0  0
  185.2500  179.1570  140.7180 C   0  0  0  0  0  3  0  0  0  0  0  0
  193.3520  176.1350  137.4250 C   0  0  0  0  0  2  0  0  0  0  0  0
  192.2650  177.0050  139.5920 C   0  0  0  0  0  2  0  0  0  0  0  0
  190.1980  176.8870  144.9600 C   0  0  1  0  0  3  0  0  0  0  0  0
  187.6050  178.1100  147.4120 N   0  0  0  0  0  1  0  0  0  0  0  0
  191.6550  176.6360  145.3040 C   0  0  0  0  0  1  0  0  0  0  0  0
  187.3070  177.3970  145.1990 N   0  0  0  0  0  0  0  0  0  0  0  0
  188.6300  177.8730  143.1870 C   0  0  1  0  0  3  0  0  0  0  0  0
  189.5230  177.4540  146.0780 O   0  0  0  0  0  0  0  0  0  0  0  0
  187.6560  176.9110  143.8690 C   0  0  0  0  0  2  0  0  0  0  0  0
  190.0680  177.7690  143.7090 C   0  0  1  0  0  3  0  0  0  0  0  0
  190.6290  179.1650  143.9330 C   0  0  0  0  0  1  0  0  0  0  0  0
  188.1330  177.6320  146.1800 C   0  0  0  0  0  0  0  0  0  0  0  0
  186.8750  176.9180  135.5580 C   0  0  0  0  0  2  0  0  0  0  0  0
  186.6730  175.6330  136.0650 O   0  0  0  0  0  1  0  0  0  0  0  0
  1  3  2  0  0  0  0
  1 15  1  0  0  0  0
  2  4  2  0  0  0  0
  2  7  1  0  0  0  0
  4  1  1  0  0  0  0
  5 11  1  6  0  0  0
  5  2  1  0  0  0  0
  6 20  1  0  0  0  0
  7 14  2  0  0  0  0
  8 19  1  0  0  0  0
  8  9  1  0  0  0  0
  9 16  1  0  0  0  0
 10 12  1  6  0  0  0
 10 13  1  0  0  0  0
 10  4  1  0  0  0  0
 11  9  2  0  0  0  0
 13 18  2  0  0  0  0
 14 15  1  0  0  0  0
 16 20  1  1  0  0  0
 16  7  1  0  0  0  0
 17 31  1  6  0  0  0
 17 12  1  0  0  0  0
 17  5  1  0  0  0  0
 18  3  1  0  0  0  0
 19  6  1  0  0  0  0
 21 23  1  1  0  0  0
 21 26  1  0  0  0  0
 24 30  2  0  0  0  0
 25 15  1  6  0  0  0
 25 28  1  0  0  0  0
 25 27  1  0  0  0  0
 26 30  1  0  0  0  0
 27 24  1  0  0  0  0
 28 29  1  1  0  0  0
 28 21  1  0  0  0  0
 30 22  1  0  0  0  0
 31 32  1  0  0  0  0
M  END
>  <MODEL>
7

>  <REMARK>
 VINA RESULT:      -8.4      3.263      7.135
  Name = 
  2 active torsions:
  status: ('A' for Active; 'I' for Inactive)
    1  A    between atoms: C_13  and  C_29
    2  A    between atoms: C_16  and  N_27
                            x       y       z     vdW  Elec       q    Type
                         _______ _______ _______ _____ _____    ______ ____

>  <TORSDO>
F 2

$$$$
=
 OpenBabel11052414403D

 32 37  0  0  1  0  0  0  0  0999 V2000
  185.9540  178.4060  143.4810 C   0  0  0  0  0  0  0  0  0  0  0  0
  185.5550  178.2780  141.0790 C   0  0  0  0  0  0  0  0  0  0  0  0
  185.4680  178.6820  144.6980 C   0  0  0  0  0  3  0  0  0  0  0  0
  185.0480  178.4070  142.3150 C   0  0  0  0  0  0  0  0  0  0  0  0
  184.6400  178.1640  139.8830 C   0  0  2  0  0  3  0  0  0  0  0  0
  189.4370  178.4100  137.8630 C   0  0  0  0  0  2  0  0  0  0  0  0
  187.0120  178.1000  140.8670 C   0  0  0  0  0  0  0  0  0  0  0  0
  187.0940  178.8360  137.1860 O   0  0  0  0  0  0  0  0  0  0  0  0
  186.5780  178.4490  138.4240 C   0  0  0  0  0  0  0  0  0  0  0  0
  183.5530  178.4740  142.5110 C   0  0  2  0  0  3  0  0  0  0  0  0
  185.3050  178.5880  138.6520 N   0  0  0  0  0  0  0  0  0  0  0  0
  182.9410  179.3780  141.4480 C   0  0  0  0  0  2  0  0  0  0  0  0
  183.1650  178.9400  143.8890 C   0  0  0  0  0  3  0  0  0  0  0  0
  187.8380  178.0050  141.9200 C   0  0  0  0  0  3  0  0  0  0  0  0
  187.3550  178.1510  143.2680 N   0  0  0  0  0  0  0  0  0  0  0  0
  187.5320  177.9060  139.4620 C   0  0  1  0  0  3  0  0  0  0  0  0
  183.2900  178.9000  140.0270 C   0  0  2  0  0  3  0  0  0  0  0  0
  184.0420  179.0030  144.8970 C   0  0  0  0  0  3  0  0  0  0  0  0
  188.3800  178.3990  136.7460 C   0  0  0  0  0  2  0  0  0  0  0  0
  188.8640  178.6340  139.2640 C   0  0  0  0  0  2  0  0  0  0  0  0
  190.3920  176.6480  144.7300 C   0  0  1  0  0  3  0  0  0  0  0  0
  190.0970  177.7250  148.3340 N   0  0  0  0  0  1  0  0  0  0  0  0
  191.6800  176.1870  144.0740 C   0  0  0  0  0  1  0  0  0  0  0  0
  188.3950  177.4230  146.7520 N   0  0  0  0  0  0  0  0  0  0  0  0
  188.2900  178.0760  144.3890 C   0  0  1  0  0  3  0  0  0  0  0  0
  190.6520  177.0930  146.0580 O   0  0  0  0  0  0  0  0  0  0  0  0
  187.7690  177.1270  145.4680 C   0  0  0  0  0  2  0  0  0  0  0  0
  189.7000  177.7320  143.8920 C   0  0  1  0  0  3  0  0  0  0  0  0
  190.5310  179.0030  143.8020 C   0  0  0  0  0  1  0  0  0  0  0  0
  189.6710  177.4010  147.0160 C   0  0  0  0  0  0  0  0  0  0  0  0
  182.1560  178.0750  139.4320 C   0  0  0  0  0  2  0  0  0  0  0  0
  182.3900  176.7100  139.6110 O   0  0  0  0  0  1  0  0  0  0  0  0
  1  3  2  0  0  0  0
  2  4  2  0  0  0  0
  3 18  1  0  0  0  0
  4 10  1  0  0  0  0
  4  1  1  0  0  0  0
  5 11  1  6  0  0  0
  5 17  1  0  0  0  0
  5  2  1  0  0  0  0
  6 20  1  0  0  0  0
  7  2  1  0  0  0  0
  7 14  2  0  0  0  0
  8  9  1  0  0  0  0
  9 11  2  0  0  0  0
  9 16  1  0  0  0  0
 10 12  1  6  0  0  0
 10 13  1  0  0  0  0
 13 18  2  0  0  0  0
 14 15  1  0  0  0  0
 15  1  1  0  0  0  0
 16 20  1  1  0  0  0
 16  7  1  0  0  0  0
 17 31  1  1  0  0  0
 17 12  1  0  0  0  0
 19  8  1  0  0  0  0
 19  6  1  0  0  0  0
 21 23  1  6  0  0  0
 21 26  1  0  0  0  0
 24 30  2  0  0  0  0
 25 15  1  6  0  0  0
 25 27  1  0  0  0  0
 26 30  1  0  0  0  0
 27 24  1  0  0  0  0
 28 29  1  1  0  0  0
 28 25  1  0  0  0  0
 28 21  1  0  0  0  0
 30 22  1  0  0  0  0
 31 32  1  0  0  0  0
M  END
>  <MODEL>
8

>  <REMARK>
 VINA RESULT:      -8.3      2.238      7.017
  Name = 
  2 active torsions:
  status: ('A' for Active; 'I' for Inactive)
    1  A    between atoms: C_13  and  C_29
    2  A    between atoms: C_16  and  N_27
                            x       y       z     vdW  Elec       q    Type
                         _______ _______ _______ _____ _____    ______ ____

>  <TORSDO>
F 2

$$$$
=
 OpenBabel11052414403D

 32 37  0  0  1  0  0  0  0  0999 V2000
  187.1190  177.7130  144.9160 C   0  0  0  0  0  0  0  0  0  0  0  0
  186.5560  177.9610  142.5560 C   0  0  0  0  0  0  0  0  0  0  0  0
  186.7730  177.9280  146.1910 C   0  0  0  0  0  3  0  0  0  0  0  0
  186.1620  178.0340  143.8370 C   0  0  0  0  0  0  0  0  0  0  0  0
  185.5660  178.1750  141.4360 C   0  0  2  0  0  3  0  0  0  0  0  0
  190.1800  177.7250  139.0580 C   0  0  0  0  0  2  0  0  0  0  0  0
  187.9310  177.5290  142.2040 C   0  0  0  0  0  0  0  0  0  0  0  0
  187.9360  178.6800  138.6300 O   0  0  0  0  0  0  0  0  0  0  0  0
  187.4290  178.2520  139.8580 C   0  0  0  0  0  0  0  0  0  0  0  0
  184.7270  178.3670  144.1640 C   0  0  2  0  0  3  0  0  0  0  0  0
  186.2270  178.6070  140.2060 N   0  0  0  0  0  0  0  0  0  0  0  0
  184.2480  179.4950  143.2600 C   0  0  0  0  0  2  0  0  0  0  0  0
  184.5260  178.7270  145.6120 C   0  0  0  0  0  3  0  0  0  0  0  0
  188.7830  177.1470  143.1680 C   0  0  0  0  0  3  0  0  0  0  0  0
  188.4220  177.2170  144.5590 N   0  0  0  0  0  0  0  0  0  0  0  0
  188.3140  177.4100  140.7470 C   0  0  1  0  0  3  0  0  0  0  0  0
  184.4050  179.1370  141.7720 C   0  0  2  0  0  3  0  0  0  0  0  0
  185.4570  178.4940  146.5430 C   0  0  0  0  0  3  0  0  0  0  0  0
  189.0770  178.0570  138.0390 C   0  0  0  0  0  2  0  0  0  0  0  0
  189.7510  177.8830  140.5180 C   0  0  0  0  0  2  0  0  0  0  0  0
  190.0680  177.9660  147.7760 C   0  0  1  0  0  3  0  0  0  0  0  0
  192.9680  175.5540  147.7100 N   0  0  0  0  0  1  0  0  0  0  0  0
  189.5290  178.6270  149.0310 C   0  0  0  0  0  1  0  0  0  0  0  0
  191.7980  176.4870  145.9060 N   0  0  0  0  0  0  0  0  0  0  0  0
  189.3890  176.8250  145.5820 C   0  0  1  0  0  3  0  0  0  0  0  0
  191.0830  177.0270  148.1160 O   0  0  0  0  0  0  0  0  0  0  0  0
  190.7980  177.2780  145.1980 C   0  0  0  0  0  2  0  0  0  0  0  0
  188.9390  177.3150  146.9650 C   0  0  1  0  0  3  0  0  0  0  0  0
  188.2800  176.1690  147.7190 C   0  0  0  0  0  1  0  0  0  0  0  0
  191.9300  176.3810  147.1990 C   0  0  0  0  0  0  0  0  0  0  0  0
  183.0930  178.6280  141.1880 C   0  0  0  0  0  2  0  0  0  0  0  0
  182.0170  178.9880  142.0010 O   0  0  0  0  0  1  0  0  0  0  0  0
  1  3  2  0  0  0  0
  2  4  2  0  0  0  0
  3 18  1  0  0  0  0
  4 10  1  0  0  0  0
  4  1  1  0  0  0  0
  5 11  1  6  0  0  0
  5 17  1  0  0  0  0
  5  2  1  0  0  0  0
  6 20  1  0  0  0  0
  7  2  1  0  0  0  0
  7 14  2  0  0  0  0
  8  9  1  0  0  0  0
  9 11  2  0  0  0  0
  9 16  1  0  0  0  0
 10 12  1  6  0  0  0
 10 13  1  0  0  0  0
 13 18  2  0  0  0  0
 14 15  1  0  0  0  0
 15  1  1  0  0  0  0
 16 20  1  1  0  0  0
 16  7  1  0  0  0  0
 17 31  1  1  0  0  0
 17 12  1  0  0  0  0
 19  8  1  0  0  0  0
 19  6  1  0  0  0  0
 21 26  1  0  0  0  0
 21 23  1  1  0  0  0
 24 30  2  0  0  0  0
 25 15  1  6  0  0  0
 25 28  1  0  0  0  0
 27 25  1  0  0  0  0
 27 24  1  0  0  0  0
 28 29  1  1  0  0  0
 28 21  1  0  0  0  0
 30 22  1  0  0  0  0
 30 26  1  0  0  0  0
 31 32  1  0  0  0  0
M  END
>  <MODEL>
9

>  <REMARK>
 VINA RESULT:      -8.2      2.521      7.705
  Name = 
  2 active torsions:
  status: ('A' for Active; 'I' for Inactive)
    1  A    between atoms: C_13  and  C_29
    2  A    between atoms: C_16  and  N_27
                            x       y       z     vdW  Elec       q    Type
                         _______ _______ _______ _____ _____    ______ ____

>  <TORSDO>
F 2

$$$$
