=
 OpenBabel11052413453D

 27 32  0  0  1  0  0  0  0  0999 V2000
  189.8420  178.3130  145.7470 N   0  0  0  0  0  2  0  0  0  0  0  0
  187.2670  178.2730  145.9900 C   0  0  0  0  0  0  0  0  0  0  0  0
  187.6320  177.1600  143.7970 N   0  0  0  0  0  0  0  0  0  0  0  0
  183.3540  179.2740  144.9020 C   0  0  0  0  0  3  0  0  0  0  0  0
  181.4480  179.2550  143.2890 C   0  0  0  0  0  1  0  0  0  0  0  0
  186.4200  178.9900  146.8470 C   0  0  0  0  0  3  0  0  0  0  0  0
  184.9480  177.8330  143.1040 C   0  0  0  0  0  3  0  0  0  0  0  0
  188.7090  176.4260  147.0170 C   0  0  1  0  0  3  0  0  0  0  0  0
  191.0610  176.1170  143.1020 C   0  0  0  0  0  2  0  0  0  0  0  0
  188.8560  177.6260  147.9450 C   0  0  0  0  0  2  0  0  0  0  0  0
  183.6360  178.1720  142.7630 C   0  0  0  0  0  3  0  0  0  0  0  0
  191.9590  177.2440  142.6280 C   0  0  0  0  0  2  0  0  0  0  0  0
  185.4710  178.2080  144.3490 C   0  0  0  0  0  0  0  0  0  0  0  0
  188.6430  177.8480  146.4620 C   0  0  1  0  0  0  0  0  0  0  0  0
  182.8400  178.8900  143.6610 C   0  0  0  0  0  0  0  0  0  0  0  0
  184.6620  178.9320  145.2540 C   0  0  0  0  0  0  0  0  0  0  0  0
  189.5580  178.5500  144.3300 C   0  0  1  0  0  3  0  0  0  0  0  0
  186.7930  177.8970  144.7100 C   0  0  0  0  0  0  0  0  0  0  0  0
  189.6580  176.4280  142.8670 N   0  0  0  0  0  2  0  0  0  0  0  0
  185.1550  179.3050  146.4640 N   0  0  0  0  0  0  0  0  0  0  0  0
  191.9980  178.3600  143.6530 C   0  0  0  0  0  2  0  0  0  0  0  0
  190.7280  179.1940  143.5940 C   0  0  0  0  0  2  0  0  0  0  0  0
  188.9080  177.3680  143.6420 C   0  0  0  0  0  0  0  0  0  0  0  0
  190.0650  175.7680  146.8050 C   0  0  0  0  0  2  0  0  0  0  0  0
  192.4410  176.2030  147.1780 C   0  0  0  0  0  2  0  0  0  0  0  0
  191.9640  175.3380  148.1820 O   0  0  0  0  0  0  0  0  0  0  0  0
  191.0890  176.3570  147.7560 C   0  0  2  0  0  3  0  0  0  0  0  0
  1 14  1  0  0  0  0
  2 14  1  0  0  0  0
  2  6  1  0  0  0  0
  3 18  1  0  0  0  0
  4 16  1  0  0  0  0
  5 15  1  0  0  0  0
  7 13  1  0  0  0  0
  8 24  1  6  0  0  0
  8 10  1  0  0  0  0
 11  7  2  0  0  0  0
 11 15  1  0  0  0  0
 12  9  1  0  0  0  0
 12 21  1  0  0  0  0
 13 18  1  0  0  0  0
 13 16  2  0  0  0  0
 14  8  1  0  0  0  0
 14 10  1  1  0  0  0
 15  4  2  0  0  0  0
 16 20  1  0  0  0  0
 17 22  1  6  0  0  0
 17  1  1  0  0  0  0
 18  2  2  0  0  0  0
 19  9  1  0  0  0  0
 19 23  1  0  0  0  0
 20  6  2  0  0  0  0
 22 21  1  0  0  0  0
 23  3  2  0  0  0  0
 23 17  1  0  0  0  0
 25 27  1  0  0  0  0
 25 26  1  0  0  0  0
 27 24  1  6  0  0  0
 27 26  1  0  0  0  0
M  END
>  <MODEL>
1

>  <REMARK>
 VINA RESULT:      -8.1      0.000      0.000
  Name = 
  2 active torsions:
  status: ('A' for Active; 'I' for Inactive)
    1  A    between atoms: C_9  and  C_27
    2  A    between atoms: C_25  and  C_27
                            x       y       z     vdW  Elec       q    Type
                         _______ _______ _______ _____ _____    ______ ____

>  <TORSDO>
F 2

$$$$
=
 OpenBabel11052413453D

 27 32  0  0  1  0  0  0  0  0999 V2000
  180.9650  177.7010  139.2580 N   0  0  0  0  0  2  0  0  0  0  0  0
  181.7800  178.8360  141.4350 C   0  0  0  0  0  0  0  0  0  0  0  0
  183.9060  178.1750  140.3270 N   0  0  0  0  0  0  0  0  0  0  0  0
  183.6810  178.9360  145.1600 C   0  0  0  0  0  3  0  0  0  0  0  0
  185.7050  178.6960  146.6030 C   0  0  0  0  0  1  0  0  0  0  0  0
  181.0890  179.1580  142.6120 C   0  0  0  0  0  3  0  0  0  0  0  0
  185.1730  178.2860  142.8800 C   0  0  0  0  0  3  0  0  0  0  0  0
  181.2770  180.2210  139.3440 C   0  0  1  0  0  3  0  0  0  0  0  0
  183.6290  177.2180  136.8150 C   0  0  0  0  0  2  0  0  0  0  0  0
  179.9190  179.8720  139.9430 C   0  0  0  0  0  2  0  0  0  0  0  0
  185.7900  178.3310  144.1330 C   0  0  0  0  0  3  0  0  0  0  0  0
  183.1320  175.8000  136.6050 C   0  0  0  0  0  2  0  0  0  0  0  0
  183.8060  178.5700  142.7570 C   0  0  0  0  0  0  0  0  0  0  0  0
  181.0760  178.9060  140.0950 C   0  0  1  0  0  0  0  0  0  0  0  0
  185.0450  178.6570  145.2710 C   0  0  0  0  0  0  0  0  0  0  0  0
  183.0580  178.9010  143.9110 C   0  0  0  0  0  0  0  0  0  0  0  0
  182.0890  176.7910  139.4850 C   0  0  1  0  0  3  0  0  0  0  0  0
  183.1570  178.5130  141.5130 C   0  0  0  0  0  0  0  0  0  0  0  0
  184.2100  177.3810  138.1400 N   0  0  0  0  0  2  0  0  0  0  0  0
  181.7320  179.1770  143.8080 N   0  0  0  0  0  0  0  0  0  0  0  0
  181.7780  175.6090  137.2590 C   0  0  0  0  0  2  0  0  0  0  0  0
  181.9230  175.4560  138.7650 C   0  0  0  0  0  2  0  0  0  0  0  0
  183.4410  177.4590  139.3440 C   0  0  0  0  0  0  0  0  0  0  0  0
  181.2320  180.0540  137.8320 C   0  0  0  0  0  2  0  0  0  0  0  0
  180.5760  181.2470  135.8020 C   0  0  0  0  0  2  0  0  0  0  0  0
  180.9250  182.1800  136.7970 O   0  0  0  0  0  0  0  0  0  0  0  0
  180.2390  181.0260  137.2250 C   0  0  2  0  0  3  0  0  0  0  0  0
  1 17  1  0  0  0  0
  1 14  1  0  0  0  0
  2 18  2  0  0  0  0
  2  6  1  0  0  0  0
  3 18  1  0  0  0  0
  4 15  1  0  0  0  0
  6 20  2  0  0  0  0
  7 11  1  0  0  0  0
  8 24  1  6  0  0  0
  8 10  1  0  0  0  0
  8 14  1  0  0  0  0
  9 19  1  0  0  0  0
 11 15  2  0  0  0  0
 12  9  1  0  0  0  0
 12 21  1  0  0  0  0
 13  7  2  0  0  0  0
 13 16  1  0  0  0  0
 14 10  1  1  0  0  0
 14  2  1  0  0  0  0
 15  5  1  0  0  0  0
 16  4  2  0  0  0  0
 17 22  1  6  0  0  0
 18 13  1  0  0  0  0
 19 23  1  0  0  0  0
 20 16  1  0  0  0  0
 21 22  1  0  0  0  0
 23 17  1  0  0  0  0
 23  3  2  0  0  0  0
 25 26  1  0  0  0  0
 25 27  1  0  0  0  0
 26 27  1  0  0  0  0
 27 24  1  1  0  0  0
M  END
>  <MODEL>
2

>  <REMARK>
 VINA RESULT:      -8.1      5.473      9.435
  Name = 
  2 active torsions:
  status: ('A' for Active; 'I' for Inactive)
    1  A    between atoms: C_9  and  C_27
    2  A    between atoms: C_25  and  C_27
                            x       y       z     vdW  Elec       q    Type
                         _______ _______ _______ _____ _____    ______ ____

>  <TORSDO>
F 2

$$$$
=
 OpenBabel11052413453D

 27 32  0  0  1  0  0  0  0  0999 V2000
  190.6070  177.6560  137.5940 N   0  0  0  0  0  2  0  0  0  0  0  0
  191.0080  177.1280  140.0950 C   0  0  0  0  0  0  0  0  0  0  0  0
  188.6140  176.5330  139.7810 N   0  0  0  0  0  0  0  0  0  0  0  0
  190.4090  177.6280  144.2040 C   0  0  0  0  0  3  0  0  0  0  0  0
  188.9570  177.5880  146.2350 C   0  0  0  0  0  1  0  0  0  0  0  0
  192.0470  177.5120  140.9540 C   0  0  0  0  0  3  0  0  0  0  0  0
  188.2540  176.8520  142.5920 C   0  0  0  0  0  3  0  0  0  0  0  0
  191.5380  175.3970  138.2880 C   0  0  1  0  0  3  0  0  0  0  0  0
  187.4950  176.2480  136.3170 C   0  0  0  0  0  2  0  0  0  0  0  0
  192.6790  176.4040  138.2380 C   0  0  0  0  0  2  0  0  0  0  0  0
  188.0770  177.0190  143.9680 C   0  0  0  0  0  3  0  0  0  0  0  0
  187.2020  177.5820  135.6580 C   0  0  0  0  0  2  0  0  0  0  0  0
  189.5110  177.0680  142.0120 C   0  0  0  0  0  0  0  0  0  0  0  0
  191.2900  176.8650  138.6290 C   0  0  1  0  0  0  0  0  0  0  0  0
  189.1530  177.4050  144.7730 C   0  0  0  0  0  0  0  0  0  0  0  0
  190.5970  177.4570  142.8310 C   0  0  0  0  0  0  0  0  0  0  0  0
  189.2910  178.1060  138.0510 C   0  0  1  0  0  3  0  0  0  0  0  0
  189.7120  176.9270  140.6290 C   0  0  0  0  0  0  0  0  0  0  0  0
  187.4220  176.3500  137.7680 N   0  0  0  0  0  2  0  0  0  0  0  0
  191.8220  177.6720  142.2840 N   0  0  0  0  0  0  0  0  0  0  0  0
  188.4290  178.4720  135.6900 C   0  0  0  0  0  2  0  0  0  0  0  0
  188.6250  179.0700  137.0740 C   0  0  0  0  0  2  0  0  0  0  0  0
  188.4210  176.9820  138.5750 C   0  0  0  0  0  0  0  0  0  0  0  0
  191.1060  175.0350  136.8740 C   0  0  0  0  0  2  0  0  0  0  0  0
  189.6680  173.3260  135.8800 C   0  0  0  0  0  2  0  0  0  0  0  0
  189.5350  173.2880  137.2810 O   0  0  0  0  0  0  0  0  0  0  0  0
  190.8240  173.5480  136.7750 C   0  0  2  0  0  3  0  0  0  0  0  0
  1 17  1  0  0  0  0
  1 14  1  0  0  0  0
  2 18  2  0  0  0  0
  2  6  1  0  0  0  0
  3 18  1  0  0  0  0
  4 15  1  0  0  0  0
  6 20  2  0  0  0  0
  7 11  1  0  0  0  0
  8 24  1  6  0  0  0
  8 14  1  0  0  0  0
  9 19  1  0  0  0  0
 10  8  1  0  0  0  0
 11 15  2  0  0  0  0
 12 21  1  0  0  0  0
 12  9  1  0  0  0  0
 13  7  2  0  0  0  0
 13 16  1  0  0  0  0
 14 10  1  6  0  0  0
 14  2  1  0  0  0  0
 15  5  1  0  0  0  0
 16  4  2  0  0  0  0
 17 22  1  6  0  0  0
 17 23  1  0  0  0  0
 18 13  1  0  0  0  0
 19 23  1  0  0  0  0
 20 16  1  0  0  0  0
 21 22  1  0  0  0  0
 23  3  2  0  0  0  0
 25 27  1  0  0  0  0
 25 26  1  0  0  0  0
 27 24  1  1  0  0  0
 27 26  1  0  0  0  0
M  END
>  <MODEL>
3

>  <REMARK>
 VINA RESULT:      -7.7      5.170      7.878
  Name = 
  2 active torsions:
  status: ('A' for Active; 'I' for Inactive)
    1  A    between atoms: C_9  and  C_27
    2  A    between atoms: C_25  and  C_27
                            x       y       z     vdW  Elec       q    Type
                         _______ _______ _______ _____ _____    ______ ____

>  <TORSDO>
F 2

$$$$
=
 OpenBabel11052413453D

 27 32  0  0  1  0  0  0  0  0999 V2000
  182.7520  179.3820  138.2720 N   0  0  0  0  0  2  0  0  0  0  0  0
  184.1720  178.5810  140.2810 C   0  0  0  0  0  0  0  0  0  0  0  0
  181.8610  178.5790  141.2010 N   0  0  0  0  0  0  0  0  0  0  0  0
  185.7720  178.8820  144.1350 C   0  0  0  0  0  3  0  0  0  0  0  0
  185.5200  179.0180  146.6150 C   0  0  0  0  0  1  0  0  0  0  0  0
  185.5540  178.6470  140.5070 C   0  0  0  0  0  3  0  0  0  0  0  0
  182.9920  178.7510  143.8140 C   0  0  0  0  0  3  0  0  0  0  0  0
  183.3310  176.9210  138.5250 C   0  0  1  0  0  3  0  0  0  0  0  0
  179.1770  178.8310  138.7380 C   0  0  0  0  0  2  0  0  0  0  0  0
  184.5100  177.6400  137.8800 C   0  0  0  0  0  2  0  0  0  0  0  0
  183.5470  178.8450  145.0930 C   0  0  0  0  0  3  0  0  0  0  0  0
  178.9310  180.2450  138.2460 C   0  0  0  0  0  2  0  0  0  0  0  0
  183.8230  178.7170  142.6860 C   0  0  0  0  0  0  0  0  0  0  0  0
  183.6380  178.3760  138.8780 C   0  0  1  0  0  0  0  0  0  0  0  0
  184.9350  178.9090  145.2530 C   0  0  0  0  0  0  0  0  0  0  0  0
  185.2250  178.7800  142.8530 C   0  0  0  0  0  0  0  0  0  0  0  0
  181.9720  180.0850  139.2920 C   0  0  1  0  0  3  0  0  0  0  0  0
  183.2900  178.6420  141.3880 C   0  0  0  0  0  0  0  0  0  0  0  0
  179.8410  178.8340  140.0350 N   0  0  0  0  0  2  0  0  0  0  0  0
  186.0440  178.7490  141.7700 N   0  0  0  0  0  0  0  0  0  0  0  0
  180.1930  180.8240  137.6360 C   0  0  0  0  0  2  0  0  0  0  0  0
  181.1690  181.2500  138.7210 C   0  0  0  0  0  2  0  0  0  0  0  0
  181.2230  179.1540  140.2230 C   0  0  0  0  0  0  0  0  0  0  0  0
  182.1990  176.7800  137.5190 C   0  0  0  0  0  2  0  0  0  0  0  0
  180.1070  175.5390  137.2810 C   0  0  0  0  0  2  0  0  0  0  0  0
  180.5060  175.5220  138.6310 O   0  0  0  0  0  0  0  0  0  0  0  0
  181.5300  175.4280  137.6670 C   0  0  2  0  0  3  0  0  0  0  0  0
  1 14  1  0  0  0  0
  1 17  1  0  0  0  0
  2  6  2  0  0  0  0
  2 18  1  0  0  0  0
  3 18  1  0  0  0  0
  4 15  2  0  0  0  0
  6 20  1  0  0  0  0
  7 11  2  0  0  0  0
  8 24  1  6  0  0  0
  8 14  1  0  0  0  0
  9 19  1  0  0  0  0
 10  8  1  0  0  0  0
 11 15  1  0  0  0  0
 12  9  1  0  0  0  0
 13 16  1  0  0  0  0
 13  7  1  0  0  0  0
 14 10  1  6  0  0  0
 14  2  1  0  0  0  0
 15  5  1  0  0  0  0
 16  4  1  0  0  0  0
 17 22  1  6  0  0  0
 17 23  1  0  0  0  0
 18 13  2  0  0  0  0
 19 23  1  0  0  0  0
 20 16  2  0  0  0  0
 21 12  1  0  0  0  0
 21 22  1  0  0  0  0
 23  3  2  0  0  0  0
 25 27  1  0  0  0  0
 25 26  1  0  0  0  0
 27 24  1  6  0  0  0
 27 26  1  0  0  0  0
M  END
>  <MODEL>
4

>  <REMARK>
 VINA RESULT:      -7.6      5.250      9.429
  Name = 
  2 active torsions:
  status: ('A' for Active; 'I' for Inactive)
    1  A    between atoms: C_9  and  C_27
    2  A    between atoms: C_25  and  C_27
                            x       y       z     vdW  Elec       q    Type
                         _______ _______ _______ _____ _____    ______ ____

>  <TORSDO>
F 2

$$$$
=
 OpenBabel11052413453D

 27 32  0  0  1  0  0  0  0  0999 V2000
  189.2150  178.6030  143.0590 N   0  0  0  0  0  2  0  0  0  0  0  0
  188.7940  177.9130  140.6010 C   0  0  0  0  0  0  0  0  0  0  0  0
  190.3960  176.1850  141.3940 N   0  0  0  0  0  0  0  0  0  0  0  0
  189.9090  177.2120  136.6300 C   0  0  0  0  0  3  0  0  0  0  0  0
  191.2460  176.0030  134.9040 C   0  0  0  0  0  1  0  0  0  0  0  0
  188.2290  178.6280  139.5350 C   0  0  0  0  0  3  0  0  0  0  0  0
  191.1050  175.7130  138.6720 C   0  0  0  0  0  3  0  0  0  0  0  0
  187.2310  177.1300  142.4680 C   0  0  1  0  0  3  0  0  0  0  0  0
  190.8660  176.0030  145.0110 C   0  0  0  0  0  2  0  0  0  0  0  0
  186.8590  178.5840  142.2040 C   0  0  0  0  0  2  0  0  0  0  0  0
  191.4590  175.4900  137.3390 C   0  0  0  0  0  3  0  0  0  0  0  0
  191.8060  177.0600  145.5590 C   0  0  0  0  0  2  0  0  0  0  0  0
  190.1470  176.6840  138.9940 C   0  0  0  0  0  0  0  0  0  0  0  0
  188.2920  178.1300  142.0140 C   0  0  1  0  0  0  0  0  0  0  0  0
  190.8610  176.2380  136.3190 C   0  0  0  0  0  0  0  0  0  0  0  0
  189.5440  177.4360  137.9600 C   0  0  0  0  0  0  0  0  0  0  0  0
  190.5870  178.1680  142.7920 C   0  0  1  0  0  3  0  0  0  0  0  0
  189.7880  176.9420  140.3280 C   0  0  0  0  0  0  0  0  0  0  0  0
  191.1050  175.7710  143.5930 N   0  0  0  0  0  2  0  0  0  0  0  0
  188.6150  178.3820  138.2560 N   0  0  0  0  0  0  0  0  0  0  0  0
  191.3050  178.4490  145.2120 C   0  0  0  0  0  2  0  0  0  0  0  0
  191.5970  178.7800  143.7570 C   0  0  0  0  0  2  0  0  0  0  0  0
  190.7090  176.6770  142.5580 C   0  0  0  0  0  0  0  0  0  0  0  0
  187.2630  176.8700  143.9670 C   0  0  0  0  0  2  0  0  0  0  0  0
  186.8400  178.2530  145.9370 C   0  0  0  0  0  2  0  0  0  0  0  0
  185.9310  177.1780  145.9210 O   0  0  0  0  0  0  0  0  0  0  0  0
  186.2540  177.7520  144.6760 C   0  0  2  0  0  3  0  0  0  0  0  0
  2 14  1  0  0  0  0
  3 23  2  0  0  0  0
  4 16  1  0  0  0  0
  5 15  1  0  0  0  0
  6  2  2  0  0  0  0
  7 13  1  0  0  0  0
  8 24  1  1  0  0  0
  9 12  1  0  0  0  0
 10  8  1  0  0  0  0
 11  7  2  0  0  0  0
 13 18  2  0  0  0  0
 14 10  1  6  0  0  0
 14  8  1  0  0  0  0
 14  1  1  0  0  0  0
 15  4  2  0  0  0  0
 15 11  1  0  0  0  0
 16 20  2  0  0  0  0
 16 13  1  0  0  0  0
 17  1  1  0  0  0  0
 17 22  1  1  0  0  0
 18  2  1  0  0  0  0
 18  3  1  0  0  0  0
 19  9  1  0  0  0  0
 20  6  1  0  0  0  0
 21 12  1  0  0  0  0
 22 21  1  0  0  0  0
 23 17  1  0  0  0  0
 23 19  1  0  0  0  0
 26 25  1  0  0  0  0
 27 24  1  6  0  0  0
 27 26  1  0  0  0  0
 27 25  1  0  0  0  0
M  END
>  <MODEL>
5

>  <REMARK>
 VINA RESULT:      -7.3      3.786      6.590
  Name = 
  2 active torsions:
  status: ('A' for Active; 'I' for Inactive)
    1  A    between atoms: C_9  and  C_27
    2  A    between atoms: C_25  and  C_27
                            x       y       z     vdW  Elec       q    Type
                         _______ _______ _______ _____ _____    ______ ____

>  <TORSDO>
F 2

$$$$
=
 OpenBabel11052413453D

 27 32  0  0  1  0  0  0  0  0999 V2000
  182.8340  178.6270  137.5040 N   0  0  0  0  0  2  0  0  0  0  0  0
  184.2990  178.2040  139.5950 C   0  0  0  0  0  0  0  0  0  0  0  0
  181.9890  177.9380  140.4750 N   0  0  0  0  0  0  0  0  0  0  0  0
  185.7320  179.0400  143.4350 C   0  0  0  0  0  3  0  0  0  0  0  0
  185.3950  179.3340  145.8910 C   0  0  0  0  0  1  0  0  0  0  0  0
  185.6500  178.4890  139.8360 C   0  0  0  0  0  3  0  0  0  0  0  0
  183.0090  178.4800  143.0820 C   0  0  0  0  0  3  0  0  0  0  0  0
  183.7550  176.3060  137.9690 C   0  0  1  0  0  3  0  0  0  0  0  0
  179.3650  177.5990  137.9580 C   0  0  0  0  0  2  0  0  0  0  0  0
  184.8350  177.1350  137.2850 C   0  0  0  0  0  2  0  0  0  0  0  0
  183.5100  178.7560  144.3570 C   0  0  0  0  0  3  0  0  0  0  0  0
  178.9310  178.9180  137.3470 C   0  0  0  0  0  2  0  0  0  0  0  0
  183.8680  178.4780  141.9740 C   0  0  0  0  0  0  0  0  0  0  0  0
  183.8400  177.8120  138.2050 C   0  0  1  0  0  0  0  0  0  0  0  0
  184.8690  179.0340  144.5340 C   0  0  0  0  0  0  0  0  0  0  0  0
  185.2420  178.7580  142.1570 C   0  0  0  0  0  0  0  0  0  0  0  0
  181.9330  179.2870  138.4500 C   0  0  1  0  0  3  0  0  0  0  0  0
  183.3880  178.2240  140.6790 C   0  0  0  0  0  0  0  0  0  0  0  0
  179.9850  177.8020  139.2600 N   0  0  0  0  0  2  0  0  0  0  0  0
  186.0860  178.7620  141.0930 N   0  0  0  0  0  0  0  0  0  0  0  0
  180.1120  179.6250  136.7110 C   0  0  0  0  0  2  0  0  0  0  0  0
  180.9870  180.2740  137.7720 C   0  0  0  0  0  2  0  0  0  0  0  0
  181.3010  178.3340  139.4430 C   0  0  0  0  0  0  0  0  0  0  0  0
  182.6830  175.9210  136.9590 C   0  0  0  0  0  2  0  0  0  0  0  0
  181.7930  173.6940  136.4900 C   0  0  0  0  0  2  0  0  0  0  0  0
  180.7240  174.5950  136.6590 O   0  0  0  0  0  0  0  0  0  0  0  0
  181.8440  174.7780  137.4950 C   0  0  2  0  0  3  0  0  0  0  0  0
  1 14  1  0  0  0  0
  1 17  1  0  0  0  0
  2  6  2  0  0  0  0
  2 18  1  0  0  0  0
  3 18  1  0  0  0  0
  4 15  2  0  0  0  0
  6 20  1  0  0  0  0
  7 11  2  0  0  0  0
  8 24  1  6  0  0  0
  8 14  1  0  0  0  0
  9 19  1  0  0  0  0
 10  8  1  0  0  0  0
 11 15  1  0  0  0  0
 12  9  1  0  0  0  0
 13 16  1  0  0  0  0
 13  7  1  0  0  0  0
 14 10  1  6  0  0  0
 14  2  1  0  0  0  0
 15  5  1  0  0  0  0
 16  4  1  0  0  0  0
 17 22  1  6  0  0  0
 17 23  1  0  0  0  0
 18 13  2  0  0  0  0
 19 23  1  0  0  0  0
 20 16  2  0  0  0  0
 21 12  1  0  0  0  0
 21 22  1  0  0  0  0
 23  3  2  0  0  0  0
 25 26  1  0  0  0  0
 25 27  1  0  0  0  0
 26 27  1  0  0  0  0
 27 24  1  6  0  0  0
M  END
>  <MODEL>
6

>  <REMARK>
 VINA RESULT:      -6.4      5.807      9.641
  Name = 
  2 active torsions:
  status: ('A' for Active; 'I' for Inactive)
    1  A    between atoms: C_9  and  C_27
    2  A    between atoms: C_25  and  C_27
                            x       y       z     vdW  Elec       q    Type
                         _______ _______ _______ _____ _____    ______ ____

>  <TORSDO>
F 2

$$$$
=
 OpenBabel11052413453D

 27 32  0  0  1  0  0  0  0  0999 V2000
  189.1220  176.8940  135.9920 N   0  0  0  0  0  2  0  0  0  0  0  0
  186.6820  176.3850  136.6880 C   0  0  0  0  0  0  0  0  0  0  0  0
  187.8920  174.3210  137.3630 N   0  0  0  0  0  0  0  0  0  0  0  0
  183.0670  174.2880  136.5250 C   0  0  0  0  0  3  0  0  0  0  0  0
  181.7240  172.1990  136.7800 C   0  0  0  0  0  1  0  0  0  0  0  0
  185.4800  177.0080  136.3250 C   0  0  0  0  0  3  0  0  0  0  0  0
  185.4020  172.9330  137.2720 C   0  0  0  0  0  3  0  0  0  0  0  0
  188.2540  177.6580  138.2550 C   0  0  1  0  0  3  0  0  0  0  0  0
  191.5340  174.5720  137.4370 C   0  0  0  0  0  2  0  0  0  0  0  0
  187.8230  178.6670  137.1970 C   0  0  0  0  0  2  0  0  0  0  0  0
  184.1820  172.2520  137.2170 C   0  0  0  0  0  3  0  0  0  0  0  0
  192.1830  174.4510  136.0710 C   0  0  0  0  0  2  0  0  0  0  0  0
  185.4620  174.2980  136.9580 C   0  0  0  0  0  0  0  0  0  0  0  0
  187.9510  177.2030  136.8290 C   0  0  1  0  0  0  0  0  0  0  0  0
  183.0160  172.9290  136.8450 C   0  0  0  0  0  0  0  0  0  0  0  0
  184.2800  174.9780  136.5840 C   0  0  0  0  0  0  0  0  0  0  0  0
  189.1610  175.4750  135.6370 C   0  0  1  0  0  3  0  0  0  0  0  0
  186.6770  175.0010  136.9860 C   0  0  0  0  0  0  0  0  0  0  0  0
  190.2100  173.9650  137.4460 N   0  0  0  0  0  2  0  0  0  0  0  0
  184.3220  176.3000  136.2760 N   0  0  0  0  0  0  0  0  0  0  0  0
  191.6500  175.5160  135.1330 C   0  0  0  0  0  2  0  0  0  0  0  0
  190.2620  175.1490  134.6320 C   0  0  0  0  0  2  0  0  0  0  0  0
  189.0580  174.5520  136.8330 C   0  0  0  0  0  0  0  0  0  0  0  0
  189.7440  177.8010  138.5280 C   0  0  0  0  0  2  0  0  0  0  0  0
  191.4700  177.4490  140.2230 C   0  0  0  0  0  2  0  0  0  0  0  0
  190.5550  176.3790  140.2620 O   0  0  0  0  0  0  0  0  0  0  0  0
  190.0210  177.6600  140.0120 C   0  0  2  0  0  3  0  0  0  0  0  0
  1 14  1  0  0  0  0
  2 14  1  0  0  0  0
  2 18  1  0  0  0  0
  4 16  1  0  0  0  0
  4 15  2  0  0  0  0
  5 15  1  0  0  0  0
  6  2  2  0  0  0  0
  8 24  1  6  0  0  0
  9 19  1  0  0  0  0
 10  8  1  0  0  0  0
 11  7  2  0  0  0  0
 12  9  1  0  0  0  0
 13 18  2  0  0  0  0
 13  7  1  0  0  0  0
 14 10  1  6  0  0  0
 14  8  1  0  0  0  0
 15 11  1  0  0  0  0
 16 13  1  0  0  0  0
 17 22  1  1  0  0  0
 17  1  1  0  0  0  0
 17 23  1  0  0  0  0
 18  3  1  0  0  0  0
 20  6  1  0  0  0  0
 20 16  2  0  0  0  0
 21 12  1  0  0  0  0
 22 21  1  0  0  0  0
 23  3  2  0  0  0  0
 23 19  1  0  0  0  0
 25 26  1  0  0  0  0
 27 24  1  6  0  0  0
 27 25  1  0  0  0  0
 27 26  1  0  0  0  0
M  END
>  <MODEL>
7

>  <REMARK>
 VINA RESULT:      -6.4      6.920      8.756
  Name = 
  2 active torsions:
  status: ('A' for Active; 'I' for Inactive)
    1  A    between atoms: C_9  and  C_27
    2  A    between atoms: C_25  and  C_27
                            x       y       z     vdW  Elec       q    Type
                         _______ _______ _______ _____ _____    ______ ____

>  <TORSDO>
F 2

$$$$
=
 OpenBabel11052413453D

 27 32  0  0  1  0  0  0  0  0999 V2000
  184.0550  179.5180  138.1670 N   0  0  0  0  0  2  0  0  0  0  0  0
  185.1540  178.5420  140.2970 C   0  0  0  0  0  0  0  0  0  0  0  0
  182.7290  178.4500  140.8350 N   0  0  0  0  0  0  0  0  0  0  0  0
  186.1220  178.4970  144.3660 C   0  0  0  0  0  3  0  0  0  0  0  0
  185.4810  178.4070  146.7770 C   0  0  0  0  0  1  0  0  0  0  0  0
  186.4820  178.5910  140.7430 C   0  0  0  0  0  3  0  0  0  0  0  0
  183.4300  178.3880  143.5990 C   0  0  0  0  0  3  0  0  0  0  0  0
  184.6300  177.0460  138.2890 C   0  0  1  0  0  3  0  0  0  0  0  0
  180.4610  178.9170  138.0110 C   0  0  0  0  0  2  0  0  0  0  0  0
  185.8820  177.8240  137.9050 C   0  0  0  0  0  2  0  0  0  0  0  0
  183.7760  178.3680  144.9530 C   0  0  0  0  0  3  0  0  0  0  0  0
  180.2710  180.3680  137.6140 C   0  0  0  0  0  2  0  0  0  0  0  0
  184.4290  178.4590  142.6180 C   0  0  0  0  0  0  0  0  0  0  0  0
  184.8520  178.4630  138.8140 C   0  0  1  0  0  0  0  0  0  0  0  0
  185.1200  178.4210  145.3360 C   0  0  0  0  0  0  0  0  0  0  0  0
  185.7870  178.5100  143.0100 C   0  0  0  0  0  0  0  0  0  0  0  0
  183.1120  180.1230  139.1090 C   0  0  1  0  0  3  0  0  0  0  0  0
  184.1090  178.5000  141.2510 C   0  0  0  0  0  0  0  0  0  0  0  0
  180.9130  178.8040  139.3910 N   0  0  0  0  0  2  0  0  0  0  0  0
  186.7660  178.5800  142.0720 N   0  0  0  0  0  0  0  0  0  0  0  0
  181.6030  181.0040  137.2660 C   0  0  0  0  0  2  0  0  0  0  0  0
  182.3890  181.3330  138.5250 C   0  0  0  0  0  2  0  0  0  0  0  0
  182.2420  179.1100  139.8240 C   0  0  0  0  0  0  0  0  0  0  0  0
  183.6720  176.9940  137.1080 C   0  0  0  0  0  2  0  0  0  0  0  0
  183.0900  175.5270  135.2410 C   0  0  0  0  0  2  0  0  0  0  0  0
  183.7170  174.7700  136.2490 O   0  0  0  0  0  0  0  0  0  0  0  0
  184.2140  176.0710  136.0340 C   0  0  2  0  0  3  0  0  0  0  0  0
  1 14  1  0  0  0  0
  1 17  1  0  0  0  0
  2  6  2  0  0  0  0
  2 18  1  0  0  0  0
  3 18  1  0  0  0  0
  4 15  2  0  0  0  0
  6 20  1  0  0  0  0
  7 11  2  0  0  0  0
  8 24  1  6  0  0  0
  8 14  1  0  0  0  0
  9 19  1  0  0  0  0
 10  8  1  0  0  0  0
 11 15  1  0  0  0  0
 12  9  1  0  0  0  0
 13 16  1  0  0  0  0
 13  7  1  0  0  0  0
 14 10  1  6  0  0  0
 14  2  1  0  0  0  0
 15  5  1  0  0  0  0
 16  4  1  0  0  0  0
 17 22  1  6  0  0  0
 17 23  1  0  0  0  0
 18 13  2  0  0  0  0
 19 23  1  0  0  0  0
 20 16  2  0  0  0  0
 21 12  1  0  0  0  0
 21 22  1  0  0  0  0
 23  3  2  0  0  0  0
 25 27  1  0  0  0  0
 25 26  1  0  0  0  0
 27 26  1  0  0  0  0
 27 24  1  1  0  0  0
M  END
>  <MODEL>
8

>  <REMARK>
 VINA RESULT:      -6.2      5.334      8.917
  Name = 
  2 active torsions:
  status: ('A' for Active; 'I' for Inactive)
    1  A    between atoms: C_9  and  C_27
    2  A    between atoms: C_25  and  C_27
                            x       y       z     vdW  Elec       q    Type
                         _______ _______ _______ _____ _____    ______ ____

>  <TORSDO>
F 2

$$$$
=
 OpenBabel11052413453D

 27 32  0  0  1  0  0  0  0  0999 V2000
  180.6410  177.5310  140.6170 N   0  0  0  0  0  2  0  0  0  0  0  0
  182.4180  178.3740  142.2980 C   0  0  0  0  0  0  0  0  0  0  0  0
  183.6540  178.3760  140.1400 N   0  0  0  0  0  0  0  0  0  0  0  0
  186.0120  178.1470  144.4260 C   0  0  0  0  0  3  0  0  0  0  0  0
  188.5050  178.0510  144.5270 C   0  0  0  0  0  1  0  0  0  0  0  0
  182.4480  178.3210  143.6990 C   0  0  0  0  0  3  0  0  0  0  0  0
  186.0840  178.2550  141.6280 C   0  0  0  0  0  3  0  0  0  0  0  0
  180.7730  179.9990  141.2040 C   0  0  1  0  0  3  0  0  0  0  0  0
  181.5980  178.0660  137.1390 C   0  0  0  0  0  2  0  0  0  0  0  0
  179.9790  179.2780  142.2870 C   0  0  0  0  0  2  0  0  0  0  0  0
  187.2730  178.1850  142.3580 C   0  0  0  0  0  3  0  0  0  0  0  0
  181.1670  176.6430  136.8380 C   0  0  0  0  0  2  0  0  0  0  0  0
  184.8500  178.2760  142.2920 C   0  0  0  0  0  0  0  0  0  0  0  0
  181.1010  178.5530  141.5710 C   0  0  1  0  0  0  0  0  0  0  0  0
  187.2380  178.1330  143.7550 C   0  0  0  0  0  0  0  0  0  0  0  0
  184.8190  178.2250  143.7050 C   0  0  0  0  0  0  0  0  0  0  0  0
  181.7710  176.8400  139.9940 C   0  0  1  0  0  3  0  0  0  0  0  0
  183.6390  178.3260  141.5820 C   0  0  0  0  0  0  0  0  0  0  0  0
  182.7880  178.0880  137.9780 N   0  0  0  0  0  2  0  0  0  0  0  0
  183.6310  178.2430  144.3630 N   0  0  0  0  0  0  0  0  0  0  0  0
  180.3950  176.0630  138.0070 C   0  0  0  0  0  2  0  0  0  0  0  0
  181.3370  175.6600  139.1300 C   0  0  0  0  0  2  0  0  0  0  0  0
  182.7840  177.7810  139.3760 C   0  0  0  0  0  0  0  0  0  0  0  0
  179.9340  180.1160  139.9400 C   0  0  0  0  0  2  0  0  0  0  0  0
  178.9550  181.7170  138.3740 C   0  0  0  0  0  2  0  0  0  0  0  0
  180.2420  182.1550  138.7420 O   0  0  0  0  0  0  0  0  0  0  0  0
  179.4670  181.5470  139.7500 C   0  0  2  0  0  3  0  0  0  0  0  0
  1 14  1  0  0  0  0
  2  6  1  0  0  0  0
  3 18  1  0  0  0  0
  6 20  2  0  0  0  0
  7 13  2  0  0  0  0
  7 11  1  0  0  0  0
  8 24  1  6  0  0  0
  8 14  1  0  0  0  0
  8 10  1  0  0  0  0
  9 19  1  0  0  0  0
 11 15  2  0  0  0  0
 12  9  1  0  0  0  0
 12 21  1  0  0  0  0
 13 16  1  0  0  0  0
 14 10  1  1  0  0  0
 14  2  1  0  0  0  0
 15  4  1  0  0  0  0
 15  5  1  0  0  0  0
 16 20  1  0  0  0  0
 16  4  2  0  0  0  0
 17 22  1  6  0  0  0
 17  1  1  0  0  0  0
 18 13  1  0  0  0  0
 18  2  2  0  0  0  0
 19 23  1  0  0  0  0
 21 22  1  0  0  0  0
 23 17  1  0  0  0  0
 23  3  2  0  0  0  0
 25 26  1  0  0  0  0
 25 27  1  0  0  0  0
 26 27  1  0  0  0  0
 27 24  1  6  0  0  0
M  END
>  <MODEL>
9

>  <REMARK>
 VINA RESULT:      -5.9      5.075      9.398
  Name = 
  2 active torsions:
  status: ('A' for Active; 'I' for Inactive)
    1  A    between atoms: C_9  and  C_27
    2  A    between atoms: C_25  and  C_27
                            x       y       z     vdW  Elec       q    Type
                         _______ _______ _______ _____ _____    ______ ____

>  <TORSDO>
F 2

$$$$
