=
 OpenBabel11052414453D

 32 36  0  0  1  0  0  0  0  0999 V2000
  189.0470  177.0330  143.2920 C   0  0  0  0  0  2  0  0  0  0  0  0
  188.3330  177.0720  144.6440 C   0  0  2  0  0  3  0  0  0  0  0  0
  186.9470  177.6430  144.5230 C   0  0  0  0  0  0  0  0  0  0  0  0
  186.2880  178.0730  145.6820 C   0  0  0  0  0  3  0  0  0  0  0  0
  182.9810  178.6550  141.9230 C   0  0  0  0  0  3  0  0  0  0  0  0
  186.2760  177.6790  143.2890 C   0  0  0  0  0  3  0  0  0  0  0  0
  182.9920  179.0550  144.3150 C   0  0  0  0  0  3  0  0  0  0  0  0
  184.3090  178.5900  144.3870 C   0  0  0  0  0  0  0  0  0  0  0  0
  184.9740  178.5480  145.6150 C   0  0  0  0  0  3  0  0  0  0  0  0
  184.9660  178.1530  143.2160 C   0  0  0  0  0  0  0  0  0  0  0  0
  182.3300  179.0870  143.0830 C   0  0  0  0  0  3  0  0  0  0  0  0
  184.2980  178.1880  141.9880 C   0  0  0  0  0  3  0  0  0  0  0  0
  189.0950  176.9560  147.0040 C   0  0  1  0  0  3  0  0  0  0  0  0
  189.1690  177.7600  145.7190 C   0  0  1  0  0  3  0  0  0  0  0  0
  190.3240  176.8660  146.1250 C   0  0  0  0  0  2  0  0  0  0  0  0
  188.3750  178.3010  148.9140 C   0  0  0  0  0  2  0  0  0  0  0  0
  189.3740  177.8590  148.1570 C   0  0  0  0  0  3  0  0  0  0  0  0
  190.1020  178.1300  143.1660 C   0  0  0  0  0  2  0  0  0  0  0  0
  191.4310  177.6050  142.6220 C   0  0  1  0  0  3  0  0  0  0  0  0
  191.6860  176.3140  143.0900 O   0  0  0  0  0  1  0  0  0  0  0  0
  191.5570  177.6660  141.0920 C   0  0  1  0  0  3  0  0  0  0  0  0
  192.8840  177.4840  140.6960 O   0  0  0  0  0  1  0  0  0  0  0  0
  190.6680  176.6420  140.3840 C   0  0  0  0  0  2  0  0  0  0  0  0
  190.5920  176.8210  138.8650 C   0  0  1  0  0  3  0  0  0  0  0  0
  191.2900  175.6920  138.1140 C   0  0  2  0  0  3  0  0  0  0  0  0
  192.5110  176.2200  137.3820 C   0  0  2  0  0  3  0  0  0  0  0  0
  191.2410  175.9570  136.6190 C   0  0  1  0  0  3  0  0  0  0  0  0
  192.5760  175.5600  136.0190 C   0  0  0  0  0  2  0  0  0  0  0  0
  189.1440  176.9840  138.4090 C   0  0  0  0  0  2  0  0  0  0  0  0
  187.5300  178.3210  139.9160 C   0  0  0  0  0  1  0  0  0  0  0  0
  188.9780  179.3360  138.3700 O   0  0  0  0  0  0  0  0  0  0  0  0
  188.5760  178.2910  138.8560 C   0  0  0  0  0  0  0  0  0  0  0  0
  2  1  1  6  0  0  0
  3  2  1  0  0  0  0
  3  4  1  0  0  0  0
  5 12  2  0  0  0  0
  5 11  1  0  0  0  0
  6  3  2  0  0  0  0
  7  8  1  0  0  0  0
  8  9  1  0  0  0  0
  9  4  2  0  0  0  0
 10  6  1  0  0  0  0
 10  8  2  0  0  0  0
 11  7  2  0  0  0  0
 12 10  1  0  0  0  0
 13 17  1  1  0  0  0
 14  2  1  6  0  0  0
 14 15  1  0  0  0  0
 14 13  1  0  0  0  0
 15 13  1  0  0  0  0
 17 16  2  0  0  0  0
 18  1  1  0  0  0  0
 19 20  1  6  0  0  0
 19 18  1  0  0  0  0
 21 22  1  1  0  0  0
 21 19  1  0  0  0  0
 23 21  1  0  0  0  0
 24 29  1  6  0  0  0
 24 23  1  0  0  0  0
 25 24  1  1  0  0  0
 26 28  1  6  0  0  0
 26 25  1  0  0  0  0
 27 28  1  6  0  0  0
 27 26  1  0  0  0  0
 27 25  1  0  0  0  0
 29 32  1  0  0  0  0
 31 32  2  0  0  0  0
 32 30  1  0  0  0  0
M  END
>  <MODEL>
1

>  <REMARK>
 VINA RESULT:      -8.9      0.000      0.000
  Name = 
  12 active torsions:
  status: ('A' for Active; 'I' for Inactive)
    1  A    between atoms: C_1  and  C_5
    2  A    between atoms: C_1  and  C_30
    3  A    between atoms: C_2  and  C_5
    4  A    between atoms: C_3  and  C_20
    5  A    between atoms: C_4  and  C_24
    6  A    between atoms: C_4  and  C_30
    7  A    between atoms: C_5  and  C_14
    8  A    between atoms: C_13  and  C_29
    9  A    between atoms: C_15  and  C_20
   10  A    between atoms: C_15  and  C_26
   11  A    between atoms: C_16  and  C_20
   12  A    between atoms: C_16  and  C_24
                            x       y       z     vdW  Elec       q    Type
                         _______ _______ _______ _____ _____    ______ ____

>  <TORSDO>
F 12

$$$$
=
 OpenBabel11052414453D

 32 36  0  0  1  0  0  0  0  0999 V2000
  185.5410  177.9470  142.1440 C   0  0  0  0  0  2  0  0  0  0  0  0
  184.7600  178.6150  143.2770 C   0  0  2  0  0  3  0  0  0  0  0  0
  185.4590  178.4600  144.6000 C   0  0  0  0  0  0  0  0  0  0  0  0
  184.8440  178.9590  145.7540 C   0  0  0  0  0  3  0  0  0  0  0  0
  189.3300  177.2060  147.2360 C   0  0  0  0  0  3  0  0  0  0  0  0
  186.7440  177.8980  144.6850 C   0  0  0  0  0  3  0  0  0  0  0  0
  187.4290  178.2630  148.3080 C   0  0  0  0  0  3  0  0  0  0  0  0
  186.7700  178.3260  147.0780 C   0  0  0  0  0  0  0  0  0  0  0  0
  185.4950  178.8900  146.9900 C   0  0  0  0  0  3  0  0  0  0  0  0
  187.3980  177.8250  145.9160 C   0  0  0  0  0  0  0  0  0  0  0  0
  188.7080  177.7030  148.3860 C   0  0  0  0  0  3  0  0  0  0  0  0
  188.6770  177.2670  146.0010 C   0  0  0  0  0  3  0  0  0  0  0  0
  182.4020  179.3860  143.3770 C   0  0  1  0  0  3  0  0  0  0  0  0
  183.3020  178.1660  143.3170 C   0  0  1  0  0  3  0  0  0  0  0  0
  182.5820  178.6420  142.0710 C   0  0  0  0  0  2  0  0  0  0  0  0
  179.9590  179.3290  143.4010 C   0  0  0  0  0  2  0  0  0  0  0  0
  181.1020  178.9990  143.9950 C   0  0  0  0  0  3  0  0  0  0  0  0
  186.0410  178.9580  141.1150 C   0  0  0  0  0  2  0  0  0  0  0  0
  186.5450  178.2900  139.8350 C   0  0  1  0  0  3  0  0  0  0  0  0
  185.9670  178.8760  138.7060 O   0  0  0  0  0  1  0  0  0  0  0  0
  188.0750  178.2460  139.7030 C   0  0  1  0  0  3  0  0  0  0  0  0
  188.5090  179.0830  138.6730 O   0  0  0  0  0  1  0  0  0  0  0  0
  188.7910  178.6240  141.0020 C   0  0  0  0  0  2  0  0  0  0  0  0
  189.9960  177.7400  141.3330 C   0  0  1  0  0  3  0  0  0  0  0  0
  189.9160  177.1560  142.7400 C   0  0  2  0  0  3  0  0  0  0  0  0
  191.2220  177.3820  143.4810 C   0  0  2  0  0  3  0  0  0  0  0  0
  190.9230  176.0300  142.8920 C   0  0  1  0  0  3  0  0  0  0  0  0
  191.5480  176.1290  144.2700 C   0  0  0  0  0  2  0  0  0  0  0  0
  190.1730  176.6450  140.2840 C   0  0  0  0  0  2  0  0  0  0  0  0
  191.4000  176.4950  138.0180 C   0  0  0  0  0  1  0  0  0  0  0  0
  192.3860  177.3900  139.9520 O   0  0  0  0  0  0  0  0  0  0  0  0
  191.3960  176.8750  139.4580 C   0  0  0  0  0  0  0  0  0  0  0  0
  2  1  1  6  0  0  0
  2  3  1  0  0  0  0
  3  6  2  0  0  0  0
  3  4  1  0  0  0  0
  4  9  2  0  0  0  0
  5 11  1  0  0  0  0
  6 10  1  0  0  0  0
  7 11  2  0  0  0  0
  8  7  1  0  0  0  0
  9  8  1  0  0  0  0
 10 12  1  0  0  0  0
 10  8  2  0  0  0  0
 12  5  2  0  0  0  0
 13 17  1  1  0  0  0
 14  2  1  6  0  0  0
 14 13  1  0  0  0  0
 15 14  1  0  0  0  0
 15 13  1  0  0  0  0
 16 17  2  0  0  0  0
 18  1  1  0  0  0  0
 19 20  1  6  0  0  0
 19 18  1  0  0  0  0
 21 22  1  6  0  0  0
 21 19  1  0  0  0  0
 21 23  1  0  0  0  0
 23 24  1  0  0  0  0
 24 29  1  6  0  0  0
 25 24  1  6  0  0  0
 25 27  1  0  0  0  0
 25 26  1  0  0  0  0
 26 28  1  1  0  0  0
 27 26  1  0  0  0  0
 27 28  1  1  0  0  0
 30 32  1  0  0  0  0
 32 31  2  0  0  0  0
 32 29  1  0  0  0  0
M  END
>  <MODEL>
2

>  <REMARK>
 VINA RESULT:      -8.7      1.311      5.733
  Name = 
  12 active torsions:
  status: ('A' for Active; 'I' for Inactive)
    1  A    between atoms: C_1  and  C_5
    2  A    between atoms: C_1  and  C_30
    3  A    between atoms: C_2  and  C_5
    4  A    between atoms: C_3  and  C_20
    5  A    between atoms: C_4  and  C_24
    6  A    between atoms: C_4  and  C_30
    7  A    between atoms: C_5  and  C_14
    8  A    between atoms: C_13  and  C_29
    9  A    between atoms: C_15  and  C_20
   10  A    between atoms: C_15  and  C_26
   11  A    between atoms: C_16  and  C_20
   12  A    between atoms: C_16  and  C_24
                            x       y       z     vdW  Elec       q    Type
                         _______ _______ _______ _____ _____    ______ ____

>  <TORSDO>
F 12

$$$$
=
 OpenBabel11052414453D

 32 36  0  0  1  0  0  0  0  0999 V2000
  185.9940  177.9390  142.2470 C   0  0  0  0  0  2  0  0  0  0  0  0
  185.1700  178.5880  143.3600 C   0  0  2  0  0  3  0  0  0  0  0  0
  185.8390  178.4480  144.7000 C   0  0  0  0  0  0  0  0  0  0  0  0
  185.2090  178.9810  145.8310 C   0  0  0  0  0  3  0  0  0  0  0  0
  189.6340  177.1820  147.4400 C   0  0  0  0  0  3  0  0  0  0  0  0
  187.1110  177.8650  144.8230 C   0  0  0  0  0  3  0  0  0  0  0  0
  187.7300  178.2930  148.4510 C   0  0  0  0  0  3  0  0  0  0  0  0
  187.0970  178.3430  147.2060 C   0  0  0  0  0  0  0  0  0  0  0  0
  185.8340  178.9260  147.0810 C   0  0  0  0  0  3  0  0  0  0  0  0
  187.7390  177.8070  146.0680 C   0  0  0  0  0  0  0  0  0  0  0  0
  188.9970  177.7140  148.5670 C   0  0  0  0  0  3  0  0  0  0  0  0
  189.0060  177.2290  146.1910 C   0  0  0  0  0  3  0  0  0  0  0  0
  182.7920  179.3000  143.4530 C   0  0  1  0  0  3  0  0  0  0  0  0
  183.7220  178.1040  143.3640 C   0  0  1  0  0  3  0  0  0  0  0  0
  183.0080  178.6060  142.1250 C   0  0  0  0  0  2  0  0  0  0  0  0
  180.3580  179.0970  143.3880 C   0  0  0  0  0  2  0  0  0  0  0  0
  181.4940  178.8620  144.0380 C   0  0  0  0  0  3  0  0  0  0  0  0
  186.3800  178.9390  141.1590 C   0  0  0  0  0  2  0  0  0  0  0  0
  186.1040  178.4080  139.7510 C   0  0  1  0  0  3  0  0  0  0  0  0
  185.2320  179.2540  139.0620 O   0  0  0  0  0  1  0  0  0  0  0  0
  187.3660  178.1310  138.9210 C   0  0  1  0  0  3  0  0  0  0  0  0
  187.3500  178.8660  137.7340 O   0  0  0  0  0  1  0  0  0  0  0  0
  188.6560  178.4290  139.6880 C   0  0  0  0  0  2  0  0  0  0  0  0
  189.6470  177.2630  139.7250 C   0  0  1  0  0  3  0  0  0  0  0  0
  190.3240  177.0360  138.3770 C   0  0  2  0  0  3  0  0  0  0  0  0
  190.0790  175.6170  137.8950 C   0  0  2  0  0  3  0  0  0  0  0  0
  191.4040  175.9770  138.5120 C   0  0  1  0  0  3  0  0  0  0  0  0
  191.3610  175.0910  137.2810 C   0  0  0  0  0  2  0  0  0  0  0  0
  190.6730  177.4550  140.8390 C   0  0  0  0  0  2  0  0  0  0  0  0
  189.4530  176.0740  142.6460 C   0  0  0  0  0  1  0  0  0  0  0  0
  190.0080  178.3390  142.9220 O   0  0  0  0  0  0  0  0  0  0  0  0
  190.0360  177.3650  142.1880 C   0  0  0  0  0  0  0  0  0  0  0  0
  2  1  1  6  0  0  0
  2  3  1  0  0  0  0
  3  6  2  0  0  0  0
  3  4  1  0  0  0  0
  4  9  2  0  0  0  0
  5 11  1  0  0  0  0
  6 10  1  0  0  0  0
  7 11  2  0  0  0  0
  8  7  1  0  0  0  0
  9  8  1  0  0  0  0
 10 12  1  0  0  0  0
 10  8  2  0  0  0  0
 12  5  2  0  0  0  0
 13 17  1  1  0  0  0
 14  2  1  6  0  0  0
 14 13  1  0  0  0  0
 15 14  1  0  0  0  0
 15 13  1  0  0  0  0
 16 17  2  0  0  0  0
 18  1  1  0  0  0  0
 19 20  1  6  0  0  0
 19 18  1  0  0  0  0
 21 22  1  6  0  0  0
 21 23  1  0  0  0  0
 21 19  1  0  0  0  0
 24 23  1  6  0  0  0
 24 29  1  0  0  0  0
 25 27  1  0  0  0  0
 25 24  1  1  0  0  0
 26 28  1  6  0  0  0
 26 25  1  0  0  0  0
 26 27  1  0  0  0  0
 27 28  1  6  0  0  0
 29 32  1  0  0  0  0
 32 30  1  0  0  0  0
 32 31  2  0  0  0  0
M  END
>  <MODEL>
3

>  <REMARK>
 VINA RESULT:      -8.7      1.390      5.350
  Name = 
  12 active torsions:
  status: ('A' for Active; 'I' for Inactive)
    1  A    between atoms: C_1  and  C_5
    2  A    between atoms: C_1  and  C_30
    3  A    between atoms: C_2  and  C_5
    4  A    between atoms: C_3  and  C_20
    5  A    between atoms: C_4  and  C_24
    6  A    between atoms: C_4  and  C_30
    7  A    between atoms: C_5  and  C_14
    8  A    between atoms: C_13  and  C_29
    9  A    between atoms: C_15  and  C_20
   10  A    between atoms: C_15  and  C_26
   11  A    between atoms: C_16  and  C_20
   12  A    between atoms: C_16  and  C_24
                            x       y       z     vdW  Elec       q    Type
                         _______ _______ _______ _____ _____    ______ ____

>  <TORSDO>
F 12

$$$$
=
 OpenBabel11052414453D

 32 36  0  0  1  0  0  0  0  0999 V2000
  189.7360  177.8590  143.2140 C   0  0  0  0  0  2  0  0  0  0  0  0
  189.0970  177.2920  144.4820 C   0  0  2  0  0  3  0  0  0  0  0  0
  187.6730  177.7500  144.6390 C   0  0  0  0  0  0  0  0  0  0  0  0
  187.1750  177.9860  145.9270 C   0  0  0  0  0  3  0  0  0  0  0  0
  183.2910  178.7040  142.7970 C   0  0  0  0  0  3  0  0  0  0  0  0
  186.8180  177.8690  143.5310 C   0  0  0  0  0  3  0  0  0  0  0  0
  183.6470  178.8270  145.1920 C   0  0  0  0  0  3  0  0  0  0  0  0
  184.9870  178.4730  145.0120 C   0  0  0  0  0  0  0  0  0  0  0  0
  185.8370  178.3490  146.1130 C   0  0  0  0  0  3  0  0  0  0  0  0
  185.4820  178.2330  143.7110 C   0  0  0  0  0  0  0  0  0  0  0  0
  182.8010  178.9420  144.0850 C   0  0  0  0  0  3  0  0  0  0  0  0
  184.6300  178.3490  142.6080 C   0  0  0  0  0  3  0  0  0  0  0  0
  190.9510  176.4270  145.8900 C   0  0  1  0  0  3  0  0  0  0  0  0
  189.9470  177.5520  145.7230 C   0  0  1  0  0  3  0  0  0  0  0  0
  191.3930  177.7590  145.3230 C   0  0  0  0  0  2  0  0  0  0  0  0
  192.4350  175.6590  147.6730 C   0  0  0  0  0  2  0  0  0  0  0  0
  191.3480  176.3410  147.3230 C   0  0  0  0  0  3  0  0  0  0  0  0
  189.7380  176.8480  142.0690 C   0  0  0  0  0  2  0  0  0  0  0  0
  190.1470  177.4750  140.7350 C   0  0  1  0  0  3  0  0  0  0  0  0
  191.2850  176.8520  140.2200 O   0  0  0  0  0  1  0  0  0  0  0  0
  189.0250  177.5180  139.6860 C   0  0  1  0  0  3  0  0  0  0  0  0
  187.9090  178.1940  140.1810 O   0  0  0  0  0  1  0  0  0  0  0  0
  189.4700  178.1620  138.3710 C   0  0  0  0  0  2  0  0  0  0  0  0
  189.4620  177.2110  137.1720 C   0  0  1  0  0  3  0  0  0  0  0  0
  189.0040  175.8060  137.5520 C   0  0  2  0  0  3  0  0  0  0  0  0
  190.1450  174.8160  137.3910 C   0  0  2  0  0  3  0  0  0  0  0  0
  189.0710  174.8940  136.3390 C   0  0  1  0  0  3  0  0  0  0  0  0
  189.5910  173.5410  136.7860 C   0  0  0  0  0  2  0  0  0  0  0  0
  188.6240  177.7810  136.0300 C   0  0  0  0  0  2  0  0  0  0  0  0
  186.1600  177.5790  136.7700 C   0  0  0  0  0  1  0  0  0  0  0  0
  187.3390  179.6100  136.7830 O   0  0  0  0  0  0  0  0  0  0  0  0
  187.3700  178.4150  136.5390 C   0  0  0  0  0  0  0  0  0  0  0  0
  2  1  1  6  0  0  0
  2  3  1  0  0  0  0
  3  4  1  0  0  0  0
  4  9  2  0  0  0  0
  5 11  1  0  0  0  0
  6 10  1  0  0  0  0
  6  3  2  0  0  0  0
  8  7  1  0  0  0  0
  8  9  1  0  0  0  0
 10  8  2  0  0  0  0
 11  7  2  0  0  0  0
 12  5  2  0  0  0  0
 12 10  1  0  0  0  0
 13 17  1  1  0  0  0
 14  2  1  6  0  0  0
 14 13  1  0  0  0  0
 15 14  1  0  0  0  0
 15 13  1  0  0  0  0
 17 16  2  0  0  0  0
 18  1  1  0  0  0  0
 19 20  1  6  0  0  0
 19 18  1  0  0  0  0
 21 22  1  1  0  0  0
 21 19  1  0  0  0  0
 23 21  1  0  0  0  0
 24 29  1  6  0  0  0
 24 23  1  0  0  0  0
 25 24  1  6  0  0  0
 26 28  1  1  0  0  0
 26 25  1  0  0  0  0
 27 28  1  1  0  0  0
 27 26  1  0  0  0  0
 27 25  1  0  0  0  0
 29 32  1  0  0  0  0
 32 30  1  0  0  0  0
 32 31  2  0  0  0  0
M  END
>  <MODEL>
4

>  <REMARK>
 VINA RESULT:      -8.6      1.643      2.349
  Name = 
  12 active torsions:
  status: ('A' for Active; 'I' for Inactive)
    1  A    between atoms: C_1  and  C_5
    2  A    between atoms: C_1  and  C_30
    3  A    between atoms: C_2  and  C_5
    4  A    between atoms: C_3  and  C_20
    5  A    between atoms: C_4  and  C_24
    6  A    between atoms: C_4  and  C_30
    7  A    between atoms: C_5  and  C_14
    8  A    between atoms: C_13  and  C_29
    9  A    between atoms: C_15  and  C_20
   10  A    between atoms: C_15  and  C_26
   11  A    between atoms: C_16  and  C_20
   12  A    between atoms: C_16  and  C_24
                            x       y       z     vdW  Elec       q    Type
                         _______ _______ _______ _____ _____    ______ ____

>  <TORSDO>
F 12

$$$$
=
 OpenBabel11052414453D

 32 36  0  0  1  0  0  0  0  0999 V2000
  189.7480  177.8850  143.1900 C   0  0  0  0  0  2  0  0  0  0  0  0
  189.0900  177.3070  144.4440 C   0  0  2  0  0  3  0  0  0  0  0  0
  187.6650  177.7660  144.5850 C   0  0  0  0  0  0  0  0  0  0  0  0
  187.1500  177.9960  145.8660 C   0  0  0  0  0  3  0  0  0  0  0  0
  183.3070  178.7300  142.6890 C   0  0  0  0  0  3  0  0  0  0  0  0
  186.8240  177.8900  143.4660 C   0  0  0  0  0  3  0  0  0  0  0  0
  183.6320  178.8420  145.0900 C   0  0  0  0  0  3  0  0  0  0  0  0
  184.9740  178.4880  144.9250 C   0  0  0  0  0  0  0  0  0  0  0  0
  185.8100  178.3590  146.0370 C   0  0  0  0  0  3  0  0  0  0  0  0
  185.4870  178.2530  143.6300 C   0  0  0  0  0  0  0  0  0  0  0  0
  182.8000  178.9620  143.9720 C   0  0  0  0  0  3  0  0  0  0  0  0
  184.6490  178.3750  142.5170 C   0  0  0  0  0  3  0  0  0  0  0  0
  190.9580  176.4560  145.8410 C   0  0  1  0  0  3  0  0  0  0  0  0
  189.9220  177.5560  145.7000 C   0  0  1  0  0  3  0  0  0  0  0  0
  191.3650  177.8170  145.3180 C   0  0  0  0  0  2  0  0  0  0  0  0
  192.4560  175.6880  147.6130 C   0  0  0  0  0  2  0  0  0  0  0  0
  191.3470  176.3390  147.2750 C   0  0  0  0  0  3  0  0  0  0  0  0
  189.8180  176.8660  142.0550 C   0  0  0  0  0  2  0  0  0  0  0  0
  190.1260  177.5150  140.7040 C   0  0  1  0  0  3  0  0  0  0  0  0
  191.1930  176.8710  140.0740 O   0  0  0  0  0  1  0  0  0  0  0  0
  188.9180  177.6180  139.7610 C   0  0  1  0  0  3  0  0  0  0  0  0
  188.0920  178.6830  140.1280 O   0  0  0  0  0  1  0  0  0  0  0  0
  189.3240  177.7710  138.2940 C   0  0  0  0  0  2  0  0  0  0  0  0
  188.6410  176.7790  137.3480 C   0  0  1  0  0  3  0  0  0  0  0  0
  187.6560  177.4640  136.4060 C   0  0  2  0  0  3  0  0  0  0  0  0
  186.2280  177.2030  136.8530 C   0  0  2  0  0  3  0  0  0  0  0  0
  186.8040  176.4230  135.7020 C   0  0  1  0  0  3  0  0  0  0  0  0
  185.3810  176.9430  135.6240 C   0  0  0  0  0  2  0  0  0  0  0  0
  189.6750  175.9630  136.5770 C   0  0  0  0  0  2  0  0  0  0  0  0
  188.9090  173.5120  136.8410 C   0  0  0  0  0  1  0  0  0  0  0  0
  190.7920  174.3900  137.9330 O   0  0  0  0  0  0  0  0  0  0  0  0
  189.8580  174.6080  137.1790 C   0  0  0  0  0  0  0  0  0  0  0  0
  2  1  1  6  0  0  0
  2  3  1  0  0  0  0
  3  4  1  0  0  0  0
  4  9  2  0  0  0  0
  5 11  1  0  0  0  0
  6 10  1  0  0  0  0
  6  3  2  0  0  0  0
  8  7  1  0  0  0  0
  8  9  1  0  0  0  0
 10  8  2  0  0  0  0
 11  7  2  0  0  0  0
 12  5  2  0  0  0  0
 12 10  1  0  0  0  0
 13 17  1  1  0  0  0
 14  2  1  6  0  0  0
 14 13  1  0  0  0  0
 15 14  1  0  0  0  0
 15 13  1  0  0  0  0
 17 16  2  0  0  0  0
 18  1  1  0  0  0  0
 19 20  1  6  0  0  0
 19 18  1  0  0  0  0
 21 22  1  1  0  0  0
 21 19  1  0  0  0  0
 23 21  1  0  0  0  0
 24 29  1  6  0  0  0
 24 23  1  0  0  0  0
 25 26  1  0  0  0  0
 25 24  1  1  0  0  0
 26 28  1  6  0  0  0
 27 28  1  6  0  0  0
 27 25  1  0  0  0  0
 27 26  1  0  0  0  0
 29 32  1  0  0  0  0
 30 32  1  0  0  0  0
 32 31  2  0  0  0  0
M  END
>  <MODEL>
5

>  <REMARK>
 VINA RESULT:      -8.6      1.995      3.231
  Name = 
  12 active torsions:
  status: ('A' for Active; 'I' for Inactive)
    1  A    between atoms: C_1  and  C_5
    2  A    between atoms: C_1  and  C_30
    3  A    between atoms: C_2  and  C_5
    4  A    between atoms: C_3  and  C_20
    5  A    between atoms: C_4  and  C_24
    6  A    between atoms: C_4  and  C_30
    7  A    between atoms: C_5  and  C_14
    8  A    between atoms: C_13  and  C_29
    9  A    between atoms: C_15  and  C_20
   10  A    between atoms: C_15  and  C_26
   11  A    between atoms: C_16  and  C_20
   12  A    between atoms: C_16  and  C_24
                            x       y       z     vdW  Elec       q    Type
                         _______ _______ _______ _____ _____    ______ ____

>  <TORSDO>
F 12

$$$$
=
 OpenBabel11052414453D

 32 36  0  0  1  0  0  0  0  0999 V2000
  188.9460  176.9980  143.2030 C   0  0  0  0  0  2  0  0  0  0  0  0
  188.2420  177.0730  144.5590 C   0  0  2  0  0  3  0  0  0  0  0  0
  186.8580  177.6480  144.4340 C   0  0  0  0  0  0  0  0  0  0  0  0
  186.2000  178.0860  145.5900 C   0  0  0  0  0  3  0  0  0  0  0  0
  182.8980  178.6590  141.8260 C   0  0  0  0  0  3  0  0  0  0  0  0
  186.1890  177.6800  143.1990 C   0  0  0  0  0  3  0  0  0  0  0  0
  182.9090  179.0710  144.2150 C   0  0  0  0  0  3  0  0  0  0  0  0
  184.2230  178.6020  144.2910 C   0  0  0  0  0  0  0  0  0  0  0  0
  184.8880  178.5650  145.5190 C   0  0  0  0  0  3  0  0  0  0  0  0
  184.8800  178.1580  143.1220 C   0  0  0  0  0  0  0  0  0  0  0  0
  182.2480  179.0990  142.9830 C   0  0  0  0  0  3  0  0  0  0  0  0
  184.2140  178.1880  141.8940 C   0  0  0  0  0  3  0  0  0  0  0  0
  189.0030  177.0230  146.9220 C   0  0  1  0  0  3  0  0  0  0  0  0
  189.0900  177.7820  145.6110 C   0  0  1  0  0  3  0  0  0  0  0  0
  190.2300  176.8840  146.0460 C   0  0  0  0  0  2  0  0  0  0  0  0
  188.3870  178.1690  148.9910 C   0  0  0  0  0  2  0  0  0  0  0  0
  189.2970  177.9580  148.0440 C   0  0  0  0  0  3  0  0  0  0  0  0
  189.8770  178.1860  142.9710 C   0  0  0  0  0  2  0  0  0  0  0  0
  191.2470  177.7620  142.4390 C   0  0  1  0  0  3  0  0  0  0  0  0
  191.6650  176.5690  143.0330 O   0  0  0  0  0  1  0  0  0  0  0  0
  191.3300  177.6680  140.9070 C   0  0  1  0  0  3  0  0  0  0  0  0
  192.6600  177.6440  140.4830 O   0  0  0  0  0  1  0  0  0  0  0  0
  190.5940  176.4470  140.3500 C   0  0  0  0  0  2  0  0  0  0  0  0
  190.2550  176.5470  138.8600 C   0  0  1  0  0  3  0  0  0  0  0  0
  189.7380  177.9290  138.4750 C   0  0  2  0  0  3  0  0  0  0  0  0
  188.2670  177.8580  138.1020 C   0  0  2  0  0  3  0  0  0  0  0  0
  189.3090  177.9340  137.0190 C   0  0  1  0  0  3  0  0  0  0  0  0
  188.0350  178.7490  136.8980 C   0  0  0  0  0  2  0  0  0  0  0  0
  191.4500  176.1390  138.0020 C   0  0  0  0  0  2  0  0  0  0  0  0
  192.3720  174.1440  136.6480 C   0  0  0  0  0  1  0  0  0  0  0  0
  190.2610  174.1290  137.6750 O   0  0  0  0  0  0  0  0  0  0  0  0
  191.2810  174.7600  137.4520 C   0  0  0  0  0  0  0  0  0  0  0  0
  2  1  1  6  0  0  0
  3  2  1  0  0  0  0
  3  4  1  0  0  0  0
  5 12  2  0  0  0  0
  5 11  1  0  0  0  0
  6  3  2  0  0  0  0
  7  8  1  0  0  0  0
  8  9  1  0  0  0  0
  9  4  2  0  0  0  0
 10  6  1  0  0  0  0
 10  8  2  0  0  0  0
 11  7  2  0  0  0  0
 12 10  1  0  0  0  0
 13 17  1  1  0  0  0
 14  2  1  6  0  0  0
 14 15  1  0  0  0  0
 14 13  1  0  0  0  0
 15 13  1  0  0  0  0
 17 16  2  0  0  0  0
 18  1  1  0  0  0  0
 19 18  1  0  0  0  0
 19 20  1  1  0  0  0
 21 22  1  1  0  0  0
 21 19  1  0  0  0  0
 23 21  1  0  0  0  0
 24 29  1  6  0  0  0
 24 23  1  0  0  0  0
 25 24  1  6  0  0  0
 26 28  1  1  0  0  0
 26 25  1  0  0  0  0
 27 28  1  1  0  0  0
 27 26  1  0  0  0  0
 27 25  1  0  0  0  0
 30 32  1  0  0  0  0
 32 31  2  0  0  0  0
 32 29  1  0  0  0  0
M  END
>  <MODEL>
6

>  <REMARK>
 VINA RESULT:      -8.6      1.139      2.358
  Name = 
  12 active torsions:
  status: ('A' for Active; 'I' for Inactive)
    1  A    between atoms: C_1  and  C_5
    2  A    between atoms: C_1  and  C_30
    3  A    between atoms: C_2  and  C_5
    4  A    between atoms: C_3  and  C_20
    5  A    between atoms: C_4  and  C_24
    6  A    between atoms: C_4  and  C_30
    7  A    between atoms: C_5  and  C_14
    8  A    between atoms: C_13  and  C_29
    9  A    between atoms: C_15  and  C_20
   10  A    between atoms: C_15  and  C_26
   11  A    between atoms: C_16  and  C_20
   12  A    between atoms: C_16  and  C_24
                            x       y       z     vdW  Elec       q    Type
                         _______ _______ _______ _____ _____    ______ ____

>  <TORSDO>
F 12

$$$$
=
 OpenBabel11052414453D

 32 36  0  0  1  0  0  0  0  0999 V2000
  187.0540  177.6700  141.7270 C   0  0  0  0  0  2  0  0  0  0  0  0
  186.5420  178.2450  143.0490 C   0  0  2  0  0  3  0  0  0  0  0  0
  187.4000  177.8200  144.2090 C   0  0  0  0  0  0  0  0  0  0  0  0
  186.8570  177.8430  145.4990 C   0  0  0  0  0  3  0  0  0  0  0  0
  191.6800  176.4960  146.0630 C   0  0  0  0  0  3  0  0  0  0  0  0
  188.7510  177.4790  144.0300 C   0  0  0  0  0  3  0  0  0  0  0  0
  189.7850  176.8550  147.5330 C   0  0  0  0  0  3  0  0  0  0  0  0
  188.9880  177.1720  146.4300 C   0  0  0  0  0  0  0  0  0  0  0  0
  187.6460  177.5170  146.6060 C   0  0  0  0  0  3  0  0  0  0  0  0
  189.5440  177.1510  145.1310 C   0  0  0  0  0  0  0  0  0  0  0  0
  191.1300  176.5170  147.3490 C   0  0  0  0  0  3  0  0  0  0  0  0
  190.8890  176.8130  144.9540 C   0  0  0  0  0  3  0  0  0  0  0  0
  184.3320  179.2570  143.5590 C   0  0  1  0  0  3  0  0  0  0  0  0
  185.0590  177.9570  143.2690 C   0  0  1  0  0  3  0  0  0  0  0  0
  184.2380  178.6270  142.1860 C   0  0  0  0  0  2  0  0  0  0  0  0
  181.9070  179.0070  143.7290 C   0  0  0  0  0  2  0  0  0  0  0  0
  183.0920  178.9570  144.3290 C   0  0  0  0  0  3  0  0  0  0  0  0
  187.1790  178.7400  140.6450 C   0  0  0  0  0  2  0  0  0  0  0  0
  186.7370  178.2370  139.2700 C   0  0  1  0  0  3  0  0  0  0  0  0
  185.6810  179.0060  138.7740 O   0  0  0  0  0  1  0  0  0  0  0  0
  187.8700  178.1350  138.2380 C   0  0  1  0  0  3  0  0  0  0  0  0
  188.7460  179.2160  138.3560 O   0  0  0  0  0  1  0  0  0  0  0  0
  188.6550  176.8270  138.3490 C   0  0  0  0  0  2  0  0  0  0  0  0
  190.1730  177.0110  138.4230 C   0  0  1  0  0  3  0  0  0  0  0  0
  190.7580  176.4780  139.7270 C   0  0  2  0  0  3  0  0  0  0  0  0
  190.6210  177.5130  140.8300 C   0  0  2  0  0  3  0  0  0  0  0  0
  191.9480  177.3230  140.1450 C   0  0  1  0  0  3  0  0  0  0  0  0
  191.8970  177.5110  141.6490 C   0  0  0  0  0  2  0  0  0  0  0  0
  190.8570  176.3870  137.2090 C   0  0  0  0  0  2  0  0  0  0  0  0
  192.6630  174.5830  137.5940 C   0  0  0  0  0  1  0  0  0  0  0  0
  190.3630  174.1130  137.5900 O   0  0  0  0  0  0  0  0  0  0  0  0
  191.2290  174.9630  137.4660 C   0  0  0  0  0  0  0  0  0  0  0  0
  2  1  1  6  0  0  0
  2  3  1  0  0  0  0
  3  4  1  0  0  0  0
  4  9  2  0  0  0  0
  5 11  1  0  0  0  0
  6  3  2  0  0  0  0
  6 10  1  0  0  0  0
  8  9  1  0  0  0  0
  8  7  1  0  0  0  0
 10  8  2  0  0  0  0
 11  7  2  0  0  0  0
 12 10  1  0  0  0  0
 12  5  2  0  0  0  0
 13 17  1  1  0  0  0
 14  2  1  6  0  0  0
 14 13  1  0  0  0  0
 15 14  1  0  0  0  0
 15 13  1  0  0  0  0
 16 17  2  0  0  0  0
 18  1  1  0  0  0  0
 19 20  1  6  0  0  0
 19 18  1  0  0  0  0
 21 23  1  0  0  0  0
 21 22  1  1  0  0  0
 21 19  1  0  0  0  0
 23 24  1  0  0  0  0
 24 29  1  6  0  0  0
 25 24  1  6  0  0  0
 25 27  1  0  0  0  0
 25 26  1  0  0  0  0
 26 28  1  1  0  0  0
 27 26  1  0  0  0  0
 27 28  1  1  0  0  0
 29 32  1  0  0  0  0
 32 31  2  0  0  0  0
 32 30  1  0  0  0  0
M  END
>  <MODEL>
7

>  <REMARK>
 VINA RESULT:      -8.5      1.757      5.537
  Name = 
  12 active torsions:
  status: ('A' for Active; 'I' for Inactive)
    1  A    between atoms: C_1  and  C_5
    2  A    between atoms: C_1  and  C_30
    3  A    between atoms: C_2  and  C_5
    4  A    between atoms: C_3  and  C_20
    5  A    between atoms: C_4  and  C_24
    6  A    between atoms: C_4  and  C_30
    7  A    between atoms: C_5  and  C_14
    8  A    between atoms: C_13  and  C_29
    9  A    between atoms: C_15  and  C_20
   10  A    between atoms: C_15  and  C_26
   11  A    between atoms: C_16  and  C_20
   12  A    between atoms: C_16  and  C_24
                            x       y       z     vdW  Elec       q    Type
                         _______ _______ _______ _____ _____    ______ ____

>  <TORSDO>
F 12

$$$$
=
 OpenBabel11052414453D

 32 36  0  0  1  0  0  0  0  0999 V2000
  188.4860  176.7680  143.1980 C   0  0  0  0  0  2  0  0  0  0  0  0
  187.8770  177.0520  144.5720 C   0  0  2  0  0  3  0  0  0  0  0  0
  186.5090  177.6650  144.4570 C   0  0  0  0  0  0  0  0  0  0  0  0
  185.8680  178.1150  145.6180 C   0  0  0  0  0  3  0  0  0  0  0  0
  182.5650  178.7950  141.8730 C   0  0  0  0  0  3  0  0  0  0  0  0
  185.8340  177.7210  143.2260 C   0  0  0  0  0  3  0  0  0  0  0  0
  182.5980  179.1950  144.2650 C   0  0  0  0  0  3  0  0  0  0  0  0
  183.9000  178.6910  144.3320 C   0  0  0  0  0  0  0  0  0  0  0  0
  184.5690  178.6290  145.5560 C   0  0  0  0  0  3  0  0  0  0  0  0
  184.5390  178.2340  143.1580 C   0  0  0  0  0  0  0  0  0  0  0  0
  181.9320  179.2470  143.0360 C   0  0  0  0  0  3  0  0  0  0  0  0
  183.8670  178.2890  141.9330 C   0  0  0  0  0  3  0  0  0  0  0  0
  189.0400  177.1080  146.7660 C   0  0  1  0  0  3  0  0  0  0  0  0
  188.8170  177.8570  145.4650 C   0  0  1  0  0  3  0  0  0  0  0  0
  190.1030  177.0860  145.6880 C   0  0  0  0  0  2  0  0  0  0  0  0
  188.6470  178.2540  148.8880 C   0  0  0  0  0  2  0  0  0  0  0  0
  189.4270  178.0810  147.8260 C   0  0  0  0  0  3  0  0  0  0  0  0
  189.1470  178.0050  142.5940 C   0  0  0  0  0  2  0  0  0  0  0  0
  189.8130  177.7150  141.2480 C   0  0  1  0  0  3  0  0  0  0  0  0
  190.5560  176.5340  141.3040 O   0  0  0  0  0  1  0  0  0  0  0  0
  188.8450  177.6950  140.0550 C   0  0  1  0  0  3  0  0  0  0  0  0
  187.8200  178.6270  140.2320 O   0  0  0  0  0  1  0  0  0  0  0  0
  189.5470  177.9570  138.7210 C   0  0  0  0  0  2  0  0  0  0  0  0
  189.3930  176.8270  137.6990 C   0  0  1  0  0  3  0  0  0  0  0  0
  190.3530  175.6710  137.9650 C   0  0  2  0  0  3  0  0  0  0  0  0
  191.2900  175.4810  136.7850 C   0  0  2  0  0  3  0  0  0  0  0  0
  190.1140  174.5580  136.9600 C   0  0  1  0  0  3  0  0  0  0  0  0
  191.4590  173.9940  136.5430 C   0  0  0  0  0  2  0  0  0  0  0  0
  187.9450  176.3450  137.6350 C   0  0  0  0  0  2  0  0  0  0  0  0
  187.4450  177.5430  135.4030 C   0  0  0  0  0  1  0  0  0  0  0  0
  186.1140  177.7970  137.3200 O   0  0  0  0  0  0  0  0  0  0  0  0
  187.0990  177.2740  136.8260 C   0  0  0  0  0  0  0  0  0  0  0  0
  2  1  1  6  0  0  0
  3  2  1  0  0  0  0
  3  4  1  0  0  0  0
  5 12  2  0  0  0  0
  5 11  1  0  0  0  0
  6  3  2  0  0  0  0
  7  8  1  0  0  0  0
  8  9  1  0  0  0  0
  9  4  2  0  0  0  0
 10  6  1  0  0  0  0
 10  8  2  0  0  0  0
 11  7  2  0  0  0  0
 12 10  1  0  0  0  0
 13 17  1  1  0  0  0
 14  2  1  6  0  0  0
 14 15  1  0  0  0  0
 14 13  1  0  0  0  0
 15 13  1  0  0  0  0
 17 16  2  0  0  0  0
 18  1  1  0  0  0  0
 19 20  1  1  0  0  0
 19 18  1  0  0  0  0
 21 22  1  1  0  0  0
 21 19  1  0  0  0  0
 23 21  1  0  0  0  0
 24 29  1  1  0  0  0
 24 23  1  0  0  0  0
 25 24  1  6  0  0  0
 26 28  1  1  0  0  0
 26 27  1  0  0  0  0
 26 25  1  0  0  0  0
 27 28  1  1  0  0  0
 27 25  1  0  0  0  0
 30 32  1  0  0  0  0
 32 31  2  0  0  0  0
 32 29  1  0  0  0  0
M  END
>  <MODEL>
8

>  <REMARK>
 VINA RESULT:      -8.4      1.393      1.860
  Name = 
  12 active torsions:
  status: ('A' for Active; 'I' for Inactive)
    1  A    between atoms: C_1  and  C_5
    2  A    between atoms: C_1  and  C_30
    3  A    between atoms: C_2  and  C_5
    4  A    between atoms: C_3  and  C_20
    5  A    between atoms: C_4  and  C_24
    6  A    between atoms: C_4  and  C_30
    7  A    between atoms: C_5  and  C_14
    8  A    between atoms: C_13  and  C_29
    9  A    between atoms: C_15  and  C_20
   10  A    between atoms: C_15  and  C_26
   11  A    between atoms: C_16  and  C_20
   12  A    between atoms: C_16  and  C_24
                            x       y       z     vdW  Elec       q    Type
                         _______ _______ _______ _____ _____    ______ ____

>  <TORSDO>
F 12

$$$$
=
 OpenBabel11052414453D

 32 36  0  0  1  0  0  0  0  0999 V2000
  187.6900  178.7660  141.3640 C   0  0  0  0  0  2  0  0  0  0  0  0
  188.7470  177.6670  141.2490 C   0  0  2  0  0  3  0  0  0  0  0  0
  189.4830  177.4660  142.5450 C   0  0  0  0  0  0  0  0  0  0  0  0
  190.8440  177.1360  142.5070 C   0  0  0  0  0  3  0  0  0  0  0  0
  189.5440  177.0620  147.3760 C   0  0  0  0  0  3  0  0  0  0  0  0
  188.8170  177.5260  143.7800 C   0  0  0  0  0  3  0  0  0  0  0  0
  191.5740  176.6760  146.1060 C   0  0  0  0  0  3  0  0  0  0  0  0
  190.8830  176.9420  144.9200 C   0  0  0  0  0  0  0  0  0  0  0  0
  191.5430  176.8770  143.6910 C   0  0  0  0  0  3  0  0  0  0  0  0
  189.5100  177.2710  144.9640 C   0  0  0  0  0  0  0  0  0  0  0  0
  190.9040  176.7370  147.3320 C   0  0  0  0  0  3  0  0  0  0  0  0
  188.8460  177.3290  146.1940 C   0  0  0  0  0  3  0  0  0  0  0  0
  189.4220  176.8160  139.0160 C   0  0  1  0  0  3  0  0  0  0  0  0
  189.6810  177.8850  140.0610 C   0  0  1  0  0  3  0  0  0  0  0  0
  188.8710  178.2130  138.8230 C   0  0  0  0  0  2  0  0  0  0  0  0
  190.7950  175.5590  137.4330 C   0  0  0  0  0  2  0  0  0  0  0  0
  190.6470  176.6460  138.1840 C   0  0  0  0  0  3  0  0  0  0  0  0
  186.2700  178.2110  141.2840 C   0  0  0  0  0  2  0  0  0  0  0  0
  185.3190  179.1430  140.5310 C   0  0  1  0  0  3  0  0  0  0  0  0
  185.4560  178.9860  139.1510 O   0  0  0  0  0  1  0  0  0  0  0  0
  183.8460  179.0170  140.9510 C   0  0  1  0  0  3  0  0  0  0  0  0
  183.0420  178.7120  139.8520 O   0  0  0  0  0  1  0  0  0  0  0  0
  183.6310  177.9720  142.0480 C   0  0  0  0  0  2  0  0  0  0  0  0
  183.1070  178.5450  143.3670 C   0  0  1  0  0  3  0  0  0  0  0  0
  184.1770  179.3260  144.1230 C   0  0  2  0  0  3  0  0  0  0  0  0
  185.1710  178.3740  144.7660 C   0  0  2  0  0  3  0  0  0  0  0  0
  184.0970  179.0100  145.6060 C   0  0  1  0  0  3  0  0  0  0  0  0
  185.5090  178.8960  146.1480 C   0  0  0  0  0  2  0  0  0  0  0  0
  181.8580  179.3920  143.1350 C   0  0  0  0  0  2  0  0  0  0  0  0
  180.0090  177.9680  142.0310 C   0  0  0  0  0  1  0  0  0  0  0  0
  180.1040  178.3770  144.3410 O   0  0  0  0  0  0  0  0  0  0  0  0
  180.6150  178.5710  143.2500 C   0  0  0  0  0  0  0  0  0  0  0  0
  2  1  1  1  0  0  0
  2  3  1  0  0  0  0
  3  6  1  0  0  0  0
  4  3  2  0  0  0  0
  4  9  1  0  0  0  0
  6 10  2  0  0  0  0
  7 11  2  0  0  0  0
  8 10  1  0  0  0  0
  8  7  1  0  0  0  0
  9  8  2  0  0  0  0
 10 12  1  0  0  0  0
 11  5  1  0  0  0  0
 12  5  2  0  0  0  0
 13 17  1  6  0  0  0
 13 14  1  0  0  0  0
 14  2  1  1  0  0  0
 15 13  1  0  0  0  0
 15 14  1  0  0  0  0
 16 17  2  0  0  0  0
 18  1  1  0  0  0  0
 19 20  1  6  0  0  0
 19 21  1  0  0  0  0
 19 18  1  0  0  0  0
 21 22  1  6  0  0  0
 21 23  1  0  0  0  0
 24 23  1  6  0  0  0
 25 24  1  6  0  0  0
 25 26  1  0  0  0  0
 25 27  1  0  0  0  0
 26 27  1  0  0  0  0
 26 28  1  1  0  0  0
 27 28  1  1  0  0  0
 29 32  1  0  0  0  0
 29 24  1  0  0  0  0
 30 32  1  0  0  0  0
 32 31  2  0  0  0  0
M  END
>  <MODEL>
9

>  <REMARK>
 VINA RESULT:      -8.4      2.578      8.217
  Name = 
  12 active torsions:
  status: ('A' for Active; 'I' for Inactive)
    1  A    between atoms: C_1  and  C_5
    2  A    between atoms: C_1  and  C_30
    3  A    between atoms: C_2  and  C_5
    4  A    between atoms: C_3  and  C_20
    5  A    between atoms: C_4  and  C_24
    6  A    between atoms: C_4  and  C_30
    7  A    between atoms: C_5  and  C_14
    8  A    between atoms: C_13  and  C_29
    9  A    between atoms: C_15  and  C_20
   10  A    between atoms: C_15  and  C_26
   11  A    between atoms: C_16  and  C_20
   12  A    between atoms: C_16  and  C_24
                            x       y       z     vdW  Elec       q    Type
                         _______ _______ _______ _____ _____    ______ ____

>  <TORSDO>
F 12

$$$$
