=
 OpenBabel11052412223D

 30 32  0  0  1  0  0  0  0  0999 V2000
  184.5990  178.7980  144.7080 C   0  0  0  0  0  0  0  0  0  0  0  0
  184.3630  178.8820  146.0420 N   0  0  0  0  0  0  0  0  0  0  0  0
  183.3230  179.3790  143.6440 Cl  0  0  0  0  0  0  0  0  0  0  0  0
  186.7410  177.7810  145.2180 C   0  0  0  0  0  0  0  0  0  0  0  0
  185.2580  178.4330  146.9510 C   0  0  0  0  0  3  0  0  0  0  0  0
  185.8140  178.2310  144.2420 C   0  0  0  0  0  0  0  0  0  0  0  0
  186.4280  177.8900  146.5380 N   0  0  0  0  0  0  0  0  0  0  0  0
  190.6320  176.8200  143.2710 C   0  0  0  0  0  3  0  0  0  0  0  0
  191.0860  177.3040  144.4270 C   0  0  0  0  0  3  0  0  0  0  0  0
  189.4250  175.9490  143.1840 C   0  0  0  0  0  2  0  0  0  0  0  0
  189.1070  177.0990  145.9090 C   0  0  0  0  0  3  0  0  0  0  0  0
  188.2050  176.6770  143.6380 C   0  0  0  0  0  3  0  0  0  0  0  0
  190.4380  177.1120  145.7460 C   0  0  0  0  0  0  0  0  0  0  0  0
  188.0570  177.1960  144.8620 C   0  0  0  0  0  0  0  0  0  0  0  0
  192.3900  174.9550  146.5450 O   0  0  0  0  0  0  0  0  0  0  0  0
  192.1850  176.0900  147.3200 C   0  0  0  0  0  0  0  0  0  0  0  0
  191.2320  177.0900  146.9390 N   0  0  0  0  0  2  0  0  0  0  0  0
  192.8410  176.2370  148.3820 O   0  0  0  0  0  1  0  0  0  0  0  0
  186.1760  178.9680  141.8750 C   0  0  0  0  0  3  0  0  0  0  0  0
  186.1330  178.0270  142.8070 C   0  0  0  0  0  3  0  0  0  0  0  0
  186.5150  178.5980  140.4760 C   0  0  0  0  0  2  0  0  0  0  0  0
  187.8790  177.9020  140.4180 C   0  0  2  0  0  3  0  0  0  0  0  0
  189.0080  178.8870  140.6930 C   0  0  0  0  0  1  0  0  0  0  0  0
  189.7630  177.3910  137.4170 C   0  0  0  0  0  2  0  0  0  0  0  0
  188.1190  177.1810  139.1590 N   0  0  0  0  0  0  0  0  0  0  0  0
  188.6060  178.2870  137.0700 C   0  0  2  0  0  0  0  0  0  0  0  0
  187.5170  177.9340  138.0600 C   0  0  0  0  0  2  0  0  0  0  0  0
  189.5510  177.0560  138.8750 C   0  0  0  0  0  2  0  0  0  0  0  0
  188.1420  178.0320  135.6510 C   0  0  0  0  0  1  0  0  0  0  0  0
  188.9700  179.6110  137.2220 F   0  0  0  0  0  0  0  0  0  0  0  0
  1  2  1  0  0  0  0
  2  5  2  0  0  0  0
  3  1  1  0  0  0  0
  4  7  2  0  0  0  0
  6  1  2  0  0  0  0
  6  4  1  0  0  0  0
  7  5  1  0  0  0  0
  8  9  2  0  0  0  0
  9 13  1  0  0  0  0
 10  8  1  0  0  0  0
 10 12  1  0  0  0  0
 12 14  2  0  0  0  0
 13 11  2  0  0  0  0
 13 17  1  0  0  0  0
 14  4  1  0  0  0  0
 14 11  1  0  0  0  0
 15 16  2  0  0  0  0
 16 18  1  0  0  0  0
 17 16  1  0  0  0  0
 19 20  2  0  0  0  0
 20  6  1  0  0  0  0
 21 19  1  0  0  0  0
 22 21  1  0  0  0  0
 22 23  1  6  0  0  0
 24 28  1  0  0  0  0
 25 22  1  0  0  0  0
 26 29  1  6  0  0  0
 26 30  1  0  0  0  0
 26 24  1  0  0  0  0
 26 27  1  0  0  0  0
 27 25  1  0  0  0  0
 28 25  1  0  0  0  0
M  END
>  <MODEL>
1

>  <REMARK>
 VINA RESULT:      -9.4      0.000      0.000
  Name = 
  6 active torsions:
  status: ('A' for Active; 'I' for Inactive)
    1  A    between atoms: C_1  and  C_4
    2  A    between atoms: C_4  and  C_27
    3  A    between atoms: C_5  and  C_22
    4  A    between atoms: N_8  and  C_27
    5  A    between atoms: N_16  and  C_25
    6  A    between atoms: C_19  and  C_29
                            x       y       z     vdW  Elec       q    Type
                         _______ _______ _______ _____ _____    ______ ____

>  <TORSDO>
F 6

$$$$
=
 OpenBabel11052412223D

 30 32  0  0  1  0  0  0  0  0999 V2000
  184.4920  178.8030  144.8590 C   0  0  0  0  0  0  0  0  0  0  0  0
  184.3190  178.8720  146.2040 N   0  0  0  0  0  0  0  0  0  0  0  0
  183.1590  179.3760  143.8630 Cl  0  0  0  0  0  0  0  0  0  0  0  0
  186.6690  177.8110  145.2570 C   0  0  0  0  0  0  0  0  0  0  0  0
  185.2630  178.4270  147.0640 C   0  0  0  0  0  3  0  0  0  0  0  0
  185.6910  178.2570  144.3310 C   0  0  0  0  0  0  0  0  0  0  0  0
  186.4180  177.9040  146.5910 N   0  0  0  0  0  0  0  0  0  0  0  0
  190.4910  176.9450  143.1360 C   0  0  0  0  0  3  0  0  0  0  0  0
  190.9850  177.3910  144.2910 C   0  0  0  0  0  3  0  0  0  0  0  0
  189.2870  176.0700  143.0620 C   0  0  0  0  0  2  0  0  0  0  0  0
  189.0620  177.1210  145.8360 C   0  0  0  0  0  3  0  0  0  0  0  0
  188.0810  176.7740  143.5860 C   0  0  0  0  0  3  0  0  0  0  0  0
  190.3860  177.1490  145.6250 C   0  0  0  0  0  0  0  0  0  0  0  0
  187.9740  177.2480  144.8320 C   0  0  0  0  0  0  0  0  0  0  0  0
  192.2890  174.9180  146.3360 O   0  0  0  0  0  0  0  0  0  0  0  0
  192.1540  176.0540  147.1250 C   0  0  0  0  0  0  0  0  0  0  0  0
  191.2240  177.0890  146.7870 N   0  0  0  0  0  2  0  0  0  0  0  0
  192.8550  176.1690  148.1620 O   0  0  0  0  0  1  0  0  0  0  0  0
  186.0530  179.0340  141.9760 C   0  0  0  0  0  3  0  0  0  0  0  0
  185.9430  178.0710  142.8790 C   0  0  0  0  0  3  0  0  0  0  0  0
  186.3090  178.6790  140.5550 C   0  0  0  0  0  2  0  0  0  0  0  0
  184.9910  178.4050  139.8230 C   0  0  2  0  0  3  0  0  0  0  0  0
  185.2070  178.3230  138.3180 C   0  0  0  0  0  1  0  0  0  0  0  0
  181.5530  179.4030  139.7770 C   0  0  0  0  0  2  0  0  0  0  0  0
  183.9300  179.3720  140.1400 N   0  0  0  0  0  0  0  0  0  0  0  0
  182.2120  180.0170  138.5730 C   0  0  2  0  0  0  0  0  0  0  0  0
  183.6650  180.1900  138.9570 C   0  0  0  0  0  2  0  0  0  0  0  0
  182.6780  178.7000  140.4990 C   0  0  0  0  0  2  0  0  0  0  0  0
  181.5820  181.3540  138.2450 C   0  0  0  0  0  1  0  0  0  0  0  0
  182.1090  179.1640  137.4900 F   0  0  0  0  0  0  0  0  0  0  0  0
  1  2  1  0  0  0  0
  2  5  2  0  0  0  0
  3  1  1  0  0  0  0
  4  7  2  0  0  0  0
  6  1  2  0  0  0  0
  6  4  1  0  0  0  0
  7  5  1  0  0  0  0
  8  9  2  0  0  0  0
  9 13  1  0  0  0  0
 10  8  1  0  0  0  0
 10 12  1  0  0  0  0
 12 14  2  0  0  0  0
 13 11  2  0  0  0  0
 13 17  1  0  0  0  0
 14  4  1  0  0  0  0
 14 11  1  0  0  0  0
 15 16  2  0  0  0  0
 16 18  1  0  0  0  0
 17 16  1  0  0  0  0
 19 20  2  0  0  0  0
 20  6  1  0  0  0  0
 21 19  1  0  0  0  0
 22 23  1  6  0  0  0
 22 25  1  0  0  0  0
 22 21  1  0  0  0  0
 24 28  1  0  0  0  0
 25 28  1  0  0  0  0
 26 29  1  6  0  0  0
 26 27  1  0  0  0  0
 26 24  1  0  0  0  0
 27 25  1  0  0  0  0
 30 26  1  0  0  0  0
M  END
>  <MODEL>
2

>  <REMARK>
 VINA RESULT:      -9.3      2.541      3.454
  Name = 
  6 active torsions:
  status: ('A' for Active; 'I' for Inactive)
    1  A    between atoms: C_1  and  C_4
    2  A    between atoms: C_4  and  C_27
    3  A    between atoms: C_5  and  C_22
    4  A    between atoms: N_8  and  C_27
    5  A    between atoms: N_16  and  C_25
    6  A    between atoms: C_19  and  C_29
                            x       y       z     vdW  Elec       q    Type
                         _______ _______ _______ _____ _____    ______ ____

>  <TORSDO>
F 6

$$$$
=
 OpenBabel11052412223D

 30 32  0  0  1  0  0  0  0  0999 V2000
  185.4980  178.3150  145.0110 C   0  0  0  0  0  0  0  0  0  0  0  0
  184.9350  178.6060  146.2110 N   0  0  0  0  0  0  0  0  0  0  0  0
  184.4270  178.3300  143.6150 Cl  0  0  0  0  0  0  0  0  0  0  0  0
  187.6120  177.9910  146.1550 C   0  0  0  0  0  0  0  0  0  0  0  0
  185.6560  178.5880  147.3560 C   0  0  0  0  0  3  0  0  0  0  0  0
  186.8780  177.9870  144.9410 C   0  0  0  0  0  0  0  0  0  0  0  0
  186.9740  178.2830  147.3220 N   0  0  0  0  0  0  0  0  0  0  0  0
  191.5810  176.0330  146.6740 C   0  0  0  0  0  3  0  0  0  0  0  0
  191.6030  176.2130  145.3540 C   0  0  0  0  0  3  0  0  0  0  0  0
  191.0310  177.0510  147.6140 C   0  0  0  0  0  2  0  0  0  0  0  0
  189.9060  177.9920  145.0260 C   0  0  0  0  0  3  0  0  0  0  0  0
  189.5760  177.2700  147.3740 C   0  0  0  0  0  3  0  0  0  0  0  0
  191.0380  177.3830  144.6420 C   0  0  0  0  0  0  0  0  0  0  0  0
  189.0650  177.6940  146.2130 C   0  0  0  0  0  0  0  0  0  0  0  0
  190.7740  175.9890  141.9790 O   0  0  0  0  0  1  0  0  0  0  0  0
  191.4710  177.1830  142.1230 C   0  0  0  0  0  0  0  0  0  0  0  0
  191.6110  177.8150  143.4010 N   0  0  0  0  0  2  0  0  0  0  0  0
  192.0000  177.7120  141.1130 O   0  0  0  0  0  0  0  0  0  0  0  0
  187.3640  178.0960  142.4860 C   0  0  0  0  0  3  0  0  0  0  0  0
  187.5670  177.5830  143.6900 C   0  0  0  0  0  3  0  0  0  0  0  0
  188.1420  177.5800  141.3290 C   0  0  0  0  0  2  0  0  0  0  0  0
  187.7150  178.2840  140.0360 C   0  0  2  0  0  3  0  0  0  0  0  0
  186.2170  178.5530  140.0280 C   0  0  0  0  0  1  0  0  0  0  0  0
  189.1380  178.2590  136.7510 C   0  0  0  0  0  2  0  0  0  0  0  0
  188.1180  177.5690  138.8160 N   0  0  0  0  0  0  0  0  0  0  0  0
  187.6480  178.3750  136.5900 C   0  0  2  0  0  0  0  0  0  0  0  0
  187.0610  177.7070  137.8150 C   0  0  0  0  0  2  0  0  0  0  0  0
  189.3440  178.1310  138.2420 C   0  0  0  0  0  2  0  0  0  0  0  0
  187.1930  177.6720  135.3280 C   0  0  0  0  0  1  0  0  0  0  0  0
  187.2770  179.7060  136.5550 F   0  0  0  0  0  0  0  0  0  0  0  0
  1  2  1  0  0  0  0
  2  5  2  0  0  0  0
  3  1  1  0  0  0  0
  4 14  1  0  0  0  0
  4  7  2  0  0  0  0
  6  1  2  0  0  0  0
  6  4  1  0  0  0  0
  7  5  1  0  0  0  0
  8 10  1  0  0  0  0
  9  8  2  0  0  0  0
 11 14  1  0  0  0  0
 12 10  1  0  0  0  0
 13 11  2  0  0  0  0
 13  9  1  0  0  0  0
 14 12  2  0  0  0  0
 15 16  1  0  0  0  0
 16 17  1  0  0  0  0
 17 13  1  0  0  0  0
 18 16  2  0  0  0  0
 19 20  2  0  0  0  0
 20  6  1  0  0  0  0
 21 19  1  0  0  0  0
 22 23  1  1  0  0  0
 22 21  1  0  0  0  0
 24 28  1  0  0  0  0
 25 22  1  0  0  0  0
 26 29  1  6  0  0  0
 26 24  1  0  0  0  0
 26 27  1  0  0  0  0
 27 25  1  0  0  0  0
 28 25  1  0  0  0  0
 30 26  1  0  0  0  0
M  END
>  <MODEL>
3

>  <REMARK>
 VINA RESULT:      -9.1      1.994      2.713
  Name = 
  6 active torsions:
  status: ('A' for Active; 'I' for Inactive)
    1  A    between atoms: C_1  and  C_4
    2  A    between atoms: C_4  and  C_27
    3  A    between atoms: C_5  and  C_22
    4  A    between atoms: N_8  and  C_27
    5  A    between atoms: N_16  and  C_25
    6  A    between atoms: C_19  and  C_29
                            x       y       z     vdW  Elec       q    Type
                         _______ _______ _______ _____ _____    ______ ____

>  <TORSDO>
F 6

$$$$
=
 OpenBabel11052412223D

 30 32  0  0  1  0  0  0  0  0999 V2000
  184.7220  178.7660  144.8650 C   0  0  0  0  0  0  0  0  0  0  0  0
  184.5370  178.8570  146.2070 N   0  0  0  0  0  0  0  0  0  0  0  0
  183.3940  179.3130  143.8480 Cl  0  0  0  0  0  0  0  0  0  0  0  0
  186.9020  177.7950  145.2980 C   0  0  0  0  0  0  0  0  0  0  0  0
  185.4770  178.4320  147.0830 C   0  0  0  0  0  3  0  0  0  0  0  0
  185.9290  178.2190  144.3560 C   0  0  0  0  0  0  0  0  0  0  0  0
  186.6390  177.9090  146.6280 N   0  0  0  0  0  0  0  0  0  0  0  0
  190.7780  176.9600  143.2650 C   0  0  0  0  0  3  0  0  0  0  0  0
  191.2410  177.3620  144.4480 C   0  0  0  0  0  3  0  0  0  0  0  0
  189.5690  176.1000  143.1260 C   0  0  0  0  0  2  0  0  0  0  0  0
  189.2700  177.0620  145.9250 C   0  0  0  0  0  3  0  0  0  0  0  0
  188.3540  176.7980  143.6360 C   0  0  0  0  0  3  0  0  0  0  0  0
  190.6000  177.0820  145.7550 C   0  0  0  0  0  0  0  0  0  0  0  0
  188.2140  177.2320  144.8940 C   0  0  0  0  0  0  0  0  0  0  0  0
  192.4870  174.8270  146.4310 O   0  0  0  0  0  0  0  0  0  0  0  0
  192.3240  175.9290  147.2620 C   0  0  0  0  0  0  0  0  0  0  0  0
  191.4020  176.9760  146.9390 N   0  0  0  0  0  2  0  0  0  0  0  0
  192.9920  176.0020  148.3240 O   0  0  0  0  0  1  0  0  0  0  0  0
  185.9880  178.8900  141.9430 C   0  0  0  0  0  3  0  0  0  0  0  0
  186.1940  178.0090  142.9100 C   0  0  0  0  0  3  0  0  0  0  0  0
  186.3090  178.5240  140.5380 C   0  0  0  0  0  2  0  0  0  0  0  0
  185.1120  178.8020  139.6230 C   0  0  2  0  0  3  0  0  0  0  0  0
  183.9080  177.9620  140.0250 C   0  0  0  0  0  1  0  0  0  0  0  0
  185.8800  176.7030  136.8260 C   0  0  0  0  0  2  0  0  0  0  0  0
  185.4110  178.6250  138.1940 N   0  0  0  0  0  0  0  0  0  0  0  0
  187.1850  177.2060  137.3770 C   0  0  2  0  0  0  0  0  0  0  0  0
  186.8610  178.5370  138.0200 C   0  0  0  0  0  2  0  0  0  0  0  0
  184.8300  177.3840  137.6720 C   0  0  0  0  0  2  0  0  0  0  0  0
  188.2000  177.3820  136.2670 C   0  0  0  0  0  1  0  0  0  0  0  0
  187.6680  176.3280  138.3290 F   0  0  0  0  0  0  0  0  0  0  0  0
  1  2  1  0  0  0  0
  2  5  2  0  0  0  0
  3  1  1  0  0  0  0
  4  7  2  0  0  0  0
  6  1  2  0  0  0  0
  6  4  1  0  0  0  0
  7  5  1  0  0  0  0
  8  9  2  0  0  0  0
  9 13  1  0  0  0  0
 10  8  1  0  0  0  0
 10 12  1  0  0  0  0
 12 14  2  0  0  0  0
 13 11  2  0  0  0  0
 13 17  1  0  0  0  0
 14  4  1  0  0  0  0
 14 11  1  0  0  0  0
 15 16  2  0  0  0  0
 16 18  1  0  0  0  0
 17 16  1  0  0  0  0
 19 20  2  0  0  0  0
 20  6  1  0  0  0  0
 21 19  1  0  0  0  0
 22 23  1  1  0  0  0
 22 21  1  0  0  0  0
 24 26  1  0  0  0  0
 24 28  1  0  0  0  0
 25 22  1  0  0  0  0
 26 29  1  6  0  0  0
 26 27  1  0  0  0  0
 26 30  1  0  0  0  0
 27 25  1  0  0  0  0
 28 25  1  0  0  0  0
M  END
>  <MODEL>
4

>  <REMARK>
 VINA RESULT:      -9.1      1.306      1.879
  Name = 
  6 active torsions:
  status: ('A' for Active; 'I' for Inactive)
    1  A    between atoms: C_1  and  C_4
    2  A    between atoms: C_4  and  C_27
    3  A    between atoms: C_5  and  C_22
    4  A    between atoms: N_8  and  C_27
    5  A    between atoms: N_16  and  C_25
    6  A    between atoms: C_19  and  C_29
                            x       y       z     vdW  Elec       q    Type
                         _______ _______ _______ _____ _____    ______ ____

>  <TORSDO>
F 6

$$$$
=
 OpenBabel11052412223D

 30 32  0  0  1  0  0  0  0  0999 V2000
  184.4960  178.3890  143.2710 C   0  0  0  0  0  0  0  0  0  0  0  0
  183.5050  178.6970  144.1460 N   0  0  0  0  0  0  0  0  0  0  0  0
  184.0370  178.2510  141.5780 Cl  0  0  0  0  0  0  0  0  0  0  0  0
  186.0300  178.2870  145.1470 C   0  0  0  0  0  0  0  0  0  0  0  0
  183.7370  178.7930  145.4750 C   0  0  0  0  0  3  0  0  0  0  0  0
  185.8140  178.1650  143.7500 C   0  0  0  0  0  0  0  0  0  0  0  0
  184.9830  178.5880  145.9620 N   0  0  0  0  0  0  0  0  0  0  0  0
  189.5330  176.7510  147.4320 C   0  0  0  0  0  3  0  0  0  0  0  0
  190.0210  176.6430  146.1970 C   0  0  0  0  0  3  0  0  0  0  0  0
  188.7030  177.9090  147.8690 C   0  0  0  0  0  2  0  0  0  0  0  0
  188.5750  178.1950  144.9110 C   0  0  0  0  0  3  0  0  0  0  0  0
  187.4280  177.9750  147.0980 C   0  0  0  0  0  3  0  0  0  0  0  0
  189.7600  177.5930  145.0900 C   0  0  0  0  0  0  0  0  0  0  0  0
  187.3650  178.1050  145.7680 C   0  0  0  0  0  0  0  0  0  0  0  0
  190.5320  175.5870  142.9730 O   0  0  0  0  0  1  0  0  0  0  0  0
  191.0970  176.8550  143.0310 C   0  0  0  0  0  0  0  0  0  0  0  0
  190.7400  177.7840  144.0610 N   0  0  0  0  0  2  0  0  0  0  0  0
  191.9470  177.1890  142.1670 O   0  0  0  0  0  0  0  0  0  0  0  0
  187.3280  178.3430  141.7620 C   0  0  0  0  0  3  0  0  0  0  0  0
  186.9470  177.7520  142.8840 C   0  0  0  0  0  3  0  0  0  0  0  0
  188.4910  177.8040  141.0090 C   0  0  0  0  0  2  0  0  0  0  0  0
  188.5220  178.3750  139.5870 C   0  0  2  0  0  3  0  0  0  0  0  0
  187.2930  177.9470  138.7970 C   0  0  0  0  0  1  0  0  0  0  0  0
  190.1790  176.9290  136.7610 C   0  0  0  0  0  2  0  0  0  0  0  0
  189.7500  178.0460  138.8480 N   0  0  0  0  0  0  0  0  0  0  0  0
  190.1550  175.8870  137.8450 C   0  0  2  0  0  0  0  0  0  0  0  0
  190.1250  176.6630  139.1440 C   0  0  0  0  0  2  0  0  0  0  0  0
  189.5500  178.1460  137.3990 C   0  0  0  0  0  2  0  0  0  0  0  0
  191.3910  175.0150  137.7720 C   0  0  0  0  0  1  0  0  0  0  0  0
  189.0170  175.1120  137.7330 F   0  0  0  0  0  0  0  0  0  0  0  0
  1  6  2  0  0  0  0
  1  2  1  0  0  0  0
  2  5  2  0  0  0  0
  3  1  1  0  0  0  0
  4 14  1  0  0  0  0
  4  7  2  0  0  0  0
  5  7  1  0  0  0  0
  6  4  1  0  0  0  0
  8 10  1  0  0  0  0
  9  8  2  0  0  0  0
 11 13  2  0  0  0  0
 11 14  1  0  0  0  0
 12 10  1  0  0  0  0
 13  9  1  0  0  0  0
 14 12  2  0  0  0  0
 15 16  1  0  0  0  0
 16 17  1  0  0  0  0
 17 13  1  0  0  0  0
 18 16  2  0  0  0  0
 19 20  2  0  0  0  0
 20  6  1  0  0  0  0
 21 19  1  0  0  0  0
 22 23  1  6  0  0  0
 22 21  1  0  0  0  0
 24 28  1  0  0  0  0
 24 26  1  0  0  0  0
 25 27  1  0  0  0  0
 25 22  1  0  0  0  0
 26 29  1  6  0  0  0
 26 27  1  0  0  0  0
 28 25  1  0  0  0  0
 30 26  1  0  0  0  0
M  END
>  <MODEL>
5

>  <REMARK>
 VINA RESULT:      -9.1      2.112      2.964
  Name = 
  6 active torsions:
  status: ('A' for Active; 'I' for Inactive)
    1  A    between atoms: C_1  and  C_4
    2  A    between atoms: C_4  and  C_27
    3  A    between atoms: C_5  and  C_22
    4  A    between atoms: N_8  and  C_27
    5  A    between atoms: N_16  and  C_25
    6  A    between atoms: C_19  and  C_29
                            x       y       z     vdW  Elec       q    Type
                         _______ _______ _______ _____ _____    ______ ____

>  <TORSDO>
F 6

$$$$
=
 OpenBabel11052412223D

 30 32  0  0  1  0  0  0  0  0999 V2000
  190.0740  177.0870  146.1880 C   0  0  0  0  0  0  0  0  0  0  0  0
  189.9800  177.1910  147.5380 N   0  0  0  0  0  0  0  0  0  0  0  0
  191.6450  176.6270  145.5420 Cl  0  0  0  0  0  0  0  0  0  0  0  0
  187.7490  177.7600  146.0410 C   0  0  0  0  0  0  0  0  0  0  0  0
  188.8310  177.5720  148.1420 C   0  0  0  0  0  3  0  0  0  0  0  0
  188.9440  177.3770  145.3800 C   0  0  0  0  0  0  0  0  0  0  0  0
  187.7360  177.8530  147.3980 N   0  0  0  0  0  0  0  0  0  0  0  0
  183.9800  179.6190  144.5600 C   0  0  0  0  0  3  0  0  0  0  0  0
  184.7250  179.7450  143.4620 C   0  0  0  0  0  3  0  0  0  0  0  0
  184.0200  178.4050  145.4230 C   0  0  0  0  0  2  0  0  0  0  0  0
  186.5060  178.0560  143.8260 C   0  0  0  0  0  3  0  0  0  0  0  0
  185.3720  178.2200  146.0250 C   0  0  0  0  0  3  0  0  0  0  0  0
  185.7240  178.7570  142.9910 C   0  0  0  0  0  0  0  0  0  0  0  0
  186.4930  178.0620  145.3110 C   0  0  0  0  0  0  0  0  0  0  0  0
  183.7390  179.0940  140.7440 O   0  0  0  0  0  1  0  0  0  0  0  0
  185.0810  178.8150  140.5100 C   0  0  0  0  0  0  0  0  0  0  0  0
  186.0020  178.6290  141.5910 N   0  0  0  0  0  2  0  0  0  0  0  0
  185.4900  178.7130  139.3260 O   0  0  0  0  0  0  0  0  0  0  0  0
  189.7250  178.1240  143.1190 C   0  0  0  0  0  3  0  0  0  0  0  0
  188.9680  177.3630  143.8950 C   0  0  0  0  0  3  0  0  0  0  0  0
  189.6300  177.9860  141.6420 C   0  0  0  0  0  2  0  0  0  0  0  0
  190.6130  176.9240  141.1360 C   0  0  2  0  0  3  0  0  0  0  0  0
  192.0320  177.4740  141.0800 C   0  0  0  0  0  1  0  0  0  0  0  0
  190.5660  177.0210  137.5580 C   0  0  0  0  0  2  0  0  0  0  0  0
  190.2340  176.3420  139.8400 N   0  0  0  0  0  0  0  0  0  0  0  0
  189.2770  177.6300  138.0370 C   0  0  2  0  0  0  0  0  0  0  0  0
  189.0030  176.9800  139.3760 C   0  0  0  0  0  2  0  0  0  0  0  0
  191.2620  176.5770  138.8230 C   0  0  0  0  0  2  0  0  0  0  0  0
  188.1560  177.3390  137.0620 C   0  0  0  0  0  1  0  0  0  0  0  0
  189.4270  178.9940  138.1970 F   0  0  0  0  0  0  0  0  0  0  0  0
  1  2  1  0  0  0  0
  2  5  2  0  0  0  0
  3  1  1  0  0  0  0
  4  7  2  0  0  0  0
  6  4  1  0  0  0  0
  6  1  2  0  0  0  0
  7  5  1  0  0  0  0
  8 10  1  0  0  0  0
  9  8  2  0  0  0  0
 10 12  1  0  0  0  0
 11 14  1  0  0  0  0
 13  9  1  0  0  0  0
 13 11  2  0  0  0  0
 14 12  2  0  0  0  0
 14  4  1  0  0  0  0
 16 15  1  0  0  0  0
 16 17  1  0  0  0  0
 17 13  1  0  0  0  0
 18 16  2  0  0  0  0
 19 20  2  0  0  0  0
 20  6  1  0  0  0  0
 21 19  1  0  0  0  0
 22 23  1  6  0  0  0
 22 21  1  0  0  0  0
 24 26  1  0  0  0  0
 24 28  1  0  0  0  0
 25 22  1  0  0  0  0
 26 29  1  6  0  0  0
 26 30  1  0  0  0  0
 26 27  1  0  0  0  0
 27 25  1  0  0  0  0
 28 25  1  0  0  0  0
M  END
>  <MODEL>
6

>  <REMARK>
 VINA RESULT:      -9.1      3.653      5.463
  Name = 
  6 active torsions:
  status: ('A' for Active; 'I' for Inactive)
    1  A    between atoms: C_1  and  C_4
    2  A    between atoms: C_4  and  C_27
    3  A    between atoms: C_5  and  C_22
    4  A    between atoms: N_8  and  C_27
    5  A    between atoms: N_16  and  C_25
    6  A    between atoms: C_19  and  C_29
                            x       y       z     vdW  Elec       q    Type
                         _______ _______ _______ _____ _____    ______ ____

>  <TORSDO>
F 6

$$$$
=
 OpenBabel11052412223D

 30 32  0  0  1  0  0  0  0  0999 V2000
  188.1550  178.2720  139.6640 C   0  0  0  0  0  0  0  0  0  0  0  0
  187.5280  178.5290  138.4880 N   0  0  0  0  0  0  0  0  0  0  0  0
  189.8870  177.9700  139.5840 Cl  0  0  0  0  0  0  0  0  0  0  0  0
  186.0080  178.4650  140.7750 C   0  0  0  0  0  0  0  0  0  0  0  0
  186.1930  178.7400  138.4270 C   0  0  0  0  0  3  0  0  0  0  0  0
  187.4030  178.2260  140.8670 C   0  0  0  0  0  0  0  0  0  0  0  0
  185.4500  178.7050  139.5570 N   0  0  0  0  0  0  0  0  0  0  0  0
  183.9240  179.4870  144.5780 C   0  0  0  0  0  3  0  0  0  0  0  0
  182.9060  179.6360  143.7320 C   0  0  0  0  0  3  0  0  0  0  0  0
  184.9200  178.3860  144.4510 C   0  0  0  0  0  2  0  0  0  0  0  0
  183.6520  178.3270  141.7600 C   0  0  0  0  0  3  0  0  0  0  0  0
  185.6820  178.4980  143.1740 C   0  0  0  0  0  3  0  0  0  0  0  0
  182.6630  178.7980  142.5340 C   0  0  0  0  0  0  0  0  0  0  0  0
  185.1170  178.4720  141.9610 C   0  0  0  0  0  0  0  0  0  0  0  0
  180.2650  178.1150  144.2340 O   0  0  0  0  0  1  0  0  0  0  0  0
  180.1700  178.2940  142.8590 C   0  0  0  0  0  0  0  0  0  0  0  0
  181.3240  178.5890  142.0640 N   0  0  0  0  0  2  0  0  0  0  0  0
  179.0490  178.1840  142.3010 O   0  0  0  0  0  0  0  0  0  0  0  0
  188.4010  176.6830  142.5710 C   0  0  0  0  0  3  0  0  0  0  0  0
  187.9830  177.8810  142.1900 C   0  0  0  0  0  3  0  0  0  0  0  0
  188.9620  176.5030  143.9360 C   0  0  0  0  0  2  0  0  0  0  0  0
  190.4040  177.0160  143.9970 C   0  0  2  0  0  3  0  0  0  0  0  0
  191.3960  175.8990  143.7040 C   0  0  0  0  0  1  0  0  0  0  0  0
  190.9920  176.9100  147.5270 C   0  0  0  0  0  2  0  0  0  0  0  0
  190.7380  177.6840  145.2640 N   0  0  0  0  0  0  0  0  0  0  0  0
  189.5490  177.2820  147.3260 C   0  0  2  0  0  0  0  0  0  0  0  0
  189.4990  177.9790  145.9840 C   0  0  0  0  0  2  0  0  0  0  0  0
  191.5530  176.8240  146.1270 C   0  0  0  0  0  2  0  0  0  0  0  0
  189.0800  178.2090  148.4280 C   0  0  0  0  0  1  0  0  0  0  0  0
  188.7660  176.1430  147.2960 F   0  0  0  0  0  0  0  0  0  0  0  0
  1  6  1  0  0  0  0
  2  1  2  0  0  0  0
  3  1  1  0  0  0  0
  4  6  2  0  0  0  0
  4 14  1  0  0  0  0
  5  2  1  0  0  0  0
  5  7  2  0  0  0  0
  6 20  1  0  0  0  0
  7  4  1  0  0  0  0
  9  8  2  0  0  0  0
 10  8  1  0  0  0  0
 11 14  1  0  0  0  0
 11 13  2  0  0  0  0
 12 10  1  0  0  0  0
 13  9  1  0  0  0  0
 14 12  2  0  0  0  0
 16 15  1  0  0  0  0
 17 13  1  0  0  0  0
 17 16  1  0  0  0  0
 18 16  2  0  0  0  0
 19 21  1  0  0  0  0
 20 19  2  0  0  0  0
 21 22  1  0  0  0  0
 22 23  1  1  0  0  0
 22 25  1  0  0  0  0
 25 27  1  0  0  0  0
 25 28  1  0  0  0  0
 26 24  1  0  0  0  0
 26 29  1  1  0  0  0
 27 26  1  0  0  0  0
 28 24  1  0  0  0  0
 30 26  1  0  0  0  0
M  END
>  <MODEL>
7

>  <REMARK>
 VINA RESULT:      -8.7      4.679      8.275
  Name = 
  6 active torsions:
  status: ('A' for Active; 'I' for Inactive)
    1  A    between atoms: C_1  and  C_4
    2  A    between atoms: C_4  and  C_27
    3  A    between atoms: C_5  and  C_22
    4  A    between atoms: N_8  and  C_27
    5  A    between atoms: N_16  and  C_25
    6  A    between atoms: C_19  and  C_29
                            x       y       z     vdW  Elec       q    Type
                         _______ _______ _______ _____ _____    ______ ____

>  <TORSDO>
F 6

$$$$
=
 OpenBabel11052412223D

 30 32  0  0  1  0  0  0  0  0999 V2000
  184.9370  178.6220  145.5360 C   0  0  0  0  0  0  0  0  0  0  0  0
  185.0440  178.6220  146.8890 N   0  0  0  0  0  0  0  0  0  0  0  0
  183.3520  179.0050  144.8730 Cl  0  0  0  0  0  0  0  0  0  0  0  0
  187.2720  177.9780  145.4160 C   0  0  0  0  0  0  0  0  0  0  0  0
  186.2050  178.3070  147.5080 C   0  0  0  0  0  3  0  0  0  0  0  0
  186.0640  178.2900  144.7400 C   0  0  0  0  0  0  0  0  0  0  0  0
  187.2990  177.9890  146.7770 N   0  0  0  0  0  0  0  0  0  0  0  0
  190.9900  176.0060  143.9540 C   0  0  0  0  0  3  0  0  0  0  0  0
  190.2580  175.9280  142.8440 C   0  0  0  0  0  3  0  0  0  0  0  0
  190.9830  177.2060  144.8390 C   0  0  0  0  0  2  0  0  0  0  0  0
  188.5360  177.6760  143.2140 C   0  0  0  0  0  3  0  0  0  0  0  0
  189.6300  177.4300  145.4250 C   0  0  0  0  0  3  0  0  0  0  0  0
  189.3030  176.9610  142.3770 C   0  0  0  0  0  0  0  0  0  0  0  0
  188.5260  177.6420  144.6990 C   0  0  0  0  0  0  0  0  0  0  0  0
  191.3700  177.5020  140.2470 O   0  0  0  0  0  1  0  0  0  0  0  0
  190.0210  177.3510  139.9470 C   0  0  0  0  0  0  0  0  0  0  0  0
  189.0500  177.1250  140.9750 N   0  0  0  0  0  2  0  0  0  0  0  0
  189.6450  177.4270  138.7500 O   0  0  0  0  0  0  0  0  0  0  0  0
  185.6420  179.1420  142.4220 C   0  0  0  0  0  3  0  0  0  0  0  0
  186.0270  178.1910  143.2590 C   0  0  0  0  0  3  0  0  0  0  0  0
  185.6660  178.8830  140.9580 C   0  0  0  0  0  2  0  0  0  0  0  0
  184.2570  179.0060  140.3670 C   0  0  2  0  0  3  0  0  0  0  0  0
  183.3750  177.8470  140.8080 C   0  0  0  0  0  1  0  0  0  0  0  0
  183.2140  177.8710  137.1350 C   0  0  0  0  0  2  0  0  0  0  0  0
  184.2440  179.1370  138.9020 N   0  0  0  0  0  0  0  0  0  0  0  0
  184.5680  177.2730  137.4020 C   0  0  2  0  0  0  0  0  0  0  0  0
  185.2560  178.2440  138.3370 C   0  0  0  0  0  2  0  0  0  0  0  0
  182.9490  178.7450  138.3390 C   0  0  0  0  0  2  0  0  0  0  0  0
  185.3500  177.1280  136.1140 C   0  0  0  0  0  1  0  0  0  0  0  0
  184.4300  176.0430  138.0170 F   0  0  0  0  0  0  0  0  0  0  0  0
  1  2  1  0  0  0  0
  2  5  2  0  0  0  0
  3  1  1  0  0  0  0
  4  7  2  0  0  0  0
  6  4  1  0  0  0  0
  6  1  2  0  0  0  0
  7  5  1  0  0  0  0
  8 10  1  0  0  0  0
  9  8  2  0  0  0  0
 10 12  1  0  0  0  0
 11 14  1  0  0  0  0
 13  9  1  0  0  0  0
 13 11  2  0  0  0  0
 14  4  1  0  0  0  0
 14 12  2  0  0  0  0
 16 15  1  0  0  0  0
 16 17  1  0  0  0  0
 17 13  1  0  0  0  0
 18 16  2  0  0  0  0
 19 20  2  0  0  0  0
 20  6  1  0  0  0  0
 21 19  1  0  0  0  0
 22 23  1  6  0  0  0
 22 21  1  0  0  0  0
 24 26  1  0  0  0  0
 24 28  1  0  0  0  0
 25 22  1  0  0  0  0
 26 29  1  6  0  0  0
 26 30  1  0  0  0  0
 26 27  1  0  0  0  0
 27 25  1  0  0  0  0
 28 25  1  0  0  0  0
M  END
>  <MODEL>
8

>  <REMARK>
 VINA RESULT:      -8.6      3.004      4.173
  Name = 
  6 active torsions:
  status: ('A' for Active; 'I' for Inactive)
    1  A    between atoms: C_1  and  C_4
    2  A    between atoms: C_4  and  C_27
    3  A    between atoms: C_5  and  C_22
    4  A    between atoms: N_8  and  C_27
    5  A    between atoms: N_16  and  C_25
    6  A    between atoms: C_19  and  C_29
                            x       y       z     vdW  Elec       q    Type
                         _______ _______ _______ _____ _____    ______ ____

>  <TORSDO>
F 6

$$$$
=
 OpenBabel11052412223D

 30 32  0  0  1  0  0  0  0  0999 V2000
  187.6310  177.6900  146.7690 C   0  0  0  0  0  0  0  0  0  0  0  0
  187.1650  178.3990  147.8290 N   0  0  0  0  0  0  0  0  0  0  0  0
  189.0500  176.6900  147.0550 Cl  0  0  0  0  0  0  0  0  0  0  0  0
  185.8730  178.6760  145.4200 C   0  0  0  0  0  0  0  0  0  0  0  0
  186.1020  179.2280  147.7150 C   0  0  0  0  0  3  0  0  0  0  0  0
  186.9940  177.8100  145.5070 C   0  0  0  0  0  0  0  0  0  0  0  0
  185.4710  179.3610  146.5250 N   0  0  0  0  0  0  0  0  0  0  0  0
  184.1370  178.2570  141.3380 C   0  0  0  0  0  3  0  0  0  0  0  0
  183.0360  178.0520  142.0600 C   0  0  0  0  0  3  0  0  0  0  0  0
  185.1570  179.2810  141.7030 C   0  0  0  0  0  2  0  0  0  0  0  0
  183.6330  179.0570  144.2480 C   0  0  0  0  0  3  0  0  0  0  0  0
  185.7840  178.9670  143.0190 C   0  0  0  0  0  3  0  0  0  0  0  0
  182.7080  178.7410  143.3300 C   0  0  0  0  0  0  0  0  0  0  0  0
  185.1040  178.8660  144.1660 C   0  0  0  0  0  0  0  0  0  0  0  0
  180.6330  180.1980  141.6940 O   0  0  0  0  0  0  0  0  0  0  0  0
  180.3330  179.6170  142.9210 C   0  0  0  0  0  0  0  0  0  0  0  0
  181.3380  178.9550  143.6970 N   0  0  0  0  0  2  0  0  0  0  0  0
  179.1580  179.6850  143.3630 O   0  0  0  0  0  1  0  0  0  0  0  0
  188.7350  177.0030  143.8960 C   0  0  0  0  0  3  0  0  0  0  0  0
  187.4730  177.1350  144.2740 C   0  0  0  0  0  3  0  0  0  0  0  0
  189.0500  176.2950  142.6280 C   0  0  0  0  0  2  0  0  0  0  0  0
  190.3270  176.8620  141.9980 C   0  0  2  0  0  3  0  0  0  0  0  0
  191.2610  177.4200  143.0620 C   0  0  0  0  0  1  0  0  0  0  0  0
  188.3090  178.1780  139.3490 C   0  0  0  0  0  2  0  0  0  0  0  0
  190.0710  177.8680  140.9560 N   0  0  0  0  0  0  0  0  0  0  0  0
  189.3610  177.3090  138.7180 C   0  0  2  0  0  0  0  0  0  0  0  0
  190.5360  177.3490  139.6700 C   0  0  0  0  0  2  0  0  0  0  0  0
  188.6390  178.1530  140.8230 C   0  0  0  0  0  2  0  0  0  0  0  0
  189.7550  177.8510  137.3600 C   0  0  0  0  0  1  0  0  0  0  0  0
  188.8960  176.0130  138.5970 F   0  0  0  0  0  0  0  0  0  0  0  0
  1  3  1  0  0  0  0
  1  2  1  0  0  0  0
  4  6  1  0  0  0  0
  4  7  2  0  0  0  0
  5  2  2  0  0  0  0
  6  1  2  0  0  0  0
  7  5  1  0  0  0  0
  8 10  1  0  0  0  0
  8  9  2  0  0  0  0
  9 13  1  0  0  0  0
 10 12  1  0  0  0  0
 12 14  2  0  0  0  0
 13 17  1  0  0  0  0
 13 11  2  0  0  0  0
 14 11  1  0  0  0  0
 14  4  1  0  0  0  0
 15 16  2  0  0  0  0
 16 18  1  0  0  0  0
 16 17  1  0  0  0  0
 19 20  2  0  0  0  0
 20  6  1  0  0  0  0
 21 19  1  0  0  0  0
 22 21  1  0  0  0  0
 22 23  1  1  0  0  0
 24 28  1  0  0  0  0
 25 22  1  0  0  0  0
 26 29  1  6  0  0  0
 26 24  1  0  0  0  0
 26 27  1  0  0  0  0
 27 25  1  0  0  0  0
 28 25  1  0  0  0  0
 30 26  1  0  0  0  0
M  END
>  <MODEL>
9

>  <REMARK>
 VINA RESULT:      -8.5      4.288      6.267
  Name = 
  6 active torsions:
  status: ('A' for Active; 'I' for Inactive)
    1  A    between atoms: C_1  and  C_4
    2  A    between atoms: C_4  and  C_27
    3  A    between atoms: C_5  and  C_22
    4  A    between atoms: N_8  and  C_27
    5  A    between atoms: N_16  and  C_25
    6  A    between atoms: C_19  and  C_29
                            x       y       z     vdW  Elec       q    Type
                         _______ _______ _______ _____ _____    ______ ____

>  <TORSDO>
F 6

$$$$
