=
 OpenBabel11052412523D

 25 27  0  0  1  0  0  0  0  0999 V2000
  184.5630  178.0790  143.0170 N   0  0  0  0  0  0  0  0  0  0  0  0
  185.6050  178.0670  143.9980 C   0  0  0  0  0  0  0  0  0  0  0  0
  183.1600  179.4690  144.4360 C   0  0  0  0  0  2  0  0  0  0  0  0
  184.7430  178.1420  141.5770 C   0  0  1  0  0  3  0  0  0  0  0  0
  184.0680  179.1720  145.5060 O   0  0  0  0  0  0  0  0  0  0  0  0
  183.3850  178.2910  141.0150 N   0  0  0  0  0  0  0  0  0  0  0  0
  186.3190  178.5630  146.2510 C   0  0  0  0  0  0  0  0  0  0  0  0
  186.0640  179.1050  147.6130 C   0  0  0  0  0  1  0  0  0  0  0  0
  186.8320  177.5490  143.7220 N   0  0  0  0  0  0  0  0  0  0  0  0
  183.1910  178.3520  143.3940 C   0  0  1  0  0  3  0  0  0  0  0  0
  182.5210  178.7730  142.1000 C   0  0  0  0  0  2  0  0  0  0  0  0
  187.5700  178.0200  145.9490 C   0  0  0  0  0  3  0  0  0  0  0  0
  187.8150  177.5220  144.6630 C   0  0  0  0  0  0  0  0  0  0  0  0
  185.3290  178.6050  145.2620 C   0  0  0  0  0  0  0  0  0  0  0  0
  183.4500  178.2270  138.5000 C   0  0  0  0  0  1  0  0  0  0  0  0
  183.2710  179.0620  139.7650 C   0  0  0  0  0  2  0  0  0  0  0  0
  186.7990  178.7610  140.4500 O   0  0  0  0  0  1  0  0  0  0  0  0
  185.7270  179.2630  141.1920 C   0  0  0  0  0  2  0  0  0  0  0  0
  189.1380  176.9260  144.3390 C   0  0  0  0  0  2  0  0  0  0  0  0
  190.2470  177.7580  144.9600 C   0  0  0  0  0  2  0  0  0  0  0  0
  191.4660  176.8940  145.2410 C   0  0  2  0  0  3  0  0  0  0  0  0
  191.6510  175.6610  143.9120 S   0  0  0  0  0  1  0  0  0  0  0  0
  191.3660  176.2370  146.6180 C   0  0  2  0  0  3  0  0  0  0  0  0
  190.6370  177.1370  147.5970 C   0  0  0  0  0  1  0  0  0  0  0  0
  192.6300  175.9160  147.1170 O   0  0  0  0  0  1  0  0  0  0  0  0
  1 10  1  0  0  0  0
  1  2  1  0  0  0  0
  2 14  1  0  0  0  0
  3  5  1  0  0  0  0
  4 18  1  1  0  0  0
  4  1  1  0  0  0  0
  6  4  1  0  0  0  0
  6 11  1  0  0  0  0
  7  8  1  0  0  0  0
  9  2  2  0  0  0  0
  9 13  1  0  0  0  0
 10 11  1  6  0  0  0
 10  3  1  0  0  0  0
 12  7  1  0  0  0  0
 13 12  2  0  0  0  0
 14  5  1  0  0  0  0
 14  7  2  0  0  0  0
 15 16  1  0  0  0  0
 16  6  1  0  0  0  0
 17 18  1  0  0  0  0
 19 13  1  0  0  0  0
 19 20  1  0  0  0  0
 20 21  1  0  0  0  0
 21 22  1  6  0  0  0
 21 23  1  0  0  0  0
 23 25  1  0  0  0  0
 23 24  1  1  0  0  0
M  END
>  <MODEL>
1

>  <REMARK>
 VINA RESULT:      -7.4      0.000      0.000
  Name = 
  6 active torsions:
  status: ('A' for Active; 'I' for Inactive)
    1  A    between atoms: C_2  and  C_21
    2  A    between atoms: C_5  and  C_22
    3  A    between atoms: C_6  and  C_15
    4  A    between atoms: C_6  and  C_23
    5  A    between atoms: N_10  and  C_11
    6  A    between atoms: C_15  and  C_21
                            x       y       z     vdW  Elec       q    Type
                         _______ _______ _______ _____ _____    ______ ____

>  <TORSDO>
F 6

$$$$
=
 OpenBabel11052412523D

 25 27  0  0  1  0  0  0  0  0999 V2000
  189.5500  178.1170  144.0710 N   0  0  0  0  0  0  0  0  0  0  0  0
  188.4870  178.0600  145.0270 C   0  0  0  0  0  0  0  0  0  0  0  0
  191.1120  177.1410  145.6590 C   0  0  0  0  0  2  0  0  0  0  0  0
  189.4320  177.8700  142.6440 C   0  0  1  0  0  3  0  0  0  0  0  0
  190.1320  177.3960  146.6740 O   0  0  0  0  0  0  0  0  0  0  0  0
  190.8140  177.8900  142.1240 N   0  0  0  0  0  0  0  0  0  0  0  0
  187.7870  177.6980  147.3100 C   0  0  0  0  0  0  0  0  0  0  0  0
  188.0810  177.3560  148.7280 C   0  0  0  0  0  1  0  0  0  0  0  0
  187.2020  178.3350  144.6760 N   0  0  0  0  0  0  0  0  0  0  0  0
  190.9350  178.1190  144.4980 C   0  0  1  0  0  3  0  0  0  0  0  0
  191.7090  177.6780  143.2690 C   0  0  0  0  0  2  0  0  0  0  0  0
  186.4760  177.9900  146.9300 C   0  0  0  0  0  3  0  0  0  0  0  0
  186.1960  178.2990  145.5920 C   0  0  0  0  0  0  0  0  0  0  0  0
  188.8040  177.7150  146.3480 C   0  0  0  0  0  0  0  0  0  0  0  0
  192.3240  177.4340  140.1620 C   0  0  0  0  0  1  0  0  0  0  0  0
  191.0970  177.0190  140.9700 C   0  0  0  0  0  2  0  0  0  0  0  0
  189.1880  175.5020  143.1060 O   0  0  0  0  0  1  0  0  0  0  0  0
  188.6590  176.5670  142.3720 C   0  0  0  0  0  2  0  0  0  0  0  0
  184.8060  178.6270  145.1820 C   0  0  0  0  0  2  0  0  0  0  0  0
  184.8190  179.7420  144.1500 C   0  0  0  0  0  2  0  0  0  0  0  0
  183.9490  179.3740  142.9590 C   0  0  2  0  0  3  0  0  0  0  0  0
  182.3030  178.8630  143.5490 S   0  0  0  0  0  1  0  0  0  0  0  0
  184.6120  178.2880  142.1100 C   0  0  2  0  0  3  0  0  0  0  0  0
  185.8100  178.8420  141.3620 C   0  0  0  0  0  1  0  0  0  0  0  0
  183.7050  177.7280  141.2080 O   0  0  0  0  0  1  0  0  0  0  0  0
  1 10  1  0  0  0  0
  1  2  1  0  0  0  0
  2 14  1  0  0  0  0
  3  5  1  0  0  0  0
  4 18  1  1  0  0  0
  4  1  1  0  0  0  0
  6  4  1  0  0  0  0
  6 11  1  0  0  0  0
  7  8  1  0  0  0  0
  9  2  2  0  0  0  0
  9 13  1  0  0  0  0
 10 11  1  6  0  0  0
 10  3  1  0  0  0  0
 12  7  1  0  0  0  0
 13 12  2  0  0  0  0
 14  5  1  0  0  0  0
 14  7  2  0  0  0  0
 15 16  1  0  0  0  0
 16  6  1  0  0  0  0
 18 17  1  0  0  0  0
 19 13  1  0  0  0  0
 20 19  1  0  0  0  0
 21 22  1  1  0  0  0
 21 20  1  0  0  0  0
 23 24  1  6  0  0  0
 23 21  1  0  0  0  0
 25 23  1  0  0  0  0
M  END
>  <MODEL>
2

>  <REMARK>
 VINA RESULT:      -7.3      3.125      6.554
  Name = 
  6 active torsions:
  status: ('A' for Active; 'I' for Inactive)
    1  A    between atoms: C_2  and  C_21
    2  A    between atoms: C_5  and  C_22
    3  A    between atoms: C_6  and  C_15
    4  A    between atoms: C_6  and  C_23
    5  A    between atoms: N_10  and  C_11
    6  A    between atoms: C_15  and  C_21
                            x       y       z     vdW  Elec       q    Type
                         _______ _______ _______ _____ _____    ______ ____

>  <TORSDO>
F 6

$$$$
=
 OpenBabel11052412523D

 25 27  0  0  1  0  0  0  0  0999 V2000
  184.1440  178.1330  142.7960 N   0  0  0  0  0  0  0  0  0  0  0  0
  185.2720  178.0630  143.6730 C   0  0  0  0  0  0  0  0  0  0  0  0
  182.9370  179.5480  144.3630 C   0  0  0  0  0  2  0  0  0  0  0  0
  184.1900  178.2170  141.3460 C   0  0  1  0  0  3  0  0  0  0  0  0
  183.9290  179.1960  145.3370 O   0  0  0  0  0  0  0  0  0  0  0  0
  182.7920  178.4280  140.9180 N   0  0  0  0  0  0  0  0  0  0  0  0
  186.2140  178.4890  145.8550 C   0  0  0  0  0  0  0  0  0  0  0  0
  186.1100  179.0130  147.2440 C   0  0  0  0  0  1  0  0  0  0  0  0
  186.4470  177.5040  143.2740 N   0  0  0  0  0  0  0  0  0  0  0  0
  182.8250  178.4510  143.3060 C   0  0  1  0  0  3  0  0  0  0  0  0
  182.0530  178.9210  142.0870 C   0  0  0  0  0  2  0  0  0  0  0  0
  187.4090  177.9040  145.4280 C   0  0  0  0  0  3  0  0  0  0  0  0
  187.5120  177.4220  144.1170 C   0  0  0  0  0  0  0  0  0  0  0  0
  185.1380  178.5870  144.9650 C   0  0  0  0  0  0  0  0  0  0  0  0
  182.2510  178.3980  138.4600 C   0  0  0  0  0  1  0  0  0  0  0  0
  182.5910  179.2270  139.6960 C   0  0  0  0  0  2  0  0  0  0  0  0
  186.0330  178.8280  139.8930 O   0  0  0  0  0  1  0  0  0  0  0  0
  185.1770  179.3070  140.8880 C   0  0  0  0  0  2  0  0  0  0  0  0
  188.7740  176.7830  143.6590 C   0  0  0  0  0  2  0  0  0  0  0  0
  188.8880  176.8850  142.1480 C   0  0  0  0  0  2  0  0  0  0  0  0
  190.3030  176.5590  141.6980 C   0  0  2  0  0  3  0  0  0  0  0  0
  191.4920  177.3140  142.8530 S   0  0  0  0  0  1  0  0  0  0  0  0
  190.5390  177.0140  140.2570 C   0  0  2  0  0  3  0  0  0  0  0  0
  189.4030  177.8950  139.7740 C   0  0  0  0  0  1  0  0  0  0  0  0
  190.6910  175.9210  139.4010 O   0  0  0  0  0  1  0  0  0  0  0  0
  1 10  1  0  0  0  0
  1  2  1  0  0  0  0
  2 14  1  0  0  0  0
  3  5  1  0  0  0  0
  4 18  1  1  0  0  0
  4  1  1  0  0  0  0
  6  4  1  0  0  0  0
  6 11  1  0  0  0  0
  7  8  1  0  0  0  0
  9  2  2  0  0  0  0
  9 13  1  0  0  0  0
 10 11  1  6  0  0  0
 10  3  1  0  0  0  0
 12  7  1  0  0  0  0
 13 12  2  0  0  0  0
 14  5  1  0  0  0  0
 14  7  2  0  0  0  0
 15 16  1  0  0  0  0
 16  6  1  0  0  0  0
 17 18  1  0  0  0  0
 19 13  1  0  0  0  0
 20 19  1  0  0  0  0
 21 20  1  0  0  0  0
 21 22  1  1  0  0  0
 23 24  1  6  0  0  0
 23 21  1  0  0  0  0
 25 23  1  0  0  0  0
M  END
>  <MODEL>
3

>  <REMARK>
 VINA RESULT:      -7.3      2.194      2.855
  Name = 
  6 active torsions:
  status: ('A' for Active; 'I' for Inactive)
    1  A    between atoms: C_2  and  C_21
    2  A    between atoms: C_5  and  C_22
    3  A    between atoms: C_6  and  C_15
    4  A    between atoms: C_6  and  C_23
    5  A    between atoms: N_10  and  C_11
    6  A    between atoms: C_15  and  C_21
                            x       y       z     vdW  Elec       q    Type
                         _______ _______ _______ _____ _____    ______ ____

>  <TORSDO>
F 6

$$$$
=
 OpenBabel11052412523D

 25 27  0  0  1  0  0  0  0  0999 V2000
  188.9820  177.8620  144.9900 N   0  0  0  0  0  0  0  0  0  0  0  0
  187.8490  178.0330  144.1320 C   0  0  0  0  0  0  0  0  0  0  0  0
  187.5440  177.4120  146.8990 C   0  0  0  0  0  2  0  0  0  0  0  0
  190.2390  177.2290  144.6310 C   0  0  1  0  0  3  0  0  0  0  0  0
  186.4540  177.9010  146.1060 O   0  0  0  0  0  0  0  0  0  0  0  0
  191.0150  177.1540  145.8860 N   0  0  0  0  0  0  0  0  0  0  0  0
  185.4580  178.2850  143.9030 C   0  0  0  0  0  0  0  0  0  0  0  0
  184.0900  178.3560  144.4840 C   0  0  0  0  0  1  0  0  0  0  0  0
  187.9920  178.1560  142.7850 N   0  0  0  0  0  0  0  0  0  0  0  0
  188.8590  178.0270  146.4250 C   0  0  1  0  0  3  0  0  0  0  0  0
  190.0600  177.2940  146.9920 C   0  0  0  0  0  2  0  0  0  0  0  0
  185.6280  178.4170  142.5230 C   0  0  0  0  0  3  0  0  0  0  0  0
  186.9140  178.3380  141.9740 C   0  0  0  0  0  0  0  0  0  0  0  0
  186.5770  178.0730  144.7180 C   0  0  0  0  0  0  0  0  0  0  0  0
  192.3350  175.7050  147.4660 C   0  0  0  0  0  1  0  0  0  0  0  0
  191.9330  176.0100  146.0240 C   0  0  0  0  0  2  0  0  0  0  0  0
  190.4800  175.8860  142.6270 O   0  0  0  0  0  1  0  0  0  0  0  0
  189.9980  175.8750  143.9380 C   0  0  0  0  0  2  0  0  0  0  0  0
  187.1050  178.4940  140.5080 C   0  0  0  0  0  2  0  0  0  0  0  0
  188.5760  178.3430  140.1590 C   0  0  0  0  0  2  0  0  0  0  0  0
  188.7390  177.5170  138.8930 C   0  0  2  0  0  3  0  0  0  0  0  0
  190.4210  176.8190  138.8400 S   0  0  0  0  0  1  0  0  0  0  0  0
  188.4290  178.3520  137.6500 C   0  0  2  0  0  3  0  0  0  0  0  0
  188.9200  177.6570  136.3940 C   0  0  0  0  0  1  0  0  0  0  0  0
  188.9960  179.6250  137.7420 O   0  0  0  0  0  1  0  0  0  0  0  0
  1 10  1  0  0  0  0
  2 14  1  0  0  0  0
  2  1  1  0  0  0  0
  4 18  1  1  0  0  0
  4  1  1  0  0  0  0
  4  6  1  0  0  0  0
  5  3  1  0  0  0  0
  6 16  1  0  0  0  0
  6 11  1  0  0  0  0
  7  8  1  0  0  0  0
  7 14  2  0  0  0  0
  9  2  2  0  0  0  0
 10  3  1  1  0  0  0
 10 11  1  0  0  0  0
 12  7  1  0  0  0  0
 13 12  2  0  0  0  0
 13  9  1  0  0  0  0
 14  5  1  0  0  0  0
 16 15  1  0  0  0  0
 17 18  1  0  0  0  0
 19 13  1  0  0  0  0
 20 19  1  0  0  0  0
 21 22  1  6  0  0  0
 21 20  1  0  0  0  0
 23 24  1  6  0  0  0
 23 25  1  0  0  0  0
 23 21  1  0  0  0  0
M  END
>  <MODEL>
4

>  <REMARK>
 VINA RESULT:      -7.1      2.889      6.863
  Name = 
  6 active torsions:
  status: ('A' for Active; 'I' for Inactive)
    1  A    between atoms: C_2  and  C_21
    2  A    between atoms: C_5  and  C_22
    3  A    between atoms: C_6  and  C_15
    4  A    between atoms: C_6  and  C_23
    5  A    between atoms: N_10  and  C_11
    6  A    between atoms: C_15  and  C_21
                            x       y       z     vdW  Elec       q    Type
                         _______ _______ _______ _____ _____    ______ ____

>  <TORSDO>
F 6

$$$$
=
 OpenBabel11052412523D

 25 27  0  0  1  0  0  0  0  0999 V2000
  189.5400  176.8590  139.6430 N   0  0  0  0  0  0  0  0  0  0  0  0
  188.6350  177.2940  140.6630 C   0  0  0  0  0  0  0  0  0  0  0  0
  188.4990  178.3290  138.0080 C   0  0  0  0  0  2  0  0  0  0  0  0
  190.9490  176.5530  139.8220 C   0  0  1  0  0  3  0  0  0  0  0  0
  187.4260  178.4960  138.9450 O   0  0  0  0  0  0  0  0  0  0  0  0
  191.4760  176.3090  138.4640 N   0  0  0  0  0  0  0  0  0  0  0  0
  186.6330  178.5040  141.2600 C   0  0  0  0  0  0  0  0  0  0  0  0
  185.4600  179.3490  140.9040 C   0  0  0  0  0  1  0  0  0  0  0  0
  188.8070  176.9340  141.9640 N   0  0  0  0  0  0  0  0  0  0  0  0
  189.1980  176.9900  138.2410 C   0  0  1  0  0  3  0  0  0  0  0  0
  190.5310  176.9190  137.5200 C   0  0  0  0  0  2  0  0  0  0  0  0
  186.8230  178.1180  142.5890 C   0  0  0  0  0  3  0  0  0  0  0  0
  187.9340  177.3340  142.9280 C   0  0  0  0  0  0  0  0  0  0  0  0
  187.5560  178.1040  140.2870 C   0  0  0  0  0  0  0  0  0  0  0  0
  193.7860  175.4930  137.8870 C   0  0  0  0  0  1  0  0  0  0  0  0
  192.8830  176.6760  138.2280 C   0  0  0  0  0  2  0  0  0  0  0  0
  192.0980  177.2230  141.8490 O   0  0  0  0  0  1  0  0  0  0  0  0
  191.6630  177.6740  140.6010 C   0  0  0  0  0  2  0  0  0  0  0  0
  188.1350  176.9040  144.3370 C   0  0  0  0  0  2  0  0  0  0  0  0
  186.8400  177.0560  145.1150 C   0  0  0  0  0  2  0  0  0  0  0  0
  186.9900  178.1160  146.1950 C   0  0  2  0  0  3  0  0  0  0  0  0
  188.0350  177.4670  147.5380 S   0  0  0  0  0  1  0  0  0  0  0  0
  185.6230  178.5750  146.7060 C   0  0  2  0  0  3  0  0  0  0  0  0
  184.6690  178.8250  145.5540 C   0  0  0  0  0  1  0  0  0  0  0  0
  185.7370  179.7260  147.4880 O   0  0  0  0  0  1  0  0  0  0  0  0
  1  4  1  0  0  0  0
  1  2  1  0  0  0  0
  2  9  1  0  0  0  0
  3 10  1  0  0  0  0
  3  5  1  0  0  0  0
  4 18  1  6  0  0  0
  5 14  1  0  0  0  0
  6  4  1  0  0  0  0
  7 12  2  0  0  0  0
  8  7  1  0  0  0  0
  9 13  2  0  0  0  0
 10 11  1  6  0  0  0
 10  1  1  0  0  0  0
 11  6  1  0  0  0  0
 12 13  1  0  0  0  0
 13 19  1  0  0  0  0
 14  2  2  0  0  0  0
 14  7  1  0  0  0  0
 15 16  1  0  0  0  0
 16  6  1  0  0  0  0
 18 17  1  0  0  0  0
 19 20  1  0  0  0  0
 20 21  1  0  0  0  0
 21 23  1  0  0  0  0
 21 22  1  1  0  0  0
 23 24  1  6  0  0  0
 23 25  1  0  0  0  0
M  END
>  <MODEL>
5

>  <REMARK>
 VINA RESULT:      -7.1      4.125      6.555
  Name = 
  6 active torsions:
  status: ('A' for Active; 'I' for Inactive)
    1  A    between atoms: C_2  and  C_21
    2  A    between atoms: C_5  and  C_22
    3  A    between atoms: C_6  and  C_15
    4  A    between atoms: C_6  and  C_23
    5  A    between atoms: N_10  and  C_11
    6  A    between atoms: C_15  and  C_21
                            x       y       z     vdW  Elec       q    Type
                         _______ _______ _______ _____ _____    ______ ____

>  <TORSDO>
F 6

$$$$
=
 OpenBabel11052412523D

 25 27  0  0  1  0  0  0  0  0999 V2000
  189.6000  176.8440  142.9210 N   0  0  0  0  0  0  0  0  0  0  0  0
  188.6970  177.4600  141.9970 C   0  0  0  0  0  0  0  0  0  0  0  0
  191.4040  176.9040  141.2910 C   0  0  0  0  0  2  0  0  0  0  0  0
  189.6610  177.0890  144.3520 C   0  0  1  0  0  3  0  0  0  0  0  0
  190.4100  177.2110  140.3050 O   0  0  0  0  0  0  0  0  0  0  0  0
  190.8450  176.3490  144.8300 N   0  0  0  0  0  0  0  0  0  0  0  0
  188.2320  178.1750  139.7380 C   0  0  0  0  0  0  0  0  0  0  0  0
  188.6270  178.3430  138.3130 C   0  0  0  0  0  1  0  0  0  0  0  0
  187.4640  177.8820  142.3860 N   0  0  0  0  0  0  0  0  0  0  0  0
  190.7750  176.1360  142.4530 C   0  0  1  0  0  3  0  0  0  0  0  0
  191.6930  176.0900  143.6590 C   0  0  0  0  0  2  0  0  0  0  0  0
  186.9680  178.5950  140.1560 C   0  0  0  0  0  3  0  0  0  0  0  0
  186.6000  178.4500  141.5000 C   0  0  0  0  0  0  0  0  0  0  0  0
  189.1160  177.6170  140.6700 C   0  0  0  0  0  0  0  0  0  0  0  0
  191.0280  176.4820  147.3370 C   0  0  0  0  0  1  0  0  0  0  0  0
  191.5640  176.9270  145.9790 C   0  0  0  0  0  2  0  0  0  0  0  0
  190.6410  179.2570  143.8820 O   0  0  0  0  0  1  0  0  0  0  0  0
  189.6780  178.6000  144.6530 C   0  0  0  0  0  2  0  0  0  0  0  0
  185.2500  178.8790  141.9500 C   0  0  0  0  0  2  0  0  0  0  0  0
  185.3350  179.4820  143.3420 C   0  0  0  0  0  2  0  0  0  0  0  0
  184.6750  178.5670  144.3600 C   0  0  2  0  0  3  0  0  0  0  0  0
  182.8880  178.9170  144.4170 S   0  0  0  0  0  1  0  0  0  0  0  0
  185.3290  178.7130  145.7340 C   0  0  2  0  0  3  0  0  0  0  0  0
  186.3490  177.6160  145.9680 C   0  0  0  0  0  1  0  0  0  0  0  0
  184.3730  178.6990  146.7520 O   0  0  0  0  0  1  0  0  0  0  0  0
  1  4  1  0  0  0  0
  2  9  1  0  0  0  0
  2  1  1  0  0  0  0
  4 18  1  6  0  0  0
  4  6  1  0  0  0  0
  5 14  1  0  0  0  0
  5  3  1  0  0  0  0
  6 16  1  0  0  0  0
  7 12  2  0  0  0  0
  7 14  1  0  0  0  0
  8  7  1  0  0  0  0
 10  3  1  6  0  0  0
 10  1  1  0  0  0  0
 10 11  1  0  0  0  0
 11  6  1  0  0  0  0
 12 13  1  0  0  0  0
 13 19  1  0  0  0  0
 13  9  2  0  0  0  0
 14  2  2  0  0  0  0
 16 15  1  0  0  0  0
 17 18  1  0  0  0  0
 19 20  1  0  0  0  0
 20 21  1  0  0  0  0
 21 22  1  1  0  0  0
 21 23  1  0  0  0  0
 23 24  1  1  0  0  0
 23 25  1  0  0  0  0
M  END
>  <MODEL>
6

>  <REMARK>
 VINA RESULT:      -7.0      3.131      7.276
  Name = 
  6 active torsions:
  status: ('A' for Active; 'I' for Inactive)
    1  A    between atoms: C_2  and  C_21
    2  A    between atoms: C_5  and  C_22
    3  A    between atoms: C_6  and  C_15
    4  A    between atoms: C_6  and  C_23
    5  A    between atoms: N_10  and  C_11
    6  A    between atoms: C_15  and  C_21
                            x       y       z     vdW  Elec       q    Type
                         _______ _______ _______ _____ _____    ______ ____

>  <TORSDO>
F 6

$$$$
=
 OpenBabel11052412523D

 25 27  0  0  1  0  0  0  0  0999 V2000
  186.4450  177.6810  144.1950 N   0  0  0  0  0  0  0  0  0  0  0  0
  187.8050  177.5030  143.7880 C   0  0  0  0  0  0  0  0  0  0  0  0
  187.1370  178.3450  146.4300 C   0  0  0  0  0  2  0  0  0  0  0  0
  185.3710  178.2210  143.3790 C   0  0  1  0  0  3  0  0  0  0  0  0
  188.4420  177.8520  146.0970 O   0  0  0  0  0  0  0  0  0  0  0  0
  184.2130  178.3520  144.2870 N   0  0  0  0  0  0  0  0  0  0  0  0
  190.1360  177.3530  144.4020 C   0  0  0  0  0  0  0  0  0  0  0  0
  191.2270  177.3960  145.4140 C   0  0  0  0  0  1  0  0  0  0  0  0
  188.1320  177.2710  142.4880 N   0  0  0  0  0  0  0  0  0  0  0  0
  186.0760  177.6300  145.5960 C   0  0  1  0  0  3  0  0  0  0  0  0
  184.7380  178.3430  145.6580 C   0  0  0  0  0  2  0  0  0  0  0  0
  190.4490  177.1100  143.0620 C   0  0  0  0  0  3  0  0  0  0  0  0
  189.4250  177.0830  142.1070 C   0  0  0  0  0  0  0  0  0  0  0  0
  188.8030  177.5700  144.7700 C   0  0  0  0  0  0  0  0  0  0  0  0
  181.8750  178.9980  143.6170 C   0  0  0  0  0  1  0  0  0  0  0  0
  183.2780  179.4560  144.0060 C   0  0  0  0  0  2  0  0  0  0  0  0
  185.5450  179.4880  141.3190 O   0  0  0  0  0  1  0  0  0  0  0  0
  185.8040  179.5290  142.6920 C   0  0  0  0  0  2  0  0  0  0  0  0
  189.7470  176.8070  140.6820 C   0  0  0  0  0  2  0  0  0  0  0  0
  188.9570  177.7420  139.7830 C   0  0  0  0  0  2  0  0  0  0  0  0
  188.4930  177.0110  138.5330 C   0  0  2  0  0  3  0  0  0  0  0  0
  189.8820  176.0560  137.8420 S   0  0  0  0  0  1  0  0  0  0  0  0
  187.9080  177.9880  137.5120 C   0  0  2  0  0  3  0  0  0  0  0  0
  188.9550  178.9830  137.0520 C   0  0  0  0  0  1  0  0  0  0  0  0
  186.8050  178.6650  138.0360 O   0  0  0  0  0  1  0  0  0  0  0  0
  1 10  1  0  0  0  0
  2  1  1  0  0  0  0
  2 14  1  0  0  0  0
  4 18  1  1  0  0  0
  4  1  1  0  0  0  0
  4  6  1  0  0  0  0
  5  3  1  0  0  0  0
  6 11  1  0  0  0  0
  7 14  2  0  0  0  0
  7  8  1  0  0  0  0
  9  2  2  0  0  0  0
 10 11  1  6  0  0  0
 10  3  1  0  0  0  0
 12  7  1  0  0  0  0
 13  9  1  0  0  0  0
 13 12  2  0  0  0  0
 14  5  1  0  0  0  0
 15 16  1  0  0  0  0
 16  6  1  0  0  0  0
 17 18  1  0  0  0  0
 19 13  1  0  0  0  0
 20 19  1  0  0  0  0
 21 22  1  6  0  0  0
 21 20  1  0  0  0  0
 23 24  1  1  0  0  0
 23 25  1  0  0  0  0
 23 21  1  0  0  0  0
M  END
>  <MODEL>
7

>  <REMARK>
 VINA RESULT:      -7.0      2.755      5.383
  Name = 
  6 active torsions:
  status: ('A' for Active; 'I' for Inactive)
    1  A    between atoms: C_2  and  C_21
    2  A    between atoms: C_5  and  C_22
    3  A    between atoms: C_6  and  C_15
    4  A    between atoms: C_6  and  C_23
    5  A    between atoms: N_10  and  C_11
    6  A    between atoms: C_15  and  C_21
                            x       y       z     vdW  Elec       q    Type
                         _______ _______ _______ _____ _____    ______ ____

>  <TORSDO>
F 6

$$$$
=
 OpenBabel11052412523D

 25 27  0  0  1  0  0  0  0  0999 V2000
  189.4480  176.9150  139.8640 N   0  0  0  0  0  0  0  0  0  0  0  0
  188.5780  177.3120  140.9280 C   0  0  0  0  0  0  0  0  0  0  0  0
  188.3870  178.4770  138.3320 C   0  0  0  0  0  2  0  0  0  0  0  0
  190.8560  176.5800  139.9890 C   0  0  1  0  0  3  0  0  0  0  0  0
  187.3420  178.6140  139.3040 O   0  0  0  0  0  0  0  0  0  0  0  0
  191.3420  176.3950  138.6070 N   0  0  0  0  0  0  0  0  0  0  0  0
  186.6110  178.5210  141.6390 C   0  0  0  0  0  0  0  0  0  0  0  0
  185.4440  179.3990  141.3550 C   0  0  0  0  0  1  0  0  0  0  0  0
  188.7780  176.8870  142.2050 N   0  0  0  0  0  0  0  0  0  0  0  0
  189.0700  177.1190  138.4800 C   0  0  1  0  0  3  0  0  0  0  0  0
  190.3820  177.0630  137.7200 C   0  0  0  0  0  2  0  0  0  0  0  0
  186.8310  178.0680  142.9410 C   0  0  0  0  0  3  0  0  0  0  0  0
  187.9380  177.2520  143.2110 C   0  0  0  0  0  0  0  0  0  0  0  0
  187.5020  178.1560  140.6220 C   0  0  0  0  0  0  0  0  0  0  0  0
  193.6180  175.5780  137.9050 C   0  0  0  0  0  1  0  0  0  0  0  0
  192.7490  176.7520  138.3510 C   0  0  0  0  0  2  0  0  0  0  0  0
  192.0790  177.1300  142.0100 O   0  0  0  0  0  1  0  0  0  0  0  0
  191.6080  177.6500  140.8010 C   0  0  0  0  0  2  0  0  0  0  0  0
  188.1700  176.7510  144.5910 C   0  0  0  0  0  2  0  0  0  0  0  0
  189.0180  177.7440  145.3670 C   0  0  0  0  0  2  0  0  0  0  0  0
  189.6260  177.0810  146.5920 C   0  0  2  0  0  3  0  0  0  0  0  0
  188.9710  177.8750  148.0960 S   0  0  0  0  0  1  0  0  0  0  0  0
  191.1540  177.1290  146.5410 C   0  0  2  0  0  3  0  0  0  0  0  0
  191.6800  176.3550  145.3480 C   0  0  0  0  0  1  0  0  0  0  0  0
  191.7150  176.6290  147.7180 O   0  0  0  0  0  1  0  0  0  0  0  0
  1  4  1  0  0  0  0
  1  2  1  0  0  0  0
  2  9  1  0  0  0  0
  3 10  1  0  0  0  0
  3  5  1  0  0  0  0
  4 18  1  6  0  0  0
  5 14  1  0  0  0  0
  6  4  1  0  0  0  0
  7 12  2  0  0  0  0
  8  7  1  0  0  0  0
  9 13  2  0  0  0  0
 10 11  1  6  0  0  0
 10  1  1  0  0  0  0
 11  6  1  0  0  0  0
 12 13  1  0  0  0  0
 13 19  1  0  0  0  0
 14  2  2  0  0  0  0
 14  7  1  0  0  0  0
 15 16  1  0  0  0  0
 16  6  1  0  0  0  0
 18 17  1  0  0  0  0
 19 20  1  0  0  0  0
 20 21  1  0  0  0  0
 21 22  1  1  0  0  0
 23 24  1  6  0  0  0
 23 21  1  0  0  0  0
 23 25  1  0  0  0  0
M  END
>  <MODEL>
8

>  <REMARK>
 VINA RESULT:      -7.0      3.969      5.862
  Name = 
  6 active torsions:
  status: ('A' for Active; 'I' for Inactive)
    1  A    between atoms: C_2  and  C_21
    2  A    between atoms: C_5  and  C_22
    3  A    between atoms: C_6  and  C_15
    4  A    between atoms: C_6  and  C_23
    5  A    between atoms: N_10  and  C_11
    6  A    between atoms: C_15  and  C_21
                            x       y       z     vdW  Elec       q    Type
                         _______ _______ _______ _____ _____    ______ ____

>  <TORSDO>
F 6

$$$$
=
 OpenBabel11052412523D

 25 27  0  0  1  0  0  0  0  0999 V2000
  187.3850  177.3770  144.5560 N   0  0  0  0  0  0  0  0  0  0  0  0
  186.9620  177.7790  143.2500 C   0  0  0  0  0  0  0  0  0  0  0  0
  189.7040  177.8880  144.0280 C   0  0  0  0  0  2  0  0  0  0  0  0
  186.6650  177.6030  145.7980 C   0  0  1  0  0  3  0  0  0  0  0  0
  189.3000  177.9710  142.6540 O   0  0  0  0  0  0  0  0  0  0  0  0
  187.5760  177.1540  146.8700 N   0  0  0  0  0  0  0  0  0  0  0  0
  187.5540  178.4050  140.9940 C   0  0  0  0  0  0  0  0  0  0  0  0
  188.5650  178.6870  139.9390 C   0  0  0  0  0  1  0  0  0  0  0  0
  185.6430  177.8920  142.9350 N   0  0  0  0  0  0  0  0  0  0  0  0
  188.7560  176.9730  144.8020 C   0  0  1  0  0  3  0  0  0  0  0  0
  188.9290  177.1230  146.3020 C   0  0  0  0  0  2  0  0  0  0  0  0
  186.1950  178.5080  140.6900 C   0  0  0  0  0  3  0  0  0  0  0  0
  185.2430  178.2560  141.6870 C   0  0  0  0  0  0  0  0  0  0  0  0
  187.9460  178.0540  142.2920 C   0  0  0  0  0  0  0  0  0  0  0  0
  188.8280  178.2540  148.7560 C   0  0  0  0  0  1  0  0  0  0  0  0
  187.4790  177.8640  148.1570 C   0  0  0  0  0  2  0  0  0  0  0  0
  184.8350  179.1540  146.1500 O   0  0  0  0  0  1  0  0  0  0  0  0
  186.2090  179.0700  145.9110 C   0  0  0  0  0  2  0  0  0  0  0  0
  183.7940  178.3470  141.3680 C   0  0  0  0  0  2  0  0  0  0  0  0
  183.0060  178.6670  142.6260 C   0  0  0  0  0  2  0  0  0  0  0  0
  181.5130  178.5720  142.3560 C   0  0  2  0  0  3  0  0  0  0  0  0
  181.1830  179.0140  140.6200 S   0  0  0  0  0  1  0  0  0  0  0  0
  180.7230  179.4490  143.3280 C   0  0  2  0  0  3  0  0  0  0  0  0
  179.6960  178.6300  144.0860 C   0  0  0  0  0  1  0  0  0  0  0  0
  180.0930  180.5020  142.6610 O   0  0  0  0  0  1  0  0  0  0  0  0
  1 10  1  0  0  0  0
  1  4  1  0  0  0  0
  2  1  1  0  0  0  0
  4 18  1  1  0  0  0
  4  6  1  0  0  0  0
  5  3  1  0  0  0  0
  6 16  1  0  0  0  0
  7 14  1  0  0  0  0
  8  7  1  0  0  0  0
  9  2  1  0  0  0  0
 10  3  1  6  0  0  0
 10 11  1  0  0  0  0
 11  6  1  0  0  0  0
 12  7  2  0  0  0  0
 12 13  1  0  0  0  0
 13  9  2  0  0  0  0
 14  5  1  0  0  0  0
 14  2  2  0  0  0  0
 16 15  1  0  0  0  0
 18 17  1  0  0  0  0
 19 13  1  0  0  0  0
 19 20  1  0  0  0  0
 21 22  1  6  0  0  0
 21 20  1  0  0  0  0
 21 23  1  0  0  0  0
 23 24  1  6  0  0  0
 25 23  1  0  0  0  0
M  END
>  <MODEL>
9

>  <REMARK>
 VINA RESULT:      -6.9      3.111      7.784
  Name = 
  6 active torsions:
  status: ('A' for Active; 'I' for Inactive)
    1  A    between atoms: C_2  and  C_21
    2  A    between atoms: C_5  and  C_22
    3  A    between atoms: C_6  and  C_15
    4  A    between atoms: C_6  and  C_23
    5  A    between atoms: N_10  and  C_11
    6  A    between atoms: C_15  and  C_21
                            x       y       z     vdW  Elec       q    Type
                         _______ _______ _______ _____ _____    ______ ____

>  <TORSDO>
F 6

$$$$
