=
 OpenBabel11052415553D

 34 39  0  0  1  0  0  0  0  0999 V2000
  186.6200  178.5030  143.5630 C   0  0  2  0  0  3  0  0  0  0  0  0
  183.1010  178.7830  144.9780 C   0  0  0  0  0  3  0  0  0  0  0  0
  185.2580  178.6070  146.2220 C   0  0  0  0  0  2  0  0  0  0  0  0
  189.0870  177.0330  143.3000 C   0  0  0  0  0  2  0  0  0  0  0  0
  187.0940  177.8350  142.2670 C   0  0  0  0  0  2  0  0  0  0  0  0
  188.7100  177.6770  144.6290 C   0  0  2  0  0  3  0  0  0  0  0  0
  188.9230  177.6830  147.0960 C   0  0  0  0  0  2  0  0  0  0  0  0
  189.2610  176.9090  145.8190 C   0  0  0  0  0  2  0  0  0  0  0  0
  188.5650  177.8480  142.1910 N   0  0  2  0  0  0  0  0  0  0  0  0
  186.6980  178.2060  146.0600 C   0  0  0  0  0  0  0  0  0  0  0  0
  187.1900  177.7000  144.7260 C   0  0  1  0  0  3  0  0  0  0  0  0
  187.4710  178.1040  147.1560 C   0  0  0  0  0  3  0  0  0  0  0  0
  182.3470  178.8520  143.8060 C   0  0  0  0  0  0  0  0  0  0  0  0
  183.0130  178.8060  142.5760 C   0  0  0  0  0  3  0  0  0  0  0  0
  184.4890  178.6490  144.9240 C   0  0  0  0  0  0  0  0  0  0  0  0
  184.3660  178.6800  142.5310 N   0  0  0  0  0  0  0  0  0  0  0  0
  185.1190  178.5800  143.6610 C   0  0  0  0  0  0  0  0  0  0  0  0
  189.0160  177.9090  138.5350 C   0  0  0  0  0  3  0  0  0  0  0  0
  190.5130  177.1330  140.8150 C   0  0  0  0  0  2  0  0  0  0  0  0
  192.0610  176.1950  136.9010 C   0  0  0  0  0  0  0  0  0  0  0  0
  192.5810  176.0180  135.7150 C   0  0  0  0  0  0  0  0  0  0  0  0
  190.6800  176.7730  136.9610 C   0  0  0  0  0  2  0  0  0  0  0  0
  193.0740  175.8490  134.5940 O   0  0  0  0  0  0  0  0  0  0  0  0
  190.2460  177.1150  138.3590 C   0  0  0  0  0  0  0  0  0  0  0  0
  194.3320  175.1520  138.1040 S   0  0  0  0  0  1  0  0  0  0  0  0
  192.1020  175.9350  139.3010 O   0  0  0  0  0  0  0  0  0  0  0  0
  190.9370  176.6980  139.4380 C   0  0  0  0  0  0  0  0  0  0  0  0
  192.5220  175.3580  138.0650 C   0  0  1  0  0  3  0  0  0  0  0  0
  188.9780  177.2360  140.9200 C   0  0  2  0  0  3  0  0  0  0  0  0
  188.4400  178.0110  139.7360 C   0  0  0  0  0  3  0  0  0  0  0  0
  180.9230  178.9980  143.9070 N   0  0  0  0  0  2  0  0  0  0  0  0
  179.5850  180.5020  142.6440 C   0  0  0  0  0  2  0  0  0  0  0  0
  179.9860  179.2570  142.8520 C   0  0  0  0  0  0  0  0  0  0  0  0
  179.3790  178.1720  142.0290 C   0  0  0  0  0  1  0  0  0  0  0  0
  1  5  1  6  0  0  0
  1 17  1  0  0  0  0
  1 11  1  0  0  0  0
  6  4  1  6  0  0  0
  6 11  1  0  0  0  0
  6  8  1  0  0  0  0
  7 12  1  0  0  0  0
  8  7  1  0  0  0  0
  9  5  1  6  0  0  0
  9  4  1  0  0  0  0
 10  3  1  0  0  0  0
 10 12  2  0  0  0  0
 11 10  1  1  0  0  0
 13 31  1  0  0  0  0
 13  2  2  0  0  0  0
 14 13  1  0  0  0  0
 15  2  1  0  0  0  0
 15  3  1  0  0  0  0
 16 14  2  0  0  0  0
 16 17  1  0  0  0  0
 17 15  2  0  0  0  0
 18 30  2  0  0  0  0
 19 29  1  0  0  0  0
 20 22  1  0  0  0  0
 20 28  1  0  0  0  0
 21 20  2  0  0  0  0
 22 24  1  0  0  0  0
 23 21  2  0  0  0  0
 24 18  1  0  0  0  0
 24 27  2  0  0  0  0
 26 27  1  0  0  0  0
 27 19  1  0  0  0  0
 28 25  1  1  0  0  0
 28 26  1  0  0  0  0
 29 30  1  6  0  0  0
 29  9  1  0  0  0  0
 32 33  2  0  0  0  0
 33 31  1  0  0  0  0
 34 33  1  0  0  0  0
M  END
>  <MODEL>
1

>  <REMARK>
 VINA RESULT:     -10.3      0.000      0.000
  Name = 
  3 active torsions:
  status: ('A' for Active; 'I' for Inactive)
    1  A    between atoms: C_13  and  N_25
    2  A    between atoms: N_18  and  C_30
    3  A    between atoms: C_23  and  N_25
                            x       y       z     vdW  Elec       q    Type
                         _______ _______ _______ _____ _____    ______ ____

>  <TORSDO>
F 3

$$$$
=
 OpenBabel11052415553D

 34 39  0  0  1  0  0  0  0  0999 V2000
  183.3340  179.0450  141.4500 C   0  0  2  0  0  3  0  0  0  0  0  0
  182.6530  177.6390  137.9830 C   0  0  0  0  0  3  0  0  0  0  0  0
  181.0130  178.1500  139.7940 C   0  0  0  0  0  2  0  0  0  0  0  0
  183.2100  178.7650  144.3180 C   0  0  0  0  0  2  0  0  0  0  0  0
  184.5580  178.8490  142.3530 C   0  0  0  0  0  2  0  0  0  0  0  0
  181.9360  178.9730  143.5080 C   0  0  2  0  0  3  0  0  0  0  0  0
  179.4870  178.6590  143.3250 C   0  0  0  0  0  2  0  0  0  0  0  0
  180.7290  178.3100  144.1490 C   0  0  0  0  0  2  0  0  0  0  0  0
  184.3280  179.4690  143.6700 N   0  0  2  0  0  0  0  0  0  0  0  0
  180.9090  178.3980  141.2740 C   0  0  0  0  0  0  0  0  0  0  0  0
  182.1520  178.3620  142.1280 C   0  0  1  0  0  3  0  0  0  0  0  0
  179.6910  178.4400  141.8420 C   0  0  0  0  0  3  0  0  0  0  0  0
  183.9440  177.5880  137.4580 C   0  0  0  0  0  0  0  0  0  0  0  0
  185.0100  178.0190  138.2550 C   0  0  0  0  0  3  0  0  0  0  0  0
  182.4320  178.0890  139.2860 C   0  0  0  0  0  0  0  0  0  0  0  0
  184.7880  178.4600  139.5210 N   0  0  0  0  0  0  0  0  0  0  0  0
  183.5400  178.4900  140.0660 C   0  0  0  0  0  0  0  0  0  0  0  0
  186.1130  178.1480  146.6110 C   0  0  0  0  0  3  0  0  0  0  0  0
  186.5450  178.3450  143.8140 C   0  0  0  0  0  2  0  0  0  0  0  0
  189.7690  176.9530  146.3180 C   0  0  0  0  0  0  0  0  0  0  0  0
  190.7010  176.4230  147.0640 C   0  0  0  0  0  0  0  0  0  0  0  0
  188.5400  177.4540  147.0150 C   0  0  0  0  0  2  0  0  0  0  0  0
  191.5850  175.9210  147.7690 O   0  0  0  0  0  0  0  0  0  0  0  0
  187.4530  177.8680  146.0630 C   0  0  0  0  0  0  0  0  0  0  0  0
  191.2970  176.5470  144.0390 S   0  0  0  0  0  1  0  0  0  0  0  0
  188.9460  177.7590  144.1960 O   0  0  0  0  0  0  0  0  0  0  0  0
  187.6820  178.0080  144.7420 C   0  0  0  0  0  0  0  0  0  0  0  0
  190.1180  177.5650  144.9860 C   0  0  1  0  0  3  0  0  0  0  0  0
  185.5360  179.2950  144.4910 C   0  0  2  0  0  3  0  0  0  0  0  0
  185.1930  178.7730  145.8700 C   0  0  0  0  0  3  0  0  0  0  0  0
  184.1260  177.1260  136.1110 N   0  0  0  0  0  2  0  0  0  0  0  0
  185.7400  175.4450  135.6460 C   0  0  0  0  0  2  0  0  0  0  0  0
  185.3420  176.6970  135.4820 C   0  0  0  0  0  0  0  0  0  0  0  0
  186.2220  177.6240  134.7170 C   0  0  0  0  0  1  0  0  0  0  0  0
  1 11  1  0  0  0  0
  1  5  1  1  0  0  0
  2 15  1  0  0  0  0
  3 10  1  0  0  0  0
  6  8  1  1  0  0  0
  6  4  1  0  0  0  0
  7  8  1  0  0  0  0
  9  5  1  6  0  0  0
  9  4  1  0  0  0  0
  9 29  1  0  0  0  0
 10 12  2  0  0  0  0
 11 10  1  6  0  0  0
 11  6  1  0  0  0  0
 12  7  1  0  0  0  0
 13  2  2  0  0  0  0
 13 14  1  0  0  0  0
 14 16  2  0  0  0  0
 15  3  1  0  0  0  0
 15 17  2  0  0  0  0
 16 17  1  0  0  0  0
 17  1  1  0  0  0  0
 19 27  1  0  0  0  0
 20 22  1  0  0  0  0
 20 21  2  0  0  0  0
 21 23  2  0  0  0  0
 24 18  1  0  0  0  0
 24 22  1  0  0  0  0
 26 27  1  0  0  0  0
 26 28  1  0  0  0  0
 27 24  2  0  0  0  0
 28 25  1  6  0  0  0
 28 20  1  0  0  0  0
 29 19  1  6  0  0  0
 29 30  1  0  0  0  0
 30 18  2  0  0  0  0
 31 13  1  0  0  0  0
 33 32  2  0  0  0  0
 33 31  1  0  0  0  0
 34 33  1  0  0  0  0
M  END
>  <MODEL>
2

>  <REMARK>
 VINA RESULT:      -9.8      3.983      7.756
  Name = 
  3 active torsions:
  status: ('A' for Active; 'I' for Inactive)
    1  A    between atoms: C_13  and  N_25
    2  A    between atoms: N_18  and  C_30
    3  A    between atoms: C_23  and  N_25
                            x       y       z     vdW  Elec       q    Type
                         _______ _______ _______ _____ _____    ______ ____

>  <TORSDO>
F 3

$$$$
=
 OpenBabel11052415553D

 34 39  0  0  1  0  0  0  0  0999 V2000
  186.6460  178.7140  142.0310 C   0  0  2  0  0  3  0  0  0  0  0  0
  182.8760  178.6750  142.5340 C   0  0  0  0  0  3  0  0  0  0  0  0
  184.6680  178.4120  144.2520 C   0  0  0  0  0  2  0  0  0  0  0  0
  189.1970  177.3830  142.2250 C   0  0  0  0  0  2  0  0  0  0  0  0
  187.4680  178.2440  140.8260 C   0  0  0  0  0  2  0  0  0  0  0  0
  188.4610  177.8290  143.4830 C   0  0  2  0  0  3  0  0  0  0  0  0
  188.0600  177.5120  145.9060 C   0  0  0  0  0  2  0  0  0  0  0  0
  188.7540  176.9290  144.6720 C   0  0  0  0  0  2  0  0  0  0  0  0
  188.9090  178.3200  141.1270 N   0  0  2  0  0  0  0  0  0  0  0  0
  186.1280  178.0880  144.4120 C   0  0  0  0  0  0  0  0  0  0  0  0
  186.9660  177.7840  143.1940 C   0  0  1  0  0  3  0  0  0  0  0  0
  186.6130  177.8690  145.6470 C   0  0  0  0  0  3  0  0  0  0  0  0
  182.4310  178.8730  141.2270 C   0  0  0  0  0  0  0  0  0  0  0  0
  183.3800  179.0170  140.2090 C   0  0  0  0  0  3  0  0  0  0  0  0
  184.2410  178.5990  142.8170 C   0  0  0  0  0  0  0  0  0  0  0  0
  184.7080  178.9460  140.4920 N   0  0  0  0  0  0  0  0  0  0  0  0
  185.1660  178.7230  141.7550 C   0  0  0  0  0  0  0  0  0  0  0  0
  191.7920  176.7120  139.4890 C   0  0  0  0  0  3  0  0  0  0  0  0
  188.9690  176.7250  139.2160 C   0  0  0  0  0  2  0  0  0  0  0  0
  191.3330  174.7100  136.2250 C   0  0  0  0  0  0  0  0  0  0  0  0
  192.0440  174.0030  135.3870 C   0  0  0  0  0  0  0  0  0  0  0  0
  192.0790  175.4960  137.2590 C   0  0  0  0  0  2  0  0  0  0  0  0
  192.7160  173.3330  134.5940 O   0  0  0  0  0  0  0  0  0  0  0  0
  191.1770  176.1190  138.2870 C   0  0  0  0  0  0  0  0  0  0  0  0
  188.9860  173.9010  134.9860 S   0  0  0  0  0  1  0  0  0  0  0  0
  189.2310  175.6200  136.9880 O   0  0  0  0  0  0  0  0  0  0  0  0
  189.8400  176.1660  138.1230 C   0  0  0  0  0  0  0  0  0  0  0  0
  189.9570  175.1870  135.8390 C   0  0  1  0  0  3  0  0  0  0  0  0
  189.6630  177.8990  139.9360 C   0  0  2  0  0  3  0  0  0  0  0  0
  191.0810  177.5080  140.2930 C   0  0  0  0  0  3  0  0  0  0  0  0
  181.0190  178.9520  140.9810 N   0  0  0  0  0  2  0  0  0  0  0  0
  179.4790  180.3940  142.0750 C   0  0  0  0  0  2  0  0  0  0  0  0
  180.1860  180.1200  140.9900 C   0  0  0  0  0  0  0  0  0  0  0  0
  180.0190  180.9980  139.7970 C   0  0  0  0  0  1  0  0  0  0  0  0
  1  5  1  6  0  0  0
  1 11  1  0  0  0  0
  2 15  1  0  0  0  0
  3 10  1  0  0  0  0
  6  4  1  6  0  0  0
  6  8  1  0  0  0  0
  8  7  1  0  0  0  0
  9  5  1  6  0  0  0
  9  4  1  0  0  0  0
 10 12  2  0  0  0  0
 11  6  1  0  0  0  0
 11 10  1  1  0  0  0
 12  7  1  0  0  0  0
 13  2  2  0  0  0  0
 14 16  2  0  0  0  0
 14 13  1  0  0  0  0
 15  3  1  0  0  0  0
 16 17  1  0  0  0  0
 17  1  1  0  0  0  0
 17 15  2  0  0  0  0
 18 30  2  0  0  0  0
 20 22  1  0  0  0  0
 21 20  2  0  0  0  0
 22 24  1  0  0  0  0
 23 21  2  0  0  0  0
 24 18  1  0  0  0  0
 26 27  1  0  0  0  0
 27 24  2  0  0  0  0
 27 19  1  0  0  0  0
 28 25  1  1  0  0  0
 28 20  1  0  0  0  0
 28 26  1  0  0  0  0
 29 19  1  1  0  0  0
 29 30  1  0  0  0  0
 29  9  1  0  0  0  0
 31 33  1  0  0  0  0
 31 13  1  0  0  0  0
 33 32  2  0  0  0  0
 34 33  1  0  0  0  0
M  END
>  <MODEL>
3

>  <REMARK>
 VINA RESULT:      -9.6      1.960      2.398
  Name = 
  3 active torsions:
  status: ('A' for Active; 'I' for Inactive)
    1  A    between atoms: C_13  and  N_25
    2  A    between atoms: N_18  and  C_30
    3  A    between atoms: C_23  and  N_25
                            x       y       z     vdW  Elec       q    Type
                         _______ _______ _______ _____ _____    ______ ____

>  <TORSDO>
F 3

$$$$
=
 OpenBabel11052415553D

 34 39  0  0  1  0  0  0  0  0999 V2000
  186.2190  178.9270  143.3550 C   0  0  2  0  0  3  0  0  0  0  0  0
  182.4710  178.6180  143.9260 C   0  0  0  0  0  3  0  0  0  0  0  0
  184.3090  178.4770  145.6090 C   0  0  0  0  0  2  0  0  0  0  0  0
  188.8610  177.7780  143.4950 C   0  0  0  0  0  2  0  0  0  0  0  0
  187.0500  178.5210  142.1320 C   0  0  0  0  0  2  0  0  0  0  0  0
  188.1190  178.1660  144.7690 C   0  0  2  0  0  3  0  0  0  0  0  0
  187.7860  177.8130  147.1960 C   0  0  0  0  0  2  0  0  0  0  0  0
  188.4970  177.2850  145.9480 C   0  0  0  0  0  2  0  0  0  0  0  0
  188.4870  178.6970  142.4070 N   0  0  2  0  0  0  0  0  0  0  0  0
  185.7910  178.2560  145.7410 C   0  0  0  0  0  0  0  0  0  0  0  0
  186.6250  178.0160  144.5070 C   0  0  1  0  0  3  0  0  0  0  0  0
  186.3130  178.0670  146.9660 C   0  0  0  0  0  3  0  0  0  0  0  0
  181.9890  178.7890  142.6280 C   0  0  0  0  0  0  0  0  0  0  0  0
  182.9070  179.0040  141.5930 C   0  0  0  0  0  3  0  0  0  0  0  0
  183.8430  178.6380  144.1830 C   0  0  0  0  0  0  0  0  0  0  0  0
  184.2410  179.0270  141.8520 N   0  0  0  0  0  0  0  0  0  0  0  0
  184.7370  178.8320  143.1050 C   0  0  0  0  0  0  0  0  0  0  0  0
  190.5520  176.3770  140.4250 C   0  0  0  0  0  3  0  0  0  0  0  0
  188.3110  178.0630  140.0060 C   0  0  0  0  0  2  0  0  0  0  0  0
  190.1400  176.1590  136.5960 C   0  0  0  0  0  0  0  0  0  0  0  0
  190.6230  175.4900  135.5830 C   0  0  0  0  0  0  0  0  0  0  0  0
  190.8400  176.0060  137.9120 C   0  0  0  0  0  2  0  0  0  0  0  0
  191.0800  174.8570  134.6240 O   0  0  0  0  0  0  0  0  0  0  0  0
  190.1040  176.6580  139.0480 C   0  0  0  0  0  0  0  0  0  0  0  0
  188.1680  177.2620  134.9860 S   0  0  0  0  0  1  0  0  0  0  0  0
  188.6310  177.7900  137.5410 O   0  0  0  0  0  0  0  0  0  0  0  0
  189.0720  177.4980  138.8370 C   0  0  0  0  0  0  0  0  0  0  0  0
  189.3500  177.4210  136.3650 C   0  0  1  0  0  3  0  0  0  0  0  0
  189.2470  178.3350  141.2010 C   0  0  2  0  0  3  0  0  0  0  0  0
  190.1230  177.1250  141.4450 C   0  0  0  0  0  3  0  0  0  0  0  0
  180.5710  178.7690  142.4080 N   0  0  0  0  0  2  0  0  0  0  0  0
  179.1800  180.6940  142.3380 C   0  0  0  0  0  2  0  0  0  0  0  0
  179.5750  179.6160  142.9980 C   0  0  0  0  0  0  0  0  0  0  0  0
  179.0230  179.3800  144.3620 C   0  0  0  0  0  1  0  0  0  0  0  0
  1  5  1  6  0  0  0
  1 11  1  0  0  0  0
  2 15  1  0  0  0  0
  3 10  1  0  0  0  0
  6  4  1  6  0  0  0
  6  8  1  0  0  0  0
  8  7  1  0  0  0  0
  9  5  1  6  0  0  0
  9  4  1  0  0  0  0
 10 12  2  0  0  0  0
 11  6  1  0  0  0  0
 11 10  1  1  0  0  0
 12  7  1  0  0  0  0
 13  2  2  0  0  0  0
 14 16  2  0  0  0  0
 14 13  1  0  0  0  0
 15  3  1  0  0  0  0
 16 17  1  0  0  0  0
 17  1  1  0  0  0  0
 17 15  2  0  0  0  0
 18 30  2  0  0  0  0
 20 22  1  0  0  0  0
 21 20  2  0  0  0  0
 22 24  1  0  0  0  0
 23 21  2  0  0  0  0
 24 18  1  0  0  0  0
 26 27  1  0  0  0  0
 27 24  2  0  0  0  0
 27 19  1  0  0  0  0
 28 25  1  6  0  0  0
 28 20  1  0  0  0  0
 28 26  1  0  0  0  0
 29 19  1  6  0  0  0
 29 30  1  0  0  0  0
 29  9  1  0  0  0  0
 31 13  1  0  0  0  0
 31 33  1  0  0  0  0
 32 33  2  0  0  0  0
 33 34  1  0  0  0  0
M  END
>  <MODEL>
4

>  <REMARK>
 VINA RESULT:      -9.5      1.778      2.137
  Name = 
  3 active torsions:
  status: ('A' for Active; 'I' for Inactive)
    1  A    between atoms: C_13  and  N_25
    2  A    between atoms: N_18  and  C_30
    3  A    between atoms: C_23  and  N_25
                            x       y       z     vdW  Elec       q    Type
                         _______ _______ _______ _____ _____    ______ ____

>  <TORSDO>
F 3

$$$$
=
 OpenBabel11052415553D

 34 39  0  0  1  0  0  0  0  0999 V2000
  189.7890  177.5530  137.8490 C   0  0  2  0  0  3  0  0  0  0  0  0
  192.2480  175.3550  135.9550 C   0  0  0  0  0  3  0  0  0  0  0  0
  189.9520  176.0550  135.2690 C   0  0  0  0  0  2  0  0  0  0  0  0
  187.2240  177.8930  139.1220 C   0  0  0  0  0  2  0  0  0  0  0  0
  189.5880  177.7030  139.3620 C   0  0  0  0  0  2  0  0  0  0  0  0
  187.3230  177.7700  137.6060 C   0  0  2  0  0  3  0  0  0  0  0  0
  186.2340  177.1410  135.4740 C   0  0  0  0  0  2  0  0  0  0  0  0
  186.0880  177.1270  136.9970 C   0  0  0  0  0  2  0  0  0  0  0  0
  188.4260  178.5640  139.6430 N   0  0  2  0  0  0  0  0  0  0  0  0
  188.6620  176.6060  135.8100 C   0  0  0  0  0  0  0  0  0  0  0  0
  188.5330  176.9020  137.2840 C   0  0  1  0  0  3  0  0  0  0  0  0
  187.5800  176.6290  135.0110 C   0  0  0  0  0  3  0  0  0  0  0  0
  193.3280  175.3410  136.8380 C   0  0  0  0  0  0  0  0  0  0  0  0
  193.2250  176.0570  138.0360 C   0  0  0  0  0  3  0  0  0  0  0  0
  191.0790  176.0500  136.2720 C   0  0  0  0  0  0  0  0  0  0  0  0
  192.0850  176.7350  138.3360 N   0  0  0  0  0  0  0  0  0  0  0  0
  191.0070  176.7380  137.5040 C   0  0  0  0  0  0  0  0  0  0  0  0
  186.6270  178.0740  142.8210 C   0  0  0  0  0  3  0  0  0  0  0  0
  189.2800  177.8040  141.8540 C   0  0  0  0  0  2  0  0  0  0  0  0
  188.5580  177.3640  146.0830 C   0  0  0  0  0  0  0  0  0  0  0  0
  188.3180  177.1160  147.3430 C   0  0  0  0  0  0  0  0  0  0  0  0
  187.4000  177.8100  145.2430 C   0  0  0  0  0  2  0  0  0  0  0  0
  188.0920  176.8820  148.5360 O   0  0  0  0  0  0  0  0  0  0  0  0
  187.7320  177.8860  143.7790 C   0  0  0  0  0  0  0  0  0  0  0  0
  191.2420  176.7560  146.4270 S   0  0  0  0  0  1  0  0  0  0  0  0
  190.0700  177.6380  144.2210 O   0  0  0  0  0  0  0  0  0  0  0  0
  189.0010  177.8070  143.3340 C   0  0  0  0  0  0  0  0  0  0  0  0
  189.9420  177.7590  145.6370 C   0  0  1  0  0  3  0  0  0  0  0  0
  188.2910  178.7150  141.0990 C   0  0  2  0  0  3  0  0  0  0  0  0
  186.8780  178.4170  141.5540 C   0  0  0  0  0  3  0  0  0  0  0  0
  194.5130  174.6200  136.4700 N   0  0  0  0  0  2  0  0  0  0  0  0
  196.7720  174.5020  137.1980 C   0  0  0  0  0  2  0  0  0  0  0  0
  195.5230  174.0830  137.3360 C   0  0  0  0  0  0  0  0  0  0  0  0
  195.2430  173.0100  138.3310 C   0  0  0  0  0  1  0  0  0  0  0  0
  1  5  1  1  0  0  0
  2 15  2  0  0  0  0
  2 13  1  0  0  0  0
  3 10  1  0  0  0  0
  3 15  1  0  0  0  0
  5  9  1  0  0  0  0
  6  8  1  1  0  0  0
  6  4  1  0  0  0  0
  7  8  1  0  0  0  0
  9  4  1  1  0  0  0
  9 29  1  0  0  0  0
 11 10  1  6  0  0  0
 11  6  1  0  0  0  0
 11  1  1  0  0  0  0
 12  7  1  0  0  0  0
 12 10  2  0  0  0  0
 13 14  2  0  0  0  0
 14 16  1  0  0  0  0
 15 17  1  0  0  0  0
 17  1  1  0  0  0  0
 17 16  2  0  0  0  0
 18 24  1  0  0  0  0
 19 27  1  0  0  0  0
 20 21  2  0  0  0  0
 21 23  2  0  0  0  0
 22 20  1  0  0  0  0
 24 22  1  0  0  0  0
 26 28  1  0  0  0  0
 27 24  2  0  0  0  0
 27 26  1  0  0  0  0
 28 20  1  0  0  0  0
 28 25  1  1  0  0  0
 29 30  1  1  0  0  0
 29 19  1  0  0  0  0
 30 18  2  0  0  0  0
 31 13  1  0  0  0  0
 31 33  1  0  0  0  0
 32 33  2  0  0  0  0
 33 34  1  0  0  0  0
M  END
>  <MODEL>
5

>  <REMARK>
 VINA RESULT:      -9.5      4.096     10.358
  Name = 
  3 active torsions:
  status: ('A' for Active; 'I' for Inactive)
    1  A    between atoms: C_13  and  N_25
    2  A    between atoms: N_18  and  C_30
    3  A    between atoms: C_23  and  N_25
                            x       y       z     vdW  Elec       q    Type
                         _______ _______ _______ _____ _____    ______ ____

>  <TORSDO>
F 3

$$$$
=
 OpenBabel11052415553D

 34 39  0  0  1  0  0  0  0  0999 V2000
  182.6220  178.6500  141.3810 C   0  0  2  0  0  3  0  0  0  0  0  0
  181.5390  176.6630  138.3250 C   0  0  0  0  0  3  0  0  0  0  0  0
  180.1050  177.6710  140.1020 C   0  0  0  0  0  2  0  0  0  0  0  0
  182.7210  178.9500  144.2480 C   0  0  0  0  0  2  0  0  0  0  0  0
  183.8990  178.5210  142.2200 C   0  0  0  0  0  2  0  0  0  0  0  0
  181.4030  179.1140  143.5000 C   0  0  2  0  0  3  0  0  0  0  0  0
  178.9310  179.0020  143.5520 C   0  0  0  0  0  2  0  0  0  0  0  0
  180.2070  178.7060  144.3430 C   0  0  0  0  0  2  0  0  0  0  0  0
  183.8320  179.4060  143.3970 N   0  0  2  0  0  0  0  0  0  0  0  0
  180.1480  178.2130  141.5040 C   0  0  0  0  0  0  0  0  0  0  0  0
  181.4520  178.2270  142.2620 C   0  0  1  0  0  3  0  0  0  0  0  0
  178.9890  178.4790  142.1330 C   0  0  0  0  0  3  0  0  0  0  0  0
  182.7730  176.3900  137.7340 C   0  0  0  0  0  0  0  0  0  0  0  0
  183.9340  176.8660  138.3530 C   0  0  0  0  0  3  0  0  0  0  0  0
  181.4670  177.3790  139.5220 C   0  0  0  0  0  0  0  0  0  0  0  0
  183.8550  177.5660  139.5160 N   0  0  0  0  0  0  0  0  0  0  0  0
  182.6650  177.8190  140.1270 C   0  0  0  0  0  0  0  0  0  0  0  0
  185.7840  178.3270  146.3290 C   0  0  0  0  0  3  0  0  0  0  0  0
  186.0350  178.2520  143.5060 C   0  0  0  0  0  2  0  0  0  0  0  0
  189.3940  177.0320  145.9200 C   0  0  0  0  0  0  0  0  0  0  0  0
  190.3650  176.5530  146.6520 C   0  0  0  0  0  0  0  0  0  0  0  0
  188.2210  177.6220  146.6420 C   0  0  0  0  0  2  0  0  0  0  0  0
  191.2840  176.1000  147.3440 O   0  0  0  0  0  0  0  0  0  0  0  0
  187.0810  177.9690  145.7270 C   0  0  0  0  0  0  0  0  0  0  0  0
  190.7630  176.3810  143.5970 S   0  0  0  0  0  1  0  0  0  0  0  0
  188.4470  177.6530  143.7870 O   0  0  0  0  0  0  0  0  0  0  0  0
  187.2250  177.9790  144.3870 C   0  0  0  0  0  0  0  0  0  0  0  0
  189.6640  177.5080  144.5170 C   0  0  1  0  0  3  0  0  0  0  0  0
  185.0880  179.2830  144.1520 C   0  0  2  0  0  3  0  0  0  0  0  0
  184.8280  178.9000  145.5930 C   0  0  0  0  0  3  0  0  0  0  0  0
  182.8030  175.6580  136.5000 N   0  0  0  0  0  2  0  0  0  0  0  0
  181.8570  173.6830  135.5770 C   0  0  0  0  0  2  0  0  0  0  0  0
  182.8050  174.2350  136.3180 C   0  0  0  0  0  0  0  0  0  0  0  0
  183.7850  173.3380  136.9950 C   0  0  0  0  0  1  0  0  0  0  0  0
  1  5  1  1  0  0  0
  1 11  1  0  0  0  0
  2 15  1  0  0  0  0
  3 10  1  0  0  0  0
  6  4  1  1  0  0  0
  6  8  1  0  0  0  0
  7  8  1  0  0  0  0
  9  5  1  6  0  0  0
  9 29  1  0  0  0  0
  9  4  1  0  0  0  0
 10 12  2  0  0  0  0
 11 10  1  6  0  0  0
 11  6  1  0  0  0  0
 12  7  1  0  0  0  0
 13  2  2  0  0  0  0
 13 14  1  0  0  0  0
 14 16  2  0  0  0  0
 15  3  1  0  0  0  0
 15 17  2  0  0  0  0
 16 17  1  0  0  0  0
 17  1  1  0  0  0  0
 19 27  1  0  0  0  0
 20 22  1  0  0  0  0
 20 21  2  0  0  0  0
 21 23  2  0  0  0  0
 24 18  1  0  0  0  0
 24 22  1  0  0  0  0
 26 27  1  0  0  0  0
 26 28  1  0  0  0  0
 27 24  2  0  0  0  0
 28 25  1  6  0  0  0
 28 20  1  0  0  0  0
 29 19  1  6  0  0  0
 29 30  1  0  0  0  0
 30 18  2  0  0  0  0
 31 13  1  0  0  0  0
 32 33  2  0  0  0  0
 33 31  1  0  0  0  0
 33 34  1  0  0  0  0
M  END
>  <MODEL>
6

>  <REMARK>
 VINA RESULT:      -9.5      4.324      7.720
  Name = 
  3 active torsions:
  status: ('A' for Active; 'I' for Inactive)
    1  A    between atoms: C_13  and  N_25
    2  A    between atoms: N_18  and  C_30
    3  A    between atoms: C_23  and  N_25
                            x       y       z     vdW  Elec       q    Type
                         _______ _______ _______ _____ _____    ______ ____

>  <TORSDO>
F 3

$$$$
=
 OpenBabel11052415553D

 34 39  0  0  1  0  0  0  0  0999 V2000
  185.0120  178.5780  138.8760 C   0  0  2  0  0  3  0  0  0  0  0  0
  186.7270  177.1480  135.7970 C   0  0  0  0  0  3  0  0  0  0  0  0
  184.2980  177.1160  136.3690 C   0  0  0  0  0  2  0  0  0  0  0  0
  183.4120  178.1830  141.2420 C   0  0  0  0  0  2  0  0  0  0  0  0
  185.5420  178.7080  140.3090 C   0  0  0  0  0  2  0  0  0  0  0  0
  182.7890  178.0480  139.8580 C   0  0  2  0  0  3  0  0  0  0  0  0
  181.0170  177.0600  138.4390 C   0  0  0  0  0  2  0  0  0  0  0  0
  181.6430  177.0500  139.8360 C   0  0  0  0  0  2  0  0  0  0  0  0
  184.4800  179.1950  141.2060 N   0  0  2  0  0  0  0  0  0  0  0  0
  183.3410  177.2780  137.5180 C   0  0  0  0  0  0  0  0  0  0  0  0
  183.8720  177.5670  138.9000 C   0  0  1  0  0  3  0  0  0  0  0  0
  182.0480  176.9540  137.3370 C   0  0  0  0  0  3  0  0  0  0  0  0
  188.0570  177.4820  136.0540 C   0  0  0  0  0  0  0  0  0  0  0  0
  188.3610  178.1720  137.2330 C   0  0  0  0  0  3  0  0  0  0  0  0
  185.7230  177.4760  136.7100 C   0  0  0  0  0  0  0  0  0  0  0  0
  187.3770  178.4910  138.1150 N   0  0  0  0  0  0  0  0  0  0  0  0
  186.0760  178.1490  137.9000 C   0  0  0  0  0  0  0  0  0  0  0  0
  184.2490  178.9480  144.8760 C   0  0  0  0  0  3  0  0  0  0  0  0
  186.1130  178.2780  142.8460 C   0  0  0  0  0  2  0  0  0  0  0  0
  187.3110  177.8950  146.9710 C   0  0  0  0  0  0  0  0  0  0  0  0
  187.6290  177.6690  148.2180 C   0  0  0  0  0  0  0  0  0  0  0  0
  185.9790  178.5300  146.7100 C   0  0  0  0  0  2  0  0  0  0  0  0
  187.9310  177.4550  149.3980 O   0  0  0  0  0  0  0  0  0  0  0  0
  185.6250  178.5740  145.2500 C   0  0  0  0  0  0  0  0  0  0  0  0
  189.7420  176.8660  146.1180 S   0  0  0  0  0  1  0  0  0  0  0  0
  187.8480  177.9540  144.6180 O   0  0  0  0  0  0  0  0  0  0  0  0
  186.5320  178.3030  144.2910 C   0  0  0  0  0  0  0  0  0  0  0  0
  188.3880  178.0730  145.9330 C   0  0  1  0  0  3  0  0  0  0  0  0
  185.0370  179.3440  142.5590 C   0  0  2  0  0  3  0  0  0  0  0  0
  183.9520  179.2650  143.6120 C   0  0  0  0  0  3  0  0  0  0  0  0
  189.0570  177.1340  135.0850 N   0  0  0  0  0  2  0  0  0  0  0  0
  189.5720  174.8670  134.5940 C   0  0  0  0  0  2  0  0  0  0  0  0
  189.9620  176.0200  135.1130 C   0  0  0  0  0  0  0  0  0  0  0  0
  191.2950  176.0830  135.7760 C   0  0  0  0  0  1  0  0  0  0  0  0
  1 11  1  0  0  0  0
  1  5  1  1  0  0  0
  2 13  2  0  0  0  0
  2 15  1  0  0  0  0
  3 15  1  0  0  0  0
  3 10  1  0  0  0  0
  6  8  1  1  0  0  0
  6  4  1  0  0  0  0
  7  8  1  0  0  0  0
  9  5  1  6  0  0  0
  9  4  1  0  0  0  0
  9 29  1  0  0  0  0
 11 10  1  6  0  0  0
 11  6  1  0  0  0  0
 12 10  2  0  0  0  0
 12  7  1  0  0  0  0
 13 14  1  0  0  0  0
 14 16  2  0  0  0  0
 15 17  2  0  0  0  0
 17 16  1  0  0  0  0
 17  1  1  0  0  0  0
 18 24  1  0  0  0  0
 19 27  1  0  0  0  0
 20 21  2  0  0  0  0
 21 23  2  0  0  0  0
 22 20  1  0  0  0  0
 24 22  1  0  0  0  0
 26 28  1  0  0  0  0
 27 26  1  0  0  0  0
 27 24  2  0  0  0  0
 28 25  1  1  0  0  0
 28 20  1  0  0  0  0
 29 19  1  1  0  0  0
 29 30  1  0  0  0  0
 30 18  2  0  0  0  0
 31 33  1  0  0  0  0
 31 13  1  0  0  0  0
 32 33  2  0  0  0  0
 33 34  1  0  0  0  0
M  END
>  <MODEL>
7

>  <REMARK>
 VINA RESULT:      -9.3      4.077      9.376
  Name = 
  3 active torsions:
  status: ('A' for Active; 'I' for Inactive)
    1  A    between atoms: C_13  and  N_25
    2  A    between atoms: N_18  and  C_30
    3  A    between atoms: C_23  and  N_25
                            x       y       z     vdW  Elec       q    Type
                         _______ _______ _______ _____ _____    ______ ____

>  <TORSDO>
F 3

$$$$
=
 OpenBabel11052415553D

 34 39  0  0  1  0  0  0  0  0999 V2000
  190.7870  177.0510  138.1020 C   0  0  2  0  0  3  0  0  0  0  0  0
  192.8260  175.2680  135.4320 C   0  0  0  0  0  3  0  0  0  0  0  0
  190.7140  176.5690  135.1530 C   0  0  0  0  0  2  0  0  0  0  0  0
  188.3080  177.3730  139.5390 C   0  0  0  0  0  2  0  0  0  0  0  0
  190.5900  176.6850  139.5780 C   0  0  0  0  0  2  0  0  0  0  0  0
  188.4090  177.7830  138.0740 C   0  0  2  0  0  3  0  0  0  0  0  0
  187.2610  178.1640  135.9150 C   0  0  0  0  0  2  0  0  0  0  0  0
  187.0870  177.6340  137.3400 C   0  0  0  0  0  2  0  0  0  0  0  0
  189.6040  177.5850  140.2020 N   0  0  2  0  0  0  0  0  0  0  0  0
  189.5400  177.1150  135.9180 C   0  0  0  0  0  0  0  0  0  0  0  0
  189.4420  176.8830  137.4060 C   0  0  1  0  0  3  0  0  0  0  0  0
  188.4960  177.6160  135.2340 C   0  0  0  0  0  3  0  0  0  0  0  0
  193.8680  174.7450  136.1980 C   0  0  0  0  0  0  0  0  0  0  0  0
  193.8790  174.9920  137.5750 C   0  0  0  0  0  3  0  0  0  0  0  0
  191.8020  176.0030  136.0320 C   0  0  0  0  0  0  0  0  0  0  0  0
  192.8810  175.7130  138.1520 N   0  0  0  0  0  0  0  0  0  0  0  0
  191.8370  176.2070  137.4300 C   0  0  0  0  0  0  0  0  0  0  0  0
  190.7850  177.5950  143.6930 C   0  0  0  0  0  3  0  0  0  0  0  0
  188.3510  178.0360  142.3060 C   0  0  0  0  0  2  0  0  0  0  0  0
  188.2820  177.8620  146.6140 C   0  0  0  0  0  0  0  0  0  0  0  0
  188.2840  177.9260  147.9190 C   0  0  0  0  0  0  0  0  0  0  0  0
  189.5790  177.5230  145.9450 C   0  0  0  0  0  2  0  0  0  0  0  0
  188.2850  177.9860  149.1550 O   0  0  0  0  0  0  0  0  0  0  0  0
  189.5210  177.6610  144.4500 C   0  0  0  0  0  0  0  0  0  0  0  0
  185.5720  178.4540  146.5450 S   0  0  0  0  0  1  0  0  0  0  0  0
  187.1390  177.8760  144.4870 O   0  0  0  0  0  0  0  0  0  0  0  0
  188.3540  177.8190  143.7950 C   0  0  0  0  0  0  0  0  0  0  0  0
  187.0080  177.5550  145.8710 C   0  0  1  0  0  3  0  0  0  0  0  0
  189.4730  177.2280  141.6230 C   0  0  2  0  0  3  0  0  0  0  0  0
  190.7750  177.4390  142.3660 C   0  0  0  0  0  3  0  0  0  0  0  0
  194.9050  174.0010  135.5400 N   0  0  0  0  0  2  0  0  0  0  0  0
  196.9080  172.9230  136.2240 C   0  0  0  0  0  2  0  0  0  0  0  0
  196.3140  174.0290  135.8050 C   0  0  0  0  0  0  0  0  0  0  0  0
  197.1270  175.2750  135.7070 C   0  0  0  0  0  1  0  0  0  0  0  0
  1  5  1  1  0  0  0
  2 15  2  0  0  0  0
  2 13  1  0  0  0  0
  3 10  1  0  0  0  0
  3 15  1  0  0  0  0
  5  9  1  0  0  0  0
  6  8  1  6  0  0  0
  6  4  1  0  0  0  0
  7  8  1  0  0  0  0
  9  4  1  6  0  0  0
  9 29  1  0  0  0  0
 11 10  1  6  0  0  0
 11  6  1  0  0  0  0
 11  1  1  0  0  0  0
 12  7  1  0  0  0  0
 12 10  2  0  0  0  0
 13 14  2  0  0  0  0
 14 16  1  0  0  0  0
 15 17  1  0  0  0  0
 17  1  1  0  0  0  0
 17 16  2  0  0  0  0
 18 24  1  0  0  0  0
 19 27  1  0  0  0  0
 20 21  2  0  0  0  0
 21 23  2  0  0  0  0
 22 20  1  0  0  0  0
 24 22  1  0  0  0  0
 26 28  1  0  0  0  0
 27 24  2  0  0  0  0
 27 26  1  0  0  0  0
 28 25  1  1  0  0  0
 28 20  1  0  0  0  0
 29 19  1  1  0  0  0
 29 30  1  0  0  0  0
 30 18  2  0  0  0  0
 31 33  1  0  0  0  0
 31 13  1  0  0  0  0
 33 32  2  0  0  0  0
 34 33  1  0  0  0  0
M  END
>  <MODEL>
8

>  <REMARK>
 VINA RESULT:      -9.2      4.868     11.020
  Name = 
  3 active torsions:
  status: ('A' for Active; 'I' for Inactive)
    1  A    between atoms: C_13  and  N_25
    2  A    between atoms: N_18  and  C_30
    3  A    between atoms: C_23  and  N_25
                            x       y       z     vdW  Elec       q    Type
                         _______ _______ _______ _____ _____    ______ ____

>  <TORSDO>
F 3

$$$$
=
 OpenBabel11052415553D

 34 39  0  0  1  0  0  0  0  0999 V2000
  189.1550  176.2380  137.9540 C   0  0  2  0  0  3  0  0  0  0  0  0
  187.0110  176.8080  134.8650 C   0  0  0  0  0  3  0  0  0  0  0  0
  189.4220  176.1710  134.9780 C   0  0  0  0  0  2  0  0  0  0  0  0
  191.4450  176.9430  139.5590 C   0  0  0  0  0  2  0  0  0  0  0  0
  189.0720  176.9100  139.3300 C   0  0  0  0  0  2  0  0  0  0  0  0
  191.6300  176.2600  138.2090 C   0  0  2  0  0  3  0  0  0  0  0  0
  193.0760  175.8510  136.2420 C   0  0  0  0  0  2  0  0  0  0  0  0
  192.9300  176.6610  137.5320 C   0  0  0  0  0  2  0  0  0  0  0  0
  190.1950  176.4770  140.1810 N   0  0  2  0  0  0  0  0  0  0  0  0
  190.6080  176.1520  135.9020 C   0  0  0  0  0  0  0  0  0  0  0  0
  190.4670  176.6710  137.3120 C   0  0  1  0  0  3  0  0  0  0  0  0
  191.8220  175.8700  135.3960 C   0  0  0  0  0  3  0  0  0  0  0  0
  185.7840  177.1260  135.4470 C   0  0  0  0  0  0  0  0  0  0  0  0
  185.6880  177.1440  136.8430 C   0  0  0  0  0  3  0  0  0  0  0  0
  188.1260  176.5360  135.6600 C   0  0  0  0  0  0  0  0  0  0  0  0
  186.7770  176.8730  137.6110 N   0  0  0  0  0  0  0  0  0  0  0  0
  187.9920  176.5910  137.0650 C   0  0  0  0  0  0  0  0  0  0  0  0
  188.1960  177.6680  143.0380 C   0  0  0  0  0  3  0  0  0  0  0  0
  190.5840  176.1950  142.6230 C   0  0  0  0  0  2  0  0  0  0  0  0
  189.5470  177.3770  146.6390 C   0  0  0  0  0  0  0  0  0  0  0  0
  189.1710  177.6360  147.8630 C   0  0  0  0  0  0  0  0  0  0  0  0
  188.6920  177.9170  145.5340 C   0  0  0  0  0  2  0  0  0  0  0  0
  188.8150  177.8790  149.0230 O   0  0  0  0  0  0  0  0  0  0  0  0
  189.0970  177.4110  144.1780 C   0  0  0  0  0  0  0  0  0  0  0  0
  191.7720  176.0020  147.5650 S   0  0  0  0  0  1  0  0  0  0  0  0
  191.1360  176.5070  145.0420 O   0  0  0  0  0  0  0  0  0  0  0  0
  190.2580  176.7560  143.9820 C   0  0  0  0  0  0  0  0  0  0  0  0
  190.9960  177.0990  146.3330 C   0  0  1  0  0  3  0  0  0  0  0  0
  190.0580  177.1110  141.5000 C   0  0  2  0  0  3  0  0  0  0  0  0
  188.6190  177.4870  141.7840 C   0  0  0  0  0  3  0  0  0  0  0  0
  184.6610  177.3910  134.5940 N   0  0  0  0  0  2  0  0  0  0  0  0
  183.0620  175.6350  134.6810 C   0  0  0  0  0  2  0  0  0  0  0  0
  183.3090  176.9340  134.7460 C   0  0  0  0  0  0  0  0  0  0  0  0
  182.1570  177.8670  134.8940 C   0  0  0  0  0  1  0  0  0  0  0  0
  1  5  1  1  0  0  0
  2 13  2  0  0  0  0
  2 15  1  0  0  0  0
  3 15  1  0  0  0  0
  3 10  1  0  0  0  0
  4  9  1  0  0  0  0
  6  8  1  6  0  0  0
  6  4  1  0  0  0  0
  7  8  1  0  0  0  0
  9  5  1  6  0  0  0
  9 29  1  0  0  0  0
 11 10  1  6  0  0  0
 11  1  1  0  0  0  0
 11  6  1  0  0  0  0
 12 10  2  0  0  0  0
 12  7  1  0  0  0  0
 13 14  1  0  0  0  0
 14 16  2  0  0  0  0
 15 17  2  0  0  0  0
 17 16  1  0  0  0  0
 17  1  1  0  0  0  0
 18 24  1  0  0  0  0
 19 27  1  0  0  0  0
 20 21  2  0  0  0  0
 21 23  2  0  0  0  0
 22 20  1  0  0  0  0
 24 22  1  0  0  0  0
 26 28  1  0  0  0  0
 27 24  2  0  0  0  0
 27 26  1  0  0  0  0
 28 20  1  0  0  0  0
 28 25  1  1  0  0  0
 29 30  1  1  0  0  0
 29 19  1  0  0  0  0
 30 18  2  0  0  0  0
 31 33  1  0  0  0  0
 31 13  1  0  0  0  0
 32 33  2  0  0  0  0
 33 34  1  0  0  0  0
M  END
>  <MODEL>
9

>  <REMARK>
 VINA RESULT:      -9.0      4.646      8.590
  Name = 
  3 active torsions:
  status: ('A' for Active; 'I' for Inactive)
    1  A    between atoms: C_13  and  N_25
    2  A    between atoms: N_18  and  C_30
    3  A    between atoms: C_23  and  N_25
                            x       y       z     vdW  Elec       q    Type
                         _______ _______ _______ _____ _____    ______ ____

>  <TORSDO>
F 3

$$$$
