=
 OpenBabel11052415283D

 37 36  0  0  1  0  0  0  0  0999 V2000
  189.9650  177.4540  144.5450 N   0  0  0  0  0  0  0  0  0  0  0  0
  190.5990  178.2600  143.4830 C   0  0  1  0  0  3  0  0  0  0  0  0
  192.3700  179.6040  144.3830 O   0  0  0  0  0  1  0  0  0  0  0  0
  191.0620  179.6610  143.9020 C   0  0  0  0  0  2  0  0  0  0  0  0
  191.7760  177.5020  142.8570 C   0  0  0  0  0  2  0  0  0  0  0  0
  191.6890  177.3610  141.3610 C   0  0  0  0  0  0  0  0  0  0  0  0
  192.5270  177.8740  140.6350 O   0  0  0  0  0  0  0  0  0  0  0  0
  190.5050  176.6710  140.7580 C   0  0  0  0  0  2  0  0  0  0  0  0
  190.3110  177.0450  139.2950 C   0  0  1  0  0  3  0  0  0  0  0  0
  190.7580  175.8800  138.4290 C   0  0  0  0  0  2  0  0  0  0  0  0
  191.9050  176.2320  137.7170 O   0  0  0  0  0  1  0  0  0  0  0  0
  188.9700  177.3410  139.0350 O   0  0  0  0  0  0  0  0  0  0  0  0
  188.9990  178.5990  138.4280 C   0  0  0  0  0  2  0  0  0  0  0  0
  188.7380  178.4610  136.9420 C   0  0  0  0  0  2  0  0  0  0  0  0
  186.3640  177.7700  137.0220 C   0  0  0  0  0  1  0  0  0  0  0  0
  187.3170  178.8880  136.6480 C   0  0  0  0  0  2  0  0  0  0  0  0
  190.9850  176.5230  145.0130 C   0  0  0  0  0  2  0  0  0  0  0  0
  190.2340  176.9400  147.2390 O   0  0  0  0  0  1  0  0  0  0  0  0
  191.3800  176.8390  146.4480 C   0  0  1  0  0  3  0  0  0  0  0  0
  191.6430  174.9940  147.9650 O   0  0  0  0  0  1  0  0  0  0  0  0
  192.3020  175.7650  147.0070 C   0  0  0  0  0  2  0  0  0  0  0  0
  188.8730  176.6210  144.0410 C   0  0  0  0  0  2  0  0  0  0  0  0
  187.6750  177.4940  143.6990 C   0  0  1  0  0  3  0  0  0  0  0  0
  187.3460  177.4700  142.2020 C   0  0  0  0  0  2  0  0  0  0  0  0
  186.8630  178.8100  141.6540 C   0  0  0  0  0  2  0  0  0  0  0  0
  185.3470  178.8620  141.6260 C   0  0  0  0  0  2  0  0  0  0  0  0
  184.8420  179.0530  140.2020 C   0  0  0  0  0  2  0  0  0  0  0  0
  183.7030  178.0930  139.8830 C   0  0  0  0  0  2  0  0  0  0  0  0
  182.3810  178.8410  139.8040 C   0  0  0  0  0  2  0  0  0  0  0  0
  181.2260  177.8580  139.8080 C   0  0  0  0  0  2  0  0  0  0  0  0
  180.4740  178.0040  140.9750 O   0  0  0  0  0  1  0  0  0  0  0  0
  186.4800  177.1300  144.5700 C   0  0  0  0  0  2  0  0  0  0  0  0
  186.5610  177.8130  145.9320 C   0  0  0  0  0  2  0  0  0  0  0  0
  185.6030  179.5800  147.2500 O   0  0  0  0  0  1  0  0  0  0  0  0
  185.3260  178.6600  146.2370 C   0  0  1  0  0  3  0  0  0  0  0  0
  184.8850  179.3270  145.0900 O   0  0  0  0  0  0  0  0  0  0  0  0
  183.5220  179.0440  145.0120 C   0  0  0  0  0  1  0  0  0  0  0  0
  1 17  1  0  0  0  0
  2  5  1  1  0  0  0
  2  4  1  0  0  0  0
  2  1  1  0  0  0  0
  4  3  1  0  0  0  0
  6  5  1  0  0  0  0
  7  6  2  0  0  0  0
  8  6  1  0  0  0  0
  9 10  1  6  0  0  0
  9  8  1  0  0  0  0
 11 10  1  0  0  0  0
 12  9  1  0  0  0  0
 13 12  1  0  0  0  0
 14 13  1  0  0  0  0
 16 14  1  0  0  0  0
 16 15  1  0  0  0  0
 17 19  1  0  0  0  0
 19 21  1  0  0  0  0
 19 18  1  1  0  0  0
 21 20  1  0  0  0  0
 22  1  1  0  0  0  0
 23 24  1  6  0  0  0
 23 22  1  0  0  0  0
 23 32  1  0  0  0  0
 25 24  1  0  0  0  0
 26 25  1  0  0  0  0
 27 26  1  0  0  0  0
 28 27  1  0  0  0  0
 29 30  1  0  0  0  0
 29 28  1  0  0  0  0
 30 31  1  0  0  0  0
 32 33  1  0  0  0  0
 33 35  1  0  0  0  0
 35 34  1  1  0  0  0
 36 35  1  0  0  0  0
 37 36  1  0  0  0  0
M  END
>  <MODEL>
1

>  <REMARK>
 VINA RESULT:      -5.4      0.000      0.000
  Name = 
  27 active torsions:
  status: ('A' for Active; 'I' for Inactive)
    1  A    between atoms: O_1  and  C_23
    2  A    between atoms: C_2  and  C_8
    3  A    between atoms: C_3  and  C_15
    4  A    between atoms: C_3  and  C_30
    5  A    between atoms: C_4  and  N_10
    6  A    between atoms: C_4  and  C_24
    7  A    between atoms: O_6  and  C_8
    8  A    between atoms: O_6  and  C_31
    9  A    between atoms: C_7  and  C_33
   10  A    between atoms: C_7  and  C_36
   11  A    between atoms: C_8  and  C_19
   12  A    between atoms: N_10  and  C_13
   13  A    between atoms: N_10  and  C_30
   14  A    between atoms: C_11  and  C_26
   15  A    between atoms: C_13  and  C_20
   16  A    between atoms: C_14  and  C_31
   17  A    between atoms: C_14  and  C_37
   18  A    between atoms: C_15  and  C_19
   19  A    between atoms: C_17  and  C_26
   20  A    between atoms: C_17  and  C_33
   21  A    between atoms: C_20  and  C_21
   22  A    between atoms: C_20  and  C_29
   23  A    between atoms: C_21  and  C_25
   24  A    between atoms: C_23  and  C_25
   25  A    between atoms: C_24  and  C_28
   26  A    between atoms: C_29  and  C_36
   27  A    between atoms: C_30  and  C_32
                            x       y       z     vdW  Elec       q    Type
                         _______ _______ _______ _____ _____    ______ ____

>  <TORSDO>
F 27

$$$$
=
 OpenBabel11052415283D

 37 36  0  0  1  0  0  0  0  0999 V2000
  185.0920  178.4440  141.7290 N   0  0  0  0  0  0  0  0  0  0  0  0
  184.0670  178.6730  140.6920 C   0  0  1  0  0  3  0  0  0  0  0  0
  184.3290  180.3900  139.0380 O   0  0  0  0  0  1  0  0  0  0  0  0
  184.6020  179.0480  139.3040 C   0  0  0  0  0  2  0  0  0  0  0  0
  183.1410  177.4570  140.5680 C   0  0  0  0  0  2  0  0  0  0  0  0
  181.6780  177.8060  140.4950 C   0  0  0  0  0  0  0  0  0  0  0  0
  180.8400  176.9420  140.2850 O   0  0  0  0  0  0  0  0  0  0  0  0
  181.2610  179.2410  140.5800 C   0  0  0  0  0  2  0  0  0  0  0  0
  180.5010  179.6890  139.3390 C   0  0  1  0  0  3  0  0  0  0  0  0
  180.1540  181.1600  139.4840 C   0  0  0  0  0  2  0  0  0  0  0  0
  181.0720  181.9360  138.7760 O   0  0  0  0  0  1  0  0  0  0  0  0
  181.2730  179.4950  138.1910 O   0  0  0  0  0  0  0  0  0  0  0  0
  180.3980  178.9100  137.2730 C   0  0  0  0  0  2  0  0  0  0  0  0
  181.1810  178.3190  136.1180 C   0  0  0  0  0  2  0  0  0  0  0  0
  182.1550  176.2540  137.0680 C   0  0  0  0  0  1  0  0  0  0  0  0
  182.4440  177.6820  136.6520 C   0  0  0  0  0  2  0  0  0  0  0  0
  184.9120  179.5000  142.7190 C   0  0  0  0  0  2  0  0  0  0  0  0
  184.8200  179.3890  145.1000 O   0  0  0  0  0  1  0  0  0  0  0  0
  184.1700  178.9710  143.9370 C   0  0  1  0  0  3  0  0  0  0  0  0
  181.8440  178.3860  144.0870 O   0  0  0  0  0  1  0  0  0  0  0  0
  182.7280  179.4570  143.9480 C   0  0  0  0  0  2  0  0  0  0  0  0
  186.4530  178.6100  141.2200 C   0  0  0  0  0  2  0  0  0  0  0  0
  187.4540  178.3880  142.3430 C   0  0  1  0  0  3  0  0  0  0  0  0
  187.2010  177.0780  143.0980 C   0  0  0  0  0  2  0  0  0  0  0  0
  187.9980  176.9470  144.3920 C   0  0  0  0  0  2  0  0  0  0  0  0
  187.0760  176.9950  145.5970 C   0  0  0  0  0  2  0  0  0  0  0  0
  187.6080  177.9660  146.6420 C   0  0  0  0  0  2  0  0  0  0  0  0
  188.2490  177.2290  147.8110 C   0  0  0  0  0  2  0  0  0  0  0  0
  189.6830  177.6920  148.0130 C   0  0  0  0  0  2  0  0  0  0  0  0
  190.6150  176.9090  147.1080 C   0  0  0  0  0  2  0  0  0  0  0  0
  191.8840  176.8210  147.6840 O   0  0  0  0  0  1  0  0  0  0  0  0
  188.8800  178.4990  141.8200 C   0  0  0  0  0  2  0  0  0  0  0  0
  189.0680  177.6740  140.5500 C   0  0  0  0  0  2  0  0  0  0  0  0
  190.3840  176.0220  141.6980 O   0  0  0  0  0  1  0  0  0  0  0  0
  190.3540  176.8490  140.5730 C   0  0  1  0  0  3  0  0  0  0  0  0
  190.4730  176.0810  139.4100 O   0  0  0  0  0  0  0  0  0  0  0  0
  191.6190  176.5630  138.7780 C   0  0  0  0  0  1  0  0  0  0  0  0
  1 17  1  0  0  0  0
  2  4  1  6  0  0  0
  2  1  1  0  0  0  0
  3  4  1  0  0  0  0
  5  2  1  0  0  0  0
  6  5  1  0  0  0  0
  6  8  1  0  0  0  0
  7  6  2  0  0  0  0
  9 10  1  1  0  0  0
  9  8  1  0  0  0  0
 11 10  1  0  0  0  0
 12  9  1  0  0  0  0
 13 12  1  0  0  0  0
 14 16  1  0  0  0  0
 14 13  1  0  0  0  0
 16 15  1  0  0  0  0
 17 19  1  0  0  0  0
 19 21  1  0  0  0  0
 19 18  1  1  0  0  0
 21 20  1  0  0  0  0
 22  1  1  0  0  0  0
 23 22  1  6  0  0  0
 23 24  1  0  0  0  0
 24 25  1  0  0  0  0
 25 26  1  0  0  0  0
 26 27  1  0  0  0  0
 27 28  1  0  0  0  0
 28 29  1  0  0  0  0
 30 31  1  0  0  0  0
 30 29  1  0  0  0  0
 32 23  1  0  0  0  0
 33 35  1  0  0  0  0
 33 32  1  0  0  0  0
 35 34  1  1  0  0  0
 36 35  1  0  0  0  0
 37 36  1  0  0  0  0
M  END
>  <MODEL>
2

>  <REMARK>
 VINA RESULT:      -5.2      2.408      8.501
  Name = 
  27 active torsions:
  status: ('A' for Active; 'I' for Inactive)
    1  A    between atoms: O_1  and  C_23
    2  A    between atoms: C_2  and  C_8
    3  A    between atoms: C_3  and  C_15
    4  A    between atoms: C_3  and  C_30
    5  A    between atoms: C_4  and  N_10
    6  A    between atoms: C_4  and  C_24
    7  A    between atoms: O_6  and  C_8
    8  A    between atoms: O_6  and  C_31
    9  A    between atoms: C_7  and  C_33
   10  A    between atoms: C_7  and  C_36
   11  A    between atoms: C_8  and  C_19
   12  A    between atoms: N_10  and  C_13
   13  A    between atoms: N_10  and  C_30
   14  A    between atoms: C_11  and  C_26
   15  A    between atoms: C_13  and  C_20
   16  A    between atoms: C_14  and  C_31
   17  A    between atoms: C_14  and  C_37
   18  A    between atoms: C_15  and  C_19
   19  A    between atoms: C_17  and  C_26
   20  A    between atoms: C_17  and  C_33
   21  A    between atoms: C_20  and  C_21
   22  A    between atoms: C_20  and  C_29
   23  A    between atoms: C_21  and  C_25
   24  A    between atoms: C_23  and  C_25
   25  A    between atoms: C_24  and  C_28
   26  A    between atoms: C_29  and  C_36
   27  A    between atoms: C_30  and  C_32
                            x       y       z     vdW  Elec       q    Type
                         _______ _______ _______ _____ _____    ______ ____

>  <TORSDO>
F 27

$$$$
=
 OpenBabel11052415283D

 37 36  0  0  1  0  0  0  0  0999 V2000
  189.4350  177.7250  142.0110 N   0  0  0  0  0  0  0  0  0  0  0  0
  189.8180  177.7250  140.5850 C   0  0  1  0  0  3  0  0  0  0  0  0
  191.7390  177.0370  139.3240 O   0  0  0  0  0  1  0  0  0  0  0  0
  190.7140  176.5610  140.1410 C   0  0  0  0  0  2  0  0  0  0  0  0
  188.5760  177.7800  139.6890 C   0  0  0  0  0  2  0  0  0  0  0  0
  188.8220  178.3890  138.3350 C   0  0  0  0  0  0  0  0  0  0  0  0
  189.0680  179.5810  138.2210 O   0  0  0  0  0  0  0  0  0  0  0  0
  188.6620  177.5440  137.1100 C   0  0  0  0  0  2  0  0  0  0  0  0
  187.5030  176.5640  137.2410 C   0  0  1  0  0  3  0  0  0  0  0  0
  186.2410  177.2300  136.7210 C   0  0  0  0  0  2  0  0  0  0  0  0
  186.5480  178.0390  135.6270 O   0  0  0  0  0  1  0  0  0  0  0  0
  187.7580  175.3980  136.5140 O   0  0  0  0  0  0  0  0  0  0  0  0
  186.9900  174.4170  137.1430 C   0  0  0  0  0  2  0  0  0  0  0  0
  187.0260  173.1360  136.3340 C   0  0  0  0  0  2  0  0  0  0  0  0
  184.9810  172.8100  137.6870 C   0  0  0  0  0  1  0  0  0  0  0  0
  185.6580  172.4900  136.3700 C   0  0  0  0  0  2  0  0  0  0  0  0
  190.4820  176.9930  142.7140 C   0  0  0  0  0  2  0  0  0  0  0  0
  190.5990  179.1160  143.7960 O   0  0  0  0  0  1  0  0  0  0  0  0
  191.3120  177.9370  143.5710 C   0  0  1  0  0  3  0  0  0  0  0  0
  190.5370  176.7790  145.5290 O   0  0  0  0  0  1  0  0  0  0  0  0
  191.6730  177.2890  144.9000 C   0  0  0  0  0  2  0  0  0  0  0  0
  188.2000  176.9810  142.2600 C   0  0  0  0  0  2  0  0  0  0  0  0
  187.2510  177.8260  143.0960 C   0  0  1  0  0  3  0  0  0  0  0  0
  185.9320  178.1120  142.3680 C   0  0  0  0  0  2  0  0  0  0  0  0
  185.0590  179.1560  143.0580 C   0  0  0  0  0  2  0  0  0  0  0  0
  183.8560  178.5010  143.7120 C   0  0  0  0  0  2  0  0  0  0  0  0
  182.5620  179.0430  143.1200 C   0  0  0  0  0  2  0  0  0  0  0  0
  182.4640  178.7420  141.6290 C   0  0  0  0  0  2  0  0  0  0  0  0
  181.0830  178.2080  141.2820 C   0  0  0  0  0  2  0  0  0  0  0  0
  180.1100  178.5120  142.4060 C   0  0  0  0  0  2  0  0  0  0  0  0
  178.9890  177.6850  142.3070 O   0  0  0  0  0  1  0  0  0  0  0  0
  187.0410  177.1990  144.4680 C   0  0  0  0  0  2  0  0  0  0  0  0
  187.7000  178.0330  145.5620 C   0  0  0  0  0  2  0  0  0  0  0  0
  187.8470  177.9990  147.9610 O   0  0  0  0  0  1  0  0  0  0  0  0
  186.9500  177.9520  146.8910 C   0  0  1  0  0  3  0  0  0  0  0  0
  186.0180  178.9880  147.0010 O   0  0  0  0  0  0  0  0  0  0  0  0
  184.7770  178.3520  147.0300 C   0  0  0  0  0  1  0  0  0  0  0  0
  1 22  1  0  0  0  0
  1 17  1  0  0  0  0
  2  5  1  6  0  0  0
  2  1  1  0  0  0  0
  3  4  1  0  0  0  0
  4  2  1  0  0  0  0
  6  5  1  0  0  0  0
  7  6  2  0  0  0  0
  8  9  1  0  0  0  0
  8  6  1  0  0  0  0
  9 10  1  6  0  0  0
 11 10  1  0  0  0  0
 12 13  1  0  0  0  0
 12  9  1  0  0  0  0
 14 16  1  0  0  0  0
 14 13  1  0  0  0  0
 16 15  1  0  0  0  0
 17 19  1  0  0  0  0
 19 18  1  1  0  0  0
 19 21  1  0  0  0  0
 21 20  1  0  0  0  0
 23 22  1  6  0  0  0
 23 32  1  0  0  0  0
 24 25  1  0  0  0  0
 24 23  1  0  0  0  0
 25 26  1  0  0  0  0
 27 26  1  0  0  0  0
 28 27  1  0  0  0  0
 29 28  1  0  0  0  0
 29 30  1  0  0  0  0
 31 30  1  0  0  0  0
 32 33  1  0  0  0  0
 33 35  1  0  0  0  0
 35 36  1  0  0  0  0
 35 34  1  1  0  0  0
 36 37  1  0  0  0  0
M  END
>  <MODEL>
3

>  <REMARK>
 VINA RESULT:      -5.0      2.301      3.635
  Name = 
  27 active torsions:
  status: ('A' for Active; 'I' for Inactive)
    1  A    between atoms: O_1  and  C_23
    2  A    between atoms: C_2  and  C_8
    3  A    between atoms: C_3  and  C_15
    4  A    between atoms: C_3  and  C_30
    5  A    between atoms: C_4  and  N_10
    6  A    between atoms: C_4  and  C_24
    7  A    between atoms: O_6  and  C_8
    8  A    between atoms: O_6  and  C_31
    9  A    between atoms: C_7  and  C_33
   10  A    between atoms: C_7  and  C_36
   11  A    between atoms: C_8  and  C_19
   12  A    between atoms: N_10  and  C_13
   13  A    between atoms: N_10  and  C_30
   14  A    between atoms: C_11  and  C_26
   15  A    between atoms: C_13  and  C_20
   16  A    between atoms: C_14  and  C_31
   17  A    between atoms: C_14  and  C_37
   18  A    between atoms: C_15  and  C_19
   19  A    between atoms: C_17  and  C_26
   20  A    between atoms: C_17  and  C_33
   21  A    between atoms: C_20  and  C_21
   22  A    between atoms: C_20  and  C_29
   23  A    between atoms: C_21  and  C_25
   24  A    between atoms: C_23  and  C_25
   25  A    between atoms: C_24  and  C_28
   26  A    between atoms: C_29  and  C_36
   27  A    between atoms: C_30  and  C_32
                            x       y       z     vdW  Elec       q    Type
                         _______ _______ _______ _____ _____    ______ ____

>  <TORSDO>
F 27

$$$$
=
 OpenBabel11052415283D

 37 36  0  0  1  0  0  0  0  0999 V2000
  188.9790  177.4510  139.9330 N   0  0  0  0  0  0  0  0  0  0  0  0
  187.8170  178.3620  139.9220 C   0  0  1  0  0  3  0  0  0  0  0  0
  186.7150  178.7150  137.8210 O   0  0  0  0  0  1  0  0  0  0  0  0
  186.6670  177.9570  138.9910 C   0  0  0  0  0  2  0  0  0  0  0  0
  187.2740  178.5650  141.3410 C   0  0  0  0  0  2  0  0  0  0  0  0
  185.7930  178.8310  141.3980 C   0  0  0  0  0  0  0  0  0  0  0  0
  185.2850  179.6920  140.6950 O   0  0  0  0  0  0  0  0  0  0  0  0
  184.9560  178.1030  142.4020 C   0  0  0  0  0  2  0  0  0  0  0  0
  185.0570  178.7240  143.7880 C   0  0  1  0  0  3  0  0  0  0  0  0
  183.7010  179.2920  144.1690 C   0  0  0  0  0  2  0  0  0  0  0  0
  183.5040  179.1680  145.5440 O   0  0  0  0  0  1  0  0  0  0  0  0
  185.4510  177.7700  144.7300 O   0  0  0  0  0  0  0  0  0  0  0  0
  186.6860  178.2260  145.1970 C   0  0  0  0  0  2  0  0  0  0  0  0
  186.7300  178.1370  146.7090 C   0  0  0  0  0  2  0  0  0  0  0  0
  188.9480  177.3360  145.9630 C   0  0  0  0  0  1  0  0  0  0  0  0
  187.9760  177.3850  147.1240 C   0  0  0  0  0  2  0  0  0  0  0  0
  189.7990  177.8510  141.0700 C   0  0  0  0  0  2  0  0  0  0  0  0
  191.9660  177.2300  141.8490 O   0  0  0  0  0  1  0  0  0  0  0  0
  190.7190  176.7150  141.4930 C   0  0  1  0  0  3  0  0  0  0  0  0
  191.1320  175.4100  143.4680 O   0  0  0  0  0  1  0  0  0  0  0  0
  190.1250  175.9410  142.6610 C   0  0  0  0  0  2  0  0  0  0  0  0
  189.8320  177.6140  138.7560 C   0  0  0  0  0  2  0  0  0  0  0  0
  189.7770  176.3560  137.9030 C   0  0  1  0  0  3  0  0  0  0  0  0
  189.4230  176.6580  136.4420 C   0  0  0  0  0  2  0  0  0  0  0  0
  188.2360  175.8570  135.9160 C   0  0  0  0  0  2  0  0  0  0  0  0
  187.6510  174.9840  137.0110 C   0  0  0  0  0  2  0  0  0  0  0  0
  187.5090  173.5460  136.5330 C   0  0  0  0  0  2  0  0  0  0  0  0
  186.0470  173.1730  136.3200 C   0  0  0  0  0  2  0  0  0  0  0  0
  185.2480  173.3880  137.5960 C   0  0  0  0  0  2  0  0  0  0  0  0
  183.8920  173.9820  137.2670 C   0  0  0  0  0  2  0  0  0  0  0  0
  183.5310  174.9230  138.2330 O   0  0  0  0  0  1  0  0  0  0  0  0
  191.0670  175.5570  138.0410 C   0  0  0  0  0  2  0  0  0  0  0  0
  192.1610  176.1150  137.1350 C   0  0  0  0  0  2  0  0  0  0  0  0
  193.7200  176.6640  138.8800 O   0  0  0  0  0  1  0  0  0  0  0  0
  193.5600  175.9110  137.7140 C   0  0  1  0  0  3  0  0  0  0  0  0
  193.7970  174.5590  137.9790 O   0  0  0  0  0  0  0  0  0  0  0  0
  194.7020  174.1550  136.9980 C   0  0  0  0  0  1  0  0  0  0  0  0
  1 17  1  0  0  0  0
  2  4  1  6  0  0  0
  2  1  1  0  0  0  0
  2  5  1  0  0  0  0
  3  4  1  0  0  0  0
  5  6  1  0  0  0  0
  6  8  1  0  0  0  0
  7  6  2  0  0  0  0
  9  8  1  6  0  0  0
  9 10  1  0  0  0  0
  9 12  1  0  0  0  0
 10 11  1  0  0  0  0
 12 13  1  0  0  0  0
 13 14  1  0  0  0  0
 14 16  1  0  0  0  0
 15 16  1  0  0  0  0
 17 19  1  0  0  0  0
 19 18  1  1  0  0  0
 19 21  1  0  0  0  0
 21 20  1  0  0  0  0
 22  1  1  0  0  0  0
 23 24  1  6  0  0  0
 23 32  1  0  0  0  0
 23 22  1  0  0  0  0
 25 24  1  0  0  0  0
 25 26  1  0  0  0  0
 27 26  1  0  0  0  0
 28 27  1  0  0  0  0
 28 29  1  0  0  0  0
 30 29  1  0  0  0  0
 30 31  1  0  0  0  0
 33 35  1  0  0  0  0
 33 32  1  0  0  0  0
 35 36  1  0  0  0  0
 35 34  1  1  0  0  0
 37 36  1  0  0  0  0
M  END
>  <MODEL>
4

>  <REMARK>
 VINA RESULT:      -5.0      2.754      7.948
  Name = 
  27 active torsions:
  status: ('A' for Active; 'I' for Inactive)
    1  A    between atoms: O_1  and  C_23
    2  A    between atoms: C_2  and  C_8
    3  A    between atoms: C_3  and  C_15
    4  A    between atoms: C_3  and  C_30
    5  A    between atoms: C_4  and  N_10
    6  A    between atoms: C_4  and  C_24
    7  A    between atoms: O_6  and  C_8
    8  A    between atoms: O_6  and  C_31
    9  A    between atoms: C_7  and  C_33
   10  A    between atoms: C_7  and  C_36
   11  A    between atoms: C_8  and  C_19
   12  A    between atoms: N_10  and  C_13
   13  A    between atoms: N_10  and  C_30
   14  A    between atoms: C_11  and  C_26
   15  A    between atoms: C_13  and  C_20
   16  A    between atoms: C_14  and  C_31
   17  A    between atoms: C_14  and  C_37
   18  A    between atoms: C_15  and  C_19
   19  A    between atoms: C_17  and  C_26
   20  A    between atoms: C_17  and  C_33
   21  A    between atoms: C_20  and  C_21
   22  A    between atoms: C_20  and  C_29
   23  A    between atoms: C_21  and  C_25
   24  A    between atoms: C_23  and  C_25
   25  A    between atoms: C_24  and  C_28
   26  A    between atoms: C_29  and  C_36
   27  A    between atoms: C_30  and  C_32
                            x       y       z     vdW  Elec       q    Type
                         _______ _______ _______ _____ _____    ______ ____

>  <TORSDO>
F 27

$$$$
=
 OpenBabel11052415283D

 37 36  0  0  1  0  0  0  0  0999 V2000
  189.2940  177.4330  142.7580 N   0  0  0  0  0  0  0  0  0  0  0  0
  189.7850  177.7410  141.4000 C   0  0  1  0  0  3  0  0  0  0  0  0
  191.4260  177.1620  139.7490 O   0  0  0  0  0  1  0  0  0  0  0  0
  191.2420  177.3520  141.1190 C   0  0  0  0  0  2  0  0  0  0  0  0
  188.8770  177.1090  140.3390 C   0  0  0  0  0  2  0  0  0  0  0  0
  188.1040  178.1070  139.5200 C   0  0  0  0  0  0  0  0  0  0  0  0
  187.2610  178.8230  140.0390 O   0  0  0  0  0  0  0  0  0  0  0  0
  188.3000  178.1480  138.0360 C   0  0  0  0  0  2  0  0  0  0  0  0
  188.8490  176.8340  137.4970 C   0  0  1  0  0  3  0  0  0  0  0  0
  187.8120  176.2120  136.5780 C   0  0  0  0  0  2  0  0  0  0  0  0
  187.0540  175.2770  137.2840 O   0  0  0  0  0  1  0  0  0  0  0  0
  190.0380  177.0470  136.7940 O   0  0  0  0  0  0  0  0  0  0  0  0
  190.5120  175.7660  136.5080 C   0  0  0  0  0  2  0  0  0  0  0  0
  191.9470  175.8420  136.0260 C   0  0  0  0  0  2  0  0  0  0  0  0
  191.9240  173.3960  136.3960 C   0  0  0  0  0  1  0  0  0  0  0  0
  192.7210  174.6700  136.5890 C   0  0  0  0  0  2  0  0  0  0  0  0
  190.1880  176.4110  143.2910 C   0  0  0  0  0  2  0  0  0  0  0  0
  191.8320  176.1010  144.9910 O   0  0  0  0  0  1  0  0  0  0  0  0
  190.6520  176.7840  144.6910 C   0  0  1  0  0  3  0  0  0  0  0  0
  192.0990  178.6490  144.2380 O   0  0  0  0  0  1  0  0  0  0  0  0
  190.8780  178.2840  144.8070 C   0  0  0  0  0  2  0  0  0  0  0  0
  187.9630  176.8270  142.7500 C   0  0  0  0  0  2  0  0  0  0  0  0
  186.9920  177.7090  143.5190 C   0  0  1  0  0  3  0  0  0  0  0  0
  185.6420  177.8490  142.8040 C   0  0  0  0  0  2  0  0  0  0  0  0
  184.8680  179.1060  143.1890 C   0  0  0  0  0  2  0  0  0  0  0  0
  183.7790  178.7780  144.1940 C   0  0  0  0  0  2  0  0  0  0  0  0
  182.4040  179.0820  143.6150 C   0  0  0  0  0  2  0  0  0  0  0  0
  182.3470  178.7700  142.1250 C   0  0  0  0  0  2  0  0  0  0  0  0
  181.0030  179.1820  141.5440 C   0  0  0  0  0  2  0  0  0  0  0  0
  181.0510  179.1180  140.0290 C   0  0  0  0  0  2  0  0  0  0  0  0
  180.6900  180.3530  139.4850 O   0  0  0  0  0  1  0  0  0  0  0  0
  186.8480  177.2230  144.9550 C   0  0  0  0  0  2  0  0  0  0  0  0
  187.5880  178.1410  145.9240 C   0  0  0  0  0  2  0  0  0  0  0  0
  185.4410  178.2080  147.0020 O   0  0  0  0  0  1  0  0  0  0  0  0
  186.8110  178.3750  147.2180 C   0  0  1  0  0  3  0  0  0  0  0  0
  187.2470  177.5080  148.2240 O   0  0  0  0  0  0  0  0  0  0  0  0
  188.4270  178.0770  148.7020 C   0  0  0  0  0  1  0  0  0  0  0  0
  1 17  1  0  0  0  0
  2  5  1  6  0  0  0
  2  1  1  0  0  0  0
  3  4  1  0  0  0  0
  4  2  1  0  0  0  0
  6  7  2  0  0  0  0
  6  5  1  0  0  0  0
  8  6  1  0  0  0  0
  9 10  1  6  0  0  0
  9  8  1  0  0  0  0
 10 11  1  0  0  0  0
 12  9  1  0  0  0  0
 13 12  1  0  0  0  0
 14 13  1  0  0  0  0
 14 16  1  0  0  0  0
 15 16  1  0  0  0  0
 17 19  1  0  0  0  0
 19 21  1  0  0  0  0
 19 18  1  6  0  0  0
 20 21  1  0  0  0  0
 22  1  1  0  0  0  0
 23 22  1  6  0  0  0
 23 32  1  0  0  0  0
 24 25  1  0  0  0  0
 24 23  1  0  0  0  0
 25 26  1  0  0  0  0
 27 26  1  0  0  0  0
 28 27  1  0  0  0  0
 29 28  1  0  0  0  0
 30 29  1  0  0  0  0
 31 30  1  0  0  0  0
 32 33  1  0  0  0  0
 33 35  1  0  0  0  0
 35 34  1  6  0  0  0
 35 36  1  0  0  0  0
 36 37  1  0  0  0  0
M  END
>  <MODEL>
5

>  <REMARK>
 VINA RESULT:      -4.9      1.977      3.621
  Name = 
  27 active torsions:
  status: ('A' for Active; 'I' for Inactive)
    1  A    between atoms: O_1  and  C_23
    2  A    between atoms: C_2  and  C_8
    3  A    between atoms: C_3  and  C_15
    4  A    between atoms: C_3  and  C_30
    5  A    between atoms: C_4  and  N_10
    6  A    between atoms: C_4  and  C_24
    7  A    between atoms: O_6  and  C_8
    8  A    between atoms: O_6  and  C_31
    9  A    between atoms: C_7  and  C_33
   10  A    between atoms: C_7  and  C_36
   11  A    between atoms: C_8  and  C_19
   12  A    between atoms: N_10  and  C_13
   13  A    between atoms: N_10  and  C_30
   14  A    between atoms: C_11  and  C_26
   15  A    between atoms: C_13  and  C_20
   16  A    between atoms: C_14  and  C_31
   17  A    between atoms: C_14  and  C_37
   18  A    between atoms: C_15  and  C_19
   19  A    between atoms: C_17  and  C_26
   20  A    between atoms: C_17  and  C_33
   21  A    between atoms: C_20  and  C_21
   22  A    between atoms: C_20  and  C_29
   23  A    between atoms: C_21  and  C_25
   24  A    between atoms: C_23  and  C_25
   25  A    between atoms: C_24  and  C_28
   26  A    between atoms: C_29  and  C_36
   27  A    between atoms: C_30  and  C_32
                            x       y       z     vdW  Elec       q    Type
                         _______ _______ _______ _____ _____    ______ ____

>  <TORSDO>
F 27

$$$$
=
 OpenBabel11052415283D

 37 36  0  0  1  0  0  0  0  0999 V2000
  189.2060  177.4820  140.8740 N   0  0  0  0  0  0  0  0  0  0  0  0
  189.3360  177.2390  142.3240 C   0  0  1  0  0  3  0  0  0  0  0  0
  190.1030  175.0370  142.8830 O   0  0  0  0  0  1  0  0  0  0  0  0
  188.9590  175.8290  142.7950 C   0  0  0  0  0  2  0  0  0  0  0  0
  190.7520  177.5740  142.8060 C   0  0  0  0  0  2  0  0  0  0  0  0
  190.8080  178.6750  143.8300 C   0  0  0  0  0  0  0  0  0  0  0  0
  191.4100  179.7130  143.6000 O   0  0  0  0  0  0  0  0  0  0  0  0
  190.2050  178.4500  145.1820 C   0  0  0  0  0  2  0  0  0  0  0  0
  190.3300  177.0000  145.6280 C   0  0  1  0  0  3  0  0  0  0  0  0
  191.7090  176.7910  146.2290 C   0  0  0  0  0  2  0  0  0  0  0  0
  191.6860  177.1020  147.5890 O   0  0  0  0  0  1  0  0  0  0  0  0
  189.3500  176.6880  146.5740 O   0  0  0  0  0  0  0  0  0  0  0  0
  188.1760  177.2420  146.0590 C   0  0  0  0  0  2  0  0  0  0  0  0
  187.2990  177.7360  147.1910 C   0  0  0  0  0  2  0  0  0  0  0  0
  185.6040  179.3220  146.3340 C   0  0  0  0  0  1  0  0  0  0  0  0
  185.8770  177.8750  146.6910 C   0  0  0  0  0  2  0  0  0  0  0  0
  190.5450  177.8070  140.3950 C   0  0  0  0  0  2  0  0  0  0  0  0
  190.3610  175.6380  139.4210 O   0  0  0  0  0  1  0  0  0  0  0  0
  190.9370  176.8960  139.2410 C   0  0  1  0  0  3  0  0  0  0  0  0
  189.9810  176.4900  137.0740 O   0  0  0  0  0  1  0  0  0  0  0  0
  190.4920  177.4840  137.9090 C   0  0  0  0  0  2  0  0  0  0  0  0
  188.3850  178.6540  140.5720 C   0  0  0  0  0  2  0  0  0  0  0  0
  186.9120  178.2910  140.6770 C   0  0  1  0  0  3  0  0  0  0  0  0
  186.2110  179.0300  141.8230 C   0  0  0  0  0  2  0  0  0  0  0  0
  185.4230  178.1160  142.7570 C   0  0  0  0  0  2  0  0  0  0  0  0
  184.0440  178.6890  143.0280 C   0  0  0  0  0  2  0  0  0  0  0  0
  183.2670  178.8570  141.7290 C   0  0  0  0  0  2  0  0  0  0  0  0
  181.7930  178.5230  141.9150 C   0  0  0  0  0  2  0  0  0  0  0  0
  181.2200  179.2770  143.1050 C   0  0  0  0  0  2  0  0  0  0  0  0
  180.0100  178.5440  143.6520 C   0  0  0  0  0  2  0  0  0  0  0  0
  179.5570  177.6050  142.7240 O   0  0  0  0  0  1  0  0  0  0  0  0
  186.2130  178.4870  139.3380 C   0  0  0  0  0  2  0  0  0  0  0  0
  186.8590  177.6340  138.2500 C   0  0  0  0  0  2  0  0  0  0  0  0
  187.0950  178.3470  135.9660 O   0  0  0  0  0  1  0  0  0  0  0  0
  186.1890  177.8170  136.8880 C   0  0  1  0  0  3  0  0  0  0  0  0
  185.6800  176.6030  136.4170 O   0  0  0  0  0  0  0  0  0  0  0  0
  186.5560  175.6340  136.9050 C   0  0  0  0  0  1  0  0  0  0  0  0
  1  2  1  0  0  0  0
  2  4  1  6  0  0  0
  2  5  1  0  0  0  0
  4  3  1  0  0  0  0
  5  6  1  0  0  0  0
  6  8  1  0  0  0  0
  7  6  2  0  0  0  0
  9  8  1  1  0  0  0
  9 10  1  0  0  0  0
  9 12  1  0  0  0  0
 10 11  1  0  0  0  0
 13 12  1  0  0  0  0
 13 14  1  0  0  0  0
 15 16  1  0  0  0  0
 16 14  1  0  0  0  0
 17  1  1  0  0  0  0
 19 18  1  1  0  0  0
 19 17  1  0  0  0  0
 20 21  1  0  0  0  0
 21 19  1  0  0  0  0
 22 23  1  0  0  0  0
 22  1  1  0  0  0  0
 23 32  1  6  0  0  0
 23 24  1  0  0  0  0
 24 25  1  0  0  0  0
 25 26  1  0  0  0  0
 27 28  1  0  0  0  0
 27 26  1  0  0  0  0
 28 29  1  0  0  0  0
 29 30  1  0  0  0  0
 31 30  1  0  0  0  0
 33 32  1  0  0  0  0
 35 34  1  6  0  0  0
 35 33  1  0  0  0  0
 36 35  1  0  0  0  0
 36 37  1  0  0  0  0
M  END
>  <MODEL>
6

>  <REMARK>
 VINA RESULT:      -4.9      2.079      6.670
  Name = 
  27 active torsions:
  status: ('A' for Active; 'I' for Inactive)
    1  A    between atoms: O_1  and  C_23
    2  A    between atoms: C_2  and  C_8
    3  A    between atoms: C_3  and  C_15
    4  A    between atoms: C_3  and  C_30
    5  A    between atoms: C_4  and  N_10
    6  A    between atoms: C_4  and  C_24
    7  A    between atoms: O_6  and  C_8
    8  A    between atoms: O_6  and  C_31
    9  A    between atoms: C_7  and  C_33
   10  A    between atoms: C_7  and  C_36
   11  A    between atoms: C_8  and  C_19
   12  A    between atoms: N_10  and  C_13
   13  A    between atoms: N_10  and  C_30
   14  A    between atoms: C_11  and  C_26
   15  A    between atoms: C_13  and  C_20
   16  A    between atoms: C_14  and  C_31
   17  A    between atoms: C_14  and  C_37
   18  A    between atoms: C_15  and  C_19
   19  A    between atoms: C_17  and  C_26
   20  A    between atoms: C_17  and  C_33
   21  A    between atoms: C_20  and  C_21
   22  A    between atoms: C_20  and  C_29
   23  A    between atoms: C_21  and  C_25
   24  A    between atoms: C_23  and  C_25
   25  A    between atoms: C_24  and  C_28
   26  A    between atoms: C_29  and  C_36
   27  A    between atoms: C_30  and  C_32
                            x       y       z     vdW  Elec       q    Type
                         _______ _______ _______ _____ _____    ______ ____

>  <TORSDO>
F 27

$$$$
=
 OpenBabel11052415283D

 37 36  0  0  1  0  0  0  0  0999 V2000
  188.4040  176.8890  138.5170 N   0  0  0  0  0  0  0  0  0  0  0  0
  189.1150  176.8680  139.8100 C   0  0  1  0  0  3  0  0  0  0  0  0
  191.3130  177.7370  140.2230 O   0  0  0  0  0  1  0  0  0  0  0  0
  190.6280  176.6270  139.7290 C   0  0  0  0  0  2  0  0  0  0  0  0
  188.8480  178.1560  140.5970 C   0  0  0  0  0  2  0  0  0  0  0  0
  188.3320  177.9270  141.9920 C   0  0  0  0  0  0  0  0  0  0  0  0
  187.1380  177.7760  142.2000 O   0  0  0  0  0  0  0  0  0  0  0  0
  189.2850  177.9870  143.1460 C   0  0  0  0  0  2  0  0  0  0  0  0
  189.4160  176.6430  143.8490 C   0  0  1  0  0  3  0  0  0  0  0  0
  190.6520  175.9350  143.3210 C   0  0  0  0  0  2  0  0  0  0  0  0
  191.7730  176.7480  143.4910 O   0  0  0  0  0  1  0  0  0  0  0  0
  189.5240  176.8170  145.2310 O   0  0  0  0  0  0  0  0  0  0  0  0
  188.5820  177.8020  145.5360 C   0  0  0  0  0  2  0  0  0  0  0  0
  187.9470  177.5100  146.8800 C   0  0  0  0  0  2  0  0  0  0  0  0
  186.0820  178.4170  145.5320 C   0  0  0  0  0  1  0  0  0  0  0  0
  186.5880  178.1720  146.9390 C   0  0  0  0  0  2  0  0  0  0  0  0
  189.4330  176.9730  137.4870 C   0  0  0  0  0  2  0  0  0  0  0  0
  190.3370  175.8230  135.6020 O   0  0  0  0  0  1  0  0  0  0  0  0
  189.2060  175.9170  136.4150 C   0  0  1  0  0  3  0  0  0  0  0  0
  190.0690  173.9680  137.5240 O   0  0  0  0  0  1  0  0  0  0  0  0
  188.9040  174.5630  137.0410 C   0  0  0  0  0  2  0  0  0  0  0  0
  187.5800  178.0860  138.3490 C   0  0  0  0  0  2  0  0  0  0  0  0
  186.1510  177.6850  138.0180 C   0  0  1  0  0  3  0  0  0  0  0  0
  185.1280  178.7120  138.5170 C   0  0  0  0  0  2  0  0  0  0  0  0
  185.0370  178.8050  140.0370 C   0  0  0  0  0  2  0  0  0  0  0  0
  183.8700  177.9840  140.5550 C   0  0  0  0  0  2  0  0  0  0  0  0
  183.4470  178.4650  141.9360 C   0  0  0  0  0  2  0  0  0  0  0  0
  181.9710  178.8400  141.9670 C   0  0  0  0  0  2  0  0  0  0  0  0
  181.5210  179.1230  143.3910 C   0  0  0  0  0  2  0  0  0  0  0  0
  180.0140  178.9810  143.4980 C   0  0  0  0  0  2  0  0  0  0  0  0
  179.6770  177.6700  143.8400 O   0  0  0  0  0  1  0  0  0  0  0  0
  186.0080  177.3870  136.5310 C   0  0  0  0  0  2  0  0  0  0  0  0
  184.5880  176.9410  136.1920 C   0  0  0  0  0  2  0  0  0  0  0  0
  185.5100  174.7570  135.7960 O   0  0  0  0  0  1  0  0  0  0  0  0
  184.4030  175.4300  136.3190 C   0  0  1  0  0  3  0  0  0  0  0  0
  184.2050  175.0630  137.6540 O   0  0  0  0  0  0  0  0  0  0  0  0
  182.8370  174.8130  137.7570 C   0  0  0  0  0  1  0  0  0  0  0  0
  1  2  1  0  0  0  0
  2  4  1  6  0  0  0
  2  5  1  0  0  0  0
  4  3  1  0  0  0  0
  5  6  1  0  0  0  0
  6  7  2  0  0  0  0
  6  8  1  0  0  0  0
  9  8  1  6  0  0  0
  9 12  1  0  0  0  0
 10 11  1  0  0  0  0
 10  9  1  0  0  0  0
 12 13  1  0  0  0  0
 13 14  1  0  0  0  0
 14 16  1  0  0  0  0
 15 16  1  0  0  0  0
 17  1  1  0  0  0  0
 19 18  1  1  0  0  0
 19 21  1  0  0  0  0
 19 17  1  0  0  0  0
 21 20  1  0  0  0  0
 22  1  1  0  0  0  0
 23 32  1  6  0  0  0
 23 22  1  0  0  0  0
 23 24  1  0  0  0  0
 24 25  1  0  0  0  0
 25 26  1  0  0  0  0
 26 27  1  0  0  0  0
 27 28  1  0  0  0  0
 28 29  1  0  0  0  0
 29 30  1  0  0  0  0
 30 31  1  0  0  0  0
 33 35  1  0  0  0  0
 33 32  1  0  0  0  0
 35 34  1  1  0  0  0
 35 36  1  0  0  0  0
 36 37  1  0  0  0  0
M  END
>  <MODEL>
7

>  <REMARK>
 VINA RESULT:      -4.8      2.643      7.119
  Name = 
  27 active torsions:
  status: ('A' for Active; 'I' for Inactive)
    1  A    between atoms: O_1  and  C_23
    2  A    between atoms: C_2  and  C_8
    3  A    between atoms: C_3  and  C_15
    4  A    between atoms: C_3  and  C_30
    5  A    between atoms: C_4  and  N_10
    6  A    between atoms: C_4  and  C_24
    7  A    between atoms: O_6  and  C_8
    8  A    between atoms: O_6  and  C_31
    9  A    between atoms: C_7  and  C_33
   10  A    between atoms: C_7  and  C_36
   11  A    between atoms: C_8  and  C_19
   12  A    between atoms: N_10  and  C_13
   13  A    between atoms: N_10  and  C_30
   14  A    between atoms: C_11  and  C_26
   15  A    between atoms: C_13  and  C_20
   16  A    between atoms: C_14  and  C_31
   17  A    between atoms: C_14  and  C_37
   18  A    between atoms: C_15  and  C_19
   19  A    between atoms: C_17  and  C_26
   20  A    between atoms: C_17  and  C_33
   21  A    between atoms: C_20  and  C_21
   22  A    between atoms: C_20  and  C_29
   23  A    between atoms: C_21  and  C_25
   24  A    between atoms: C_23  and  C_25
   25  A    between atoms: C_24  and  C_28
   26  A    between atoms: C_29  and  C_36
   27  A    between atoms: C_30  and  C_32
                            x       y       z     vdW  Elec       q    Type
                         _______ _______ _______ _____ _____    ______ ____

>  <TORSDO>
F 27

$$$$
=
 OpenBabel11052415283D

 37 36  0  0  1  0  0  0  0  0999 V2000
  189.5290  177.4400  142.2830 N   0  0  0  0  0  0  0  0  0  0  0  0
  189.6150  177.7050  140.8340 C   0  0  1  0  0  3  0  0  0  0  0  0
  191.7650  177.4520  139.8000 O   0  0  0  0  0  1  0  0  0  0  0  0
  190.5630  176.7900  140.0480 C   0  0  0  0  0  2  0  0  0  0  0  0
  188.2230  177.6650  140.1920 C   0  0  0  0  0  2  0  0  0  0  0  0
  188.2310  177.8470  138.6970 C   0  0  0  0  0  0  0  0  0  0  0  0
  188.0430  178.9470  138.2010 O   0  0  0  0  0  0  0  0  0  0  0  0
  188.3700  176.6470  137.8130 C   0  0  0  0  0  2  0  0  0  0  0  0
  187.2240  176.5370  136.8160 C   0  0  1  0  0  3  0  0  0  0  0  0
  187.4560  175.3200  135.9380 C   0  0  0  0  0  2  0  0  0  0  0  0
  187.3830  175.6850  134.5940 O   0  0  0  0  0  1  0  0  0  0  0  0
  186.0010  176.4160  137.4810 O   0  0  0  0  0  0  0  0  0  0  0  0
  185.0800  177.0450  136.6400 C   0  0  0  0  0  2  0  0  0  0  0  0
  183.7570  177.2140  137.3590 C   0  0  0  0  0  2  0  0  0  0  0  0
  181.8520  175.8610  138.1710 C   0  0  0  0  0  1  0  0  0  0  0  0
  183.3540  175.8910  137.9710 C   0  0  0  0  0  2  0  0  0  0  0  0
  190.5160  176.4040  142.5660 C   0  0  0  0  0  2  0  0  0  0  0  0
  191.3820  178.2900  143.7430 O   0  0  0  0  0  1  0  0  0  0  0  0
  191.6610  176.9670  143.3950 C   0  0  1  0  0  3  0  0  0  0  0  0
  192.0720  174.7920  144.3310 O   0  0  0  0  0  1  0  0  0  0  0  0
  191.8820  176.1370  144.6510 C   0  0  0  0  0  2  0  0  0  0  0  0
  188.2390  176.8730  142.6750 C   0  0  0  0  0  2  0  0  0  0  0  0
  187.7200  177.5840  143.9160 C   0  0  1  0  0  3  0  0  0  0  0  0
  186.1970  177.4710  144.0560 C   0  0  0  0  0  2  0  0  0  0  0  0
  185.5030  178.8020  144.3320 C   0  0  0  0  0  2  0  0  0  0  0  0
  183.9950  178.6400  144.2780 C   0  0  0  0  0  2  0  0  0  0  0  0
  183.4400  179.2090  142.9790 C   0  0  0  0  0  2  0  0  0  0  0  0
  183.7660  178.3090  141.7940 C   0  0  0  0  0  2  0  0  0  0  0  0
  182.7450  178.4990  140.6820 C   0  0  0  0  0  2  0  0  0  0  0  0
  181.3630  178.6960  141.2740 C   0  0  0  0  0  2  0  0  0  0  0  0
  180.5860  177.5530  141.0720 O   0  0  0  0  0  1  0  0  0  0  0  0
  188.4620  177.1060  145.1570 C   0  0  0  0  0  2  0  0  0  0  0  0
  187.8950  177.7490  146.4200 C   0  0  0  0  0  2  0  0  0  0  0  0
  188.2120  177.7720  148.8030 O   0  0  0  0  0  1  0  0  0  0  0  0
  188.8880  177.7360  147.5800 C   0  0  1  0  0  3  0  0  0  0  0  0
  189.7090  176.6050  147.5200 O   0  0  0  0  0  0  0  0  0  0  0  0
  191.0030  177.0920  147.7060 C   0  0  0  0  0  1  0  0  0  0  0  0
  1 17  1  0  0  0  0
  1 22  1  0  0  0  0
  2  4  1  6  0  0  0
  2  1  1  0  0  0  0
  3  4  1  0  0  0  0
  5  2  1  0  0  0  0
  6  5  1  0  0  0  0
  7  6  2  0  0  0  0
  8  6  1  0  0  0  0
  9 10  1  6  0  0  0
  9 12  1  0  0  0  0
  9  8  1  0  0  0  0
 11 10  1  0  0  0  0
 13 14  1  0  0  0  0
 13 12  1  0  0  0  0
 14 16  1  0  0  0  0
 16 15  1  0  0  0  0
 17 19  1  0  0  0  0
 19 18  1  1  0  0  0
 19 21  1  0  0  0  0
 20 21  1  0  0  0  0
 23 22  1  6  0  0  0
 23 24  1  0  0  0  0
 23 32  1  0  0  0  0
 24 25  1  0  0  0  0
 26 25  1  0  0  0  0
 27 26  1  0  0  0  0
 28 27  1  0  0  0  0
 29 30  1  0  0  0  0
 29 28  1  0  0  0  0
 31 30  1  0  0  0  0
 32 33  1  0  0  0  0
 33 35  1  0  0  0  0
 35 34  1  1  0  0  0
 36 35  1  0  0  0  0
 36 37  1  0  0  0  0
M  END
>  <MODEL>
8

>  <REMARK>
 VINA RESULT:      -4.6      2.055      3.849
  Name = 
  27 active torsions:
  status: ('A' for Active; 'I' for Inactive)
    1  A    between atoms: O_1  and  C_23
    2  A    between atoms: C_2  and  C_8
    3  A    between atoms: C_3  and  C_15
    4  A    between atoms: C_3  and  C_30
    5  A    between atoms: C_4  and  N_10
    6  A    between atoms: C_4  and  C_24
    7  A    between atoms: O_6  and  C_8
    8  A    between atoms: O_6  and  C_31
    9  A    between atoms: C_7  and  C_33
   10  A    between atoms: C_7  and  C_36
   11  A    between atoms: C_8  and  C_19
   12  A    between atoms: N_10  and  C_13
   13  A    between atoms: N_10  and  C_30
   14  A    between atoms: C_11  and  C_26
   15  A    between atoms: C_13  and  C_20
   16  A    between atoms: C_14  and  C_31
   17  A    between atoms: C_14  and  C_37
   18  A    between atoms: C_15  and  C_19
   19  A    between atoms: C_17  and  C_26
   20  A    between atoms: C_17  and  C_33
   21  A    between atoms: C_20  and  C_21
   22  A    between atoms: C_20  and  C_29
   23  A    between atoms: C_21  and  C_25
   24  A    between atoms: C_23  and  C_25
   25  A    between atoms: C_24  and  C_28
   26  A    between atoms: C_29  and  C_36
   27  A    between atoms: C_30  and  C_32
                            x       y       z     vdW  Elec       q    Type
                         _______ _______ _______ _____ _____    ______ ____

>  <TORSDO>
F 27

$$$$
=
 OpenBabel11052415283D

 37 36  0  0  1  0  0  0  0  0999 V2000
  186.6090  178.3610  141.5610 N   0  0  0  0  0  0  0  0  0  0  0  0
  186.5640  178.4660  143.0330 C   0  0  1  0  0  3  0  0  0  0  0  0
  184.4420  178.0510  144.0720 O   0  0  0  0  0  1  0  0  0  0  0  0
  185.2790  179.0690  143.6140 C   0  0  0  0  0  2  0  0  0  0  0  0
  186.8240  177.1020  143.6830 C   0  0  0  0  0  2  0  0  0  0  0  0
  188.2780  176.7170  143.7400 C   0  0  0  0  0  0  0  0  0  0  0  0
  188.6740  175.6910  143.2080 O   0  0  0  0  0  0  0  0  0  0  0  0
  189.2260  177.5500  144.5450 C   0  0  0  0  0  2  0  0  0  0  0  0
  190.6300  176.9600  144.5640 C   0  0  1  0  0  3  0  0  0  0  0  0
  191.6010  177.9930  144.0220 C   0  0  0  0  0  2  0  0  0  0  0  0
  190.9070  179.1390  143.6340 O   0  0  0  0  0  1  0  0  0  0  0  0
  190.9970  176.6010  145.8640 O   0  0  0  0  0  0  0  0  0  0  0  0
  189.8710  176.8860  146.6390 C   0  0  0  0  0  2  0  0  0  0  0  0
  190.2960  177.4760  147.9690 C   0  0  0  0  0  2  0  0  0  0  0  0
  187.8330  177.5690  148.1790 C   0  0  0  0  0  1  0  0  0  0  0  0
  189.1340  178.2420  148.5630 C   0  0  0  0  0  2  0  0  0  0  0  0
  187.8780  178.9520  141.1500 C   0  0  0  0  0  2  0  0  0  0  0  0
  188.7850  179.0510  138.9460 O   0  0  0  0  0  1  0  0  0  0  0  0
  188.4790  178.1750  139.9880 C   0  0  1  0  0  3  0  0  0  0  0  0
  190.7280  177.5220  139.4510 O   0  0  0  0  0  1  0  0  0  0  0  0
  189.7320  177.4290  140.4230 C   0  0  0  0  0  2  0  0  0  0  0  0
  185.5730  179.1590  140.9090 C   0  0  0  0  0  2  0  0  0  0  0  0
  184.6650  178.2550  140.0890 C   0  0  1  0  0  3  0  0  0  0  0  0
  183.2000  178.3440  140.5320 C   0  0  0  0  0  2  0  0  0  0  0  0
  182.2730  178.9460  139.4810 C   0  0  0  0  0  2  0  0  0  0  0  0
  180.8580  179.0610  140.0180 C   0  0  0  0  0  2  0  0  0  0  0  0
  180.3050  177.6880  140.3750 C   0  0  0  0  0  2  0  0  0  0  0  0
  179.4670  177.1150  139.2390 C   0  0  0  0  0  2  0  0  0  0  0  0
  179.7810  175.6410  139.0350 C   0  0  0  0  0  2  0  0  0  0  0  0
  181.2780  175.4120  139.1160 C   0  0  0  0  0  2  0  0  0  0  0  0
  181.8750  175.6920  137.8850 O   0  0  0  0  0  1  0  0  0  0  0  0
  184.8460  178.5210  138.6000 C   0  0  0  0  0  2  0  0  0  0  0  0
  185.0200  177.2180  137.8240 C   0  0  0  0  0  2  0  0  0  0  0  0
  186.6800  178.2760  136.4460 O   0  0  0  0  0  1  0  0  0  0  0  0
  185.5580  177.4450  136.4130 C   0  0  1  0  0  3  0  0  0  0  0  0
  185.8800  176.2290  135.8020 O   0  0  0  0  0  0  0  0  0  0  0  0
  186.5020  175.4800  136.8000 C   0  0  0  0  0  1  0  0  0  0  0  0
  1  2  1  0  0  0  0
  2  4  1  6  0  0  0
  2  5  1  0  0  0  0
  4  3  1  0  0  0  0
  5  6  1  0  0  0  0
  6  8  1  0  0  0  0
  7  6  2  0  0  0  0
  8  9  1  0  0  0  0
  9 10  1  1  0  0  0
  9 12  1  0  0  0  0
 11 10  1  0  0  0  0
 12 13  1  0  0  0  0
 13 14  1  0  0  0  0
 14 16  1  0  0  0  0
 15 16  1  0  0  0  0
 17  1  1  0  0  0  0
 19 18  1  6  0  0  0
 19 21  1  0  0  0  0
 19 17  1  0  0  0  0
 20 21  1  0  0  0  0
 22  1  1  0  0  0  0
 23 32  1  6  0  0  0
 23 24  1  0  0  0  0
 23 22  1  0  0  0  0
 25 26  1  0  0  0  0
 25 24  1  0  0  0  0
 26 27  1  0  0  0  0
 28 27  1  0  0  0  0
 29 30  1  0  0  0  0
 29 28  1  0  0  0  0
 31 30  1  0  0  0  0
 33 32  1  0  0  0  0
 35 34  1  1  0  0  0
 35 33  1  0  0  0  0
 36 35  1  0  0  0  0
 36 37  1  0  0  0  0
M  END
>  <MODEL>
9

>  <REMARK>
 VINA RESULT:      -4.6      2.220      7.082
  Name = 
  27 active torsions:
  status: ('A' for Active; 'I' for Inactive)
    1  A    between atoms: O_1  and  C_23
    2  A    between atoms: C_2  and  C_8
    3  A    between atoms: C_3  and  C_15
    4  A    between atoms: C_3  and  C_30
    5  A    between atoms: C_4  and  N_10
    6  A    between atoms: C_4  and  C_24
    7  A    between atoms: O_6  and  C_8
    8  A    between atoms: O_6  and  C_31
    9  A    between atoms: C_7  and  C_33
   10  A    between atoms: C_7  and  C_36
   11  A    between atoms: C_8  and  C_19
   12  A    between atoms: N_10  and  C_13
   13  A    between atoms: N_10  and  C_30
   14  A    between atoms: C_11  and  C_26
   15  A    between atoms: C_13  and  C_20
   16  A    between atoms: C_14  and  C_31
   17  A    between atoms: C_14  and  C_37
   18  A    between atoms: C_15  and  C_19
   19  A    between atoms: C_17  and  C_26
   20  A    between atoms: C_17  and  C_33
   21  A    between atoms: C_20  and  C_21
   22  A    between atoms: C_20  and  C_29
   23  A    between atoms: C_21  and  C_25
   24  A    between atoms: C_23  and  C_25
   25  A    between atoms: C_24  and  C_28
   26  A    between atoms: C_29  and  C_36
   27  A    between atoms: C_30  and  C_32
                            x       y       z     vdW  Elec       q    Type
                         _______ _______ _______ _____ _____    ______ ____

>  <TORSDO>
F 27

$$$$
