=
 OpenBabel11052416203D

 43 47  0  0  1  0  0  0  0  0999 V2000
  184.6770  178.6320  145.5970 C   0  0  0  0  0  0  0  0  0  0  0  0
  182.8700  178.8640  140.8650 C   0  0  0  0  0  0  0  0  0  0  0  0
  185.0740  178.5860  139.1450 C   0  0  0  0  0  0  0  0  0  0  0  0
  183.2400  178.8410  143.6550 C   0  0  0  0  0  0  0  0  0  0  0  0
  185.7830  178.4520  144.7650 C   0  0  0  0  0  3  0  0  0  0  0  0
  184.8350  178.6260  146.9420 F   0  0  0  0  0  0  0  0  0  0  0  0
  184.3550  178.6560  142.8030 C   0  0  0  0  0  0  0  0  0  0  0  0
  183.4080  178.8270  145.0430 C   0  0  0  0  0  3  0  0  0  0  0  0
  185.6250  178.4640  143.3770 C   0  0  0  0  0  3  0  0  0  0  0  0
  185.2580  178.5310  140.5290 C   0  0  0  0  0  3  0  0  0  0  0  0
  184.1720  178.6770  141.4020 C   0  0  0  0  0  0  0  0  0  0  0  0
  181.7890  179.0610  141.7320 C   0  0  0  0  0  3  0  0  0  0  0  0
  182.6860  178.8860  139.4630 C   0  0  0  0  0  0  0  0  0  0  0  0
  183.7930  178.7640  138.6190 C   0  0  0  0  0  3  0  0  0  0  0  0
  181.9710  179.0460  143.1140 C   0  0  0  0  0  3  0  0  0  0  0  0
  186.2320  178.4340  138.2160 C   0  0  2  0  0  3  0  0  0  0  0  0
  185.8220  177.7930  137.0610 F   0  0  0  0  0  0  0  0  0  0  0  0
  187.3580  177.6610  138.8920 C   0  0  0  0  0  2  0  0  0  0  0  0
  189.6440  178.2200  139.9120 N   0  0  0  0  0  2  0  0  0  0  0  0
  188.6280  178.4530  138.9210 C   0  0  0  0  0  0  0  0  0  0  0  0
  188.8010  179.3630  138.0720 O   0  0  0  0  0  0  0  0  0  0  0  0
  189.5920  177.2510  140.9370 N   0  0  0  0  0  0  0  0  0  0  0  0
  190.8670  176.5460  140.9900 C   0  0  0  0  0  2  0  0  0  0  0  0
  192.5650  176.6290  138.8370 S   0  0  0  0  0  1  0  0  0  0  0  0
  191.9670  177.3930  140.3740 C   0  0  0  0  0  2  0  0  0  0  0  0
  189.3700  177.9210  142.2130 C   0  0  0  0  0  2  0  0  0  0  0  0
  188.9830  176.9220  143.2550 C   0  0  0  0  0  0  0  0  0  0  0  0
  188.0760  176.0880  142.9850 O   0  0  0  0  0  0  0  0  0  0  0  0
  189.6310  176.9110  144.5820 C   0  0  0  0  0  0  0  0  0  0  0  0
  191.6460  176.7600  145.9370 C   0  0  0  0  0  3  0  0  0  0  0  0
  189.4940  177.0630  147.0060 C   0  0  0  0  0  3  0  0  0  0  0  0
  190.8800  176.9130  147.0960 C   0  0  0  0  0  3  0  0  0  0  0  0
  188.8730  177.0640  145.7540 C   0  0  0  0  0  3  0  0  0  0  0  0
  191.0230  176.7600  144.6840 C   0  0  0  0  0  3  0  0  0  0  0  0
  181.4230  179.0540  138.8790 O   0  0  0  0  0  0  0  0  0  0  0  0
  180.6040  182.5880  138.0420 C   0  0  0  0  0  3  0  0  0  0  0  0
  180.1800  182.4470  136.7110 C   0  0  0  0  0  0  0  0  0  0  0  0
  180.5900  180.0590  136.8520 C   0  0  0  0  0  3  0  0  0  0  0  0
  181.0210  181.4700  138.7710 C   0  0  0  0  0  3  0  0  0  0  0  0
  181.0230  180.1970  138.1750 C   0  0  0  0  0  0  0  0  0  0  0  0
  180.1730  181.1770  136.1250 C   0  0  0  0  0  3  0  0  0  0  0  0
  179.7610  183.5450  135.9550 O   0  0  0  0  0  0  0  0  0  0  0  0
  180.6350  184.2700  135.1010 C   0  0  0  0  0  1  0  0  0  0  0  0
  1  6  1  0  0  0  0
  2 11  1  0  0  0  0
  2 12  1  0  0  0  0
  3 10  1  0  0  0  0
  4  8  2  0  0  0  0
  5  1  2  0  0  0  0
  7  9  2  0  0  0  0
  7  4  1  0  0  0  0
  8  1  1  0  0  0  0
  9  5  1  0  0  0  0
 10 11  2  0  0  0  0
 11  7  1  0  0  0  0
 12 15  2  0  0  0  0
 13  2  2  0  0  0  0
 14  3  2  0  0  0  0
 14 13  1  0  0  0  0
 15  4  1  0  0  0  0
 16 17  1  6  0  0  0
 16 18  1  0  0  0  0
 16  3  1  0  0  0  0
 18 20  1  0  0  0  0
 19 22  1  0  0  0  0
 20 19  1  0  0  0  0
 21 20  2  0  0  0  0
 22 23  1  0  0  0  0
 22 26  1  0  0  0  0
 24 25  1  0  0  0  0
 25 23  1  0  0  0  0
 26 27  1  0  0  0  0
 27 29  1  0  0  0  0
 28 27  2  0  0  0  0
 29 34  2  0  0  0  0
 29 33  1  0  0  0  0
 30 32  2  0  0  0  0
 31 32  1  0  0  0  0
 33 31  2  0  0  0  0
 34 30  1  0  0  0  0
 35 13  1  0  0  0  0
 36 39  1  0  0  0  0
 37 36  2  0  0  0  0
 38 40  1  0  0  0  0
 40 39  2  0  0  0  0
 40 35  1  0  0  0  0
 41 37  1  0  0  0  0
 41 38  2  0  0  0  0
 42 37  1  0  0  0  0
 43 42  1  0  0  0  0
M  END
>  <MODEL>
1

>  <REMARK>
 VINA RESULT:      -9.4      0.000      0.000
  Name = 
  12 active torsions:
  status: ('A' for Active; 'I' for Inactive)
    1  A    between atoms: O_1  and  C_34
    2  A    between atoms: O_1  and  C_35
    3  A    between atoms: C_2  and  C_6
    4  A    between atoms: C_2  and  C_13
    5  A    between atoms: N_3  and  N_4
    6  A    between atoms: N_4  and  C_15
    7  A    between atoms: N_4  and  C_22
    8  A    between atoms: C_6  and  C_12
    9  A    between atoms: C_11  and  C_14
   10  A    between atoms: C_14  and  C_22
   11  A    between atoms: C_15  and  C_42
   12  A    between atoms: C_19  and  O_25
                            x       y       z     vdW  Elec       q    Type
                         _______ _______ _______ _____ _____    ______ ____

>  <TORSDO>
F 12

$$$$
=
 OpenBabel11052416203D

 43 47  0  0  1  0  0  0  0  0999 V2000
  191.3190  176.6410  147.2110 C   0  0  0  0  0  0  0  0  0  0  0  0
  187.0680  177.9010  144.7520 C   0  0  0  0  0  0  0  0  0  0  0  0
  187.7570  178.1930  142.0450 C   0  0  0  0  0  0  0  0  0  0  0  0
  189.0340  177.2230  146.6490 C   0  0  0  0  0  0  0  0  0  0  0  0
  191.6800  176.7410  145.8660 C   0  0  0  0  0  3  0  0  0  0  0  0
  192.2520  176.3180  148.1390 F   0  0  0  0  0  0  0  0  0  0  0  0
  189.3900  177.3230  145.2830 C   0  0  0  0  0  0  0  0  0  0  0  0
  189.9990  176.8830  147.6020 C   0  0  0  0  0  3  0  0  0  0  0  0
  190.7230  177.0810  144.9070 C   0  0  0  0  0  3  0  0  0  0  0  0
  188.7290  177.8150  142.9750 C   0  0  0  0  0  3  0  0  0  0  0  0
  188.4050  177.6740  144.3310 C   0  0  0  0  0  0  0  0  0  0  0  0
  186.7490  177.8100  146.1130 C   0  0  0  0  0  3  0  0  0  0  0  0
  186.0820  178.2520  143.8010 C   0  0  0  0  0  0  0  0  0  0  0  0
  186.4420  178.4100  142.4610 C   0  0  0  0  0  3  0  0  0  0  0  0
  187.7220  177.4720  147.0520 C   0  0  0  0  0  3  0  0  0  0  0  0
  188.1040  178.3470  140.6010 C   0  0  2  0  0  3  0  0  0  0  0  0
  186.9520  178.5620  139.8660 F   0  0  0  0  0  0  0  0  0  0  0  0
  188.8440  177.1130  140.0980 C   0  0  0  0  0  2  0  0  0  0  0  0
  190.5560  177.3060  138.1980 N   0  0  0  0  0  2  0  0  0  0  0  0
  190.2060  177.4610  139.5840 C   0  0  0  0  0  0  0  0  0  0  0  0
  191.0760  177.8780  140.3900 O   0  0  0  0  0  0  0  0  0  0  0  0
  189.7010  176.8380  137.1780 N   0  0  0  0  0  0  0  0  0  0  0  0
  189.2020  177.9770  136.4160 C   0  0  0  0  0  2  0  0  0  0  0  0
  186.6620  177.0290  136.0000 S   0  0  0  0  0  1  0  0  0  0  0  0
  187.7530  178.2600  136.7720 C   0  0  0  0  0  2  0  0  0  0  0  0
  190.4580  175.9680  136.2850 C   0  0  0  0  0  2  0  0  0  0  0  0
  190.8420  174.7120  136.9990 C   0  0  0  0  0  0  0  0  0  0  0  0
  189.9430  174.0560  137.5930 O   0  0  0  0  0  0  0  0  0  0  0  0
  192.2430  174.2470  137.0280 C   0  0  0  0  0  0  0  0  0  0  0  0
  194.5430  174.5470  137.7610 C   0  0  0  0  0  3  0  0  0  0  0  0
  193.9470  172.6210  136.4190 C   0  0  0  0  0  3  0  0  0  0  0  0
  194.9060  173.3640  137.1110 C   0  0  0  0  0  3  0  0  0  0  0  0
  192.6210  173.0600  136.3790 C   0  0  0  0  0  3  0  0  0  0  0  0
  193.2160  174.9870  137.7190 C   0  0  0  0  0  3  0  0  0  0  0  0
  184.7460  178.4740  144.1590 O   0  0  0  0  0  0  0  0  0  0  0  0
  182.7790  178.3650  140.9990 C   0  0  0  0  0  3  0  0  0  0  0  0
  181.5250  178.7960  141.4590 C   0  0  0  0  0  0  0  0  0  0  0  0
  182.4380  179.0030  143.6990 C   0  0  0  0  0  3  0  0  0  0  0  0
  183.8550  178.2530  141.8850 C   0  0  0  0  0  3  0  0  0  0  0  0
  183.6870  178.5640  143.2450 C   0  0  0  0  0  0  0  0  0  0  0  0
  181.3640  179.1160  142.8120 C   0  0  0  0  0  3  0  0  0  0  0  0
  180.4300  178.9160  140.6000 O   0  0  0  0  0  0  0  0  0  0  0  0
  180.1470  180.1040  139.8740 C   0  0  0  0  0  1  0  0  0  0  0  0
  1  8  1  0  0  0  0
  1  6  1  0  0  0  0
  2 12  1  0  0  0  0
  3 14  2  0  0  0  0
  3 10  1  0  0  0  0
  4 15  1  0  0  0  0
  4  8  2  0  0  0  0
  5  1  2  0  0  0  0
  7  4  1  0  0  0  0
  9  7  2  0  0  0  0
  9  5  1  0  0  0  0
 10 11  2  0  0  0  0
 11  2  1  0  0  0  0
 11  7  1  0  0  0  0
 12 15  2  0  0  0  0
 13 35  1  0  0  0  0
 13  2  2  0  0  0  0
 14 13  1  0  0  0  0
 16 17  1  6  0  0  0
 16  3  1  0  0  0  0
 18 16  1  0  0  0  0
 19 20  1  0  0  0  0
 20 18  1  0  0  0  0
 20 21  2  0  0  0  0
 22 19  1  0  0  0  0
 23 25  1  0  0  0  0
 23 22  1  0  0  0  0
 24 25  1  0  0  0  0
 26 27  1  0  0  0  0
 26 22  1  0  0  0  0
 27 29  1  0  0  0  0
 27 28  2  0  0  0  0
 29 34  1  0  0  0  0
 31 32  2  0  0  0  0
 32 30  1  0  0  0  0
 33 31  1  0  0  0  0
 33 29  2  0  0  0  0
 34 30  2  0  0  0  0
 36 37  2  0  0  0  0
 36 39  1  0  0  0  0
 37 41  1  0  0  0  0
 39 40  2  0  0  0  0
 40 38  1  0  0  0  0
 40 35  1  0  0  0  0
 41 38  2  0  0  0  0
 42 37  1  0  0  0  0
 43 42  1  0  0  0  0
M  END
>  <MODEL>
2

>  <REMARK>
 VINA RESULT:      -8.8      3.213      6.478
  Name = 
  12 active torsions:
  status: ('A' for Active; 'I' for Inactive)
    1  A    between atoms: O_1  and  C_34
    2  A    between atoms: O_1  and  C_35
    3  A    between atoms: C_2  and  C_6
    4  A    between atoms: C_2  and  C_13
    5  A    between atoms: N_3  and  N_4
    6  A    between atoms: N_4  and  C_15
    7  A    between atoms: N_4  and  C_22
    8  A    between atoms: C_6  and  C_12
    9  A    between atoms: C_11  and  C_14
   10  A    between atoms: C_14  and  C_22
   11  A    between atoms: C_15  and  C_42
   12  A    between atoms: C_19  and  O_25
                            x       y       z     vdW  Elec       q    Type
                         _______ _______ _______ _____ _____    ______ ____

>  <TORSDO>
F 12

$$$$
=
 OpenBabel11052416203D

 43 47  0  0  1  0  0  0  0  0999 V2000
  191.4400  176.4040  147.2840 C   0  0  0  0  0  0  0  0  0  0  0  0
  187.2620  177.8380  144.7950 C   0  0  0  0  0  0  0  0  0  0  0  0
  187.9670  178.0390  142.0830 C   0  0  0  0  0  0  0  0  0  0  0  0
  189.1890  177.0950  146.7080 C   0  0  0  0  0  0  0  0  0  0  0  0
  191.8070  176.4580  145.9380 C   0  0  0  0  0  3  0  0  0  0  0  0
  192.3540  176.0500  148.2190 F   0  0  0  0  0  0  0  0  0  0  0  0
  189.5500  177.1490  145.3400 C   0  0  0  0  0  0  0  0  0  0  0  0
  190.1350  176.7230  147.6690 C   0  0  0  0  0  3  0  0  0  0  0  0
  190.8690  176.8290  144.9710 C   0  0  0  0  0  3  0  0  0  0  0  0
  188.9170  177.6290  143.0220 C   0  0  0  0  0  3  0  0  0  0  0  0
  188.5860  177.5320  144.3800 C   0  0  0  0  0  0  0  0  0  0  0  0
  186.9390  177.7920  146.1570 C   0  0  0  0  0  3  0  0  0  0  0  0
  186.2970  178.2220  143.8360 C   0  0  0  0  0  0  0  0  0  0  0  0
  186.6650  178.3350  142.4930 C   0  0  0  0  0  3  0  0  0  0  0  0
  187.8920  177.4210  147.1040 C   0  0  0  0  0  3  0  0  0  0  0  0
  188.3220  178.1460  140.6370 C   0  0  2  0  0  3  0  0  0  0  0  0
  187.1700  178.2890  139.8850 F   0  0  0  0  0  0  0  0  0  0  0  0
  189.1100  176.9200  140.1920 C   0  0  0  0  0  2  0  0  0  0  0  0
  190.4250  177.2730  138.0180 N   0  0  0  0  0  2  0  0  0  0  0  0
  190.3540  177.3050  139.4540 C   0  0  0  0  0  0  0  0  0  0  0  0
  191.3730  177.6420  140.1090 O   0  0  0  0  0  0  0  0  0  0  0  0
  189.3770  176.9040  137.1480 N   0  0  0  0  0  0  0  0  0  0  0  0
  189.0300  178.0460  136.3110 C   0  0  0  0  0  2  0  0  0  0  0  0
  186.3240  177.7040  136.6000 S   0  0  0  0  0  1  0  0  0  0  0  0
  187.7750  177.7520  135.5070 C   0  0  0  0  0  2  0  0  0  0  0  0
  189.8320  175.8130  136.2930 C   0  0  0  0  0  2  0  0  0  0  0  0
  189.6060  174.5010  136.9730 C   0  0  0  0  0  0  0  0  0  0  0  0
  190.5040  174.0550  137.7390 O   0  0  0  0  0  0  0  0  0  0  0  0
  188.3690  173.7270  136.7480 C   0  0  0  0  0  0  0  0  0  0  0  0
  185.9430  173.5650  136.8440 C   0  0  0  0  0  3  0  0  0  0  0  0
  187.2430  171.7090  135.9890 C   0  0  0  0  0  3  0  0  0  0  0  0
  186.0060  172.2770  136.3050 C   0  0  0  0  0  3  0  0  0  0  0  0
  188.4180  172.4330  136.2080 C   0  0  0  0  0  3  0  0  0  0  0  0
  187.1210  174.2870  137.0650 C   0  0  0  0  0  3  0  0  0  0  0  0
  184.9740  178.5220  144.1880 O   0  0  0  0  0  0  0  0  0  0  0  0
  183.0040  178.3960  141.0310 C   0  0  0  0  0  3  0  0  0  0  0  0
  181.7300  178.7440  141.5060 C   0  0  0  0  0  0  0  0  0  0  0  0
  182.6400  178.9370  143.7490 C   0  0  0  0  0  3  0  0  0  0  0  0
  184.0870  178.3170  141.9110 C   0  0  0  0  0  3  0  0  0  0  0  0
  183.9090  178.5810  143.2790 C   0  0  0  0  0  0  0  0  0  0  0  0
  181.5570  179.0170  142.8680 C   0  0  0  0  0  3  0  0  0  0  0  0
  180.6260  178.8290  140.6530 O   0  0  0  0  0  0  0  0  0  0  0  0
  180.1740  180.0560  140.0990 C   0  0  0  0  0  1  0  0  0  0  0  0
  1  8  1  0  0  0  0
  1  6  1  0  0  0  0
  2 12  1  0  0  0  0
  3 14  2  0  0  0  0
  3 10  1  0  0  0  0
  4 15  1  0  0  0  0
  4  8  2  0  0  0  0
  5  1  2  0  0  0  0
  7  4  1  0  0  0  0
  9  7  2  0  0  0  0
  9  5  1  0  0  0  0
 10 11  2  0  0  0  0
 11  2  1  0  0  0  0
 11  7  1  0  0  0  0
 12 15  2  0  0  0  0
 13 35  1  0  0  0  0
 13  2  2  0  0  0  0
 14 13  1  0  0  0  0
 16 17  1  6  0  0  0
 16  3  1  0  0  0  0
 18 16  1  0  0  0  0
 19 20  1  0  0  0  0
 20 21  2  0  0  0  0
 20 18  1  0  0  0  0
 22 19  1  0  0  0  0
 23 22  1  0  0  0  0
 25 23  1  0  0  0  0
 25 24  1  0  0  0  0
 26 27  1  0  0  0  0
 26 22  1  0  0  0  0
 27 28  2  0  0  0  0
 29 27  1  0  0  0  0
 29 34  1  0  0  0  0
 30 34  2  0  0  0  0
 31 33  1  0  0  0  0
 31 32  2  0  0  0  0
 32 30  1  0  0  0  0
 33 29  2  0  0  0  0
 36 37  2  0  0  0  0
 36 39  1  0  0  0  0
 37 41  1  0  0  0  0
 39 40  2  0  0  0  0
 40 38  1  0  0  0  0
 40 35  1  0  0  0  0
 41 38  2  0  0  0  0
 42 37  1  0  0  0  0
 43 42  1  0  0  0  0
M  END
>  <MODEL>
3

>  <REMARK>
 VINA RESULT:      -8.8      3.278      6.774
  Name = 
  12 active torsions:
  status: ('A' for Active; 'I' for Inactive)
    1  A    between atoms: O_1  and  C_34
    2  A    between atoms: O_1  and  C_35
    3  A    between atoms: C_2  and  C_6
    4  A    between atoms: C_2  and  C_13
    5  A    between atoms: N_3  and  N_4
    6  A    between atoms: N_4  and  C_15
    7  A    between atoms: N_4  and  C_22
    8  A    between atoms: C_6  and  C_12
    9  A    between atoms: C_11  and  C_14
   10  A    between atoms: C_14  and  C_22
   11  A    between atoms: C_15  and  C_42
   12  A    between atoms: C_19  and  O_25
                            x       y       z     vdW  Elec       q    Type
                         _______ _______ _______ _____ _____    ______ ____

>  <TORSDO>
F 12

$$$$
=
 OpenBabel11052416203D

 43 47  0  0  1  0  0  0  0  0999 V2000
  188.0930  177.3420  147.1530 C   0  0  0  0  0  0  0  0  0  0  0  0
  185.9320  178.4480  142.7020 C   0  0  0  0  0  0  0  0  0  0  0  0
  187.9600  178.3090  140.7620 C   0  0  0  0  0  0  0  0  0  0  0  0
  186.5250  177.9530  145.4080 C   0  0  0  0  0  0  0  0  0  0  0  0
  189.1110  177.2270  146.2040 C   0  0  0  0  0  3  0  0  0  0  0  0
  188.3600  177.1090  148.4610 F   0  0  0  0  0  0  0  0  0  0  0  0
  187.5490  177.8350  144.4390 C   0  0  0  0  0  0  0  0  0  0  0  0
  186.8030  177.7050  146.7560 C   0  0  0  0  0  3  0  0  0  0  0  0
  188.8420  177.4730  144.8550 C   0  0  0  0  0  3  0  0  0  0  0  0
  188.2520  178.0210  142.0980 C   0  0  0  0  0  3  0  0  0  0  0  0
  187.2550  178.0940  143.0800 C   0  0  0  0  0  0  0  0  0  0  0  0
  184.9440  178.5730  143.6850 C   0  0  0  0  0  3  0  0  0  0  0  0
  185.6370  178.7080  141.3430 C   0  0  0  0  0  0  0  0  0  0  0  0
  186.6590  178.6520  140.3920 C   0  0  0  0  0  3  0  0  0  0  0  0
  185.2360  178.3240  145.0250 C   0  0  0  0  0  3  0  0  0  0  0  0
  189.0240  178.2350  139.7180 C   0  0  2  0  0  3  0  0  0  0  0  0
  188.4710  178.4740  138.4730 F   0  0  0  0  0  0  0  0  0  0  0  0
  189.7080  176.8730  139.7530 C   0  0  0  0  0  2  0  0  0  0  0  0
  191.8490  176.6840  138.3540 N   0  0  0  0  0  2  0  0  0  0  0  0
  191.1910  176.9990  139.5930 C   0  0  0  0  0  0  0  0  0  0  0  0
  191.8830  177.3670  140.5760 O   0  0  0  0  0  0  0  0  0  0  0  0
  191.2170  176.2450  137.1720 N   0  0  0  0  0  0  0  0  0  0  0  0
  192.2320  176.0010  136.1530 C   0  0  0  0  0  2  0  0  0  0  0  0
  194.1710  174.2020  136.8790 S   0  0  0  0  0  1  0  0  0  0  0  0
  193.6110  175.9280  136.7850 C   0  0  0  0  0  2  0  0  0  0  0  0
  190.5130  174.9970  137.4440 C   0  0  0  0  0  2  0  0  0  0  0  0
  189.3920  174.8190  136.4710 C   0  0  0  0  0  0  0  0  0  0  0  0
  189.4380  173.8470  135.6680 O   0  0  0  0  0  0  0  0  0  0  0  0
  188.2580  175.7630  136.4310 C   0  0  0  0  0  0  0  0  0  0  0  0
  187.1850  177.7210  135.4660 C   0  0  0  0  0  3  0  0  0  0  0  0
  186.0850  176.4970  137.2420 C   0  0  0  0  0  3  0  0  0  0  0  0
  186.0980  177.5530  136.3280 C   0  0  0  0  0  3  0  0  0  0  0  0
  187.1600  175.6050  137.2920 C   0  0  0  0  0  3  0  0  0  0  0  0
  188.2610  176.8290  135.5180 C   0  0  0  0  0  3  0  0  0  0  0  0
  184.3480  179.0480  140.9120 O   0  0  0  0  0  0  0  0  0  0  0  0
  182.6840  178.1650  137.7010 C   0  0  0  0  0  3  0  0  0  0  0  0
  182.1630  176.9010  138.0180 C   0  0  0  0  0  0  0  0  0  0  0  0
  183.1040  177.0930  140.2480 C   0  0  0  0  0  3  0  0  0  0  0  0
  183.4120  178.8860  138.6520 C   0  0  0  0  0  3  0  0  0  0  0  0
  183.6330  178.3490  139.9310 C   0  0  0  0  0  0  0  0  0  0  0  0
  182.3750  176.3730  139.2970 C   0  0  0  0  0  3  0  0  0  0  0  0
  181.4330  176.1530  137.0900 O   0  0  0  0  0  0  0  0  0  0  0  0
  180.9680  174.8370  137.3560 C   0  0  0  0  0  1  0  0  0  0  0  0
  1  6  1  0  0  0  0
  2 11  1  0  0  0  0
  2 12  1  0  0  0  0
  3 10  1  0  0  0  0
  4  8  2  0  0  0  0
  5  1  2  0  0  0  0
  7  9  2  0  0  0  0
  7  4  1  0  0  0  0
  8  1  1  0  0  0  0
  9  5  1  0  0  0  0
 10 11  2  0  0  0  0
 11  7  1  0  0  0  0
 12 15  2  0  0  0  0
 13  2  2  0  0  0  0
 14  3  2  0  0  0  0
 14 13  1  0  0  0  0
 15  4  1  0  0  0  0
 16 17  1  6  0  0  0
 16 18  1  0  0  0  0
 16  3  1  0  0  0  0
 19 20  1  0  0  0  0
 20 18  1  0  0  0  0
 20 21  2  0  0  0  0
 22 26  1  0  0  0  0
 22 19  1  0  0  0  0
 23 25  1  0  0  0  0
 23 22  1  0  0  0  0
 25 24  1  0  0  0  0
 27 26  1  0  0  0  0
 28 27  2  0  0  0  0
 29 27  1  0  0  0  0
 29 33  1  0  0  0  0
 30 34  1  0  0  0  0
 30 32  2  0  0  0  0
 31 33  2  0  0  0  0
 32 31  1  0  0  0  0
 34 29  2  0  0  0  0
 35 13  1  0  0  0  0
 36 37  2  0  0  0  0
 36 39  1  0  0  0  0
 37 41  1  0  0  0  0
 39 40  2  0  0  0  0
 40 38  1  0  0  0  0
 40 35  1  0  0  0  0
 41 38  2  0  0  0  0
 42 43  1  0  0  0  0
 42 37  1  0  0  0  0
M  END
>  <MODEL>
4

>  <REMARK>
 VINA RESULT:      -8.8      2.988      5.745
  Name = 
  12 active torsions:
  status: ('A' for Active; 'I' for Inactive)
    1  A    between atoms: O_1  and  C_34
    2  A    between atoms: O_1  and  C_35
    3  A    between atoms: C_2  and  C_6
    4  A    between atoms: C_2  and  C_13
    5  A    between atoms: N_3  and  N_4
    6  A    between atoms: N_4  and  C_15
    7  A    between atoms: N_4  and  C_22
    8  A    between atoms: C_6  and  C_12
    9  A    between atoms: C_11  and  C_14
   10  A    between atoms: C_14  and  C_22
   11  A    between atoms: C_15  and  C_42
   12  A    between atoms: C_19  and  O_25
                            x       y       z     vdW  Elec       q    Type
                         _______ _______ _______ _____ _____    ______ ____

>  <TORSDO>
F 12

$$$$
=
 OpenBabel11052416203D

 43 47  0  0  1  0  0  0  0  0999 V2000
  193.6980  175.4360  136.4610 C   0  0  0  0  0  0  0  0  0  0  0  0
  190.2810  177.4840  139.5980 C   0  0  0  0  0  0  0  0  0  0  0  0
  187.8410  177.5440  138.2050 C   0  0  0  0  0  0  0  0  0  0  0  0
  192.5940  176.4670  138.3580 C   0  0  0  0  0  0  0  0  0  0  0  0
  192.4900  175.4190  135.7610 C   0  0  0  0  0  3  0  0  0  0  0  0
  194.8230  174.9530  135.8800 F   0  0  0  0  0  0  0  0  0  0  0  0
  191.3640  176.4490  137.6570 C   0  0  0  0  0  0  0  0  0  0  0  0
  193.7510  175.9610  137.7560 C   0  0  0  0  0  3  0  0  0  0  0  0
  191.3300  175.9220  136.3540 C   0  0  0  0  0  3  0  0  0  0  0  0
  188.9770  176.9990  137.6000 C   0  0  0  0  0  3  0  0  0  0  0  0
  190.2040  176.9690  138.2760 C   0  0  0  0  0  0  0  0  0  0  0  0
  191.5150  177.5030  140.2590 C   0  0  0  0  0  3  0  0  0  0  0  0
  189.1210  178.0050  140.2170 C   0  0  0  0  0  0  0  0  0  0  0  0
  187.9190  178.0440  139.5070 C   0  0  0  0  0  3  0  0  0  0  0  0
  192.6600  176.9960  139.6470 C   0  0  0  0  0  3  0  0  0  0  0  0
  186.5360  177.5800  137.4830 C   0  0  2  0  0  3  0  0  0  0  0  0
  186.6870  178.2470  136.2810 F   0  0  0  0  0  0  0  0  0  0  0  0
  185.4710  178.2510  138.3430 C   0  0  0  0  0  2  0  0  0  0  0  0
  183.2500  177.6600  139.4820 N   0  0  0  0  0  2  0  0  0  0  0  0
  184.2630  177.3800  138.5000 C   0  0  0  0  0  0  0  0  0  0  0  0
  184.1430  176.3640  137.7710 O   0  0  0  0  0  0  0  0  0  0  0  0
  183.2490  178.7470  140.3810 N   0  0  0  0  0  0  0  0  0  0  0  0
  181.9400  179.3870  140.3520 C   0  0  0  0  0  2  0  0  0  0  0  0
  179.5170  178.3180  141.0670 S   0  0  0  0  0  1  0  0  0  0  0  0
  181.1280  178.9910  141.5720 C   0  0  0  0  0  2  0  0  0  0  0  0
  183.5010  178.2490  141.7290 C   0  0  0  0  0  2  0  0  0  0  0  0
  184.7410  178.8740  142.2820 C   0  0  0  0  0  0  0  0  0  0  0  0
  185.3880  179.6780  141.5560 O   0  0  0  0  0  0  0  0  0  0  0  0
  185.2170  178.5530  143.6430 C   0  0  0  0  0  0  0  0  0  0  0  0
  186.8970  177.5780  145.1070 C   0  0  0  0  0  3  0  0  0  0  0  0
  184.9340  178.6300  146.0570 C   0  0  0  0  0  3  0  0  0  0  0  0
  186.1460  177.9570  146.2230 C   0  0  0  0  0  3  0  0  0  0  0  0
  184.4720  178.9280  144.7720 C   0  0  0  0  0  3  0  0  0  0  0  0
  186.4340  177.8750  143.8210 C   0  0  0  0  0  3  0  0  0  0  0  0
  189.1370  178.5120  141.5220 O   0  0  0  0  0  0  0  0  0  0  0  0
  191.4600  178.1000  144.4030 C   0  0  0  0  0  3  0  0  0  0  0  0
  191.2930  176.7340  144.6770 C   0  0  0  0  0  0  0  0  0  0  0  0
  189.7010  176.5810  142.8520 C   0  0  0  0  0  3  0  0  0  0  0  0
  190.7490  178.7020  143.3610 C   0  0  0  0  0  3  0  0  0  0  0  0
  189.8580  177.9450  142.5820 C   0  0  0  0  0  0  0  0  0  0  0  0
  190.4130  175.9800  143.8930 C   0  0  0  0  0  3  0  0  0  0  0  0
  191.9870  176.1030  145.7140 O   0  0  0  0  0  0  0  0  0  0  0  0
  191.6460  176.2740  147.0820 C   0  0  0  0  0  1  0  0  0  0  0  0
  1  8  1  0  0  0  0
  2 13  1  0  0  0  0
  2 12  1  0  0  0  0
  3 14  1  0  0  0  0
  4 15  1  0  0  0  0
  5  9  1  0  0  0  0
  5  1  2  0  0  0  0
  6  1  1  0  0  0  0
  7 11  1  0  0  0  0
  7  4  1  0  0  0  0
  8  4  2  0  0  0  0
  9  7  2  0  0  0  0
 10  3  2  0  0  0  0
 10 11  1  0  0  0  0
 11  2  2  0  0  0  0
 13 35  1  0  0  0  0
 14 13  2  0  0  0  0
 15 12  2  0  0  0  0
 16 17  1  6  0  0  0
 16  3  1  0  0  0  0
 16 18  1  0  0  0  0
 18 20  1  0  0  0  0
 19 22  1  0  0  0  0
 20 19  1  0  0  0  0
 21 20  2  0  0  0  0
 22 26  1  0  0  0  0
 23 22  1  0  0  0  0
 23 25  1  0  0  0  0
 24 25  1  0  0  0  0
 26 27  1  0  0  0  0
 27 29  1  0  0  0  0
 28 27  2  0  0  0  0
 29 34  2  0  0  0  0
 29 33  1  0  0  0  0
 30 32  2  0  0  0  0
 31 32  1  0  0  0  0
 33 31  2  0  0  0  0
 34 30  1  0  0  0  0
 35 40  1  0  0  0  0
 36 37  1  0  0  0  0
 37 42  1  0  0  0  0
 38 41  1  0  0  0  0
 39 36  2  0  0  0  0
 40 38  2  0  0  0  0
 40 39  1  0  0  0  0
 41 37  2  0  0  0  0
 42 43  1  0  0  0  0
M  END
>  <MODEL>
5

>  <REMARK>
 VINA RESULT:      -8.7      3.982      9.440
  Name = 
  12 active torsions:
  status: ('A' for Active; 'I' for Inactive)
    1  A    between atoms: O_1  and  C_34
    2  A    between atoms: O_1  and  C_35
    3  A    between atoms: C_2  and  C_6
    4  A    between atoms: C_2  and  C_13
    5  A    between atoms: N_3  and  N_4
    6  A    between atoms: N_4  and  C_15
    7  A    between atoms: N_4  and  C_22
    8  A    between atoms: C_6  and  C_12
    9  A    between atoms: C_11  and  C_14
   10  A    between atoms: C_14  and  C_22
   11  A    between atoms: C_15  and  C_42
   12  A    between atoms: C_19  and  O_25
                            x       y       z     vdW  Elec       q    Type
                         _______ _______ _______ _____ _____    ______ ____

>  <TORSDO>
F 12

$$$$
=
 OpenBabel11052416203D

 43 47  0  0  1  0  0  0  0  0999 V2000
  191.0090  176.6250  146.9980 C   0  0  0  0  0  0  0  0  0  0  0  0
  189.3860  177.7820  142.3360 C   0  0  0  0  0  0  0  0  0  0  0  0
  186.6210  178.2350  142.5330 C   0  0  0  0  0  0  0  0  0  0  0  0
  190.8700  177.0670  144.6180 C   0  0  0  0  0  0  0  0  0  0  0  0
  189.6440  176.8830  147.1300 C   0  0  0  0  0  3  0  0  0  0  0  0
  191.7400  176.2780  148.0850 F   0  0  0  0  0  0  0  0  0  0  0  0
  189.4860  177.3350  144.7430 C   0  0  0  0  0  0  0  0  0  0  0  0
  191.6210  176.7160  145.7440 C   0  0  0  0  0  3  0  0  0  0  0  0
  188.8860  177.2350  146.0110 C   0  0  0  0  0  3  0  0  0  0  0  0
  187.3590  177.9220  143.6770 C   0  0  0  0  0  3  0  0  0  0  0  0
  188.7380  177.6840  143.5960 C   0  0  0  0  0  0  0  0  0  0  0  0
  190.7530  177.4960  142.2400 C   0  0  0  0  0  3  0  0  0  0  0  0
  188.6390  178.1300  141.1870 C   0  0  0  0  0  0  0  0  0  0  0  0
  187.2610  178.3360  141.2960 C   0  0  0  0  0  3  0  0  0  0  0  0
  191.4890  177.1450  143.3700 C   0  0  0  0  0  3  0  0  0  0  0  0
  185.1520  178.4840  142.6190 C   0  0  2  0  0  3  0  0  0  0  0  0
  184.6580  177.9500  143.7960 F   0  0  0  0  0  0  0  0  0  0  0  0
  184.4390  177.8850  141.4130 C   0  0  0  0  0  2  0  0  0  0  0  0
  182.3730  179.0400  140.4240 N   0  0  0  0  0  2  0  0  0  0  0  0
  183.8010  178.9450  140.5700 C   0  0  0  0  0  0  0  0  0  0  0  0
  184.5330  179.7590  139.9530 O   0  0  0  0  0  0  0  0  0  0  0  0
  181.4230  178.1950  141.0350 N   0  0  0  0  0  0  0  0  0  0  0  0
  180.6970  178.9510  142.0490 C   0  0  0  0  0  2  0  0  0  0  0  0
  179.1580  181.0780  141.2530 S   0  0  0  0  0  1  0  0  0  0  0  0
  179.3010  179.2920  141.5580 C   0  0  0  0  0  2  0  0  0  0  0  0
  180.4780  177.7330  140.0250 C   0  0  0  0  0  2  0  0  0  0  0  0
  180.4910  176.2390  139.9570 C   0  0  0  0  0  0  0  0  0  0  0  0
  179.7840  175.5910  140.7760 O   0  0  0  0  0  0  0  0  0  0  0  0
  181.3230  175.5270  138.9660 C   0  0  0  0  0  0  0  0  0  0  0  0
  183.5140  175.0050  138.0460 C   0  0  0  0  0  3  0  0  0  0  0  0
  181.5320  173.9970  137.0870 C   0  0  0  0  0  3  0  0  0  0  0  0
  182.9190  174.1610  137.1040 C   0  0  0  0  0  3  0  0  0  0  0  0
  180.7380  174.6760  138.0150 C   0  0  0  0  0  3  0  0  0  0  0  0
  182.7180  175.6860  138.9730 C   0  0  0  0  0  3  0  0  0  0  0  0
  189.2290  178.2550  139.9220 O   0  0  0  0  0  0  0  0  0  0  0  0
  188.1310  175.9600  137.2040 C   0  0  0  0  0  3  0  0  0  0  0  0
  189.2920  175.1900  137.0300 C   0  0  0  0  0  0  0  0  0  0  0  0
  190.3820  176.4720  138.7790 C   0  0  0  0  0  3  0  0  0  0  0  0
  188.0990  176.9800  138.1590 C   0  0  0  0  0  3  0  0  0  0  0  0
  189.2300  177.2470  138.9480 C   0  0  0  0  0  0  0  0  0  0  0  0
  190.4140  175.4520  137.8250 C   0  0  0  0  0  3  0  0  0  0  0  0
  189.3580  174.1660  136.0820 O   0  0  0  0  0  0  0  0  0  0  0  0
  190.4800  173.3030  135.9580 C   0  0  0  0  0  1  0  0  0  0  0  0
  1  5  1  0  0  0  0
  1  6  1  0  0  0  0
  2 11  1  0  0  0  0
  3 16  1  0  0  0  0
  3 10  1  0  0  0  0
  4  7  2  0  0  0  0
  4  8  1  0  0  0  0
  7  9  1  0  0  0  0
  8  1  2  0  0  0  0
  9  5  2  0  0  0  0
 11 10  2  0  0  0  0
 11  7  1  0  0  0  0
 12  2  1  0  0  0  0
 12 15  2  0  0  0  0
 13 14  1  0  0  0  0
 13  2  2  0  0  0  0
 14  3  2  0  0  0  0
 15  4  1  0  0  0  0
 16 17  1  1  0  0  0
 18 16  1  0  0  0  0
 19 20  1  0  0  0  0
 19 22  1  0  0  0  0
 20 18  1  0  0  0  0
 21 20  2  0  0  0  0
 22 23  1  0  0  0  0
 24 25  1  0  0  0  0
 25 23  1  0  0  0  0
 26 22  1  0  0  0  0
 27 26  1  0  0  0  0
 27 28  2  0  0  0  0
 29 34  1  0  0  0  0
 29 27  1  0  0  0  0
 30 34  2  0  0  0  0
 31 32  2  0  0  0  0
 31 33  1  0  0  0  0
 32 30  1  0  0  0  0
 33 29  2  0  0  0  0
 35 13  1  0  0  0  0
 36 39  1  0  0  0  0
 37 36  2  0  0  0  0
 37 41  1  0  0  0  0
 38 40  1  0  0  0  0
 39 40  2  0  0  0  0
 40 35  1  0  0  0  0
 41 38  2  0  0  0  0
 42 37  1  0  0  0  0
 43 42  1  0  0  0  0
M  END
>  <MODEL>
6

>  <REMARK>
 VINA RESULT:      -8.6      4.074      9.059
  Name = 
  12 active torsions:
  status: ('A' for Active; 'I' for Inactive)
    1  A    between atoms: O_1  and  C_34
    2  A    between atoms: O_1  and  C_35
    3  A    between atoms: C_2  and  C_6
    4  A    between atoms: C_2  and  C_13
    5  A    between atoms: N_3  and  N_4
    6  A    between atoms: N_4  and  C_15
    7  A    between atoms: N_4  and  C_22
    8  A    between atoms: C_6  and  C_12
    9  A    between atoms: C_11  and  C_14
   10  A    between atoms: C_14  and  C_22
   11  A    between atoms: C_15  and  C_42
   12  A    between atoms: C_19  and  O_25
                            x       y       z     vdW  Elec       q    Type
                         _______ _______ _______ _____ _____    ______ ____

>  <TORSDO>
F 12

$$$$
=
 OpenBabel11052416203D

 43 47  0  0  1  0  0  0  0  0999 V2000
  190.7440  176.6880  146.7460 C   0  0  0  0  0  0  0  0  0  0  0  0
  189.8450  177.6250  141.8450 C   0  0  0  0  0  0  0  0  0  0  0  0
  187.1650  178.4470  141.6580 C   0  0  0  0  0  0  0  0  0  0  0  0
  190.9420  176.9300  144.3420 C   0  0  0  0  0  0  0  0  0  0  0  0
  189.4210  177.1310  146.6860 C   0  0  0  0  0  3  0  0  0  0  0  0
  191.2890  176.3470  147.9390 F   0  0  0  0  0  0  0  0  0  0  0  0
  189.6040  177.3840  144.2720 C   0  0  0  0  0  0  0  0  0  0  0  0
  191.5030  176.5860  145.5760 C   0  0  0  0  0  3  0  0  0  0  0  0
  188.8530  177.4760  145.4570 C   0  0  0  0  0  3  0  0  0  0  0  0
  187.7160  178.1440  142.9060 C   0  0  0  0  0  3  0  0  0  0  0  0
  189.0490  177.7230  143.0170 C   0  0  0  0  0  0  0  0  0  0  0  0
  191.1610  177.1570  141.9440 C   0  0  0  0  0  3  0  0  0  0  0  0
  189.2910  177.9630  140.5880 C   0  0  0  0  0  0  0  0  0  0  0  0
  187.9520  178.3540  140.5080 C   0  0  0  0  0  3  0  0  0  0  0  0
  191.7060  176.8160  143.1800 C   0  0  0  0  0  3  0  0  0  0  0  0
  185.7450  178.8900  141.5400 C   0  0  2  0  0  3  0  0  0  0  0  0
  185.5970  180.1360  142.1210 F   0  0  0  0  0  0  0  0  0  0  0  0
  184.8150  177.8750  142.1950 C   0  0  0  0  0  2  0  0  0  0  0  0
  182.3940  178.7070  142.0390 N   0  0  0  0  0  2  0  0  0  0  0  0
  183.6100  178.5360  142.7880 C   0  0  0  0  0  0  0  0  0  0  0  0
  183.6700  178.9750  143.9640 O   0  0  0  0  0  0  0  0  0  0  0  0
  182.1770  178.2860  140.7100 N   0  0  0  0  0  0  0  0  0  0  0  0
  180.8850  177.6140  140.6300 C   0  0  0  0  0  2  0  0  0  0  0  0
  179.7530  175.1290  140.3770 S   0  0  0  0  0  1  0  0  0  0  0  0
  181.0040  176.3280  139.8320 C   0  0  0  0  0  2  0  0  0  0  0  0
  182.1550  179.4550  139.8380 C   0  0  0  0  0  2  0  0  0  0  0  0
  183.3920  179.4920  139.0000 C   0  0  0  0  0  0  0  0  0  0  0  0
  184.1550  180.4930  139.0920 O   0  0  0  0  0  0  0  0  0  0  0  0
  183.7180  178.3930  138.0690 C   0  0  0  0  0  0  0  0  0  0  0  0
  183.0500  176.8860  136.2800 C   0  0  0  0  0  3  0  0  0  0  0  0
  185.3010  176.7840  137.1650 C   0  0  0  0  0  3  0  0  0  0  0  0
  184.3280  176.3210  136.2770 C   0  0  0  0  0  3  0  0  0  0  0  0
  184.9970  177.8170  138.0560 C   0  0  0  0  0  3  0  0  0  0  0  0
  182.7460  177.9190  137.1730 C   0  0  0  0  0  3  0  0  0  0  0  0
  190.0340  177.8970  139.4030 O   0  0  0  0  0  0  0  0  0  0  0  0
  190.5660  174.7320  137.5150 C   0  0  0  0  0  3  0  0  0  0  0  0
  189.6290  174.8860  136.4820 C   0  0  0  0  0  0  0  0  0  0  0  0
  188.9840  177.0340  137.4110 C   0  0  0  0  0  3  0  0  0  0  0  0
  190.7080  175.7230  138.4910 C   0  0  0  0  0  3  0  0  0  0  0  0
  189.9110  176.8780  138.4480 C   0  0  0  0  0  0  0  0  0  0  0  0
  188.8440  176.0430  136.4350 C   0  0  0  0  0  3  0  0  0  0  0  0
  189.4600  173.9130  135.4930 O   0  0  0  0  0  0  0  0  0  0  0  0
  188.1930  173.3600  135.1650 C   0  0  0  0  0  1  0  0  0  0  0  0
  1  6  1  0  0  0  0
  2 12  1  0  0  0  0
  2 11  1  0  0  0  0
  3 10  1  0  0  0  0
  4  8  1  0  0  0  0
  5  1  1  0  0  0  0
  7  4  2  0  0  0  0
  7  9  1  0  0  0  0
  8  1  2  0  0  0  0
  9  5  2  0  0  0  0
 10 11  2  0  0  0  0
 11  7  1  0  0  0  0
 12 15  2  0  0  0  0
 13  2  2  0  0  0  0
 14 13  1  0  0  0  0
 14  3  2  0  0  0  0
 15  4  1  0  0  0  0
 16  3  1  0  0  0  0
 16 17  1  1  0  0  0
 16 18  1  0  0  0  0
 18 20  1  0  0  0  0
 19 20  1  0  0  0  0
 20 21  2  0  0  0  0
 22 19  1  0  0  0  0
 23 22  1  0  0  0  0
 25 24  1  0  0  0  0
 25 23  1  0  0  0  0
 26 22  1  0  0  0  0
 27 28  2  0  0  0  0
 27 26  1  0  0  0  0
 29 27  1  0  0  0  0
 30 34  1  0  0  0  0
 31 33  2  0  0  0  0
 32 30  2  0  0  0  0
 32 31  1  0  0  0  0
 33 29  1  0  0  0  0
 34 29  2  0  0  0  0
 35 13  1  0  0  0  0
 36 39  1  0  0  0  0
 37 36  2  0  0  0  0
 38 40  1  0  0  0  0
 40 39  2  0  0  0  0
 40 35  1  0  0  0  0
 41 37  1  0  0  0  0
 41 38  2  0  0  0  0
 42 37  1  0  0  0  0
 43 42  1  0  0  0  0
M  END
>  <MODEL>
7

>  <REMARK>
 VINA RESULT:      -8.6      3.732      8.825
  Name = 
  12 active torsions:
  status: ('A' for Active; 'I' for Inactive)
    1  A    between atoms: O_1  and  C_34
    2  A    between atoms: O_1  and  C_35
    3  A    between atoms: C_2  and  C_6
    4  A    between atoms: C_2  and  C_13
    5  A    between atoms: N_3  and  N_4
    6  A    between atoms: N_4  and  C_15
    7  A    between atoms: N_4  and  C_22
    8  A    between atoms: C_6  and  C_12
    9  A    between atoms: C_11  and  C_14
   10  A    between atoms: C_14  and  C_22
   11  A    between atoms: C_15  and  C_42
   12  A    between atoms: C_19  and  O_25
                            x       y       z     vdW  Elec       q    Type
                         _______ _______ _______ _____ _____    ______ ____

>  <TORSDO>
F 12

$$$$
=
 OpenBabel11052416203D

 43 47  0  0  1  0  0  0  0  0999 V2000
  187.1670  177.8610  146.6330 C   0  0  0  0  0  0  0  0  0  0  0  0
  184.1100  178.7200  142.6800 C   0  0  0  0  0  0  0  0  0  0  0  0
  185.7200  178.6270  140.3790 C   0  0  0  0  0  0  0  0  0  0  0  0
  185.2520  178.3380  145.2230 C   0  0  0  0  0  0  0  0  0  0  0  0
  187.9820  177.7700  145.5030 C   0  0  0  0  0  3  0  0  0  0  0  0
  187.6990  177.6820  147.8660 F   0  0  0  0  0  0  0  0  0  0  0  0
  186.0700  178.2440  144.0720 C   0  0  0  0  0  0  0  0  0  0  0  0
  185.8050  178.1460  146.4940 C   0  0  0  0  0  3  0  0  0  0  0  0
  187.4380  177.9610  144.2300 C   0  0  0  0  0  3  0  0  0  0  0  0
  186.2850  178.3940  141.6350 C   0  0  0  0  0  3  0  0  0  0  0  0
  185.4990  178.4460  142.7950 C   0  0  0  0  0  0  0  0  0  0  0  0
  183.3300  178.8230  143.8380 C   0  0  0  0  0  3  0  0  0  0  0  0
  183.5380  178.9240  141.4020 C   0  0  0  0  0  0  0  0  0  0  0  0
  184.3530  178.8910  140.2680 C   0  0  0  0  0  3  0  0  0  0  0  0
  183.8940  178.6310  145.0970 C   0  0  0  0  0  3  0  0  0  0  0  0
  186.5580  178.5760  139.1450 C   0  0  2  0  0  3  0  0  0  0  0  0
  186.0450  177.6330  138.2720 F   0  0  0  0  0  0  0  0  0  0  0  0
  188.0050  178.2530  139.5000 C   0  0  0  0  0  2  0  0  0  0  0  0
  190.1210  177.8140  138.1180 N   0  0  0  0  0  2  0  0  0  0  0  0
  188.9340  178.5840  138.3740 C   0  0  0  0  0  0  0  0  0  0  0  0
  188.6820  179.5780  137.6460 O   0  0  0  0  0  0  0  0  0  0  0  0
  190.5470  176.6870  138.8520 N   0  0  0  0  0  0  0  0  0  0  0  0
  191.4890  175.9210  138.0430 C   0  0  0  0  0  2  0  0  0  0  0  0
  194.0940  175.1250  137.7280 S   0  0  0  0  0  1  0  0  0  0  0  0
  192.9120  176.3740  138.3150 C   0  0  0  0  0  2  0  0  0  0  0  0
  191.2230  177.1360  140.0640 C   0  0  0  0  0  2  0  0  0  0  0  0
  190.4490  176.7100  141.2690 C   0  0  0  0  0  0  0  0  0  0  0  0
  189.4160  176.0040  141.1060 O   0  0  0  0  0  0  0  0  0  0  0  0
  190.8650  177.1140  142.6270 C   0  0  0  0  0  0  0  0  0  0  0  0
  191.5490  176.5130  144.8840 C   0  0  0  0  0  3  0  0  0  0  0  0
  191.4060  178.8450  144.2480 C   0  0  0  0  0  3  0  0  0  0  0  0
  191.6800  177.8670  145.2060 C   0  0  0  0  0  3  0  0  0  0  0  0
  191.0010  178.4700  142.9640 C   0  0  0  0  0  3  0  0  0  0  0  0
  191.1420  176.1380  143.5990 C   0  0  0  0  0  3  0  0  0  0  0  0
  182.1720  179.1840  141.2300 O   0  0  0  0  0  0  0  0  0  0  0  0
  180.5470  180.1560  138.0240 C   0  0  0  0  0  3  0  0  0  0  0  0
  180.1310  178.9000  137.5530 C   0  0  0  0  0  0  0  0  0  0  0  0
  181.0790  177.8640  139.5330 C   0  0  0  0  0  3  0  0  0  0  0  0
  181.2270  180.2620  139.2410 C   0  0  0  0  0  3  0  0  0  0  0  0
  181.5030  179.1130  140.0000 C   0  0  0  0  0  0  0  0  0  0  0  0
  180.3990  177.7590  138.3170 C   0  0  0  0  0  3  0  0  0  0  0  0
  179.4530  178.7600  136.3390 O   0  0  0  0  0  0  0  0  0  0  0  0
  179.2820  177.5050  135.6940 C   0  0  0  0  0  1  0  0  0  0  0  0
  1  6  1  0  0  0  0
  2 11  1  0  0  0  0
  2 12  1  0  0  0  0
  3 10  1  0  0  0  0
  4  8  2  0  0  0  0
  5  1  2  0  0  0  0
  7  9  2  0  0  0  0
  7  4  1  0  0  0  0
  8  1  1  0  0  0  0
  9  5  1  0  0  0  0
 10 11  2  0  0  0  0
 11  7  1  0  0  0  0
 12 15  2  0  0  0  0
 13  2  2  0  0  0  0
 14  3  2  0  0  0  0
 14 13  1  0  0  0  0
 15  4  1  0  0  0  0
 16 17  1  6  0  0  0
 16 18  1  0  0  0  0
 16  3  1  0  0  0  0
 19 20  1  0  0  0  0
 19 22  1  0  0  0  0
 20 18  1  0  0  0  0
 21 20  2  0  0  0  0
 22 26  1  0  0  0  0
 23 25  1  0  0  0  0
 23 22  1  0  0  0  0
 24 25  1  0  0  0  0
 26 27  1  0  0  0  0
 27 29  1  0  0  0  0
 28 27  2  0  0  0  0
 29 33  2  0  0  0  0
 29 34  1  0  0  0  0
 30 32  1  0  0  0  0
 31 32  2  0  0  0  0
 33 31  1  0  0  0  0
 34 30  2  0  0  0  0
 35 13  1  0  0  0  0
 36 39  1  0  0  0  0
 37 36  2  0  0  0  0
 37 41  1  0  0  0  0
 38 40  1  0  0  0  0
 39 40  2  0  0  0  0
 40 35  1  0  0  0  0
 41 38  2  0  0  0  0
 42 37  1  0  0  0  0
 43 42  1  0  0  0  0
M  END
>  <MODEL>
8

>  <REMARK>
 VINA RESULT:      -8.6      1.873      2.692
  Name = 
  12 active torsions:
  status: ('A' for Active; 'I' for Inactive)
    1  A    between atoms: O_1  and  C_34
    2  A    between atoms: O_1  and  C_35
    3  A    between atoms: C_2  and  C_6
    4  A    between atoms: C_2  and  C_13
    5  A    between atoms: N_3  and  N_4
    6  A    between atoms: N_4  and  C_15
    7  A    between atoms: N_4  and  C_22
    8  A    between atoms: C_6  and  C_12
    9  A    between atoms: C_11  and  C_14
   10  A    between atoms: C_14  and  C_22
   11  A    between atoms: C_15  and  C_42
   12  A    between atoms: C_19  and  O_25
                            x       y       z     vdW  Elec       q    Type
                         _______ _______ _______ _____ _____    ______ ____

>  <TORSDO>
F 12

$$$$
=
 OpenBabel11052416203D

 43 47  0  0  1  0  0  0  0  0999 V2000
  187.8410  177.3820  147.0550 C   0  0  0  0  0  0  0  0  0  0  0  0
  186.0120  178.5770  142.4800 C   0  0  0  0  0  0  0  0  0  0  0  0
  188.0970  178.1620  140.6430 C   0  0  0  0  0  0  0  0  0  0  0  0
  186.4270  178.1050  145.2230 C   0  0  0  0  0  0  0  0  0  0  0  0
  188.8820  177.1300  146.1580 C   0  0  0  0  0  3  0  0  0  0  0  0
  188.0230  177.1620  148.3790 F   0  0  0  0  0  0  0  0  0  0  0  0
  187.4740  177.8480  144.3060 C   0  0  0  0  0  0  0  0  0  0  0  0
  186.6170  177.8700  146.5890 C   0  0  0  0  0  3  0  0  0  0  0  0
  188.7010  177.3620  144.7930 C   0  0  0  0  0  3  0  0  0  0  0  0
  188.2960  177.8850  141.9980 C   0  0  0  0  0  3  0  0  0  0  0  0
  187.2700  178.0950  142.9290 C   0  0  0  0  0  0  0  0  0  0  0  0
  185.0000  178.8370  143.4120 C   0  0  0  0  0  3  0  0  0  0  0  0
  185.8070  178.8260  141.1030 C   0  0  0  0  0  0  0  0  0  0  0  0
  186.8570  178.6310  140.2020 C   0  0  0  0  0  3  0  0  0  0  0  0
  185.2040  178.6000  144.7700 C   0  0  0  0  0  3  0  0  0  0  0  0
  189.1910  177.9420  139.6520 C   0  0  2  0  0  3  0  0  0  0  0  0
  189.4070  179.1030  138.9310 F   0  0  0  0  0  0  0  0  0  0  0  0
  188.8410  176.7860  138.7220 C   0  0  0  0  0  2  0  0  0  0  0  0
  189.6070  176.0450  136.3890 N   0  0  0  0  0  2  0  0  0  0  0  0
  189.9080  176.5640  137.6960 C   0  0  0  0  0  0  0  0  0  0  0  0
  191.1040  176.8140  137.9930 O   0  0  0  0  0  0  0  0  0  0  0  0
  188.3240  175.7020  135.9130 N   0  0  0  0  0  0  0  0  0  0  0  0
  187.9340  176.6470  134.8730 C   0  0  0  0  0  2  0  0  0  0  0  0
  185.7600  176.9420  136.5190 S   0  0  0  0  0  1  0  0  0  0  0  0
  187.0070  177.7070  135.4400 C   0  0  0  0  0  2  0  0  0  0  0  0
  188.3730  174.3620  135.3380 C   0  0  0  0  0  2  0  0  0  0  0  0
  188.0110  173.3470  136.3740 C   0  0  0  0  0  0  0  0  0  0  0  0
  188.9070  172.9500  137.1690 O   0  0  0  0  0  0  0  0  0  0  0  0
  186.6420  172.8010  136.4630 C   0  0  0  0  0  0  0  0  0  0  0  0
  184.5000  172.6750  137.6090 C   0  0  0  0  0  3  0  0  0  0  0  0
  184.8570  171.4060  135.5770 C   0  0  0  0  0  3  0  0  0  0  0  0
  184.0290  171.7900  136.6350 C   0  0  0  0  0  3  0  0  0  0  0  0
  186.1580  171.9110  135.4910 C   0  0  0  0  0  3  0  0  0  0  0  0
  185.8020  173.1780  137.5230 C   0  0  0  0  0  3  0  0  0  0  0  0
  184.5830  179.2890  140.6020 O   0  0  0  0  0  0  0  0  0  0  0  0
  182.3140  178.1230  137.8890 C   0  0  0  0  0  3  0  0  0  0  0  0
  181.8690  176.9060  138.4290 C   0  0  0  0  0  0  0  0  0  0  0  0
  183.2340  177.3000  140.3970 C   0  0  0  0  0  3  0  0  0  0  0  0
  183.2160  178.9210  138.6000 C   0  0  0  0  0  3  0  0  0  0  0  0
  183.6880  178.5090  139.8570 C   0  0  0  0  0  0  0  0  0  0  0  0
  182.3320  176.5040  139.6860 C   0  0  0  0  0  3  0  0  0  0  0  0
  180.9710  176.0840  137.7430 O   0  0  0  0  0  0  0  0  0  0  0  0
  180.4850  174.8610  138.2770 C   0  0  0  0  0  1  0  0  0  0  0  0
  1  6  1  0  0  0  0
  2 11  1  0  0  0  0
  2 12  1  0  0  0  0
  3 10  1  0  0  0  0
  4  8  2  0  0  0  0
  5  1  2  0  0  0  0
  7  9  2  0  0  0  0
  7  4  1  0  0  0  0
  8  1  1  0  0  0  0
  9  5  1  0  0  0  0
 10 11  2  0  0  0  0
 11  7  1  0  0  0  0
 12 15  2  0  0  0  0
 13  2  2  0  0  0  0
 14  3  2  0  0  0  0
 14 13  1  0  0  0  0
 15  4  1  0  0  0  0
 16 17  1  6  0  0  0
 16  3  1  0  0  0  0
 18 16  1  0  0  0  0
 19 20  1  0  0  0  0
 20 21  2  0  0  0  0
 20 18  1  0  0  0  0
 22 19  1  0  0  0  0
 23 25  1  0  0  0  0
 23 22  1  0  0  0  0
 25 24  1  0  0  0  0
 26 22  1  0  0  0  0
 26 27  1  0  0  0  0
 27 29  1  0  0  0  0
 27 28  2  0  0  0  0
 29 34  1  0  0  0  0
 31 32  2  0  0  0  0
 32 30  1  0  0  0  0
 33 31  1  0  0  0  0
 33 29  2  0  0  0  0
 34 30  2  0  0  0  0
 35 13  1  0  0  0  0
 36 37  2  0  0  0  0
 36 39  1  0  0  0  0
 37 41  1  0  0  0  0
 39 40  2  0  0  0  0
 40 38  1  0  0  0  0
 40 35  1  0  0  0  0
 41 38  2  0  0  0  0
 42 43  1  0  0  0  0
 42 37  1  0  0  0  0
M  END
>  <MODEL>
9

>  <REMARK>
 VINA RESULT:      -8.6      3.730      6.381
  Name = 
  12 active torsions:
  status: ('A' for Active; 'I' for Inactive)
    1  A    between atoms: O_1  and  C_34
    2  A    between atoms: O_1  and  C_35
    3  A    between atoms: C_2  and  C_6
    4  A    between atoms: C_2  and  C_13
    5  A    between atoms: N_3  and  N_4
    6  A    between atoms: N_4  and  C_15
    7  A    between atoms: N_4  and  C_22
    8  A    between atoms: C_6  and  C_12
    9  A    between atoms: C_11  and  C_14
   10  A    between atoms: C_14  and  C_22
   11  A    between atoms: C_15  and  C_42
   12  A    between atoms: C_19  and  O_25
                            x       y       z     vdW  Elec       q    Type
                         _______ _______ _______ _____ _____    ______ ____

>  <TORSDO>
F 12

$$$$
