=
 OpenBabel11052414033D

 34 37  0  0  1  0  0  0  0  0999 V2000
  182.8370  176.9670  138.2210 C   0  0  2  0  0  3  0  0  0  0  0  0
  184.9830  180.0590  138.8190 O   0  0  0  0  0  1  0  0  0  0  0  0
  185.1690  177.2280  137.7130 O   0  0  0  0  0  1  0  0  0  0  0  0
  184.2440  178.9140  139.1240 C   0  0  2  0  0  0  0  0  0  0  0  0
  181.6550  177.6710  138.7570 N   0  0  0  0  0  0  0  0  0  0  0  0
  183.1480  179.1530  140.1460 C   0  0  1  0  0  3  0  0  0  0  0  0
  181.9730  178.1700  140.1110 C   0  0  1  0  0  3  0  0  0  0  0  0
  184.4030  178.3650  140.5330 C   0  0  2  0  0  3  0  0  0  0  0  0
  183.9960  177.9360  137.9810 C   0  0  2  0  0  3  0  0  0  0  0  0
  179.0760  179.1240  142.6050 C   0  0  1  0  0  3  0  0  0  0  0  0
  178.9990  180.5760  142.1550 C   0  0  0  0  0  2  0  0  0  0  0  0
  180.7930  178.8560  140.7490 C   0  0  0  0  0  0  0  0  0  0  0  0
  179.0230  180.6170  140.6330 C   0  0  0  0  0  2  0  0  0  0  0  0
  180.4050  178.5060  142.1710 C   0  0  0  0  0  2  0  0  0  0  0  0
  180.2060  179.8660  140.0840 C   0  0  0  0  0  3  0  0  0  0  0  0
  178.9310  179.0350  144.3740 Cl  0  0  0  0  0  0  0  0  0  0  0  0
  182.5340  176.2820  136.9150 C   0  0  0  0  0  0  0  0  0  0  0  0
  181.9610  172.7380  136.8830 C   0  0  0  0  0  1  0  0  0  0  0  0
  182.7910  175.0060  136.7920 C   0  0  0  0  0  0  0  0  0  0  0  0
  183.0440  173.7330  136.6700 C   0  0  0  0  0  3  0  0  0  0  0  0
  180.8730  176.6070  135.2290 O   0  0  0  0  0  1  0  0  0  0  0  0
  181.9860  177.0120  135.8580 O   0  0  0  0  0  0  0  0  0  0  0  0
  185.2930  179.2330  141.4110 C   0  0  0  0  0  2  0  0  0  0  0  0
  186.2220  178.3940  142.1530 N   0  0  0  0  0  2  0  0  0  0  0  0
  187.4140  177.9320  145.0360 C   0  0  0  0  0  2  0  0  0  0  0  0
  185.5320  177.9150  143.3410 C   0  0  1  0  0  3  0  0  0  0  0  0
  186.4810  177.0650  144.1970 C   0  0  0  0  0  2  0  0  0  0  0  0
  185.5050  178.7300  146.5120 C   0  0  0  0  0  3  0  0  0  0  0  0
  184.4220  178.6910  145.4640 C   0  0  0  0  0  2  0  0  0  0  0  0
  184.9260  179.1040  144.0900 C   0  0  0  0  0  2  0  0  0  0  0  0
  186.7870  178.3600  146.3370 C   0  0  0  0  0  3  0  0  0  0  0  0
  180.5870  176.6740  138.9120 C   0  0  0  0  0  2  0  0  0  0  0  0
  180.1150  174.8130  140.4500 C   0  0  0  0  0  2  0  0  0  0  0  0
  181.0120  175.5880  139.8490 C   0  0  0  0  0  3  0  0  0  0  0  0
  1 17  1  6  0  0  0
  1  5  1  0  0  0  0
  3  9  1  0  0  0  0
  4  2  1  6  0  0  0
  4  6  1  0  0  0  0
  4  8  1  0  0  0  0
  5 32  1  0  0  0  0
  5  7  1  0  0  0  0
  6  8  1  0  0  0  0
  7  6  1  0  0  0  0
  7 12  1  0  0  0  0
  8 23  1  0  0  0  0
  9  1  1  0  0  0  0
  9  4  1  0  0  0  0
 10 16  1  0  0  0  0
 11 10  1  0  0  0  0
 12 14  1  0  0  0  0
 13 11  1  0  0  0  0
 14 10  1  0  0  0  0
 15 13  1  0  0  0  0
 15 12  2  0  0  0  0
 19 17  2  0  0  0  0
 20 19  2  0  0  0  0
 20 18  1  0  0  0  0
 21 22  1  0  0  0  0
 22 17  1  0  0  0  0
 23 24  1  0  0  0  0
 24 26  1  0  0  0  0
 25 31  1  0  0  0  0
 26 30  1  0  0  0  0
 26 27  1  0  0  0  0
 27 25  1  0  0  0  0
 29 28  1  0  0  0  0
 30 29  1  0  0  0  0
 31 28  2  0  0  0  0
 32 34  1  0  0  0  0
 34 33  2  0  0  0  0
M  END
>  <MODEL>
1

>  <REMARK>
 VINA RESULT:      -6.6      0.000      0.000
  Name = 
  8 active torsions:
  status: ('A' for Active; 'I' for Inactive)
    1  A    between atoms: C_2  and  C_4
    2  A    between atoms: C_2  and  O_25
    3  A    between atoms: N_3  and  C_13
    4  A    between atoms: N_3  and  C_17
    5  A    between atoms: C_12  and  C_28
    6  A    between atoms: C_17  and  C_29
    7  A    between atoms: N_21  and  C_32
    8  A    between atoms: C_24  and  C_32
                            x       y       z     vdW  Elec       q    Type
                         _______ _______ _______ _____ _____    ______ ____

>  <TORSDO>
F 8

$$$$
=
 OpenBabel11052414033D

 34 37  0  0  1  0  0  0  0  0999 V2000
  185.6550  176.8990  137.5600 C   0  0  2  0  0  3  0  0  0  0  0  0
  184.5170  180.1990  139.0900 O   0  0  0  0  0  1  0  0  0  0  0  0
  187.0280  178.5290  138.6660 O   0  0  0  0  0  1  0  0  0  0  0  0
  184.6780  178.8180  138.9560 C   0  0  2  0  0  0  0  0  0  0  0  0
  184.2740  176.6140  137.1230 N   0  0  0  0  0  0  0  0  0  0  0  0
  183.3710  178.0490  138.9880 C   0  0  1  0  0  3  0  0  0  0  0  0
  183.3810  176.6800  138.2990 C   0  0  1  0  0  3  0  0  0  0  0  0
  184.3350  177.9790  140.1760 C   0  0  2  0  0  3  0  0  0  0  0  0
  185.7960  178.3470  138.0330 C   0  0  2  0  0  3  0  0  0  0  0  0
  179.8800  174.8850  138.0910 C   0  0  1  0  0  3  0  0  0  0  0  0
  179.1160  176.1470  137.7150 C   0  0  0  0  0  2  0  0  0  0  0  0
  181.9550  176.3460  137.9420 C   0  0  0  0  0  0  0  0  0  0  0  0
  179.8960  176.8840  136.6330 C   0  0  0  0  0  2  0  0  0  0  0  0
  181.2340  175.2490  138.6990 C   0  0  0  0  0  2  0  0  0  0  0  0
  181.3180  177.1300  137.0560 C   0  0  0  0  0  3  0  0  0  0  0  0
  178.9380  173.9430  139.2670 Cl  0  0  0  0  0  0  0  0  0  0  0  0
  186.6480  176.6810  136.4490 C   0  0  0  0  0  0  0  0  0  0  0  0
  188.7630  173.7820  136.5300 C   0  0  0  0  0  1  0  0  0  0  0  0
  187.7080  175.9500  136.6780 C   0  0  0  0  0  0  0  0  0  0  0  0
  188.7620  175.2190  136.9050 C   0  0  0  0  0  3  0  0  0  0  0  0
  187.1650  178.2870  134.7570 O   0  0  0  0  0  1  0  0  0  0  0  0
  186.4270  177.2570  135.1950 O   0  0  0  0  0  0  0  0  0  0  0  0
  183.7790  178.8040  141.3280 C   0  0  0  0  0  2  0  0  0  0  0  0
  184.0010  178.1080  142.5850 N   0  0  0  0  0  2  0  0  0  0  0  0
  184.6550  178.6430  145.6240 C   0  0  0  0  0  2  0  0  0  0  0  0
  185.2380  178.6180  143.1590 C   0  0  1  0  0  3  0  0  0  0  0  0
  184.9320  179.4880  144.3860 C   0  0  0  0  0  2  0  0  0  0  0  0
  187.0770  177.8840  145.7680 C   0  0  0  0  0  3  0  0  0  0  0  0
  187.3700  177.8970  144.2890 C   0  0  0  0  0  2  0  0  0  0  0  0
  186.1800  177.4480  143.4540 C   0  0  0  0  0  2  0  0  0  0  0  0
  185.9170  178.2480  146.3450 C   0  0  0  0  0  3  0  0  0  0  0  0
  184.2460  175.2240  136.6470 C   0  0  0  0  0  2  0  0  0  0  0  0
  184.5980  172.9700  137.5670 C   0  0  0  0  0  2  0  0  0  0  0  0
  184.6740  174.2870  137.7320 C   0  0  0  0  0  3  0  0  0  0  0  0
  1 17  1  6  0  0  0
  1  9  1  0  0  0  0
  4  6  1  0  0  0  0
  4  2  1  1  0  0  0
  4  8  1  0  0  0  0
  5  1  1  0  0  0  0
  5  7  1  0  0  0  0
  6  8  1  0  0  0  0
  7  6  1  0  0  0  0
  8 23  1  0  0  0  0
  9  3  1  0  0  0  0
  9  4  1  0  0  0  0
 10 14  1  0  0  0  0
 10 16  1  0  0  0  0
 11 10  1  0  0  0  0
 12  7  1  0  0  0  0
 12 14  1  0  0  0  0
 13 15  1  0  0  0  0
 13 11  1  0  0  0  0
 15 12  2  0  0  0  0
 17 19  2  0  0  0  0
 18 20  1  0  0  0  0
 19 20  2  0  0  0  0
 21 22  1  0  0  0  0
 22 17  1  0  0  0  0
 23 24  1  0  0  0  0
 24 26  1  0  0  0  0
 25 31  1  0  0  0  0
 26 30  1  0  0  0  0
 26 27  1  0  0  0  0
 27 25  1  0  0  0  0
 28 31  2  0  0  0  0
 29 28  1  0  0  0  0
 30 29  1  0  0  0  0
 32  5  1  0  0  0  0
 32 34  1  0  0  0  0
 33 34  2  0  0  0  0
M  END
>  <MODEL>
2

>  <REMARK>
 VINA RESULT:      -6.4      2.845      4.065
  Name = 
  8 active torsions:
  status: ('A' for Active; 'I' for Inactive)
    1  A    between atoms: C_2  and  C_4
    2  A    between atoms: C_2  and  O_25
    3  A    between atoms: N_3  and  C_13
    4  A    between atoms: N_3  and  C_17
    5  A    between atoms: C_12  and  C_28
    6  A    between atoms: C_17  and  C_29
    7  A    between atoms: N_21  and  C_32
    8  A    between atoms: C_24  and  C_32
                            x       y       z     vdW  Elec       q    Type
                         _______ _______ _______ _____ _____    ______ ____

>  <TORSDO>
F 8

$$$$
=
 OpenBabel11052414033D

 34 37  0  0  1  0  0  0  0  0999 V2000
  185.2860  176.8010  137.6810 C   0  0  2  0  0  3  0  0  0  0  0  0
  184.5740  180.2460  139.1480 O   0  0  0  0  0  1  0  0  0  0  0  0
  186.8990  178.4560  138.3320 O   0  0  0  0  0  1  0  0  0  0  0  0
  184.6740  178.8530  139.0940 C   0  0  2  0  0  0  0  0  0  0  0  0
  183.8370  176.5350  137.5750 N   0  0  0  0  0  0  0  0  0  0  0  0
  183.3900  178.1380  139.4690 C   0  0  1  0  0  3  0  0  0  0  0  0
  183.2220  176.7230  138.9060 C   0  0  1  0  0  3  0  0  0  0  0  0
  184.5870  178.1210  140.4230 C   0  0  2  0  0  3  0  0  0  0  0  0
  185.5560  178.2740  137.9950 C   0  0  2  0  0  3  0  0  0  0  0  0
  179.7380  174.9840  139.5060 C   0  0  1  0  0  3  0  0  0  0  0  0
  178.9310  176.2640  139.3390 C   0  0  0  0  0  2  0  0  0  0  0  0
  181.7470  176.4160  138.8910 C   0  0  0  0  0  0  0  0  0  0  0  0
  179.4470  177.0080  138.1140 C   0  0  0  0  0  2  0  0  0  0  0  0
  181.2040  175.3170  139.7820 C   0  0  0  0  0  2  0  0  0  0  0  0
  180.9330  177.2260  138.1910 C   0  0  0  0  0  3  0  0  0  0  0  0
  179.0820  174.0350  140.8580 Cl  0  0  0  0  0  0  0  0  0  0  0  0
  186.0100  176.4640  136.4050 C   0  0  0  0  0  0  0  0  0  0  0  0
  187.3760  173.1710  135.9780 C   0  0  0  0  0  1  0  0  0  0  0  0
  186.8930  175.4990  136.4100 C   0  0  0  0  0  0  0  0  0  0  0  0
  187.7700  174.5360  136.4150 C   0  0  0  0  0  3  0  0  0  0  0  0
  186.6340  178.0060  134.6900 O   0  0  0  0  0  1  0  0  0  0  0  0
  185.7310  177.1800  135.2370 O   0  0  0  0  0  0  0  0  0  0  0  0
  184.3110  179.0500  141.5970 C   0  0  0  0  0  2  0  0  0  0  0  0
  185.5010  179.1660  142.4250 N   0  0  0  0  0  2  0  0  0  0  0  0
  187.7150  177.8960  144.2780 C   0  0  0  0  0  2  0  0  0  0  0  0
  185.3130  178.3120  143.5890 C   0  0  1  0  0  3  0  0  0  0  0  0
  186.4520  177.2860  143.6810 C   0  0  0  0  0  2  0  0  0  0  0  0
  186.6450  178.1090  146.5740 C   0  0  0  0  0  3  0  0  0  0  0  0
  185.2310  178.3430  146.1060 C   0  0  0  0  0  2  0  0  0  0  0  0
  185.1670  179.1830  144.8390 C   0  0  0  0  0  2  0  0  0  0  0  0
  187.7080  177.8730  145.7840 C   0  0  0  0  0  3  0  0  0  0  0  0
  183.6790  175.1160  137.2300 C   0  0  0  0  0  2  0  0  0  0  0  0
  181.7760  174.5620  135.7720 C   0  0  0  0  0  2  0  0  0  0  0  0
  183.0370  174.9690  135.8870 C   0  0  0  0  0  3  0  0  0  0  0  0
  1 17  1  6  0  0  0
  1  9  1  0  0  0  0
  4  2  1  1  0  0  0
  4  6  1  0  0  0  0
  4  8  1  0  0  0  0
  5  1  1  0  0  0  0
  5  7  1  0  0  0  0
  6  8  1  0  0  0  0
  7  6  1  0  0  0  0
  8 23  1  0  0  0  0
  9  3  1  0  0  0  0
  9  4  1  0  0  0  0
 10 14  1  0  0  0  0
 10 16  1  0  0  0  0
 11 10  1  0  0  0  0
 12  7  1  0  0  0  0
 12 14  1  0  0  0  0
 13 15  1  0  0  0  0
 13 11  1  0  0  0  0
 15 12  2  0  0  0  0
 17 19  2  0  0  0  0
 18 20  1  0  0  0  0
 19 20  2  0  0  0  0
 21 22  1  0  0  0  0
 22 17  1  0  0  0  0
 23 24  1  0  0  0  0
 24 26  1  0  0  0  0
 25 31  1  0  0  0  0
 26 27  1  0  0  0  0
 26 30  1  0  0  0  0
 27 25  1  0  0  0  0
 29 28  1  0  0  0  0
 30 29  1  0  0  0  0
 31 28  2  0  0  0  0
 32  5  1  0  0  0  0
 33 34  2  0  0  0  0
 34 32  1  0  0  0  0
M  END
>  <MODEL>
3

>  <REMARK>
 VINA RESULT:      -6.4      2.511      3.334
  Name = 
  8 active torsions:
  status: ('A' for Active; 'I' for Inactive)
    1  A    between atoms: C_2  and  C_4
    2  A    between atoms: C_2  and  O_25
    3  A    between atoms: N_3  and  C_13
    4  A    between atoms: N_3  and  C_17
    5  A    between atoms: C_12  and  C_28
    6  A    between atoms: C_17  and  C_29
    7  A    between atoms: N_21  and  C_32
    8  A    between atoms: C_24  and  C_32
                            x       y       z     vdW  Elec       q    Type
                         _______ _______ _______ _____ _____    ______ ____

>  <TORSDO>
F 8

$$$$
=
 OpenBabel11052414033D

 34 37  0  0  1  0  0  0  0  0999 V2000
  186.1810  178.0840  139.6550 C   0  0  2  0  0  3  0  0  0  0  0  0
  189.5010  178.8270  137.9360 O   0  0  0  0  0  1  0  0  0  0  0  0
  186.6710  177.8910  137.3120 O   0  0  0  0  0  1  0  0  0  0  0  0
  188.5730  178.1470  138.7280 C   0  0  2  0  0  0  0  0  0  0  0  0
  186.7550  178.4790  140.9560 N   0  0  0  0  0  0  0  0  0  0  0  0
  189.0630  177.8770  140.1380 C   0  0  1  0  0  3  0  0  0  0  0  0
  187.9740  177.6780  141.1990 C   0  0  1  0  0  3  0  0  0  0  0  0
  188.9450  176.7290  139.1310 C   0  0  2  0  0  3  0  0  0  0  0  0
  187.1040  178.4820  138.5010 C   0  0  2  0  0  3  0  0  0  0  0  0
  188.5540  178.0180  145.0810 C   0  0  1  0  0  3  0  0  0  0  0  0
  190.0730  178.0190  144.9800 C   0  0  0  0  0  2  0  0  0  0  0  0
  188.5910  177.9860  142.5390 C   0  0  0  0  0  0  0  0  0  0  0  0
  190.4850  178.9550  143.8510 C   0  0  0  0  0  2  0  0  0  0  0  0
  187.9400  177.4550  143.8000 C   0  0  0  0  0  2  0  0  0  0  0  0
  189.7840  178.6050  142.5660 C   0  0  0  0  0  3  0  0  0  0  0  0
  188.0470  177.0260  146.4660 Cl  0  0  0  0  0  0  0  0  0  0  0  0
  184.8430  178.7320  139.4150 C   0  0  0  0  0  0  0  0  0  0  0  0
  181.8480  176.9090  140.1810 C   0  0  0  0  0  1  0  0  0  0  0  0
  183.7940  177.9750  139.2260 C   0  0  0  0  0  0  0  0  0  0  0  0
  182.7490  177.2200  139.0420 C   0  0  0  0  0  3  0  0  0  0  0  0
  183.6400  180.7410  138.9370 O   0  0  0  0  0  1  0  0  0  0  0  0
  184.7380  180.1260  139.3990 O   0  0  0  0  0  0  0  0  0  0  0  0
  190.3360  176.3230  138.6640 C   0  0  0  0  0  2  0  0  0  0  0  0
  190.2670  175.0570  137.9510 N   0  0  0  0  0  2  0  0  0  0  0  0
  191.6710  175.4150  135.1500 C   0  0  0  0  0  2  0  0  0  0  0  0
  191.6240  174.6880  137.5750 C   0  0  1  0  0  3  0  0  0  0  0  0
  191.6610  174.2320  136.1100 C   0  0  0  0  0  2  0  0  0  0  0  0
  194.0250  176.0820  135.8390 C   0  0  0  0  0  3  0  0  0  0  0  0
  193.9430  175.6210  137.2720 C   0  0  0  0  0  2  0  0  0  0  0  0
  192.5690  175.8530  137.8810 C   0  0  0  0  0  2  0  0  0  0  0  0
  193.0580  175.9530  134.9120 C   0  0  0  0  0  3  0  0  0  0  0  0
  185.7850  178.0990  141.9930 C   0  0  0  0  0  2  0  0  0  0  0  0
  184.7460  179.2830  143.8820 C   0  0  0  0  0  2  0  0  0  0  0  0
  185.1930  179.3160  142.6300 C   0  0  0  0  0  3  0  0  0  0  0  0
  1 17  1  6  0  0  0
  1  5  1  0  0  0  0
  3  9  1  0  0  0  0
  4  2  1  6  0  0  0
  4  8  1  0  0  0  0
  4  6  1  0  0  0  0
  5  7  1  0  0  0  0
  5 32  1  0  0  0  0
  6  7  1  0  0  0  0
  7 12  1  0  0  0  0
  8  6  1  0  0  0  0
  9  4  1  0  0  0  0
  9  1  1  0  0  0  0
 10 16  1  0  0  0  0
 11 10  1  0  0  0  0
 12 15  2  0  0  0  0
 12 14  1  0  0  0  0
 13 11  1  0  0  0  0
 14 10  1  0  0  0  0
 15 13  1  0  0  0  0
 19 17  2  0  0  0  0
 20 19  2  0  0  0  0
 20 18  1  0  0  0  0
 21 22  1  0  0  0  0
 22 17  1  0  0  0  0
 23  8  1  0  0  0  0
 24 23  1  0  0  0  0
 25 27  1  0  0  0  0
 26 30  1  0  0  0  0
 26 24  1  0  0  0  0
 27 26  1  0  0  0  0
 28 29  1  0  0  0  0
 29 30  1  0  0  0  0
 31 25  1  0  0  0  0
 31 28  2  0  0  0  0
 32 34  1  0  0  0  0
 34 33  2  0  0  0  0
M  END
>  <MODEL>
4

>  <REMARK>
 VINA RESULT:      -6.3      5.266      8.059
  Name = 
  8 active torsions:
  status: ('A' for Active; 'I' for Inactive)
    1  A    between atoms: C_2  and  C_4
    2  A    between atoms: C_2  and  O_25
    3  A    between atoms: N_3  and  C_13
    4  A    between atoms: N_3  and  C_17
    5  A    between atoms: C_12  and  C_28
    6  A    between atoms: C_17  and  C_29
    7  A    between atoms: N_21  and  C_32
    8  A    between atoms: C_24  and  C_32
                            x       y       z     vdW  Elec       q    Type
                         _______ _______ _______ _____ _____    ______ ____

>  <TORSDO>
F 8

$$$$
=
 OpenBabel11052414033D

 34 37  0  0  1  0  0  0  0  0999 V2000
  189.4730  175.8580  136.6850 C   0  0  2  0  0  3  0  0  0  0  0  0
  189.0990  179.3720  138.1140 O   0  0  0  0  0  1  0  0  0  0  0  0
  191.0980  177.0790  137.9650 O   0  0  0  0  0  1  0  0  0  0  0  0
  188.8960  177.9960  137.9810 C   0  0  2  0  0  0  0  0  0  0  0  0
  188.1270  175.9470  136.0860 N   0  0  0  0  0  0  0  0  0  0  0  0
  187.4350  177.6090  137.8510 C   0  0  1  0  0  3  0  0  0  0  0  0
  187.1550  176.2750  137.1510 C   0  0  1  0  0  3  0  0  0  0  0  0
  188.2000  177.3050  139.1420 C   0  0  2  0  0  3  0  0  0  0  0  0
  189.9440  177.2240  137.1900 C   0  0  2  0  0  3  0  0  0  0  0  0
  183.3060  175.6060  136.6360 C   0  0  1  0  0  3  0  0  0  0  0  0
  183.0300  176.9590  135.9960 C   0  0  0  0  0  2  0  0  0  0  0  0
  185.7430  176.3310  136.6250 C   0  0  0  0  0  0  0  0  0  0  0  0
  184.1140  177.2390  134.9630 C   0  0  0  0  0  2  0  0  0  0  0  0
  184.6340  175.6410  137.3930 C   0  0  0  0  0  2  0  0  0  0  0  0
  185.4880  177.1130  135.5630 C   0  0  0  0  0  3  0  0  0  0  0  0
  181.9940  175.1970  137.7630 Cl  0  0  0  0  0  0  0  0  0  0  0  0
  190.4920  175.3590  135.6960 C   0  0  0  0  0  0  0  0  0  0  0  0
  190.5540  171.8720  134.8470 C   0  0  0  0  0  1  0  0  0  0  0  0
  190.8490  174.1020  135.7290 C   0  0  0  0  0  0  0  0  0  0  0  0
  191.2010  172.8480  135.7610 C   0  0  0  0  0  3  0  0  0  0  0  0
  192.3670  176.3560  134.5990 O   0  0  0  0  0  1  0  0  0  0  0  0
  191.0410  176.2390  134.7590 O   0  0  0  0  0  0  0  0  0  0  0  0
  187.7570  178.2710  140.2320 C   0  0  0  0  0  2  0  0  0  0  0  0
  188.7150  178.2520  141.3270 N   0  0  0  0  0  2  0  0  0  0  0  0
  189.7090  177.9050  144.2990 C   0  0  0  0  0  2  0  0  0  0  0  0
  188.2070  177.3390  142.3400 C   0  0  1  0  0  3  0  0  0  0  0  0
  189.3520  176.8640  143.2450 C   0  0  0  0  0  2  0  0  0  0  0  0
  187.5160  177.5490  145.5340 C   0  0  0  0  0  3  0  0  0  0  0  0
  186.6720  177.2090  144.3330 C   0  0  0  0  0  2  0  0  0  0  0  0
  187.0610  178.0120  143.1000 C   0  0  0  0  0  2  0  0  0  0  0  0
  188.8370  177.8060  145.5240 C   0  0  0  0  0  3  0  0  0  0  0  0
  187.7800  174.6080  135.5930 C   0  0  0  0  0  2  0  0  0  0  0  0
  187.2170  172.4010  136.5230 C   0  0  0  0  0  2  0  0  0  0  0  0
  187.5990  173.6570  136.7340 C   0  0  0  0  0  3  0  0  0  0  0  0
  1 17  1  6  0  0  0
  1  9  1  0  0  0  0
  4  2  1  1  0  0  0
  4  8  1  0  0  0  0
  5  1  1  0  0  0  0
  5  7  1  0  0  0  0
  6  4  1  0  0  0  0
  6  8  1  0  0  0  0
  7  6  1  0  0  0  0
  8 23  1  0  0  0  0
  9  3  1  0  0  0  0
  9  4  1  0  0  0  0
 10 14  1  0  0  0  0
 10 16  1  0  0  0  0
 11 10  1  0  0  0  0
 12  7  1  0  0  0  0
 12 14  1  0  0  0  0
 13 15  1  0  0  0  0
 13 11  1  0  0  0  0
 15 12  2  0  0  0  0
 17 19  2  0  0  0  0
 18 20  1  0  0  0  0
 19 20  2  0  0  0  0
 21 22  1  0  0  0  0
 22 17  1  0  0  0  0
 23 24  1  0  0  0  0
 24 26  1  0  0  0  0
 25 31  1  0  0  0  0
 26 30  1  0  0  0  0
 26 27  1  0  0  0  0
 27 25  1  0  0  0  0
 29 28  1  0  0  0  0
 30 29  1  0  0  0  0
 31 28  2  0  0  0  0
 32  5  1  0  0  0  0
 32 34  1  0  0  0  0
 33 34  2  0  0  0  0
M  END
>  <MODEL>
5

>  <REMARK>
 VINA RESULT:      -6.2      4.836      6.589
  Name = 
  8 active torsions:
  status: ('A' for Active; 'I' for Inactive)
    1  A    between atoms: C_2  and  C_4
    2  A    between atoms: C_2  and  O_25
    3  A    between atoms: N_3  and  C_13
    4  A    between atoms: N_3  and  C_17
    5  A    between atoms: C_12  and  C_28
    6  A    between atoms: C_17  and  C_29
    7  A    between atoms: N_21  and  C_32
    8  A    between atoms: C_24  and  C_32
                            x       y       z     vdW  Elec       q    Type
                         _______ _______ _______ _____ _____    ______ ____

>  <TORSDO>
F 8

$$$$
=
 OpenBabel11052414033D

 34 37  0  0  1  0  0  0  0  0999 V2000
  185.0240  177.9610  139.5950 C   0  0  2  0  0  3  0  0  0  0  0  0
  186.2290  180.1780  142.4510 O   0  0  0  0  0  1  0  0  0  0  0  0
  187.2620  178.1280  140.4500 O   0  0  0  0  0  1  0  0  0  0  0  0
  185.5770  179.1180  141.8180 C   0  0  2  0  0  0  0  0  0  0  0  0
  183.6570  178.4970  139.7410 N   0  0  0  0  0  0  0  0  0  0  0  0
  184.1040  179.0160  142.1680 C   0  0  1  0  0  3  0  0  0  0  0  0
  183.2190  178.3030  141.1400 C   0  0  1  0  0  3  0  0  0  0  0  0
  185.0990  177.9890  142.7160 C   0  0  2  0  0  3  0  0  0  0  0  0
  186.0300  178.7850  140.4010 C   0  0  2  0  0  3  0  0  0  0  0  0
  179.6490  178.8920  142.6990 C   0  0  1  0  0  3  0  0  0  0  0  0
  179.4140  180.2110  141.9760 C   0  0  0  0  0  2  0  0  0  0  0  0
  181.8050  178.7780  141.3570 C   0  0  0  0  0  0  0  0  0  0  0  0
  179.8220  180.0460  140.5180 C   0  0  0  0  0  2  0  0  0  0  0  0
  181.1380  178.5460  142.6970 C   0  0  0  0  0  2  0  0  0  0  0  0
  181.2270  179.5220  140.3980 C   0  0  0  0  0  3  0  0  0  0  0  0
  179.0720  179.0170  144.3760 Cl  0  0  0  0  0  0  0  0  0  0  0  0
  185.4750  177.9670  138.1580 C   0  0  0  0  0  0  0  0  0  0  0  0
  184.0160  175.6350  135.8520 C   0  0  0  0  0  1  0  0  0  0  0  0
  185.3390  176.8790  137.4450 C   0  0  0  0  0  0  0  0  0  0  0  0
  185.2010  175.7970  136.7330 C   0  0  0  0  0  3  0  0  0  0  0  0
  187.2310  179.1150  137.0150 O   0  0  0  0  0  1  0  0  0  0  0  0
  186.0280  179.1260  137.6070 O   0  0  0  0  0  0  0  0  0  0  0  0
  185.3430  178.2610  144.1940 C   0  0  0  0  0  2  0  0  0  0  0  0
  186.2670  177.2750  144.7320 N   0  0  0  0  0  2  0  0  0  0  0  0
  188.0540  177.0290  147.3180 C   0  0  0  0  0  2  0  0  0  0  0  0
  187.5190  177.9580  145.0230 C   0  0  1  0  0  3  0  0  0  0  0  0
  187.6210  178.2570  146.5260 C   0  0  0  0  0  2  0  0  0  0  0  0
  190.3960  177.0970  146.3300 C   0  0  0  0  0  3  0  0  0  0  0  0
  190.0200  177.6610  144.9840 C   0  0  0  0  0  2  0  0  0  0  0  0
  188.6860  177.1290  144.4810 C   0  0  0  0  0  2  0  0  0  0  0  0
  189.5520  176.8660  147.3530 C   0  0  0  0  0  3  0  0  0  0  0  0
  182.7750  177.6750  138.9020 C   0  0  0  0  0  2  0  0  0  0  0  0
  181.4980  175.6270  139.3780 C   0  0  0  0  0  2  0  0  0  0  0  0
  182.6430  176.2970  139.4690 C   0  0  0  0  0  3  0  0  0  0  0  0
  1 17  1  6  0  0  0
  1  5  1  0  0  0  0
  1  9  1  0  0  0  0
  4  6  1  0  0  0  0
  4  2  1  1  0  0  0
  4  8  1  0  0  0  0
  5  7  1  0  0  0  0
  6  8  1  0  0  0  0
  7 12  1  0  0  0  0
  7  6  1  0  0  0  0
  8 23  1  0  0  0  0
  9  3  1  0  0  0  0
  9  4  1  0  0  0  0
 10 16  1  0  0  0  0
 11 10  1  0  0  0  0
 12 14  1  0  0  0  0
 13 11  1  0  0  0  0
 14 10  1  0  0  0  0
 15 13  1  0  0  0  0
 15 12  2  0  0  0  0
 18 20  1  0  0  0  0
 19 17  2  0  0  0  0
 20 19  2  0  0  0  0
 21 22  1  0  0  0  0
 22 17  1  0  0  0  0
 23 24  1  0  0  0  0
 24 26  1  0  0  0  0
 25 31  1  0  0  0  0
 26 27  1  0  0  0  0
 27 25  1  0  0  0  0
 28 31  2  0  0  0  0
 29 28  1  0  0  0  0
 30 29  1  0  0  0  0
 30 26  1  0  0  0  0
 32 34  1  0  0  0  0
 32  5  1  0  0  0  0
 33 34  2  0  0  0  0
M  END
>  <MODEL>
6

>  <REMARK>
 VINA RESULT:      -6.1      2.041      3.152
  Name = 
  8 active torsions:
  status: ('A' for Active; 'I' for Inactive)
    1  A    between atoms: C_2  and  C_4
    2  A    between atoms: C_2  and  O_25
    3  A    between atoms: N_3  and  C_13
    4  A    between atoms: N_3  and  C_17
    5  A    between atoms: C_12  and  C_28
    6  A    between atoms: C_17  and  C_29
    7  A    between atoms: N_21  and  C_32
    8  A    between atoms: C_24  and  C_32
                            x       y       z     vdW  Elec       q    Type
                         _______ _______ _______ _____ _____    ______ ____

>  <TORSDO>
F 8

$$$$
=
 OpenBabel11052414033D

 34 37  0  0  1  0  0  0  0  0999 V2000
  186.0080  177.8590  139.1120 C   0  0  2  0  0  3  0  0  0  0  0  0
  186.3240  180.0970  142.1810 O   0  0  0  0  0  1  0  0  0  0  0  0
  187.8590  177.9660  140.6390 O   0  0  0  0  0  1  0  0  0  0  0  0
  185.8660  179.0460  141.3830 C   0  0  2  0  0  0  0  0  0  0  0  0
  184.6890  178.4460  138.8070 N   0  0  0  0  0  0  0  0  0  0  0  0
  184.3560  179.0040  141.2430 C   0  0  1  0  0  3  0  0  0  0  0  0
  183.8190  178.2990  139.9930 C   0  0  1  0  0  3  0  0  0  0  0  0
  185.0800  177.9550  142.0920 C   0  0  2  0  0  3  0  0  0  0  0  0
  186.7360  178.6650  140.1910 C   0  0  2  0  0  3  0  0  0  0  0  0
  180.8150  180.5940  138.8810 C   0  0  1  0  0  3  0  0  0  0  0  0
  179.8240  179.4460  138.7510 C   0  0  0  0  0  2  0  0  0  0  0  0
  182.4300  178.8280  139.7400 C   0  0  0  0  0  0  0  0  0  0  0  0
  179.9580  178.5450  139.9730 C   0  0  0  0  0  2  0  0  0  0  0  0
  182.2470  180.0580  138.8750 C   0  0  0  0  0  2  0  0  0  0  0  0
  181.3830  178.1070  140.1750 C   0  0  0  0  0  3  0  0  0  0  0  0
  180.6010  181.7270  137.5290 Cl  0  0  0  0  0  0  0  0  0  0  0  0
  186.8950  177.8160  137.8960 C   0  0  0  0  0  0  0  0  0  0  0  0
  187.0370  174.8130  135.9330 C   0  0  0  0  0  1  0  0  0  0  0  0
  187.3280  176.6590  137.4650 C   0  0  0  0  0  0  0  0  0  0  0  0
  187.7550  175.5070  137.0340 C   0  0  0  0  0  3  0  0  0  0  0  0
  188.5090  179.4410  137.2180 O   0  0  0  0  0  1  0  0  0  0  0  0
  187.2430  179.0030  137.2470 O   0  0  0  0  0  0  0  0  0  0  0  0
  184.8490  178.2530  143.5670 C   0  0  0  0  0  2  0  0  0  0  0  0
  185.6780  177.3790  144.3830 N   0  0  0  0  0  2  0  0  0  0  0  0
  187.1080  177.5030  147.1910 C   0  0  0  0  0  2  0  0  0  0  0  0
  186.8760  178.1220  144.7460 C   0  0  1  0  0  3  0  0  0  0  0  0
  186.7750  178.6100  146.1980 C   0  0  0  0  0  2  0  0  0  0  0  0
  189.5590  177.4990  146.5180 C   0  0  0  0  0  3  0  0  0  0  0  0
  189.3620  177.8800  145.0730 C   0  0  0  0  0  2  0  0  0  0  0  0
  188.1100  177.2580  144.4720 C   0  0  0  0  0  2  0  0  0  0  0  0
  188.5880  177.3800  147.4420 C   0  0  0  0  0  3  0  0  0  0  0  0
  184.0890  177.6360  137.7380 C   0  0  0  0  0  2  0  0  0  0  0  0
  183.6370  175.2430  137.3880 C   0  0  0  0  0  2  0  0  0  0  0  0
  183.7710  176.2610  138.2340 C   0  0  0  0  0  3  0  0  0  0  0  0
  1 17  1  6  0  0  0
  1  9  1  0  0  0  0
  4  8  1  0  0  0  0
  4  2  1  1  0  0  0
  5  1  1  0  0  0  0
  5  7  1  0  0  0  0
  6  4  1  0  0  0  0
  6  8  1  0  0  0  0
  7  6  1  0  0  0  0
  8 23  1  0  0  0  0
  9  3  1  0  0  0  0
  9  4  1  0  0  0  0
 11 10  1  0  0  0  0
 11 13  1  0  0  0  0
 12  7  1  0  0  0  0
 12 15  2  0  0  0  0
 13 15  1  0  0  0  0
 14 10  1  0  0  0  0
 14 12  1  0  0  0  0
 16 10  1  0  0  0  0
 18 20  1  0  0  0  0
 19 17  2  0  0  0  0
 20 19  2  0  0  0  0
 21 22  1  0  0  0  0
 22 17  1  0  0  0  0
 23 24  1  0  0  0  0
 24 26  1  0  0  0  0
 25 31  1  0  0  0  0
 26 27  1  0  0  0  0
 27 25  1  0  0  0  0
 28 31  2  0  0  0  0
 29 28  1  0  0  0  0
 30 26  1  0  0  0  0
 30 29  1  0  0  0  0
 32 34  1  0  0  0  0
 32  5  1  0  0  0  0
 33 34  2  0  0  0  0
M  END
>  <MODEL>
7

>  <REMARK>
 VINA RESULT:      -6.1      2.758      4.000
  Name = 
  8 active torsions:
  status: ('A' for Active; 'I' for Inactive)
    1  A    between atoms: C_2  and  C_4
    2  A    between atoms: C_2  and  O_25
    3  A    between atoms: N_3  and  C_13
    4  A    between atoms: N_3  and  C_17
    5  A    between atoms: C_12  and  C_28
    6  A    between atoms: C_17  and  C_29
    7  A    between atoms: N_21  and  C_32
    8  A    between atoms: C_24  and  C_32
                            x       y       z     vdW  Elec       q    Type
                         _______ _______ _______ _____ _____    ______ ____

>  <TORSDO>
F 8

$$$$
=
 OpenBabel11052414033D

 34 37  0  0  1  0  0  0  0  0999 V2000
  186.5310  178.0950  140.7300 C   0  0  2  0  0  3  0  0  0  0  0  0
  189.0820  179.1790  138.1140 O   0  0  0  0  0  1  0  0  0  0  0  0
  186.1120  178.5720  138.4140 O   0  0  0  0  0  1  0  0  0  0  0  0
  188.4120  178.3330  139.0010 C   0  0  2  0  0  0  0  0  0  0  0  0
  187.5850  178.0720  141.7640 N   0  0  0  0  0  0  0  0  0  0  0  0
  189.3300  177.6460  139.9950 C   0  0  1  0  0  3  0  0  0  0  0  0
  188.6790  177.1900  141.3050 C   0  0  1  0  0  3  0  0  0  0  0  0
  188.6930  176.8460  138.8550 C   0  0  2  0  0  3  0  0  0  0  0  0
  187.0250  178.7750  139.4520 C   0  0  2  0  0  3  0  0  0  0  0  0
  191.6470  178.0430  143.7520 C   0  0  1  0  0  3  0  0  0  0  0  0
  191.3630  176.8850  144.6990 C   0  0  0  0  0  2  0  0  0  0  0  0
  189.7740  177.0710  142.3340 C   0  0  0  0  0  0  0  0  0  0  0  0
  191.1160  175.6300  143.8720 C   0  0  0  0  0  2  0  0  0  0  0  0
  190.4220  178.3260  142.8820 C   0  0  0  0  0  2  0  0  0  0  0  0
  190.0450  175.8560  142.8400 C   0  0  0  0  0  3  0  0  0  0  0  0
  192.0560  179.4970  144.6890 Cl  0  0  0  0  0  0  0  0  0  0  0  0
  185.3060  178.8350  141.1990 C   0  0  0  0  0  0  0  0  0  0  0  0
  182.0640  177.4000  140.6310 C   0  0  0  0  0  1  0  0  0  0  0  0
  184.1600  178.6030  140.6130 C   0  0  0  0  0  0  0  0  0  0  0  0
  183.0180  178.3690  140.0320 C   0  0  0  0  0  3  0  0  0  0  0  0
  184.5460  179.7410  143.2750 O   0  0  0  0  0  1  0  0  0  0  0  0
  185.4070  179.7530  142.2470 O   0  0  0  0  0  0  0  0  0  0  0  0
  189.7480  176.5410  137.8010 C   0  0  0  0  0  2  0  0  0  0  0  0
  190.0610  175.1210  137.8130 N   0  0  0  0  0  2  0  0  0  0  0  0
  191.8440  174.7690  135.2350 C   0  0  0  0  0  2  0  0  0  0  0  0
  191.5090  174.9890  137.7360 C   0  0  1  0  0  3  0  0  0  0  0  0
  191.8940  174.0540  136.5800 C   0  0  0  0  0  2  0  0  0  0  0  0
  193.8640  176.2010  135.8110 C   0  0  0  0  0  3  0  0  0  0  0  0
  193.6200  176.2890  137.2960 C   0  0  0  0  0  2  0  0  0  0  0  0
  192.1410  176.3790  137.6390 C   0  0  0  0  0  2  0  0  0  0  0  0
  193.1210  175.5080  134.9290 C   0  0  0  0  0  3  0  0  0  0  0  0
  187.0080  177.4450  142.9600 C   0  0  0  0  0  2  0  0  0  0  0  0
  187.5420  177.5050  145.3610 C   0  0  0  0  0  2  0  0  0  0  0  0
  187.4720  178.1460  144.1980 C   0  0  0  0  0  3  0  0  0  0  0  0
  1 17  1  1  0  0  0
  1  5  1  0  0  0  0
  3  9  1  0  0  0  0
  4  2  1  6  0  0  0
  4  9  1  0  0  0  0
  4  6  1  0  0  0  0
  5 32  1  0  0  0  0
  6  7  1  0  0  0  0
  7  5  1  0  0  0  0
  7 12  1  0  0  0  0
  8  4  1  0  0  0  0
  8  6  1  0  0  0  0
  9  1  1  0  0  0  0
 10 16  1  0  0  0  0
 10 11  1  0  0  0  0
 12 15  2  0  0  0  0
 12 14  1  0  0  0  0
 13 11  1  0  0  0  0
 14 10  1  0  0  0  0
 15 13  1  0  0  0  0
 17 22  1  0  0  0  0
 19 17  2  0  0  0  0
 20 19  2  0  0  0  0
 20 18  1  0  0  0  0
 22 21  1  0  0  0  0
 23 24  1  0  0  0  0
 23  8  1  0  0  0  0
 25 27  1  0  0  0  0
 26 24  1  0  0  0  0
 27 26  1  0  0  0  0
 28 29  1  0  0  0  0
 29 30  1  0  0  0  0
 30 26  1  0  0  0  0
 31 25  1  0  0  0  0
 31 28  2  0  0  0  0
 32 34  1  0  0  0  0
 34 33  2  0  0  0  0
M  END
>  <MODEL>
8

>  <REMARK>
 VINA RESULT:      -5.9      5.654      8.950
  Name = 
  8 active torsions:
  status: ('A' for Active; 'I' for Inactive)
    1  A    between atoms: C_2  and  C_4
    2  A    between atoms: C_2  and  O_25
    3  A    between atoms: N_3  and  C_13
    4  A    between atoms: N_3  and  C_17
    5  A    between atoms: C_12  and  C_28
    6  A    between atoms: C_17  and  C_29
    7  A    between atoms: N_21  and  C_32
    8  A    between atoms: C_24  and  C_32
                            x       y       z     vdW  Elec       q    Type
                         _______ _______ _______ _____ _____    ______ ____

>  <TORSDO>
F 8

$$$$
=
 OpenBabel11052414033D

 34 37  0  0  1  0  0  0  0  0999 V2000
  186.8280  178.6010  140.6990 C   0  0  2  0  0  3  0  0  0  0  0  0
  187.9190  176.0650  143.3270 O   0  0  0  0  0  1  0  0  0  0  0  0
  186.3380  178.6540  143.0500 O   0  0  0  0  0  1  0  0  0  0  0  0
  188.0320  177.1050  142.4000 C   0  0  2  0  0  0  0  0  0  0  0  0
  187.4930  177.8100  139.6450 N   0  0  0  0  0  0  0  0  0  0  0  0
  189.0950  176.8630  141.3460 C   0  0  1  0  0  3  0  0  0  0  0  0
  188.9090  177.6130  140.0220 C   0  0  1  0  0  3  0  0  0  0  0  0
  189.3230  177.9060  142.4430 C   0  0  2  0  0  3  0  0  0  0  0  0
  186.7420  177.8140  142.0090 C   0  0  2  0  0  3  0  0  0  0  0  0
  191.7190  176.4740  137.5070 C   0  0  1  0  0  3  0  0  0  0  0  0
  191.2510  175.0270  137.4450 C   0  0  0  0  0  2  0  0  0  0  0  0
  189.6720  176.8580  138.9650 C   0  0  0  0  0  0  0  0  0  0  0  0
  189.7360  175.0120  137.2820 C   0  0  0  0  0  2  0  0  0  0  0  0
  191.1380  177.1650  138.7400 C   0  0  0  0  0  2  0  0  0  0  0  0
  189.0620  175.8300  138.3490 C   0  0  0  0  0  3  0  0  0  0  0  0
  193.4940  176.5270  137.5790 Cl  0  0  0  0  0  0  0  0  0  0  0  0
  185.4270  178.9890  140.3050 C   0  0  0  0  0  0  0  0  0  0  0  0
  182.7690  178.6250  142.6900 C   0  0  0  0  0  1  0  0  0  0  0  0
  184.4170  178.4460  140.9310 C   0  0  0  0  0  0  0  0  0  0  0  0
  183.4100  177.9060  141.5580 C   0  0  0  0  0  3  0  0  0  0  0  0
  184.0290  180.4900  139.0800 O   0  0  0  0  0  1  0  0  0  0  0  0
  185.2250  179.9200  139.2830 O   0  0  0  0  0  0  0  0  0  0  0  0
  190.3250  177.3660  143.4530 C   0  0  0  0  0  2  0  0  0  0  0  0
  190.2100  178.1000  144.7040 N   0  0  0  0  0  2  0  0  0  0  0  0
  190.2610  177.9330  147.8530 C   0  0  0  0  0  2  0  0  0  0  0  0
  189.3190  177.3480  145.5760 C   0  0  1  0  0  3  0  0  0  0  0  0
  190.0870  176.8400  146.8050 C   0  0  0  0  0  2  0  0  0  0  0  0
  187.7800  177.9340  148.4060 C   0  0  0  0  0  3  0  0  0  0  0  0
  187.2770  177.5740  147.0310 C   0  0  0  0  0  2  0  0  0  0  0  0
  188.1030  178.2090  145.9230 C   0  0  0  0  0  2  0  0  0  0  0  0
  189.0710  178.0460  148.7690 C   0  0  0  0  0  3  0  0  0  0  0  0
  187.4890  178.6240  138.4220 C   0  0  0  0  0  2  0  0  0  0  0  0
  187.1670  178.0070  136.0620 C   0  0  0  0  0  2  0  0  0  0  0  0
  186.7560  177.9210  137.3240 C   0  0  0  0  0  3  0  0  0  0  0  0
  1 17  1  6  0  0  0
  1  9  1  0  0  0  0
  4  8  1  0  0  0  0
  4  2  1  1  0  0  0
  5  7  1  0  0  0  0
  5  1  1  0  0  0  0
  6  4  1  0  0  0  0
  6  8  1  0  0  0  0
  7  6  1  0  0  0  0
  8 23  1  0  0  0  0
  9  4  1  0  0  0  0
  9  3  1  0  0  0  0
 10 16  1  0  0  0  0
 10 14  1  0  0  0  0
 11 10  1  0  0  0  0
 12  7  1  0  0  0  0
 13 11  1  0  0  0  0
 13 15  1  0  0  0  0
 14 12  1  0  0  0  0
 15 12  2  0  0  0  0
 17 19  2  0  0  0  0
 19 20  2  0  0  0  0
 20 18  1  0  0  0  0
 21 22  1  0  0  0  0
 22 17  1  0  0  0  0
 23 24  1  0  0  0  0
 24 26  1  0  0  0  0
 25 31  1  0  0  0  0
 26 30  1  0  0  0  0
 26 27  1  0  0  0  0
 27 25  1  0  0  0  0
 28 31  2  0  0  0  0
 29 28  1  0  0  0  0
 30 29  1  0  0  0  0
 32  5  1  0  0  0  0
 33 34  2  0  0  0  0
 34 32  1  0  0  0  0
M  END
>  <MODEL>
9

>  <REMARK>
 VINA RESULT:      -5.7      4.819      7.690
  Name = 
  8 active torsions:
  status: ('A' for Active; 'I' for Inactive)
    1  A    between atoms: C_2  and  C_4
    2  A    between atoms: C_2  and  O_25
    3  A    between atoms: N_3  and  C_13
    4  A    between atoms: N_3  and  C_17
    5  A    between atoms: C_12  and  C_28
    6  A    between atoms: C_17  and  C_29
    7  A    between atoms: N_21  and  C_32
    8  A    between atoms: C_24  and  C_32
                            x       y       z     vdW  Elec       q    Type
                         _______ _______ _______ _____ _____    ______ ____

>  <TORSDO>
F 8

$$$$
