=
 OpenBabel11052414273D

 32 38  0  0  1  0  0  0  0  0999 V2000
  187.1710  177.4430  145.6240 C   0  0  2  0  0  0  0  0  0  0  0  0
  185.6860  177.9940  143.6600 C   0  0  0  0  0  0  0  0  0  0  0  0
  187.3500  177.1470  147.0980 C   0  0  0  0  0  2  0  0  0  0  0  0
  185.7360  177.4800  145.0880 C   0  0  2  0  0  3  0  0  0  0  0  0
  184.4700  178.4730  143.1540 C   0  0  0  0  0  0  0  0  0  0  0  0
  187.5830  178.5590  139.1400 C   0  0  0  0  0  2  0  0  0  0  0  0
  186.7860  177.8790  142.8030 C   0  0  0  0  0  0  0  0  0  0  0  0
  185.1690  178.9380  139.5180 C   0  0  0  0  0  2  0  0  0  0  0  0
  185.3580  178.5220  140.9440 C   0  0  0  0  0  0  0  0  0  0  0  0
  184.9130  178.3270  146.0740 C   0  0  2  0  0  3  0  0  0  0  0  0
  184.3400  178.7440  141.8250 N   0  0  0  0  0  0  0  0  0  0  0  0
  183.8340  179.2170  145.4380 C   0  0  0  0  0  2  0  0  0  0  0  0
  185.9150  179.1890  146.8240 C   0  0  0  0  0  2  0  0  0  0  0  0
  188.0900  177.4460  143.3360 C   0  0  0  0  0  3  0  0  0  0  0  0
  188.3360  177.2320  144.6440 C   0  0  0  0  0  0  0  0  0  0  0  0
  186.6260  178.1190  141.4260 C   0  0  0  0  0  0  0  0  0  0  0  0
  183.3190  178.6580  144.1030 C   0  0  1  0  0  3  0  0  0  0  0  0
  187.3060  178.5890  146.6150 C   0  0  2  0  0  3  0  0  0  0  0  0
  186.1900  178.2940  138.5940 C   0  0  0  0  0  2  0  0  0  0  0  0
  187.7370  177.7940  140.4490 C   0  0  0  0  0  2  0  0  0  0  0  0
  191.9560  177.7580  142.0090 C   0  0  0  0  0  1  0  0  0  0  0  0
  192.2290  179.8100  144.0110 O   0  0  0  0  0  1  0  0  0  0  0  0
  191.6630  175.2070  144.3140 C   0  0  0  0  0  1  0  0  0  0  0  0
  191.0140  178.6470  145.6940 C   0  0  0  0  0  2  0  0  0  0  0  0
  189.7110  176.6020  144.9070 C   0  0  2  0  0  3  0  0  0  0  0  0
  191.6690  177.5270  143.4910 C   0  0  2  0  0  3  0  0  0  0  0  0
  190.4160  177.2900  146.0830 C   0  0  0  0  0  2  0  0  0  0  0  0
  190.7460  176.3010  143.7880 C   0  0  0  0  0  0  0  0  0  0  0  0
  190.0720  175.6940  142.5640 C   0  0  0  0  0  1  0  0  0  0  0  0
  191.2430  178.8350  144.1910 C   0  0  2  0  0  3  0  0  0  0  0  0
  182.2510  179.4130  143.5600 O   0  0  0  0  0  0  0  0  0  0  0  0
  181.0350  178.7310  143.7320 C   0  0  0  0  0  1  0  0  0  0  0  0
  1 18  1  0  0  0  0
  1  3  1  1  0  0  0
  4  2  1  6  0  0  0
  4  1  1  0  0  0  0
  4 10  1  0  0  0  0
  5  2  1  0  0  0  0
  5 17  1  0  0  0  0
  6 20  1  0  0  0  0
  7 14  1  0  0  0  0
  7  2  2  0  0  0  0
  8  9  1  0  0  0  0
  9 16  2  0  0  0  0
  9 11  1  0  0  0  0
 10 12  1  6  0  0  0
 10 13  1  0  0  0  0
 11  5  2  0  0  0  0
 14 15  2  0  0  0  0
 15  1  1  0  0  0  0
 16  7  1  0  0  0  0
 17 31  1  6  0  0  0
 17 12  1  0  0  0  0
 18 13  1  1  0  0  0
 18  3  1  0  0  0  0
 19  6  1  0  0  0  0
 19  8  1  0  0  0  0
 20 16  1  0  0  0  0
 24 27  1  0  0  0  0
 25 15  1  6  0  0  0
 25 27  1  0  0  0  0
 26 21  1  6  0  0  0
 26 28  1  0  0  0  0
 26 30  1  0  0  0  0
 28 23  1  0  0  0  0
 28 25  1  0  0  0  0
 29 28  1  0  0  0  0
 30 22  1  1  0  0  0
 30 24  1  0  0  0  0
 31 32  1  0  0  0  0
M  END
>  <MODEL>
1

>  <REMARK>
 VINA RESULT:      -9.1      0.000      0.000
  Name = 
  2 active torsions:
  status: ('A' for Active; 'I' for Inactive)
    1  A    between atoms: O_13  and  C_29
    2  A    between atoms: C_16  and  C_27
                            x       y       z     vdW  Elec       q    Type
                         _______ _______ _______ _____ _____    ______ ____

>  <TORSDO>
F 2

$$$$
=
 OpenBabel11052414273D

 32 38  0  0  1  0  0  0  0  0999 V2000
  185.5550  178.7950  140.2970 C   0  0  2  0  0  0  0  0  0  0  0  0
  186.5810  178.3590  142.5610 C   0  0  0  0  0  0  0  0  0  0  0  0
  184.4420  179.3640  139.4420 C   0  0  0  0  0  2  0  0  0  0  0  0
  185.5490  179.1590  141.7850 C   0  0  2  0  0  3  0  0  0  0  0  0
  186.4520  178.2550  143.9520 C   0  0  0  0  0  0  0  0  0  0  0  0
  190.9030  176.0150  142.9650 C   0  0  0  0  0  2  0  0  0  0  0  0
  187.7200  177.8390  141.9380 C   0  0  0  0  0  0  0  0  0  0  0  0
  189.6600  176.6660  145.0020 C   0  0  0  0  0  2  0  0  0  0  0  0
  188.6380  177.3260  144.1290 C   0  0  0  0  0  0  0  0  0  0  0  0
  184.1100  178.9550  142.2890 C   0  0  2  0  0  3  0  0  0  0  0  0
  187.4630  177.7270  144.6960 N   0  0  0  0  0  0  0  0  0  0  0  0
  183.9820  178.4000  143.7150 C   0  0  0  0  0  2  0  0  0  0  0  0
  183.4530  178.0010  141.3050 C   0  0  0  0  0  2  0  0  0  0  0  0
  187.8360  177.8760  140.4690 C   0  0  0  0  0  3  0  0  0  0  0  0
  186.8580  178.3060  139.6460 C   0  0  0  0  0  0  0  0  0  0  0  0
  188.7760  177.3370  142.7210 C   0  0  0  0  0  0  0  0  0  0  0  0
  185.1900  178.7550  144.5970 C   0  0  1  0  0  3  0  0  0  0  0  0
  184.3040  177.9690  140.0350 C   0  0  2  0  0  3  0  0  0  0  0  0
  191.0330  176.6300  144.3480 C   0  0  0  0  0  2  0  0  0  0  0  0
  190.1030  176.9700  142.0890 C   0  0  0  0  0  2  0  0  0  0  0  0
  189.7990  175.5530  137.6210 C   0  0  0  0  0  1  0  0  0  0  0  0
  187.2240  174.4190  137.0070 O   0  0  0  0  0  1  0  0  0  0  0  0
  188.9900  178.6730  136.3910 C   0  0  0  0  0  1  0  0  0  0  0  0
  186.0320  176.4740  137.1480 C   0  0  0  0  0  2  0  0  0  0  0  0
  187.3060  178.4240  138.1830 C   0  0  2  0  0  3  0  0  0  0  0  0
  188.5870  176.3930  137.2220 C   0  0  2  0  0  3  0  0  0  0  0  0
  186.1850  177.9970  137.2280 C   0  0  0  0  0  2  0  0  0  0  0  0
  188.6670  177.8920  137.6550 C   0  0  0  0  0  0  0  0  0  0  0  0
  189.7990  178.2210  138.6210 C   0  0  0  0  0  1  0  0  0  0  0  0
  187.2660  175.6850  137.5980 C   0  0  2  0  0  3  0  0  0  0  0  0
  185.0360  178.3390  145.9420 O   0  0  0  0  0  0  0  0  0  0  0  0
  185.6350  179.2680  146.8110 C   0  0  0  0  0  1  0  0  0  0  0  0
  1  3  1  6  0  0  0
  1  4  1  0  0  0  0
  2  5  1  0  0  0  0
  4 10  1  0  0  0  0
  4  2  1  1  0  0  0
  5 17  1  0  0  0  0
  5 11  2  0  0  0  0
  6 19  1  0  0  0  0
  7  2  2  0  0  0  0
  7 16  1  0  0  0  0
  9 11  1  0  0  0  0
  9  8  1  0  0  0  0
 10 13  1  6  0  0  0
 10 12  1  0  0  0  0
 12 17  1  0  0  0  0
 14  7  1  0  0  0  0
 15  1  1  0  0  0  0
 15 14  2  0  0  0  0
 16  9  2  0  0  0  0
 17 31  1  1  0  0  0
 18  3  1  6  0  0  0
 18  1  1  0  0  0  0
 18 13  1  0  0  0  0
 19  8  1  0  0  0  0
 20 16  1  0  0  0  0
 20  6  1  0  0  0  0
 23 28  1  0  0  0  0
 24 27  1  0  0  0  0
 24 30  1  0  0  0  0
 25 15  1  1  0  0  0
 26 30  1  0  0  0  0
 26 21  1  1  0  0  0
 26 28  1  0  0  0  0
 27 25  1  0  0  0  0
 28 25  1  0  0  0  0
 28 29  1  0  0  0  0
 30 22  1  6  0  0  0
 31 32  1  0  0  0  0
M  END
>  <MODEL>
2

>  <REMARK>
 VINA RESULT:      -8.4      2.547      6.073
  Name = 
  2 active torsions:
  status: ('A' for Active; 'I' for Inactive)
    1  A    between atoms: O_13  and  C_29
    2  A    between atoms: C_16  and  C_27
                            x       y       z     vdW  Elec       q    Type
                         _______ _______ _______ _____ _____    ______ ____

>  <TORSDO>
F 2

$$$$
=
 OpenBabel11052414273D

 32 38  0  0  1  0  0  0  0  0999 V2000
  190.5490  177.1290  140.6990 C   0  0  2  0  0  0  0  0  0  0  0  0
  188.7240  177.2870  142.4350 C   0  0  0  0  0  0  0  0  0  0  0  0
  191.9410  176.7000  140.2860 C   0  0  0  0  0  2  0  0  0  0  0  0
  190.0310  176.6170  142.0470 C   0  0  2  0  0  3  0  0  0  0  0  0
  188.3180  177.2560  143.7750 C   0  0  0  0  0  0  0  0  0  0  0  0
  184.3880  179.3790  141.3560 C   0  0  0  0  0  2  0  0  0  0  0  0
  187.8600  177.8150  141.4700 C   0  0  0  0  0  0  0  0  0  0  0  0
  184.8330  178.5840  143.6540 C   0  0  0  0  0  2  0  0  0  0  0  0
  186.1560  178.0620  143.1850 C   0  0  0  0  0  0  0  0  0  0  0  0
  191.1590  176.8350  143.0700 C   0  0  2  0  0  3  0  0  0  0  0  0
  187.0640  177.6600  144.1210 N   0  0  0  0  0  0  0  0  0  0  0  0
  190.7020  177.2490  144.4770 C   0  0  0  0  0  2  0  0  0  0  0  0
  192.0560  177.9120  142.4830 C   0  0  0  0  0  2  0  0  0  0  0  0
  188.3010  177.9200  140.0670 C   0  0  0  0  0  3  0  0  0  0  0  0
  189.5460  177.6210  139.6440 C   0  0  0  0  0  0  0  0  0  0  0  0
  186.5520  178.1860  141.8320 C   0  0  0  0  0  0  0  0  0  0  0  0
  189.2860  176.7520  144.8080 C   0  0  1  0  0  3  0  0  0  0  0  0
  191.7370  178.0330  140.9920 C   0  0  2  0  0  3  0  0  0  0  0  0
  183.8030  178.6220  142.5360 C   0  0  0  0  0  2  0  0  0  0  0  0
  185.5300  178.5540  140.7760 C   0  0  0  0  0  2  0  0  0  0  0  0
  187.4510  174.7690  136.8510 C   0  0  0  0  0  1  0  0  0  0  0  0
  185.7130  177.0620  136.9610 O   0  0  0  0  0  1  0  0  0  0  0  0
  190.2210  176.6070  135.9300 C   0  0  0  0  0  1  0  0  0  0  0  0
  187.4360  178.6290  137.4510 C   0  0  0  0  0  2  0  0  0  0  0  0
  189.6850  177.6300  138.1160 C   0  0  2  0  0  3  0  0  0  0  0  0
  187.9590  176.2080  136.8140 C   0  0  2  0  0  3  0  0  0  0  0  0
  188.9540  178.8310  137.5030 C   0  0  0  0  0  2  0  0  0  0  0  0
  189.4580  176.3760  137.2250 C   0  0  0  0  0  0  0  0  0  0  0  0
  190.0960  175.1390  137.8440 C   0  0  0  0  0  1  0  0  0  0  0  0
  186.9850  177.1670  137.5320 C   0  0  2  0  0  3  0  0  0  0  0  0
  188.8960  177.0370  146.1400 O   0  0  0  0  0  0  0  0  0  0  0  0
  190.0040  176.9600  147.0000 C   0  0  0  0  0  1  0  0  0  0  0  0
  1  3  1  6  0  0  0
  1 18  1  0  0  0  0
  1  4  1  0  0  0  0
  2  5  1  0  0  0  0
  4  2  1  1  0  0  0
  4 10  1  0  0  0  0
  5 11  2  0  0  0  0
  5 17  1  0  0  0  0
  6 19  1  0  0  0  0
  7 16  1  0  0  0  0
  7  2  2  0  0  0  0
  9  8  1  0  0  0  0
  9 11  1  0  0  0  0
 10 13  1  6  0  0  0
 10 12  1  0  0  0  0
 12 17  1  0  0  0  0
 14  7  1  0  0  0  0
 15 14  2  0  0  0  0
 15  1  1  0  0  0  0
 16  9  2  0  0  0  0
 17 31  1  1  0  0  0
 18  3  1  6  0  0  0
 18 13  1  0  0  0  0
 19  8  1  0  0  0  0
 20  6  1  0  0  0  0
 20 16  1  0  0  0  0
 23 28  1  0  0  0  0
 24 27  1  0  0  0  0
 24 30  1  0  0  0  0
 25 15  1  1  0  0  0
 26 21  1  1  0  0  0
 26 28  1  0  0  0  0
 26 30  1  0  0  0  0
 27 25  1  0  0  0  0
 28 29  1  0  0  0  0
 28 25  1  0  0  0  0
 30 22  1  6  0  0  0
 31 32  1  0  0  0  0
M  END
>  <MODEL>
3

>  <REMARK>
 VINA RESULT:      -8.3      2.624      6.401
  Name = 
  2 active torsions:
  status: ('A' for Active; 'I' for Inactive)
    1  A    between atoms: O_13  and  C_29
    2  A    between atoms: C_16  and  C_27
                            x       y       z     vdW  Elec       q    Type
                         _______ _______ _______ _____ _____    ______ ____

>  <TORSDO>
F 2

$$$$
=
 OpenBabel11052414273D

 32 38  0  0  1  0  0  0  0  0999 V2000
  190.1620  177.4830  141.5070 C   0  0  2  0  0  0  0  0  0  0  0  0
  187.9800  177.5690  142.7730 C   0  0  0  0  0  0  0  0  0  0  0  0
  191.6330  177.1320  141.4400 C   0  0  0  0  0  2  0  0  0  0  0  0
  189.3760  176.9730  142.7200 C   0  0  2  0  0  3  0  0  0  0  0  0
  187.2790  177.5460  143.9860 C   0  0  0  0  0  0  0  0  0  0  0  0
  183.8990  179.3570  140.6530 C   0  0  0  0  0  2  0  0  0  0  0  0
  187.3330  178.0170  141.6160 C   0  0  0  0  0  0  0  0  0  0  0  0
  183.8470  178.6480  143.0210 C   0  0  0  0  0  2  0  0  0  0  0  0
  185.2690  178.1990  142.8860 C   0  0  0  0  0  0  0  0  0  0  0  0
  190.2240  177.2860  143.9640 C   0  0  2  0  0  3  0  0  0  0  0  0
  185.9580  177.8780  144.0200 N   0  0  0  0  0  0  0  0  0  0  0  0
  189.4340  177.7050  145.2130 C   0  0  0  0  0  2  0  0  0  0  0  0
  191.1710  178.4030  143.5560 C   0  0  0  0  0  2  0  0  0  0  0  0
  188.0790  178.1160  140.3480 C   0  0  0  0  0  3  0  0  0  0  0  0
  189.4020  177.8850  140.2330 C   0  0  0  0  0  0  0  0  0  0  0  0
  185.9580  178.3140  141.6560 C   0  0  0  0  0  0  0  0  0  0  0  0
  188.0090  177.1290  145.2310 C   0  0  1  0  0  3  0  0  0  0  0  0
  191.1980  178.4670  142.0280 C   0  0  2  0  0  3  0  0  0  0  0  0
  183.1020  178.5940  141.6970 C   0  0  0  0  0  2  0  0  0  0  0  0
  185.1880  178.5910  140.3820 C   0  0  0  0  0  2  0  0  0  0  0  0
  188.3500  174.7100  137.2100 C   0  0  0  0  0  1  0  0  0  0  0  0
  186.3830  176.7710  136.7910 O   0  0  0  0  0  1  0  0  0  0  0  0
  191.0290  176.8510  136.8320 C   0  0  0  0  0  1  0  0  0  0  0  0
  187.7550  178.5540  137.5650 C   0  0  0  0  0  2  0  0  0  0  0  0
  189.8890  177.8640  138.7770 C   0  0  2  0  0  3  0  0  0  0  0  0
  188.6850  176.2000  137.2040 C   0  0  2  0  0  3  0  0  0  0  0  0
  189.1870  178.9460  137.9470 C   0  0  0  0  0  2  0  0  0  0  0  0
  190.0180  176.5660  137.9320 C   0  0  0  0  0  0  0  0  0  0  0  0
  190.6340  175.4370  138.7500 C   0  0  0  0  0  1  0  0  0  0  0  0
  187.4680  177.0510  137.6270 C   0  0  2  0  0  3  0  0  0  0  0  0
  187.3070  177.4210  146.4260 O   0  0  0  0  0  0  0  0  0  0  0  0
  188.2000  177.5010  147.5090 C   0  0  0  0  0  1  0  0  0  0  0  0
  1  3  1  6  0  0  0
  1 18  1  0  0  0  0
  1  4  1  0  0  0  0
  2  5  1  0  0  0  0
  4  2  1  1  0  0  0
  4 10  1  0  0  0  0
  5 11  2  0  0  0  0
  5 17  1  0  0  0  0
  6 19  1  0  0  0  0
  7 16  1  0  0  0  0
  7  2  2  0  0  0  0
  9  8  1  0  0  0  0
  9 11  1  0  0  0  0
 10 13  1  6  0  0  0
 10 12  1  0  0  0  0
 12 17  1  0  0  0  0
 14  7  1  0  0  0  0
 15 14  2  0  0  0  0
 15  1  1  0  0  0  0
 16  9  2  0  0  0  0
 17 31  1  1  0  0  0
 18  3  1  6  0  0  0
 18 13  1  0  0  0  0
 19  8  1  0  0  0  0
 20  6  1  0  0  0  0
 20 16  1  0  0  0  0
 23 28  1  0  0  0  0
 24 30  1  0  0  0  0
 24 27  1  0  0  0  0
 25 15  1  1  0  0  0
 26 21  1  1  0  0  0
 26 30  1  0  0  0  0
 26 28  1  0  0  0  0
 27 25  1  0  0  0  0
 28 29  1  0  0  0  0
 28 25  1  0  0  0  0
 30 22  1  6  0  0  0
 31 32  1  0  0  0  0
M  END
>  <MODEL>
4

>  <REMARK>
 VINA RESULT:      -8.3      2.698      5.681
  Name = 
  2 active torsions:
  status: ('A' for Active; 'I' for Inactive)
    1  A    between atoms: O_13  and  C_29
    2  A    between atoms: C_16  and  C_27
                            x       y       z     vdW  Elec       q    Type
                         _______ _______ _______ _____ _____    ______ ____

>  <TORSDO>
F 2

$$$$
=
 OpenBabel11052414273D

 32 38  0  0  1  0  0  0  0  0999 V2000
  184.4000  178.7180  139.0690 C   0  0  2  0  0  0  0  0  0  0  0  0
  184.5350  178.6510  141.5880 C   0  0  0  0  0  0  0  0  0  0  0  0
  183.6320  179.0140  137.7980 C   0  0  0  0  0  2  0  0  0  0  0  0
  183.7790  179.1930  140.3880 C   0  0  2  0  0  3  0  0  0  0  0  0
  183.9010  178.6360  142.8380 C   0  0  0  0  0  0  0  0  0  0  0  0
  188.6480  177.1420  143.8570 C   0  0  0  0  0  2  0  0  0  0  0  0
  185.8840  178.2910  141.5010 C   0  0  0  0  0  0  0  0  0  0  0  0
  186.6490  177.7240  145.1910 C   0  0  0  0  0  2  0  0  0  0  0  0
  185.9580  178.1230  143.9240 C   0  0  0  0  0  0  0  0  0  0  0  0
  182.2980  178.7790  140.3570 C   0  0  2  0  0  3  0  0  0  0  0  0
  184.6130  178.3550  143.9640 N   0  0  0  0  0  0  0  0  0  0  0  0
  181.7120  178.3260  141.7020 C   0  0  0  0  0  2  0  0  0  0  0  0
  182.1980  177.6500  139.3450 C   0  0  0  0  0  2  0  0  0  0  0  0
  186.5450  178.2320  140.1840 C   0  0  0  0  0  3  0  0  0  0  0  0
  185.9060  178.4160  139.0110 C   0  0  0  0  0  0  0  0  0  0  0  0
  186.6190  178.0470  142.6750 C   0  0  0  0  0  0  0  0  0  0  0  0
  182.4340  178.9560  142.9040 C   0  0  1  0  0  3  0  0  0  0  0  0
  183.4650  177.6680  138.4890 C   0  0  2  0  0  3  0  0  0  0  0  0
  188.1590  177.8780  145.0920 C   0  0  0  0  0  2  0  0  0  0  0  0
  188.1220  177.8690  142.6260 C   0  0  0  0  0  2  0  0  0  0  0  0
  189.6860  176.0030  138.5550 C   0  0  0  0  0  1  0  0  0  0  0  0
  187.6820  174.4490  137.1900 O   0  0  0  0  0  1  0  0  0  0  0  0
  189.0530  178.8670  136.7370 C   0  0  0  0  0  1  0  0  0  0  0  0
  186.3000  176.3040  136.6320 C   0  0  0  0  0  2  0  0  0  0  0  0
  186.8560  178.4950  137.8090 C   0  0  2  0  0  3  0  0  0  0  0  0
  188.6280  176.6180  137.6410 C   0  0  2  0  0  3  0  0  0  0  0  0
  186.2370  177.8350  136.5720 C   0  0  0  0  0  2  0  0  0  0  0  0
  188.3680  178.1390  137.8840 C   0  0  0  0  0  0  0  0  0  0  0  0
  189.0050  178.7050  139.1470 C   0  0  0  0  0  1  0  0  0  0  0  0
  187.3530  175.7470  137.5940 C   0  0  2  0  0  3  0  0  0  0  0  0
  181.8360  178.6280  144.1450 O   0  0  0  0  0  0  0  0  0  0  0  0
  180.4360  178.6090  144.0220 C   0  0  0  0  0  1  0  0  0  0  0  0
  1  3  1  6  0  0  0
  1  4  1  0  0  0  0
  2  5  1  0  0  0  0
  4  2  1  1  0  0  0
  5 17  1  0  0  0  0
  5 11  2  0  0  0  0
  6 19  1  0  0  0  0
  7  2  2  0  0  0  0
  7 16  1  0  0  0  0
  9 11  1  0  0  0  0
  9  8  1  0  0  0  0
 10 13  1  6  0  0  0
 10  4  1  0  0  0  0
 10 12  1  0  0  0  0
 12 17  1  0  0  0  0
 14  7  1  0  0  0  0
 15  1  1  0  0  0  0
 15 14  2  0  0  0  0
 16  9  2  0  0  0  0
 17 31  1  1  0  0  0
 18  3  1  6  0  0  0
 18  1  1  0  0  0  0
 18 13  1  0  0  0  0
 19  8  1  0  0  0  0
 20 16  1  0  0  0  0
 20  6  1  0  0  0  0
 23 28  1  0  0  0  0
 24 30  1  0  0  0  0
 25 28  1  0  0  0  0
 25 15  1  1  0  0  0
 26 28  1  0  0  0  0
 26 21  1  1  0  0  0
 27 24  1  0  0  0  0
 27 25  1  0  0  0  0
 28 29  1  0  0  0  0
 30 22  1  6  0  0  0
 30 26  1  0  0  0  0
 32 31  1  0  0  0  0
M  END
>  <MODEL>
5

>  <REMARK>
 VINA RESULT:      -7.8      2.585      6.233
  Name = 
  2 active torsions:
  status: ('A' for Active; 'I' for Inactive)
    1  A    between atoms: O_13  and  C_29
    2  A    between atoms: C_16  and  C_27
                            x       y       z     vdW  Elec       q    Type
                         _______ _______ _______ _____ _____    ______ ____

>  <TORSDO>
F 2

$$$$
=
 OpenBabel11052414273D

 32 38  0  0  1  0  0  0  0  0999 V2000
  189.1670  177.1290  140.0970 C   0  0  2  0  0  0  0  0  0  0  0  0
  188.4130  177.2220  142.5040 C   0  0  0  0  0  0  0  0  0  0  0  0
  190.1340  176.6460  139.0370 C   0  0  0  0  0  2  0  0  0  0  0  0
  189.2870  176.5040  141.4910 C   0  0  2  0  0  3  0  0  0  0  0  0
  188.6880  177.0650  143.8690 C   0  0  0  0  0  0  0  0  0  0  0  0
  184.3770  179.7530  143.7900 C   0  0  0  0  0  2  0  0  0  0  0  0
  187.2680  177.9240  142.1120 C   0  0  0  0  0  0  0  0  0  0  0  0
  185.7530  178.6610  145.5310 C   0  0  0  0  0  2  0  0  0  0  0  0
  186.6210  178.0980  144.4480 C   0  0  0  0  0  0  0  0  0  0  0  0
  190.7820  176.5130  141.8560 C   0  0  2  0  0  3  0  0  0  0  0  0
  187.8060  177.5200  144.8020 N   0  0  0  0  0  0  0  0  0  0  0  0
  191.0990  176.7920  143.3320 C   0  0  0  0  0  2  0  0  0  0  0  0
  191.4200  177.5790  140.9810 C   0  0  0  0  0  2  0  0  0  0  0  0
  187.0040  178.1590  140.6810 C   0  0  0  0  0  3  0  0  0  0  0  0
  187.8540  177.8170  139.6920 C   0  0  0  0  0  0  0  0  0  0  0  0
  186.3430  178.3490  143.0840 C   0  0  0  0  0  0  0  0  0  0  0  0
  189.9580  176.3710  144.2710 C   0  0  1  0  0  3  0  0  0  0  0  0
  190.4530  177.8980  139.8410 C   0  0  2  0  0  3  0  0  0  0  0  0
  184.3300  178.9100  145.0520 C   0  0  0  0  0  2  0  0  0  0  0  0
  184.9990  178.9160  142.6780 C   0  0  0  0  0  2  0  0  0  0  0  0
  190.0820  177.1340  135.8330 C   0  0  0  0  0  1  0  0  0  0  0  0
  188.7740  174.6220  136.3520 O   0  0  0  0  0  1  0  0  0  0  0  0
  187.1680  178.9710  136.0210 C   0  0  0  0  0  1  0  0  0  0  0  0
  186.9720  175.5590  137.5940 C   0  0  0  0  0  2  0  0  0  0  0  0
  187.2550  177.9950  138.2900 C   0  0  2  0  0  3  0  0  0  0  0  0
  188.6440  177.0270  136.3340 C   0  0  2  0  0  3  0  0  0  0  0  0
  186.2670  176.8670  137.9660 C   0  0  0  0  0  2  0  0  0  0  0  0
  188.1020  178.3180  137.0280 C   0  0  0  0  0  0  0  0  0  0  0  0
  189.1570  179.3750  137.3300 C   0  0  0  0  0  1  0  0  0  0  0  0
  188.4250  175.7260  137.1370 C   0  0  2  0  0  3  0  0  0  0  0  0
  190.2810  176.5260  145.6420 O   0  0  0  0  0  0  0  0  0  0  0  0
  191.6590  176.7550  145.7950 C   0  0  0  0  0  1  0  0  0  0  0  0
  1  3  1  6  0  0  0
  1  4  1  0  0  0  0
  2  5  1  0  0  0  0
  4 10  1  0  0  0  0
  4  2  1  1  0  0  0
  5 17  1  0  0  0  0
  5 11  2  0  0  0  0
  6 19  1  0  0  0  0
  7  2  2  0  0  0  0
  7 16  1  0  0  0  0
  9 11  1  0  0  0  0
  9  8  1  0  0  0  0
 10 13  1  6  0  0  0
 10 12  1  0  0  0  0
 12 17  1  0  0  0  0
 14  7  1  0  0  0  0
 15  1  1  0  0  0  0
 15 14  2  0  0  0  0
 16  9  2  0  0  0  0
 17 31  1  1  0  0  0
 18  3  1  6  0  0  0
 18  1  1  0  0  0  0
 18 13  1  0  0  0  0
 19  8  1  0  0  0  0
 20 16  1  0  0  0  0
 20  6  1  0  0  0  0
 23 28  1  0  0  0  0
 24 27  1  0  0  0  0
 25 15  1  1  0  0  0
 26 21  1  1  0  0  0
 26 28  1  0  0  0  0
 26 30  1  0  0  0  0
 27 25  1  0  0  0  0
 28 29  1  0  0  0  0
 28 25  1  0  0  0  0
 30 22  1  6  0  0  0
 30 24  1  0  0  0  0
 31 32  1  0  0  0  0
M  END
>  <MODEL>
6

>  <REMARK>
 VINA RESULT:      -7.4      2.792      6.964
  Name = 
  2 active torsions:
  status: ('A' for Active; 'I' for Inactive)
    1  A    between atoms: O_13  and  C_29
    2  A    between atoms: C_16  and  C_27
                            x       y       z     vdW  Elec       q    Type
                         _______ _______ _______ _____ _____    ______ ____

>  <TORSDO>
F 2

$$$$
=
 OpenBabel11052414273D

 32 38  0  0  1  0  0  0  0  0999 V2000
  186.8560  178.0890  138.0060 C   0  0  2  0  0  0  0  0  0  0  0  0
  187.8840  177.6870  140.2750 C   0  0  0  0  0  0  0  0  0  0  0  0
  186.9250  178.0090  136.4950 C   0  0  0  0  0  2  0  0  0  0  0  0
  187.9440  177.3520  138.7950 C   0  0  2  0  0  3  0  0  0  0  0  0
  189.0110  177.4430  141.0710 C   0  0  0  0  0  0  0  0  0  0  0  0
  185.4580  178.8980  144.3970 C   0  0  0  0  0  2  0  0  0  0  0  0
  186.6960  178.1080  140.8820 C   0  0  0  0  0  0  0  0  0  0  0  0
  187.7570  178.0010  144.5410 C   0  0  0  0  0  2  0  0  0  0  0  0
  187.7470  177.8200  143.0540 C   0  0  0  0  0  0  0  0  0  0  0  0
  189.2890  177.7070  138.1390 C   0  0  2  0  0  3  0  0  0  0  0  0
  188.9250  177.5350  142.4270 N   0  0  0  0  0  0  0  0  0  0  0  0
  190.4700  177.8780  139.1060 C   0  0  0  0  0  2  0  0  0  0  0  0
  189.0550  179.0020  137.3780 C   0  0  0  0  0  2  0  0  0  0  0  0
  185.5240  178.4390  140.0510 C   0  0  0  0  0  3  0  0  0  0  0  0
  185.5360  178.4540  138.7030 C   0  0  0  0  0  0  0  0  0  0  0  0
  186.6070  178.1550  142.2850 C   0  0  0  0  0  0  0  0  0  0  0  0
  190.2990  177.0610  140.3970 C   0  0  1  0  0  3  0  0  0  0  0  0
  187.5470  179.1940  137.2210 C   0  0  2  0  0  3  0  0  0  0  0  0
  186.3600  177.9250  145.1360 C   0  0  0  0  0  2  0  0  0  0  0  0
  185.2780  178.3950  142.9700 C   0  0  0  0  0  2  0  0  0  0  0  0
  182.0050  175.7580  139.4690 C   0  0  0  0  0  1  0  0  0  0  0  0
  181.7120  177.8780  141.3950 O   0  0  0  0  0  1  0  0  0  0  0  0
  182.1820  177.9030  136.7720 C   0  0  0  0  0  1  0  0  0  0  0  0
  182.8560  179.5170  140.1040 C   0  0  0  0  0  2  0  0  0  0  0  0
  184.1430  178.6380  138.0870 C   0  0  2  0  0  3  0  0  0  0  0  0
  182.2450  177.2290  139.1380 C   0  0  2  0  0  3  0  0  0  0  0  0
  183.4170  179.8350  138.7130 C   0  0  0  0  0  2  0  0  0  0  0  0
  183.1350  177.4730  137.8770 C   0  0  0  0  0  0  0  0  0  0  0  0
  183.8330  176.2320  137.3360 C   0  0  0  0  0  1  0  0  0  0  0  0
  182.6740  178.0230  140.3910 C   0  0  2  0  0  3  0  0  0  0  0  0
  191.4280  177.1270  141.2490 O   0  0  0  0  0  0  0  0  0  0  0  0
  192.5690  177.5030  140.5190 C   0  0  0  0  0  1  0  0  0  0  0  0
  1  3  1  6  0  0  0
  1 15  1  0  0  0  0
  1  4  1  0  0  0  0
  2  7  2  0  0  0  0
  2  5  1  0  0  0  0
  4  2  1  1  0  0  0
  5 11  2  0  0  0  0
  6 19  1  0  0  0  0
  7 16  1  0  0  0  0
  8 19  1  0  0  0  0
  9  8  1  0  0  0  0
 10 13  1  1  0  0  0
 10  4  1  0  0  0  0
 10 12  1  0  0  0  0
 11  9  1  0  0  0  0
 12 17  1  0  0  0  0
 14  7  1  0  0  0  0
 15 14  2  0  0  0  0
 16 20  1  0  0  0  0
 16  9  2  0  0  0  0
 17  5  1  0  0  0  0
 17 31  1  1  0  0  0
 18  3  1  6  0  0  0
 18 13  1  0  0  0  0
 18  1  1  0  0  0  0
 20  6  1  0  0  0  0
 23 28  1  0  0  0  0
 24 30  1  0  0  0  0
 25 15  1  1  0  0  0
 25 27  1  0  0  0  0
 26 21  1  1  0  0  0
 26 30  1  0  0  0  0
 27 24  1  0  0  0  0
 28 25  1  0  0  0  0
 28 26  1  0  0  0  0
 29 28  1  0  0  0  0
 30 22  1  1  0  0  0
 32 31  1  0  0  0  0
M  END
>  <MODEL>
7

>  <REMARK>
 VINA RESULT:      -7.4      2.413      8.241
  Name = 
  2 active torsions:
  status: ('A' for Active; 'I' for Inactive)
    1  A    between atoms: O_13  and  C_29
    2  A    between atoms: C_16  and  C_27
                            x       y       z     vdW  Elec       q    Type
                         _______ _______ _______ _____ _____    ______ ____

>  <TORSDO>
F 2

$$$$
=
 OpenBabel11052414273D

 32 38  0  0  1  0  0  0  0  0999 V2000
  187.4580  177.8580  138.9320 C   0  0  2  0  0  0  0  0  0  0  0  0
  187.9730  177.5760  141.3870 C   0  0  0  0  0  0  0  0  0  0  0  0
  187.8280  177.6610  137.4780 C   0  0  0  0  0  2  0  0  0  0  0  0
  188.3120  177.1290  139.9760 C   0  0  2  0  0  3  0  0  0  0  0  0
  188.8960  177.3360  142.4140 C   0  0  0  0  0  0  0  0  0  0  0  0
  184.8390  179.2110  144.8290 C   0  0  0  0  0  2  0  0  0  0  0  0
  186.7160  178.1000  141.7050 C   0  0  0  0  0  0  0  0  0  0  0  0
  186.9980  178.2140  145.5040 C   0  0  0  0  0  2  0  0  0  0  0  0
  187.2800  177.9230  144.0630 C   0  0  0  0  0  0  0  0  0  0  0  0
  189.7830  177.3660  139.5930 C   0  0  2  0  0  3  0  0  0  0  0  0
  188.5410  177.5330  143.7140 N   0  0  0  0  0  0  0  0  0  0  0  0
  190.7500  177.5490  140.7720 C   0  0  0  0  0  2  0  0  0  0  0  0
  189.7930  178.6100  138.7200 C   0  0  0  0  0  2  0  0  0  0  0  0
  185.7610  178.4250  140.6290 C   0  0  0  0  0  3  0  0  0  0  0  0
  186.0490  178.3390  139.3150 C   0  0  0  0  0  0  0  0  0  0  0  0
  186.3450  178.2560  143.0540 C   0  0  0  0  0  0  0  0  0  0  0  0
  190.2670  176.8410  142.0480 C   0  0  1  0  0  3  0  0  0  0  0  0
  188.3640  178.8640  138.2400 C   0  0  2  0  0  3  0  0  0  0  0  0
  185.5070  178.2530  145.7990 C   0  0  0  0  0  2  0  0  0  0  0  0
  184.9220  178.6130  143.4300 C   0  0  0  0  0  2  0  0  0  0  0  0
  182.4020  175.6900  139.2750 C   0  0  0  0  0  1  0  0  0  0  0  0
  181.7240  177.8050  141.1070 O   0  0  0  0  0  1  0  0  0  0  0  0
  183.1900  177.8440  136.6970 C   0  0  0  0  0  1  0  0  0  0  0  0
  183.1420  179.4330  140.1070 C   0  0  0  0  0  2  0  0  0  0  0  0
  184.8260  178.5450  138.4120 C   0  0  2  0  0  3  0  0  0  0  0  0
  182.7270  177.1590  139.0150 C   0  0  2  0  0  3  0  0  0  0  0  0
  183.9970  179.7490  138.8740 C   0  0  0  0  0  2  0  0  0  0  0  0
  183.8730  177.3960  137.9800 C   0  0  0  0  0  0  0  0  0  0  0  0
  184.6560  176.1470  137.5940 C   0  0  0  0  0  1  0  0  0  0  0  0
  182.8840  177.9410  140.3380 C   0  0  2  0  0  3  0  0  0  0  0  0
  191.2000  176.9150  143.1100 O   0  0  0  0  0  0  0  0  0  0  0  0
  191.4910  175.6270  143.5940 C   0  0  0  0  0  1  0  0  0  0  0  0
  1  3  1  6  0  0  0
  1 15  1  0  0  0  0
  1  4  1  0  0  0  0
  2  7  2  0  0  0  0
  2  5  1  0  0  0  0
  4  2  1  1  0  0  0
  5 11  2  0  0  0  0
  6 19  1  0  0  0  0
  7 16  1  0  0  0  0
  8 19  1  0  0  0  0
  9  8  1  0  0  0  0
 10 13  1  6  0  0  0
 10  4  1  0  0  0  0
 10 12  1  0  0  0  0
 11  9  1  0  0  0  0
 12 17  1  0  0  0  0
 14  7  1  0  0  0  0
 15 14  2  0  0  0  0
 16 20  1  0  0  0  0
 16  9  2  0  0  0  0
 17  5  1  0  0  0  0
 17 31  1  1  0  0  0
 18  3  1  6  0  0  0
 18 13  1  0  0  0  0
 18  1  1  0  0  0  0
 20  6  1  0  0  0  0
 23 28  1  0  0  0  0
 24 30  1  0  0  0  0
 25 27  1  0  0  0  0
 25 15  1  1  0  0  0
 26 21  1  1  0  0  0
 26 30  1  0  0  0  0
 27 24  1  0  0  0  0
 28 25  1  0  0  0  0
 28 26  1  0  0  0  0
 29 28  1  0  0  0  0
 30 22  1  1  0  0  0
 31 32  1  0  0  0  0
M  END
>  <MODEL>
8

>  <REMARK>
 VINA RESULT:      -7.3      2.109      7.790
  Name = 
  2 active torsions:
  status: ('A' for Active; 'I' for Inactive)
    1  A    between atoms: O_13  and  C_29
    2  A    between atoms: C_16  and  C_27
                            x       y       z     vdW  Elec       q    Type
                         _______ _______ _______ _____ _____    ______ ____

>  <TORSDO>
F 2

$$$$
=
 OpenBabel11052414273D

 32 38  0  0  1  0  0  0  0  0999 V2000
  184.9270  178.8420  141.4880 C   0  0  2  0  0  0  0  0  0  0  0  0
  186.6660  178.2570  139.7560 C   0  0  0  0  0  0  0  0  0  0  0  0
  184.5590  179.3490  142.8670 C   0  0  0  0  0  2  0  0  0  0  0  0
  186.3900  178.9900  141.0560 C   0  0  2  0  0  3  0  0  0  0  0  0
  187.9900  177.9410  139.4230 C   0  0  0  0  0  0  0  0  0  0  0  0
  185.3370  176.5680  135.3140 C   0  0  0  0  0  2  0  0  0  0  0  0
  185.6490  178.0090  138.8270 C   0  0  0  0  0  0  0  0  0  0  0  0
  187.7330  176.7310  135.9030 C   0  0  0  0  0  2  0  0  0  0  0  0
  187.3390  177.3420  137.2120 C   0  0  0  0  0  0  0  0  0  0  0  0
  187.2530  178.5000  142.2320 C   0  0  2  0  0  3  0  0  0  0  0  0
  188.2920  177.4760  138.1790 N   0  0  0  0  0  0  0  0  0  0  0  0
  188.5290  177.7390  141.8410 C   0  0  0  0  0  2  0  0  0  0  0  0
  186.3540  177.6040  143.0670 C   0  0  0  0  0  2  0  0  0  0  0  0
  184.2440  178.2690  139.1890 C   0  0  0  0  0  3  0  0  0  0  0  0
  183.8410  178.6540  140.4170 C   0  0  0  0  0  0  0  0  0  0  0  0
  185.9790  177.5710  137.5310 C   0  0  0  0  0  0  0  0  0  0  0  0
  189.0600  178.1470  140.4580 C   0  0  1  0  0  3  0  0  0  0  0  0
  184.9050  177.8800  142.6650 C   0  0  2  0  0  3  0  0  0  0  0  0
  186.7060  176.9970  134.8140 C   0  0  0  0  0  2  0  0  0  0  0  0
  184.9260  177.5030  136.4450 C   0  0  0  0  0  2  0  0  0  0  0  0
  181.1800  179.1880  136.8170 C   0  0  0  0  0  1  0  0  0  0  0  0
  180.7560  176.4540  137.6160 O   0  0  0  0  0  1  0  0  0  0  0  0
  180.4150  180.4710  139.9270 C   0  0  0  0  0  1  0  0  0  0  0  0
  181.2700  176.8070  139.9120 C   0  0  0  0  0  2  0  0  0  0  0  0
  182.3580  179.0430  140.4730 C   0  0  2  0  0  3  0  0  0  0  0  0
  181.0270  178.7540  138.2730 C   0  0  2  0  0  3  0  0  0  0  0  0
  181.5020  177.8780  140.9840 C   0  0  0  0  0  2  0  0  0  0  0  0
  181.6130  179.7620  139.3140 C   0  0  0  0  0  0  0  0  0  0  0  0
  182.4670  180.8750  138.7180 C   0  0  0  0  0  1  0  0  0  0  0  0
  181.4770  177.2900  138.4730 C   0  0  2  0  0  3  0  0  0  0  0  0
  190.2920  177.5300  140.1320 O   0  0  0  0  0  0  0  0  0  0  0  0
  190.9610  177.1280  141.3020 C   0  0  0  0  0  1  0  0  0  0  0  0
  1 18  1  0  0  0  0
  1  3  1  1  0  0  0
  4  2  1  6  0  0  0
  4  1  1  0  0  0  0
  4 10  1  0  0  0  0
  5  2  1  0  0  0  0
  5 17  1  0  0  0  0
  6 20  1  0  0  0  0
  7 14  1  0  0  0  0
  7  2  2  0  0  0  0
  8  9  1  0  0  0  0
  9 16  2  0  0  0  0
  9 11  1  0  0  0  0
 10 12  1  6  0  0  0
 10 13  1  0  0  0  0
 11  5  2  0  0  0  0
 14 15  2  0  0  0  0
 15  1  1  0  0  0  0
 16  7  1  0  0  0  0
 17 31  1  6  0  0  0
 17 12  1  0  0  0  0
 18  3  1  1  0  0  0
 18 13  1  0  0  0  0
 19  6  1  0  0  0  0
 19  8  1  0  0  0  0
 20 16  1  0  0  0  0
 24 27  1  0  0  0  0
 25 15  1  6  0  0  0
 25 27  1  0  0  0  0
 26 21  1  6  0  0  0
 26 30  1  0  0  0  0
 26 28  1  0  0  0  0
 28 23  1  0  0  0  0
 28 25  1  0  0  0  0
 29 28  1  0  0  0  0
 30 22  1  6  0  0  0
 30 24  1  0  0  0  0
 31 32  1  0  0  0  0
M  END
>  <MODEL>
9

>  <REMARK>
 VINA RESULT:      -7.3      3.120      7.900
  Name = 
  2 active torsions:
  status: ('A' for Active; 'I' for Inactive)
    1  A    between atoms: O_13  and  C_29
    2  A    between atoms: C_16  and  C_27
                            x       y       z     vdW  Elec       q    Type
                         _______ _______ _______ _____ _____    ______ ____

>  <TORSDO>
F 2

$$$$
