=
 OpenBabel11052413043D

 31 34  0  0  1  0  0  0  0  0999 V2000
  187.8170  173.3420  136.8500 C   0  0  1  0  0  3  0  0  0  0  0  0
  190.8110  175.5070  137.9150 C   0  0  2  0  0  3  0  0  0  0  0  0
  191.9070  175.8180  136.8980 C   0  0  0  0  0  0  0  0  0  0  0  0
  190.3770  175.2490  134.5940 Cl  0  0  0  0  0  0  0  0  0  0  0  0
  189.4520  175.0660  137.4470 C   0  0  0  0  0  0  0  0  0  0  0  0
  187.2240  174.3070  135.8210 C   0  0  0  0  0  2  0  0  0  0  0  0
  191.8180  175.7090  135.4810 C   0  0  0  0  0  0  0  0  0  0  0  0
  189.8030  177.8080  138.4960 C   0  0  2  0  0  3  0  0  0  0  0  0
  187.8470  171.9390  136.2830 C   0  0  0  0  0  1  0  0  0  0  0  0
  193.2420  176.4020  138.9480 C   0  0  0  0  0  2  0  0  0  0  0  0
  192.9380  176.0010  134.6960 C   0  0  0  0  0  3  0  0  0  0  0  0
  188.8190  177.4890  137.3570 C   0  0  0  0  0  2  0  0  0  0  0  0
  190.6790  176.6300  138.9700 C   0  0  2  0  0  3  0  0  0  0  0  0
  189.2080  173.7720  137.2170 C   0  0  0  0  0  3  0  0  0  0  0  0
  194.1390  176.4020  135.2770 C   0  0  0  0  0  3  0  0  0  0  0  0
  188.3060  176.0520  137.4030 C   0  0  1  0  0  3  0  0  0  0  0  0
  187.3450  175.7890  136.2310 C   0  0  0  0  0  2  0  0  0  0  0  0
  192.0290  177.1670  139.4840 C   0  0  0  0  0  2  0  0  0  0  0  0
  193.1290  176.2420  137.4630 C   0  0  0  0  0  0  0  0  0  0  0  0
  194.2340  176.5240  136.6600 C   0  0  0  0  0  3  0  0  0  0  0  0
  188.8510  176.5330  140.9370 O   0  0  0  0  0  0  0  0  0  0  0  0
  188.6520  177.7670  140.7880 C   0  0  0  0  0  0  0  0  0  0  0  0
  189.1220  178.4490  139.6170 N   0  0  0  0  0  2  0  0  0  0  0  0
  186.4870  178.7720  141.4240 C   0  0  0  0  0  1  0  0  0  0  0  0
  187.9220  178.5190  141.8490 C   0  0  1  0  0  3  0  0  0  0  0  0
  187.9580  177.5930  143.4140 S   0  0  0  0  0  0  0  0  0  0  0  0
  186.2550  178.0570  143.8420 C   0  0  0  0  0  2  0  0  0  0  0  0
  184.9340  178.6730  145.9060 C   0  0  0  0  0  0  0  0  0  0  0  0
  183.6870  178.8810  145.1160 C   0  0  0  0  0  1  0  0  0  0  0  0
  184.9100  178.8480  147.1520 O   0  0  0  0  0  0  0  0  0  0  0  0
  186.1530  178.2780  145.2750 N   0  0  0  0  0  2  0  0  0  0  0  0
  1  9  1  6  0  0  0
  1 14  1  0  0  0  0
  2  3  1  6  0  0  0
  2 13  1  0  0  0  0
  3 19  1  0  0  0  0
  4  7  1  0  0  0  0
  5  2  1  0  0  0  0
  6 17  1  0  0  0  0
  6  1  1  0  0  0  0
  7  3  2  0  0  0  0
  8 13  1  0  0  0  0
  8 23  1  1  0  0  0
 10 18  1  0  0  0  0
 11 15  2  0  0  0  0
 11  7  1  0  0  0  0
 12 16  1  0  0  0  0
 12  8  1  0  0  0  0
 13 18  1  6  0  0  0
 14  5  2  0  0  0  0
 15 20  1  0  0  0  0
 16 17  1  6  0  0  0
 16  5  1  0  0  0  0
 19 10  1  0  0  0  0
 20 19  2  0  0  0  0
 22 21  2  0  0  0  0
 22 25  1  0  0  0  0
 23 22  1  0  0  0  0
 25 24  1  6  0  0  0
 25 26  1  0  0  0  0
 26 27  1  0  0  0  0
 27 31  1  0  0  0  0
 28 30  2  0  0  0  0
 29 28  1  0  0  0  0
 31 28  1  0  0  0  0
M  END
>  <MODEL>
1

>  <REMARK>
 VINA RESULT:      -6.6      0.000      0.000
  Name = 
  5 active torsions:
  status: ('A' for Active; 'I' for Inactive)
    1  A    between atoms: S_6  and  C_19
    2  A    between atoms: S_6  and  C_22
    3  A    between atoms: C_9  and  C_22
    4  A    between atoms: C_15  and  N_23
    5  A    between atoms: C_19  and  N_24
                            x       y       z     vdW  Elec       q    Type
                         _______ _______ _______ _____ _____    ______ ____

>  <TORSDO>
F 5

$$$$
=
 OpenBabel11052413043D

 31 34  0  0  1  0  0  0  0  0999 V2000
  187.7720  173.3030  136.8520 C   0  0  1  0  0  3  0  0  0  0  0  0
  190.7540  175.4840  137.9170 C   0  0  2  0  0  3  0  0  0  0  0  0
  191.8290  175.8320  136.8900 C   0  0  0  0  0  0  0  0  0  0  0  0
  190.2700  175.2930  134.5980 Cl  0  0  0  0  0  0  0  0  0  0  0  0
  189.3930  175.0360  137.4610 C   0  0  0  0  0  0  0  0  0  0  0  0
  187.1490  174.2820  135.8530 C   0  0  0  0  0  2  0  0  0  0  0  0
  191.7190  175.7530  135.4730 C   0  0  0  0  0  0  0  0  0  0  0  0
  189.7250  177.7580  138.5650 C   0  0  2  0  0  3  0  0  0  0  0  0
  187.8110  171.9130  136.2530 C   0  0  0  0  0  1  0  0  0  0  0  0
  193.1890  176.3880  138.9320 C   0  0  0  0  0  2  0  0  0  0  0  0
  192.8220  176.0780  134.6760 C   0  0  0  0  0  3  0  0  0  0  0  0
  188.7280  177.4510  137.4340 C   0  0  0  0  0  2  0  0  0  0  0  0
  190.6240  176.5820  138.9980 C   0  0  2  0  0  3  0  0  0  0  0  0
  189.1620  173.7430  137.2070 C   0  0  0  0  0  3  0  0  0  0  0  0
  194.0270  176.4810  135.2470 C   0  0  0  0  0  3  0  0  0  0  0  0
  188.2330  176.0070  137.4570 C   0  0  1  0  0  3  0  0  0  0  0  0
  187.2580  175.7570  136.2950 C   0  0  0  0  0  2  0  0  0  0  0  0
  191.9750  177.1260  139.5040 C   0  0  0  0  0  2  0  0  0  0  0  0
  193.0540  176.2600  137.4450 C   0  0  0  0  0  0  0  0  0  0  0  0
  194.1420  176.5740  136.6310 C   0  0  0  0  0  3  0  0  0  0  0  0
  188.7640  176.4050  140.9600 O   0  0  0  0  0  0  0  0  0  0  0  0
  188.5790  177.6460  140.8570 C   0  0  0  0  0  0  0  0  0  0  0  0
  189.0540  178.3650  139.7100 N   0  0  0  0  0  2  0  0  0  0  0  0
  186.5900  179.0020  141.4110 C   0  0  0  0  0  1  0  0  0  0  0  0
  187.8600  178.3670  141.9460 C   0  0  1  0  0  3  0  0  0  0  0  0
  187.4630  177.2210  143.3030 S   0  0  0  0  0  0  0  0  0  0  0  0
  188.9110  177.7210  144.2790 C   0  0  0  0  0  2  0  0  0  0  0  0
  191.1700  176.6730  143.8470 C   0  0  0  0  0  0  0  0  0  0  0  0
  191.6710  177.8980  143.1610 C   0  0  0  0  0  1  0  0  0  0  0  0
  191.9310  175.6770  143.9610 O   0  0  0  0  0  0  0  0  0  0  0  0
  189.8440  176.6100  144.3750 N   0  0  0  0  0  2  0  0  0  0  0  0
  1  9  1  6  0  0  0
  1 14  1  0  0  0  0
  2  3  1  6  0  0  0
  2 13  1  0  0  0  0
  3 19  1  0  0  0  0
  4  7  1  0  0  0  0
  5  2  1  0  0  0  0
  6 17  1  0  0  0  0
  6  1  1  0  0  0  0
  7  3  2  0  0  0  0
  8 13  1  0  0  0  0
  8 23  1  1  0  0  0
 10 18  1  0  0  0  0
 11 15  2  0  0  0  0
 11  7  1  0  0  0  0
 12 16  1  0  0  0  0
 12  8  1  0  0  0  0
 13 18  1  6  0  0  0
 14  5  2  0  0  0  0
 15 20  1  0  0  0  0
 16 17  1  6  0  0  0
 16  5  1  0  0  0  0
 19 10  1  0  0  0  0
 20 19  2  0  0  0  0
 22 21  2  0  0  0  0
 22 25  1  0  0  0  0
 23 22  1  0  0  0  0
 25 24  1  6  0  0  0
 25 26  1  0  0  0  0
 26 27  1  0  0  0  0
 27 31  1  0  0  0  0
 28 30  2  0  0  0  0
 28 31  1  0  0  0  0
 29 28  1  0  0  0  0
M  END
>  <MODEL>
2

>  <REMARK>
 VINA RESULT:      -6.5      2.007      2.606
  Name = 
  5 active torsions:
  status: ('A' for Active; 'I' for Inactive)
    1  A    between atoms: S_6  and  C_19
    2  A    between atoms: S_6  and  C_22
    3  A    between atoms: C_9  and  C_22
    4  A    between atoms: C_15  and  N_23
    5  A    between atoms: C_19  and  N_24
                            x       y       z     vdW  Elec       q    Type
                         _______ _______ _______ _____ _____    ______ ____

>  <TORSDO>
F 5

$$$$
=
 OpenBabel11052413043D

 31 34  0  0  1  0  0  0  0  0999 V2000
  193.2730  176.1670  135.9520 C   0  0  1  0  0  3  0  0  0  0  0  0
  189.6690  177.2640  136.7220 C   0  0  2  0  0  3  0  0  0  0  0  0
  188.5050  176.4700  136.1340 C   0  0  0  0  0  0  0  0  0  0  0  0
  189.9660  174.1150  135.5900 Cl  0  0  0  0  0  0  0  0  0  0  0  0
  191.0330  176.6390  136.8240 C   0  0  0  0  0  0  0  0  0  0  0  0
  193.2330  174.8160  136.6720 C   0  0  0  0  0  2  0  0  0  0  0  0
  188.5480  175.1480  135.6080 C   0  0  0  0  0  0  0  0  0  0  0  0
  189.4130  176.9860  139.2720 C   0  0  2  0  0  3  0  0  0  0  0  0
  193.9210  176.0070  134.5940 C   0  0  0  0  0  1  0  0  0  0  0  0
  187.1900  178.5400  136.6930 C   0  0  0  0  0  2  0  0  0  0  0  0
  187.3870  174.5820  135.0710 C   0  0  0  0  0  3  0  0  0  0  0  0
  190.3490  175.7810  139.0760 C   0  0  0  0  0  2  0  0  0  0  0  0
  189.2820  177.9330  138.0610 C   0  0  2  0  0  3  0  0  0  0  0  0
  191.8820  176.7070  135.7930 C   0  0  0  0  0  3  0  0  0  0  0  0
  186.1870  175.2890  135.0460 C   0  0  0  0  0  3  0  0  0  0  0  0
  191.5200  176.0860  138.1450 C   0  0  1  0  0  3  0  0  0  0  0  0
  192.4060  174.8410  137.9740 C   0  0  0  0  0  2  0  0  0  0  0  0
  187.8810  178.5750  138.0590 C   0  0  0  0  0  2  0  0  0  0  0  0
  187.2740  177.1610  136.1140 C   0  0  0  0  0  0  0  0  0  0  0  0
  186.1300  176.5770  135.5690 C   0  0  0  0  0  3  0  0  0  0  0  0
  188.4760  176.4270  141.9740 O   0  0  0  0  0  0  0  0  0  0  0  0
  189.2350  177.4160  141.7950 C   0  0  0  0  0  0  0  0  0  0  0  0
  189.7450  177.7200  140.4890 N   0  0  0  0  0  2  0  0  0  0  0  0
  188.7410  177.9250  144.1610 C   0  0  0  0  0  1  0  0  0  0  0  0
  189.6030  178.2700  142.9600 C   0  0  1  0  0  3  0  0  0  0  0  0
  191.3620  178.0530  143.3680 S   0  0  0  0  0  0  0  0  0  0  0  0
  191.0430  176.5960  144.4040 C   0  0  0  0  0  2  0  0  0  0  0  0
  191.3250  176.7290  146.9120 C   0  0  0  0  0  0  0  0  0  0  0  0
  189.8510  176.7560  147.1340 C   0  0  0  0  0  1  0  0  0  0  0  0
  192.0980  176.7750  147.9040 O   0  0  0  0  0  0  0  0  0  0  0  0
  191.8750  176.6520  145.5960 N   0  0  0  0  0  2  0  0  0  0  0  0
  1  9  1  6  0  0  0
  1  6  1  0  0  0  0
  2  3  1  1  0  0  0
  2  5  1  0  0  0  0
  2 13  1  0  0  0  0
  4  7  1  0  0  0  0
  5 16  1  0  0  0  0
  6 17  1  0  0  0  0
  7  3  2  0  0  0  0
  8 23  1  1  0  0  0
 10 18  1  0  0  0  0
 11  7  1  0  0  0  0
 12  8  1  0  0  0  0
 13 18  1  6  0  0  0
 13  8  1  0  0  0  0
 14  1  1  0  0  0  0
 14  5  2  0  0  0  0
 15 11  2  0  0  0  0
 15 20  1  0  0  0  0
 16 17  1  6  0  0  0
 16 12  1  0  0  0  0
 19  3  1  0  0  0  0
 19 10  1  0  0  0  0
 20 19  2  0  0  0  0
 22 21  2  0  0  0  0
 22 25  1  0  0  0  0
 23 22  1  0  0  0  0
 25 26  1  0  0  0  0
 25 24  1  1  0  0  0
 26 27  1  0  0  0  0
 27 31  1  0  0  0  0
 28 29  1  0  0  0  0
 28 30  2  0  0  0  0
 31 28  1  0  0  0  0
M  END
>  <MODEL>
3

>  <REMARK>
 VINA RESULT:      -6.5      2.761      4.930
  Name = 
  5 active torsions:
  status: ('A' for Active; 'I' for Inactive)
    1  A    between atoms: S_6  and  C_19
    2  A    between atoms: S_6  and  C_22
    3  A    between atoms: C_9  and  C_22
    4  A    between atoms: C_15  and  N_23
    5  A    between atoms: C_19  and  N_24
                            x       y       z     vdW  Elec       q    Type
                         _______ _______ _______ _____ _____    ______ ____

>  <TORSDO>
F 5

$$$$
=
 OpenBabel11052413043D

 31 34  0  0  1  0  0  0  0  0999 V2000
  191.1530  175.3460  143.4110 C   0  0  1  0  0  3  0  0  0  0  0  0
  187.6890  177.0140  143.4720 C   0  0  2  0  0  3  0  0  0  0  0  0
  187.2270  177.7290  144.7390 C   0  0  0  0  0  0  0  0  0  0  0  0
  189.7910  178.0570  145.8760 Cl  0  0  0  0  0  0  0  0  0  0  0  0
  189.1520  176.7500  143.2470 C   0  0  0  0  0  0  0  0  0  0  0  0
  191.9940  176.6180  143.5500 C   0  0  0  0  0  2  0  0  0  0  0  0
  188.0420  178.1780  145.8160 C   0  0  0  0  0  0  0  0  0  0  0  0
  187.8090  178.8750  141.6910 C   0  0  2  0  0  3  0  0  0  0  0  0
  191.6810  174.2770  144.3430 C   0  0  0  0  0  1  0  0  0  0  0  0
  184.9530  177.5070  143.6870 C   0  0  0  0  0  2  0  0  0  0  0  0
  187.4450  178.7870  146.9260 C   0  0  0  0  0  3  0  0  0  0  0  0
  189.2750  178.9960  142.1440 C   0  0  0  0  0  2  0  0  0  0  0  0
  187.0530  177.6320  142.2060 C   0  0  2  0  0  3  0  0  0  0  0  0
  189.7180  175.6400  143.7340 C   0  0  0  0  0  3  0  0  0  0  0  0
  186.0650  178.9650  146.9920 C   0  0  0  0  0  3  0  0  0  0  0  0
  189.9530  177.6400  142.3220 C   0  0  1  0  0  3  0  0  0  0  0  0
  191.4050  177.8260  142.7920 C   0  0  0  0  0  2  0  0  0  0  0  0
  185.5560  177.9670  142.3570 C   0  0  0  0  0  2  0  0  0  0  0  0
  185.8330  177.9360  144.8210 C   0  0  0  0  0  0  0  0  0  0  0  0
  185.2600  178.5410  145.9390 C   0  0  0  0  0  3  0  0  0  0  0  0
  188.4190  176.8530  139.6840 O   0  0  0  0  0  0  0  0  0  0  0  0
  188.0290  177.9850  139.2960 C   0  0  0  0  0  0  0  0  0  0  0  0
  187.6910  179.0080  140.2430 N   0  0  0  0  0  2  0  0  0  0  0  0
  189.0550  179.1420  137.3700 C   0  0  0  0  0  1  0  0  0  0  0  0
  187.9160  178.2530  137.8330 C   0  0  1  0  0  3  0  0  0  0  0  0
  187.9240  176.6880  136.9050 S   0  0  0  0  0  0  0  0  0  0  0  0
  189.6560  176.8860  136.3950 C   0  0  0  0  0  2  0  0  0  0  0  0
  191.3340  175.5840  137.7640 C   0  0  0  0  0  0  0  0  0  0  0  0
  191.6050  176.7520  138.6490 C   0  0  0  0  0  1  0  0  0  0  0  0
  191.9440  174.5030  137.9680 O   0  0  0  0  0  0  0  0  0  0  0  0
  190.3960  175.6700  136.6900 N   0  0  0  0  0  2  0  0  0  0  0  0
  1  6  1  0  0  0  0
  1 14  1  0  0  0  0
  1  9  1  1  0  0  0
  2  5  1  6  0  0  0
  2  3  1  0  0  0  0
  3 19  2  0  0  0  0
  3  7  1  0  0  0  0
  5 14  2  0  0  0  0
  7  4  1  0  0  0  0
  7 11  2  0  0  0  0
  8 23  1  6  0  0  0
  8 12  1  0  0  0  0
  8 13  1  0  0  0  0
 10 19  1  0  0  0  0
 11 15  1  0  0  0  0
 13 18  1  1  0  0  0
 13  2  1  0  0  0  0
 16 12  1  1  0  0  0
 16 17  1  0  0  0  0
 16  5  1  0  0  0  0
 17  6  1  0  0  0  0
 18 10  1  0  0  0  0
 19 20  1  0  0  0  0
 20 15  2  0  0  0  0
 22 21  2  0  0  0  0
 22 23  1  0  0  0  0
 25 24  1  6  0  0  0
 25 22  1  0  0  0  0
 26 25  1  0  0  0  0
 27 31  1  0  0  0  0
 27 26  1  0  0  0  0
 28 30  2  0  0  0  0
 28 29  1  0  0  0  0
 31 28  1  0  0  0  0
M  END
>  <MODEL>
4

>  <REMARK>
 VINA RESULT:      -6.3      3.724      8.653
  Name = 
  5 active torsions:
  status: ('A' for Active; 'I' for Inactive)
    1  A    between atoms: S_6  and  C_19
    2  A    between atoms: S_6  and  C_22
    3  A    between atoms: C_9  and  C_22
    4  A    between atoms: C_15  and  N_23
    5  A    between atoms: C_19  and  N_24
                            x       y       z     vdW  Elec       q    Type
                         _______ _______ _______ _____ _____    ______ ____

>  <TORSDO>
F 5

$$$$
=
 OpenBabel11052413043D

 31 34  0  0  1  0  0  0  0  0999 V2000
  191.2080  175.3940  143.4570 C   0  0  1  0  0  3  0  0  0  0  0  0
  187.7400  177.0330  143.7330 C   0  0  2  0  0  3  0  0  0  0  0  0
  187.3510  177.7430  145.0280 C   0  0  0  0  0  0  0  0  0  0  0  0
  189.9770  178.0910  146.0060 Cl  0  0  0  0  0  0  0  0  0  0  0  0
  189.1890  176.7810  143.4190 C   0  0  0  0  0  0  0  0  0  0  0  0
  192.0450  176.6730  143.5470 C   0  0  0  0  0  2  0  0  0  0  0  0
  188.2270  178.1970  146.0540 C   0  0  0  0  0  0  0  0  0  0  0  0
  187.7360  178.8980  141.9530 C   0  0  2  0  0  3  0  0  0  0  0  0
  191.8000  174.3280  144.3530 C   0  0  0  0  0  1  0  0  0  0  0  0
  185.0190  177.5030  144.1170 C   0  0  0  0  0  2  0  0  0  0  0  0
  187.6940  178.7990  147.1990 C   0  0  0  0  0  3  0  0  0  0  0  0
  189.2250  179.0300  142.3150 C   0  0  0  0  0  2  0  0  0  0  0  0
  187.0220  177.6480  142.5100 C   0  0  2  0  0  3  0  0  0  0  0  0
  189.7920  175.6760  143.8680 C   0  0  0  0  0  3  0  0  0  0  0  0
  186.3190  178.9650  147.3510 C   0  0  0  0  0  3  0  0  0  0  0  0
  189.9240  177.6800  142.4490 C   0  0  1  0  0  3  0  0  0  0  0  0
  191.4000  177.8770  142.8290 C   0  0  0  0  0  2  0  0  0  0  0  0
  185.5350  177.9700  142.7530 C   0  0  0  0  0  2  0  0  0  0  0  0
  185.9630  177.9380  145.1960 C   0  0  0  0  0  0  0  0  0  0  0  0
  185.4540  178.5370  146.3490 C   0  0  0  0  0  3  0  0  0  0  0  0
  188.6840  177.1020  139.8640 O   0  0  0  0  0  0  0  0  0  0  0  0
  188.0390  178.1280  139.5250 C   0  0  0  0  0  0  0  0  0  0  0  0
  187.5270  179.0320  140.5140 N   0  0  0  0  0  2  0  0  0  0  0  0
  189.0560  178.9730  137.4390 C   0  0  0  0  0  1  0  0  0  0  0  0
  187.8060  178.3960  138.0760 C   0  0  1  0  0  3  0  0  0  0  0  0
  187.3190  176.8640  137.2250 S   0  0  0  0  0  0  0  0  0  0  0  0
  185.5550  177.1130  137.5780 C   0  0  0  0  0  2  0  0  0  0  0  0
  184.3480  178.9210  138.8660 C   0  0  0  0  0  0  0  0  0  0  0  0
  183.5320  177.9230  139.6150 C   0  0  0  0  0  1  0  0  0  0  0  0
  184.1830  180.1470  139.0950 O   0  0  0  0  0  0  0  0  0  0  0  0
  185.3110  178.5110  137.8950 N   0  0  0  0  0  2  0  0  0  0  0  0
  1  6  1  0  0  0  0
  1 14  1  0  0  0  0
  1  9  1  1  0  0  0
  2  5  1  6  0  0  0
  2  3  1  0  0  0  0
  3 19  2  0  0  0  0
  3  7  1  0  0  0  0
  4  7  1  0  0  0  0
  5 14  2  0  0  0  0
  7 11  2  0  0  0  0
  8 23  1  6  0  0  0
  8 12  1  0  0  0  0
  8 13  1  0  0  0  0
 10 19  1  0  0  0  0
 11 15  1  0  0  0  0
 13 18  1  1  0  0  0
 13  2  1  0  0  0  0
 16 12  1  1  0  0  0
 16 17  1  0  0  0  0
 16  5  1  0  0  0  0
 17  6  1  0  0  0  0
 18 10  1  0  0  0  0
 19 20  1  0  0  0  0
 20 15  2  0  0  0  0
 22 21  2  0  0  0  0
 22 23  1  0  0  0  0
 25 24  1  6  0  0  0
 25 22  1  0  0  0  0
 26 27  1  0  0  0  0
 26 25  1  0  0  0  0
 27 31  1  0  0  0  0
 28 30  2  0  0  0  0
 28 29  1  0  0  0  0
 31 28  1  0  0  0  0
M  END
>  <MODEL>
5

>  <REMARK>
 VINA RESULT:      -6.2      4.523      8.160
  Name = 
  5 active torsions:
  status: ('A' for Active; 'I' for Inactive)
    1  A    between atoms: S_6  and  C_19
    2  A    between atoms: S_6  and  C_22
    3  A    between atoms: C_9  and  C_22
    4  A    between atoms: C_15  and  N_23
    5  A    between atoms: C_19  and  N_24
                            x       y       z     vdW  Elec       q    Type
                         _______ _______ _______ _____ _____    ______ ____

>  <TORSDO>
F 5

$$$$
=
 OpenBabel11052413043D

 31 34  0  0  1  0  0  0  0  0999 V2000
  191.1290  175.2320  143.3930 C   0  0  1  0  0  3  0  0  0  0  0  0
  187.7460  177.0430  143.1450 C   0  0  2  0  0  3  0  0  0  0  0  0
  187.1610  177.7050  144.3900 C   0  0  0  0  0  0  0  0  0  0  0  0
  189.5790  177.8570  145.8400 Cl  0  0  0  0  0  0  0  0  0  0  0  0
  189.2150  176.7290  143.0790 C   0  0  0  0  0  0  0  0  0  0  0  0
  191.9930  176.4560  143.7080 C   0  0  0  0  0  2  0  0  0  0  0  0
  187.8550  178.0570  145.5820 C   0  0  0  0  0  0  0  0  0  0  0  0
  188.1480  178.9940  141.5090 C   0  0  2  0  0  3  0  0  0  0  0  0
  191.5010  174.0900  144.3140 C   0  0  0  0  0  1  0  0  0  0  0  0
  185.0240  177.6420  143.0650 C   0  0  0  0  0  2  0  0  0  0  0  0
  187.1520  178.6270  146.6480 C   0  0  0  0  0  3  0  0  0  0  0  0
  189.5520  179.0260  142.1380 C   0  0  0  0  0  2  0  0  0  0  0  0
  187.2900  177.7590  141.8530 C   0  0  2  0  0  3  0  0  0  0  0  0
  189.6770  175.5700  143.5610 C   0  0  0  0  0  3  0  0  0  0  0  0
  185.7810  178.8610  146.5610 C   0  0  0  0  0  3  0  0  0  0  0  0
  190.1530  177.6340  142.3120 C   0  0  1  0  0  3  0  0  0  0  0  0
  191.5440  177.7300  142.9610 C   0  0  0  0  0  2  0  0  0  0  0  0
  185.7990  178.1490  141.8460 C   0  0  0  0  0  2  0  0  0  0  0  0
  185.7760  177.9670  144.3190 C   0  0  0  0  0  0  0  0  0  0  0  0
  185.0940  178.5330  145.3970 C   0  0  0  0  0  3  0  0  0  0  0  0
  188.7200  177.0120  139.4510 O   0  0  0  0  0  0  0  0  0  0  0  0
  188.5210  178.2040  139.0970 C   0  0  0  0  0  0  0  0  0  0  0  0
  188.2100  179.2140  140.0670 N   0  0  0  0  0  2  0  0  0  0  0  0
  189.6110  177.6610  136.9480 C   0  0  0  0  0  1  0  0  0  0  0  0
  188.6070  178.5560  137.6510 C   0  0  1  0  0  3  0  0  0  0  0  0
  186.9730  178.4020  136.8670 S   0  0  0  0  0  0  0  0  0  0  0  0
  187.3640  176.7830  136.1440 C   0  0  0  0  0  2  0  0  0  0  0  0
  186.9640  174.4470  137.0210 C   0  0  0  0  0  0  0  0  0  0  0  0
  188.3710  174.0400  136.7460 C   0  0  0  0  0  1  0  0  0  0  0  0
  186.1680  173.6110  137.5240 O   0  0  0  0  0  0  0  0  0  0  0  0
  186.5020  175.7660  136.7250 N   0  0  0  0  0  2  0  0  0  0  0  0
  1 14  1  0  0  0  0
  1  6  1  0  0  0  0
  1  9  1  1  0  0  0
  2  5  1  1  0  0  0
  2  3  1  0  0  0  0
  3  7  1  0  0  0  0
  5 14  2  0  0  0  0
  7  4  1  0  0  0  0
  7 11  2  0  0  0  0
  8 23  1  6  0  0  0
  8 13  1  0  0  0  0
  8 12  1  0  0  0  0
 10 19  1  0  0  0  0
 13 18  1  1  0  0  0
 13  2  1  0  0  0  0
 15 11  1  0  0  0  0
 16 12  1  1  0  0  0
 16 17  1  0  0  0  0
 16  5  1  0  0  0  0
 17  6  1  0  0  0  0
 18 10  1  0  0  0  0
 19  3  2  0  0  0  0
 19 20  1  0  0  0  0
 20 15  2  0  0  0  0
 22 21  2  0  0  0  0
 22 23  1  0  0  0  0
 25 24  1  6  0  0  0
 25 22  1  0  0  0  0
 26 25  1  0  0  0  0
 27 31  1  0  0  0  0
 27 26  1  0  0  0  0
 28 30  2  0  0  0  0
 29 28  1  0  0  0  0
 31 28  1  0  0  0  0
M  END
>  <MODEL>
6

>  <REMARK>
 VINA RESULT:      -6.2      3.856      8.442
  Name = 
  5 active torsions:
  status: ('A' for Active; 'I' for Inactive)
    1  A    between atoms: S_6  and  C_19
    2  A    between atoms: S_6  and  C_22
    3  A    between atoms: C_9  and  C_22
    4  A    between atoms: C_15  and  N_23
    5  A    between atoms: C_19  and  N_24
                            x       y       z     vdW  Elec       q    Type
                         _______ _______ _______ _____ _____    ______ ____

>  <TORSDO>
F 5

$$$$
=
 OpenBabel11052413043D

 31 34  0  0  1  0  0  0  0  0999 V2000
  180.8680  177.8780  141.3920 C   0  0  1  0  0  3  0  0  0  0  0  0
  181.4530  178.0020  137.5940 C   0  0  2  0  0  3  0  0  0  0  0  0
  181.1910  179.3050  136.8400 C   0  0  0  0  0  0  0  0  0  0  0  0
  181.3100  181.0060  139.0910 Cl  0  0  0  0  0  0  0  0  0  0  0  0
  181.6690  178.0230  139.0810 C   0  0  0  0  0  0  0  0  0  0  0  0
  181.9620  178.8680  141.7990 C   0  0  0  0  0  2  0  0  0  0  0  0
  181.0860  180.6110  137.3960 C   0  0  0  0  0  0  0  0  0  0  0  0
  183.9780  177.5800  137.2890 C   0  0  2  0  0  3  0  0  0  0  0  0
  179.5900  178.1870  142.1410 C   0  0  0  0  0  1  0  0  0  0  0  0
  181.1660  177.7960  134.8280 C   0  0  0  0  0  2  0  0  0  0  0  0
  180.8050  181.6960  136.5590 C   0  0  0  0  0  3  0  0  0  0  0  0
  184.1070  178.3570  138.6100 C   0  0  0  0  0  2  0  0  0  0  0  0
  182.5460  177.1550  136.9020 C   0  0  2  0  0  3  0  0  0  0  0  0
  180.6240  177.9590  139.9140 C   0  0  0  0  0  3  0  0  0  0  0  0
  180.6290  181.5200  135.1880 C   0  0  0  0  0  3  0  0  0  0  0  0
  183.0690  177.9370  139.6480 C   0  0  1  0  0  3  0  0  0  0  0  0
  183.2360  178.7600  140.9360 C   0  0  0  0  0  2  0  0  0  0  0  0
  182.4210  177.1040  135.3670 C   0  0  0  0  0  2  0  0  0  0  0  0
  181.0260  179.1530  135.4460 C   0  0  0  0  0  0  0  0  0  0  0  0
  180.7420  180.2490  134.6320 C   0  0  0  0  0  3  0  0  0  0  0  0
  186.1850  177.1720  135.4310 O   0  0  0  0  0  0  0  0  0  0  0  0
  185.9560  176.2850  136.2950 C   0  0  0  0  0  0  0  0  0  0  0  0
  184.8980  176.4480  137.2500 N   0  0  0  0  0  2  0  0  0  0  0  0
  186.1280  173.9360  135.5500 C   0  0  0  0  0  1  0  0  0  0  0  0
  186.8030  175.0580  136.3180 C   0  0  1  0  0  3  0  0  0  0  0  0
  188.4390  175.4100  135.6060 S   0  0  0  0  0  0  0  0  0  0  0  0
  189.0690  176.1200  137.1540 C   0  0  0  0  0  2  0  0  0  0  0  0
  188.7790  178.5440  137.8070 C   0  0  0  0  0  0  0  0  0  0  0  0
  187.8680  178.1910  138.9330 C   0  0  0  0  0  1  0  0  0  0  0  0
  189.0550  179.7530  137.5940 O   0  0  0  0  0  0  0  0  0  0  0  0
  189.3440  177.5360  136.9670 N   0  0  0  0  0  2  0  0  0  0  0  0
  1  6  1  0  0  0  0
  1  9  1  1  0  0  0
  2  3  1  6  0  0  0
  2  5  1  0  0  0  0
  3  7  1  0  0  0  0
  5 16  1  0  0  0  0
  5 14  2  0  0  0  0
  7  4  1  0  0  0  0
  8 23  1  1  0  0  0
  8 12  1  0  0  0  0
 10 18  1  0  0  0  0
 10 19  1  0  0  0  0
 11  7  2  0  0  0  0
 13 18  1  6  0  0  0
 13  8  1  0  0  0  0
 13  2  1  0  0  0  0
 14  1  1  0  0  0  0
 15 11  1  0  0  0  0
 16 12  1  6  0  0  0
 16 17  1  0  0  0  0
 17  6  1  0  0  0  0
 19  3  2  0  0  0  0
 20 15  2  0  0  0  0
 20 19  1  0  0  0  0
 21 22  2  0  0  0  0
 22 25  1  0  0  0  0
 22 23  1  0  0  0  0
 25 24  1  6  0  0  0
 26 25  1  0  0  0  0
 26 27  1  0  0  0  0
 28 29  1  0  0  0  0
 30 28  2  0  0  0  0
 31 27  1  0  0  0  0
 31 28  1  0  0  0  0
M  END
>  <MODEL>
7

>  <REMARK>
 VINA RESULT:      -6.1      5.646      9.621
  Name = 
  5 active torsions:
  status: ('A' for Active; 'I' for Inactive)
    1  A    between atoms: S_6  and  C_19
    2  A    between atoms: S_6  and  C_22
    3  A    between atoms: C_9  and  C_22
    4  A    between atoms: C_15  and  N_23
    5  A    between atoms: C_19  and  N_24
                            x       y       z     vdW  Elec       q    Type
                         _______ _______ _______ _____ _____    ______ ____

>  <TORSDO>
F 5

$$$$
=
 OpenBabel11052413043D

 31 34  0  0  1  0  0  0  0  0999 V2000
  180.7340  177.7780  141.4120 C   0  0  1  0  0  3  0  0  0  0  0  0
  181.6420  178.1350  137.6930 C   0  0  2  0  0  3  0  0  0  0  0  0
  181.2200  179.3940  136.9390 C   0  0  0  0  0  0  0  0  0  0  0  0
  180.8140  181.0120  139.2180 Cl  0  0  0  0  0  0  0  0  0  0  0  0
  181.7100  178.1440  139.1950 C   0  0  0  0  0  0  0  0  0  0  0  0
  181.5860  178.9340  141.9420 C   0  0  0  0  0  2  0  0  0  0  0  0
  180.8270  180.6410  137.5030 C   0  0  0  0  0  0  0  0  0  0  0  0
  184.2190  178.1840  137.6330 C   0  0  2  0  0  3  0  0  0  0  0  0
  179.3560  177.8270  142.0360 C   0  0  0  0  0  1  0  0  0  0  0  0
  181.6600  177.9750  134.9090 C   0  0  0  0  0  2  0  0  0  0  0  0
  180.4330  181.6860  136.6610 C   0  0  0  0  0  3  0  0  0  0  0  0
  184.0790  178.9260  138.9740 C   0  0  0  0  0  2  0  0  0  0  0  0
  182.9310  177.5220  137.1000 C   0  0  2  0  0  3  0  0  0  0  0  0
  180.6200  177.8640  139.9190 C   0  0  0  0  0  3  0  0  0  0  0  0
  180.4230  181.5280  135.2770 C   0  0  0  0  0  3  0  0  0  0  0  0
  183.0420  178.2910  139.8960 C   0  0  1  0  0  3  0  0  0  0  0  0
  182.9340  179.0860  141.2080 C   0  0  0  0  0  2  0  0  0  0  0  0
  182.9630  177.5020  135.5590 C   0  0  0  0  0  2  0  0  0  0  0  0
  181.2180  179.2630  135.5340 C   0  0  0  0  0  0  0  0  0  0  0  0
  180.8160  180.3180  134.7140 C   0  0  0  0  0  3  0  0  0  0  0  0
  187.0570  178.7940  137.3850 O   0  0  0  0  0  0  0  0  0  0  0  0
  186.7110  177.5900  137.5150 C   0  0  0  0  0  0  0  0  0  0  0  0
  185.3290  177.2370  137.6670 N   0  0  0  0  0  2  0  0  0  0  0  0
  187.5840  175.6160  136.3130 C   0  0  0  0  0  1  0  0  0  0  0  0
  187.7590  176.5290  137.5130 C   0  0  1  0  0  3  0  0  0  0  0  0
  189.4150  177.2800  137.4930 S   0  0  0  0  0  0  0  0  0  0  0  0
  189.7870  176.7420  139.1870 C   0  0  0  0  0  2  0  0  0  0  0  0
  189.2650  177.4700  141.5510 C   0  0  0  0  0  0  0  0  0  0  0  0
  190.1190  176.3960  142.1310 C   0  0  0  0  0  1  0  0  0  0  0  0
  188.6610  178.2600  142.3210 O   0  0  0  0  0  0  0  0  0  0  0  0
  189.1200  177.6180  140.1370 N   0  0  0  0  0  2  0  0  0  0  0  0
  1  6  1  0  0  0  0
  1  9  1  1  0  0  0
  2  3  1  6  0  0  0
  2  5  1  0  0  0  0
  3  7  1  0  0  0  0
  5 16  1  0  0  0  0
  5 14  2  0  0  0  0
  7  4  1  0  0  0  0
  8 23  1  1  0  0  0
  8 12  1  0  0  0  0
 10 19  1  0  0  0  0
 10 18  1  0  0  0  0
 11  7  2  0  0  0  0
 13 18  1  6  0  0  0
 13  8  1  0  0  0  0
 13  2  1  0  0  0  0
 14  1  1  0  0  0  0
 15 11  1  0  0  0  0
 16 12  1  6  0  0  0
 16 17  1  0  0  0  0
 17  6  1  0  0  0  0
 19  3  2  0  0  0  0
 20 15  2  0  0  0  0
 20 19  1  0  0  0  0
 21 22  2  0  0  0  0
 22 23  1  0  0  0  0
 25 24  1  6  0  0  0
 25 22  1  0  0  0  0
 26 25  1  0  0  0  0
 26 27  1  0  0  0  0
 27 31  1  0  0  0  0
 28 29  1  0  0  0  0
 28 30  2  0  0  0  0
 31 28  1  0  0  0  0
M  END
>  <MODEL>
8

>  <REMARK>
 VINA RESULT:      -6.1      5.445      9.141
  Name = 
  5 active torsions:
  status: ('A' for Active; 'I' for Inactive)
    1  A    between atoms: S_6  and  C_19
    2  A    between atoms: S_6  and  C_22
    3  A    between atoms: C_9  and  C_22
    4  A    between atoms: C_15  and  N_23
    5  A    between atoms: C_19  and  N_24
                            x       y       z     vdW  Elec       q    Type
                         _______ _______ _______ _____ _____    ______ ____

>  <TORSDO>
F 5

$$$$
=
 OpenBabel11052413043D

 31 34  0  0  1  0  0  0  0  0999 V2000
  188.6890  173.6390  135.7310 C   0  0  1  0  0  3  0  0  0  0  0  0
  189.2500  176.0870  138.6420 C   0  0  2  0  0  3  0  0  0  0  0  0
  190.6690  176.5500  138.9650 C   0  0  0  0  0  0  0  0  0  0  0  0
  191.8000  175.8880  136.4640 Cl  0  0  0  0  0  0  0  0  0  0  0  0
  188.9350  175.5140  137.2880 C   0  0  0  0  0  0  0  0  0  0  0  0
  189.1370  174.5640  134.5970 C   0  0  0  0  0  2  0  0  0  0  0  0
  191.8090  176.4760  138.1170 C   0  0  0  0  0  0  0  0  0  0  0  0
  188.0130  178.2420  137.9540 C   0  0  2  0  0  3  0  0  0  0  0  0
  189.3000  172.2660  135.5460 C   0  0  0  0  0  1  0  0  0  0  0  0
  189.6410  177.2120  141.1630 C   0  0  0  0  0  2  0  0  0  0  0  0
  193.0500  176.9160  138.5890 C   0  0  0  0  0  3  0  0  0  0  0  0
  188.4520  177.8530  136.5320 C   0  0  0  0  0  2  0  0  0  0  0  0
  188.2020  177.1540  139.0320 C   0  0  2  0  0  3  0  0  0  0  0  0
  189.1060  174.2080  137.0550 C   0  0  0  0  0  3  0  0  0  0  0  0
  193.1880  177.4280  139.8780 C   0  0  0  0  0  3  0  0  0  0  0  0
  188.2580  176.3680  136.2390 C   0  0  1  0  0  3  0  0  0  0  0  0
  188.7310  176.0370  134.8140 C   0  0  0  0  0  2  0  0  0  0  0  0
  188.4640  177.8210  140.3960 C   0  0  0  0  0  2  0  0  0  0  0  0
  190.8290  177.0880  140.2600 C   0  0  0  0  0  0  0  0  0  0  0  0
  192.0780  177.5160  140.7120 C   0  0  0  0  0  3  0  0  0  0  0  0
  185.5440  176.7350  137.6080 O   0  0  0  0  0  0  0  0  0  0  0  0
  185.4690  177.9820  137.7610 C   0  0  0  0  0  0  0  0  0  0  0  0
  186.6520  178.7690  137.9610 N   0  0  0  0  0  2  0  0  0  0  0  0
  183.0330  177.5960  137.6180 C   0  0  0  0  0  1  0  0  0  0  0  0
  184.1300  178.6380  137.7370 C   0  0  1  0  0  3  0  0  0  0  0  0
  183.8890  179.6310  139.2420 S   0  0  0  0  0  0  0  0  0  0  0  0
  183.5370  178.1730  140.2660 C   0  0  0  0  0  2  0  0  0  0  0  0
  183.8190  178.5740  142.7450 C   0  0  0  0  0  0  0  0  0  0  0  0
  182.3820  178.9340  142.9090 C   0  0  0  0  0  1  0  0  0  0  0  0
  184.5750  178.5890  143.7500 O   0  0  0  0  0  0  0  0  0  0  0  0
  184.3510  178.2120  141.4700 N   0  0  0  0  0  2  0  0  0  0  0  0
  1  9  1  6  0  0  0
  1 14  1  0  0  0  0
  2  5  1  6  0  0  0
  2  3  1  0  0  0  0
  2 13  1  0  0  0  0
  3 19  1  0  0  0  0
  4  7  1  0  0  0  0
  6 17  1  0  0  0  0
  6  1  1  0  0  0  0
  7 11  1  0  0  0  0
  7  3  2  0  0  0  0
  8 23  1  6  0  0  0
  8 13  1  0  0  0  0
 11 15  2  0  0  0  0
 12  8  1  0  0  0  0
 13 18  1  1  0  0  0
 14  5  2  0  0  0  0
 15 20  1  0  0  0  0
 16 17  1  6  0  0  0
 16 12  1  0  0  0  0
 16  5  1  0  0  0  0
 18 10  1  0  0  0  0
 19 20  2  0  0  0  0
 19 10  1  0  0  0  0
 21 22  2  0  0  0  0
 22 23  1  0  0  0  0
 25 24  1  1  0  0  0
 25 22  1  0  0  0  0
 25 26  1  0  0  0  0
 26 27  1  0  0  0  0
 27 31  1  0  0  0  0
 28 29  1  0  0  0  0
 28 30  2  0  0  0  0
 31 28  1  0  0  0  0
M  END
>  <MODEL>
9

>  <REMARK>
 VINA RESULT:      -6.0      2.628      3.469
  Name = 
  5 active torsions:
  status: ('A' for Active; 'I' for Inactive)
    1  A    between atoms: S_6  and  C_19
    2  A    between atoms: S_6  and  C_22
    3  A    between atoms: C_9  and  C_22
    4  A    between atoms: C_15  and  N_23
    5  A    between atoms: C_19  and  N_24
                            x       y       z     vdW  Elec       q    Type
                         _______ _______ _______ _____ _____    ______ ____

>  <TORSDO>
F 5

$$$$
