=
 OpenBabel11052412343D

 30 33  0  0  1  0  0  0  0  0999 V2000
  188.4340  177.8930  145.1160 C   0  0  0  0  0  0  0  0  0  0  0  0
  186.0700  176.9130  145.3600 C   0  0  0  0  0  2  0  0  0  0  0  0
  185.7330  178.7390  141.2350 C   0  0  0  0  0  2  0  0  0  0  0  0
  189.2110  176.3550  142.4000 C   0  0  0  0  0  2  0  0  0  0  0  0
  189.2660  178.7720  144.3590 N   0  0  0  0  0  2  0  0  0  0  0  0
  191.2430  177.3580  143.5470 C   0  0  2  0  0  3  0  0  0  0  0  0
  191.6490  179.8830  144.3550 S   0  0  0  0  0  0  0  0  0  0  0  0
  188.9390  177.3640  139.6530 N   0  0  0  0  0  0  0  0  0  0  0  0
  186.9340  178.6690  140.2910 C   0  0  2  0  0  3  0  0  0  0  0  0
  190.6780  178.5760  144.2370 C   0  0  0  0  0  0  0  0  0  0  0  0
  190.5300  176.9700  142.3260 N   0  0  0  0  0  0  0  0  0  0  0  0
  185.4600  178.1910  145.9430 C   0  0  0  0  0  2  0  0  0  0  0  0
  190.1160  178.1470  140.0760 C   0  0  0  0  0  2  0  0  0  0  0  0
  188.7180  177.6620  146.3210 O   0  0  0  0  0  0  0  0  0  0  0  0
  186.1620  178.7160  142.7020 C   0  0  1  0  0  3  0  0  0  0  0  0
  185.3100  179.3420  144.9490 C   0  0  0  0  0  2  0  0  0  0  0  0
  187.2910  177.1480  144.4680 C   0  0  1  0  0  3  0  0  0  0  0  0
  188.1820  177.4170  142.0680 C   0  0  1  0  0  3  0  0  0  0  0  0
  186.4240  178.6420  138.8620 C   0  0  0  0  0  1  0  0  0  0  0  0
  187.7930  177.4290  140.5810 C   0  0  2  0  0  3  0  0  0  0  0  0
  192.2580  177.4100  140.8250 O   0  0  0  0  0  0  0  0  0  0  0  0
  184.9140  178.8630  143.5620 C   0  0  0  0  0  2  0  0  0  0  0  0
  186.9510  177.4200  142.9800 C   0  0  2  0  0  3  0  0  0  0  0  0
  191.0240  177.4580  141.0700 C   0  0  0  0  0  0  0  0  0  0  0  0
  191.7240  176.2050  144.4300 C   0  0  0  0  0  2  0  0  0  0  0  0
  192.4130  174.9480  146.6150 C   0  0  0  0  0  1  0  0  0  0  0  0
  191.7160  176.5720  146.2110 S   0  0  0  0  0  0  0  0  0  0  0  0
  189.2620  175.9740  139.3350 C   0  0  0  0  0  2  0  0  0  0  0  0
  191.2160  175.2960  137.9470 C   0  0  0  0  0  1  0  0  0  0  0  0
  189.8110  175.8670  137.9220 C   0  0  0  0  0  2  0  0  0  0  0  0
  1 14  2  0  0  0  0
  2 12  1  0  0  0  0
  5  1  1  0  0  0  0
  6 10  1  0  0  0  0
  6 25  1  1  0  0  0
  8 13  1  0  0  0  0
  9 19  1  6  0  0  0
  9 20  1  0  0  0  0
  9  3  1  0  0  0  0
 10  7  2  0  0  0  0
 10  5  1  0  0  0  0
 11  4  1  0  0  0  0
 11  6  1  0  0  0  0
 13 24  1  0  0  0  0
 15  3  1  6  0  0  0
 15 23  1  0  0  0  0
 15 22  1  0  0  0  0
 16 12  1  0  0  0  0
 17  1  1  0  0  0  0
 17  2  1  1  0  0  0
 18  4  1  6  0  0  0
 18 23  1  0  0  0  0
 20  8  1  6  0  0  0
 20 18  1  0  0  0  0
 21 24  2  0  0  0  0
 22 16  1  0  0  0  0
 23 17  1  0  0  0  0
 24 11  1  0  0  0  0
 25 27  1  0  0  0  0
 27 26  1  0  0  0  0
 28  8  1  0  0  0  0
 30 29  1  0  0  0  0
 30 28  1  0  0  0  0
M  END
>  <MODEL>
1

>  <REMARK>
 VINA RESULT:      -5.5      0.000      0.000
  Name = 
  4 active torsions:
  status: ('A' for Active; 'I' for Inactive)
    1  A    between atoms: C_6  and  C_8
    2  A    between atoms: C_6  and  S_21
    3  A    between atoms: C_7  and  N_10
    4  A    between atoms: C_7  and  C_26
                            x       y       z     vdW  Elec       q    Type
                         _______ _______ _______ _____ _____    ______ ____

>  <TORSDO>
F 4

$$$$
=
 OpenBabel11052412343D

 30 33  0  0  1  0  0  0  0  0999 V2000
  185.7090  178.0440  138.1620 C   0  0  0  0  0  0  0  0  0  0  0  0
  184.1630  179.9060  139.0280 C   0  0  0  0  0  2  0  0  0  0  0  0
  185.2090  177.8840  142.9370 C   0  0  0  0  0  2  0  0  0  0  0  0
  188.2710  178.8070  139.9510 C   0  0  0  0  0  2  0  0  0  0  0  0
  186.3700  176.8230  138.4900 N   0  0  0  0  0  2  0  0  0  0  0  0
  188.8640  177.2230  138.0560 C   0  0  2  0  0  3  0  0  0  0  0  0
  187.7600  174.8630  137.4220 S   0  0  0  0  0  0  0  0  0  0  0  0
  189.0140  177.6680  142.5570 N   0  0  0  0  0  0  0  0  0  0  0  0
  186.6290  177.3560  143.1430 C   0  0  2  0  0  3  0  0  0  0  0  0
  187.5970  176.4240  137.8710 C   0  0  0  0  0  0  0  0  0  0  0  0
  189.0750  177.7130  139.4210 N   0  0  0  0  0  0  0  0  0  0  0  0
  182.8900  179.0570  138.9640 C   0  0  0  0  0  2  0  0  0  0  0  0
  189.3960  176.5380  141.6870 C   0  0  0  0  0  2  0  0  0  0  0  0
  185.4240  178.2860  136.9590 O   0  0  0  0  0  0  0  0  0  0  0  0
  184.8230  177.9100  141.4580 C   0  0  1  0  0  3  0  0  0  0  0  0
  182.8030  177.9510  140.0140 C   0  0  0  0  0  2  0  0  0  0  0  0
  185.4490  179.0990  139.2120 C   0  0  1  0  0  3  0  0  0  0  0  0
  187.2160  178.2110  140.8610 C   0  0  1  0  0  3  0  0  0  0  0  0
  186.9550  177.4120  144.6240 C   0  0  0  0  0  1  0  0  0  0  0  0
  187.6470  178.1770  142.3360 C   0  0  2  0  0  3  0  0  0  0  0  0
  190.9710  176.4450  139.8990 O   0  0  0  0  0  0  0  0  0  0  0  0
  183.3770  178.3770  141.3550 C   0  0  0  0  0  2  0  0  0  0  0  0
  185.8140  178.8080  140.6900 C   0  0  2  0  0  3  0  0  0  0  0  0
  189.8800  176.9220  140.3070 C   0  0  0  0  0  0  0  0  0  0  0  0
  189.2620  178.1870  136.9360 C   0  0  0  0  0  2  0  0  0  0  0  0
  190.0920  176.7260  134.9350 C   0  0  0  0  0  1  0  0  0  0  0  0
  188.6260  177.7300  135.2950 S   0  0  0  0  0  0  0  0  0  0  0  0
  189.9800  178.7650  142.5230 C   0  0  0  0  0  2  0  0  0  0  0  0
  190.4940  178.0370  144.8500 C   0  0  0  0  0  1  0  0  0  0  0  0
  191.0830  178.5310  143.5430 C   0  0  0  0  0  2  0  0  0  0  0  0
  1  5  1  0  0  0  0
  1 17  1  0  0  0  0
  3  9  1  0  0  0  0
  6 25  1  6  0  0  0
  6 11  1  0  0  0  0
  7 10  2  0  0  0  0
  9 19  1  1  0  0  0
 10  6  1  0  0  0  0
 10  5  1  0  0  0  0
 11  4  1  0  0  0  0
 11 24  1  0  0  0  0
 12  2  1  0  0  0  0
 12 16  1  0  0  0  0
 13  8  1  0  0  0  0
 14  1  2  0  0  0  0
 15 22  1  1  0  0  0
 15  3  1  0  0  0  0
 16 22  1  0  0  0  0
 17  2  1  1  0  0  0
 17 23  1  0  0  0  0
 18  4  1  6  0  0  0
 18 20  1  0  0  0  0
 20  8  1  6  0  0  0
 20  9  1  0  0  0  0
 21 24  2  0  0  0  0
 23 18  1  0  0  0  0
 23 15  1  0  0  0  0
 24 13  1  0  0  0  0
 26 27  1  0  0  0  0
 27 25  1  0  0  0  0
 28  8  1  0  0  0  0
 28 30  1  0  0  0  0
 30 29  1  0  0  0  0
M  END
>  <MODEL>
2

>  <REMARK>
 VINA RESULT:      -5.3      3.358      6.141
  Name = 
  4 active torsions:
  status: ('A' for Active; 'I' for Inactive)
    1  A    between atoms: C_6  and  C_8
    2  A    between atoms: C_6  and  S_21
    3  A    between atoms: C_7  and  N_10
    4  A    between atoms: C_7  and  C_26
                            x       y       z     vdW  Elec       q    Type
                         _______ _______ _______ _____ _____    ______ ____

>  <TORSDO>
F 4

$$$$
=
 OpenBabel11052412343D

 30 33  0  0  1  0  0  0  0  0999 V2000
  189.2400  174.6330  135.3920 C   0  0  0  0  0  0  0  0  0  0  0  0
  190.7850  172.6420  135.9010 C   0  0  0  0  0  2  0  0  0  0  0  0
  193.0800  175.9530  137.9580 C   0  0  0  0  0  2  0  0  0  0  0  0
  188.7520  175.5320  138.4420 C   0  0  0  0  0  2  0  0  0  0  0  0
  189.1210  176.0550  135.3970 N   0  0  0  0  0  2  0  0  0  0  0  0
  187.0810  176.5960  136.8520 C   0  0  2  0  0  3  0  0  0  0  0  0
  187.5410  178.0090  134.6190 S   0  0  0  0  0  0  0  0  0  0  0  0
  190.2350  177.5760  139.9450 N   0  0  0  0  0  0  0  0  0  0  0  0
  192.3060  177.0470  138.6940 C   0  0  2  0  0  3  0  0  0  0  0  0
  187.8650  176.7200  135.5680 C   0  0  0  0  0  0  0  0  0  0  0  0
  187.8990  176.6530  138.0670 N   0  0  0  0  0  0  0  0  0  0  0  0
  191.6640  172.8420  134.6630 C   0  0  0  0  0  2  0  0  0  0  0  0
  189.4240  178.4590  139.0830 C   0  0  0  0  0  2  0  0  0  0  0  0
  188.5360  173.9590  134.5940 O   0  0  0  0  0  0  0  0  0  0  0  0
  192.2590  175.3440  136.8210 C   0  0  1  0  0  3  0  0  0  0  0  0
  192.5720  174.0700  134.7130 C   0  0  0  0  0  2  0  0  0  0  0  0
  190.1050  173.9180  136.4030 C   0  0  1  0  0  3  0  0  0  0  0  0
  190.1770  175.8830  138.0650 C   0  0  1  0  0  3  0  0  0  0  0  0
  193.1630  177.5610  139.8360 C   0  0  0  0  0  1  0  0  0  0  0  0
  190.9640  176.5150  139.2230 C   0  0  2  0  0  3  0  0  0  0  0  0
  187.0550  178.6610  138.8960 O   0  0  0  0  0  0  0  0  0  0  0  0
  193.1310  174.3230  136.1030 C   0  0  0  0  0  2  0  0  0  0  0  0
  190.9590  174.7460  137.3960 C   0  0  2  0  0  3  0  0  0  0  0  0
  188.0590  177.9220  138.7160 C   0  0  0  0  0  0  0  0  0  0  0  0
  185.9220  175.5980  136.8790 C   0  0  0  0  0  2  0  0  0  0  0  0
  183.5830  174.7040  137.6250 C   0  0  0  0  0  1  0  0  0  0  0  0
  184.3130  176.3310  137.3020 S   0  0  0  0  0  0  0  0  0  0  0  0
  189.4750  177.0090  141.0570 C   0  0  0  0  0  2  0  0  0  0  0  0
  191.0140  177.6710  142.9000 C   0  0  0  0  0  1  0  0  0  0  0  0
  190.4150  176.5040  142.1390 C   0  0  0  0  0  2  0  0  0  0  0  0
  1  5  1  0  0  0  0
  1 17  1  0  0  0  0
  3  9  1  0  0  0  0
  5 10  1  0  0  0  0
  6 25  1  6  0  0  0
  6 11  1  0  0  0  0
  7 10  2  0  0  0  0
  8 28  1  0  0  0  0
  9 20  1  0  0  0  0
  9 19  1  1  0  0  0
 10  6  1  0  0  0  0
 11  4  1  0  0  0  0
 11 24  1  0  0  0  0
 12 16  1  0  0  0  0
 12  2  1  0  0  0  0
 13  8  1  0  0  0  0
 14  1  2  0  0  0  0
 15 22  1  1  0  0  0
 15 23  1  0  0  0  0
 15  3  1  0  0  0  0
 16 22  1  0  0  0  0
 17  2  1  6  0  0  0
 17 23  1  0  0  0  0
 18  4  1  1  0  0  0
 18 20  1  0  0  0  0
 20  8  1  6  0  0  0
 23 18  1  0  0  0  0
 24 21  2  0  0  0  0
 24 13  1  0  0  0  0
 25 27  1  0  0  0  0
 27 26  1  0  0  0  0
 28 30  1  0  0  0  0
 30 29  1  0  0  0  0
M  END
>  <MODEL>
3

>  <REMARK>
 VINA RESULT:      -5.1      4.575      8.567
  Name = 
  4 active torsions:
  status: ('A' for Active; 'I' for Inactive)
    1  A    between atoms: C_6  and  C_8
    2  A    between atoms: C_6  and  S_21
    3  A    between atoms: C_7  and  N_10
    4  A    between atoms: C_7  and  C_26
                            x       y       z     vdW  Elec       q    Type
                         _______ _______ _______ _____ _____    ______ ____

>  <TORSDO>
F 4

$$$$
=
 OpenBabel11052412343D

 30 33  0  0  1  0  0  0  0  0999 V2000
  182.0750  173.5550  136.5740 C   0  0  0  0  0  0  0  0  0  0  0  0
  184.1360  172.1080  137.0890 C   0  0  0  0  0  2  0  0  0  0  0  0
  186.1370  176.1170  136.4660 C   0  0  0  0  0  2  0  0  0  0  0  0
  182.5290  175.7200  138.9090 C   0  0  0  0  0  2  0  0  0  0  0  0
  181.6210  174.8130  136.0740 N   0  0  0  0  0  2  0  0  0  0  0  0
  180.1870  175.8430  137.9330 C   0  0  2  0  0  3  0  0  0  0  0  0
  179.4400  176.1020  135.3700 S   0  0  0  0  0  0  0  0  0  0  0  0
  183.9090  178.3050  138.6840 N   0  0  0  0  0  0  0  0  0  0  0  0
  185.4420  177.3810  136.9740 C   0  0  2  0  0  3  0  0  0  0  0  0
  180.3930  175.4100  136.5010 C   0  0  0  0  0  0  0  0  0  0  0  0
  181.3520  176.4950  138.5390 N   0  0  0  0  0  0  0  0  0  0  0  0
  184.4250  171.7690  135.6240 C   0  0  0  0  0  2  0  0  0  0  0  0
  182.6490  178.6480  137.9950 C   0  0  0  0  0  2  0  0  0  0  0  0
  181.3160  172.5520  136.4960 O   0  0  0  0  0  0  0  0  0  0  0  0
  185.1330  175.0100  136.1390 C   0  0  1  0  0  3  0  0  0  0  0  0
  184.9580  172.9330  134.7900 C   0  0  0  0  0  2  0  0  0  0  0  0
  183.3960  173.4310  137.2950 C   0  0  1  0  0  3  0  0  0  0  0  0
  183.5850  175.9390  137.8450 C   0  0  1  0  0  3  0  0  0  0  0  0
  186.5020  178.4070  137.3260 C   0  0  0  0  0  1  0  0  0  0  0  0
  184.5600  177.0750  138.1940 C   0  0  2  0  0  3  0  0  0  0  0  0
  180.4040  178.6090  138.7960 O   0  0  0  0  0  0  0  0  0  0  0  0
  185.9050  173.8250  135.5750 C   0  0  0  0  0  2  0  0  0  0  0  0
  184.3220  174.6690  137.4050 C   0  0  2  0  0  3  0  0  0  0  0  0
  181.4210  177.9280  138.5010 C   0  0  0  0  0  0  0  0  0  0  0  0
  179.4010  174.9040  138.8490 C   0  0  0  0  0  2  0  0  0  0  0  0
  179.2360  173.9150  141.2620 C   0  0  0  0  0  1  0  0  0  0  0  0
  179.1030  175.5630  140.5180 S   0  0  0  0  0  0  0  0  0  0  0  0
  183.7700  178.2670  140.1390 C   0  0  0  0  0  2  0  0  0  0  0  0
  185.1540  178.3200  142.2100 C   0  0  0  0  0  1  0  0  0  0  0  0
  184.9980  178.8670  140.8040 C   0  0  0  0  0  2  0  0  0  0  0  0
  1 17  1  0  0  0  0
  3  9  1  0  0  0  0
  5 10  1  0  0  0  0
  5  1  1  0  0  0  0
  6 11  1  0  0  0  0
  6 25  1  1  0  0  0
  7 10  2  0  0  0  0
  8 28  1  0  0  0  0
  9 19  1  1  0  0  0
  9 20  1  0  0  0  0
 10  6  1  0  0  0  0
 11  4  1  0  0  0  0
 12  2  1  0  0  0  0
 13 24  1  0  0  0  0
 13  8  1  0  0  0  0
 14  1  2  0  0  0  0
 15 22  1  1  0  0  0
 15  3  1  0  0  0  0
 15 23  1  0  0  0  0
 16 22  1  0  0  0  0
 16 12  1  0  0  0  0
 17  2  1  6  0  0  0
 17 23  1  0  0  0  0
 18 20  1  0  0  0  0
 18  4  1  1  0  0  0
 20  8  1  6  0  0  0
 23 18  1  0  0  0  0
 24 11  1  0  0  0  0
 24 21  2  0  0  0  0
 25 27  1  0  0  0  0
 27 26  1  0  0  0  0
 28 30  1  0  0  0  0
 30 29  1  0  0  0  0
M  END
>  <MODEL>
4

>  <REMARK>
 VINA RESULT:      -4.8      7.115     10.008
  Name = 
  4 active torsions:
  status: ('A' for Active; 'I' for Inactive)
    1  A    between atoms: C_6  and  C_8
    2  A    between atoms: C_6  and  S_21
    3  A    between atoms: C_7  and  N_10
    4  A    between atoms: C_7  and  C_26
                            x       y       z     vdW  Elec       q    Type
                         _______ _______ _______ _____ _____    ______ ____

>  <TORSDO>
F 4

$$$$
=
 OpenBabel11052412343D

 30 33  0  0  1  0  0  0  0  0999 V2000
  189.4290  177.4400  145.6240 C   0  0  0  0  0  0  0  0  0  0  0  0
  188.1530  176.0940  147.4030 C   0  0  0  0  0  2  0  0  0  0  0  0
  184.9240  179.0130  146.1720 C   0  0  0  0  0  2  0  0  0  0  0  0
  187.3720  176.9300  143.2040 C   0  0  0  0  0  2  0  0  0  0  0  0
  189.4250  178.6200  144.8200 N   0  0  0  0  0  2  0  0  0  0  0  0
  189.6040  177.8280  142.3890 C   0  0  2  0  0  3  0  0  0  0  0  0
  190.9310  180.0200  143.1800 S   0  0  0  0  0  0  0  0  0  0  0  0
  185.1590  178.6720  142.3640 N   0  0  0  0  0  0  0  0  0  0  0  0
  184.8040  179.4100  144.7000 C   0  0  2  0  0  3  0  0  0  0  0  0
  190.0690  178.6810  143.5440 C   0  0  0  0  0  0  0  0  0  0  0  0
  188.1470  177.7260  142.2610 N   0  0  0  0  0  0  0  0  0  0  0  0
  188.5170  177.0300  148.5590 C   0  0  0  0  0  2  0  0  0  0  0  0
  186.2910  179.4540  141.8310 C   0  0  0  0  0  2  0  0  0  0  0  0
  190.5290  176.9000  145.9180 O   0  0  0  0  0  0  0  0  0  0  0  0
  186.3530  178.6100  146.5360 C   0  0  1  0  0  3  0  0  0  0  0  0
  187.8270  178.3930  148.5230 C   0  0  0  0  0  2  0  0  0  0  0  0
  188.1400  176.7660  146.0280 C   0  0  1  0  0  3  0  0  0  0  0  0
  186.7210  177.8780  144.1900 C   0  0  1  0  0  3  0  0  0  0  0  0
  183.3530  179.7430  144.4070 C   0  0  0  0  0  1  0  0  0  0  0  0
  185.2960  178.2820  143.7810 C   0  0  2  0  0  3  0  0  0  0  0  0
  187.9520  178.8510  140.2290 O   0  0  0  0  0  0  0  0  0  0  0  0
  186.3930  178.3040  148.0270 C   0  0  0  0  0  2  0  0  0  0  0  0
  186.7870  177.4220  145.6530 C   0  0  2  0  0  3  0  0  0  0  0  0
  187.4810  178.6390  141.3770 C   0  0  0  0  0  0  0  0  0  0  0  0
  190.3860  176.5450  142.0980 C   0  0  0  0  0  2  0  0  0  0  0  0
  192.3240  177.5030  140.6290 C   0  0  0  0  0  1  0  0  0  0  0  0
  190.9280  176.3750  140.3700 S   0  0  0  0  0  0  0  0  0  0  0  0
  184.8330  177.5070  141.5420 C   0  0  0  0  0  2  0  0  0  0  0  0
  182.5510  178.4200  141.1350 C   0  0  0  0  0  1  0  0  0  0  0  0
  183.8080  177.8750  140.4830 C   0  0  0  0  0  2  0  0  0  0  0  0
  1 14  2  0  0  0  0
  1 17  1  0  0  0  0
  2 12  1  0  0  0  0
  5  1  1  0  0  0  0
  6 25  1  1  0  0  0
  6 10  1  0  0  0  0
  7 10  2  0  0  0  0
  9 19  1  6  0  0  0
  9  3  1  0  0  0  0
 10  5  1  0  0  0  0
 11  6  1  0  0  0  0
 11  4  1  0  0  0  0
 13  8  1  0  0  0  0
 15  3  1  6  0  0  0
 15 22  1  0  0  0  0
 16 12  1  0  0  0  0
 17  2  1  1  0  0  0
 18  4  1  6  0  0  0
 18 23  1  0  0  0  0
 20  8  1  6  0  0  0
 20 18  1  0  0  0  0
 20  9  1  0  0  0  0
 21 24  2  0  0  0  0
 22 16  1  0  0  0  0
 23 17  1  0  0  0  0
 23 15  1  0  0  0  0
 24 13  1  0  0  0  0
 24 11  1  0  0  0  0
 27 26  1  0  0  0  0
 27 25  1  0  0  0  0
 28  8  1  0  0  0  0
 30 29  1  0  0  0  0
 30 28  1  0  0  0  0
M  END
>  <MODEL>
5

>  <REMARK>
 VINA RESULT:      -4.8      2.320      4.334
  Name = 
  4 active torsions:
  status: ('A' for Active; 'I' for Inactive)
    1  A    between atoms: C_6  and  C_8
    2  A    between atoms: C_6  and  S_21
    3  A    between atoms: C_7  and  N_10
    4  A    between atoms: C_7  and  C_26
                            x       y       z     vdW  Elec       q    Type
                         _______ _______ _______ _____ _____    ______ ____

>  <TORSDO>
F 4

$$$$
=
 OpenBabel11052412343D

 30 33  0  0  1  0  0  0  0  0999 V2000
  186.4120  178.3280  137.4290 C   0  0  0  0  0  0  0  0  0  0  0  0
  187.2640  177.6020  135.1150 C   0  0  0  0  0  2  0  0  0  0  0  0
  185.7630  173.6290  136.6720 C   0  0  0  0  0  2  0  0  0  0  0  0
  183.3910  177.2830  137.0730 C   0  0  0  0  0  2  0  0  0  0  0  0
  185.9700  177.8780  138.7090 N   0  0  0  0  0  2  0  0  0  0  0  0
  183.6290  178.8670  139.0440 C   0  0  2  0  0  3  0  0  0  0  0  0
  185.3350  178.7450  141.1090 S   0  0  0  0  0  0  0  0  0  0  0  0
  182.3020  174.6890  137.9240 N   0  0  0  0  0  0  0  0  0  0  0  0
  184.4830  173.5950  137.5080 C   0  0  2  0  0  3  0  0  0  0  0  0
  185.0450  178.6230  139.5070 C   0  0  0  0  0  0  0  0  0  0  0  0
  182.9930  177.7090  138.4080 N   0  0  0  0  0  0  0  0  0  0  0  0
  188.6670  177.2310  135.6050 C   0  0  0  0  0  2  0  0  0  0  0  0
  182.3940  175.3500  139.2400 C   0  0  0  0  0  2  0  0  0  0  0  0
  186.9200  179.4760  137.3220 O   0  0  0  0  0  0  0  0  0  0  0  0
  186.4810  174.9740  136.7890 C   0  0  1  0  0  3  0  0  0  0  0  0
  188.7330  175.9690  136.4640 C   0  0  0  0  0  2  0  0  0  0  0  0
  186.1760  177.5030  136.1860 C   0  0  1  0  0  3  0  0  0  0  0  0
  184.2970  176.0780  137.2180 C   0  0  1  0  0  3  0  0  0  0  0  0
  183.8050  172.2540  137.2970 C   0  0  0  0  0  1  0  0  0  0  0  0
  183.5400  174.7440  137.1210 C   0  0  2  0  0  3  0  0  0  0  0  0
  181.3570  177.3480  140.0280 O   0  0  0  0  0  0  0  0  0  0  0  0
  187.7740  174.8920  135.9880 C   0  0  0  0  0  2  0  0  0  0  0  0
  185.5360  176.0970  136.3150 C   0  0  2  0  0  3  0  0  0  0  0  0
  182.1880  176.8480  139.2250 C   0  0  0  0  0  0  0  0  0  0  0  0
  183.3170  180.2260  138.4120 C   0  0  0  0  0  2  0  0  0  0  0  0
  181.1140  180.4380  137.0230 C   0  0  0  0  0  1  0  0  0  0  0  0
  181.6260  180.8220  138.7180 S   0  0  0  0  0  0  0  0  0  0  0  0
  181.1600  175.1480  137.1340 C   0  0  0  0  0  2  0  0  0  0  0  0
  180.4200  173.1820  135.7950 C   0  0  0  0  0  1  0  0  0  0  0  0
  181.1710  174.4990  135.7600 C   0  0  0  0  0  2  0  0  0  0  0  0
  1  5  1  0  0  0  0
  2 12  1  0  0  0  0
  3 15  1  0  0  0  0
  3  9  1  0  0  0  0
  4 11  1  0  0  0  0
  5 10  1  0  0  0  0
  6 25  1  6  0  0  0
  6 10  1  0  0  0  0
  8 13  1  0  0  0  0
  9 19  1  6  0  0  0
 10  7  2  0  0  0  0
 11  6  1  0  0  0  0
 11 24  1  0  0  0  0
 12 16  1  0  0  0  0
 14  1  2  0  0  0  0
 15 22  1  6  0  0  0
 17  2  1  1  0  0  0
 17 23  1  0  0  0  0
 17  1  1  0  0  0  0
 18  4  1  6  0  0  0
 20 18  1  0  0  0  0
 20  9  1  0  0  0  0
 20  8  1  1  0  0  0
 22 16  1  0  0  0  0
 23 15  1  0  0  0  0
 23 18  1  0  0  0  0
 24 13  1  0  0  0  0
 24 21  2  0  0  0  0
 25 27  1  0  0  0  0
 26 27  1  0  0  0  0
 28  8  1  0  0  0  0
 30 29  1  0  0  0  0
 30 28  1  0  0  0  0
M  END
>  <MODEL>
6

>  <REMARK>
 VINA RESULT:      -4.6      5.810      9.037
  Name = 
  4 active torsions:
  status: ('A' for Active; 'I' for Inactive)
    1  A    between atoms: C_6  and  C_8
    2  A    between atoms: C_6  and  S_21
    3  A    between atoms: C_7  and  N_10
    4  A    between atoms: C_7  and  C_26
                            x       y       z     vdW  Elec       q    Type
                         _______ _______ _______ _____ _____    ______ ____

>  <TORSDO>
F 4

$$$$
=
 OpenBabel11052412343D

 30 33  0  0  1  0  0  0  0  0999 V2000
  183.9490  174.3200  136.4110 C   0  0  0  0  0  0  0  0  0  0  0  0
  184.4530  171.9350  137.2270 C   0  0  0  0  0  2  0  0  0  0  0  0
  188.2030  172.7460  134.8320 C   0  0  0  0  0  2  0  0  0  0  0  0
  186.5880  175.7070  137.6180 C   0  0  0  0  0  2  0  0  0  0  0  0
  184.3320  175.3540  135.5040 N   0  0  0  0  0  2  0  0  0  0  0  0
  184.8340  177.4150  136.9440 C   0  0  2  0  0  3  0  0  0  0  0  0
  183.5750  177.7020  134.5940 S   0  0  0  0  0  0  0  0  0  0  0  0
  189.1300  176.1920  136.2240 N   0  0  0  0  0  0  0  0  0  0  0  0
  188.8190  174.1450  134.8660 C   0  0  2  0  0  3  0  0  0  0  0  0
  184.1280  176.7410  135.7920 C   0  0  0  0  0  0  0  0  0  0  0  0
  186.2370  177.0240  137.1040 N   0  0  0  0  0  0  0  0  0  0  0  0
  183.8510  171.2490  135.9970 C   0  0  0  0  0  2  0  0  0  0  0  0
  188.3130  177.2520  135.6020 C   0  0  0  0  0  2  0  0  0  0  0  0
  182.7610  174.2750  136.8260 O   0  0  0  0  0  0  0  0  0  0  0  0
  186.6970  172.7820  135.0890 C   0  0  1  0  0  3  0  0  0  0  0  0
  184.6640  171.4070  134.7120 C   0  0  0  0  0  2  0  0  0  0  0  0
  184.9670  173.3530  136.9680 C   0  0  1  0  0  3  0  0  0  0  0  0
  187.0000  174.8420  136.4440 C   0  0  1  0  0  3  0  0  0  0  0  0
  190.3160  174.0200  134.6570 C   0  0  0  0  0  1  0  0  0  0  0  0
  188.5170  174.8490  136.1980 C   0  0  2  0  0  3  0  0  0  0  0  0
  187.1780  179.0960  136.5990 O   0  0  0  0  0  0  0  0  0  0  0  0
  186.1620  171.3620  134.9640 C   0  0  0  0  0  2  0  0  0  0  0  0
  186.4320  173.4190  136.4690 C   0  0  2  0  0  3  0  0  0  0  0  0
  187.2420  177.8440  136.4890 C   0  0  0  0  0  0  0  0  0  0  0  0
  184.0450  177.6040  138.2420 C   0  0  0  0  0  2  0  0  0  0  0  0
  183.7730  178.2990  140.7460 C   0  0  0  0  0  1  0  0  0  0  0  0
  184.6670  178.9420  139.3060 S   0  0  0  0  0  0  0  0  0  0  0  0
  189.5660  176.5280  137.5790 C   0  0  0  0  0  2  0  0  0  0  0  0
  192.0250  176.2350  137.3130 C   0  0  0  0  0  1  0  0  0  0  0  0
  190.7720  175.6920  137.9710 C   0  0  0  0  0  2  0  0  0  0  0  0
  1 14  2  0  0  0  0
  1 17  1  0  0  0  0
  3  9  1  0  0  0  0
  5 10  1  0  0  0  0
  5  1  1  0  0  0  0
  6 11  1  0  0  0  0
  6 25  1  1  0  0  0
  7 10  2  0  0  0  0
  8 28  1  0  0  0  0
  9 19  1  1  0  0  0
  9 20  1  0  0  0  0
 10  6  1  0  0  0  0
 11  4  1  0  0  0  0
 12  2  1  0  0  0  0
 13  8  1  0  0  0  0
 13 24  1  0  0  0  0
 15  3  1  1  0  0  0
 15 23  1  0  0  0  0
 16 22  1  0  0  0  0
 16 12  1  0  0  0  0
 17  2  1  6  0  0  0
 18 23  1  0  0  0  0
 18  4  1  1  0  0  0
 20  8  1  6  0  0  0
 20 18  1  0  0  0  0
 22 15  1  0  0  0  0
 23 17  1  0  0  0  0
 24 21  2  0  0  0  0
 24 11  1  0  0  0  0
 25 27  1  0  0  0  0
 27 26  1  0  0  0  0
 28 30  1  0  0  0  0
 29 30  1  0  0  0  0
M  END
>  <MODEL>
7

>  <REMARK>
 VINA RESULT:      -4.5      5.575      8.717
  Name = 
  4 active torsions:
  status: ('A' for Active; 'I' for Inactive)
    1  A    between atoms: C_6  and  C_8
    2  A    between atoms: C_6  and  S_21
    3  A    between atoms: C_7  and  N_10
    4  A    between atoms: C_7  and  C_26
                            x       y       z     vdW  Elec       q    Type
                         _______ _______ _______ _____ _____    ______ ____

>  <TORSDO>
F 4

$$$$
=
 OpenBabel11052412343D

 30 33  0  0  1  0  0  0  0  0999 V2000
  182.4710  174.6080  135.9690 C   0  0  0  0  0  0  0  0  0  0  0  0
  179.9570  174.7510  135.4560 C   0  0  0  0  0  2  0  0  0  0  0  0
  179.9550  176.1620  139.7530 C   0  0  0  0  0  2  0  0  0  0  0  0
  182.8590  177.6760  136.8530 C   0  0  0  0  0  2  0  0  0  0  0  0
  183.4600  174.6260  136.9970 N   0  0  0  0  0  2  0  0  0  0  0  0
  185.0770  176.5240  136.3990 C   0  0  2  0  0  3  0  0  0  0  0  0
  186.0270  174.2320  137.4170 S   0  0  0  0  0  0  0  0  0  0  0  0
  182.7670  178.7570  139.5850 N   0  0  0  0  0  0  0  0  0  0  0  0
  181.0980  177.0510  140.2440 C   0  0  2  0  0  3  0  0  0  0  0  0
  184.7960  175.0880  136.7700 C   0  0  0  0  0  0  0  0  0  0  0  0
  184.2780  177.5060  137.1380 N   0  0  0  0  0  0  0  0  0  0  0  0
  179.6440  173.3350  135.9510 C   0  0  0  0  0  2  0  0  0  0  0  0
  184.0910  178.1070  139.6330 C   0  0  0  0  0  2  0  0  0  0  0  0
  182.7180  174.0090  134.8880 O   0  0  0  0  0  0  0  0  0  0  0  0
  180.3920  175.2610  138.5970 C   0  0  1  0  0  3  0  0  0  0  0  0
  179.7290  173.1530  137.4660 C   0  0  0  0  0  2  0  0  0  0  0  0
  181.1850  175.3880  136.1070 C   0  0  1  0  0  3  0  0  0  0  0  0
  182.0770  176.9640  137.9380 C   0  0  1  0  0  3  0  0  0  0  0  0
  180.5720  177.9480  141.3490 C   0  0  0  0  0  1  0  0  0  0  0  0
  181.6760  177.8920  139.0950 C   0  0  2  0  0  3  0  0  0  0  0  0
  186.0360  178.4930  138.3080 O   0  0  0  0  0  0  0  0  0  0  0  0
  179.2180  174.3650  138.2260 C   0  0  0  0  0  2  0  0  0  0  0  0
  180.8890  176.1380  137.4300 C   0  0  2  0  0  3  0  0  0  0  0  0
  184.8450  178.0850  138.3230 C   0  0  0  0  0  0  0  0  0  0  0  0
  185.3130  176.8390  134.9200 C   0  0  0  0  0  2  0  0  0  0  0  0
  187.8550  176.7270  135.5130 C   0  0  0  0  0  1  0  0  0  0  0  0
  186.7790  177.8640  134.5990 S   0  0  0  0  0  0  0  0  0  0  0  0
  182.7800  180.0250  138.8570 C   0  0  0  0  0  2  0  0  0  0  0  0
  181.1660  181.2170  137.3810 C   0  0  0  0  0  1  0  0  0  0  0  0
  181.3720  180.5860  138.7450 C   0  0  0  0  0  2  0  0  0  0  0  0
  1 17  1  0  0  0  0
  1  5  1  0  0  0  0
  2 12  1  0  0  0  0
  3  9  1  0  0  0  0
  4 11  1  0  0  0  0
  6 25  1  6  0  0  0
  6 10  1  0  0  0  0
  6 11  1  0  0  0  0
  8 13  1  0  0  0  0
  9 19  1  1  0  0  0
 10  5  1  0  0  0  0
 10  7  2  0  0  0  0
 11 24  1  0  0  0  0
 12 16  1  0  0  0  0
 14  1  2  0  0  0  0
 15 22  1  6  0  0  0
 15  3  1  0  0  0  0
 16 22  1  0  0  0  0
 17  2  1  1  0  0  0
 17 23  1  0  0  0  0
 18  4  1  6  0  0  0
 18 20  1  0  0  0  0
 20  8  1  1  0  0  0
 20  9  1  0  0  0  0
 21 24  2  0  0  0  0
 23 18  1  0  0  0  0
 23 15  1  0  0  0  0
 24 13  1  0  0  0  0
 27 25  1  0  0  0  0
 27 26  1  0  0  0  0
 28  8  1  0  0  0  0
 29 30  1  0  0  0  0
 30 28  1  0  0  0  0
M  END
>  <MODEL>
8

>  <REMARK>
 VINA RESULT:      -4.5      6.603      9.515
  Name = 
  4 active torsions:
  status: ('A' for Active; 'I' for Inactive)
    1  A    between atoms: C_6  and  C_8
    2  A    between atoms: C_6  and  S_21
    3  A    between atoms: C_7  and  N_10
    4  A    between atoms: C_7  and  C_26
                            x       y       z     vdW  Elec       q    Type
                         _______ _______ _______ _____ _____    ______ ____

>  <TORSDO>
F 4

$$$$
=
 OpenBabel11052412343D

 30 33  0  0  1  0  0  0  0  0999 V2000
  185.3400  178.1360  137.9340 C   0  0  0  0  0  0  0  0  0  0  0  0
  186.8730  177.6150  135.9370 C   0  0  0  0  0  2  0  0  0  0  0  0
  185.3500  173.4560  136.8540 C   0  0  0  0  0  2  0  0  0  0  0  0
  182.6480  176.8930  136.6890 C   0  0  0  0  0  2  0  0  0  0  0  0
  184.5960  177.5790  139.0160 N   0  0  0  0  0  2  0  0  0  0  0  0
  182.1780  178.3700  138.7010 C   0  0  2  0  0  3  0  0  0  0  0  0
  183.2340  178.2520  141.1640 S   0  0  0  0  0  0  0  0  0  0  0  0
  181.5960  174.1790  137.0980 N   0  0  0  0  0  0  0  0  0  0  0  0
  183.8940  173.2760  137.2860 C   0  0  2  0  0  3  0  0  0  0  0  0
  183.4210  178.2040  139.5420 C   0  0  0  0  0  0  0  0  0  0  0  0
  181.8530  177.2080  137.8690 N   0  0  0  0  0  0  0  0  0  0  0  0
  188.1070  177.3210  136.7950 C   0  0  0  0  0  2  0  0  0  0  0  0
  181.2540  174.7650  138.4090 C   0  0  0  0  0  2  0  0  0  0  0  0
  185.7550  179.3230  138.0190 O   0  0  0  0  0  0  0  0  0  0  0  0
  185.8840  174.8410  137.2200 C   0  0  1  0  0  3  0  0  0  0  0  0
  188.0380  176.0180  137.5910 C   0  0  0  0  0  2  0  0  0  0  0  0
  185.5400  177.3710  136.6470 C   0  0  1  0  0  3  0  0  0  0  0  0
  183.5790  175.7510  137.0450 C   0  0  1  0  0  3  0  0  0  0  0  0
  183.4240  171.9040  136.8420 C   0  0  0  0  0  1  0  0  0  0  0  0
  183.0000  174.3730  136.6870 C   0  0  2  0  0  3  0  0  0  0  0  0
  179.8640  176.6290  138.9370 O   0  0  0  0  0  0  0  0  0  0  0  0
  187.3520  174.9030  136.8210 C   0  0  0  0  0  2  0  0  0  0  0  0
  185.0160  175.9170  136.5370 C   0  0  2  0  0  3  0  0  0  0  0  0
  180.9280  176.2410  138.3890 C   0  0  0  0  0  0  0  0  0  0  0  0
  181.9390  179.7360  138.0550 C   0  0  0  0  0  2  0  0  0  0  0  0
  180.1570  180.1860  139.9130 C   0  0  0  0  0  1  0  0  0  0  0  0
  180.2080  180.2930  138.1040 S   0  0  0  0  0  0  0  0  0  0  0  0
  180.6880  174.5970  136.0310 C   0  0  0  0  0  2  0  0  0  0  0  0
  180.0980  172.3070  135.2500 C   0  0  0  0  0  1  0  0  0  0  0  0
  180.7510  173.6210  134.8680 C   0  0  0  0  0  2  0  0  0  0  0  0
  1 14  2  0  0  0  0
  1  5  1  0  0  0  0
  2 12  1  0  0  0  0
  3 15  1  0  0  0  0
  3  9  1  0  0  0  0
  4 11  1  0  0  0  0
  5 10  1  0  0  0  0
  6 25  1  6  0  0  0
  6 10  1  0  0  0  0
  8 13  1  0  0  0  0
  9 19  1  6  0  0  0
 10  7  2  0  0  0  0
 11 24  1  0  0  0  0
 11  6  1  0  0  0  0
 12 16  1  0  0  0  0
 15 22  1  6  0  0  0
 17  2  1  1  0  0  0
 17  1  1  0  0  0  0
 18  4  1  6  0  0  0
 20 18  1  0  0  0  0
 20  8  1  1  0  0  0
 20  9  1  0  0  0  0
 22 16  1  0  0  0  0
 23 17  1  0  0  0  0
 23 18  1  0  0  0  0
 23 15  1  0  0  0  0
 24 13  1  0  0  0  0
 24 21  2  0  0  0  0
 25 27  1  0  0  0  0
 27 26  1  0  0  0  0
 28  8  1  0  0  0  0
 30 29  1  0  0  0  0
 30 28  1  0  0  0  0
M  END
>  <MODEL>
9

>  <REMARK>
 VINA RESULT:      -4.4      6.422      9.479
  Name = 
  4 active torsions:
  status: ('A' for Active; 'I' for Inactive)
    1  A    between atoms: C_6  and  C_8
    2  A    between atoms: C_6  and  S_21
    3  A    between atoms: C_7  and  N_10
    4  A    between atoms: C_7  and  C_26
                            x       y       z     vdW  Elec       q    Type
                         _______ _______ _______ _____ _____    ______ ____

>  <TORSDO>
F 4

$$$$
