=
 OpenBabel11052414033D

 34 38  0  0  1  0  0  0  0  0999 V2000
  183.2400  177.8750  138.3550 C   0  0  1  0  0  3  0  0  0  0  0  0
  184.2550  178.4330  140.5420 C   0  0  0  0  0  0  0  0  0  0  0  0
  185.8140  178.1350  138.6740 C   0  0  0  0  0  0  0  0  0  0  0  0
  188.9240  178.9580  138.2350 C   0  0  0  0  0  2  0  0  0  0  0  0
  182.3570  176.7010  135.9590 Cl  0  0  0  0  0  0  0  0  0  0  0  0
  182.9770  178.4060  141.0950 O   0  0  0  0  0  1  0  0  0  0  0  0
  186.6380  178.8220  140.9150 C   0  0  0  0  0  3  0  0  0  0  0  0
  184.4380  178.1190  139.2470 C   0  0  0  0  0  0  0  0  0  0  0  0
  188.2870  177.9810  139.2120 C   0  0  2  0  0  3  0  0  0  0  0  0
  182.3270  179.3960  138.1340 Cl  0  0  0  0  0  0  0  0  0  0  0  0
  185.9790  177.9150  137.3440 C   0  0  0  0  0  0  0  0  0  0  0  0
  183.6120  177.3390  137.0020 C   0  0  0  0  0  0  0  0  0  0  0  0
  185.3930  178.8470  141.3910 C   0  0  0  0  0  0  0  0  0  0  0  0
  188.0480  179.2840  137.1030 N   0  0  0  0  0  2  0  0  0  0  0  0
  187.2760  178.1350  136.6020 C   0  0  1  0  0  3  0  0  0  0  0  0
  186.9220  178.3880  139.5750 N   0  0  0  0  0  0  0  0  0  0  0  0
  184.8530  177.4270  136.5280 C   0  0  0  0  0  3  0  0  0  0  0  0
  188.5140  174.5210  136.4610 C   0  0  0  0  0  0  0  0  0  0  0  0
  189.6660  174.6650  135.6830 C   0  0  0  0  0  3  0  0  0  0  0  0
  188.0930  176.9080  136.2820 C   0  0  0  0  0  0  0  0  0  0  0  0
  190.0330  175.9250  135.2030 C   0  0  0  0  0  3  0  0  0  0  0  0
  187.7300  175.6390  136.7590 C   0  0  0  0  0  3  0  0  0  0  0  0
  189.2490  177.0440  135.5030 C   0  0  0  0  0  3  0  0  0  0  0  0
  188.0540  172.9460  137.0670 Cl  0  0  0  0  0  0  0  0  0  0  0  0
  190.2720  176.9310  140.3160 C   0  0  0  0  0  3  0  0  0  0  0  0
  190.6770  176.2260  139.0610 C   0  0  0  0  0  1  0  0  0  0  0  0
  189.1950  177.7240  140.3840 C   0  0  0  0  0  3  0  0  0  0  0  0
  185.1700  179.2440  142.8130 C   0  0  0  0  0  2  0  0  0  0  0  0
  187.3820  176.9110  144.5520 N   0  0  0  0  0  0  0  0  0  0  0  0
  186.5990  177.2770  145.5570 N   0  0  0  0  0  2  0  0  0  0  0  0
  186.9880  177.5360  143.4210 C   0  0  0  0  0  3  0  0  0  0  0  0
  184.6420  178.7940  145.9140 C   0  0  0  0  0  1  0  0  0  0  0  0
  185.6910  178.1430  145.0820 C   0  0  0  0  0  0  0  0  0  0  0  0
  185.9000  178.3230  143.7350 C   0  0  0  0  0  0  0  0  0  0  0  0
  1 10  1  6  0  0  0
  1  8  1  0  0  0  0
  2  6  1  0  0  0  0
  2 13  1  0  0  0  0
  3  8  1  0  0  0  0
  3 16  1  0  0  0  0
  4  9  1  0  0  0  0
  5 12  1  0  0  0  0
  7 13  2  0  0  0  0
  8  2  2  0  0  0  0
  9 16  1  0  0  0  0
  9 27  1  1  0  0  0
 11  3  2  0  0  0  0
 12  1  1  0  0  0  0
 13 28  1  0  0  0  0
 14  4  1  0  0  0  0
 15 20  1  1  0  0  0
 15 14  1  0  0  0  0
 15 11  1  0  0  0  0
 16  7  1  0  0  0  0
 17 12  2  0  0  0  0
 17 11  1  0  0  0  0
 18 22  1  0  0  0  0
 18 24  1  0  0  0  0
 19 18  2  0  0  0  0
 20 22  2  0  0  0  0
 21 23  2  0  0  0  0
 21 19  1  0  0  0  0
 23 20  1  0  0  0  0
 25 27  2  0  0  0  0
 26 25  1  0  0  0  0
 28 34  1  0  0  0  0
 29 30  1  0  0  0  0
 31 34  1  0  0  0  0
 31 29  2  0  0  0  0
 33 30  1  0  0  0  0
 33 32  1  0  0  0  0
 34 33  2  0  0  0  0
M  END
>  <MODEL>
1

>  <REMARK>
 VINA RESULT:      -8.2      0.000      0.000
  Name = 
  4 active torsions:
  status: ('A' for Active; 'I' for Inactive)
    1  A    between atoms: C_12  and  C_28
    2  A    between atoms: C_18  and  C_29
    3  A    between atoms: C_20  and  C_25
    4  A    between atoms: C_20  and  C_34
                            x       y       z     vdW  Elec       q    Type
                         _______ _______ _______ _____ _____    ______ ____

>  <TORSDO>
F 4

$$$$
=
 OpenBabel11052414033D

 34 38  0  0  1  0  0  0  0  0999 V2000
  184.4370  178.8480  141.8990 C   0  0  1  0  0  3  0  0  0  0  0  0
  186.2200  178.8860  140.1840 C   0  0  0  0  0  0  0  0  0  0  0  0
  186.8070  177.8490  142.3250 C   0  0  0  0  0  0  0  0  0  0  0  0
  189.2220  175.8820  143.2440 C   0  0  0  0  0  2  0  0  0  0  0  0
  182.7740  179.2020  144.1370 Cl  0  0  0  0  0  0  0  0  0  0  0  0
  185.3450  179.5770  139.3500 O   0  0  0  0  0  1  0  0  0  0  0  0
  188.4260  177.8660  140.4400 C   0  0  0  0  0  3  0  0  0  0  0  0
  185.8520  178.5740  141.4390 C   0  0  0  0  0  0  0  0  0  0  0  0
  189.2500  177.3230  142.7540 C   0  0  2  0  0  3  0  0  0  0  0  0
  183.2960  177.7920  141.0170 Cl  0  0  0  0  0  0  0  0  0  0  0  0
  186.3930  177.4490  143.5560 C   0  0  0  0  0  0  0  0  0  0  0  0
  184.2450  178.6350  143.3740 C   0  0  0  0  0  0  0  0  0  0  0  0
  187.5370  178.4720  139.6530 C   0  0  0  0  0  0  0  0  0  0  0  0
  187.8940  175.4650  143.7090 N   0  0  0  0  0  2  0  0  0  0  0  0
  187.1700  176.5110  144.4500 C   0  0  1  0  0  3  0  0  0  0  0  0
  188.1450  177.6020  141.8250 N   0  0  0  0  0  0  0  0  0  0  0  0
  185.1140  177.9350  144.1020 C   0  0  0  0  0  3  0  0  0  0  0  0
  189.9250  177.3070  146.9780 C   0  0  0  0  0  0  0  0  0  0  0  0
  189.3130  178.3130  147.7300 C   0  0  0  0  0  3  0  0  0  0  0  0
  187.9400  177.1370  145.5860 C   0  0  0  0  0  0  0  0  0  0  0  0
  188.0190  178.7330  147.4130 C   0  0  0  0  0  3  0  0  0  0  0  0
  189.2410  176.7210  145.9090 C   0  0  0  0  0  3  0  0  0  0  0  0
  187.3340  178.1460  146.3450 C   0  0  0  0  0  3  0  0  0  0  0  0
  191.5430  176.7740  147.3740 Cl  0  0  0  0  0  0  0  0  0  0  0  0
  191.4130  178.5770  142.8300 C   0  0  0  0  0  3  0  0  0  0  0  0
  191.0270  179.2950  144.0830 C   0  0  0  0  0  1  0  0  0  0  0  0
  190.6140  177.6860  142.2310 C   0  0  0  0  0  3  0  0  0  0  0  0
  187.9130  178.7780  138.2400 C   0  0  0  0  0  2  0  0  0  0  0  0
  186.9790  175.9580  136.1090 N   0  0  0  0  0  0  0  0  0  0  0  0
  188.2960  175.8080  136.1230 N   0  0  0  0  0  0  0  0  0  0  0  0
  186.6360  177.0210  136.8690 C   0  0  0  0  0  2  0  0  0  0  0  0
  190.2720  176.9510  137.1470 C   0  0  0  0  0  1  0  0  0  0  0  0
  188.8150  176.7750  136.8960 C   0  0  0  0  0  0  0  0  0  0  0  0
  187.7960  177.5540  137.3920 C   0  0  0  0  0  0  0  0  0  0  0  0
  1 10  1  6  0  0  0
  1 12  1  0  0  0  0
  2  8  2  0  0  0  0
  3 11  2  0  0  0  0
  4 14  1  0  0  0  0
  6  2  1  0  0  0  0
  7 16  1  0  0  0  0
  8  1  1  0  0  0  0
  8  3  1  0  0  0  0
  9 27  1  6  0  0  0
  9  4  1  0  0  0  0
 11 17  1  0  0  0  0
 11 15  1  0  0  0  0
 12 17  2  0  0  0  0
 12  5  1  0  0  0  0
 13  2  1  0  0  0  0
 13  7  2  0  0  0  0
 14 15  1  0  0  0  0
 15 20  1  6  0  0  0
 16  3  1  0  0  0  0
 16  9  1  0  0  0  0
 18 24  1  0  0  0  0
 18 19  1  0  0  0  0
 20 22  1  0  0  0  0
 20 23  2  0  0  0  0
 21 19  2  0  0  0  0
 22 18  2  0  0  0  0
 23 21  1  0  0  0  0
 25 26  1  0  0  0  0
 27 25  2  0  0  0  0
 28 13  1  0  0  0  0
 29 30  2  0  0  0  0
 29 31  1  0  0  0  0
 30 33  1  0  0  0  0
 31 34  1  0  0  0  0
 33 32  1  0  0  0  0
 33 34  2  0  0  0  0
 34 28  1  0  0  0  0
M  END
>  <MODEL>
2

>  <REMARK>
 VINA RESULT:      -7.6      3.292      7.393
  Name = 
  4 active torsions:
  status: ('A' for Active; 'I' for Inactive)
    1  A    between atoms: C_12  and  C_28
    2  A    between atoms: C_18  and  C_29
    3  A    between atoms: C_20  and  C_25
    4  A    between atoms: C_20  and  C_34
                            x       y       z     vdW  Elec       q    Type
                         _______ _______ _______ _____ _____    ______ ____

>  <TORSDO>
F 4

$$$$
=
 OpenBabel11052414033D

 34 38  0  0  1  0  0  0  0  0999 V2000
  187.8840  178.4160  139.2720 C   0  0  1  0  0  3  0  0  0  0  0  0
  187.4170  178.2620  141.6970 C   0  0  0  0  0  0  0  0  0  0  0  0
  185.4660  178.1790  140.2170 C   0  0  0  0  0  0  0  0  0  0  0  0
  182.3900  177.2380  140.6610 C   0  0  0  0  0  2  0  0  0  0  0  0
  188.1380  179.1310  136.5650 Cl  0  0  0  0  0  0  0  0  0  0  0  0
  188.7830  178.4130  141.9260 O   0  0  0  0  0  1  0  0  0  0  0  0
  185.2050  177.9130  142.6730 C   0  0  0  0  0  3  0  0  0  0  0  0
  186.9320  178.3240  140.4440 C   0  0  0  0  0  0  0  0  0  0  0  0
  183.1710  178.3920  141.2730 C   0  0  2  0  0  3  0  0  0  0  0  0
  188.8120  176.8940  139.1230 Cl  0  0  0  0  0  0  0  0  0  0  0  0
  184.9950  178.1420  138.9430 C   0  0  0  0  0  0  0  0  0  0  0  0
  187.1880  178.6810  137.9670 C   0  0  0  0  0  0  0  0  0  0  0  0
  186.5240  177.9980  142.8460 C   0  0  0  0  0  0  0  0  0  0  0  0
  183.0090  176.7190  139.4360 N   0  0  0  0  0  2  0  0  0  0  0  0
  183.5800  177.7650  138.5720 C   0  0  1  0  0  3  0  0  0  0  0  0
  184.6040  178.0820  141.3790 N   0  0  0  0  0  0  0  0  0  0  0  0
  185.8790  178.4860  137.8160 C   0  0  0  0  0  3  0  0  0  0  0  0
  180.6780  179.7710  137.1000 C   0  0  0  0  0  0  0  0  0  0  0  0
  180.9470  181.0430  137.6120 C   0  0  0  0  0  3  0  0  0  0  0  0
  182.6420  178.8970  138.2340 C   0  0  0  0  0  0  0  0  0  0  0  0
  182.0590  181.2440  138.4330 C   0  0  0  0  0  3  0  0  0  0  0  0
  181.5220  178.7010  137.4100 C   0  0  0  0  0  3  0  0  0  0  0  0
  182.9050  180.1740  138.7420 C   0  0  0  0  0  3  0  0  0  0  0  0
  179.2900  179.5150  136.0670 Cl  0  0  0  0  0  0  0  0  0  0  0  0
  181.3130  179.3950  142.6150 C   0  0  0  0  0  3  0  0  0  0  0  0
  180.4600  179.5970  141.4030 C   0  0  0  0  0  1  0  0  0  0  0  0
  182.5340  178.8500  142.5580 C   0  0  0  0  0  3  0  0  0  0  0  0
  187.0820  177.8790  144.2250 C   0  0  0  0  0  2  0  0  0  0  0  0
  184.1920  178.9730  146.1770 N   0  0  0  0  0  0  0  0  0  0  0  0
  185.0450  178.7100  147.1580 N   0  0  0  0  0  2  0  0  0  0  0  0
  184.7850  178.7360  144.9870 C   0  0  0  0  0  3  0  0  0  0  0  0
  187.4000  177.8990  147.3870 C   0  0  0  0  0  1  0  0  0  0  0  0
  186.1980  178.3030  146.6070 C   0  0  0  0  0  0  0  0  0  0  0  0
  186.0740  178.3160  145.2370 C   0  0  0  0  0  0  0  0  0  0  0  0
  1 10  1  6  0  0  0
  1  8  1  0  0  0  0
  2  6  1  0  0  0  0
  2 13  1  0  0  0  0
  3  8  1  0  0  0  0
  3 16  1  0  0  0  0
  4  9  1  0  0  0  0
  5 12  1  0  0  0  0
  7 13  2  0  0  0  0
  8  2  2  0  0  0  0
  9 16  1  0  0  0  0
  9 27  1  1  0  0  0
 11  3  2  0  0  0  0
 12  1  1  0  0  0  0
 13 28  1  0  0  0  0
 14  4  1  0  0  0  0
 15 20  1  1  0  0  0
 15 11  1  0  0  0  0
 15 14  1  0  0  0  0
 16  7  1  0  0  0  0
 17 12  2  0  0  0  0
 17 11  1  0  0  0  0
 18 22  2  0  0  0  0
 18 19  1  0  0  0  0
 19 21  2  0  0  0  0
 20 23  2  0  0  0  0
 21 23  1  0  0  0  0
 22 20  1  0  0  0  0
 24 18  1  0  0  0  0
 26 25  1  0  0  0  0
 27 25  2  0  0  0  0
 28 34  1  0  0  0  0
 29 30  1  0  0  0  0
 31 34  1  0  0  0  0
 31 29  2  0  0  0  0
 33 30  1  0  0  0  0
 33 32  1  0  0  0  0
 34 33  2  0  0  0  0
M  END
>  <MODEL>
3

>  <REMARK>
 VINA RESULT:      -7.0      2.964      6.051
  Name = 
  4 active torsions:
  status: ('A' for Active; 'I' for Inactive)
    1  A    between atoms: C_12  and  C_28
    2  A    between atoms: C_18  and  C_29
    3  A    between atoms: C_20  and  C_25
    4  A    between atoms: C_20  and  C_34
                            x       y       z     vdW  Elec       q    Type
                         _______ _______ _______ _____ _____    ______ ____

>  <TORSDO>
F 4

$$$$
=
 OpenBabel11052414033D

 34 38  0  0  1  0  0  0  0  0999 V2000
  183.8410  175.5080  136.3010 C   0  0  1  0  0  3  0  0  0  0  0  0
  184.1390  177.3410  137.9360 C   0  0  0  0  0  0  0  0  0  0  0  0
  186.1390  176.6780  136.6840 C   0  0  0  0  0  0  0  0  0  0  0  0
  189.0110  178.1070  136.1830 C   0  0  0  0  0  2  0  0  0  0  0  0
  183.8520  173.1120  134.8320 Cl  0  0  0  0  0  0  0  0  0  0  0  0
  182.8000  177.1890  138.2880 O   0  0  0  0  0  1  0  0  0  0  0  0
  186.2150  178.5830  138.2780 C   0  0  0  0  0  3  0  0  0  0  0  0
  184.7000  176.5130  137.0360 C   0  0  0  0  0  0  0  0  0  0  0  0
  188.3750  177.5830  137.4630 C   0  0  2  0  0  3  0  0  0  0  0  0
  182.7090  176.3600  135.2100 Cl  0  0  0  0  0  0  0  0  0  0  0  0
  186.6720  175.9040  135.7030 C   0  0  0  0  0  0  0  0  0  0  0  0
  184.6420  174.5300  135.4890 C   0  0  0  0  0  0  0  0  0  0  0  0
  184.9160  178.4450  138.5400 C   0  0  0  0  0  0  0  0  0  0  0  0
  188.3940  177.5520  134.9730 N   0  0  0  0  0  2  0  0  0  0  0  0
  188.0340  176.1290  135.0900 C   0  0  1  0  0  3  0  0  0  0  0  0
  186.9080  177.6660  137.4140 N   0  0  0  0  0  0  0  0  0  0  0  0
  185.9140  174.7590  135.1680 C   0  0  0  0  0  3  0  0  0  0  0  0
  191.4600  174.4800  135.4920 C   0  0  0  0  0  0  0  0  0  0  0  0
  191.1720  173.5000  136.4460 C   0  0  0  0  0  3  0  0  0  0  0  0
  189.1470  175.2260  135.5600 C   0  0  0  0  0  0  0  0  0  0  0  0
  189.8780  173.3810  136.9580 C   0  0  0  0  0  3  0  0  0  0  0  0
  190.4510  175.3410  135.0510 C   0  0  0  0  0  3  0  0  0  0  0  0
  188.8680  174.2410  136.5150 C   0  0  0  0  0  3  0  0  0  0  0  0
  193.0780  174.6290  134.8450 Cl  0  0  0  0  0  0  0  0  0  0  0  0
  190.0060  177.6710  139.3580 C   0  0  0  0  0  3  0  0  0  0  0  0
  190.6140  176.3590  138.9810 C   0  0  0  0  0  1  0  0  0  0  0  0
  188.9980  178.2250  138.6740 C   0  0  0  0  0  3  0  0  0  0  0  0
  184.2670  179.3900  139.4970 C   0  0  0  0  0  2  0  0  0  0  0  0
  185.4390  178.4810  142.8390 N   0  0  0  0  0  0  0  0  0  0  0  0
  184.1340  178.3120  143.0000 N   0  0  0  0  0  2  0  0  0  0  0  0
  185.6910  178.8720  141.5710 C   0  0  0  0  0  3  0  0  0  0  0  0
  182.0610  178.5330  141.6170 C   0  0  0  0  0  1  0  0  0  0  0  0
  183.5320  178.5920  141.8330 C   0  0  0  0  0  0  0  0  0  0  0  0
  184.4850  178.9400  140.9050 C   0  0  0  0  0  0  0  0  0  0  0  0
  1 10  1  6  0  0  0
  1  8  1  0  0  0  0
  2  6  1  0  0  0  0
  2 13  1  0  0  0  0
  3  8  1  0  0  0  0
  3 16  1  0  0  0  0
  4  9  1  0  0  0  0
  5 12  1  0  0  0  0
  7 13  2  0  0  0  0
  8  2  2  0  0  0  0
  9 27  1  1  0  0  0
 11  3  2  0  0  0  0
 12  1  1  0  0  0  0
 13 28  1  0  0  0  0
 14 15  1  0  0  0  0
 14  4  1  0  0  0  0
 15 20  1  1  0  0  0
 15 11  1  0  0  0  0
 16  9  1  0  0  0  0
 16  7  1  0  0  0  0
 17 12  2  0  0  0  0
 17 11  1  0  0  0  0
 18 19  1  0  0  0  0
 19 21  2  0  0  0  0
 20 23  2  0  0  0  0
 22 18  2  0  0  0  0
 22 20  1  0  0  0  0
 23 21  1  0  0  0  0
 24 18  1  0  0  0  0
 26 25  1  0  0  0  0
 27 25  2  0  0  0  0
 28 34  1  0  0  0  0
 29 30  1  0  0  0  0
 31 29  2  0  0  0  0
 32 33  1  0  0  0  0
 33 30  1  0  0  0  0
 34 31  1  0  0  0  0
 34 33  2  0  0  0  0
M  END
>  <MODEL>
4

>  <REMARK>
 VINA RESULT:      -6.9      2.118      3.094
  Name = 
  4 active torsions:
  status: ('A' for Active; 'I' for Inactive)
    1  A    between atoms: C_12  and  C_28
    2  A    between atoms: C_18  and  C_29
    3  A    between atoms: C_20  and  C_25
    4  A    between atoms: C_20  and  C_34
                            x       y       z     vdW  Elec       q    Type
                         _______ _______ _______ _____ _____    ______ ____

>  <TORSDO>
F 4

$$$$
=
 OpenBabel11052414033D

 34 38  0  0  1  0  0  0  0  0999 V2000
  188.1200  177.7010  142.3050 C   0  0  0  0  0  0  0  0  0  0  0  0
  188.9980  177.5020  140.0000 C   0  0  0  0  0  0  0  0  0  0  0  0
  186.6480  178.1660  140.2040 C   0  0  1  0  0  3  0  0  0  0  0  0
  184.5410  179.5120  138.1320 C   0  0  0  0  0  2  0  0  0  0  0  0
  186.7920  177.4380  144.7680 Cl  0  0  0  0  0  0  0  0  0  0  0  0
  190.2130  177.0890  140.5430 O   0  0  0  0  0  1  0  0  0  0  0  0
  187.7400  178.0380  137.9750 C   0  0  0  0  0  3  0  0  0  0  0  0
  187.9460  177.7420  140.8020 C   0  0  0  0  0  0  0  0  0  0  0  0
  185.2300  178.1550  138.1020 C   0  0  2  0  0  3  0  0  0  0  0  0
  189.1690  179.0490  142.8310 Cl  0  0  0  0  0  0  0  0  0  0  0  0
  185.6200  178.5030  141.0260 C   0  0  0  0  0  0  0  0  0  0  0  0
  186.8190  177.7870  143.0510 C   0  0  0  0  0  0  0  0  0  0  0  0
  188.9010  177.7060  138.5380 C   0  0  0  0  0  0  0  0  0  0  0  0
  184.5540  180.1270  139.4650 N   0  0  0  0  0  2  0  0  0  0  0  0
  184.3460  179.1690  140.5620 C   0  0  1  0  0  3  0  0  0  0  0  0
  186.5450  178.2000  138.7580 N   0  0  0  0  0  0  0  0  0  0  0  0
  185.7020  178.2200  142.4690 C   0  0  0  0  0  3  0  0  0  0  0  0
  180.7380  177.9050  140.5980 C   0  0  0  0  0  0  0  0  0  0  0  0
  180.9130  176.5900  140.1570 C   0  0  0  0  0  3  0  0  0  0  0  0
  183.1320  178.2850  140.4160 C   0  0  0  0  0  0  0  0  0  0  0  0
  182.1910  176.1220  139.8440 C   0  0  0  0  0  3  0  0  0  0  0  0
  181.8440  178.7500  140.7270 C   0  0  0  0  0  3  0  0  0  0  0  0
  183.2980  176.9670  139.9750 C   0  0  0  0  0  3  0  0  0  0  0  0
  179.1400  178.4930  140.9960 Cl  0  0  0  0  0  0  0  0  0  0  0  0
  185.1190  176.2850  136.4440 C   0  0  0  0  0  3  0  0  0  0  0  0
  184.9420  175.2590  137.5170 C   0  0  0  0  0  1  0  0  0  0  0  0
  185.2460  177.5920  136.7060 C   0  0  0  0  0  3  0  0  0  0  0  0
  190.0920  177.4880  137.6640 C   0  0  0  0  0  2  0  0  0  0  0  0
  190.3140  173.8640  137.2350 N   0  0  0  0  0  0  0  0  0  0  0  0
  191.5620  174.1290  137.5920 N   0  0  0  0  0  2  0  0  0  0  0  0
  189.5950  175.0080  137.2210 C   0  0  0  0  0  3  0  0  0  0  0  0
  192.9150  176.1380  138.2200 C   0  0  0  0  0  1  0  0  0  0  0  0
  191.6590  175.4490  137.8140 C   0  0  0  0  0  0  0  0  0  0  0  0
  190.4340  176.0350  137.5980 C   0  0  0  0  0  0  0  0  0  0  0  0
  1 10  1  0  0  0  0
  1 12  2  0  0  0  0
  2  6  1  0  0  0  0
  2  8  2  0  0  0  0
  3  8  1  1  0  0  0
  3 11  1  0  0  0  0
  4 14  1  0  0  0  0
  7 13  2  0  0  0  0
  7 16  1  0  0  0  0
  8  1  1  0  0  0  0
  9 27  1  6  0  0  0
  9  4  1  0  0  0  0
  9 16  1  0  0  0  0
 11 17  2  0  0  0  0
 12  5  1  0  0  0  0
 13  2  1  0  0  0  0
 14 15  1  0  0  0  0
 15 20  1  6  0  0  0
 15 11  1  0  0  0  0
 16  3  1  0  0  0  0
 17 12  1  0  0  0  0
 18 22  1  0  0  0  0
 18 24  1  0  0  0  0
 19 18  2  0  0  0  0
 20 22  2  0  0  0  0
 21 23  2  0  0  0  0
 21 19  1  0  0  0  0
 23 20  1  0  0  0  0
 25 27  2  0  0  0  0
 25 26  1  0  0  0  0
 28 13  1  0  0  0  0
 29 30  1  0  0  0  0
 30 33  1  0  0  0  0
 31 29  2  0  0  0  0
 31 34  1  0  0  0  0
 33 32  1  0  0  0  0
 34 28  1  0  0  0  0
 34 33  2  0  0  0  0
M  END
>  <MODEL>
5

>  <REMARK>
 VINA RESULT:      -6.9      3.302      7.154
  Name = 
  4 active torsions:
  status: ('A' for Active; 'I' for Inactive)
    1  A    between atoms: C_12  and  C_28
    2  A    between atoms: C_18  and  C_29
    3  A    between atoms: C_20  and  C_25
    4  A    between atoms: C_20  and  C_34
                            x       y       z     vdW  Elec       q    Type
                         _______ _______ _______ _____ _____    ______ ____

>  <TORSDO>
F 4

$$$$
=
 OpenBabel11052414033D

 34 38  0  0  1  0  0  0  0  0999 V2000
  186.5860  178.5980  138.7600 C   0  0  1  0  0  3  0  0  0  0  0  0
  185.6820  179.0030  141.0270 C   0  0  0  0  0  0  0  0  0  0  0  0
  184.1780  177.8790  139.4530 C   0  0  0  0  0  0  0  0  0  0  0  0
  181.4440  176.1700  139.8410 C   0  0  0  0  0  2  0  0  0  0  0  0
  187.1960  178.5530  136.0160 Cl  0  0  0  0  0  0  0  0  0  0  0  0
  186.8790  179.6430  141.3440 O   0  0  0  0  0  1  0  0  0  0  0  0
  183.4920  178.2570  141.8110 C   0  0  0  0  0  3  0  0  0  0  0  0
  185.4700  178.5450  139.7810 C   0  0  0  0  0  0  0  0  0  0  0  0
  181.7420  177.6370  140.1140 C   0  0  2  0  0  3  0  0  0  0  0  0
  187.8970  177.4790  139.2350 Cl  0  0  0  0  0  0  0  0  0  0  0  0
  184.0100  177.3310  138.2220 C   0  0  0  0  0  0  0  0  0  0  0  0
  186.1310  178.2420  137.3720 C   0  0  0  0  0  0  0  0  0  0  0  0
  184.6740  178.8060  142.0910 C   0  0  0  0  0  0  0  0  0  0  0  0
  182.4210  175.5500  138.9380 N   0  0  0  0  0  2  0  0  0  0  0  0
  182.8580  176.4310  137.8430 C   0  0  1  0  0  3  0  0  0  0  0  0
  183.1510  177.8470  140.4760 N   0  0  0  0  0  0  0  0  0  0  0  0
  184.9840  177.6030  137.1510 C   0  0  0  0  0  3  0  0  0  0  0  0
  180.6220  178.9960  136.1000 C   0  0  0  0  0  0  0  0  0  0  0  0
  179.6280  178.1670  135.5720 C   0  0  0  0  0  3  0  0  0  0  0  0
  181.7420  177.0550  137.0420 C   0  0  0  0  0  0  0  0  0  0  0  0
  179.6880  176.7860  135.7770 C   0  0  0  0  0  3  0  0  0  0  0  0
  181.6760  178.4420  136.8310 C   0  0  0  0  0  3  0  0  0  0  0  0
  180.7410  176.2320  136.5110 C   0  0  0  0  0  3  0  0  0  0  0  0
  180.5480  180.7250  135.8500 Cl  0  0  0  0  0  0  0  0  0  0  0  0
  180.1650  179.4050  140.9200 C   0  0  0  0  0  3  0  0  0  0  0  0
  180.4330  180.2760  139.7350 C   0  0  0  0  0  1  0  0  0  0  0  0
  180.7520  178.2140  141.0910 C   0  0  0  0  0  3  0  0  0  0  0  0
  184.9430  179.2710  143.4840 C   0  0  0  0  0  2  0  0  0  0  0  0
  187.3870  176.8210  144.6620 N   0  0  0  0  0  0  0  0  0  0  0  0
  186.7980  177.1270  145.8090 N   0  0  0  0  0  2  0  0  0  0  0  0
  186.8120  177.5190  143.6580 C   0  0  0  0  0  3  0  0  0  0  0  0
  184.9570  178.6260  146.5960 C   0  0  0  0  0  1  0  0  0  0  0  0
  185.8340  178.0250  145.5540 C   0  0  0  0  0  0  0  0  0  0  0  0
  185.8080  178.2890  144.2050 C   0  0  0  0  0  0  0  0  0  0  0  0
  1 10  1  1  0  0  0
  1  8  1  0  0  0  0
  2  6  1  0  0  0  0
  2 13  1  0  0  0  0
  3  8  1  0  0  0  0
  3 16  1  0  0  0  0
  4  9  1  0  0  0  0
  5 12  1  0  0  0  0
  7 13  2  0  0  0  0
  8  2  2  0  0  0  0
  9 16  1  0  0  0  0
  9 27  1  1  0  0  0
 11  3  2  0  0  0  0
 12  1  1  0  0  0  0
 13 28  1  0  0  0  0
 14  4  1  0  0  0  0
 15 20  1  1  0  0  0
 15 11  1  0  0  0  0
 15 14  1  0  0  0  0
 16  7  1  0  0  0  0
 17 12  2  0  0  0  0
 17 11  1  0  0  0  0
 18 22  1  0  0  0  0
 19 21  1  0  0  0  0
 19 18  2  0  0  0  0
 21 23  2  0  0  0  0
 22 20  2  0  0  0  0
 23 20  1  0  0  0  0
 24 18  1  0  0  0  0
 25 27  2  0  0  0  0
 26 25  1  0  0  0  0
 28 34  1  0  0  0  0
 29 30  1  0  0  0  0
 31 34  1  0  0  0  0
 31 29  2  0  0  0  0
 33 30  1  0  0  0  0
 33 32  1  0  0  0  0
 34 33  2  0  0  0  0
M  END
>  <MODEL>
6

>  <REMARK>
 VINA RESULT:      -6.8      2.974      5.960
  Name = 
  4 active torsions:
  status: ('A' for Active; 'I' for Inactive)
    1  A    between atoms: C_12  and  C_28
    2  A    between atoms: C_18  and  C_29
    3  A    between atoms: C_20  and  C_25
    4  A    between atoms: C_20  and  C_34
                            x       y       z     vdW  Elec       q    Type
                         _______ _______ _______ _____ _____    ______ ____

>  <TORSDO>
F 4

$$$$
=
 OpenBabel11052414033D

 34 38  0  0  1  0  0  0  0  0999 V2000
  184.8420  179.1120  142.1350 C   0  0  0  0  0  0  0  0  0  0  0  0
  185.8100  178.9120  139.8670 C   0  0  0  0  0  0  0  0  0  0  0  0
  187.1240  177.9330  141.6890 C   0  0  2  0  0  3  0  0  0  0  0  0
  189.5820  175.8130  141.7550 C   0  0  0  0  0  2  0  0  0  0  0  0
  184.2120  179.7170  144.8060 Cl  0  0  0  0  0  0  0  0  0  0  0  0
  184.7220  179.6350  139.3840 O   0  0  0  0  0  1  0  0  0  0  0  0
  187.8740  177.7190  139.3300 C   0  0  0  0  0  3  0  0  0  0  0  0
  185.9450  178.6940  141.1870 C   0  0  0  0  0  0  0  0  0  0  0  0
  189.5030  177.2200  141.1810 C   0  0  2  0  0  3  0  0  0  0  0  0
  183.3850  178.1160  141.8470 Cl  0  0  0  0  0  0  0  0  0  0  0  0
  187.2010  177.6310  143.0120 C   0  0  0  0  0  0  0  0  0  0  0  0
  185.2290  178.9880  143.5810 C   0  0  0  0  0  0  0  0  0  0  0  0
  186.7870  178.3610  138.9020 C   0  0  0  0  0  0  0  0  0  0  0  0
  188.5190  175.5350  142.7280 N   0  0  0  0  0  2  0  0  0  0  0  0
  188.2070  176.6740  143.6060 C   0  0  1  0  0  3  0  0  0  0  0  0
  188.1420  177.5480  140.7320 N   0  0  0  0  0  0  0  0  0  0  0  0
  186.2690  178.2520  143.9690 C   0  0  0  0  0  3  0  0  0  0  0  0
  191.1920  177.1850  145.9390 C   0  0  0  0  0  0  0  0  0  0  0  0
  191.5810  178.4820  145.5930 C   0  0  0  0  0  3  0  0  0  0  0  0
  189.3970  177.2860  144.3050 C   0  0  0  0  0  0  0  0  0  0  0  0
  190.8830  179.1810  144.6060 C   0  0  0  0  0  3  0  0  0  0  0  0
  190.1040  176.5890  145.2970 C   0  0  0  0  0  3  0  0  0  0  0  0
  189.7930  178.5850  143.9640 C   0  0  0  0  0  3  0  0  0  0  0  0
  192.0610  176.3090  147.1790 Cl  0  0  0  0  0  0  0  0  0  0  0  0
  191.8740  177.5330  140.4460 C   0  0  0  0  0  3  0  0  0  0  0  0
  192.3900  177.4250  141.8450 C   0  0  0  0  0  1  0  0  0  0  0  0
  190.5730  177.4380  140.1450 C   0  0  0  0  0  3  0  0  0  0  0  0
  186.5980  178.5640  137.4350 C   0  0  0  0  0  2  0  0  0  0  0  0
  186.5380  175.3260  135.7390 N   0  0  0  0  0  0  0  0  0  0  0  0
  185.2550  175.4460  136.0490 N   0  0  0  0  0  0  0  0  0  0  0  0
  187.2110  176.4170  136.1660 C   0  0  0  0  0  2  0  0  0  0  0  0
  183.7820  177.1090  137.1980 C   0  0  0  0  0  1  0  0  0  0  0  0
  185.0880  176.6200  136.6780 C   0  0  0  0  0  0  0  0  0  0  0  0
  186.3000  177.2640  136.7610 C   0  0  0  0  0  0  0  0  0  0  0  0
  1 12  2  0  0  0  0
  2  8  2  0  0  0  0
  3  8  1  1  0  0  0
  3 11  1  0  0  0  0
  4 14  1  0  0  0  0
  6  2  1  0  0  0  0
  7 16  1  0  0  0  0
  8  1  1  0  0  0  0
  9 27  1  6  0  0  0
  9  4  1  0  0  0  0
 10  1  1  0  0  0  0
 11 15  1  0  0  0  0
 11 17  2  0  0  0  0
 12 17  1  0  0  0  0
 12  5  1  0  0  0  0
 13  7  2  0  0  0  0
 13  2  1  0  0  0  0
 14 15  1  0  0  0  0
 15 20  1  6  0  0  0
 16  9  1  0  0  0  0
 16  3  1  0  0  0  0
 18 24  1  0  0  0  0
 19 18  1  0  0  0  0
 20 22  1  0  0  0  0
 21 19  2  0  0  0  0
 22 18  2  0  0  0  0
 23 20  2  0  0  0  0
 23 21  1  0  0  0  0
 25 26  1  0  0  0  0
 27 25  2  0  0  0  0
 28 13  1  0  0  0  0
 29 30  2  0  0  0  0
 29 31  1  0  0  0  0
 30 33  1  0  0  0  0
 31 34  1  0  0  0  0
 33 34  2  0  0  0  0
 33 32  1  0  0  0  0
 34 28  1  0  0  0  0
M  END
>  <MODEL>
7

>  <REMARK>
 VINA RESULT:      -6.6      3.357      6.837
  Name = 
  4 active torsions:
  status: ('A' for Active; 'I' for Inactive)
    1  A    between atoms: C_12  and  C_28
    2  A    between atoms: C_18  and  C_29
    3  A    between atoms: C_20  and  C_25
    4  A    between atoms: C_20  and  C_34
                            x       y       z     vdW  Elec       q    Type
                         _______ _______ _______ _____ _____    ______ ____

>  <TORSDO>
F 4

$$$$
=
 OpenBabel11052414033D

 34 38  0  0  1  0  0  0  0  0999 V2000
  183.2990  178.4880  143.7000 C   0  0  0  0  0  0  0  0  0  0  0  0
  185.6830  178.2520  143.0820 C   0  0  0  0  0  0  0  0  0  0  0  0
  184.1340  178.7170  141.2410 C   0  0  2  0  0  3  0  0  0  0  0  0
  184.5630  179.7680  138.1990 C   0  0  0  0  0  2  0  0  0  0  0  0
  180.5280  178.2330  144.0950 Cl  0  0  0  0  0  0  0  0  0  0  0  0
  185.9590  177.9740  144.4190 O   0  0  0  0  0  1  0  0  0  0  0  0
  186.5800  178.5740  140.8320 C   0  0  0  0  0  3  0  0  0  0  0  0
  184.4140  178.4380  142.6790 C   0  0  0  0  0  0  0  0  0  0  0  0
  185.0060  178.4780  138.8730 C   0  0  2  0  0  3  0  0  0  0  0  0
  183.4730  179.9470  144.7180 Cl  0  0  0  0  0  0  0  0  0  0  0  0
  182.8620  179.0030  140.8590 C   0  0  0  0  0  0  0  0  0  0  0  0
  181.9310  178.4970  143.0790 C   0  0  0  0  0  0  0  0  0  0  0  0
  186.8090  178.3730  142.1300 C   0  0  0  0  0  0  0  0  0  0  0  0
  183.4840  180.4490  138.9260 N   0  0  0  0  0  2  0  0  0  0  0  0
  182.4830  179.5310  139.4960 C   0  0  1  0  0  3  0  0  0  0  0  0
  185.2440  178.6690  140.3100 N   0  0  0  0  0  0  0  0  0  0  0  0
  181.7430  178.8010  141.7970 C   0  0  0  0  0  3  0  0  0  0  0  0
  181.1830  176.2910  137.9400 C   0  0  0  0  0  0  0  0  0  0  0  0
  180.8400  176.7300  136.6590 C   0  0  0  0  0  3  0  0  0  0  0  0
  181.9000  178.5390  138.5210 C   0  0  0  0  0  0  0  0  0  0  0  0
  181.0240  178.0690  136.3060 C   0  0  0  0  0  3  0  0  0  0  0  0
  181.7100  177.1920  138.8680 C   0  0  0  0  0  3  0  0  0  0  0  0
  181.5540  178.9710  137.2340 C   0  0  0  0  0  3  0  0  0  0  0  0
  180.9580  174.6140  138.3840 Cl  0  0  0  0  0  0  0  0  0  0  0  0
  185.9840  176.9360  137.1620 C   0  0  0  0  0  3  0  0  0  0  0  0
  184.6350  176.4580  136.7280 C   0  0  0  0  0  1  0  0  0  0  0  0
  186.1520  177.8480  138.1270 C   0  0  0  0  0  3  0  0  0  0  0  0
  188.2170  178.2160  142.6000 C   0  0  0  0  0  2  0  0  0  0  0  0
  190.1070  177.2950  139.6100 N   0  0  0  0  0  0  0  0  0  0  0  0
  190.5550  176.3780  140.4560 N   0  0  0  0  0  2  0  0  0  0  0  0
  189.1980  178.0780  140.2310 C   0  0  0  0  0  3  0  0  0  0  0  0
  190.1850  175.7330  142.8440 C   0  0  0  0  0  1  0  0  0  0  0  0
  189.9360  176.5610  141.6320 C   0  0  0  0  0  0  0  0  0  0  0  0
  189.0650  177.6190  141.5250 C   0  0  0  0  0  0  0  0  0  0  0  0
  1 10  1  0  0  0  0
  2  6  1  0  0  0  0
  3 11  1  6  0  0  0
  3  8  1  0  0  0  0
  4  9  1  0  0  0  0
  4 14  1  0  0  0  0
  7 13  2  0  0  0  0
  8  2  2  0  0  0  0
  8  1  1  0  0  0  0
  9 27  1  6  0  0  0
  9 16  1  0  0  0  0
 11 17  2  0  0  0  0
 12  1  2  0  0  0  0
 12  5  1  0  0  0  0
 13 28  1  0  0  0  0
 13  2  1  0  0  0  0
 14 15  1  0  0  0  0
 15 20  1  6  0  0  0
 15 11  1  0  0  0  0
 16  7  1  0  0  0  0
 16  3  1  0  0  0  0
 17 12  1  0  0  0  0
 18 24  1  0  0  0  0
 18 22  1  0  0  0  0
 19 18  2  0  0  0  0
 20 22  2  0  0  0  0
 21 19  1  0  0  0  0
 21 23  2  0  0  0  0
 23 20  1  0  0  0  0
 25 27  2  0  0  0  0
 26 25  1  0  0  0  0
 29 31  2  0  0  0  0
 29 30  1  0  0  0  0
 30 33  1  0  0  0  0
 31 34  1  0  0  0  0
 33 32  1  0  0  0  0
 34 33  2  0  0  0  0
 34 28  1  0  0  0  0
M  END
>  <MODEL>
8

>  <REMARK>
 VINA RESULT:      -6.6      3.013      5.732
  Name = 
  4 active torsions:
  status: ('A' for Active; 'I' for Inactive)
    1  A    between atoms: C_12  and  C_28
    2  A    between atoms: C_18  and  C_29
    3  A    between atoms: C_20  and  C_25
    4  A    between atoms: C_20  and  C_34
                            x       y       z     vdW  Elec       q    Type
                         _______ _______ _______ _____ _____    ______ ____

>  <TORSDO>
F 4

$$$$
=
 OpenBabel11052414033D

 34 38  0  0  1  0  0  0  0  0999 V2000
  185.5150  178.2730  142.2150 C   0  0  0  0  0  0  0  0  0  0  0  0
  187.7990  178.0680  143.1460 C   0  0  0  0  0  0  0  0  0  0  0  0
  187.6320  178.1100  140.7020 C   0  0  1  0  0  3  0  0  0  0  0  0
  189.8050  178.6280  138.3440 C   0  0  0  0  0  2  0  0  0  0  0  0
  183.0200  177.9350  140.9680 Cl  0  0  0  0  0  0  0  0  0  0  0  0
  187.2320  178.0480  144.4190 O   0  0  0  0  0  1  0  0  0  0  0  0
  189.8500  178.0370  141.8200 C   0  0  0  0  0  3  0  0  0  0  0  0
  187.0110  178.1080  142.0570 C   0  0  0  0  0  0  0  0  0  0  0  0
  189.7000  177.5050  139.3660 C   0  0  2  0  0  3  0  0  0  0  0  0
  185.1500  179.8980  142.8660 Cl  0  0  0  0  0  0  0  0  0  0  0  0
  186.8360  178.2510  139.6100 C   0  0  0  0  0  0  0  0  0  0  0  0
  184.7630  178.0940  140.9260 C   0  0  0  0  0  0  0  0  0  0  0  0
  189.2720  178.0830  143.0200 C   0  0  0  0  0  0  0  0  0  0  0  0
  188.5450  179.3640  138.1770 N   0  0  0  0  0  2  0  0  0  0  0  0
  187.3490  178.5060  138.2120 C   0  0  1  0  0  3  0  0  0  0  0  0
  189.0720  177.9620  140.6140 N   0  0  0  0  0  0  0  0  0  0  0  0
  185.3720  178.1550  139.7430 C   0  0  0  0  0  3  0  0  0  0  0  0
  187.0330  174.9660  136.8040 C   0  0  0  0  0  0  0  0  0  0  0  0
  187.4950  175.1570  135.4990 C   0  0  0  0  0  3  0  0  0  0  0  0
  187.3830  177.3250  137.2750 C   0  0  0  0  0  0  0  0  0  0  0  0
  187.9000  176.4270  135.0800 C   0  0  0  0  0  3  0  0  0  0  0  0
  186.9760  176.0460  137.6890 C   0  0  0  0  0  3  0  0  0  0  0  0
  187.8450  177.5080  135.9650 C   0  0  0  0  0  3  0  0  0  0  0  0
  186.5310  173.3770  137.3350 Cl  0  0  0  0  0  0  0  0  0  0  0  0
  191.4840  175.8740  138.7170 C   0  0  0  0  0  3  0  0  0  0  0  0
  190.7160  175.4110  137.5210 C   0  0  0  0  0  1  0  0  0  0  0  0
  191.0280  176.8200  139.5480 C   0  0  0  0  0  3  0  0  0  0  0  0
  190.1350  178.0930  144.2380 C   0  0  0  0  0  2  0  0  0  0  0  0
  191.9840  174.9620  143.8630 N   0  0  0  0  0  0  0  0  0  0  0  0
  192.0560  175.1140  145.1780 N   0  0  0  0  0  2  0  0  0  0  0  0
  191.2800  175.9820  143.3270 C   0  0  0  0  0  3  0  0  0  0  0  0
  191.2640  176.7560  146.8910 C   0  0  0  0  0  1  0  0  0  0  0  0
  191.3940  176.2360  145.5030 C   0  0  0  0  0  0  0  0  0  0  0  0
  190.8830  176.8050  144.3600 C   0  0  0  0  0  0  0  0  0  0  0  0
  1 10  1  0  0  0  0
  2  6  1  0  0  0  0
  3 11  1  1  0  0  0
  3  8  1  0  0  0  0
  4  9  1  0  0  0  0
  7 13  2  0  0  0  0
  8  1  1  0  0  0  0
  8  2  2  0  0  0  0
  9 27  1  1  0  0  0
  9 16  1  0  0  0  0
 11 17  2  0  0  0  0
 12  5  1  0  0  0  0
 12  1  2  0  0  0  0
 13  2  1  0  0  0  0
 13 28  1  0  0  0  0
 14 15  1  0  0  0  0
 14  4  1  0  0  0  0
 15 20  1  1  0  0  0
 15 11  1  0  0  0  0
 16  3  1  0  0  0  0
 16  7  1  0  0  0  0
 17 12  1  0  0  0  0
 18 24  1  0  0  0  0
 18 22  1  0  0  0  0
 19 18  2  0  0  0  0
 20 22  2  0  0  0  0
 21 19  1  0  0  0  0
 21 23  2  0  0  0  0
 23 20  1  0  0  0  0
 25 27  2  0  0  0  0
 26 25  1  0  0  0  0
 28 34  1  0  0  0  0
 29 30  1  0  0  0  0
 30 33  1  0  0  0  0
 31 29  2  0  0  0  0
 31 34  1  0  0  0  0
 33 32  1  0  0  0  0
 34 33  2  0  0  0  0
M  END
>  <MODEL>
9

>  <REMARK>
 VINA RESULT:      -6.5      2.767      3.763
  Name = 
  4 active torsions:
  status: ('A' for Active; 'I' for Inactive)
    1  A    between atoms: C_12  and  C_28
    2  A    between atoms: C_18  and  C_29
    3  A    between atoms: C_20  and  C_25
    4  A    between atoms: C_20  and  C_34
                            x       y       z     vdW  Elec       q    Type
                         _______ _______ _______ _____ _____    ______ ____

>  <TORSDO>
F 4

$$$$
