=
 OpenBabel11052412453D

 25 28  0  0  1  0  0  0  0  0999 V2000
  187.0490  177.8880  145.1630 C   0  0  0  0  0  0  0  0  0  0  0  0
  188.3890  177.6160  144.5410 C   0  0  0  0  0  0  0  0  0  0  0  0
  187.9600  177.6130  147.4360 N   0  0  0  0  0  0  0  0  0  0  0  0
  185.8780  178.2740  144.5000 C   0  0  0  0  0  0  0  0  0  0  0  0
  183.3910  179.0840  143.5270 C   0  0  0  0  0  3  0  0  0  0  0  0
  189.1220  177.3200  146.9950 N   0  0  0  0  0  0  0  0  0  0  0  0
  184.8220  178.5320  145.3700 C   0  0  0  0  0  0  0  0  0  0  0  0
  183.5710  178.9360  144.9100 C   0  0  0  0  0  3  0  0  0  0  0  0
  190.6390  176.8280  145.1780 C   0  0  2  0  0  3  0  0  0  0  0  0
  191.9170  176.5030  146.3390 Cl  0  0  0  0  0  0  0  0  0  0  0  0
  188.2950  176.2750  143.3170 S   0  0  0  0  0  0  0  0  0  0  0  0
  184.4530  178.8330  142.6380 C   0  0  0  0  0  3  0  0  0  0  0  0
  186.8860  177.8820  146.5360 C   0  0  0  0  0  0  0  0  0  0  0  0
  185.3130  178.3170  146.9670 S   0  0  0  0  0  0  0  0  0  0  0  0
  190.9360  176.6820  143.7790 N   0  0  0  0  0  0  0  0  0  0  0  0
  185.7080  178.4290  143.1210 C   0  0  0  0  0  3  0  0  0  0  0  0
  190.0240  176.5080  142.8670 C   0  0  0  0  0  0  0  0  0  0  0  0
  189.4260  177.2370  145.5860 C   0  0  0  0  0  0  0  0  0  0  0  0
  190.4040  176.5590  141.4270 C   0  0  0  0  0  2  0  0  0  0  0  0
  189.5030  177.4440  140.7030 N   0  0  0  0  0  2  0  0  0  0  0  0
  189.5910  177.6560  139.2900 C   0  0  0  0  0  0  0  0  0  0  0  0
  190.5300  177.1360  138.6280 O   0  0  0  0  0  0  0  0  0  0  0  0
  188.5890  178.4900  138.6150 C   0  0  0  0  0  0  0  0  0  0  0  0
  188.9820  179.3850  137.5810 N   0  0  0  0  0  2  0  0  0  0  0  0
  187.3450  178.4230  138.9590 N   0  0  0  0  0  1  0  0  0  0  0  0
  1 13  1  0  0  0  0
  2  1  2  0  0  0  0
  2 18  1  0  0  0  0
  4  1  1  0  0  0  0
  4  7  1  0  0  0  0
  5  8  1  0  0  0  0
  6  3  1  0  0  0  0
  7 14  1  0  0  0  0
  8  7  2  0  0  0  0
  9 18  1  0  0  0  0
  9 10  1  6  0  0  0
 11  2  1  0  0  0  0
 12 16  1  0  0  0  0
 12  5  2  0  0  0  0
 13 14  1  0  0  0  0
 13  3  2  0  0  0  0
 15  9  1  0  0  0  0
 16  4  2  0  0  0  0
 17 11  1  0  0  0  0
 17 15  2  0  0  0  0
 18  6  2  0  0  0  0
 19 17  1  0  0  0  0
 20 19  1  0  0  0  0
 21 20  1  0  0  0  0
 22 21  2  0  0  0  0
 23 25  1  0  0  0  0
 23 21  1  0  0  0  0
 24 23  2  0  0  0  0
M  END
>  <MODEL>
1

>  <REMARK>
 VINA RESULT:     -10.1      0.000      0.000
  Name = 
  3 active torsions:
  status: ('A' for Active; 'I' for Inactive)
    1  A    between atoms: C_2  and  C_21
    2  A    between atoms: C_6  and  N_15
    3  A    between atoms: C_6  and  C_23
                            x       y       z     vdW  Elec       q    Type
                         _______ _______ _______ _____ _____    ______ ____

>  <TORSDO>
F 3

$$$$
=
 OpenBabel11052412453D

 25 28  0  0  1  0  0  0  0  0999 V2000
  186.8460  178.1690  142.8310 C   0  0  0  0  0  0  0  0  0  0  0  0
  188.1500  177.5610  142.4010 C   0  0  0  0  0  0  0  0  0  0  0  0
  186.2870  178.8050  140.5170 N   0  0  0  0  0  0  0  0  0  0  0  0
  186.2900  178.1420  144.1160 C   0  0  0  0  0  0  0  0  0  0  0  0
  184.8740  178.2520  146.5190 C   0  0  0  0  0  3  0  0  0  0  0  0
  187.3970  178.3600  140.0680 N   0  0  0  0  0  0  0  0  0  0  0  0
  185.0260  178.7240  144.1730 C   0  0  0  0  0  0  0  0  0  0  0  0
  184.2990  178.7920  145.3580 C   0  0  0  0  0  3  0  0  0  0  0  0
  189.5970  177.4190  140.4070 C   0  0  2  0  0  3  0  0  0  0  0  0
  189.9060  177.5280  138.6820 Cl  0  0  0  0  0  0  0  0  0  0  0  0
  189.5480  178.2540  143.3340 S   0  0  0  0  0  0  0  0  0  0  0  0
  186.1480  177.6560  146.4720 C   0  0  0  0  0  3  0  0  0  0  0  0
  185.9890  178.7440  141.9110 C   0  0  0  0  0  0  0  0  0  0  0  0
  184.5570  179.2560  142.6440 S   0  0  0  0  0  0  0  0  0  0  0  0
  190.6370  176.8980  141.2540 N   0  0  0  0  0  0  0  0  0  0  0  0
  186.8640  177.5940  145.2660 C   0  0  0  0  0  3  0  0  0  0  0  0
  190.6980  177.1210  142.5350 C   0  0  0  0  0  0  0  0  0  0  0  0
  188.4090  177.7800  140.9190 C   0  0  0  0  0  0  0  0  0  0  0  0
  191.6950  176.3870  143.3630 C   0  0  0  0  0  2  0  0  0  0  0  0
  191.5060  176.7030  144.7720 N   0  0  0  0  0  2  0  0  0  0  0  0
  191.9440  175.8410  145.8260 C   0  0  0  0  0  0  0  0  0  0  0  0
  192.4430  174.7140  145.5590 O   0  0  0  0  0  0  0  0  0  0  0  0
  191.8030  176.2710  147.2240 C   0  0  0  0  0  0  0  0  0  0  0  0
  190.6630  177.0190  147.6300 N   0  0  0  0  0  2  0  0  0  0  0  0
  192.7150  175.9800  148.0910 N   0  0  0  0  0  1  0  0  0  0  0  0
  1  4  1  0  0  0  0
  2  1  1  0  0  0  0
  2 11  1  0  0  0  0
  3 13  1  0  0  0  0
  4  7  2  0  0  0  0
  4 16  1  0  0  0  0
  6  3  2  0  0  0  0
  6 18  1  0  0  0  0
  7  8  1  0  0  0  0
  8  5  2  0  0  0  0
  9 10  1  6  0  0  0
  9 18  1  0  0  0  0
  9 15  1  0  0  0  0
 12  5  1  0  0  0  0
 13 14  1  0  0  0  0
 13  1  2  0  0  0  0
 14  7  1  0  0  0  0
 15 17  2  0  0  0  0
 16 12  2  0  0  0  0
 17 11  1  0  0  0  0
 17 19  1  0  0  0  0
 18  2  2  0  0  0  0
 19 20  1  0  0  0  0
 20 21  1  0  0  0  0
 21 23  1  0  0  0  0
 22 21  2  0  0  0  0
 23 24  2  0  0  0  0
 23 25  1  0  0  0  0
M  END
>  <MODEL>
2

>  <REMARK>
 VINA RESULT:      -9.4      2.855      5.564
  Name = 
  3 active torsions:
  status: ('A' for Active; 'I' for Inactive)
    1  A    between atoms: C_2  and  C_21
    2  A    between atoms: C_6  and  N_15
    3  A    between atoms: C_6  and  C_23
                            x       y       z     vdW  Elec       q    Type
                         _______ _______ _______ _____ _____    ______ ____

>  <TORSDO>
F 3

$$$$
=
 OpenBabel11052412453D

 25 28  0  0  1  0  0  0  0  0999 V2000
  185.7440  178.2420  144.4480 C   0  0  0  0  0  0  0  0  0  0  0  0
  184.9780  178.2080  143.1570 C   0  0  0  0  0  0  0  0  0  0  0  0
  183.7430  178.9360  145.7070 N   0  0  0  0  0  0  0  0  0  0  0  0
  187.0720  177.8470  144.6480 C   0  0  0  0  0  0  0  0  0  0  0  0
  189.6530  177.1190  145.4210 C   0  0  0  0  0  3  0  0  0  0  0  0
  183.0260  178.9850  144.6500 N   0  0  0  0  0  0  0  0  0  0  0  0
  187.4650  177.9210  145.9820 C   0  0  0  0  0  0  0  0  0  0  0  0
  188.7460  177.5650  146.3940 C   0  0  0  0  0  3  0  0  0  0  0  0
  182.7790  178.8630  142.2490 C   0  0  2  0  0  3  0  0  0  0  0  0
  181.0860  179.3050  142.4050 Cl  0  0  0  0  0  0  0  0  0  0  0  0
  185.7790  179.2270  141.8810 S   0  0  0  0  0  0  0  0  0  0  0  0
  189.2650  177.0330  144.0700 C   0  0  0  0  0  3  0  0  0  0  0  0
  185.1240  178.5880  145.6350 C   0  0  0  0  0  0  0  0  0  0  0  0
  186.1830  178.4470  146.9420 S   0  0  0  0  0  0  0  0  0  0  0  0
  183.3080  178.6430  140.9300 N   0  0  0  0  0  0  0  0  0  0  0  0
  187.9670  177.3940  143.6760 C   0  0  0  0  0  3  0  0  0  0  0  0
  184.5770  178.7020  140.6470 C   0  0  0  0  0  0  0  0  0  0  0  0
  183.5520  178.7010  143.3360 C   0  0  0  0  0  0  0  0  0  0  0  0
  185.0500  178.2730  139.3010 C   0  0  0  0  0  2  0  0  0  0  0  0
  186.4560  178.6160  139.1320 N   0  0  0  0  0  2  0  0  0  0  0  0
  187.3130  177.9450  138.2040 C   0  0  0  0  0  0  0  0  0  0  0  0
  186.8870  176.9540  137.5490 O   0  0  0  0  0  0  0  0  0  0  0  0
  188.6940  178.4090  138.0210 C   0  0  0  0  0  0  0  0  0  0  0  0
  189.7800  177.6400  138.5280 N   0  0  0  0  0  1  0  0  0  0  0  0
  188.9330  179.5200  137.4070 N   0  0  0  0  0  2  0  0  0  0  0  0
  1  4  1  0  0  0  0
  1 13  2  0  0  0  0
  2 18  2  0  0  0  0
  2  1  1  0  0  0  0
  4  7  1  0  0  0  0
  5  8  1  0  0  0  0
  6  3  2  0  0  0  0
  7  8  2  0  0  0  0
  7 14  1  0  0  0  0
  9 10  1  1  0  0  0
  9 18  1  0  0  0  0
 11  2  1  0  0  0  0
 12  5  2  0  0  0  0
 13  3  1  0  0  0  0
 13 14  1  0  0  0  0
 15  9  1  0  0  0  0
 16 12  1  0  0  0  0
 16  4  2  0  0  0  0
 17 15  2  0  0  0  0
 17 11  1  0  0  0  0
 18  6  1  0  0  0  0
 19 17  1  0  0  0  0
 20 19  1  0  0  0  0
 21 20  1  0  0  0  0
 22 21  2  0  0  0  0
 23 21  1  0  0  0  0
 23 24  1  0  0  0  0
 25 23  2  0  0  0  0
M  END
>  <MODEL>
3

>  <REMARK>
 VINA RESULT:      -9.4      3.382      5.200
  Name = 
  3 active torsions:
  status: ('A' for Active; 'I' for Inactive)
    1  A    between atoms: C_2  and  C_21
    2  A    between atoms: C_6  and  N_15
    3  A    between atoms: C_6  and  C_23
                            x       y       z     vdW  Elec       q    Type
                         _______ _______ _______ _____ _____    ______ ____

>  <TORSDO>
F 3

$$$$
=
 OpenBabel11052412453D

 25 28  0  0  1  0  0  0  0  0999 V2000
  189.5370  177.4900  144.4680 C   0  0  0  0  0  0  0  0  0  0  0  0
  188.9050  177.9870  143.2000 C   0  0  0  0  0  0  0  0  0  0  0  0
  191.5540  176.7460  143.2650 N   0  0  0  0  0  0  0  0  0  0  0  0
  189.0360  177.6310  145.7680 C   0  0  0  0  0  0  0  0  0  0  0  0
  188.3700  177.7600  148.4760 C   0  0  0  0  0  3  0  0  0  0  0  0
  191.0740  177.0920  142.1330 N   0  0  0  0  0  0  0  0  0  0  0  0
  189.9010  177.1340  146.7400 C   0  0  0  0  0  0  0  0  0  0  0  0
  189.5930  177.1850  148.0970 C   0  0  0  0  0  3  0  0  0  0  0  0
  189.2630  177.9130  140.7600 C   0  0  2  0  0  3  0  0  0  0  0  0
  190.2480  177.6770  139.3250 Cl  0  0  0  0  0  0  0  0  0  0  0  0
  187.2530  177.2680  142.9530 S   0  0  0  0  0  0  0  0  0  0  0  0
  187.4910  178.2720  147.5030 C   0  0  0  0  0  3  0  0  0  0  0  0
  190.7930  176.9110  144.4600 C   0  0  0  0  0  0  0  0  0  0  0  0
  191.3050  176.5370  146.0240 S   0  0  0  0  0  0  0  0  0  0  0  0
  187.9270  178.4210  140.5940 N   0  0  0  0  0  0  0  0  0  0  0  0
  187.8210  178.2130  146.1400 C   0  0  0  0  0  3  0  0  0  0  0  0
  186.9890  178.2750  141.4830 C   0  0  0  0  0  0  0  0  0  0  0  0
  189.7560  177.6590  141.9840 C   0  0  0  0  0  0  0  0  0  0  0  0
  185.6960  178.9960  141.3140 C   0  0  0  0  0  2  0  0  0  0  0  0
  185.0260  179.1300  142.5990 N   0  0  0  0  0  2  0  0  0  0  0  0
  183.6770  178.7060  142.8200 C   0  0  0  0  0  0  0  0  0  0  0  0
  182.9840  178.2710  141.8610 O   0  0  0  0  0  0  0  0  0  0  0  0
  183.1000  178.7870  144.1680 C   0  0  0  0  0  0  0  0  0  0  0  0
  183.9410  179.0100  145.2940 N   0  0  0  0  0  1  0  0  0  0  0  0
  181.8270  178.6480  144.3420 N   0  0  0  0  0  2  0  0  0  0  0  0
  1  4  1  0  0  0  0
  2  1  1  0  0  0  0
  3 13  1  0  0  0  0
  4 16  2  0  0  0  0
  4  7  1  0  0  0  0
  6  3  2  0  0  0  0
  7  8  2  0  0  0  0
  8  5  1  0  0  0  0
  9 10  1  1  0  0  0
  9 18  1  0  0  0  0
 11  2  1  0  0  0  0
 12  5  2  0  0  0  0
 13  1  2  0  0  0  0
 13 14  1  0  0  0  0
 14  7  1  0  0  0  0
 15  9  1  0  0  0  0
 15 17  2  0  0  0  0
 16 12  1  0  0  0  0
 17 11  1  0  0  0  0
 18  6  1  0  0  0  0
 18  2  2  0  0  0  0
 19 17  1  0  0  0  0
 19 20  1  0  0  0  0
 20 21  1  0  0  0  0
 21 23  1  0  0  0  0
 22 21  2  0  0  0  0
 23 25  2  0  0  0  0
 23 24  1  0  0  0  0
M  END
>  <MODEL>
4

>  <REMARK>
 VINA RESULT:      -9.0      3.295      5.735
  Name = 
  3 active torsions:
  status: ('A' for Active; 'I' for Inactive)
    1  A    between atoms: C_2  and  C_21
    2  A    between atoms: C_6  and  N_15
    3  A    between atoms: C_6  and  C_23
                            x       y       z     vdW  Elec       q    Type
                         _______ _______ _______ _____ _____    ______ ____

>  <TORSDO>
F 3

$$$$
=
 OpenBabel11052412453D

 25 28  0  0  1  0  0  0  0  0999 V2000
  187.3280  177.6800  144.0440 C   0  0  0  0  0  0  0  0  0  0  0  0
  186.2040  177.8470  143.0630 C   0  0  0  0  0  0  0  0  0  0  0  0
  185.8720  178.2920  145.9350 N   0  0  0  0  0  0  0  0  0  0  0  0
  188.6160  177.2040  143.7730 C   0  0  0  0  0  0  0  0  0  0  0  0
  191.2410  176.2700  143.6120 C   0  0  0  0  0  3  0  0  0  0  0  0
  184.8730  178.5080  145.1690 N   0  0  0  0  0  0  0  0  0  0  0  0
  189.4030  177.0880  144.9160 C   0  0  0  0  0  0  0  0  0  0  0  0
  190.7160  176.6250  144.8630 C   0  0  0  0  0  3  0  0  0  0  0  0
  183.8940  178.7100  142.9690 C   0  0  2  0  0  3  0  0  0  0  0  0
  182.3720  179.2010  143.6950 Cl  0  0  0  0  0  0  0  0  0  0  0  0
  186.6560  178.9870  141.7200 S   0  0  0  0  0  0  0  0  0  0  0  0
  190.4530  176.3770  142.4500 C   0  0  0  0  0  3  0  0  0  0  0  0
  187.1310  177.8960  145.3960 C   0  0  0  0  0  0  0  0  0  0  0  0
  188.5240  177.5400  146.2810 S   0  0  0  0  0  0  0  0  0  0  0  0
  183.9730  178.6400  141.5340 N   0  0  0  0  0  0  0  0  0  0  0  0
  189.1310  176.8430  142.5250 C   0  0  0  0  0  3  0  0  0  0  0  0
  185.0950  178.6790  140.8760 C   0  0  0  0  0  0  0  0  0  0  0  0
  184.9460  178.3740  143.7340 C   0  0  0  0  0  0  0  0  0  0  0  0
  185.0970  178.4080  139.4110 C   0  0  0  0  0  2  0  0  0  0  0  0
  186.4250  178.6420  138.8600 N   0  0  0  0  0  2  0  0  0  0  0  0
  186.9230  177.9490  137.7120 C   0  0  0  0  0  0  0  0  0  0  0  0
  186.2420  177.0310  137.1810 O   0  0  0  0  0  0  0  0  0  0  0  0
  188.2360  178.3070  137.1580 C   0  0  0  0  0  0  0  0  0  0  0  0
  188.9310  177.3910  136.3190 N   0  0  0  0  0  2  0  0  0  0  0  0
  188.7720  179.4490  137.4360 N   0  0  0  0  0  1  0  0  0  0  0  0
  1 13  2  0  0  0  0
  2 18  2  0  0  0  0
  2  1  1  0  0  0  0
  4  1  1  0  0  0  0
  4  7  1  0  0  0  0
  5  8  1  0  0  0  0
  6  3  2  0  0  0  0
  7 14  1  0  0  0  0
  8  7  2  0  0  0  0
  9 10  1  1  0  0  0
  9 18  1  0  0  0  0
 11  2  1  0  0  0  0
 12 16  1  0  0  0  0
 12  5  2  0  0  0  0
 13  3  1  0  0  0  0
 13 14  1  0  0  0  0
 15  9  1  0  0  0  0
 16  4  2  0  0  0  0
 17 15  2  0  0  0  0
 17 11  1  0  0  0  0
 18  6  1  0  0  0  0
 19 17  1  0  0  0  0
 20 19  1  0  0  0  0
 21 20  1  0  0  0  0
 22 21  2  0  0  0  0
 23 25  1  0  0  0  0
 23 21  1  0  0  0  0
 24 23  2  0  0  0  0
M  END
>  <MODEL>
5

>  <REMARK>
 VINA RESULT:      -8.6      3.088      5.085
  Name = 
  3 active torsions:
  status: ('A' for Active; 'I' for Inactive)
    1  A    between atoms: C_2  and  C_21
    2  A    between atoms: C_6  and  N_15
    3  A    between atoms: C_6  and  C_23
                            x       y       z     vdW  Elec       q    Type
                         _______ _______ _______ _____ _____    ______ ____

>  <TORSDO>
F 3

$$$$
=
 OpenBabel11052412453D

 25 28  0  0  1  0  0  0  0  0999 V2000
  189.5500  177.4590  144.9520 C   0  0  0  0  0  0  0  0  0  0  0  0
  189.4250  177.8260  143.5010 C   0  0  0  0  0  0  0  0  0  0  0  0
  191.8630  176.6720  144.6350 N   0  0  0  0  0  0  0  0  0  0  0  0
  188.6120  177.6980  145.9630 C   0  0  0  0  0  0  0  0  0  0  0  0
  187.0070  178.0420  148.2210 C   0  0  0  0  0  3  0  0  0  0  0  0
  191.8290  176.9050  143.3790 N   0  0  0  0  0  0  0  0  0  0  0  0
  189.0610  177.3120  147.2230 C   0  0  0  0  0  0  0  0  0  0  0  0
  188.2810  177.4720  148.3650 C   0  0  0  0  0  3  0  0  0  0  0  0
  190.6450  177.5520  141.3740 C   0  0  2  0  0  3  0  0  0  0  0  0
  192.0840  177.2210  140.4220 Cl  0  0  0  0  0  0  0  0  0  0  0  0
  187.9720  177.0420  142.7380 S   0  0  0  0  0  0  0  0  0  0  0  0
  186.5440  178.4420  146.9530 C   0  0  0  0  0  3  0  0  0  0  0  0
  190.7200  176.9190  145.4520 C   0  0  0  0  0  0  0  0  0  0  0  0
  190.6270  176.6960  147.1220 S   0  0  0  0  0  0  0  0  0  0  0  0
  189.4640  178.0050  140.6900 N   0  0  0  0  0  0  0  0  0  0  0  0
  187.3470  178.2750  145.8140 C   0  0  0  0  0  3  0  0  0  0  0  0
  188.2650  177.9090  141.1870 C   0  0  0  0  0  0  0  0  0  0  0  0
  190.6580  177.4200  142.7110 C   0  0  0  0  0  0  0  0  0  0  0  0
  187.1260  178.5760  140.4960 C   0  0  0  0  0  2  0  0  0  0  0  0
  185.9030  178.4050  141.2680 N   0  0  0  0  0  2  0  0  0  0  0  0
  184.6530  178.9810  140.8790 C   0  0  0  0  0  0  0  0  0  0  0  0
  184.5900  179.7440  139.8770 O   0  0  0  0  0  0  0  0  0  0  0  0
  183.4420  178.6870  141.6570 C   0  0  0  0  0  0  0  0  0  0  0  0
  183.4540  178.8150  143.0750 N   0  0  0  0  0  1  0  0  0  0  0  0
  182.3620  178.3040  141.0620 N   0  0  0  0  0  2  0  0  0  0  0  0
  1 13  2  0  0  0  0
  1  4  1  0  0  0  0
  2  1  1  0  0  0  0
  3 13  1  0  0  0  0
  4  7  1  0  0  0  0
  5  8  1  0  0  0  0
  6  3  2  0  0  0  0
  7  8  2  0  0  0  0
  9 10  1  1  0  0  0
  9 18  1  0  0  0  0
 11  2  1  0  0  0  0
 12  5  2  0  0  0  0
 13 14  1  0  0  0  0
 14  7  1  0  0  0  0
 15 17  2  0  0  0  0
 15  9  1  0  0  0  0
 16  4  2  0  0  0  0
 16 12  1  0  0  0  0
 17 11  1  0  0  0  0
 18  6  1  0  0  0  0
 18  2  2  0  0  0  0
 19 17  1  0  0  0  0
 19 20  1  0  0  0  0
 21 20  1  0  0  0  0
 21 23  1  0  0  0  0
 22 21  2  0  0  0  0
 23 24  1  0  0  0  0
 25 23  2  0  0  0  0
M  END
>  <MODEL>
6

>  <REMARK>
 VINA RESULT:      -8.6      2.924      4.692
  Name = 
  3 active torsions:
  status: ('A' for Active; 'I' for Inactive)
    1  A    between atoms: C_2  and  C_21
    2  A    between atoms: C_6  and  N_15
    3  A    between atoms: C_6  and  C_23
                            x       y       z     vdW  Elec       q    Type
                         _______ _______ _______ _____ _____    ______ ____

>  <TORSDO>
F 3

$$$$
=
 OpenBabel11052412453D

 25 28  0  0  1  0  0  0  0  0999 V2000
  186.2400  178.0500  144.8880 C   0  0  0  0  0  0  0  0  0  0  0  0
  185.1510  178.0820  143.8540 C   0  0  0  0  0  0  0  0  0  0  0  0
  184.6790  178.7370  146.6660 N   0  0  0  0  0  0  0  0  0  0  0  0
  187.5590  177.6190  144.7060 C   0  0  0  0  0  0  0  0  0  0  0  0
  190.2300  176.8080  144.7210 C   0  0  0  0  0  3  0  0  0  0  0  0
  183.7040  178.8410  145.8470 N   0  0  0  0  0  0  0  0  0  0  0  0
  188.3030  177.6340  145.8830 C   0  0  0  0  0  0  0  0  0  0  0  0
  189.6360  177.2350  145.9180 C   0  0  0  0  0  3  0  0  0  0  0  0
  182.8090  178.8170  143.6020 C   0  0  2  0  0  3  0  0  0  0  0  0
  181.2370  179.2880  144.2280 Cl  0  0  0  0  0  0  0  0  0  0  0  0
  185.6050  179.1320  142.4400 S   0  0  0  0  0  0  0  0  0  0  0  0
  189.4870  176.7820  143.5260 C   0  0  0  0  0  3  0  0  0  0  0  0
  185.9770  178.3630  146.2090 C   0  0  0  0  0  0  0  0  0  0  0  0
  187.3470  178.1500  147.1720 S   0  0  0  0  0  0  0  0  0  0  0  0
  182.9520  178.6370  142.1820 N   0  0  0  0  0  0  0  0  0  0  0  0
  188.1420  177.1860  143.5120 C   0  0  0  0  0  3  0  0  0  0  0  0
  184.0970  178.6790  141.5650 C   0  0  0  0  0  0  0  0  0  0  0  0
  183.8430  178.5970  144.4310 C   0  0  0  0  0  0  0  0  0  0  0  0
  184.1740  178.2920  140.1290 C   0  0  0  0  0  2  0  0  0  0  0  0
  183.0000  178.7790  139.4160 N   0  0  0  0  0  2  0  0  0  0  0  0
  182.9600  180.0500  138.7620 C   0  0  0  0  0  0  0  0  0  0  0  0
  183.9350  180.8440  138.8590 O   0  0  0  0  0  0  0  0  0  0  0  0
  181.7750  180.4320  137.9840 C   0  0  0  0  0  0  0  0  0  0  0  0
  181.1590  181.6980  138.1930 N   0  0  0  0  0  1  0  0  0  0  0  0
  181.2790  179.6200  137.1110 N   0  0  0  0  0  2  0  0  0  0  0  0
  1 13  2  0  0  0  0
  2 18  2  0  0  0  0
  2  1  1  0  0  0  0
  4  1  1  0  0  0  0
  4  7  1  0  0  0  0
  5  8  1  0  0  0  0
  6  3  2  0  0  0  0
  7  8  2  0  0  0  0
  7 14  1  0  0  0  0
  9 10  1  1  0  0  0
  9 18  1  0  0  0  0
 11  2  1  0  0  0  0
 12  5  2  0  0  0  0
 13  3  1  0  0  0  0
 13 14  1  0  0  0  0
 15  9  1  0  0  0  0
 16 12  1  0  0  0  0
 16  4  2  0  0  0  0
 17 15  2  0  0  0  0
 17 11  1  0  0  0  0
 18  6  1  0  0  0  0
 19 17  1  0  0  0  0
 20 19  1  0  0  0  0
 21 22  2  0  0  0  0
 21 20  1  0  0  0  0
 23 24  1  0  0  0  0
 23 21  1  0  0  0  0
 25 23  2  0  0  0  0
M  END
>  <MODEL>
7

>  <REMARK>
 VINA RESULT:      -8.5      4.240      6.077
  Name = 
  3 active torsions:
  status: ('A' for Active; 'I' for Inactive)
    1  A    between atoms: C_2  and  C_21
    2  A    between atoms: C_6  and  N_15
    3  A    between atoms: C_6  and  C_23
                            x       y       z     vdW  Elec       q    Type
                         _______ _______ _______ _____ _____    ______ ____

>  <TORSDO>
F 3

$$$$
=
 OpenBabel11052412453D

 25 28  0  0  1  0  0  0  0  0999 V2000
  187.8120  178.0930  141.1830 C   0  0  0  0  0  0  0  0  0  0  0  0
  187.2580  178.2920  142.5640 C   0  0  0  0  0  0  0  0  0  0  0  0
  185.6820  178.7690  140.1460 N   0  0  0  0  0  0  0  0  0  0  0  0
  189.1320  177.7710  140.8450 C   0  0  0  0  0  0  0  0  0  0  0  0
  191.6550  177.1790  139.8080 C   0  0  0  0  0  3  0  0  0  0  0  0
  185.1120  178.9150  141.2800 N   0  0  0  0  0  0  0  0  0  0  0  0
  189.3480  177.7390  139.4700 C   0  0  0  0  0  0  0  0  0  0  0  0
  190.5960  177.4460  138.9270 C   0  0  0  0  0  3  0  0  0  0  0  0
  185.1050  178.7240  143.6890 C   0  0  2  0  0  3  0  0  0  0  0  0
  183.4320  179.2590  143.7230 Cl  0  0  0  0  0  0  0  0  0  0  0  0
  187.4620  176.8010  143.5850 S   0  0  0  0  0  0  0  0  0  0  0  0
  191.4500  177.2150  141.2000 C   0  0  0  0  0  3  0  0  0  0  0  0
  187.0370  178.3330  140.0630 C   0  0  0  0  0  0  0  0  0  0  0  0
  187.9310  178.1310  138.6460 S   0  0  0  0  0  0  0  0  0  0  0  0
  185.7430  178.4030  144.9380 N   0  0  0  0  0  0  0  0  0  0  0  0
  190.1850  177.5160  141.7290 C   0  0  0  0  0  3  0  0  0  0  0  0
  186.7990  177.6470  145.0300 C   0  0  0  0  0  0  0  0  0  0  0  0
  185.7820  178.6500  142.5310 C   0  0  0  0  0  0  0  0  0  0  0  0
  187.5040  177.5250  146.3360 C   0  0  0  0  0  2  0  0  0  0  0  0
  188.8910  177.1370  146.1220 N   0  0  0  0  0  2  0  0  0  0  0  0
  189.8970  177.2590  147.1320 C   0  0  0  0  0  0  0  0  0  0  0  0
  189.6230  177.7990  148.2380 O   0  0  0  0  0  0  0  0  0  0  0  0
  191.2530  176.7580  146.8740 C   0  0  0  0  0  0  0  0  0  0  0  0
  191.6680  176.4700  145.5440 N   0  0  0  0  0  2  0  0  0  0  0  0
  192.0760  176.5680  147.8520 N   0  0  0  0  0  1  0  0  0  0  0  0
  1  2  2  0  0  0  0
  2 11  1  0  0  0  0
  3  6  1  0  0  0  0
  4  1  1  0  0  0  0
  4 16  1  0  0  0  0
  5 12  1  0  0  0  0
  6 18  2  0  0  0  0
  7  4  2  0  0  0  0
  8  7  1  0  0  0  0
  8  5  2  0  0  0  0
  9 10  1  1  0  0  0
  9 15  1  0  0  0  0
 11 17  1  0  0  0  0
 12 16  2  0  0  0  0
 13  3  2  0  0  0  0
 13  1  1  0  0  0  0
 14  7  1  0  0  0  0
 14 13  1  0  0  0  0
 15 17  2  0  0  0  0
 17 19  1  0  0  0  0
 18  2  1  0  0  0  0
 18  9  1  0  0  0  0
 20 19  1  0  0  0  0
 20 21  1  0  0  0  0
 21 22  2  0  0  0  0
 23 21  1  0  0  0  0
 23 25  1  0  0  0  0
 24 23  2  0  0  0  0
M  END
>  <MODEL>
8

>  <REMARK>
 VINA RESULT:      -8.5      3.351      7.094
  Name = 
  3 active torsions:
  status: ('A' for Active; 'I' for Inactive)
    1  A    between atoms: C_2  and  C_21
    2  A    between atoms: C_6  and  N_15
    3  A    between atoms: C_6  and  C_23
                            x       y       z     vdW  Elec       q    Type
                         _______ _______ _______ _____ _____    ______ ____

>  <TORSDO>
F 3

$$$$
=
 OpenBabel11052412453D

 25 28  0  0  1  0  0  0  0  0999 V2000
  189.4000  177.6420  144.4830 C   0  0  0  0  0  0  0  0  0  0  0  0
  188.6680  178.1290  143.2660 C   0  0  0  0  0  0  0  0  0  0  0  0
  191.3750  177.0230  143.1450 N   0  0  0  0  0  0  0  0  0  0  0  0
  188.9730  177.7340  145.8130 C   0  0  0  0  0  0  0  0  0  0  0  0
  188.4680  177.7800  148.5580 C   0  0  0  0  0  3  0  0  0  0  0  0
  190.8100  177.3650  142.0520 N   0  0  0  0  0  0  0  0  0  0  0  0
  189.9200  177.2640  146.7210 C   0  0  0  0  0  0  0  0  0  0  0  0
  189.6920  177.2750  148.0950 C   0  0  0  0  0  3  0  0  0  0  0  0
  188.8790  178.1180  140.8080 C   0  0  2  0  0  3  0  0  0  0  0  0
  189.7860  177.9590  139.3110 Cl  0  0  0  0  0  0  0  0  0  0  0  0
  187.0420  177.3320  143.1030 S   0  0  0  0  0  0  0  0  0  0  0  0
  187.5060  178.2630  147.6510 C   0  0  0  0  0  3  0  0  0  0  0  0
  190.6810  177.1290  144.3870 C   0  0  0  0  0  0  0  0  0  0  0  0
  191.3050  176.7530  145.9090 S   0  0  0  0  0  0  0  0  0  0  0  0
  187.5130  178.5600  140.7330 N   0  0  0  0  0  0  0  0  0  0  0  0
  187.7560  178.2470  146.2690 C   0  0  0  0  0  3  0  0  0  0  0  0
  186.6380  178.3500  141.6730 C   0  0  0  0  0  0  0  0  0  0  0  0
  189.4580  177.8670  141.9940 C   0  0  0  0  0  0  0  0  0  0  0  0
  185.3040  179.0070  141.5970 C   0  0  0  0  0  2  0  0  0  0  0  0
  184.4870  178.3650  140.5770 N   0  0  0  0  0  2  0  0  0  0  0  0
  184.1850  178.9820  139.3220 C   0  0  0  0  0  0  0  0  0  0  0  0
  184.5550  180.1650  139.0910 O   0  0  0  0  0  0  0  0  0  0  0  0
  183.4330  178.2350  138.3050 C   0  0  0  0  0  0  0  0  0  0  0  0
  184.0450  177.1470  137.6200 N   0  0  0  0  0  2  0  0  0  0  0  0
  182.2170  178.5630  138.0200 N   0  0  0  0  0  1  0  0  0  0  0  0
  1  4  1  0  0  0  0
  2  1  1  0  0  0  0
  3 13  1  0  0  0  0
  4 16  2  0  0  0  0
  4  7  1  0  0  0  0
  6  3  2  0  0  0  0
  7  8  2  0  0  0  0
  8  5  1  0  0  0  0
  9 10  1  1  0  0  0
  9 18  1  0  0  0  0
 11  2  1  0  0  0  0
 12  5  2  0  0  0  0
 13  1  2  0  0  0  0
 13 14  1  0  0  0  0
 14  7  1  0  0  0  0
 15  9  1  0  0  0  0
 15 17  2  0  0  0  0
 16 12  1  0  0  0  0
 17 11  1  0  0  0  0
 18  6  1  0  0  0  0
 18  2  2  0  0  0  0
 19 17  1  0  0  0  0
 20 19  1  0  0  0  0
 21 20  1  0  0  0  0
 22 21  2  0  0  0  0
 23 21  1  0  0  0  0
 24 23  2  0  0  0  0
 25 23  1  0  0  0  0
M  END
>  <MODEL>
9

>  <REMARK>
 VINA RESULT:      -8.4      3.191      5.185
  Name = 
  3 active torsions:
  status: ('A' for Active; 'I' for Inactive)
    1  A    between atoms: C_2  and  C_21
    2  A    between atoms: C_6  and  N_15
    3  A    between atoms: C_6  and  C_23
                            x       y       z     vdW  Elec       q    Type
                         _______ _______ _______ _____ _____    ______ ____

>  <TORSDO>
F 3

$$$$
