=
 OpenBabel11052415093D

 55 63  0  0  1  0  0  0  0  0999 V2000
  180.8610  178.8140  141.5940 C   0  0  0  0  0  3  0  0  0  0  0  0
  182.6810  178.8570  143.7140 C   0  0  0  0  0  0  0  0  0  0  0  0
  183.1320  179.0410  142.4010 C   0  0  0  0  0  3  0  0  0  0  0  0
  180.4140  178.6160  142.9040 C   0  0  0  0  0  3  0  0  0  0  0  0
  182.2260  179.0120  141.3360 C   0  0  0  0  0  0  0  0  0  0  0  0
  181.3230  178.6370  143.9620 C   0  0  0  0  0  3  0  0  0  0  0  0
  182.7230  179.2760  139.9470 C   0  0  2  0  0  3  0  0  0  0  0  0
  182.6020  175.7910  139.2390 C   0  0  0  0  0  1  0  0  0  0  0  0
  184.4490  176.1760  137.6300 C   0  0  2  0  0  3  0  0  0  0  0  0
  181.9400  178.4600  138.9320 C   0  0  2  0  0  3  0  0  0  0  0  0
  182.9790  176.4570  137.9150 C   0  0  2  0  0  3  0  0  0  0  0  0
  184.4810  178.8940  139.7630 S   0  0  0  0  0  0  0  0  0  0  0  0
  185.0940  177.4710  137.4520 N   0  0  0  0  0  0  0  0  0  0  0  0
  182.8220  177.9260  137.8830 N   0  0  2  0  0  0  0  0  0  0  0  0
  184.1720  178.4690  138.0130 C   0  0  1  0  0  3  0  0  0  0  0  0
  185.6630  174.1840  136.6900 C   0  0  0  0  0  1  0  0  0  0  0  0
  184.6590  175.2860  136.3980 C   0  0  0  0  0  3  0  0  0  0  0  0
  183.3610  174.6850  135.8800 C   0  0  0  0  0  1  0  0  0  0  0  0
  180.1710  178.5330  137.1700 C   0  0  0  0  0  1  0  0  0  0  0  0
  180.7930  179.2790  138.3350 C   0  0  2  0  0  3  0  0  0  0  0  0
  181.2440  180.6680  137.8990 C   0  0  0  0  0  2  0  0  0  0  0  0
  180.3650  181.7360  138.5240 C   0  0  0  0  0  1  0  0  0  0  0  0
  186.4890  177.5490  137.9260 C   0  0  0  0  0  2  0  0  0  0  0  0
  188.9160  177.9330  137.3690 C   0  0  0  0  0  2  0  0  0  0  0  0
  187.3330  177.4830  135.5900 C   0  0  0  0  0  2  0  0  0  0  0  0
  188.7200  177.4800  134.9890 C   0  0  0  0  0  2  0  0  0  0  0  0
  189.6830  177.4280  136.1600 C   0  0  2  0  0  3  0  0  0  0  0  0
  187.4770  178.1660  136.9280 C   0  0  1  0  0  3  0  0  0  0  0  0
  191.3500  175.7170  137.0140 C   0  0  0  0  0  0  0  0  0  0  0  0
  191.6910  174.2870  137.2440 C   0  0  0  0  0  1  0  0  0  0  0  0
  190.0980  176.0520  136.4100 N   0  0  0  0  0  2  0  0  0  0  0  0
  192.1640  176.6180  137.3550 O   0  0  0  0  0  0  0  0  0  0  0  0
  183.6360  178.9300  144.8530 C   0  0  0  0  0  2  0  0  0  0  0  0
  184.9510  178.2480  144.5050 C   0  0  0  0  0  2  0  0  0  0  0  0
  185.5160  177.5480  145.7340 C   0  0  0  0  0  2  0  0  0  0  0  0
  186.9730  177.1760  145.5050 C   0  0  0  0  0  2  0  0  0  0  0  0
  189.4560  177.9320  144.0050 C   0  0  2  0  0  0  0  0  0  0  0  0
  190.7720  177.6220  141.4310 C   0  0  2  0  0  3  0  0  0  0  0  0
  189.6110  176.6540  141.8470 C   0  0  2  0  0  0  0  0  0  0  0  0
  189.6550  178.6540  147.8830 O   0  0  0  0  0  0  0  0  0  0  0  0
  187.8540  178.2330  145.9900 N   0  0  0  0  0  0  0  0  0  0  0  0
  192.0110  176.4710  143.4270 C   0  0  0  0  0  2  0  0  0  0  0  0
  190.0200  175.3630  142.5660 C   0  0  0  0  0  2  0  0  0  0  0  0
  190.1660  176.6460  140.4520 C   0  0  0  0  0  2  0  0  0  0  0  0
  189.0270  177.5510  147.0800 S   0  0  0  0  0  0  0  0  0  0  0  0
  189.8090  176.5830  144.7080 C   0  0  1  0  0  3  0  0  0  0  0  0
  188.3690  176.5750  148.0130 O   0  0  0  0  0  0  0  0  0  0  0  0
  190.7500  175.7160  143.8450 C   0  0  2  0  0  3  0  0  0  0  0  0
  190.7800  178.6680  143.6250 C   0  0  2  0  0  3  0  0  0  0  0  0
  188.5650  178.8680  144.8680 C   0  0  0  0  0  2  0  0  0  0  0  0
  191.6340  177.7780  142.7020 C   0  0  2  0  0  3  0  0  0  0  0  0
  190.2920  176.7280  146.1410 C   0  0  0  0  0  2  0  0  0  0  0  0
  188.2980  178.7130  141.9820 O   0  0  0  0  0  1  0  0  0  0  0  0
  191.5870  179.1940  144.8090 C   0  0  0  0  0  1  0  0  0  0  0  0
  188.6940  177.5700  142.6880 C   0  0  2  0  0  3  0  0  0  0  0  0
  1  4  1  0  0  0  0
  2  6  1  0  0  0  0
  2 33  1  0  0  0  0
  3  2  2  0  0  0  0
  4  6  2  0  0  0  0
  5  1  2  0  0  0  0
  5  3  1  0  0  0  0
  7  5  1  1  0  0  0
  9 17  1  6  0  0  0
  9 11  1  0  0  0  0
 10 20  1  6  0  0  0
 10  7  1  0  0  0  0
 11  8  1  1  0  0  0
 12  7  1  0  0  0  0
 13  9  1  0  0  0  0
 13 23  1  0  0  0  0
 13 15  1  0  0  0  0
 14 11  1  0  0  0  0
 14 15  1  0  0  0  0
 14 10  1  0  0  0  0
 15 12  1  0  0  0  0
 17 16  1  0  0  0  0
 18 17  1  0  0  0  0
 19 20  1  0  0  0  0
 21 20  1  0  0  0  0
 21 22  1  0  0  0  0
 25 28  1  0  0  0  0
 26 25  1  0  0  0  0
 26 27  1  0  0  0  0
 27 31  1  0  0  0  0
 27 24  1  0  0  0  0
 28 24  1  0  0  0  0
 28 23  1  0  0  0  0
 29 30  1  0  0  0  0
 29 32  2  0  0  0  0
 31 29  1  0  0  0  0
 34 33  1  0  0  0  0
 34 35  1  0  0  0  0
 36 35  1  0  0  0  0
 36 41  1  0  0  0  0
 37 46  1  0  0  0  0
 37 50  1  0  0  0  0
 38 39  1  0  0  0  0
 38 51  1  0  0  0  0
 39 43  1  0  0  0  0
 39 55  1  0  0  0  0
 41 45  1  0  0  0  0
 42 48  1  0  0  0  0
 43 48  1  0  0  0  0
 44 38  1  0  0  0  0
 44 39  1  0  0  0  0
 45 40  2  0  0  0  0
 45 47  2  0  0  0  0
 46 52  1  0  0  0  0
 48 46  1  0  0  0  0
 49 37  1  0  0  0  0
 49 54  1  0  0  0  0
 50 41  1  0  0  0  0
 51 42  1  0  0  0  0
 51 49  1  0  0  0  0
 52 45  1  0  0  0  0
 53 55  1  0  0  0  0
 55 37  1  0  0  0  0
M  END
>  <MODEL>
1

>  <REMARK>
 VINA RESULT:      -7.4      0.000      0.000
  Name = 
  12 active torsions:
  status: ('A' for Active; 'I' for Inactive)
    1  A    between atoms: C_2  and  C_44
    2  A    between atoms: C_4  and  C_40
    3  A    between atoms: N_8  and  C_43
    4  A    between atoms: C_16  and  C_17
    5  A    between atoms: C_19  and  C_40
    6  A    between atoms: C_27  and  C_54
    7  A    between atoms: N_32  and  C_48
    8  A    between atoms: C_33  and  N_36
    9  A    between atoms: C_33  and  C_52
   10  A    between atoms: C_35  and  C_43
   11  A    between atoms: C_35  and  C_51
   12  A    between atoms: C_51  and  C_54
                            x       y       z     vdW  Elec       q    Type
                         _______ _______ _______ _____ _____    ______ ____

>  <TORSDO>
F 12

$$$$
=
 OpenBabel11052415093D

 55 63  0  0  1  0  0  0  0  0999 V2000
  180.6450  178.6700  142.0580 C   0  0  0  0  0  3  0  0  0  0  0  0
  182.7230  178.9400  143.9060 C   0  0  0  0  0  0  0  0  0  0  0  0
  183.0130  178.7890  142.5450 C   0  0  0  0  0  3  0  0  0  0  0  0
  180.3560  178.8070  143.4190 C   0  0  0  0  0  3  0  0  0  0  0  0
  181.9770  178.6440  141.6160 C   0  0  0  0  0  0  0  0  0  0  0  0
  181.3950  178.9410  144.3420 C   0  0  0  0  0  3  0  0  0  0  0  0
  182.3090  178.5490  140.1590 C   0  0  2  0  0  3  0  0  0  0  0  0
  180.0190  175.8470  139.8120 C   0  0  0  0  0  1  0  0  0  0  0  0
  181.4510  175.0290  137.9600 C   0  0  2  0  0  3  0  0  0  0  0  0
  181.0470  178.3710  139.3300 C   0  0  2  0  0  3  0  0  0  0  0  0
  180.5080  176.1450  138.3930 C   0  0  2  0  0  3  0  0  0  0  0  0
  183.4340  177.1790  139.7990 S   0  0  0  0  0  0  0  0  0  0  0  0
  182.7050  175.6680  137.5800 N   0  0  0  0  0  0  0  0  0  0  0  0
  181.2580  177.4080  138.2390 N   0  0  2  0  0  0  0  0  0  0  0  0
  182.6650  177.0220  138.1500 C   0  0  1  0  0  3  0  0  0  0  0  0
  181.4180  174.6890  135.4690 C   0  0  0  0  0  1  0  0  0  0  0  0
  180.8930  174.1900  136.8040 C   0  0  0  0  0  3  0  0  0  0  0  0
  181.1880  172.7050  136.9600 C   0  0  0  0  0  1  0  0  0  0  0  0
  179.8570  179.5240  137.4620 C   0  0  0  0  0  1  0  0  0  0  0  0
  180.5420  179.7150  138.8010 C   0  0  2  0  0  3  0  0  0  0  0  0
  181.6620  180.7440  138.6850 C   0  0  0  0  0  2  0  0  0  0  0  0
  181.1660  181.9940  137.9810 C   0  0  0  0  0  1  0  0  0  0  0  0
  183.9230  174.8860  137.8710 C   0  0  0  0  0  2  0  0  0  0  0  0
  185.2950  176.0910  136.1350 C   0  0  0  0  0  2  0  0  0  0  0  0
  186.1630  174.0760  137.1650 C   0  0  0  0  0  2  0  0  0  0  0  0
  187.2630  174.6770  136.3200 C   0  0  0  0  0  2  0  0  0  0  0  0
  186.8040  176.0810  135.9720 C   0  0  2  0  0  3  0  0  0  0  0  0
  184.8890  174.7320  136.6900 C   0  0  1  0  0  3  0  0  0  0  0  0
  188.4990  177.8730  136.5670 C   0  0  0  0  0  0  0  0  0  0  0  0
  189.0200  178.8380  137.5720 C   0  0  0  0  0  1  0  0  0  0  0  0
  187.3820  177.0440  136.9020 N   0  0  0  0  0  2  0  0  0  0  0  0
  189.0420  177.7950  135.4320 O   0  0  0  0  0  0  0  0  0  0  0  0
  183.8220  179.1370  144.8900 C   0  0  0  0  0  2  0  0  0  0  0  0
  185.0700  178.3740  144.4720 C   0  0  0  0  0  2  0  0  0  0  0  0
  185.5280  177.4650  145.6050 C   0  0  0  0  0  2  0  0  0  0  0  0
  186.9950  177.1000  145.4270 C   0  0  0  0  0  2  0  0  0  0  0  0
  189.4690  177.9220  143.9490 C   0  0  2  0  0  0  0  0  0  0  0  0
  190.8040  177.6680  141.3780 C   0  0  2  0  0  3  0  0  0  0  0  0
  189.6600  176.6720  141.7770 C   0  0  2  0  0  0  0  0  0  0  0  0
  189.6350  178.6030  147.8360 O   0  0  0  0  0  0  0  0  0  0  0  0
  187.8520  178.1690  145.9290 N   0  0  0  0  0  0  0  0  0  0  0  0
  192.0550  176.5180  143.3670 C   0  0  0  0  0  2  0  0  0  0  0  0
  190.0910  175.3820  142.4840 C   0  0  0  0  0  2  0  0  0  0  0  0
  190.2220  176.6910  140.3850 C   0  0  0  0  0  2  0  0  0  0  0  0
  189.0330  177.4980  147.0170 S   0  0  0  0  0  0  0  0  0  0  0  0
  189.8460  176.5730  144.6380 C   0  0  1  0  0  3  0  0  0  0  0  0
  188.3890  176.4980  147.9360 O   0  0  0  0  0  0  0  0  0  0  0  0
  190.8070  175.7340  143.7700 C   0  0  2  0  0  3  0  0  0  0  0  0
  190.7810  178.6880  143.5840 C   0  0  2  0  0  3  0  0  0  0  0  0
  188.5560  178.8300  144.8180 C   0  0  0  0  0  2  0  0  0  0  0  0
  191.6570  177.8260  142.6560 C   0  0  2  0  0  3  0  0  0  0  0  0
  190.3190  176.7100  146.0750 C   0  0  0  0  0  2  0  0  0  0  0  0
  188.3060  178.7040  141.9290 O   0  0  0  0  0  1  0  0  0  0  0  0
  191.5710  179.2160  144.7790 C   0  0  0  0  0  1  0  0  0  0  0  0
  188.7210  177.5610  142.6240 C   0  0  2  0  0  3  0  0  0  0  0  0
  1  4  1  0  0  0  0
  2  6  1  0  0  0  0
  2 33  1  0  0  0  0
  3  2  2  0  0  0  0
  4  6  2  0  0  0  0
  5  1  2  0  0  0  0
  5  3  1  0  0  0  0
  7  5  1  1  0  0  0
  9 17  1  6  0  0  0
  9 11  1  0  0  0  0
 10 20  1  6  0  0  0
 10  7  1  0  0  0  0
 11  8  1  1  0  0  0
 12  7  1  0  0  0  0
 13 23  1  0  0  0  0
 13  9  1  0  0  0  0
 13 15  1  0  0  0  0
 14 11  1  0  0  0  0
 14 10  1  0  0  0  0
 15 14  1  0  0  0  0
 15 12  1  0  0  0  0
 16 17  1  0  0  0  0
 17 18  1  0  0  0  0
 19 20  1  0  0  0  0
 21 20  1  0  0  0  0
 22 21  1  0  0  0  0
 24 28  1  0  0  0  0
 26 25  1  0  0  0  0
 27 24  1  0  0  0  0
 27 26  1  0  0  0  0
 27 31  1  0  0  0  0
 28 25  1  0  0  0  0
 28 23  1  0  0  0  0
 29 31  1  0  0  0  0
 29 30  1  0  0  0  0
 32 29  2  0  0  0  0
 34 33  1  0  0  0  0
 34 35  1  0  0  0  0
 36 35  1  0  0  0  0
 36 41  1  0  0  0  0
 37 46  1  0  0  0  0
 37 50  1  0  0  0  0
 38 39  1  0  0  0  0
 38 51  1  0  0  0  0
 39 43  1  0  0  0  0
 39 55  1  0  0  0  0
 41 45  1  0  0  0  0
 42 48  1  0  0  0  0
 43 48  1  0  0  0  0
 44 38  1  0  0  0  0
 44 39  1  0  0  0  0
 45 40  2  0  0  0  0
 45 47  2  0  0  0  0
 46 52  1  0  0  0  0
 48 46  1  0  0  0  0
 49 37  1  0  0  0  0
 49 54  1  0  0  0  0
 50 41  1  0  0  0  0
 51 42  1  0  0  0  0
 51 49  1  0  0  0  0
 52 45  1  0  0  0  0
 53 55  1  0  0  0  0
 55 37  1  0  0  0  0
M  END
>  <MODEL>
2

>  <REMARK>
 VINA RESULT:      -7.0      1.361      2.123
  Name = 
  12 active torsions:
  status: ('A' for Active; 'I' for Inactive)
    1  A    between atoms: C_2  and  C_44
    2  A    between atoms: C_4  and  C_40
    3  A    between atoms: N_8  and  C_43
    4  A    between atoms: C_16  and  C_17
    5  A    between atoms: C_19  and  C_40
    6  A    between atoms: C_27  and  C_54
    7  A    between atoms: N_32  and  C_48
    8  A    between atoms: C_33  and  N_36
    9  A    between atoms: C_33  and  C_52
   10  A    between atoms: C_35  and  C_43
   11  A    between atoms: C_35  and  C_51
   12  A    between atoms: C_51  and  C_54
                            x       y       z     vdW  Elec       q    Type
                         _______ _______ _______ _____ _____    ______ ____

>  <TORSDO>
F 12

$$$$
=
 OpenBabel11052415093D

 55 63  0  0  1  0  0  0  0  0999 V2000
  180.5760  178.2570  142.1090 C   0  0  0  0  0  3  0  0  0  0  0  0
  182.7930  179.0820  143.5980 C   0  0  0  0  0  0  0  0  0  0  0  0
  182.8630  179.0480  142.2000 C   0  0  0  0  0  3  0  0  0  0  0  0
  180.5120  178.2780  143.5060 C   0  0  0  0  0  3  0  0  0  0  0  0
  181.7590  178.6280  141.4510 C   0  0  0  0  0  0  0  0  0  0  0  0
  181.6200  178.6890  144.2490 C   0  0  0  0  0  3  0  0  0  0  0  0
  181.8350  178.6620  139.9550 C   0  0  2  0  0  3  0  0  0  0  0  0
  180.9420  175.2200  139.8290 C   0  0  0  0  0  1  0  0  0  0  0  0
  182.2350  175.0850  137.7170 C   0  0  2  0  0  3  0  0  0  0  0  0
  180.6550  177.9280  139.3390 C   0  0  2  0  0  3  0  0  0  0  0  0
  180.9910  175.6760  138.3690 C   0  0  2  0  0  3  0  0  0  0  0  0
  183.3640  177.9250  139.3280 S   0  0  0  0  0  0  0  0  0  0  0  0
  182.9910  176.2060  137.1730 N   0  0  0  0  0  0  0  0  0  0  0  0
  181.0700  177.1380  138.1710 N   0  0  2  0  0  0  0  0  0  0  0  0
  182.4620  177.4130  137.8240 C   0  0  1  0  0  3  0  0  0  0  0  0
  182.7110  172.7900  136.8080 C   0  0  0  0  0  1  0  0  0  0  0  0
  181.9060  174.0640  136.6210 C   0  0  0  0  0  3  0  0  0  0  0  0
  180.4210  173.7380  136.5480 C   0  0  0  0  0  1  0  0  0  0  0  0
  178.9310  178.5390  137.6390 C   0  0  0  0  0  1  0  0  0  0  0  0
  179.5270  178.9000  138.9860 C   0  0  2  0  0  3  0  0  0  0  0  0
  179.9950  180.3510  138.9900 C   0  0  0  0  0  2  0  0  0  0  0  0
  179.3140  181.1280  140.1020 C   0  0  0  0  0  1  0  0  0  0  0  0
  184.4580  176.0500  137.2080 C   0  0  0  0  0  2  0  0  0  0  0  0
  186.1420  177.8700  136.7630 C   0  0  0  0  0  2  0  0  0  0  0  0
  186.1070  175.8970  135.3550 C   0  0  0  0  0  2  0  0  0  0  0  0
  187.3230  176.7140  134.9800 C   0  0  0  0  0  2  0  0  0  0  0  0
  187.4940  177.7400  136.0850 C   0  0  2  0  0  3  0  0  0  0  0  0
  185.2180  176.8370  136.1320 C   0  0  1  0  0  3  0  0  0  0  0  0
  189.2020  178.1500  137.9160 C   0  0  0  0  0  0  0  0  0  0  0  0
  190.1660  177.5840  138.8970 C   0  0  0  0  0  1  0  0  0  0  0  0
  188.4660  177.2670  137.0650 N   0  0  0  0  0  2  0  0  0  0  0  0
  189.0400  179.3980  137.8450 O   0  0  0  0  0  0  0  0  0  0  0  0
  183.9510  179.5690  144.3960 C   0  0  0  0  0  2  0  0  0  0  0  0
  184.2220  178.6490  145.5790 C   0  0  0  0  0  2  0  0  0  0  0  0
  185.6690  178.1750  145.5470 C   0  0  0  0  0  2  0  0  0  0  0  0
  186.3850  178.7490  144.3330 C   0  0  0  0  0  2  0  0  0  0  0  0
  188.9150  177.1760  144.0060 C   0  0  2  0  0  0  0  0  0  0  0  0
  191.3970  176.5050  145.3640 C   0  0  2  0  0  3  0  0  0  0  0  0
  190.5490  177.7380  145.8310 C   0  0  2  0  0  0  0  0  0  0  0  0
  186.8410  177.5670  140.6690 O   0  0  0  0  0  0  0  0  0  0  0  0
  186.5140  177.7370  143.2890 N   0  0  0  0  0  0  0  0  0  0  0  0
  191.7010  177.9430  143.2000 C   0  0  0  0  0  2  0  0  0  0  0  0
  190.8960  179.0880  145.1930 C   0  0  0  0  0  2  0  0  0  0  0  0
  191.7190  177.2510  146.6360 C   0  0  0  0  0  2  0  0  0  0  0  0
  187.0920  178.4860  141.8290 S   0  0  0  0  0  0  0  0  0  0  0  0
  189.2430  178.5860  143.4210 C   0  0  1  0  0  3  0  0  0  0  0  0
  186.3790  179.7870  141.5900 O   0  0  0  0  0  0  0  0  0  0  0  0
  190.7070  178.9930  143.6940 C   0  0  2  0  0  3  0  0  0  0  0  0
  189.9460  176.1430  143.4490 C   0  0  2  0  0  3  0  0  0  0  0  0
  187.4700  176.6950  143.6970 C   0  0  0  0  0  2  0  0  0  0  0  0
  191.3780  176.5690  143.8220 C   0  0  2  0  0  3  0  0  0  0  0  0
  188.8410  178.7740  141.9690 C   0  0  0  0  0  2  0  0  0  0  0  0
  188.8030  176.0640  146.1970 O   0  0  0  0  0  1  0  0  0  0  0  0
  189.8150  175.8440  141.9570 C   0  0  0  0  0  1  0  0  0  0  0  0
  189.1010  177.2740  145.5570 C   0  0  2  0  0  3  0  0  0  0  0  0
  1  4  1  0  0  0  0
  2  6  1  0  0  0  0
  2 33  1  0  0  0  0
  3  2  2  0  0  0  0
  4  6  2  0  0  0  0
  5  1  2  0  0  0  0
  5  3  1  0  0  0  0
  7  5  1  1  0  0  0
  9 17  1  6  0  0  0
  9 11  1  0  0  0  0
 10 20  1  6  0  0  0
 10  7  1  0  0  0  0
 11  8  1  1  0  0  0
 12  7  1  0  0  0  0
 13 23  1  0  0  0  0
 13  9  1  0  0  0  0
 13 15  1  0  0  0  0
 14 11  1  0  0  0  0
 14 10  1  0  0  0  0
 15 14  1  0  0  0  0
 15 12  1  0  0  0  0
 17 16  1  0  0  0  0
 18 17  1  0  0  0  0
 19 20  1  0  0  0  0
 20 21  1  0  0  0  0
 21 22  1  0  0  0  0
 25 28  1  0  0  0  0
 26 25  1  0  0  0  0
 26 27  1  0  0  0  0
 27 24  1  0  0  0  0
 27 31  1  0  0  0  0
 28 24  1  0  0  0  0
 28 23  1  0  0  0  0
 29 30  1  0  0  0  0
 31 29  1  0  0  0  0
 32 29  2  0  0  0  0
 33 34  1  0  0  0  0
 35 34  1  0  0  0  0
 36 35  1  0  0  0  0
 37 55  1  0  0  0  0
 38 39  1  0  0  0  0
 38 44  1  0  0  0  0
 39 44  1  0  0  0  0
 40 45  2  0  0  0  0
 41 50  1  0  0  0  0
 41 36  1  0  0  0  0
 42 48  1  0  0  0  0
 42 51  1  0  0  0  0
 43 39  1  0  0  0  0
 45 52  1  0  0  0  0
 45 41  1  0  0  0  0
 46 48  1  0  0  0  0
 46 37  1  0  0  0  0
 47 45  2  0  0  0  0
 48 43  1  0  0  0  0
 49 51  1  0  0  0  0
 49 37  1  0  0  0  0
 50 37  1  0  0  0  0
 51 38  1  0  0  0  0
 52 46  1  0  0  0  0
 54 49  1  0  0  0  0
 55 39  1  0  0  0  0
 55 53  1  0  0  0  0
M  END
>  <MODEL>
3

>  <REMARK>
 VINA RESULT:      -6.8      1.831      3.132
  Name = 
  12 active torsions:
  status: ('A' for Active; 'I' for Inactive)
    1  A    between atoms: C_2  and  C_44
    2  A    between atoms: C_4  and  C_40
    3  A    between atoms: N_8  and  C_43
    4  A    between atoms: C_16  and  C_17
    5  A    between atoms: C_19  and  C_40
    6  A    between atoms: C_27  and  C_54
    7  A    between atoms: N_32  and  C_48
    8  A    between atoms: C_33  and  N_36
    9  A    between atoms: C_33  and  C_52
   10  A    between atoms: C_35  and  C_43
   11  A    between atoms: C_35  and  C_51
   12  A    between atoms: C_51  and  C_54
                            x       y       z     vdW  Elec       q    Type
                         _______ _______ _______ _____ _____    ______ ____

>  <TORSDO>
F 12

$$$$
=
 OpenBabel11052415093D

 55 63  0  0  1  0  0  0  0  0999 V2000
  187.3200  177.9000  146.8350 C   0  0  0  0  0  3  0  0  0  0  0  0
  185.5190  179.0930  145.0630 C   0  0  0  0  0  0  0  0  0  0  0  0
  186.4970  178.2140  144.5800 C   0  0  0  0  0  3  0  0  0  0  0  0
  186.3520  178.7890  147.3140 C   0  0  0  0  0  3  0  0  0  0  0  0
  187.4060  177.6210  145.4620 C   0  0  0  0  0  0  0  0  0  0  0  0
  185.4540  179.3850  146.4270 C   0  0  0  0  0  3  0  0  0  0  0  0
  188.4010  176.6340  144.9330 C   0  0  2  0  0  3  0  0  0  0  0  0
  190.2820  179.2960  143.5040 C   0  0  0  0  0  1  0  0  0  0  0  0
  191.0310  177.6810  141.7780 C   0  0  2  0  0  3  0  0  0  0  0  0
  189.8210  177.1270  145.1600 C   0  0  2  0  0  3  0  0  0  0  0  0
  191.1160  178.0370  143.2570 C   0  0  2  0  0  3  0  0  0  0  0  0
  188.1770  176.3150  143.1660 S   0  0  0  0  0  0  0  0  0  0  0  0
  190.5460  176.3080  141.7080 N   0  0  0  0  0  0  0  0  0  0  0  0
  190.6780  176.8380  144.0010 N   0  0  2  0  0  0  0  0  0  0  0  0
  189.9720  176.0070  143.0270 C   0  0  1  0  0  3  0  0  0  0  0  0
  193.3350  176.7240  141.4650 C   0  0  0  0  0  1  0  0  0  0  0  0
  192.3740  177.8250  141.0510 C   0  0  0  0  0  3  0  0  0  0  0  0
  192.2230  177.8440  139.5370 C   0  0  0  0  0  1  0  0  0  0  0  0
  190.2600  177.5390  147.5840 C   0  0  0  0  0  1  0  0  0  0  0  0
  190.4060  176.5440  146.4480 C   0  0  2  0  0  3  0  0  0  0  0  0
  191.8650  176.1340  146.2830 C   0  0  0  0  0  2  0  0  0  0  0  0
  192.4240  175.6130  147.5950 C   0  0  0  0  0  1  0  0  0  0  0  0
  189.6830  176.0050  140.5500 C   0  0  0  0  0  2  0  0  0  0  0  0
  189.2420  176.7740  138.1910 C   0  0  0  0  0  2  0  0  0  0  0  0
  188.0290  177.7850  140.0300 C   0  0  0  0  0  2  0  0  0  0  0  0
  187.4300  178.2990  138.7410 C   0  0  0  0  0  2  0  0  0  0  0  0
  187.9760  177.4060  137.6420 C   0  0  2  0  0  3  0  0  0  0  0  0
  189.3690  177.2050  139.6460 C   0  0  1  0  0  3  0  0  0  0  0  0
  186.0790  176.4430  136.2580 C   0  0  0  0  0  0  0  0  0  0  0  0
  185.1470  175.3130  136.0030 C   0  0  0  0  0  1  0  0  0  0  0  0
  187.0200  176.3490  137.3320 N   0  0  0  0  0  2  0  0  0  0  0  0
  186.0350  177.4690  135.5280 O   0  0  0  0  0  0  0  0  0  0  0  0
  184.5240  179.6920  144.1320 C   0  0  0  0  0  2  0  0  0  0  0  0
  183.8160  178.6130  143.3240 C   0  0  0  0  0  2  0  0  0  0  0  0
  184.3030  178.6390  141.8820 C   0  0  0  0  0  2  0  0  0  0  0  0
  183.2320  178.0840  140.9540 C   0  0  0  0  0  2  0  0  0  0  0  0
  180.8210  177.4770  139.2810 C   0  0  2  0  0  0  0  0  0  0  0  0
  179.1390  175.2830  138.3810 C   0  0  2  0  0  3  0  0  0  0  0  0
  180.5700  174.9980  138.9540 C   0  0  2  0  0  0  0  0  0  0  0  0
  182.2220  181.1360  138.7880 O   0  0  0  0  0  0  0  0  0  0  0  0
  182.3250  179.1440  140.5270 N   0  0  0  0  0  0  0  0  0  0  0  0
  180.4890  176.4650  136.4770 C   0  0  0  0  0  2  0  0  0  0  0  0
  181.7170  174.9520  137.9380 C   0  0  0  0  0  2  0  0  0  0  0  0
  179.6090  173.8790  138.6740 C   0  0  0  0  0  2  0  0  0  0  0  0
  182.8870  179.8100  139.0210 S   0  0  0  0  0  0  0  0  0  0  0  0
  182.0260  177.3810  138.2940 C   0  0  1  0  0  3  0  0  0  0  0  0
  184.3770  180.0060  139.0580 O   0  0  0  0  0  0  0  0  0  0  0  0
  181.8080  176.2860  137.2280 C   0  0  2  0  0  3  0  0  0  0  0  0
  179.5080  177.6840  138.4600 C   0  0  2  0  0  3  0  0  0  0  0  0
  180.9660  178.6130  140.3310 C   0  0  0  0  0  2  0  0  0  0  0  0
  179.3120  176.5190  137.4720 C   0  0  2  0  0  3  0  0  0  0  0  0
  182.4560  178.7080  137.6940 C   0  0  0  0  0  2  0  0  0  0  0  0
  179.6930  176.0830  140.9630 O   0  0  0  0  0  1  0  0  0  0  0  0
  179.3880  179.0390  137.7670 C   0  0  0  0  0  1  0  0  0  0  0  0
  180.7300  176.1030  140.0230 C   0  0  2  0  0  3  0  0  0  0  0  0
  1  4  1  0  0  0  0
  2  6  1  0  0  0  0
  3  2  2  0  0  0  0
  3  5  1  0  0  0  0
  5  1  2  0  0  0  0
  6  4  2  0  0  0  0
  7 10  1  0  0  0  0
  7  5  1  6  0  0  0
  9 17  1  1  0  0  0
  9 11  1  0  0  0  0
 10 20  1  1  0  0  0
 11  8  1  6  0  0  0
 11 14  1  0  0  0  0
 12  7  1  0  0  0  0
 13  9  1  0  0  0  0
 13 15  1  0  0  0  0
 14 10  1  0  0  0  0
 15 12  1  0  0  0  0
 15 14  1  0  0  0  0
 17 16  1  0  0  0  0
 18 17  1  0  0  0  0
 20 19  1  0  0  0  0
 21 20  1  0  0  0  0
 21 22  1  0  0  0  0
 23 13  1  0  0  0  0
 24 28  1  0  0  0  0
 26 25  1  0  0  0  0
 27 24  1  0  0  0  0
 27 26  1  0  0  0  0
 28 25  1  0  0  0  0
 28 23  1  0  0  0  0
 29 31  1  0  0  0  0
 30 29  1  0  0  0  0
 31 27  1  0  0  0  0
 32 29  2  0  0  0  0
 33  2  1  0  0  0  0
 34 33  1  0  0  0  0
 35 34  1  0  0  0  0
 36 35  1  0  0  0  0
 37 55  1  0  0  0  0
 37 50  1  0  0  0  0
 38 44  1  0  0  0  0
 38 39  1  0  0  0  0
 39 55  1  0  0  0  0
 40 45  2  0  0  0  0
 41 36  1  0  0  0  0
 42 48  1  0  0  0  0
 42 51  1  0  0  0  0
 43 39  1  0  0  0  0
 44 39  1  0  0  0  0
 45 47  2  0  0  0  0
 45 41  1  0  0  0  0
 46 37  1  0  0  0  0
 48 43  1  0  0  0  0
 48 46  1  0  0  0  0
 49 37  1  0  0  0  0
 50 41  1  0  0  0  0
 51 38  1  0  0  0  0
 51 49  1  0  0  0  0
 52 46  1  0  0  0  0
 52 45  1  0  0  0  0
 54 49  1  0  0  0  0
 55 53  1  0  0  0  0
M  END
>  <MODEL>
4

>  <REMARK>
 VINA RESULT:      -6.5      2.929      9.097
  Name = 
  12 active torsions:
  status: ('A' for Active; 'I' for Inactive)
    1  A    between atoms: C_2  and  C_44
    2  A    between atoms: C_4  and  C_40
    3  A    between atoms: N_8  and  C_43
    4  A    between atoms: C_16  and  C_17
    5  A    between atoms: C_19  and  C_40
    6  A    between atoms: C_27  and  C_54
    7  A    between atoms: N_32  and  C_48
    8  A    between atoms: C_33  and  N_36
    9  A    between atoms: C_33  and  C_52
   10  A    between atoms: C_35  and  C_43
   11  A    between atoms: C_35  and  C_51
   12  A    between atoms: C_51  and  C_54
                            x       y       z     vdW  Elec       q    Type
                         _______ _______ _______ _____ _____    ______ ____

>  <TORSDO>
F 12

$$$$
=
 OpenBabel11052415093D

 55 63  0  0  1  0  0  0  0  0999 V2000
  187.4030  177.9710  146.7140 C   0  0  0  0  0  3  0  0  0  0  0  0
  185.4110  179.0190  145.0580 C   0  0  0  0  0  0  0  0  0  0  0  0
  186.3690  178.1440  144.5320 C   0  0  0  0  0  3  0  0  0  0  0  0
  186.4540  178.8560  147.2350 C   0  0  0  0  0  3  0  0  0  0  0  0
  187.3740  177.6240  145.3550 C   0  0  0  0  0  0  0  0  0  0  0  0
  185.4600  179.3800  146.4070 C   0  0  0  0  0  3  0  0  0  0  0  0
  188.3490  176.6390  144.7850 C   0  0  2  0  0  3  0  0  0  0  0  0
  190.2730  179.3160  143.4470 C   0  0  0  0  0  1  0  0  0  0  0  0
  190.9850  177.7520  141.6590 C   0  0  2  0  0  3  0  0  0  0  0  0
  189.7780  177.0970  145.0240 C   0  0  2  0  0  3  0  0  0  0  0  0
  191.0820  178.0520  143.1500 C   0  0  2  0  0  3  0  0  0  0  0  0
  188.1120  176.3880  143.0090 S   0  0  0  0  0  0  0  0  0  0  0  0
  190.4750  176.3920  141.5410 N   0  0  0  0  0  0  0  0  0  0  0  0
  190.6250  176.8350  143.8510 N   0  0  2  0  0  0  0  0  0  0  0  0
  189.9010  176.0530  142.8510 C   0  0  1  0  0  3  0  0  0  0  0  0
  193.4120  177.0950  141.6300 C   0  0  0  0  0  1  0  0  0  0  0  0
  192.3280  177.8980  140.9320 C   0  0  0  0  0  3  0  0  0  0  0  0
  192.2470  177.5020  139.4650 C   0  0  0  0  0  1  0  0  0  0  0  0
  190.2930  177.4360  147.4440 C   0  0  0  0  0  1  0  0  0  0  0  0
  190.3560  176.4570  146.2880 C   0  0  2  0  0  3  0  0  0  0  0  0
  191.7860  175.9680  146.0820 C   0  0  0  0  0  2  0  0  0  0  0  0
  192.4300  175.6260  147.4130 C   0  0  0  0  0  1  0  0  0  0  0  0
  189.6030  176.1470  140.3760 C   0  0  0  0  0  2  0  0  0  0  0  0
  189.3380  177.1610  138.0860 C   0  0  0  0  0  2  0  0  0  0  0  0
  187.7630  177.7280  139.8390 C   0  0  0  0  0  2  0  0  0  0  0  0
  187.2530  178.3240  138.5460 C   0  0  0  0  0  2  0  0  0  0  0  0
  188.0650  177.6770  137.4390 C   0  0  2  0  0  3  0  0  0  0  0  0
  189.2150  177.4020  139.5840 C   0  0  1  0  0  3  0  0  0  0  0  0
  186.4800  176.6670  135.7340 C   0  0  0  0  0  0  0  0  0  0  0  0
  185.7810  175.4610  135.2150 C   0  0  0  0  0  1  0  0  0  0  0  0
  187.3350  176.5470  136.8750 N   0  0  0  0  0  2  0  0  0  0  0  0
  186.3160  177.7800  135.1660 O   0  0  0  0  0  0  0  0  0  0  0  0
  184.3160  179.5400  144.1950 C   0  0  0  0  0  2  0  0  0  0  0  0
  183.9030  178.5070  143.1570 C   0  0  0  0  0  2  0  0  0  0  0  0
  184.2610  178.9990  141.7610 C   0  0  0  0  0  2  0  0  0  0  0  0
  183.0380  178.9530  140.8570 C   0  0  0  0  0  2  0  0  0  0  0  0
  181.6320  177.2590  138.8230 C   0  0  2  0  0  0  0  0  0  0  0  0
  181.6480  176.5660  135.9990 C   0  0  2  0  0  3  0  0  0  0  0  0
  182.3790  177.8600  136.5000 C   0  0  2  0  0  0  0  0  0  0  0  0
  179.7150  177.5350  142.2650 O   0  0  0  0  0  0  0  0  0  0  0  0
  182.1410  177.8760  141.2630 N   0  0  0  0  0  0  0  0  0  0  0  0
  179.5140  177.8580  136.7860 C   0  0  0  0  0  2  0  0  0  0  0  0
  181.5560  179.1540  136.5010 C   0  0  0  0  0  2  0  0  0  0  0  0
  182.5420  177.3730  135.0890 C   0  0  0  0  0  2  0  0  0  0  0  0
  180.5340  178.5110  141.4700 S   0  0  0  0  0  0  0  0  0  0  0  0
  180.8600  178.6160  138.8140 C   0  0  1  0  0  3  0  0  0  0  0  0
  180.5800  179.8250  142.1990 O   0  0  0  0  0  0  0  0  0  0  0  0
  180.3520  178.9770  137.4020 C   0  0  2  0  0  3  0  0  0  0  0  0
  180.7180  176.1520  138.2060 C   0  0  2  0  0  3  0  0  0  0  0  0
  182.1040  176.8210  140.2380 C   0  0  0  0  0  2  0  0  0  0  0  0
  180.3120  176.5390  136.7720 C   0  0  2  0  0  3  0  0  0  0  0  0
  179.7800  178.7330  139.8760 C   0  0  0  0  0  2  0  0  0  0  0  0
  183.6720  176.2860  137.8540 O   0  0  0  0  0  1  0  0  0  0  0  0
  179.5080  175.7700  139.0540 C   0  0  0  0  0  1  0  0  0  0  0  0
  182.8820  177.4410  137.9000 C   0  0  2  0  0  3  0  0  0  0  0  0
  1  4  1  0  0  0  0
  2  6  1  0  0  0  0
  3  2  2  0  0  0  0
  3  5  1  0  0  0  0
  5  1  2  0  0  0  0
  6  4  2  0  0  0  0
  7 10  1  0  0  0  0
  7  5  1  6  0  0  0
  9 17  1  1  0  0  0
  9 11  1  0  0  0  0
 10 20  1  1  0  0  0
 11  8  1  6  0  0  0
 11 14  1  0  0  0  0
 12  7  1  0  0  0  0
 13  9  1  0  0  0  0
 13 15  1  0  0  0  0
 14 10  1  0  0  0  0
 15 12  1  0  0  0  0
 15 14  1  0  0  0  0
 17 16  1  0  0  0  0
 18 17  1  0  0  0  0
 20 19  1  0  0  0  0
 21 20  1  0  0  0  0
 21 22  1  0  0  0  0
 23 13  1  0  0  0  0
 24 28  1  0  0  0  0
 26 25  1  0  0  0  0
 27 24  1  0  0  0  0
 27 26  1  0  0  0  0
 28 25  1  0  0  0  0
 28 23  1  0  0  0  0
 29 31  1  0  0  0  0
 30 29  1  0  0  0  0
 31 27  1  0  0  0  0
 32 29  2  0  0  0  0
 33  2  1  0  0  0  0
 34 33  1  0  0  0  0
 35 34  1  0  0  0  0
 36 41  1  0  0  0  0
 36 35  1  0  0  0  0
 37 50  1  0  0  0  0
 38 39  1  0  0  0  0
 38 51  1  0  0  0  0
 39 43  1  0  0  0  0
 39 55  1  0  0  0  0
 41 45  1  0  0  0  0
 42 48  1  0  0  0  0
 43 48  1  0  0  0  0
 44 38  1  0  0  0  0
 44 39  1  0  0  0  0
 45 47  2  0  0  0  0
 45 40  2  0  0  0  0
 46 37  1  0  0  0  0
 46 52  1  0  0  0  0
 48 46  1  0  0  0  0
 49 37  1  0  0  0  0
 49 54  1  0  0  0  0
 50 41  1  0  0  0  0
 51 42  1  0  0  0  0
 51 49  1  0  0  0  0
 52 45  1  0  0  0  0
 53 55  1  0  0  0  0
 55 37  1  0  0  0  0
M  END
>  <MODEL>
5

>  <REMARK>
 VINA RESULT:      -5.9      3.051      8.955
  Name = 
  12 active torsions:
  status: ('A' for Active; 'I' for Inactive)
    1  A    between atoms: C_2  and  C_44
    2  A    between atoms: C_4  and  C_40
    3  A    between atoms: N_8  and  C_43
    4  A    between atoms: C_16  and  C_17
    5  A    between atoms: C_19  and  C_40
    6  A    between atoms: C_27  and  C_54
    7  A    between atoms: N_32  and  C_48
    8  A    between atoms: C_33  and  N_36
    9  A    between atoms: C_33  and  C_52
   10  A    between atoms: C_35  and  C_43
   11  A    between atoms: C_35  and  C_51
   12  A    between atoms: C_51  and  C_54
                            x       y       z     vdW  Elec       q    Type
                         _______ _______ _______ _____ _____    ______ ____

>  <TORSDO>
F 12

$$$$
=
 OpenBabel11052415093D

 55 63  0  0  1  0  0  0  0  0999 V2000
  189.6230  176.9580  139.8840 C   0  0  0  0  0  3  0  0  0  0  0  0
  187.3980  178.3340  140.8670 C   0  0  0  0  0  0  0  0  0  0  0  0
  187.6610  178.3220  139.4910 C   0  0  0  0  0  3  0  0  0  0  0  0
  189.3660  176.9820  141.2590 C   0  0  0  0  0  3  0  0  0  0  0  0
  188.7790  177.6430  138.9960 C   0  0  0  0  0  0  0  0  0  0  0  0
  188.2550  177.6700  141.7490 C   0  0  0  0  0  3  0  0  0  0  0  0
  189.0050  177.5900  137.5160 C   0  0  2  0  0  3  0  0  0  0  0  0
  188.7430  174.0420  137.6020 C   0  0  0  0  0  1  0  0  0  0  0  0
  190.2550  174.0030  135.6360 C   0  0  2  0  0  3  0  0  0  0  0  0
  188.0430  176.6140  136.8590 C   0  0  2  0  0  3  0  0  0  0  0  0
  188.8650  174.4000  136.1190 C   0  0  2  0  0  3  0  0  0  0  0  0
  190.6960  177.1020  137.0970 S   0  0  0  0  0  0  0  0  0  0  0  0
  190.8570  175.2030  135.0700 N   0  0  0  0  0  0  0  0  0  0  0  0
  188.7090  175.8360  135.8050 N   0  0  2  0  0  0  0  0  0  0  0  0
  190.0610  176.3350  135.5650 C   0  0  1  0  0  3  0  0  0  0  0  0
  191.3720  171.8980  134.8340 C   0  0  0  0  0  1  0  0  0  0  0  0
  190.2260  172.8670  134.6050 C   0  0  0  0  0  3  0  0  0  0  0  0
  188.9010  172.1170  134.5950 C   0  0  0  0  0  1  0  0  0  0  0  0
  185.6160  177.0760  137.2270 C   0  0  0  0  0  1  0  0  0  0  0  0
  186.8060  177.3390  136.3230 C   0  0  2  0  0  3  0  0  0  0  0  0
  186.4830  176.9400  134.8870 C   0  0  0  0  0  2  0  0  0  0  0  0
  184.9830  176.9570  134.6540 C   0  0  0  0  0  1  0  0  0  0  0  0
  192.3180  175.3180  135.2520 C   0  0  0  0  0  2  0  0  0  0  0  0
  194.0980  173.6190  135.7890 C   0  0  0  0  0  2  0  0  0  0  0  0
  193.4400  175.2380  137.4680 C   0  0  0  0  0  2  0  0  0  0  0  0
  194.6400  174.4840  137.9940 C   0  0  0  0  0  2  0  0  0  0  0  0
  195.2170  173.7350  136.8080 C   0  0  2  0  0  3  0  0  0  0  0  0
  192.9090  174.4000  136.3300 C   0  0  1  0  0  3  0  0  0  0  0  0
  197.6630  174.0270  136.2000 C   0  0  0  0  0  0  0  0  0  0  0  0
  198.7190  174.8610  135.5660 C   0  0  0  0  0  1  0  0  0  0  0  0
  196.3120  174.4960  136.2170 N   0  0  0  0  0  2  0  0  0  0  0  0
  197.9660  172.9150  136.7130 O   0  0  0  0  0  0  0  0  0  0  0  0
  186.1860  179.0200  141.3930 C   0  0  0  0  0  2  0  0  0  0  0  0
  185.3260  178.0610  142.2030 C   0  0  0  0  0  2  0  0  0  0  0  0
  183.8730  178.5160  142.1760 C   0  0  0  0  0  2  0  0  0  0  0  0
  183.2300  178.1430  140.8470 C   0  0  0  0  0  2  0  0  0  0  0  0
  180.8740  177.3860  139.1570 C   0  0  2  0  0  0  0  0  0  0  0  0
  179.4000  175.0830  138.1650 C   0  0  2  0  0  3  0  0  0  0  0  0
  180.8560  174.9110  138.7200 C   0  0  2  0  0  0  0  0  0  0  0  0
  181.9200  181.1790  138.8230 O   0  0  0  0  0  0  0  0  0  0  0  0
  182.2240  179.1310  140.4710 N   0  0  0  0  0  0  0  0  0  0  0  0
  180.6180  176.4710  136.3120 C   0  0  0  0  0  2  0  0  0  0  0  0
  181.9950  175.0180  137.6990 C   0  0  0  0  0  2  0  0  0  0  0  0
  180.0040  173.7190  138.3940 C   0  0  0  0  0  2  0  0  0  0  0  0
  182.7090  179.9130  138.9940 S   0  0  0  0  0  0  0  0  0  0  0  0
  182.0760  177.4470  138.1620 C   0  0  1  0  0  3  0  0  0  0  0  0
  184.1730  180.2470  139.0350 O   0  0  0  0  0  0  0  0  0  0  0  0
  181.9540  176.3850  137.0490 C   0  0  2  0  0  3  0  0  0  0  0  0
  179.5410  177.5020  138.3500 C   0  0  2  0  0  3  0  0  0  0  0  0
  180.9200  178.4830  140.2560 C   0  0  0  0  0  2  0  0  0  0  0  0
  179.4490  176.3690  137.3120 C   0  0  2  0  0  3  0  0  0  0  0  0
  182.3740  178.8350  137.6210 C   0  0  0  0  0  2  0  0  0  0  0  0
  179.8960  175.8170  140.7790 O   0  0  0  0  0  1  0  0  0  0  0  0
  179.2890  178.8700  137.7190 C   0  0  0  0  0  1  0  0  0  0  0  0
  180.9200  175.9770  139.8360 C   0  0  2  0  0  3  0  0  0  0  0  0
  1  4  1  0  0  0  0
  2 33  1  0  0  0  0
  2  6  1  0  0  0  0
  3  2  2  0  0  0  0
  4  6  2  0  0  0  0
  5  3  1  0  0  0  0
  5  1  2  0  0  0  0
  7  5  1  1  0  0  0
  9 17  1  6  0  0  0
  9 11  1  0  0  0  0
 10 20  1  6  0  0  0
 10  7  1  0  0  0  0
 11  8  1  1  0  0  0
 12  7  1  0  0  0  0
 13 23  1  0  0  0  0
 13 15  1  0  0  0  0
 13  9  1  0  0  0  0
 14 11  1  0  0  0  0
 14 10  1  0  0  0  0
 15 14  1  0  0  0  0
 15 12  1  0  0  0  0
 17 16  1  0  0  0  0
 18 17  1  0  0  0  0
 20 19  1  0  0  0  0
 21 20  1  0  0  0  0
 22 21  1  0  0  0  0
 23 28  1  0  0  0  0
 24 28  1  0  0  0  0
 24 27  1  0  0  0  0
 25 26  1  0  0  0  0
 27 26  1  0  0  0  0
 28 25  1  0  0  0  0
 29 31  1  0  0  0  0
 29 32  2  0  0  0  0
 30 29  1  0  0  0  0
 31 27  1  0  0  0  0
 33 34  1  0  0  0  0
 35 34  1  0  0  0  0
 36 35  1  0  0  0  0
 37 55  1  0  0  0  0
 37 50  1  0  0  0  0
 38 44  1  0  0  0  0
 38 39  1  0  0  0  0
 39 55  1  0  0  0  0
 40 45  2  0  0  0  0
 41 36  1  0  0  0  0
 42 48  1  0  0  0  0
 42 51  1  0  0  0  0
 43 39  1  0  0  0  0
 44 39  1  0  0  0  0
 45 47  2  0  0  0  0
 45 41  1  0  0  0  0
 46 37  1  0  0  0  0
 48 43  1  0  0  0  0
 48 46  1  0  0  0  0
 49 37  1  0  0  0  0
 50 41  1  0  0  0  0
 51 38  1  0  0  0  0
 51 49  1  0  0  0  0
 52 46  1  0  0  0  0
 52 45  1  0  0  0  0
 54 49  1  0  0  0  0
 55 53  1  0  0  0  0
M  END
>  <MODEL>
6

>  <REMARK>
 VINA RESULT:      -5.8      3.714      8.390
  Name = 
  12 active torsions:
  status: ('A' for Active; 'I' for Inactive)
    1  A    between atoms: C_2  and  C_44
    2  A    between atoms: C_4  and  C_40
    3  A    between atoms: N_8  and  C_43
    4  A    between atoms: C_16  and  C_17
    5  A    between atoms: C_19  and  C_40
    6  A    between atoms: C_27  and  C_54
    7  A    between atoms: N_32  and  C_48
    8  A    between atoms: C_33  and  N_36
    9  A    between atoms: C_33  and  C_52
   10  A    between atoms: C_35  and  C_43
   11  A    between atoms: C_35  and  C_51
   12  A    between atoms: C_51  and  C_54
                            x       y       z     vdW  Elec       q    Type
                         _______ _______ _______ _____ _____    ______ ____

>  <TORSDO>
F 12

$$$$
=
 OpenBabel11052415093D

 55 63  0  0  1  0  0  0  0  0999 V2000
  183.0650  175.5850  138.0880 C   0  0  0  0  0  3  0  0  0  0  0  0
  183.2750  177.6160  139.9950 C   0  0  0  0  0  0  0  0  0  0  0  0
  184.1790  177.5640  138.9260 C   0  0  0  0  0  3  0  0  0  0  0  0
  182.1720  175.6300  139.1630 C   0  0  0  0  0  3  0  0  0  0  0  0
  184.0830  176.5440  137.9740 C   0  0  0  0  0  0  0  0  0  0  0  0
  182.2780  176.6450  140.1160 C   0  0  0  0  0  3  0  0  0  0  0  0
  185.0200  176.5450  136.8050 C   0  0  2  0  0  3  0  0  0  0  0  0
  185.1920  172.9930  136.9370 C   0  0  0  0  0  1  0  0  0  0  0  0
  187.4720  173.1880  135.9810 C   0  0  2  0  0  3  0  0  0  0  0  0
  184.6400  175.4600  135.8110 C   0  0  2  0  0  3  0  0  0  0  0  0
  185.9890  173.3880  135.6920 C   0  0  2  0  0  3  0  0  0  0  0  0
  186.7400  176.2950  137.3040 S   0  0  0  0  0  0  0  0  0  0  0  0
  188.1220  174.4670  135.7250 N   0  0  0  0  0  0  0  0  0  0  0  0
  185.8330  174.7950  135.2670 N   0  0  2  0  0  0  0  0  0  0  0  0
  187.0520  175.4740  135.7020 C   0  0  1  0  0  3  0  0  0  0  0  0
  189.6120  172.0700  135.2800 C   0  0  0  0  0  1  0  0  0  0  0  0
  188.1010  172.0760  135.1330 C   0  0  0  0  0  3  0  0  0  0  0  0
  187.5380  170.7000  135.4590 C   0  0  0  0  0  1  0  0  0  0  0  0
  183.8010  177.5380  134.7080 C   0  0  0  0  0  1  0  0  0  0  0  0
  183.7550  176.0210  134.6960 C   0  0  2  0  0  3  0  0  0  0  0  0
  182.3150  175.5310  134.8040 C   0  0  0  0  0  2  0  0  0  0  0  0
  182.2700  174.0150  134.8520 C   0  0  0  0  0  1  0  0  0  0  0  0
  189.2710  174.7740  136.6000 C   0  0  0  0  0  2  0  0  0  0  0  0
  191.4900  175.9200  136.9280 C   0  0  0  0  0  2  0  0  0  0  0  0
  190.8190  175.2190  134.7070 C   0  0  0  0  0  2  0  0  0  0  0  0
  192.2520  175.6950  134.6300 C   0  0  0  0  0  2  0  0  0  0  0  0
  192.7340  175.8030  136.0650 C   0  0  2  0  0  3  0  0  0  0  0  0
  190.2850  175.7630  136.0100 C   0  0  1  0  0  3  0  0  0  0  0  0
  194.3840  174.5530  137.5320 C   0  0  0  0  0  0  0  0  0  0  0  0
  195.0690  173.2750  137.8610 C   0  0  0  0  0  1  0  0  0  0  0  0
  193.4550  174.5930  136.4450 N   0  0  0  0  0  2  0  0  0  0  0  0
  194.6250  175.5870  138.2130 O   0  0  0  0  0  0  0  0  0  0  0  0
  183.3480  178.7250  140.9860 C   0  0  0  0  0  2  0  0  0  0  0  0
  184.5420  178.5490  141.9120 C   0  0  0  0  0  2  0  0  0  0  0  0
  185.7160  179.3800  141.4120 C   0  0  0  0  0  2  0  0  0  0  0  0
  187.0000  178.9490  142.1070 C   0  0  0  0  0  2  0  0  0  0  0  0
  188.8410  177.2000  143.6990 C   0  0  2  0  0  0  0  0  0  0  0  0
  189.9030  176.8160  146.3780 C   0  0  2  0  0  3  0  0  0  0  0  0
  189.2460  178.1820  145.9770 C   0  0  2  0  0  0  0  0  0  0  0  0
  189.1490  176.6990  139.7940 O   0  0  0  0  0  0  0  0  0  0  0  0
  187.4580  177.6660  141.5860 N   0  0  0  0  0  0  0  0  0  0  0  0
  191.6840  177.5190  144.5970 C   0  0  0  0  0  2  0  0  0  0  0  0
  190.1870  179.2550  145.4170 C   0  0  0  0  0  2  0  0  0  0  0  0
  189.6150  177.8880  147.4020 C   0  0  0  0  0  2  0  0  0  0  0  0
  188.9070  177.9070  140.6530 S   0  0  0  0  0  0  0  0  0  0  0  0
  189.7500  178.3470  143.1570 C   0  0  1  0  0  3  0  0  0  0  0  0
  188.7690  179.1180  139.7740 O   0  0  0  0  0  0  0  0  0  0  0  0
  190.8550  178.7280  144.1650 C   0  0  2  0  0  3  0  0  0  0  0  0
  189.7390  175.9870  144.1000 C   0  0  2  0  0  3  0  0  0  0  0  0
  187.7540  176.7370  142.6890 C   0  0  0  0  0  2  0  0  0  0  0  0
  190.7670  176.4170  145.1620 C   0  0  2  0  0  3  0  0  0  0  0  0
  190.2870  178.1160  141.7550 C   0  0  0  0  0  2  0  0  0  0  0  0
  187.2700  176.8040  145.5500 O   0  0  0  0  0  1  0  0  0  0  0  0
  190.4030  175.2640  142.9300 C   0  0  0  0  0  1  0  0  0  0  0  0
  188.1410  177.7460  144.9880 C   0  0  2  0  0  3  0  0  0  0  0  0
  1  4  1  0  0  0  0
  2  6  1  0  0  0  0
  2 33  1  0  0  0  0
  3  2  2  0  0  0  0
  4  6  2  0  0  0  0
  5  1  2  0  0  0  0
  5  3  1  0  0  0  0
  7 12  1  0  0  0  0
  7  5  1  1  0  0  0
  9 17  1  6  0  0  0
 10 20  1  6  0  0  0
 10  7  1  0  0  0  0
 11  9  1  0  0  0  0
 11  8  1  1  0  0  0
 13  9  1  0  0  0  0
 13 23  1  0  0  0  0
 14 11  1  0  0  0  0
 14 15  1  0  0  0  0
 14 10  1  0  0  0  0
 15 13  1  0  0  0  0
 15 12  1  0  0  0  0
 17 16  1  0  0  0  0
 17 18  1  0  0  0  0
 20 19  1  0  0  0  0
 20 21  1  0  0  0  0
 21 22  1  0  0  0  0
 25 28  1  0  0  0  0
 26 25  1  0  0  0  0
 26 27  1  0  0  0  0
 27 31  1  0  0  0  0
 27 24  1  0  0  0  0
 28 23  1  0  0  0  0
 28 24  1  0  0  0  0
 29 30  1  0  0  0  0
 29 32  2  0  0  0  0
 31 29  1  0  0  0  0
 33 34  1  0  0  0  0
 35 34  1  0  0  0  0
 35 36  1  0  0  0  0
 37 49  1  0  0  0  0
 37 55  1  0  0  0  0
 38 44  1  0  0  0  0
 39 38  1  0  0  0  0
 39 44  1  0  0  0  0
 40 45  2  0  0  0  0
 41 36  1  0  0  0  0
 41 50  1  0  0  0  0
 42 51  1  0  0  0  0
 43 39  1  0  0  0  0
 45 41  1  0  0  0  0
 45 52  1  0  0  0  0
 46 37  1  0  0  0  0
 46 48  1  0  0  0  0
 47 45  2  0  0  0  0
 48 42  1  0  0  0  0
 48 43  1  0  0  0  0
 49 51  1  0  0  0  0
 50 37  1  0  0  0  0
 51 38  1  0  0  0  0
 52 46  1  0  0  0  0
 54 49  1  0  0  0  0
 55 53  1  0  0  0  0
 55 39  1  0  0  0  0
M  END
>  <MODEL>
7

>  <REMARK>
 VINA RESULT:      -5.7      2.588      4.666
  Name = 
  12 active torsions:
  status: ('A' for Active; 'I' for Inactive)
    1  A    between atoms: C_2  and  C_44
    2  A    between atoms: C_4  and  C_40
    3  A    between atoms: N_8  and  C_43
    4  A    between atoms: C_16  and  C_17
    5  A    between atoms: C_19  and  C_40
    6  A    between atoms: C_27  and  C_54
    7  A    between atoms: N_32  and  C_48
    8  A    between atoms: C_33  and  N_36
    9  A    between atoms: C_33  and  C_52
   10  A    between atoms: C_35  and  C_43
   11  A    between atoms: C_35  and  C_51
   12  A    between atoms: C_51  and  C_54
                            x       y       z     vdW  Elec       q    Type
                         _______ _______ _______ _____ _____    ______ ____

>  <TORSDO>
F 12

$$$$
=
 OpenBabel11052415093D

 55 63  0  0  1  0  0  0  0  0999 V2000
  190.5170  176.6380  139.6090 C   0  0  0  0  0  3  0  0  0  0  0  0
  188.2830  177.9550  140.6500 C   0  0  0  0  0  0  0  0  0  0  0  0
  188.4490  177.8490  139.2630 C   0  0  0  0  0  3  0  0  0  0  0  0
  190.3570  176.7570  140.9930 C   0  0  0  0  0  3  0  0  0  0  0  0
  189.5700  177.1990  138.7380 C   0  0  0  0  0  0  0  0  0  0  0  0
  189.2410  177.4160  141.5120 C   0  0  0  0  0  3  0  0  0  0  0  0
  189.6940  177.0400  137.2530 C   0  0  2  0  0  3  0  0  0  0  0  0
  189.3030  173.5200  137.5940 C   0  0  0  0  0  1  0  0  0  0  0  0
  190.6760  173.2900  135.5420 C   0  0  2  0  0  3  0  0  0  0  0  0
  188.6520  176.0660  136.7270 C   0  0  2  0  0  3  0  0  0  0  0  0
  189.3380  173.7760  136.0860 C   0  0  2  0  0  3  0  0  0  0  0  0
  191.3330  176.4560  136.7590 S   0  0  0  0  0  0  0  0  0  0  0  0
  191.2850  174.4240  134.8590 N   0  0  0  0  0  0  0  0  0  0  0  0
  189.2160  175.1930  135.6870 N   0  0  2  0  0  0  0  0  0  0  0  0
  190.5670  175.6190  135.3270 C   0  0  1  0  0  3  0  0  0  0  0  0
  191.5500  171.0140  134.9280 C   0  0  0  0  0  1  0  0  0  0  0  0
  190.5350  172.0920  134.5940 C   0  0  0  0  0  3  0  0  0  0  0  0
  189.1300  171.5060  134.5940 C   0  0  0  0  0  1  0  0  0  0  0  0
  186.6790  175.9610  135.1990 C   0  0  0  0  0  1  0  0  0  0  0  0
  187.4110  176.8070  136.2250 C   0  0  2  0  0  3  0  0  0  0  0  0
  187.7530  178.1740  135.6420 C   0  0  0  0  0  2  0  0  0  0  0  0
  187.0280  179.2720  136.3990 C   0  0  0  0  0  1  0  0  0  0  0  0
  192.7570  174.4890  134.9380 C   0  0  0  0  0  2  0  0  0  0  0  0
  194.6330  172.8690  135.3890 C   0  0  0  0  0  2  0  0  0  0  0  0
  193.8580  174.3310  137.1600 C   0  0  0  0  0  2  0  0  0  0  0  0
  195.0960  173.6180  137.6540 C   0  0  0  0  0  2  0  0  0  0  0  0
  195.7310  172.9850  136.4300 C   0  0  2  0  0  3  0  0  0  0  0  0
  193.3910  173.5390  135.9620 C   0  0  1  0  0  3  0  0  0  0  0  0
  198.1690  173.6510  136.2030 C   0  0  0  0  0  0  0  0  0  0  0  0
  199.1800  174.5710  135.6180 C   0  0  0  0  0  1  0  0  0  0  0  0
  196.7830  173.8480  135.9060 N   0  0  0  0  0  2  0  0  0  0  0  0
  198.5400  172.7060  136.9510 O   0  0  0  0  0  0  0  0  0  0  0  0
  187.0700  178.6100  141.2130 C   0  0  0  0  0  2  0  0  0  0  0  0
  185.9140  178.5550  140.2240 C   0  0  0  0  0  2  0  0  0  0  0  0
  184.6180  178.9570  140.9170 C   0  0  0  0  0  2  0  0  0  0  0  0
  183.4320  178.7160  139.9940 C   0  0  0  0  0  2  0  0  0  0  0  0
  182.1360  176.6140  138.2950 C   0  0  2  0  0  0  0  0  0  0  0  0
  182.2920  175.3510  135.6800 C   0  0  2  0  0  3  0  0  0  0  0  0
  182.9900  176.7320  135.9340 C   0  0  2  0  0  0  0  0  0  0  0  0
  180.0550  177.5670  141.5130 O   0  0  0  0  0  0  0  0  0  0  0  0
  182.5240  177.7320  140.5740 N   0  0  0  0  0  0  0  0  0  0  0  0
  180.1150  176.7430  136.0830 C   0  0  0  0  0  2  0  0  0  0  0  0
  182.1600  177.9850  135.6290 C   0  0  0  0  0  2  0  0  0  0  0  0
  183.2240  175.9670  134.6640 C   0  0  0  0  0  2  0  0  0  0  0  0
  180.9050  178.3710  140.5710 S   0  0  0  0  0  0  0  0  0  0  0  0
  181.3580  177.9270  137.9690 C   0  0  1  0  0  3  0  0  0  0  0  0
  180.9080  179.8070  141.0120 O   0  0  0  0  0  0  0  0  0  0  0  0
  180.9160  177.9800  136.4910 C   0  0  2  0  0  3  0  0  0  0  0  0
  181.2610  175.3890  137.8800 C   0  0  2  0  0  3  0  0  0  0  0  0
  182.5430  176.4870  139.7900 C   0  0  0  0  0  2  0  0  0  0  0  0
  180.9210  175.4640  136.3810 C   0  0  2  0  0  3  0  0  0  0  0  0
  180.2270  178.2450  138.9330 C   0  0  0  0  0  2  0  0  0  0  0  0
  184.2270  175.4950  137.6440 O   0  0  0  0  0  1  0  0  0  0  0  0
  180.0130  175.1710  138.7330 C   0  0  0  0  0  1  0  0  0  0  0  0
  183.4280  176.6210  137.4120 C   0  0  2  0  0  3  0  0  0  0  0  0
  1  4  1  0  0  0  0
  2 33  1  0  0  0  0
  2  6  1  0  0  0  0
  3  2  2  0  0  0  0
  4  6  2  0  0  0  0
  5  3  1  0  0  0  0
  5  1  2  0  0  0  0
  7  5  1  1  0  0  0
  9 17  1  6  0  0  0
  9 11  1  0  0  0  0
 10 20  1  6  0  0  0
 10  7  1  0  0  0  0
 11  8  1  1  0  0  0
 12  7  1  0  0  0  0
 13 23  1  0  0  0  0
 13 15  1  0  0  0  0
 13  9  1  0  0  0  0
 14 11  1  0  0  0  0
 14 10  1  0  0  0  0
 15 14  1  0  0  0  0
 15 12  1  0  0  0  0
 17 16  1  0  0  0  0
 18 17  1  0  0  0  0
 19 20  1  0  0  0  0
 21 20  1  0  0  0  0
 21 22  1  0  0  0  0
 23 28  1  0  0  0  0
 24 28  1  0  0  0  0
 24 27  1  0  0  0  0
 25 26  1  0  0  0  0
 27 26  1  0  0  0  0
 28 25  1  0  0  0  0
 29 32  2  0  0  0  0
 30 29  1  0  0  0  0
 31 29  1  0  0  0  0
 31 27  1  0  0  0  0
 34 35  1  0  0  0  0
 34 33  1  0  0  0  0
 36 41  1  0  0  0  0
 36 35  1  0  0  0  0
 37 50  1  0  0  0  0
 38 39  1  0  0  0  0
 38 51  1  0  0  0  0
 39 55  1  0  0  0  0
 42 51  1  0  0  0  0
 42 48  1  0  0  0  0
 43 39  1  0  0  0  0
 43 48  1  0  0  0  0
 44 38  1  0  0  0  0
 44 39  1  0  0  0  0
 45 41  1  0  0  0  0
 45 47  2  0  0  0  0
 45 40  2  0  0  0  0
 46 37  1  0  0  0  0
 46 52  1  0  0  0  0
 48 46  1  0  0  0  0
 49 37  1  0  0  0  0
 49 54  1  0  0  0  0
 50 41  1  0  0  0  0
 51 49  1  0  0  0  0
 52 45  1  0  0  0  0
 55 53  1  0  0  0  0
 55 37  1  0  0  0  0
M  END
>  <MODEL>
8

>  <REMARK>
 VINA RESULT:      -5.1      3.960      8.665
  Name = 
  12 active torsions:
  status: ('A' for Active; 'I' for Inactive)
    1  A    between atoms: C_2  and  C_44
    2  A    between atoms: C_4  and  C_40
    3  A    between atoms: N_8  and  C_43
    4  A    between atoms: C_16  and  C_17
    5  A    between atoms: C_19  and  C_40
    6  A    between atoms: C_27  and  C_54
    7  A    between atoms: N_32  and  C_48
    8  A    between atoms: C_33  and  N_36
    9  A    between atoms: C_33  and  C_52
   10  A    between atoms: C_35  and  C_43
   11  A    between atoms: C_35  and  C_51
   12  A    between atoms: C_51  and  C_54
                            x       y       z     vdW  Elec       q    Type
                         _______ _______ _______ _____ _____    ______ ____

>  <TORSDO>
F 12

$$$$
=
 OpenBabel11052415093D

 55 63  0  0  1  0  0  0  0  0999 V2000
  181.5990  178.4740  141.8750 C   0  0  0  0  0  3  0  0  0  0  0  0
  184.3610  178.8630  142.0320 C   0  0  0  0  0  0  0  0  0  0  0  0
  183.7520  178.6770  140.7850 C   0  0  0  0  0  3  0  0  0  0  0  0
  182.2110  178.6460  143.1200 C   0  0  0  0  0  3  0  0  0  0  0  0
  182.3700  178.4720  140.7020 C   0  0  0  0  0  0  0  0  0  0  0  0
  183.5910  178.8400  143.1980 C   0  0  0  0  0  3  0  0  0  0  0  0
  181.7310  178.3400  139.3540 C   0  0  2  0  0  3  0  0  0  0  0  0
  180.3920  175.1810  140.2970 C   0  0  0  0  0  1  0  0  0  0  0  0
  180.4910  174.5570  137.8990 C   0  0  2  0  0  3  0  0  0  0  0  0
  180.3070  177.8240  139.4820 C   0  0  2  0  0  3  0  0  0  0  0  0
  179.8070  175.4680  138.9130 C   0  0  2  0  0  3  0  0  0  0  0  0
  182.6520  177.2280  138.2640 S   0  0  0  0  0  0  0  0  0  0  0  0
  181.0530  175.4260  136.8730 N   0  0  0  0  0  0  0  0  0  0  0  0
  179.9960  176.8500  138.4250 N   0  0  2  0  0  0  0  0  0  0  0  0
  181.0800  176.7780  137.4490 C   0  0  1  0  0  3  0  0  0  0  0  0
  179.2460  173.8610  135.8290 C   0  0  0  0  0  1  0  0  0  0  0  0
  179.5350  173.5280  137.2820 C   0  0  0  0  0  3  0  0  0  0  0  0
  180.0530  172.1020  137.3980 C   0  0  0  0  0  1  0  0  0  0  0  0
  179.7860  180.0970  138.5890 C   0  0  0  0  0  1  0  0  0  0  0  0
  179.3030  178.9790  139.4930 C   0  0  2  0  0  3  0  0  0  0  0  0
  179.0460  179.5050  140.9010 C   0  0  0  0  0  2  0  0  0  0  0  0
  179.3260  180.9950  140.9720 C   0  0  0  0  0  1  0  0  0  0  0  0
  182.3200  174.9570  136.2780 C   0  0  0  0  0  2  0  0  0  0  0  0
  183.5440  172.8050  135.8090 C   0  0  0  0  0  2  0  0  0  0  0  0
  183.9480  173.9880  137.8860 C   0  0  0  0  0  2  0  0  0  0  0  0
  184.9440  172.8550  137.7950 C   0  0  0  0  0  2  0  0  0  0  0  0
  184.8850  172.3600  136.3620 C   0  0  2  0  0  3  0  0  0  0  0  0
  182.8730  173.6580  136.8780 C   0  0  1  0  0  3  0  0  0  0  0  0
  187.2980  172.5120  135.5920 C   0  0  0  0  0  0  0  0  0  0  0  0
  188.3160  173.1920  134.7470 C   0  0  0  0  0  1  0  0  0  0  0  0
  185.9450  172.9770  135.5730 N   0  0  0  0  0  2  0  0  0  0  0  0
  187.6340  171.5340  136.3130 O   0  0  0  0  0  0  0  0  0  0  0  0
  185.8240  179.1230  142.1210 C   0  0  0  0  0  2  0  0  0  0  0  0
  186.4470  179.2050  140.7340 C   0  0  0  0  0  2  0  0  0  0  0  0
  187.1640  177.9020  140.4080 C   0  0  0  0  0  2  0  0  0  0  0  0
  188.6700  178.0870  140.5210 C   0  0  0  0  0  2  0  0  0  0  0  0
  189.7960  176.8520  143.0100 C   0  0  2  0  0  0  0  0  0  0  0  0
  189.7200  177.0450  145.9100 C   0  0  2  0  0  3  0  0  0  0  0  0
  189.2220  178.2390  145.0250 C   0  0  2  0  0  0  0  0  0  0  0  0
  191.6510  175.7460  139.7030 O   0  0  0  0  0  0  0  0  0  0  0  0
  189.3490  176.7960  140.4810 N   0  0  0  0  0  0  0  0  0  0  0  0
  192.0330  177.6420  144.8440 C   0  0  0  0  0  2  0  0  0  0  0  0
  190.2640  179.3060  144.6660 C   0  0  0  0  0  2  0  0  0  0  0  0
  189.0070  178.2310  146.5110 C   0  0  0  0  0  2  0  0  0  0  0  0
  191.0390  177.0440  140.1460 S   0  0  0  0  0  0  0  0  0  0  0  0
  190.7990  177.9900  142.6400 C   0  0  1  0  0  3  0  0  0  0  0  0
  191.2130  178.0670  139.0600 O   0  0  0  0  0  0  0  0  0  0  0  0
  191.3960  178.6580  143.8970 C   0  0  2  0  0  3  0  0  0  0  0  0
  190.5090  175.8340  143.9560 C   0  0  2  0  0  3  0  0  0  0  0  0
  189.2200  176.1050  141.7740 C   0  0  0  0  0  2  0  0  0  0  0  0
  191.0120  176.5510  145.2220 C   0  0  2  0  0  3  0  0  0  0  0  0
  191.8570  177.5920  141.6260 C   0  0  0  0  0  2  0  0  0  0  0  0
  187.6370  176.5910  144.1580 O   0  0  0  0  0  1  0  0  0  0  0  0
  191.6120  175.0080  143.2980 C   0  0  0  0  0  1  0  0  0  0  0  0
  188.6210  177.5200  143.7970 C   0  0  2  0  0  3  0  0  0  0  0  0
  1  4  1  0  0  0  0
  2 33  1  0  0  0  0
  2  6  1  0  0  0  0
  3  2  2  0  0  0  0
  4  6  2  0  0  0  0
  5  3  1  0  0  0  0
  5  1  2  0  0  0  0
  7 10  1  0  0  0  0
  7  5  1  1  0  0  0
  9 17  1  6  0  0  0
  9 11  1  0  0  0  0
 10 20  1  6  0  0  0
 11  8  1  1  0  0  0
 12  7  1  0  0  0  0
 13 15  1  0  0  0  0
 13  9  1  0  0  0  0
 14 11  1  0  0  0  0
 14 10  1  0  0  0  0
 15 12  1  0  0  0  0
 15 14  1  0  0  0  0
 16 17  1  0  0  0  0
 17 18  1  0  0  0  0
 19 20  1  0  0  0  0
 20 21  1  0  0  0  0
 21 22  1  0  0  0  0
 23 13  1  0  0  0  0
 23 28  1  0  0  0  0
 24 27  1  0  0  0  0
 24 28  1  0  0  0  0
 26 25  1  0  0  0  0
 27 26  1  0  0  0  0
 28 25  1  0  0  0  0
 29 32  2  0  0  0  0
 30 29  1  0  0  0  0
 31 29  1  0  0  0  0
 31 27  1  0  0  0  0
 34 33  1  0  0  0  0
 35 36  1  0  0  0  0
 35 34  1  0  0  0  0
 37 55  1  0  0  0  0
 37 49  1  0  0  0  0
 38 44  1  0  0  0  0
 39 38  1  0  0  0  0
 39 44  1  0  0  0  0
 40 45  2  0  0  0  0
 41 36  1  0  0  0  0
 41 50  1  0  0  0  0
 42 51  1  0  0  0  0
 43 39  1  0  0  0  0
 45 41  1  0  0  0  0
 45 52  1  0  0  0  0
 46 37  1  0  0  0  0
 46 48  1  0  0  0  0
 47 45  2  0  0  0  0
 48 43  1  0  0  0  0
 48 42  1  0  0  0  0
 49 51  1  0  0  0  0
 50 37  1  0  0  0  0
 51 38  1  0  0  0  0
 52 46  1  0  0  0  0
 54 49  1  0  0  0  0
 55 53  1  0  0  0  0
 55 39  1  0  0  0  0
M  END
>  <MODEL>
9

>  <REMARK>
 VINA RESULT:      -4.6      2.755      4.587
  Name = 
  12 active torsions:
  status: ('A' for Active; 'I' for Inactive)
    1  A    between atoms: C_2  and  C_44
    2  A    between atoms: C_4  and  C_40
    3  A    between atoms: N_8  and  C_43
    4  A    between atoms: C_16  and  C_17
    5  A    between atoms: C_19  and  C_40
    6  A    between atoms: C_27  and  C_54
    7  A    between atoms: N_32  and  C_48
    8  A    between atoms: C_33  and  N_36
    9  A    between atoms: C_33  and  C_52
   10  A    between atoms: C_35  and  C_43
   11  A    between atoms: C_35  and  C_51
   12  A    between atoms: C_51  and  C_54
                            x       y       z     vdW  Elec       q    Type
                         _______ _______ _______ _____ _____    ______ ____

>  <TORSDO>
F 12

$$$$
