=
 OpenBabel11052412183D

 30 35  0  0  1  0  0  0  0  0999 V2000
  188.2070  179.0450  138.5400 C   0  0  0  0  0  2  0  0  0  0  0  0
  186.7980  177.3840  143.7510 N   0  0  0  0  0  2  0  0  0  0  0  0
  188.2110  177.8910  139.4540 N   0  0  0  0  0  0  0  0  0  0  0  0
  189.0050  178.7710  137.2660 C   0  0  0  0  0  2  0  0  0  0  0  0
  189.4290  175.1540  137.0610 C   0  0  0  0  0  2  0  0  0  0  0  0
  190.7110  177.7110  140.5570 C   0  0  1  0  0  3  0  0  0  0  0  0
  188.5600  176.2690  137.6440 C   0  0  2  0  0  3  0  0  0  0  0  0
  189.4890  177.0740  135.5810 N   0  0  0  0  0  2  0  0  0  0  0  0
  189.9960  177.1220  141.7620 C   0  0  1  0  0  3  0  0  0  0  0  0
  187.8180  176.7960  142.9570 C   0  0  0  0  0  0  0  0  0  0  0  0
  188.5710  177.4490  136.6390 C   0  0  2  0  0  3  0  0  0  0  0  0
  188.9330  176.6680  139.0890 C   0  0  1  0  0  3  0  0  0  0  0  0
  191.0480  177.4640  143.1710 S   0  0  0  0  0  0  0  0  0  0  0  0
  192.0940  177.8630  140.7800 O   0  0  0  0  0  0  0  0  0  0  0  0
  190.8250  175.1900  135.0680 N   0  0  0  0  0  2  0  0  0  0  0  0
  186.4540  178.7710  143.5040 C   0  0  2  0  0  3  0  0  0  0  0  0
  185.4670  179.2390  144.5510 C   0  0  0  0  0  1  0  0  0  0  0  0
  189.9250  175.7490  135.8040 C   0  0  0  0  0  0  0  0  0  0  0  0
  187.6990  178.0510  140.7980 C   0  0  0  0  0  0  0  0  0  0  0  0
  188.0340  175.5570  143.0290 O   0  0  0  0  0  0  0  0  0  0  0  0
  188.5720  177.6700  141.9970 C   0  0  2  0  0  3  0  0  0  0  0  0
  192.4080  177.2510  142.0040 C   0  0  0  0  0  2  0  0  0  0  0  0
  191.0730  175.6220  139.4320 O   0  0  0  0  0  1  0  0  0  0  0  0
  185.8660  178.8950  142.2120 O   0  0  0  0  0  0  0  0  0  0  0  0
  186.4540  178.5890  140.9640 C   0  0  0  0  0  0  0  0  0  0  0  0
  190.4460  176.8640  139.3090 C   0  0  2  0  0  3  0  0  0  0  0  0
  185.6590  178.8390  139.8010 N   0  0  0  0  0  2  0  0  0  0  0  0
  183.7840  178.4340  138.3270 C   0  0  0  0  0  2  0  0  0  0  0  0
  184.2320  178.5700  139.7670 C   0  0  0  0  0  3  0  0  0  0  0  0
  183.5260  179.7200  139.0810 C   0  0  0  0  0  2  0  0  0  0  0  0
  1  3  1  0  0  0  0
  3 19  1  0  0  0  0
  4  1  1  0  0  0  0
  6 14  1  1  0  0  0
  6  9  1  0  0  0  0
  7  5  1  6  0  0  0
  7 12  1  0  0  0  0
  8 18  1  0  0  0  0
  8 11  1  0  0  0  0
  9 21  1  0  0  0  0
  9 13  1  1  0  0  0
 10 20  2  0  0  0  0
 10  2  1  0  0  0  0
 11  4  1  1  0  0  0
 11  7  1  0  0  0  0
 12 26  1  0  0  0  0
 12  3  1  6  0  0  0
 14 22  1  0  0  0  0
 15 18  2  0  0  0  0
 16  2  1  0  0  0  0
 16 17  1  1  0  0  0
 18  5  1  0  0  0  0
 19 25  2  0  0  0  0
 21 19  1  6  0  0  0
 21 10  1  0  0  0  0
 22 13  1  0  0  0  0
 24 16  1  0  0  0  0
 25 24  1  0  0  0  0
 26 23  1  1  0  0  0
 26  6  1  0  0  0  0
 27 25  1  0  0  0  0
 28 30  1  0  0  0  0
 28 29  1  0  0  0  0
 29 27  1  0  0  0  0
 30 29  1  0  0  0  0
M  END
>  <MODEL>
1

>  <REMARK>
 VINA RESULT:      -6.3      0.000      0.000
  Name = 
  2 active torsions:
  status: ('A' for Active; 'I' for Inactive)
    1  A    between atoms: C_14  and  N_22
    2  A    between atoms: N_22  and  C_29
                            x       y       z     vdW  Elec       q    Type
                         _______ _______ _______ _____ _____    ______ ____

>  <TORSDO>
F 2

$$$$
=
 OpenBabel11052412183D

 30 35  0  0  1  0  0  0  0  0999 V2000
  189.5710  173.5020  136.7070 C   0  0  0  0  0  2  0  0  0  0  0  0
  194.9140  175.0900  137.6170 N   0  0  0  0  0  2  0  0  0  0  0  0
  190.5070  174.6320  136.5780 N   0  0  1  0  0  0  0  0  0  0  0  0
  188.1270  173.9170  136.4270 C   0  0  0  0  0  2  0  0  0  0  0  0
  188.2850  177.1200  134.6880 C   0  0  0  0  0  2  0  0  0  0  0  0
  190.1220  176.2820  138.7280 C   0  0  1  0  0  3  0  0  0  0  0  0
  189.0620  175.8410  135.0040 C   0  0  2  0  0  3  0  0  0  0  0  0
  186.7270  175.2830  134.9690 N   0  0  0  0  0  2  0  0  0  0  0  0
  191.5960  176.6170  138.5700 C   0  0  1  0  0  3  0  0  0  0  0  0
  193.8000  175.9690  137.5700 C   0  0  0  0  0  0  0  0  0  0  0  0
  188.0380  174.6820  135.1090 C   0  0  2  0  0  3  0  0  0  0  0  0
  190.0050  175.9620  136.2210 C   0  0  1  0  0  3  0  0  0  0  0  0
  192.1570  177.1330  140.1920 S   0  0  0  0  0  0  0  0  0  0  0  0
  189.5480  176.9150  139.8480 O   0  0  0  0  0  0  0  0  0  0  0  0
  185.8770  177.4600  134.5940 N   0  0  0  0  0  2  0  0  0  0  0  0
  194.6790  173.7090  137.9920 C   0  0  2  0  0  3  0  0  0  0  0  0
  196.0050  172.9920  138.1300 C   0  0  0  0  0  1  0  0  0  0  0  0
  186.8830  176.6560  134.6750 C   0  0  0  0  0  0  0  0  0  0  0  0
  191.8730  174.4730  137.0250 C   0  0  1  0  0  3  0  0  0  0  0  0
  193.9340  177.1290  137.0970 O   0  0  0  0  0  0  0  0  0  0  0  0
  192.4650  175.4610  138.0340 C   0  0  2  0  0  3  0  0  0  0  0  0
  190.4940  177.8100  140.3760 C   0  0  0  0  0  2  0  0  0  0  0  0
  189.3120  178.0120  137.2750 O   0  0  0  0  0  1  0  0  0  0  0  0
  193.8970  173.0670  136.9890 O   0  0  0  0  0  0  0  0  0  0  0  0
  192.5920  173.4050  136.5660 C   0  0  0  0  0  0  0  0  0  0  0  0
  189.3530  176.6260  137.4490 C   0  0  2  0  0  3  0  0  0  0  0  0
  192.0080  172.5730  135.5580 N   0  0  0  0  0  0  0  0  0  0  0  0
  191.9410  170.3550  134.5940 C   0  0  0  0  0  2  0  0  0  0  0  0
  192.7850  171.5920  134.8200 C   0  0  0  0  0  3  0  0  0  0  0  0
  192.9880  170.3670  135.6860 C   0  0  0  0  0  2  0  0  0  0  0  0
  2 16  1  0  0  0  0
  3  1  1  1  0  0  0
  3 19  1  0  0  0  0
  4  1  1  0  0  0  0
  6 14  1  1  0  0  0
  7  5  1  1  0  0  0
  7 11  1  0  0  0  0
  7 12  1  0  0  0  0
  8 11  1  0  0  0  0
  9  6  1  0  0  0  0
  9 13  1  1  0  0  0
 10  2  1  0  0  0  0
 10 21  1  0  0  0  0
 11  4  1  1  0  0  0
 12  3  1  0  0  0  0
 12 26  1  0  0  0  0
 13 22  1  0  0  0  0
 14 22  1  0  0  0  0
 15 18  2  0  0  0  0
 16 17  1  0  0  0  0
 18  5  1  0  0  0  0
 18  8  1  0  0  0  0
 19 21  1  0  0  0  0
 20 10  2  0  0  0  0
 21  9  1  0  0  0  0
 23 26  1  0  0  0  0
 24 16  1  0  0  0  0
 25 24  1  0  0  0  0
 25 19  1  0  0  0  0
 26  6  1  0  0  0  0
 27 25  2  0  0  0  0
 28 29  1  0  0  0  0
 28 30  1  0  0  0  0
 29 27  1  0  0  0  0
 29 30  1  0  0  0  0
M  END
>  <MODEL>
2

>  <REMARK>
 VINA RESULT:      -5.2      3.856      7.456
  Name = 
  2 active torsions:
  status: ('A' for Active; 'I' for Inactive)
    1  A    between atoms: C_14  and  N_22
    2  A    between atoms: N_22  and  C_29
                            x       y       z     vdW  Elec       q    Type
                         _______ _______ _______ _____ _____    ______ ____

>  <TORSDO>
F 2

$$$$
=
 OpenBabel11052412183D

 30 35  0  0  1  0  0  0  0  0999 V2000
  184.5700  178.3480  138.5370 C   0  0  0  0  0  2  0  0  0  0  0  0
  180.6300  174.6300  136.9420 N   0  0  0  0  0  2  0  0  0  0  0  0
  183.4420  177.5370  139.0270 N   0  0  0  0  0  0  0  0  0  0  0  0
  185.0580  179.3450  139.5870 C   0  0  0  0  0  2  0  0  0  0  0  0
  183.7120  178.2290  142.7890 C   0  0  0  0  0  2  0  0  0  0  0  0
  181.2350  179.1540  139.1270 C   0  0  1  0  0  3  0  0  0  0  0  0
  184.0990  177.7750  141.3810 C   0  0  2  0  0  3  0  0  0  0  0  0
  185.5220  179.6180  141.9670 N   0  0  0  0  0  2  0  0  0  0  0  0
  180.4510  177.8830  138.8470 C   0  0  1  0  0  3  0  0  0  0  0  0
  180.5180  175.5080  138.0510 C   0  0  0  0  0  0  0  0  0  0  0  0
  185.3000  178.6410  140.9200 C   0  0  2  0  0  3  0  0  0  0  0  0
  182.9220  177.7470  140.3820 C   0  0  1  0  0  3  0  0  0  0  0  0
  178.9320  178.4080  138.0550 S   0  0  0  0  0  0  0  0  0  0  0  0
  180.4060  180.2930  139.1730 O   0  0  0  0  0  0  0  0  0  0  0  0
  184.5660  180.1090  144.0760 N   0  0  0  0  0  2  0  0  0  0  0  0
  181.4930  175.0210  135.8440 C   0  0  2  0  0  3  0  0  0  0  0  0
  181.3480  174.0290  134.7100 C   0  0  0  0  0  1  0  0  0  0  0  0
  184.6520  179.3380  143.0450 C   0  0  0  0  0  0  0  0  0  0  0  0
  182.7120  176.7050  138.0960 C   0  0  0  0  0  0  0  0  0  0  0  0
  179.9090  175.1360  139.0890 O   0  0  0  0  0  0  0  0  0  0  0  0
  181.1920  176.8480  137.9750 C   0  0  2  0  0  3  0  0  0  0  0  0
  179.0700  179.8620  139.1150 C   0  0  0  0  0  2  0  0  0  0  0  0
  181.1830  178.9620  141.5190 O   0  0  0  0  0  1  0  0  0  0  0  0
  182.8480  175.0400  136.2840 O   0  0  0  0  0  0  0  0  0  0  0  0
  183.4120  175.8380  137.3040 C   0  0  0  0  0  0  0  0  0  0  0  0
  182.0450  179.0120  140.4200 C   0  0  2  0  0  3  0  0  0  0  0  0
  184.8170  175.6930  137.5310 N   0  0  0  0  0  2  0  0  0  0  0  0
  187.1030  175.9070  136.7660 C   0  0  0  0  0  2  0  0  0  0  0  0
  185.7380  175.3250  136.4680 C   0  0  0  0  0  3  0  0  0  0  0  0
  186.1990  176.5780  135.7550 C   0  0  0  0  0  2  0  0  0  0  0  0
  1  3  1  0  0  0  0
  1  4  1  0  0  0  0
  2 10  1  0  0  0  0
  5 18  1  0  0  0  0
  6 14  1  1  0  0  0
  6 26  1  0  0  0  0
  7  5  1  1  0  0  0
  8 18  1  0  0  0  0
  9 13  1  6  0  0  0
  9  6  1  0  0  0  0
 10 20  2  0  0  0  0
 11  4  1  6  0  0  0
 11  7  1  0  0  0  0
 11  8  1  0  0  0  0
 12  3  1  6  0  0  0
 12 26  1  0  0  0  0
 12  7  1  0  0  0  0
 13 22  1  0  0  0  0
 16 17  1  6  0  0  0
 16 24  1  0  0  0  0
 16  2  1  0  0  0  0
 18 15  2  0  0  0  0
 19  3  1  0  0  0  0
 21 10  1  1  0  0  0
 21 19  1  0  0  0  0
 21  9  1  0  0  0  0
 22 14  1  0  0  0  0
 24 25  1  0  0  0  0
 25 27  1  0  0  0  0
 25 19  2  0  0  0  0
 26 23  1  1  0  0  0
 29 28  1  0  0  0  0
 29 27  1  0  0  0  0
 30 29  1  0  0  0  0
 30 28  1  0  0  0  0
M  END
>  <MODEL>
3

>  <REMARK>
 VINA RESULT:      -5.1      5.094      8.579
  Name = 
  2 active torsions:
  status: ('A' for Active; 'I' for Inactive)
    1  A    between atoms: C_14  and  N_22
    2  A    between atoms: N_22  and  C_29
                            x       y       z     vdW  Elec       q    Type
                         _______ _______ _______ _____ _____    ______ ____

>  <TORSDO>
F 2

$$$$
=
 OpenBabel11052412183D

 30 35  0  0  1  0  0  0  0  0999 V2000
  183.0910  175.9080  138.6050 C   0  0  0  0  0  2  0  0  0  0  0  0
  187.7910  176.3470  135.5040 N   0  0  0  0  0  2  0  0  0  0  0  0
  183.9660  176.8700  137.9140 N   0  0  0  0  0  0  0  0  0  0  0  0
  182.0420  176.6040  139.4710 C   0  0  0  0  0  2  0  0  0  0  0  0
  181.9010  180.0720  138.3470 C   0  0  0  0  0  2  0  0  0  0  0  0
  185.6330  177.9720  139.7840 C   0  0  1  0  0  3  0  0  0  0  0  0
  182.2730  178.6480  137.9310 C   0  0  2  0  0  3  0  0  0  0  0  0
  180.5020  178.4950  139.5460 N   0  0  0  0  0  2  0  0  0  0  0  0
  186.6240  178.0970  138.6390 C   0  0  1  0  0  3  0  0  0  0  0  0
  187.2580  177.3760  136.3240 C   0  0  0  0  0  0  0  0  0  0  0  0
  181.3140  177.6770  138.6660 C   0  0  2  0  0  3  0  0  0  0  0  0
  183.7690  178.3100  138.1070 C   0  0  1  0  0  3  0  0  0  0  0  0
  188.2490  178.0960  139.3940 S   0  0  0  0  0  0  0  0  0  0  0  0
  186.1830  178.3900  141.0120 O   0  0  0  0  0  0  0  0  0  0  0  0
  180.3020  180.8030  140.0290 N   0  0  0  0  0  2  0  0  0  0  0  0
  187.4860  174.9710  135.8480 C   0  0  2  0  0  3  0  0  0  0  0  0
  188.2710  174.0410  134.9490 C   0  0  0  0  0  1  0  0  0  0  0  0
  180.8080  179.8550  139.3150 C   0  0  0  0  0  0  0  0  0  0  0  0
  185.1490  176.3890  137.2350 C   0  0  0  0  0  0  0  0  0  0  0  0
  187.3640  178.5800  135.9710 O   0  0  0  0  0  0  0  0  0  0  0  0
  186.5180  176.9870  137.5720 C   0  0  2  0  0  3  0  0  0  0  0  0
  187.4400  178.9620  140.7560 C   0  0  0  0  0  2  0  0  0  0  0  0
  184.6030  180.1160  139.4620 O   0  0  0  0  0  1  0  0  0  0  0  0
  186.0920  174.7330  135.6730 O   0  0  0  0  0  0  0  0  0  0  0  0
  185.0180  175.3690  136.3350 C   0  0  0  0  0  0  0  0  0  0  0  0
  184.3480  178.7420  139.4680 C   0  0  2  0  0  3  0  0  0  0  0  0
  183.7010  174.9180  136.0030 N   0  0  0  0  0  2  0  0  0  0  0  0
  182.1500  173.0830  136.2890 C   0  0  0  0  0  2  0  0  0  0  0  0
  183.4280  173.5430  135.6200 C   0  0  0  0  0  3  0  0  0  0  0  0
  183.4910  172.6640  136.8500 C   0  0  0  0  0  2  0  0  0  0  0  0
  1  4  1  0  0  0  0
  2 16  1  0  0  0  0
  2 10  1  0  0  0  0
  3  1  1  0  0  0  0
  5 18  1  0  0  0  0
  6 14  1  1  0  0  0
  7 12  1  0  0  0  0
  7  5  1  1  0  0  0
  7 11  1  0  0  0  0
  9 13  1  1  0  0  0
  9  6  1  0  0  0  0
 11  4  1  1  0  0  0
 11  8  1  0  0  0  0
 12  3  1  1  0  0  0
 12 26  1  0  0  0  0
 13 22  1  0  0  0  0
 16 17  1  6  0  0  0
 18  8  1  0  0  0  0
 18 15  2  0  0  0  0
 19 21  1  0  0  0  0
 19  3  1  0  0  0  0
 20 10  2  0  0  0  0
 21 10  1  6  0  0  0
 21  9  1  0  0  0  0
 22 14  1  0  0  0  0
 24 16  1  0  0  0  0
 24 25  1  0  0  0  0
 25 19  2  0  0  0  0
 26 23  1  6  0  0  0
 26  6  1  0  0  0  0
 27 25  1  0  0  0  0
 28 30  1  0  0  0  0
 29 27  1  0  0  0  0
 29 28  1  0  0  0  0
 29 30  1  0  0  0  0
M  END
>  <MODEL>
4

>  <REMARK>
 VINA RESULT:      -4.9      3.652      7.369
  Name = 
  2 active torsions:
  status: ('A' for Active; 'I' for Inactive)
    1  A    between atoms: C_14  and  N_22
    2  A    between atoms: N_22  and  C_29
                            x       y       z     vdW  Elec       q    Type
                         _______ _______ _______ _____ _____    ______ ____

>  <TORSDO>
F 2

$$$$
=
 OpenBabel11052412183D

 30 35  0  0  1  0  0  0  0  0999 V2000
  188.0240  178.6940  139.3040 C   0  0  0  0  0  2  0  0  0  0  0  0
  189.3350  176.5270  144.3510 N   0  0  0  0  0  2  0  0  0  0  0  0
  188.5310  177.4850  139.9760 N   0  0  0  0  0  0  0  0  0  0  0  0
  188.1460  178.5990  137.7840 C   0  0  0  0  0  2  0  0  0  0  0  0
  188.6560  175.0730  136.9980 C   0  0  0  0  0  2  0  0  0  0  0  0
  191.2610  177.5050  139.7740 C   0  0  1  0  0  3  0  0  0  0  0  0
  188.0930  176.0430  138.0380 C   0  0  2  0  0  3  0  0  0  0  0  0
  187.8910  177.0880  135.8860 N   0  0  0  0  0  2  0  0  0  0  0  0
  191.2350  176.7580  141.0980 C   0  0  1  0  0  3  0  0  0  0  0  0
  189.8990  176.1120  143.1160 C   0  0  0  0  0  0  0  0  0  0  0  0
  187.5550  177.2850  137.2820 C   0  0  2  0  0  3  0  0  0  0  0  0
  189.0740  176.3790  139.1830 C   0  0  1  0  0  3  0  0  0  0  0  0
  192.8010  177.1140  141.8920 S   0  0  0  0  0  0  0  0  0  0  0  0
  192.5740  177.7920  139.3500 O   0  0  0  0  0  0  0  0  0  0  0  0
  188.9480  175.4020  134.6050 N   0  0  0  0  0  2  0  0  0  0  0  0
  188.8270  177.8820  144.4500 C   0  0  2  0  0  3  0  0  0  0  0  0
  188.4190  178.1640  145.8790 C   0  0  0  0  0  1  0  0  0  0  0  0
  188.4650  175.8060  135.7310 C   0  0  0  0  0  0  0  0  0  0  0  0
  188.7000  177.4940  141.4120 C   0  0  0  0  0  0  0  0  0  0  0  0
  190.2030  174.9020  142.9390 O   0  0  0  0  0  0  0  0  0  0  0  0
  190.0570  177.1280  142.0230 C   0  0  2  0  0  3  0  0  0  0  0  0
  193.4650  177.1340  140.2140 C   0  0  0  0  0  2  0  0  0  0  0  0
  191.1870  175.5520  138.3800 O   0  0  0  0  0  1  0  0  0  0  0  0
  187.6950  178.0310  143.5980 O   0  0  0  0  0  0  0  0  0  0  0  0
  187.6470  177.8790  142.1940 C   0  0  0  0  0  0  0  0  0  0  0  0
  190.4960  176.7230  138.7020 C   0  0  2  0  0  3  0  0  0  0  0  0
  186.3850  178.1210  141.5650 N   0  0  0  0  0  2  0  0  0  0  0  0
  184.4030  178.2360  142.9470 C   0  0  0  0  0  2  0  0  0  0  0  0
  185.4010  179.0290  142.1300 C   0  0  0  0  0  3  0  0  0  0  0  0
  184.0390  178.7040  141.5550 C   0  0  0  0  0  2  0  0  0  0  0  0
  1  3  1  0  0  0  0
  2 16  1  0  0  0  0
  3 19  1  0  0  0  0
  4  1  1  0  0  0  0
  6 14  1  6  0  0  0
  6  9  1  0  0  0  0
  7  5  1  6  0  0  0
  7 12  1  0  0  0  0
  8 11  1  0  0  0  0
  9 13  1  1  0  0  0
  9 21  1  0  0  0  0
 10  2  1  0  0  0  0
 11  4  1  1  0  0  0
 11  7  1  0  0  0  0
 12  3  1  6  0  0  0
 14 22  1  0  0  0  0
 15 18  2  0  0  0  0
 16 17  1  1  0  0  0
 18  8  1  0  0  0  0
 18  5  1  0  0  0  0
 19 25  2  0  0  0  0
 20 10  2  0  0  0  0
 21 19  1  6  0  0  0
 21 10  1  0  0  0  0
 22 13  1  0  0  0  0
 24 16  1  0  0  0  0
 25 24  1  0  0  0  0
 26 23  1  1  0  0  0
 26 12  1  0  0  0  0
 26  6  1  0  0  0  0
 27 29  1  0  0  0  0
 27 25  1  0  0  0  0
 29 28  1  0  0  0  0
 30 29  1  0  0  0  0
 30 28  1  0  0  0  0
M  END
>  <MODEL>
5

>  <REMARK>
 VINA RESULT:      -4.8      1.652      2.001
  Name = 
  2 active torsions:
  status: ('A' for Active; 'I' for Inactive)
    1  A    between atoms: C_14  and  N_22
    2  A    between atoms: N_22  and  C_29
                            x       y       z     vdW  Elec       q    Type
                         _______ _______ _______ _____ _____    ______ ____

>  <TORSDO>
F 2

$$$$
=
 OpenBabel11052412183D

 30 35  0  0  1  0  0  0  0  0999 V2000
  183.9260  175.6940  135.0130 C   0  0  0  0  0  2  0  0  0  0  0  0
  180.0200  173.6620  138.5500 N   0  0  0  0  0  2  0  0  0  0  0  0
  183.4830  175.7040  136.4180 N   0  0  0  0  0  0  0  0  0  0  0  0
  185.0190  176.7280  134.7480 C   0  0  0  0  0  2  0  0  0  0  0  0
  186.3570  177.6860  138.0040 C   0  0  0  0  0  2  0  0  0  0  0  0
  182.0100  177.9780  136.8100 C   0  0  1  0  0  3  0  0  0  0  0  0
  185.6230  176.5820  137.2410 C   0  0  2  0  0  3  0  0  0  0  0  0
  187.0410  177.7270  135.6770 N   0  0  0  0  0  2  0  0  0  0  0  0
  181.2590  177.1570  137.8460 C   0  0  1  0  0  3  0  0  0  0  0  0
  180.7340  174.8750  138.7360 C   0  0  0  0  0  0  0  0  0  0  0  0
  186.1370  176.5990  135.7780 C   0  0  2  0  0  3  0  0  0  0  0  0
  184.0860  176.6430  137.3690 C   0  0  1  0  0  3  0  0  0  0  0  0
  179.6310  177.8940  137.9670 S   0  0  0  0  0  0  0  0  0  0  0  0
  181.4640  179.2670  136.6530 O   0  0  0  0  0  0  0  0  0  0  0  0
  187.8760  179.3830  137.1480 N   0  0  0  0  0  2  0  0  0  0  0  0
  179.8430  173.1740  137.1960 C   0  0  2  0  0  3  0  0  0  0  0  0
  178.9310  171.9660  137.2120 C   0  0  0  0  0  1  0  0  0  0  0  0
  187.2000  178.3010  136.9590 C   0  0  0  0  0  0  0  0  0  0  0  0
  182.3060  174.9520  136.7940 C   0  0  0  0  0  0  0  0  0  0  0  0
  181.0480  175.2480  139.8980 O   0  0  0  0  0  0  0  0  0  0  0  0
  181.1550  175.6520  137.5230 C   0  0  2  0  0  3  0  0  0  0  0  0
  180.4860  179.4500  137.6450 C   0  0  0  0  0  2  0  0  0  0  0  0
  183.6800  178.8180  138.3160 O   0  0  0  0  0  1  0  0  0  0  0  0
  181.1070  172.8040  136.6530 O   0  0  0  0  0  0  0  0  0  0  0  0
  182.2310  173.6340  136.4420 C   0  0  0  0  0  0  0  0  0  0  0  0
  183.4990  178.0520  137.1620 C   0  0  2  0  0  3  0  0  0  0  0  0
  183.3770  173.0230  135.8420 N   0  0  0  0  0  2  0  0  0  0  0  0
  185.4680  172.7810  137.0350 C   0  0  0  0  0  2  0  0  0  0  0  0
  184.2140  172.0770  136.5600 C   0  0  0  0  0  3  0  0  0  0  0  0
  185.5160  171.8960  135.8090 C   0  0  0  0  0  2  0  0  0  0  0  0
  1  3  1  0  0  0  0
  2 10  1  0  0  0  0
  3 19  1  0  0  0  0
  4  1  1  0  0  0  0
  6 14  1  1  0  0  0
  6 26  1  0  0  0  0
  6  9  1  0  0  0  0
  7 12  1  0  0  0  0
  7  5  1  1  0  0  0
  8 11  1  0  0  0  0
  8 18  1  0  0  0  0
  9 13  1  6  0  0  0
 10 20  2  0  0  0  0
 11  4  1  6  0  0  0
 11  7  1  0  0  0  0
 12  3  1  6  0  0  0
 14 22  1  0  0  0  0
 16 17  1  1  0  0  0
 16  2  1  0  0  0  0
 18 15  2  0  0  0  0
 18  5  1  0  0  0  0
 21 19  1  1  0  0  0
 21  9  1  0  0  0  0
 21 10  1  0  0  0  0
 22 13  1  0  0  0  0
 24 16  1  0  0  0  0
 25 24  1  0  0  0  0
 25 19  2  0  0  0  0
 26 12  1  0  0  0  0
 26 23  1  1  0  0  0
 27 25  1  0  0  0  0
 27 29  1  0  0  0  0
 29 28  1  0  0  0  0
 30 29  1  0  0  0  0
 30 28  1  0  0  0  0
M  END
>  <MODEL>
6

>  <REMARK>
 VINA RESULT:      -4.8      5.430      8.088
  Name = 
  2 active torsions:
  status: ('A' for Active; 'I' for Inactive)
    1  A    between atoms: C_14  and  N_22
    2  A    between atoms: N_22  and  C_29
                            x       y       z     vdW  Elec       q    Type
                         _______ _______ _______ _____ _____    ______ ____

>  <TORSDO>
F 2

$$$$
=
 OpenBabel11052412183D

 30 35  0  0  1  0  0  0  0  0999 V2000
  192.7700  177.7150  140.5020 C   0  0  0  0  0  2  0  0  0  0  0  0
  192.0250  174.8130  135.7150 N   0  0  0  0  0  2  0  0  0  0  0  0
  191.8710  176.7660  139.8220 N   0  0  0  0  0  0  0  0  0  0  0  0
  192.1620  178.2540  141.7960 C   0  0  0  0  0  2  0  0  0  0  0  0
  189.4250  176.0080  142.6760 C   0  0  0  0  0  2  0  0  0  0  0  0
  189.8040  178.2030  138.7460 C   0  0  1  0  0  3  0  0  0  0  0  0
  190.7400  176.1170  141.9020 C   0  0  2  0  0  3  0  0  0  0  0  0
  190.8660  177.6260  143.7660 N   0  0  0  0  0  2  0  0  0  0  0  0
  189.7750  177.1180  137.6820 C   0  0  1  0  0  3  0  0  0  0  0  0
  190.9850  175.2130  136.5940 C   0  0  0  0  0  0  0  0  0  0  0  0
  191.6560  177.1070  142.6670 C   0  0  2  0  0  3  0  0  0  0  0  0
  190.5640  176.4490  140.4040 C   0  0  1  0  0  3  0  0  0  0  0  0
  189.0730  177.8820  136.2220 S   0  0  0  0  0  0  0  0  0  0  0  0
  188.8780  179.2320  138.4830 O   0  0  0  0  0  0  0  0  0  0  0  0
  188.6820  177.2830  144.6110 N   0  0  0  0  0  2  0  0  0  0  0  0
  193.2460  175.5960  135.6990 C   0  0  2  0  0  3  0  0  0  0  0  0
  194.1500  175.0960  134.5940 C   0  0  0  0  0  1  0  0  0  0  0  0
  189.6230  176.9540  143.7920 C   0  0  0  0  0  0  0  0  0  0  0  0
  192.1860  176.3330  138.4790 C   0  0  0  0  0  0  0  0  0  0  0  0
  189.9790  174.4720  136.7550 O   0  0  0  0  0  0  0  0  0  0  0  0
  191.1490  176.4920  137.3630 C   0  0  2  0  0  3  0  0  0  0  0  0
  188.0850  178.8380  137.3930 C   0  0  0  0  0  2  0  0  0  0  0  0
  188.2610  177.1320  140.2410 O   0  0  0  0  0  1  0  0  0  0  0  0
  193.9140  175.4650  136.9500 O   0  0  0  0  0  0  0  0  0  0  0  0
  193.4330  175.8330  138.2270 C   0  0  0  0  0  0  0  0  0  0  0  0
  189.5740  177.5990  140.1350 C   0  0  2  0  0  3  0  0  0  0  0  0
  194.3210  175.6310  139.3310 N   0  0  0  0  0  2  0  0  0  0  0  0
  196.4980  174.9240  140.1150 C   0  0  0  0  0  2  0  0  0  0  0  0
  195.2360  174.5040  139.3910 C   0  0  0  0  0  3  0  0  0  0  0  0
  196.4860  174.8380  138.6040 C   0  0  0  0  0  2  0  0  0  0  0  0
  1  4  1  0  0  0  0
  2 10  1  0  0  0  0
  3  1  1  0  0  0  0
  5 18  1  0  0  0  0
  6 14  1  6  0  0  0
  6 26  1  0  0  0  0
  7 11  1  0  0  0  0
  7  5  1  1  0  0  0
  8 18  1  0  0  0  0
  9 13  1  6  0  0  0
  9  6  1  0  0  0  0
 10 20  2  0  0  0  0
 11  4  1  6  0  0  0
 11  8  1  0  0  0  0
 12  3  1  1  0  0  0
 12  7  1  0  0  0  0
 13 22  1  0  0  0  0
 16 17  1  6  0  0  0
 16  2  1  0  0  0  0
 16 24  1  0  0  0  0
 18 15  2  0  0  0  0
 19  3  1  0  0  0  0
 21 10  1  1  0  0  0
 21  9  1  0  0  0  0
 21 19  1  0  0  0  0
 22 14  1  0  0  0  0
 24 25  1  0  0  0  0
 25 19  2  0  0  0  0
 25 27  1  0  0  0  0
 26 23  1  6  0  0  0
 26 12  1  0  0  0  0
 27 29  1  0  0  0  0
 29 28  1  0  0  0  0
 30 29  1  0  0  0  0
 30 28  1  0  0  0  0
M  END
>  <MODEL>
7

>  <REMARK>
 VINA RESULT:      -4.8      3.307      7.919
  Name = 
  2 active torsions:
  status: ('A' for Active; 'I' for Inactive)
    1  A    between atoms: C_14  and  N_22
    2  A    between atoms: N_22  and  C_29
                            x       y       z     vdW  Elec       q    Type
                         _______ _______ _______ _____ _____    ______ ____

>  <TORSDO>
F 2

$$$$
=
 OpenBabel11052412183D

 30 35  0  0  1  0  0  0  0  0999 V2000
  183.6710  177.4740  139.5320 C   0  0  0  0  0  2  0  0  0  0  0  0
  184.9910  179.3450  144.6950 N   0  0  0  0  0  2  0  0  0  0  0  0
  183.4740  178.5920  140.4710 N   0  0  0  0  0  0  0  0  0  0  0  0
  182.7610  177.5850  138.3100 C   0  0  0  0  0  2  0  0  0  0  0  0
  181.5690  181.0310  138.2080 C   0  0  0  0  0  2  0  0  0  0  0  0
  181.0610  178.2250  141.7100 C   0  0  1  0  0  3  0  0  0  0  0  0
  182.6860  180.1200  138.7190 C   0  0  2  0  0  3  0  0  0  0  0  0
  181.8330  179.1570  136.6910 N   0  0  0  0  0  2  0  0  0  0  0  0
  181.7020  178.9400  142.8880 C   0  0  1  0  0  3  0  0  0  0  0  0
  183.8260  179.7100  143.9710 C   0  0  0  0  0  0  0  0  0  0  0  0
  182.8680  178.9750  137.6890 C   0  0  2  0  0  3  0  0  0  0  0  0
  182.4900  179.6360  140.1720 C   0  0  1  0  0  3  0  0  0  0  0  0
  180.8290  178.3680  144.3440 S   0  0  0  0  0  0  0  0  0  0  0  0
  179.7560  177.7790  142.0040 O   0  0  0  0  0  0  0  0  0  0  0  0
  180.1010  180.7190  136.2930 N   0  0  0  0  0  2  0  0  0  0  0  0
  185.6070  178.0650  144.4000 C   0  0  2  0  0  3  0  0  0  0  0  0
  186.7290  177.8080  145.3820 C   0  0  0  0  0  1  0  0  0  0  0  0
  181.1390  180.3570  136.9660 C   0  0  0  0  0  0  0  0  0  0  0  0
  184.0840  178.5310  141.7810 C   0  0  0  0  0  0  0  0  0  0  0  0
  183.3560  180.8740  144.0810 O   0  0  0  0  0  0  0  0  0  0  0  0
  183.2200  178.7050  143.0340 C   0  0  2  0  0  3  0  0  0  0  0  0
  179.3900  178.2980  143.2570 C   0  0  0  0  0  2  0  0  0  0  0  0
  180.1990  180.2000  140.6530 O   0  0  0  0  0  1  0  0  0  0  0  0
  186.1330  178.0820  143.0760 O   0  0  0  0  0  0  0  0  0  0  0  0
  185.4230  178.2690  141.8690 C   0  0  0  0  0  0  0  0  0  0  0  0
  181.0680  179.1210  140.4680 C   0  0  2  0  0  3  0  0  0  0  0  0
  186.1850  178.2050  140.6590 N   0  0  0  0  0  2  0  0  0  0  0  0
  188.2290  178.0650  139.3730 C   0  0  0  0  0  2  0  0  0  0  0  0
  187.5570  178.6770  140.5840 C   0  0  0  0  0  3  0  0  0  0  0  0
  188.4950  177.5010  140.7520 C   0  0  0  0  0  2  0  0  0  0  0  0
  1  3  1  0  0  0  0
  3 19  1  0  0  0  0
  4  1  1  0  0  0  0
  6 14  1  1  0  0  0
  6  9  1  0  0  0  0
  7  5  1  6  0  0  0
  7 12  1  0  0  0  0
  8 18  1  0  0  0  0
  8 11  1  0  0  0  0
  9 21  1  0  0  0  0
  9 13  1  1  0  0  0
 10 20  2  0  0  0  0
 10  2  1  0  0  0  0
 11  4  1  1  0  0  0
 11  7  1  0  0  0  0
 12 26  1  0  0  0  0
 12  3  1  6  0  0  0
 14 22  1  0  0  0  0
 15 18  2  0  0  0  0
 16  2  1  0  0  0  0
 16 17  1  1  0  0  0
 18  5  1  0  0  0  0
 19 25  2  0  0  0  0
 21 19  1  6  0  0  0
 21 10  1  0  0  0  0
 22 13  1  0  0  0  0
 24 16  1  0  0  0  0
 25 24  1  0  0  0  0
 26 23  1  1  0  0  0
 26  6  1  0  0  0  0
 27 25  1  0  0  0  0
 28 29  1  0  0  0  0
 28 30  1  0  0  0  0
 29 27  1  0  0  0  0
 29 30  1  0  0  0  0
M  END
>  <MODEL>
8

>  <REMARK>
 VINA RESULT:      -4.7      3.770      7.478
  Name = 
  2 active torsions:
  status: ('A' for Active; 'I' for Inactive)
    1  A    between atoms: C_14  and  N_22
    2  A    between atoms: N_22  and  C_29
                            x       y       z     vdW  Elec       q    Type
                         _______ _______ _______ _____ _____    ______ ____

>  <TORSDO>
F 2

$$$$
=
 OpenBabel11052412183D

 30 35  0  0  1  0  0  0  0  0999 V2000
  184.1510  179.4250  138.8580 C   0  0  0  0  0  2  0  0  0  0  0  0
  187.4530  175.3920  136.6820 N   0  0  0  0  0  2  0  0  0  0  0  0
  184.2790  177.9680  138.6840 N   0  0  0  0  0  0  0  0  0  0  0  0
  182.7800  179.8190  139.4060 C   0  0  0  0  0  2  0  0  0  0  0  0
  181.2970  176.7840  140.7840 C   0  0  0  0  0  2  0  0  0  0  0  0
  182.7470  177.2490  136.5310 C   0  0  1  0  0  3  0  0  0  0  0  0
  182.6180  177.4640  140.4200 C   0  0  2  0  0  3  0  0  0  0  0  0
  181.0510  179.1860  141.0060 N   0  0  0  0  0  2  0  0  0  0  0  0
  183.7690  176.1420  136.3370 C   0  0  1  0  0  3  0  0  0  0  0  0
  186.0540  175.2740  136.8910 C   0  0  0  0  0  0  0  0  0  0  0  0
  182.4390  178.9880  140.6400 C   0  0  2  0  0  3  0  0  0  0  0  0
  183.1570  177.0870  139.0230 C   0  0  1  0  0  3  0  0  0  0  0  0
  183.7210  175.7300  134.5950 S   0  0  0  0  0  0  0  0  0  0  0  0
  181.7760  177.2630  135.5100 O   0  0  0  0  0  0  0  0  0  0  0  0
  179.1650  177.8020  141.3640 N   0  0  0  0  0  2  0  0  0  0  0  0
  188.0050  176.7190  136.4880 C   0  0  2  0  0  3  0  0  0  0  0  0
  189.4710  176.6070  136.1310 C   0  0  0  0  0  1  0  0  0  0  0  0
  180.4290  177.9240  141.1390 C   0  0  0  0  0  0  0  0  0  0  0  0
  185.4190  177.4390  137.9680 C   0  0  0  0  0  0  0  0  0  0  0  0
  185.5590  174.1630  137.2220 O   0  0  0  0  0  0  0  0  0  0  0  0
  185.2040  176.5060  136.7730 C   0  0  2  0  0  3  0  0  0  0  0  0
  181.9630  176.1210  134.7150 C   0  0  0  0  0  2  0  0  0  0  0  0
  181.2870  175.9980  137.9680 O   0  0  0  0  0  1  0  0  0  0  0  0
  187.8680  177.4740  137.6890 O   0  0  0  0  0  0  0  0  0  0  0  0
  186.6720  177.8280  138.3530 C   0  0  0  0  0  0  0  0  0  0  0  0
  182.0910  177.1400  137.9110 C   0  0  2  0  0  3  0  0  0  0  0  0
  186.8040  178.6290  139.5310 N   0  0  0  0  0  2  0  0  0  0  0  0
  188.1440  179.0020  141.5100 C   0  0  0  0  0  2  0  0  0  0  0  0
  187.1840  178.0620  140.8130 C   0  0  0  0  0  3  0  0  0  0  0  0
  188.6690  177.7700  140.8070 C   0  0  0  0  0  2  0  0  0  0  0  0
  1  4  1  0  0  0  0
  2 10  1  0  0  0  0
  3  1  1  0  0  0  0
  5 18  1  0  0  0  0
  6 14  1  6  0  0  0
  6 26  1  0  0  0  0
  7 11  1  0  0  0  0
  7  5  1  6  0  0  0
  8 18  1  0  0  0  0
  9 13  1  6  0  0  0
  9  6  1  0  0  0  0
  9 21  1  0  0  0  0
 10 20  2  0  0  0  0
 11  4  1  6  0  0  0
 11  8  1  0  0  0  0
 12  3  1  6  0  0  0
 12  7  1  0  0  0  0
 13 22  1  0  0  0  0
 16 17  1  1  0  0  0
 16  2  1  0  0  0  0
 16 24  1  0  0  0  0
 18 15  2  0  0  0  0
 19 25  2  0  0  0  0
 19  3  1  0  0  0  0
 21 10  1  1  0  0  0
 21 19  1  0  0  0  0
 22 14  1  0  0  0  0
 24 25  1  0  0  0  0
 25 27  1  0  0  0  0
 26 23  1  6  0  0  0
 26 12  1  0  0  0  0
 27 29  1  0  0  0  0
 29 28  1  0  0  0  0
 30 29  1  0  0  0  0
 30 28  1  0  0  0  0
M  END
>  <MODEL>
9

>  <REMARK>
 VINA RESULT:      -4.6      4.041      7.962
  Name = 
  2 active torsions:
  status: ('A' for Active; 'I' for Inactive)
    1  A    between atoms: C_14  and  N_22
    2  A    between atoms: N_22  and  C_29
                            x       y       z     vdW  Elec       q    Type
                         _______ _______ _______ _____ _____    ______ ____

>  <TORSDO>
F 2

$$$$
