=
 OpenBabel11052412543D

 25 29  0  0  1  0  0  0  0  0999 V2000
  186.5370  176.9560  143.7720 C   0  0  1  0  0  3  0  0  0  0  0  0
  187.7500  176.8120  142.8230 C   0  0  0  0  0  0  0  0  0  0  0  0
  185.8370  178.6470  141.9250 C   0  0  0  0  0  2  0  0  0  0  0  0
  186.9170  177.5190  145.0960 C   0  0  1  0  0  3  0  0  0  0  0  0
  190.1280  176.2900  143.4150 C   0  0  0  0  0  0  0  0  0  0  0  0
  185.5700  179.5850  147.4710 O   0  0  0  0  0  0  0  0  0  0  0  0
  187.2920  179.0230  141.8840 C   0  0  0  0  0  2  0  0  0  0  0  0
  186.2670  178.6110  145.3850 C   0  0  2  0  0  3  0  0  0  0  0  0
  186.1870  178.7040  146.8180 C   0  0  0  0  0  0  0  0  0  0  0  0
  189.6620  178.5590  142.2380 C   0  0  0  0  0  0  0  0  0  0  0  0
  191.2940  179.8230  143.5950 C   0  0  0  0  0  1  0  0  0  0  0  0
  188.8320  175.9600  143.4160 C   0  0  0  0  0  3  0  0  0  0  0  0
  186.8460  177.6270  147.3850 O   0  0  0  0  0  0  0  0  0  0  0  0
  185.4710  177.9730  143.2570 C   0  0  2  0  0  3  0  0  0  0  0  0
  185.2940  179.0320  144.3560 C   0  0  0  0  0  2  0  0  0  0  0  0
  190.6720  177.5630  142.8140 C   0  0  0  0  0  0  0  0  0  0  0  0
  187.3240  176.7790  146.3400 C   0  0  0  0  0  2  0  0  0  0  0  0
  190.2190  178.7580  143.6350 C   0  0  2  0  0  3  0  0  0  0  0  0
  188.2180  178.1530  142.3060 C   0  0  0  0  0  0  0  0  0  0  0  0
  191.0960  175.3440  144.0520 C   0  0  0  0  0  2  0  0  0  0  0  0
  191.9310  176.0540  145.1060 C   0  0  0  0  0  2  0  0  0  0  0  0
  192.2470  175.1060  146.2580 C   0  0  0  0  0  2  0  0  0  0  0  0
  191.7570  175.6340  147.6030 C   0  0  0  0  0  3  0  0  0  0  0  0
  192.9100  175.9170  148.5500 C   0  0  0  0  0  1  0  0  0  0  0  0
  190.8920  176.8700  147.4330 C   0  0  0  0  0  1  0  0  0  0  0  0
  1  2  1  6  0  0  0
  1  4  1  0  0  0  0
  2 12  1  0  0  0  0
  4  8  1  0  0  0  0
  4 17  1  1  0  0  0
  5 12  2  0  0  0  0
  5 20  1  0  0  0  0
  7  3  1  0  0  0  0
  7 19  1  0  0  0  0
  8 15  1  6  0  0  0
  8  9  1  0  0  0  0
  9 13  1  0  0  0  0
  9  6  2  0  0  0  0
 10 19  1  0  0  0  0
 10 16  2  0  0  0  0
 10 18  1  0  0  0  0
 14  3  1  6  0  0  0
 14  1  1  0  0  0  0
 14 15  1  0  0  0  0
 16  5  1  0  0  0  0
 16 18  1  0  0  0  0
 17 13  1  0  0  0  0
 18 11  1  6  0  0  0
 19  2  2  0  0  0  0
 20 21  1  0  0  0  0
 21 22  1  0  0  0  0
 22 23  1  0  0  0  0
 23 24  1  0  0  0  0
 25 23  1  0  0  0  0
M  END
>  <MODEL>
1

>  <REMARK>
 VINA RESULT:      -7.2      0.000      0.000
  Name = 
  4 active torsions:
  status: ('A' for Active; 'I' for Inactive)
    1  A    between atoms: C_2  and  C_21
    2  A    between atoms: C_6  and  C_15
    3  A    between atoms: C_15  and  C_25
    4  A    between atoms: C_21  and  C_25
                            x       y       z     vdW  Elec       q    Type
                         _______ _______ _______ _____ _____    ______ ____

>  <TORSDO>
F 4

$$$$
=
 OpenBabel11052412543D

 25 29  0  0  1  0  0  0  0  0999 V2000
  189.0100  176.3740  141.5760 C   0  0  1  0  0  3  0  0  0  0  0  0
  190.3420  176.2890  142.3580 C   0  0  0  0  0  0  0  0  0  0  0  0
  190.6520  177.1180  139.7030 C   0  0  0  0  0  2  0  0  0  0  0  0
  188.0970  177.4120  142.1260 C   0  0  1  0  0  3  0  0  0  0  0  0
  190.7350  176.6810  144.8010 C   0  0  0  0  0  0  0  0  0  0  0  0
  185.7830  179.6500  140.9610 O   0  0  0  0  0  0  0  0  0  0  0  0
  191.3740  177.8590  140.7940 C   0  0  0  0  0  2  0  0  0  0  0  0
  187.7580  178.3060  141.2410 C   0  0  2  0  0  3  0  0  0  0  0  0
  186.4680  178.8220  141.6150 C   0  0  0  0  0  0  0  0  0  0  0  0
  191.9840  178.2280  143.1270 C   0  0  0  0  0  0  0  0  0  0  0  0
  191.6980  180.2670  144.4920 C   0  0  0  0  0  1  0  0  0  0  0  0
  190.1250  176.0150  143.8160 C   0  0  0  0  0  3  0  0  0  0  0  0
  186.0540  178.2160  142.7880 O   0  0  0  0  0  0  0  0  0  0  0  0
  189.1950  176.8270  140.0940 C   0  0  2  0  0  3  0  0  0  0  0  0
  188.3330  178.0830  139.8980 C   0  0  0  0  0  2  0  0  0  0  0  0
  191.7260  177.7980  144.5740 C   0  0  0  0  0  0  0  0  0  0  0  0
  187.0340  177.2540  143.1780 C   0  0  0  0  0  2  0  0  0  0  0  0
  191.0170  179.0100  143.9950 C   0  0  2  0  0  3  0  0  0  0  0  0
  191.2380  177.4700  142.0670 C   0  0  0  0  0  0  0  0  0  0  0  0
  190.4130  176.3040  146.2130 C   0  0  0  0  0  2  0  0  0  0  0  0
  189.7990  177.4780  146.9580 C   0  0  0  0  0  2  0  0  0  0  0  0
  188.4280  177.8140  146.3800 C   0  0  0  0  0  2  0  0  0  0  0  0
  187.3220  177.7710  147.4300 C   0  0  0  0  0  3  0  0  0  0  0  0
  187.8470  178.1110  148.8140 C   0  0  0  0  0  1  0  0  0  0  0  0
  186.1680  178.6840  147.0580 C   0  0  0  0  0  1  0  0  0  0  0  0
  1  4  1  0  0  0  0
  1  2  1  1  0  0  0
  2 12  1  0  0  0  0
  3  7  1  0  0  0  0
  4 17  1  6  0  0  0
  5 20  1  0  0  0  0
  6  9  2  0  0  0  0
  7 19  1  0  0  0  0
  8 15  1  6  0  0  0
  8  9  1  0  0  0  0
  8  4  1  0  0  0  0
  9 13  1  0  0  0  0
 10 18  1  0  0  0  0
 10 16  2  0  0  0  0
 12  5  2  0  0  0  0
 13 17  1  0  0  0  0
 14  3  1  1  0  0  0
 14  1  1  0  0  0  0
 15 14  1  0  0  0  0
 16  5  1  0  0  0  0
 18 11  1  1  0  0  0
 18 16  1  0  0  0  0
 19  2  2  0  0  0  0
 19 10  1  0  0  0  0
 20 21  1  0  0  0  0
 22 21  1  0  0  0  0
 22 23  1  0  0  0  0
 23 24  1  0  0  0  0
 25 23  1  0  0  0  0
M  END
>  <MODEL>
2

>  <REMARK>
 VINA RESULT:      -7.2      2.242      4.000
  Name = 
  4 active torsions:
  status: ('A' for Active; 'I' for Inactive)
    1  A    between atoms: C_2  and  C_21
    2  A    between atoms: C_6  and  C_15
    3  A    between atoms: C_15  and  C_25
    4  A    between atoms: C_21  and  C_25
                            x       y       z     vdW  Elec       q    Type
                         _______ _______ _______ _____ _____    ______ ____

>  <TORSDO>
F 4

$$$$
=
 OpenBabel11052412543D

 25 29  0  0  1  0  0  0  0  0999 V2000
  179.9660  178.6390  139.0210 C   0  0  1  0  0  3  0  0  0  0  0  0
  180.7880  177.8010  140.0290 C   0  0  0  0  0  0  0  0  0  0  0  0
  180.8350  176.7820  137.4220 C   0  0  0  0  0  2  0  0  0  0  0  0
  180.5230  180.0060  138.8350 C   0  0  1  0  0  3  0  0  0  0  0  0
  182.0250  178.5920  142.0590 C   0  0  0  0  0  0  0  0  0  0  0  0
  180.8590  182.3040  136.3190 O   0  0  0  0  0  0  0  0  0  0  0  0
  182.1200  176.8830  138.1960 C   0  0  0  0  0  2  0  0  0  0  0  0
  180.8240  180.2640  137.5940 C   0  0  2  0  0  3  0  0  0  0  0  0
  180.7160  181.6860  137.4060 C   0  0  0  0  0  0  0  0  0  0  0  0
  183.4130  177.4380  140.1890 C   0  0  0  0  0  0  0  0  0  0  0  0
  185.3390  178.9710  140.4010 C   0  0  0  0  0  1  0  0  0  0  0  0
  180.8870  178.4670  141.3690 C   0  0  0  0  0  3  0  0  0  0  0  0
  180.3610  182.2820  138.6040 O   0  0  0  0  0  0  0  0  0  0  0  0
  179.9900  178.0570  137.5740 C   0  0  2  0  0  3  0  0  0  0  0  0
  180.5300  179.1620  136.6540 C   0  0  0  0  0  2  0  0  0  0  0  0
  183.3600  178.0770  141.5800 C   0  0  0  0  0  0  0  0  0  0  0  0
  180.1770  181.2620  139.5860 C   0  0  0  0  0  2  0  0  0  0  0  0
  183.8280  178.8840  140.3820 C   0  0  2  0  0  3  0  0  0  0  0  0
  182.1110  177.3640  139.4450 C   0  0  0  0  0  0  0  0  0  0  0  0
  181.9730  179.2890  143.3820 C   0  0  0  0  0  2  0  0  0  0  0  0
  182.9890  178.6940  144.3450 C   0  0  0  0  0  2  0  0  0  0  0  0
  184.1630  179.6500  144.5330 C   0  0  0  0  0  2  0  0  0  0  0  0
  185.3570  178.9860  145.2110 C   0  0  0  0  0  3  0  0  0  0  0  0
  184.9800  178.3860  146.5540 C   0  0  0  0  0  1  0  0  0  0  0  0
  185.9890  177.9350  144.3170 C   0  0  0  0  0  1  0  0  0  0  0  0
  1  2  1  1  0  0  0
  2 12  1  0  0  0  0
  3 14  1  0  0  0  0
  3  7  1  0  0  0  0
  4  1  1  0  0  0  0
  4 17  1  6  0  0  0
  5 20  1  0  0  0  0
  6  9  2  0  0  0  0
  7 19  1  0  0  0  0
  8 15  1  6  0  0  0
  8  4  1  0  0  0  0
  9  8  1  0  0  0  0
  9 13  1  0  0  0  0
 10 18  1  0  0  0  0
 10 16  2  0  0  0  0
 12  5  2  0  0  0  0
 13 17  1  0  0  0  0
 14 15  1  6  0  0  0
 14  1  1  0  0  0  0
 16  5  1  0  0  0  0
 18 11  1  1  0  0  0
 18 16  1  0  0  0  0
 19  2  2  0  0  0  0
 19 10  1  0  0  0  0
 20 21  1  0  0  0  0
 21 22  1  0  0  0  0
 22 23  1  0  0  0  0
 23 24  1  0  0  0  0
 25 23  1  0  0  0  0
M  END
>  <MODEL>
3

>  <REMARK>
 VINA RESULT:      -6.3      5.743      8.749
  Name = 
  4 active torsions:
  status: ('A' for Active; 'I' for Inactive)
    1  A    between atoms: C_2  and  C_21
    2  A    between atoms: C_6  and  C_15
    3  A    between atoms: C_15  and  C_25
    4  A    between atoms: C_21  and  C_25
                            x       y       z     vdW  Elec       q    Type
                         _______ _______ _______ _____ _____    ______ ____

>  <TORSDO>
F 4

$$$$
=
 OpenBabel11052412543D

 25 29  0  0  1  0  0  0  0  0999 V2000
  179.3560  180.3960  136.8920 C   0  0  1  0  0  3  0  0  0  0  0  0
  179.8630  179.1900  137.7180 C   0  0  0  0  0  0  0  0  0  0  0  0
  180.3790  178.9650  134.9760 C   0  0  0  0  0  2  0  0  0  0  0  0
  180.0620  181.6580  137.2430 C   0  0  1  0  0  3  0  0  0  0  0  0
  180.6990  179.1690  140.0800 C   0  0  0  0  0  0  0  0  0  0  0  0
  181.1380  184.5010  135.6690 O   0  0  0  0  0  0  0  0  0  0  0  0
  181.4710  178.6450  135.9590 C   0  0  0  0  0  2  0  0  0  0  0  0
  180.6450  182.2120  136.2180 C   0  0  2  0  0  3  0  0  0  0  0  0
  180.7090  183.6280  136.4660 C   0  0  0  0  0  0  0  0  0  0  0  0
  182.3480  178.4040  138.2230 C   0  0  0  0  0  0  0  0  0  0  0  0
  184.3130  179.5020  139.2400 C   0  0  0  0  0  1  0  0  0  0  0  0
  179.7300  179.4210  139.1940 C   0  0  0  0  0  3  0  0  0  0  0  0
  180.1600  183.9020  137.7060 O   0  0  0  0  0  0  0  0  0  0  0  0
  179.6390  180.2560  135.3630 C   0  0  2  0  0  3  0  0  0  0  0  0
  180.4620  181.4830  134.9460 C   0  0  0  0  0  2  0  0  0  0  0  0
  182.0550  178.6170  139.7100 C   0  0  0  0  0  0  0  0  0  0  0  0
  179.6770  182.6840  138.2730 C   0  0  0  0  0  2  0  0  0  0  0  0
  182.8400  179.6540  138.9260 C   0  0  2  0  0  3  0  0  0  0  0  0
  181.2360  178.7440  137.2730 C   0  0  0  0  0  0  0  0  0  0  0  0
  180.4270  179.4580  141.5230 C   0  0  0  0  0  2  0  0  0  0  0  0
  181.2640  178.5600  142.4200 C   0  0  0  0  0  2  0  0  0  0  0  0
  182.1720  179.4010  143.3110 C   0  0  0  0  0  2  0  0  0  0  0  0
  183.4220  178.6460  143.7530 C   0  0  0  0  0  3  0  0  0  0  0  0
  184.6260  179.0030  142.9000 C   0  0  0  0  0  1  0  0  0  0  0  0
  183.7210  178.8820  145.2230 C   0  0  0  0  0  1  0  0  0  0  0  0
  1  4  1  0  0  0  0
  1  2  1  1  0  0  0
  2 12  1  0  0  0  0
  3 14  1  0  0  0  0
  3  7  1  0  0  0  0
  4 17  1  6  0  0  0
  5 20  1  0  0  0  0
  6  9  2  0  0  0  0
  7 19  1  0  0  0  0
  8 15  1  6  0  0  0
  8  9  1  0  0  0  0
  8  4  1  0  0  0  0
  9 13  1  0  0  0  0
 10 18  1  0  0  0  0
 10 16  2  0  0  0  0
 12  5  2  0  0  0  0
 13 17  1  0  0  0  0
 14 15  1  1  0  0  0
 14  1  1  0  0  0  0
 16  5  1  0  0  0  0
 18 11  1  1  0  0  0
 18 16  1  0  0  0  0
 19  2  2  0  0  0  0
 19 10  1  0  0  0  0
 20 21  1  0  0  0  0
 21 22  1  0  0  0  0
 22 23  1  0  0  0  0
 23 25  1  0  0  0  0
 24 23  1  0  0  0  0
M  END
>  <MODEL>
4

>  <REMARK>
 VINA RESULT:      -5.6      7.210     10.504
  Name = 
  4 active torsions:
  status: ('A' for Active; 'I' for Inactive)
    1  A    between atoms: C_2  and  C_21
    2  A    between atoms: C_6  and  C_15
    3  A    between atoms: C_15  and  C_25
    4  A    between atoms: C_21  and  C_25
                            x       y       z     vdW  Elec       q    Type
                         _______ _______ _______ _____ _____    ______ ____

>  <TORSDO>
F 4

$$$$
=
 OpenBabel11052412543D

 25 29  0  0  1  0  0  0  0  0999 V2000
  190.0580  176.2900  140.3700 C   0  0  1  0  0  3  0  0  0  0  0  0
  190.5290  176.1910  141.8390 C   0  0  0  0  0  0  0  0  0  0  0  0
  192.6230  176.5260  140.0130 C   0  0  0  0  0  2  0  0  0  0  0  0
  189.2270  177.5000  140.1220 C   0  0  1  0  0  3  0  0  0  0  0  0
  189.3290  176.9420  143.9070 C   0  0  0  0  0  0  0  0  0  0  0  0
  188.6880  179.7510  137.6000 O   0  0  0  0  0  0  0  0  0  0  0  0
  192.6010  177.3560  141.2660 C   0  0  0  0  0  2  0  0  0  0  0  0
  189.7160  178.2650  139.1870 C   0  0  2  0  0  3  0  0  0  0  0  0
  188.6180  178.9740  138.5870 C   0  0  0  0  0  0  0  0  0  0  0  0
  191.6280  178.0410  143.3970 C   0  0  0  0  0  0  0  0  0  0  0  0
  190.9320  180.2980  144.1190 C   0  0  0  0  0  1  0  0  0  0  0  0
  189.3800  176.1910  142.8020 C   0  0  0  0  0  3  0  0  0  0  0  0
  187.4410  178.6220  139.2240 O   0  0  0  0  0  0  0  0  0  0  0  0
  191.2340  176.4660  139.3580 C   0  0  2  0  0  3  0  0  0  0  0  0
  190.9610  177.7580  138.5740 C   0  0  0  0  0  2  0  0  0  0  0  0
  190.4250  177.8890  144.3310 C   0  0  0  0  0  0  0  0  0  0  0  0
  187.7330  177.6370  140.2150 C   0  0  0  0  0  2  0  0  0  0  0  0
  190.5040  179.0580  143.3640 C   0  0  2  0  0  3  0  0  0  0  0  0
  191.6080  177.2030  142.1500 C   0  0  0  0  0  0  0  0  0  0  0  0
  188.1110  176.8430  144.7710 C   0  0  0  0  0  2  0  0  0  0  0  0
  186.8700  177.2760  144.0060 C   0  0  0  0  0  2  0  0  0  0  0  0
  186.0450  178.2480  144.8410 C   0  0  0  0  0  2  0  0  0  0  0  0
  184.9820  178.9710  144.0200 C   0  0  0  0  0  3  0  0  0  0  0  0
  184.8250  178.3590  142.6400 C   0  0  0  0  0  1  0  0  0  0  0  0
  183.6480  179.0030  144.7450 C   0  0  0  0  0  1  0  0  0  0  0  0
  1  2  1  1  0  0  0
  2 19  2  0  0  0  0
  2 12  1  0  0  0  0
  3  7  1  0  0  0  0
  4 17  1  6  0  0  0
  4  1  1  0  0  0  0
  5 16  1  0  0  0  0
  5 20  1  0  0  0  0
  6  9  2  0  0  0  0
  7 19  1  0  0  0  0
  8 15  1  6  0  0  0
  8  4  1  0  0  0  0
  9  8  1  0  0  0  0
  9 13  1  0  0  0  0
 10 16  2  0  0  0  0
 12  5  2  0  0  0  0
 13 17  1  0  0  0  0
 14 15  1  1  0  0  0
 14  3  1  0  0  0  0
 14  1  1  0  0  0  0
 18 10  1  0  0  0  0
 18 11  1  1  0  0  0
 18 16  1  0  0  0  0
 19 10  1  0  0  0  0
 21 20  1  0  0  0  0
 21 22  1  0  0  0  0
 23 25  1  0  0  0  0
 23 22  1  0  0  0  0
 24 23  1  0  0  0  0
M  END
>  <MODEL>
5

>  <REMARK>
 VINA RESULT:      -5.6      3.328      6.193
  Name = 
  4 active torsions:
  status: ('A' for Active; 'I' for Inactive)
    1  A    between atoms: C_2  and  C_21
    2  A    between atoms: C_6  and  C_15
    3  A    between atoms: C_15  and  C_25
    4  A    between atoms: C_21  and  C_25
                            x       y       z     vdW  Elec       q    Type
                         _______ _______ _______ _____ _____    ______ ____

>  <TORSDO>
F 4

$$$$
=
 OpenBabel11052412543D

 25 29  0  0  1  0  0  0  0  0999 V2000
  187.8480  178.2640  137.0540 C   0  0  1  0  0  3  0  0  0  0  0  0
  186.4380  177.8890  136.5410 C   0  0  0  0  0  0  0  0  0  0  0  0
  188.4910  177.2240  134.7590 C   0  0  0  0  0  2  0  0  0  0  0  0
  188.2280  177.4990  138.2720 C   0  0  1  0  0  3  0  0  0  0  0  0
  184.4330  177.2010  137.8770 C   0  0  0  0  0  0  0  0  0  0  0  0
  191.0510  176.1440  139.6570 O   0  0  0  0  0  0  0  0  0  0  0  0
  187.4120  176.2170  135.0470 C   0  0  0  0  0  2  0  0  0  0  0  0
  189.3290  176.8190  138.1190 C   0  0  2  0  0  3  0  0  0  0  0  0
  189.9370  176.6770  139.4150 C   0  0  0  0  0  0  0  0  0  0  0  0
  185.3560  175.4960  136.1460 C   0  0  0  0  0  0  0  0  0  0  0  0
  184.9900  173.5280  137.5930 C   0  0  0  0  0  1  0  0  0  0  0  0
  185.3830  178.0950  137.5860 C   0  0  0  0  0  3  0  0  0  0  0  0
  189.1350  177.2810  140.3670 O   0  0  0  0  0  0  0  0  0  0  0  0
  188.9850  177.8990  136.0490 C   0  0  2  0  0  3  0  0  0  0  0  0
  189.9590  176.9720  136.7910 C   0  0  0  0  0  2  0  0  0  0  0  0
  184.2960  175.8650  137.1870 C   0  0  0  0  0  0  0  0  0  0  0  0
  188.0150  177.8770  139.7120 C   0  0  0  0  0  2  0  0  0  0  0  0
  185.4620  174.9660  137.5630 C   0  0  2  0  0  3  0  0  0  0  0  0
  186.4220  176.5240  135.8930 C   0  0  0  0  0  0  0  0  0  0  0  0
  183.4500  177.5400  138.9530 C   0  0  0  0  0  2  0  0  0  0  0  0
  184.0630  178.5020  139.9590 C   0  0  0  0  0  2  0  0  0  0  0  0
  183.4880  178.2500  141.3490 C   0  0  0  0  0  2  0  0  0  0  0  0
  184.5530  178.2940  142.4410 C   0  0  0  0  0  3  0  0  0  0  0  0
  185.6760  179.2540  142.0940 C   0  0  0  0  0  1  0  0  0  0  0  0
  183.9500  178.6430  143.7900 C   0  0  0  0  0  1  0  0  0  0  0  0
  1  2  1  6  0  0  0
  1  4  1  0  0  0  0
  2 12  1  0  0  0  0
  3  7  1  0  0  0  0
  4 17  1  1  0  0  0
  5 20  1  0  0  0  0
  7 19  1  0  0  0  0
  8 15  1  6  0  0  0
  8  4  1  0  0  0  0
  8  9  1  0  0  0  0
  9  6  2  0  0  0  0
  9 13  1  0  0  0  0
 10 16  2  0  0  0  0
 10 18  1  0  0  0  0
 12  5  2  0  0  0  0
 14  3  1  6  0  0  0
 14 15  1  0  0  0  0
 14  1  1  0  0  0  0
 16 18  1  0  0  0  0
 16  5  1  0  0  0  0
 17 13  1  0  0  0  0
 18 11  1  6  0  0  0
 19 10  1  0  0  0  0
 19  2  2  0  0  0  0
 20 21  1  0  0  0  0
 21 22  1  0  0  0  0
 22 23  1  0  0  0  0
 23 25  1  0  0  0  0
 24 23  1  0  0  0  0
M  END
>  <MODEL>
6

>  <REMARK>
 VINA RESULT:      -5.6      5.261      8.447
  Name = 
  4 active torsions:
  status: ('A' for Active; 'I' for Inactive)
    1  A    between atoms: C_2  and  C_21
    2  A    between atoms: C_6  and  C_15
    3  A    between atoms: C_15  and  C_25
    4  A    between atoms: C_21  and  C_25
                            x       y       z     vdW  Elec       q    Type
                         _______ _______ _______ _____ _____    ______ ____

>  <TORSDO>
F 4

$$$$
=
 OpenBabel11052412543D

 25 29  0  0  1  0  0  0  0  0999 V2000
  182.5170  178.3520  137.5140 C   0  0  1  0  0  3  0  0  0  0  0  0
  182.6340  179.2300  138.7820 C   0  0  0  0  0  0  0  0  0  0  0  0
  180.6670  180.1040  136.9940 C   0  0  0  0  0  2  0  0  0  0  0  0
  182.0690  176.9680  137.8230 C   0  0  1  0  0  3  0  0  0  0  0  0
  183.2870  178.5290  141.0980 C   0  0  0  0  0  0  0  0  0  0  0  0
  180.1390  174.5310  136.3870 O   0  0  0  0  0  0  0  0  0  0  0  0
  180.3440  180.0230  138.4600 C   0  0  0  0  0  2  0  0  0  0  0  0
  180.9780  176.6370  137.1910 C   0  0  2  0  0  3  0  0  0  0  0  0
  180.9910  175.2090  137.0180 C   0  0  0  0  0  0  0  0  0  0  0  0
  180.9200  179.5540  140.7840 C   0  0  0  0  0  0  0  0  0  0  0  0
  179.8230  178.0020  142.3620 C   0  0  0  0  0  1  0  0  0  0  0  0
  183.5680  178.6360  139.7950 C   0  0  0  0  0  3  0  0  0  0  0  0
  182.1310  174.6860  137.6030 O   0  0  0  0  0  0  0  0  0  0  0  0
  181.4260  178.8550  136.5180 C   0  0  2  0  0  3  0  0  0  0  0  0
  180.4460  177.6910  136.3020 C   0  0  0  0  0  2  0  0  0  0  0  0
  181.9930  178.9940  141.7210 C   0  0  0  0  0  0  0  0  0  0  0  0
  182.9150  175.7610  138.1220 C   0  0  0  0  0  2  0  0  0  0  0  0
  180.8470  178.1140  141.2530 C   0  0  2  0  0  3  0  0  0  0  0  0
  181.2770  179.6110  139.3270 C   0  0  0  0  0  0  0  0  0  0  0  0
  184.3140  177.9060  141.9910 C   0  0  0  0  0  2  0  0  0  0  0  0
  184.5400  178.7580  143.2300 C   0  0  0  0  0  2  0  0  0  0  0  0
  185.8110  178.3200  143.9490 C   0  0  0  0  0  2  0  0  0  0  0  0
  185.7960  178.6700  145.4340 C   0  0  0  0  0  3  0  0  0  0  0  0
  184.3920  178.6200  146.0080 C   0  0  0  0  0  1  0  0  0  0  0  0
  186.7280  177.7710  146.2250 C   0  0  0  0  0  1  0  0  0  0  0  0
  1  4  1  0  0  0  0
  1  2  1  1  0  0  0
  2 19  2  0  0  0  0
  2 12  1  0  0  0  0
  3  7  1  0  0  0  0
  4 17  1  6  0  0  0
  5 16  1  0  0  0  0
  5 20  1  0  0  0  0
  6  9  2  0  0  0  0
  7 19  1  0  0  0  0
  8 15  1  6  0  0  0
  8  4  1  0  0  0  0
  9  8  1  0  0  0  0
  9 13  1  0  0  0  0
 10 18  1  0  0  0  0
 10 16  2  0  0  0  0
 12  5  2  0  0  0  0
 13 17  1  0  0  0  0
 14 15  1  1  0  0  0
 14  3  1  0  0  0  0
 14  1  1  0  0  0  0
 18 16  1  0  0  0  0
 18 11  1  1  0  0  0
 19 10  1  0  0  0  0
 20 21  1  0  0  0  0
 21 22  1  0  0  0  0
 22 23  1  0  0  0  0
 23 24  1  0  0  0  0
 23 25  1  0  0  0  0
M  END
>  <MODEL>
7

>  <REMARK>
 VINA RESULT:      -5.5      5.968      8.862
  Name = 
  4 active torsions:
  status: ('A' for Active; 'I' for Inactive)
    1  A    between atoms: C_2  and  C_21
    2  A    between atoms: C_6  and  C_15
    3  A    between atoms: C_15  and  C_25
    4  A    between atoms: C_21  and  C_25
                            x       y       z     vdW  Elec       q    Type
                         _______ _______ _______ _____ _____    ______ ____

>  <TORSDO>
F 4

$$$$
=
 OpenBabel11052412543D

 25 29  0  0  1  0  0  0  0  0999 V2000
  190.0410  176.2890  140.0420 C   0  0  1  0  0  3  0  0  0  0  0  0
  190.4760  176.1270  141.5180 C   0  0  0  0  0  0  0  0  0  0  0  0
  192.6170  176.4950  139.7530 C   0  0  0  0  0  2  0  0  0  0  0  0
  189.2350  177.5200  139.8220 C   0  0  1  0  0  3  0  0  0  0  0  0
  189.2390  176.8190  143.5840 C   0  0  0  0  0  0  0  0  0  0  0  0
  188.7900  179.8730  137.3750 O   0  0  0  0  0  0  0  0  0  0  0  0
  192.5790  177.2780  141.0370 C   0  0  0  0  0  2  0  0  0  0  0  0
  189.7570  178.3120  138.9290 C   0  0  2  0  0  3  0  0  0  0  0  0
  188.6850  179.0610  138.3310 C   0  0  0  0  0  0  0  0  0  0  0  0
  191.5670  177.8970  143.1690 C   0  0  0  0  0  0  0  0  0  0  0  0
  190.8890  180.1370  143.9600 C   0  0  0  0  0  1  0  0  0  0  0  0
  189.3040  176.1090  142.4530 C   0  0  0  0  0  3  0  0  0  0  0  0
  187.4880  178.7040  138.9260 O   0  0  0  0  0  0  0  0  0  0  0  0
  191.2420  176.4820  139.0650 C   0  0  2  0  0  3  0  0  0  0  0  0
  191.0080  177.8080  138.3250 C   0  0  0  0  0  2  0  0  0  0  0  0
  190.3400  177.7310  144.0690 C   0  0  0  0  0  0  0  0  0  0  0  0
  187.7410  177.6780  139.8860 C   0  0  0  0  0  2  0  0  0  0  0  0
  190.4600  178.9330  143.1500 C   0  0  2  0  0  3  0  0  0  0  0  0
  191.5630  177.1070  141.8920 C   0  0  0  0  0  0  0  0  0  0  0  0
  188.0010  176.7080  144.4160 C   0  0  0  0  0  2  0  0  0  0  0  0
  187.8170  177.9470  145.2780 C   0  0  0  0  0  2  0  0  0  0  0  0
  187.6030  177.5520  146.7350 C   0  0  0  0  0  2  0  0  0  0  0  0
  188.7590  177.9800  147.6340 C   0  0  0  0  0  3  0  0  0  0  0  0
  188.3230  178.1230  149.0810 C   0  0  0  0  0  1  0  0  0  0  0  0
  189.9330  177.0230  147.5230 C   0  0  0  0  0  1  0  0  0  0  0  0
  1  2  1  1  0  0  0
  2 19  2  0  0  0  0
  2 12  1  0  0  0  0
  3  7  1  0  0  0  0
  4 17  1  6  0  0  0
  4  1  1  0  0  0  0
  5 16  1  0  0  0  0
  5 20  1  0  0  0  0
  6  9  2  0  0  0  0
  7 19  1  0  0  0  0
  8 15  1  6  0  0  0
  8  4  1  0  0  0  0
  9 13  1  0  0  0  0
  9  8  1  0  0  0  0
 10 16  2  0  0  0  0
 12  5  2  0  0  0  0
 13 17  1  0  0  0  0
 14 15  1  1  0  0  0
 14  3  1  0  0  0  0
 14  1  1  0  0  0  0
 18 10  1  0  0  0  0
 18 11  1  1  0  0  0
 18 16  1  0  0  0  0
 19 10  1  0  0  0  0
 20 21  1  0  0  0  0
 21 22  1  0  0  0  0
 22 23  1  0  0  0  0
 23 24  1  0  0  0  0
 25 23  1  0  0  0  0
M  END
>  <MODEL>
8

>  <REMARK>
 VINA RESULT:      -5.5      3.555      5.529
  Name = 
  4 active torsions:
  status: ('A' for Active; 'I' for Inactive)
    1  A    between atoms: C_2  and  C_21
    2  A    between atoms: C_6  and  C_15
    3  A    between atoms: C_15  and  C_25
    4  A    between atoms: C_21  and  C_25
                            x       y       z     vdW  Elec       q    Type
                         _______ _______ _______ _____ _____    ______ ____

>  <TORSDO>
F 4

$$$$
=
 OpenBabel11052412543D

 25 29  0  0  1  0  0  0  0  0999 V2000
  190.0000  177.0710  137.2120 C   0  0  1  0  0  3  0  0  0  0  0  0
  189.4230  176.1640  136.1000 C   0  0  0  0  0  0  0  0  0  0  0  0
  191.5690  175.0140  137.4800 C   0  0  0  0  0  2  0  0  0  0  0  0
  189.0200  177.3200  138.3040 C   0  0  1  0  0  3  0  0  0  0  0  0
  187.0580  176.0240  135.2840 C   0  0  0  0  0  0  0  0  0  0  0  0
  189.0400  177.7540  141.7000 O   0  0  0  0  0  0  0  0  0  0  0  0
  190.3390  174.1910  137.2150 C   0  0  0  0  0  2  0  0  0  0  0  0
  189.4610  176.9490  139.4730 C   0  0  2  0  0  3  0  0  0  0  0  0
  188.8140  177.7680  140.4620 C   0  0  0  0  0  0  0  0  0  0  0  0
  188.1010  173.8690  136.2960 C   0  0  0  0  0  0  0  0  0  0  0  0
  186.0370  173.1820  137.4660 C   0  0  0  0  0  1  0  0  0  0  0  0
  188.1710  176.7320  135.5010 C   0  0  0  0  0  3  0  0  0  0  0  0
  187.9360  178.6360  139.8370 O   0  0  0  0  0  0  0  0  0  0  0  0
  191.2030  176.4250  137.9690 C   0  0  2  0  0  3  0  0  0  0  0  0
  190.8280  176.3890  139.4580 C   0  0  0  0  0  2  0  0  0  0  0  0
  186.9170  174.5570  135.6110 C   0  0  0  0  0  0  0  0  0  0  0  0
  188.0280  178.4430  138.4250 C   0  0  0  0  0  2  0  0  0  0  0  0
  186.9240  174.3580  137.1170 C   0  0  2  0  0  3  0  0  0  0  0  0
  189.3070  174.7270  136.5520 C   0  0  0  0  0  0  0  0  0  0  0  0
  185.8800  176.7270  134.6870 C   0  0  0  0  0  2  0  0  0  0  0  0
  184.5790  176.1450  135.2160 C   0  0  0  0  0  2  0  0  0  0  0  0
  183.9050  177.1290  136.1660 C   0  0  0  0  0  2  0  0  0  0  0  0
  184.3060  176.9070  137.6210 C   0  0  0  0  0  3  0  0  0  0  0  0
  184.3230  178.2080  138.4050 C   0  0  0  0  0  1  0  0  0  0  0  0
  183.4030  175.8900  138.2960 C   0  0  0  0  0  1  0  0  0  0  0  0
  1  2  1  6  0  0  0
  1 14  1  0  0  0  0
  1  4  1  0  0  0  0
  2 19  1  0  0  0  0
  4 17  1  1  0  0  0
  4  8  1  0  0  0  0
  5 12  1  0  0  0  0
  5 16  2  3  0  0  0
  7  3  1  0  0  0  0
  8 15  1  6  0  0  0
  8  9  1  0  0  0  0
  9  6  2  0  0  0  0
 10 19  2  3  0  0  0
 10 18  1  0  0  0  0
 12  2  2  0  0  0  0
 13  9  1  0  0  0  0
 14  3  1  6  0  0  0
 14 15  1  0  0  0  0
 16 10  1  0  0  0  0
 16 18  1  0  0  0  0
 17 13  1  0  0  0  0
 18 11  1  6  0  0  0
 19  7  1  0  0  0  0
 20 21  1  0  0  0  0
 20  5  1  0  0  0  0
 21 22  1  0  0  0  0
 22 23  1  0  0  0  0
 23 25  1  0  0  0  0
 23 24  1  0  0  0  0
M  END
>  <MODEL>
9

>  <REMARK>
 VINA RESULT:      -5.5      5.934      9.153
  Name = 
  4 active torsions:
  status: ('A' for Active; 'I' for Inactive)
    1  A    between atoms: C_2  and  C_21
    2  A    between atoms: C_6  and  C_15
    3  A    between atoms: C_15  and  C_25
    4  A    between atoms: C_21  and  C_25
                            x       y       z     vdW  Elec       q    Type
                         _______ _______ _______ _____ _____    ______ ____

>  <TORSDO>
F 4

$$$$
