=
 OpenBabel11052413543D

 27 30  0  0  1  0  0  0  0  0999 V2000
  189.2600  178.6810  144.0830 C   0  0  1  0  0  3  0  0  0  0  0  0
  188.6320  178.6520  142.7000 C   0  0  1  0  0  3  0  0  0  0  0  0
  190.7310  177.3870  142.6030 N   0  0  2  0  0  0  0  0  0  0  0  0
  184.8730  177.9830  142.5530 C   0  0  0  0  0  2  0  0  0  0  0  0
  187.0860  177.5740  144.2820 C   0  0  2  0  0  3  0  0  0  0  0  0
  191.6190  175.9720  145.0610 C   0  0  0  0  0  0  0  0  0  0  0  0
  185.9860  178.4940  144.8100 C   0  0  0  0  0  2  0  0  0  0  0  0
  189.3260  175.5900  143.3440 O   0  0  0  0  0  1  0  0  0  0  0  0
  191.6580  175.3120  146.1330 O   0  0  0  0  0  0  0  0  0  0  0  0
  188.3810  177.8500  145.0110 C   0  0  0  0  0  2  0  0  0  0  0  0
  190.6630  178.0920  143.8940 C   0  0  2  0  0  3  0  0  0  0  0  0
  189.7160  178.0640  141.7820 C   0  0  1  0  0  3  0  0  0  0  0  0
  191.9430  175.1470  143.5080 S   0  0  0  0  0  0  0  0  0  0  0  0
  191.4600  178.0580  146.1480 O   0  0  0  0  0  0  0  0  0  0  0  0
  184.6730  178.2840  144.0460 C   0  0  0  0  0  2  0  0  0  0  0  0
  191.2830  177.4010  145.0880 C   0  0  0  0  0  0  0  0  0  0  0  0
  186.2190  178.4930  142.0510 C   0  0  0  0  0  2  0  0  0  0  0  0
  190.5180  175.9260  142.6960 C   0  0  2  0  0  3  0  0  0  0  0  0
  187.3710  177.8020  142.7920 C   0  0  1  0  0  3  0  0  0  0  0  0
  189.2720  177.3300  140.4980 C   0  0  2  0  0  3  0  0  0  0  0  0
  190.0570  175.6440  138.9920 O   0  0  0  0  0  1  0  0  0  0  0  0
  190.4770  176.6980  139.8010 C   0  0  0  0  0  2  0  0  0  0  0  0
  188.5050  178.2770  139.5610 C   0  0  2  0  0  3  0  0  0  0  0  0
  187.2970  177.6120  138.9000 C   0  0  0  0  0  2  0  0  0  0  0  0
  186.2490  178.5200  138.7330 O   0  0  0  0  0  1  0  0  0  0  0  0
  189.0230  178.6440  137.1440 C   0  0  0  0  0  1  0  0  0  0  0  0
  189.4010  179.0130  138.5650 C   0  0  0  0  0  2  0  0  0  0  0  0
  1 10  1  1  0  0  0
  2 19  1  0  0  0  0
  2  1  1  0  0  0  0
  3 18  1  0  0  0  0
  3 11  1  0  0  0  0
  4 15  1  0  0  0  0
  5  7  1  0  0  0  0
  5 10  1  0  0  0  0
  6 16  1  0  0  0  0
  6  9  2  0  0  0  0
 11  1  1  0  0  0  0
 11 16  1  0  0  0  0
 12  3  1  0  0  0  0
 12  2  1  0  0  0  0
 13  6  1  0  0  0  0
 15  7  1  0  0  0  0
 16 14  2  0  0  0  0
 17  4  1  0  0  0  0
 17 19  1  0  0  0  0
 18  8  1  0  0  0  0
 18 13  1  0  0  0  0
 19  5  1  0  0  0  0
 20 12  1  0  0  0  0
 21 22  1  0  0  0  0
 22 20  1  0  0  0  0
 23 20  1  0  0  0  0
 24 23  1  0  0  0  0
 25 24  1  0  0  0  0
 26 27  1  0  0  0  0
 27 23  1  0  0  0  0
M  END
>  <MODEL>
1

>  <REMARK>
 VINA RESULT:      -5.8      0.000      0.000
  Name = 
  5 active torsions:
  status: ('A' for Active; 'I' for Inactive)
    1  A    between atoms: C_4  and  C_17
    2  A    between atoms: C_14  and  C_16
    3  A    between atoms: C_14  and  C_17
    4  A    between atoms: C_14  and  C_19
    5  A    between atoms: C_17  and  C_21
                            x       y       z     vdW  Elec       q    Type
                         _______ _______ _______ _____ _____    ______ ____

>  <TORSDO>
F 5

$$$$
=
 OpenBabel11052413543D

 27 30  0  0  1  0  0  0  0  0999 V2000
  184.3050  179.3760  139.9060 C   0  0  1  0  0  3  0  0  0  0  0  0
  182.9280  179.4330  140.5450 C   0  0  1  0  0  3  0  0  0  0  0  0
  182.7190  178.2580  138.4020 N   0  0  2  0  0  0  0  0  0  0  0  0
  182.7540  178.6380  144.2780 C   0  0  0  0  0  2  0  0  0  0  0  0
  184.4310  178.1760  142.0360 C   0  0  2  0  0  3  0  0  0  0  0  0
  185.0510  176.6880  137.4400 C   0  0  0  0  0  0  0  0  0  0  0  0
  185.0370  179.0110  143.1640 C   0  0  0  0  0  2  0  0  0  0  0  0
  183.3250  176.3570  139.7330 O   0  0  0  0  0  1  0  0  0  0  0  0
  186.0670  175.9470  137.3670 O   0  0  0  0  0  0  0  0  0  0  0  0
  185.1710  178.4430  140.7450 C   0  0  0  0  0  2  0  0  0  0  0  0
  184.0620  178.8560  138.4830 C   0  0  2  0  0  3  0  0  0  0  0  0
  181.9610  178.9600  139.4490 C   0  0  1  0  0  3  0  0  0  0  0  0
  183.4360  176.0010  137.1010 S   0  0  0  0  0  0  0  0  0  0  0  0
  186.3010  178.6740  137.6650 O   0  0  0  0  0  0  0  0  0  0  0  0
  184.2670  178.8130  144.4750 C   0  0  0  0  0  2  0  0  0  0  0  0
  185.1940  178.0970  137.8280 C   0  0  0  0  0  0  0  0  0  0  0  0
  182.2840  179.2360  142.9560 C   0  0  0  0  0  2  0  0  0  0  0  0
  182.6970  176.7880  138.5610 C   0  0  2  0  0  3  0  0  0  0  0  0
  182.9610  178.5320  141.7730 C   0  0  1  0  0  3  0  0  0  0  0  0
  180.6250  178.3130  139.8770 C   0  0  2  0  0  3  0  0  0  0  0  0
  179.2170  176.5880  139.0000 O   0  0  0  0  0  1  0  0  0  0  0  0
  179.8830  177.7650  138.6590 C   0  0  0  0  0  2  0  0  0  0  0  0
  179.7620  179.3090  140.6700 C   0  0  2  0  0  3  0  0  0  0  0  0
  178.9310  178.6370  141.7630 C   0  0  0  0  0  2  0  0  0  0  0  0
  179.5170  177.4410  142.1820 O   0  0  0  0  0  1  0  0  0  0  0  0
  179.4260  181.6740  139.9370 C   0  0  0  0  0  1  0  0  0  0  0  0
  178.9400  180.2460  139.7860 C   0  0  0  0  0  2  0  0  0  0  0  0
  1  2  1  0  0  0  0
  1 10  1  1  0  0  0
  2 19  1  0  0  0  0
  3 11  1  0  0  0  0
  3 18  1  0  0  0  0
  3 12  1  0  0  0  0
  4 15  1  0  0  0  0
  5  7  1  0  0  0  0
  6 16  1  0  0  0  0
  7 15  1  0  0  0  0
  9  6  2  0  0  0  0
 10  5  1  0  0  0  0
 11  1  1  0  0  0  0
 12 20  1  0  0  0  0
 12  2  1  0  0  0  0
 13  6  1  0  0  0  0
 13 18  1  0  0  0  0
 14 16  2  0  0  0  0
 16 11  1  0  0  0  0
 17  4  1  0  0  0  0
 18  8  1  0  0  0  0
 19  5  1  0  0  0  0
 19 17  1  0  0  0  0
 20 23  1  0  0  0  0
 22 21  1  0  0  0  0
 22 20  1  0  0  0  0
 23 24  1  0  0  0  0
 24 25  1  0  0  0  0
 27 26  1  0  0  0  0
 27 23  1  0  0  0  0
M  END
>  <MODEL>
2

>  <REMARK>
 VINA RESULT:      -5.6      5.572      8.128
  Name = 
  5 active torsions:
  status: ('A' for Active; 'I' for Inactive)
    1  A    between atoms: C_4  and  C_17
    2  A    between atoms: C_14  and  C_16
    3  A    between atoms: C_14  and  C_17
    4  A    between atoms: C_14  and  C_19
    5  A    between atoms: C_17  and  C_21
                            x       y       z     vdW  Elec       q    Type
                         _______ _______ _______ _____ _____    ______ ____

>  <TORSDO>
F 5

$$$$
=
 OpenBabel11052413543D

 27 30  0  0  1  0  0  0  0  0999 V2000
  189.1470  178.0930  137.3990 C   0  0  1  0  0  3  0  0  0  0  0  0
  188.0730  178.4150  138.4250 C   0  0  1  0  0  3  0  0  0  0  0  0
  186.9850  177.3520  136.5010 N   0  0  2  0  0  0  0  0  0  0  0  0
  188.9010  177.5940  142.0640 C   0  0  0  0  0  2  0  0  0  0  0  0
  189.6790  176.8490  139.4380 C   0  0  2  0  0  3  0  0  0  0  0  0
  188.5460  175.3620  134.9410 C   0  0  0  0  0  0  0  0  0  0  0  0
  190.7560  177.5190  140.2900 C   0  0  0  0  0  2  0  0  0  0  0  0
  187.5790  175.3410  137.6640 O   0  0  0  0  0  1  0  0  0  0  0  0
  189.3200  174.4320  134.5940 O   0  0  0  0  0  0  0  0  0  0  0  0
  190.0230  176.9870  137.9730 C   0  0  0  0  0  2  0  0  0  0  0  0
  188.3790  177.6640  136.1420 C   0  0  2  0  0  3  0  0  0  0  0  0
  186.7410  178.1710  137.6980 C   0  0  1  0  0  3  0  0  0  0  0  0
  186.8020  175.0240  135.1410 S   0  0  0  0  0  0  0  0  0  0  0  0
  190.1740  177.0480  134.6880 O   0  0  0  0  0  0  0  0  0  0  0  0
  190.4040  177.4540  141.7820 C   0  0  0  0  0  2  0  0  0  0  0  0
  189.0790  176.7050  135.2050 C   0  0  0  0  0  0  0  0  0  0  0  0
  188.1770  178.3030  140.9240 C   0  0  0  0  0  2  0  0  0  0  0  0
  186.7200  175.9140  136.7220 C   0  0  2  0  0  3  0  0  0  0  0  0
  188.3020  177.5000  139.6220 C   0  0  1  0  0  3  0  0  0  0  0  0
  185.5020  177.8000  138.5410 C   0  0  2  0  0  3  0  0  0  0  0  0
  183.6310  176.3210  138.3530 O   0  0  0  0  0  1  0  0  0  0  0  0
  184.3930  177.2490  137.6450 C   0  0  0  0  0  2  0  0  0  0  0  0
  185.0200  179.0040  139.3680 C   0  0  2  0  0  3  0  0  0  0  0  0
  184.7500  178.6510  140.8310 C   0  0  0  0  0  2  0  0  0  0  0  0
  185.3010  179.6040  141.6910 O   0  0  0  0  0  1  0  0  0  0  0  0
  182.5860  179.5570  139.4920 C   0  0  0  0  0  1  0  0  0  0  0  0
  183.8720  179.7740  138.7180 C   0  0  0  0  0  2  0  0  0  0  0  0
  1 10  1  1  0  0  0
  1  2  1  0  0  0  0
  2 19  1  0  0  0  0
  3 18  1  0  0  0  0
  3 12  1  0  0  0  0
  5 19  1  0  0  0  0
  5  7  1  0  0  0  0
  6 13  1  0  0  0  0
  6 16  1  0  0  0  0
  7 15  1  0  0  0  0
  9  6  2  0  0  0  0
 10  5  1  0  0  0  0
 11  3  1  0  0  0  0
 11  1  1  0  0  0  0
 12  2  1  0  0  0  0
 12 20  1  0  0  0  0
 13 18  1  0  0  0  0
 14 16  2  0  0  0  0
 15  4  1  0  0  0  0
 16 11  1  0  0  0  0
 17  4  1  0  0  0  0
 18  8  1  0  0  0  0
 19 17  1  0  0  0  0
 20 23  1  0  0  0  0
 22 21  1  0  0  0  0
 22 20  1  0  0  0  0
 23 24  1  0  0  0  0
 24 25  1  0  0  0  0
 27 23  1  0  0  0  0
 27 26  1  0  0  0  0
M  END
>  <MODEL>
3

>  <REMARK>
 VINA RESULT:      -5.3      4.055      6.917
  Name = 
  5 active torsions:
  status: ('A' for Active; 'I' for Inactive)
    1  A    between atoms: C_4  and  C_17
    2  A    between atoms: C_14  and  C_16
    3  A    between atoms: C_14  and  C_17
    4  A    between atoms: C_14  and  C_19
    5  A    between atoms: C_17  and  C_21
                            x       y       z     vdW  Elec       q    Type
                         _______ _______ _______ _____ _____    ______ ____

>  <TORSDO>
F 5

$$$$
=
 OpenBabel11052413543D

 27 30  0  0  1  0  0  0  0  0999 V2000
  183.6030  179.1720  140.0350 C   0  0  1  0  0  3  0  0  0  0  0  0
  182.5050  179.2980  141.0760 C   0  0  1  0  0  3  0  0  0  0  0  0
  181.6350  177.9500  139.2220 N   0  0  2  0  0  0  0  0  0  0  0  0
  183.5550  178.8230  144.7190 C   0  0  0  0  0  2  0  0  0  0  0  0
  184.4280  178.1550  142.1020 C   0  0  2  0  0  3  0  0  0  0  0  0
  183.5590  176.2780  137.6930 C   0  0  0  0  0  0  0  0  0  0  0  0
  185.3510  179.0740  142.9020 C   0  0  0  0  0  2  0  0  0  0  0  0
  182.6690  176.1610  140.4400 O   0  0  0  0  0  1  0  0  0  0  0  0
  184.5090  175.5220  137.3590 O   0  0  0  0  0  0  0  0  0  0  0  0
  184.7080  178.3030  140.6250 C   0  0  0  0  0  2  0  0  0  0  0  0
  182.9230  178.5380  138.8150 C   0  0  2  0  0  3  0  0  0  0  0  0
  181.2430  178.7460  140.3950 C   0  0  1  0  0  3  0  0  0  0  0  0
  181.9320  175.5830  137.9520 S   0  0  0  0  0  0  0  0  0  0  0  0
  184.7820  178.2610  137.3370 O   0  0  0  0  0  0  0  0  0  0  0  0
  185.0480  178.9960  144.4030 C   0  0  0  0  0  2  0  0  0  0  0  0
  183.7960  177.7130  137.8950 C   0  0  0  0  0  0  0  0  0  0  0  0
  182.6750  179.3130  143.5740 C   0  0  0  0  0  2  0  0  0  0  0  0
  181.6900  176.4990  139.5010 C   0  0  2  0  0  3  0  0  0  0  0  0
  182.9460  178.5040  142.3000 C   0  0  1  0  0  3  0  0  0  0  0  0
  180.1280  178.1530  141.2830 C   0  0  2  0  0  3  0  0  0  0  0  0
  178.9310  176.0830  141.3870 O   0  0  0  0  0  1  0  0  0  0  0  0
  179.3430  177.0900  140.5150 C   0  0  0  0  0  2  0  0  0  0  0  0
  179.2080  179.2610  141.8230 C   0  0  2  0  0  3  0  0  0  0  0  0
  179.0290  180.4170  140.8390 C   0  0  0  0  0  2  0  0  0  0  0  0
  179.3410  181.6410  141.4350 O   0  0  0  0  0  1  0  0  0  0  0  0
  179.3710  178.6010  144.2270 C   0  0  0  0  0  1  0  0  0  0  0  0
  179.5720  179.7270  143.2320 C   0  0  0  0  0  2  0  0  0  0  0  0
  1 10  1  1  0  0  0
  1  2  1  0  0  0  0
  2 19  1  0  0  0  0
  3 18  1  0  0  0  0
  3 12  1  0  0  0  0
  5 19  1  0  0  0  0
  5  7  1  0  0  0  0
  6 16  1  0  0  0  0
  6 13  1  0  0  0  0
  7 15  1  0  0  0  0
  9  6  2  0  0  0  0
 10  5  1  0  0  0  0
 11  3  1  0  0  0  0
 11  1  1  0  0  0  0
 12  2  1  0  0  0  0
 12 20  1  0  0  0  0
 13 18  1  0  0  0  0
 14 16  2  0  0  0  0
 15  4  1  0  0  0  0
 16 11  1  0  0  0  0
 17  4  1  0  0  0  0
 18  8  1  0  0  0  0
 19 17  1  0  0  0  0
 20 23  1  0  0  0  0
 22 20  1  0  0  0  0
 22 21  1  0  0  0  0
 23 27  1  0  0  0  0
 24 25  1  0  0  0  0
 24 23  1  0  0  0  0
 27 26  1  0  0  0  0
M  END
>  <MODEL>
4

>  <REMARK>
 VINA RESULT:      -5.2      5.847      8.663
  Name = 
  5 active torsions:
  status: ('A' for Active; 'I' for Inactive)
    1  A    between atoms: C_4  and  C_17
    2  A    between atoms: C_14  and  C_16
    3  A    between atoms: C_14  and  C_17
    4  A    between atoms: C_14  and  C_19
    5  A    between atoms: C_17  and  C_21
                            x       y       z     vdW  Elec       q    Type
                         _______ _______ _______ _____ _____    ______ ____

>  <TORSDO>
F 5

$$$$
=
 OpenBabel11052413543D

 27 30  0  0  1  0  0  0  0  0999 V2000
  188.0440  176.4360  142.7970 C   0  0  1  0  0  3  0  0  0  0  0  0
  187.4260  176.9210  144.0970 C   0  0  1  0  0  3  0  0  0  0  0  0
  189.8640  176.9890  144.3490 N   0  0  2  0  0  0  0  0  0  0  0  0
  184.5090  179.3690  143.7810 C   0  0  0  0  0  2  0  0  0  0  0  0
  186.7370  178.4420  142.2880 C   0  0  2  0  0  3  0  0  0  0  0  0
  191.5020  177.5030  141.9230 C   0  0  0  0  0  0  0  0  0  0  0  0
  185.3610  178.1330  141.6990 C   0  0  0  0  0  2  0  0  0  0  0  0
  189.6020  179.1510  143.3460 O   0  0  0  0  0  1  0  0  0  0  0  0
  191.9370  177.9370  140.8240 O   0  0  0  0  0  0  0  0  0  0  0  0
  187.7640  177.4840  141.7270 C   0  0  0  0  0  2  0  0  0  0  0  0
  189.5370  176.2720  143.1040 C   0  0  2  0  0  3  0  0  0  0  0  0
  188.5950  176.9940  145.0920 C   0  0  1  0  0  3  0  0  0  0  0  0
  192.0920  178.2240  143.4490 S   0  0  0  0  0  0  0  0  0  0  0  0
  190.3900  175.6630  140.9560 O   0  0  0  0  0  0  0  0  0  0  0  0
  184.2830  179.0450  142.2970 C   0  0  0  0  0  2  0  0  0  0  0  0
  190.4970  176.4320  141.9470 C   0  0  0  0  0  0  0  0  0  0  0  0
  185.3810  178.3190  144.4620 C   0  0  0  0  0  2  0  0  0  0  0  0
  190.4190  178.3440  144.1440 C   0  0  2  0  0  3  0  0  0  0  0  0
  186.7700  178.2670  143.8120 C   0  0  1  0  0  3  0  0  0  0  0  0
  188.4960  177.9870  146.2710 C   0  0  2  0  0  3  0  0  0  0  0  0
  190.2370  176.6440  147.2140 O   0  0  0  0  0  1  0  0  0  0  0  0
  189.7760  177.9550  147.1040 C   0  0  0  0  0  2  0  0  0  0  0  0
  187.2510  177.7000  147.1270 C   0  0  2  0  0  3  0  0  0  0  0  0
  186.3930  178.9420  147.3660 C   0  0  0  0  0  2  0  0  0  0  0  0
  185.0320  178.6280  147.3440 O   0  0  0  0  0  1  0  0  0  0  0  0
  187.6290  177.8780  149.5910 C   0  0  0  0  0  1  0  0  0  0  0  0
  187.5560  176.9290  148.4110 C   0  0  0  0  0  2  0  0  0  0  0  0
  1 10  1  6  0  0  0
  1 11  1  0  0  0  0
  1  2  1  0  0  0  0
  2 12  1  0  0  0  0
  3 12  1  0  0  0  0
  4 17  1  0  0  0  0
  5 19  1  0  0  0  0
  6 16  1  0  0  0  0
  6 13  1  0  0  0  0
  7  5  1  0  0  0  0
  7 15  1  0  0  0  0
  8 18  1  0  0  0  0
  9  6  2  0  0  0  0
 10  5  1  0  0  0  0
 11  3  1  0  0  0  0
 12 20  1  0  0  0  0
 13 18  1  0  0  0  0
 14 16  2  0  0  0  0
 15  4  1  0  0  0  0
 16 11  1  0  0  0  0
 18  3  1  0  0  0  0
 19  2  1  0  0  0  0
 19 17  1  0  0  0  0
 20 22  1  0  0  0  0
 20 23  1  0  0  0  0
 22 21  1  0  0  0  0
 23 24  1  0  0  0  0
 23 27  1  0  0  0  0
 25 24  1  0  0  0  0
 27 26  1  0  0  0  0
M  END
>  <MODEL>
5

>  <REMARK>
 VINA RESULT:      -5.0      2.444      5.549
  Name = 
  5 active torsions:
  status: ('A' for Active; 'I' for Inactive)
    1  A    between atoms: C_4  and  C_17
    2  A    between atoms: C_14  and  C_16
    3  A    between atoms: C_14  and  C_17
    4  A    between atoms: C_14  and  C_19
    5  A    between atoms: C_17  and  C_21
                            x       y       z     vdW  Elec       q    Type
                         _______ _______ _______ _____ _____    ______ ____

>  <TORSDO>
F 5

$$$$
=
 OpenBabel11052413543D

 27 30  0  0  1  0  0  0  0  0999 V2000
  191.2580  176.7440  137.0910 C   0  0  1  0  0  3  0  0  0  0  0  0
  189.8070  177.1020  137.3650 C   0  0  1  0  0  3  0  0  0  0  0  0
  189.8430  175.3510  135.6470 N   0  0  2  0  0  0  0  0  0  0  0  0
  188.8170  177.4970  141.0340 C   0  0  0  0  0  2  0  0  0  0  0  0
  190.8060  176.2430  139.4440 C   0  0  2  0  0  3  0  0  0  0  0  0
  192.0690  173.3830  135.7100 C   0  0  0  0  0  0  0  0  0  0  0  0
  191.2990  177.3310  140.3980 C   0  0  0  0  0  2  0  0  0  0  0  0
  189.9090  173.9040  137.5580 O   0  0  0  0  0  1  0  0  0  0  0  0
  192.9640  172.5770  136.0770 O   0  0  0  0  0  0  0  0  0  0  0  0
  191.8070  176.0450  138.3290 C   0  0  0  0  0  2  0  0  0  0  0  0
  191.2170  175.8380  135.8550 C   0  0  2  0  0  3  0  0  0  0  0  0
  189.0070  176.3960  136.2580 C   0  0  1  0  0  3  0  0  0  0  0  0
  190.4660  172.7560  135.2260 S   0  0  0  0  0  0  0  0  0  0  0  0
  193.5220  175.2380  135.6420 O   0  0  0  0  0  0  0  0  0  0  0  0
  190.2740  177.6030  141.5070 C   0  0  0  0  0  2  0  0  0  0  0  0
  192.3340  174.8280  135.7080 C   0  0  0  0  0  0  0  0  0  0  0  0
  188.6960  177.7000  139.5270 C   0  0  0  0  0  2  0  0  0  0  0  0
  189.5830  174.0060  136.2030 C   0  0  2  0  0  3  0  0  0  0  0  0
  189.4780  176.6170  138.7720 C   0  0  1  0  0  3  0  0  0  0  0  0
  187.5370  176.0180  136.5420 C   0  0  2  0  0  3  0  0  0  0  0  0
  186.1950  175.3180  134.6880 O   0  0  0  0  0  1  0  0  0  0  0  0
  187.1010  174.8600  135.6440 C   0  0  0  0  0  2  0  0  0  0  0  0
  186.6160  177.2390  136.3840 C   0  0  2  0  0  3  0  0  0  0  0  0
  187.3470  178.4720  135.8520 C   0  0  0  0  0  2  0  0  0  0  0  0
  187.3740  179.4930  136.8030 O   0  0  0  0  0  1  0  0  0  0  0  0
  184.4260  176.8440  137.5210 C   0  0  0  0  0  1  0  0  0  0  0  0
  185.7720  177.5340  137.6230 C   0  0  0  0  0  2  0  0  0  0  0  0
  1  2  1  0  0  0  0
  1 10  1  1  0  0  0
  2 19  1  0  0  0  0
  3 11  1  0  0  0  0
  3 18  1  0  0  0  0
  3 12  1  0  0  0  0
  4 15  1  0  0  0  0
  5  7  1  0  0  0  0
  6  9  2  0  0  0  0
  7 15  1  0  0  0  0
 10  5  1  0  0  0  0
 11  1  1  0  0  0  0
 12 20  1  0  0  0  0
 12  2  1  0  0  0  0
 13  6  1  0  0  0  0
 13 18  1  0  0  0  0
 14 16  2  0  0  0  0
 16  6  1  0  0  0  0
 16 11  1  0  0  0  0
 17  4  1  0  0  0  0
 18  8  1  0  0  0  0
 19  5  1  0  0  0  0
 19 17  1  0  0  0  0
 21 22  1  0  0  0  0
 22 20  1  0  0  0  0
 23 20  1  0  0  0  0
 23 27  1  0  0  0  0
 24 23  1  0  0  0  0
 24 25  1  0  0  0  0
 26 27  1  0  0  0  0
M  END
>  <MODEL>
6

>  <REMARK>
 VINA RESULT:      -5.0      4.414      6.737
  Name = 
  5 active torsions:
  status: ('A' for Active; 'I' for Inactive)
    1  A    between atoms: C_4  and  C_17
    2  A    between atoms: C_14  and  C_16
    3  A    between atoms: C_14  and  C_17
    4  A    between atoms: C_14  and  C_19
    5  A    between atoms: C_17  and  C_21
                            x       y       z     vdW  Elec       q    Type
                         _______ _______ _______ _____ _____    ______ ____

>  <TORSDO>
F 5

$$$$
=
 OpenBabel11052413543D

 27 30  0  0  1  0  0  0  0  0999 V2000
  181.4160  177.0140  137.1230 C   0  0  1  0  0  3  0  0  0  0  0  0
  181.4680  178.1300  138.1520 C   0  0  1  0  0  3  0  0  0  0  0  0
  179.5910  176.6600  138.7260 N   0  0  2  0  0  0  0  0  0  0  0  0
  184.9260  179.0260  139.5100 C   0  0  0  0  0  2  0  0  0  0  0  0
  183.5760  176.8630  138.2630 C   0  0  2  0  0  3  0  0  0  0  0  0
  179.8140  173.7790  138.0340 C   0  0  0  0  0  0  0  0  0  0  0  0
  184.7240  177.4850  137.4670 C   0  0  0  0  0  2  0  0  0  0  0  0
  181.3000  175.4340  139.8780 O   0  0  0  0  0  1  0  0  0  0  0  0
  180.2360  172.6090  137.8360 O   0  0  0  0  0  0  0  0  0  0  0  0
  182.6400  176.1310  137.3290 C   0  0  0  0  0  2  0  0  0  0  0  0
  180.0940  176.2850  137.3940 C   0  0  2  0  0  3  0  0  0  0  0  0
  180.1630  177.9960  138.9520 C   0  0  1  0  0  3  0  0  0  0  0  0
  178.9840  174.1650  139.5690 S   0  0  0  0  0  0  0  0  0  0  0  0
  180.2230  174.4880  135.8230 O   0  0  0  0  0  0  0  0  0  0  0  0
  185.6580  178.2920  138.3780 C   0  0  0  0  0  2  0  0  0  0  0  0
  180.0290  174.8210  137.0220 C   0  0  0  0  0  0  0  0  0  0  0  0
  183.4560  179.2570  139.1760 C   0  0  0  0  0  2  0  0  0  0  0  0
  179.9300  175.6990  139.7980 C   0  0  2  0  0  3  0  0  0  0  0  0
  182.7280  177.9200  138.9840 C   0  0  1  0  0  3  0  0  0  0  0  0
  180.1360  178.5160  140.4060 C   0  0  2  0  0  3  0  0  0  0  0  0
  179.3350  177.4430  142.3890 O   0  0  0  0  0  1  0  0  0  0  0  0
  178.9310  177.9460  141.1540 C   0  0  0  0  0  2  0  0  0  0  0  0
  180.1520  180.0540  140.4390 C   0  0  2  0  0  3  0  0  0  0  0  0
  179.4390  180.6300  141.6630 C   0  0  0  0  0  2  0  0  0  0  0  0
  180.2830  180.6550  142.7750 O   0  0  0  0  0  1  0  0  0  0  0  0
  180.7070  181.7510  138.6910 C   0  0  0  0  0  1  0  0  0  0  0  0
  179.7060  180.7000  139.1280 C   0  0  0  0  0  2  0  0  0  0  0  0
  1 10  1  1  0  0  0
  1 11  1  0  0  0  0
  1  2  1  0  0  0  0
  2 12  1  0  0  0  0
  2 19  1  0  0  0  0
  3 12  1  0  0  0  0
  3 18  1  0  0  0  0
  5 19  1  0  0  0  0
  6 13  1  0  0  0  0
  7  5  1  0  0  0  0
  7 15  1  0  0  0  0
  9  6  2  0  0  0  0
 10  5  1  0  0  0  0
 11  3  1  0  0  0  0
 12 20  1  0  0  0  0
 13 18  1  0  0  0  0
 14 16  2  0  0  0  0
 15  4  1  0  0  0  0
 16 11  1  0  0  0  0
 16  6  1  0  0  0  0
 17  4  1  0  0  0  0
 18  8  1  0  0  0  0
 19 17  1  0  0  0  0
 20 23  1  0  0  0  0
 20 22  1  0  0  0  0
 22 21  1  0  0  0  0
 23 24  1  0  0  0  0
 24 25  1  0  0  0  0
 26 27  1  0  0  0  0
 27 23  1  0  0  0  0
M  END
>  <MODEL>
7

>  <REMARK>
 VINA RESULT:      -4.5      7.207     10.259
  Name = 
  5 active torsions:
  status: ('A' for Active; 'I' for Inactive)
    1  A    between atoms: C_4  and  C_17
    2  A    between atoms: C_14  and  C_16
    3  A    between atoms: C_14  and  C_17
    4  A    between atoms: C_14  and  C_19
    5  A    between atoms: C_17  and  C_21
                            x       y       z     vdW  Elec       q    Type
                         _______ _______ _______ _____ _____    ______ ____

>  <TORSDO>
F 5

$$$$
=
 OpenBabel11052413543D

 27 30  0  0  1  0  0  0  0  0999 V2000
  188.9830  176.5520  136.1340 C   0  0  1  0  0  3  0  0  0  0  0  0
  190.1600  175.7580  135.5930 C   0  0  1  0  0  3  0  0  0  0  0  0
  190.9670  177.1300  137.4590 N   0  0  2  0  0  0  0  0  0  0  0  0
  189.5100  172.0740  134.8150 C   0  0  0  0  0  2  0  0  0  0  0  0
  188.4560  174.1770  136.4030 C   0  0  2  0  0  3  0  0  0  0  0  0
  189.0660  177.7470  139.6580 C   0  0  0  0  0  0  0  0  0  0  0  0
  187.5330  173.6360  135.3110 C   0  0  0  0  0  2  0  0  0  0  0  0
  190.2220  175.2570  138.7580 O   0  0  0  0  0  1  0  0  0  0  0  0
  188.1610  177.6840  140.5320 O   0  0  0  0  0  0  0  0  0  0  0  0
  188.0230  175.5710  136.7970 C   0  0  0  0  0  2  0  0  0  0  0  0
  189.5980  177.5530  137.1190 C   0  0  2  0  0  3  0  0  0  0  0  0
  191.3950  176.3570  136.2830 C   0  0  1  0  0  3  0  0  0  0  0  0
  190.7670  177.4660  140.1330 S   0  0  0  0  0  0  0  0  0  0  0  0
  187.6390  178.6100  137.9920 O   0  0  0  0  0  0  0  0  0  0  0  0
  187.9850  172.2470  134.8410 C   0  0  0  0  0  2  0  0  0  0  0  0
  188.7200  178.0220  138.2580 C   0  0  0  0  0  0  0  0  0  0  0  0
  190.2280  173.4160  134.7130 C   0  0  0  0  0  2  0  0  0  0  0  0
  191.0720  176.3660  138.7210 C   0  0  2  0  0  3  0  0  0  0  0  0
  189.9110  174.2930  135.9300 C   0  0  1  0  0  3  0  0  0  0  0  0
  192.6400  175.4620  136.4690 C   0  0  2  0  0  3  0  0  0  0  0  0
  194.3290  175.1050  138.1250 O   0  0  0  0  0  1  0  0  0  0  0  0
  193.6120  176.0990  137.4610 C   0  0  0  0  0  2  0  0  0  0  0  0
  193.3130  175.1710  135.1170 C   0  0  2  0  0  3  0  0  0  0  0  0
  193.9360  173.7770  135.0490 C   0  0  0  0  0  2  0  0  0  0  0  0
  193.3160  172.9030  135.9440 O   0  0  0  0  0  1  0  0  0  0  0  0
  195.6880  175.7510  134.5970 C   0  0  0  0  0  1  0  0  0  0  0  0
  194.2670  176.2740  134.6580 C   0  0  0  0  0  2  0  0  0  0  0  0
  1 10  1  1  0  0  0
  1 11  1  0  0  0  0
  2 19  1  0  0  0  0
  2  1  1  0  0  0  0
  2 12  1  0  0  0  0
  3 18  1  0  0  0  0
  4 15  1  0  0  0  0
  5 10  1  0  0  0  0
  6 13  1  0  0  0  0
  6  9  2  0  0  0  0
  7  5  1  0  0  0  0
 11  3  1  0  0  0  0
 11 16  1  0  0  0  0
 12 20  1  0  0  0  0
 12  3  1  0  0  0  0
 14 16  2  0  0  0  0
 15  7  1  0  0  0  0
 16  6  1  0  0  0  0
 17  4  1  0  0  0  0
 17 19  1  0  0  0  0
 18  8  1  0  0  0  0
 18 13  1  0  0  0  0
 19  5  1  0  0  0  0
 20 22  1  0  0  0  0
 22 21  1  0  0  0  0
 23 20  1  0  0  0  0
 24 23  1  0  0  0  0
 24 25  1  0  0  0  0
 26 27  1  0  0  0  0
 27 23  1  0  0  0  0
M  END
>  <MODEL>
8

>  <REMARK>
 VINA RESULT:      -4.4      4.492      7.650
  Name = 
  5 active torsions:
  status: ('A' for Active; 'I' for Inactive)
    1  A    between atoms: C_4  and  C_17
    2  A    between atoms: C_14  and  C_16
    3  A    between atoms: C_14  and  C_17
    4  A    between atoms: C_14  and  C_19
    5  A    between atoms: C_17  and  C_21
                            x       y       z     vdW  Elec       q    Type
                         _______ _______ _______ _____ _____    ______ ____

>  <TORSDO>
F 5

$$$$
=
 OpenBabel11052413543D

 27 30  0  0  1  0  0  0  0  0999 V2000
  181.9990  176.1820  136.5860 C   0  0  1  0  0  3  0  0  0  0  0  0
  183.5150  176.0870  136.5890 C   0  0  1  0  0  3  0  0  0  0  0  0
  182.8790  178.0620  137.8970 N   0  0  2  0  0  0  0  0  0  0  0  0
  184.9970  172.6150  137.1790 C   0  0  0  0  0  2  0  0  0  0  0  0
  182.6010  174.0620  137.6490 C   0  0  2  0  0  3  0  0  0  0  0  0
  180.2890  177.9950  139.3510 C   0  0  0  0  0  0  0  0  0  0  0  0
  182.4850  172.8610  136.7110 C   0  0  0  0  0  2  0  0  0  0  0  0
  182.7130  176.4570  139.6710 O   0  0  0  0  0  1  0  0  0  0  0  0
  179.2840  177.6400  140.0210 O   0  0  0  0  0  0  0  0  0  0  0  0
  181.4560  175.0180  137.4060 C   0  0  0  0  0  2  0  0  0  0  0  0
  181.6860  177.5510  137.2010 C   0  0  2  0  0  3  0  0  0  0  0  0
  183.9970  177.4160  137.1920 C   0  0  1  0  0  3  0  0  0  0  0  0
  181.6380  178.8360  140.1690 S   0  0  0  0  0  0  0  0  0  0  0  0
  179.2970  177.4940  137.2720 O   0  0  0  0  0  0  0  0  0  0  0  0
  183.6690  171.9020  136.8870 C   0  0  0  0  0  2  0  0  0  0  0  0
  180.3600  177.6950  137.9150 C   0  0  0  0  0  0  0  0  0  0  0  0
  184.9810  174.0600  136.6920 C   0  0  0  0  0  2  0  0  0  0  0  0
  182.8910  177.8060  139.3530 C   0  0  2  0  0  3  0  0  0  0  0  0
  183.8900  174.8610  137.4140 C   0  0  1  0  0  3  0  0  0  0  0  0
  185.3660  177.4460  137.9050 C   0  0  2  0  0  3  0  0  0  0  0  0
  186.3390  178.6410  139.7360 O   0  0  0  0  0  1  0  0  0  0  0  0
  185.5910  178.8040  138.5710 C   0  0  0  0  0  2  0  0  0  0  0  0
  186.5020  177.0950  136.9300 C   0  0  2  0  0  3  0  0  0  0  0  0
  187.6640  176.3690  137.6060 C   0  0  0  0  0  2  0  0  0  0  0  0
  188.7520  177.2230  137.7960 O   0  0  0  0  0  1  0  0  0  0  0  0
  186.8110  177.9320  134.5950 C   0  0  0  0  0  1  0  0  0  0  0  0
  186.9540  178.2710  136.0660 C   0  0  0  0  0  2  0  0  0  0  0  0
  1  2  1  0  0  0  0
  1 11  1  0  0  0  0
  1 10  1  1  0  0  0
  2 12  1  0  0  0  0
  2 19  1  0  0  0  0
  3 18  1  0  0  0  0
  6  9  2  0  0  0  0
  6 13  1  0  0  0  0
  7 15  1  0  0  0  0
  7  5  1  0  0  0  0
 10  5  1  0  0  0  0
 11  3  1  0  0  0  0
 11 16  1  0  0  0  0
 12  3  1  0  0  0  0
 12 20  1  0  0  0  0
 14 16  2  0  0  0  0
 15  4  1  0  0  0  0
 16  6  1  0  0  0  0
 17  4  1  0  0  0  0
 17 19  1  0  0  0  0
 18  8  1  0  0  0  0
 18 13  1  0  0  0  0
 19  5  1  0  0  0  0
 20 22  1  0  0  0  0
 22 21  1  0  0  0  0
 23 24  1  0  0  0  0
 23 20  1  0  0  0  0
 24 25  1  0  0  0  0
 26 27  1  0  0  0  0
 27 23  1  0  0  0  0
M  END
>  <MODEL>
9

>  <REMARK>
 VINA RESULT:      -4.4      6.011      8.912
  Name = 
  5 active torsions:
  status: ('A' for Active; 'I' for Inactive)
    1  A    between atoms: C_4  and  C_17
    2  A    between atoms: C_14  and  C_16
    3  A    between atoms: C_14  and  C_17
    4  A    between atoms: C_14  and  C_19
    5  A    between atoms: C_17  and  C_21
                            x       y       z     vdW  Elec       q    Type
                         _______ _______ _______ _____ _____    ______ ____

>  <TORSDO>
F 5

$$$$
