=
 OpenBabel11052412493D

 25 29  0  0  1  0  0  0  0  0999 V2000
  186.7670  178.1500  144.5620 C   0  0  0  0  0  0  0  0  0  0  0  0
  188.0000  177.7200  144.0640 C   0  0  0  0  0  0  0  0  0  0  0  0
  187.3730  177.5250  146.8180 C   0  0  0  0  0  3  0  0  0  0  0  0
  185.6670  178.8590  143.8590 C   0  0  2  0  0  3  0  0  0  0  0  0
  182.8090  178.8460  143.5000 C   0  0  0  0  0  3  0  0  0  0  0  0
  188.6050  177.0540  146.3370 C   0  0  0  0  0  3  0  0  0  0  0  0
  184.6840  179.0210  144.9870 C   0  0  0  0  0  0  0  0  0  0  0  0
  183.2680  179.2520  144.6920 C   0  0  0  0  0  3  0  0  0  0  0  0
  190.1760  176.6430  144.4730 N   0  0  0  0  0  0  0  0  0  0  0  0
  191.3780  176.7030  145.2890 C   0  0  0  0  0  1  0  0  0  0  0  0
  188.3250  177.8940  142.6790 N   0  0  0  0  0  2  0  0  0  0  0  0
  183.7000  178.1420  142.5400 C   0  0  0  0  0  3  0  0  0  0  0  0
  186.4770  178.0770  145.9070 C   0  0  0  0  0  0  0  0  0  0  0  0
  185.1410  178.5910  146.1610 C   0  0  0  0  0  3  0  0  0  0  0  0
  190.3040  176.0730  142.8040 S   0  0  0  0  0  0  0  0  0  0  0  0
  185.0290  178.0870  142.7320 C   0  0  0  0  0  3  0  0  0  0  0  0
  189.6670  177.6510  142.1590 C   0  0  1  0  0  3  0  0  0  0  0  0
  188.9220  177.1370  144.9640 C   0  0  0  0  0  0  0  0  0  0  0  0
  190.7060  177.0160  138.5750 C   0  0  0  0  0  0  0  0  0  0  0  0
  189.6550  177.6520  140.6650 C   0  0  0  0  0  0  0  0  0  0  0  0
  190.7020  177.0340  139.9730 C   0  0  0  0  0  3  0  0  0  0  0  0
  192.0190  176.2430  137.7150 Cl  0  0  0  0  0  0  0  0  0  0  0  0
  188.6060  178.2480  139.9490 C   0  0  0  0  0  3  0  0  0  0  0  0
  189.6610  177.6140  137.8640 C   0  0  0  0  0  3  0  0  0  0  0  0
  188.6110  178.2310  138.5520 C   0  0  0  0  0  3  0  0  0  0  0  0
  1 13  1  0  0  0  0
  2  1  2  0  0  0  0
  2 18  1  0  0  0  0
  4 16  1  6  0  0  0
  4  1  1  0  0  0  0
  4  7  1  0  0  0  0
  5  8  2  0  0  0  0
  6  3  1  0  0  0  0
  7 14  2  0  0  0  0
  8  7  1  0  0  0  0
  9 18  1  0  0  0  0
  9 10  1  0  0  0  0
 11  2  1  0  0  0  0
 12 16  2  0  0  0  0
 12  5  1  0  0  0  0
 13 14  1  0  0  0  0
 13  3  2  0  0  0  0
 15  9  1  0  0  0  0
 17 20  1  6  0  0  0
 17 11  1  0  0  0  0
 17 15  1  0  0  0  0
 18  6  2  0  0  0  0
 19 21  1  0  0  0  0
 21 20  2  0  0  0  0
 22 19  1  0  0  0  0
 23 20  1  0  0  0  0
 24 25  1  0  0  0  0
 24 19  2  0  0  0  0
 25 23  2  0  0  0  0
M  END
>  <MODEL>
1

>  <REMARK>
 VINA RESULT:     -10.9      0.000      0.000
  Name = 
  1 active torsions:
  status: ('A' for Active; 'I' for Inactive)
    1  A    between atoms: C_6  and  C_23
                            x       y       z     vdW  Elec       q    Type
                         _______ _______ _______ _____ _____    ______ ____

>  <TORSDO>
F 1

$$$$
=
 OpenBabel11052412493D

 25 29  0  0  1  0  0  0  0  0999 V2000
  186.7910  178.1600  144.4970 C   0  0  0  0  0  0  0  0  0  0  0  0
  188.0200  177.6950  144.0230 C   0  0  0  0  0  0  0  0  0  0  0  0
  187.3830  177.6270  146.7810 C   0  0  0  0  0  3  0  0  0  0  0  0
  185.7010  178.8510  143.7610 C   0  0  2  0  0  3  0  0  0  0  0  0
  182.8450  178.8550  143.3930 C   0  0  0  0  0  3  0  0  0  0  0  0
  188.6100  177.1210  146.3250 C   0  0  0  0  0  3  0  0  0  0  0  0
  184.7170  179.0730  144.8770 C   0  0  0  0  0  0  0  0  0  0  0  0
  183.3040  179.3070  144.5670 C   0  0  0  0  0  3  0  0  0  0  0  0
  190.1820  176.6120  144.4870 N   0  0  0  0  0  0  0  0  0  0  0  0
  191.3830  176.6920  145.3030 C   0  0  0  0  0  1  0  0  0  0  0  0
  188.3510  177.8050  142.6330 N   0  0  0  0  0  2  0  0  0  0  0  0
  183.7300  178.1000  142.4670 C   0  0  0  0  0  3  0  0  0  0  0  0
  186.4960  178.1490  145.8430 C   0  0  0  0  0  0  0  0  0  0  0  0
  185.1650  178.6890  146.0700 C   0  0  0  0  0  3  0  0  0  0  0  0
  190.3090  175.9690  142.8440 S   0  0  0  0  0  0  0  0  0  0  0  0
  185.0580  178.0380  142.6660 C   0  0  0  0  0  3  0  0  0  0  0  0
  189.6920  177.5240  142.1290 C   0  0  1  0  0  3  0  0  0  0  0  0
  188.9330  177.1410  144.9510 C   0  0  0  0  0  0  0  0  0  0  0  0
  188.5100  177.7990  138.5440 C   0  0  0  0  0  0  0  0  0  0  0  0
  189.6850  177.4600  140.6360 C   0  0  0  0  0  0  0  0  0  0  0  0
  188.5340  177.8430  139.9410 C   0  0  0  0  0  3  0  0  0  0  0  0
  187.0650  178.2770  137.6790 Cl  0  0  0  0  0  0  0  0  0  0  0  0
  190.8180  177.0380  139.9250 C   0  0  0  0  0  3  0  0  0  0  0  0
  189.6390  177.3740  137.8370 C   0  0  0  0  0  3  0  0  0  0  0  0
  190.7940  176.9940  138.5280 C   0  0  0  0  0  3  0  0  0  0  0  0
  1 13  1  0  0  0  0
  2  1  2  0  0  0  0
  2 18  1  0  0  0  0
  4 16  1  6  0  0  0
  4  1  1  0  0  0  0
  4  7  1  0  0  0  0
  5  8  2  0  0  0  0
  6  3  1  0  0  0  0
  7 14  2  0  0  0  0
  8  7  1  0  0  0  0
  9 18  1  0  0  0  0
  9 10  1  0  0  0  0
 11  2  1  0  0  0  0
 12 16  2  0  0  0  0
 12  5  1  0  0  0  0
 13 14  1  0  0  0  0
 13  3  2  0  0  0  0
 15  9  1  0  0  0  0
 17 20  1  6  0  0  0
 17 11  1  0  0  0  0
 17 15  1  0  0  0  0
 18  6  2  0  0  0  0
 19 21  1  0  0  0  0
 21 20  2  0  0  0  0
 22 19  1  0  0  0  0
 23 20  1  0  0  0  0
 24 25  1  0  0  0  0
 24 19  2  0  0  0  0
 25 23  2  0  0  0  0
M  END
>  <MODEL>
2

>  <REMARK>
 VINA RESULT:     -10.8      1.083      1.448
  Name = 
  1 active torsions:
  status: ('A' for Active; 'I' for Inactive)
    1  A    between atoms: C_6  and  C_23
                            x       y       z     vdW  Elec       q    Type
                         _______ _______ _______ _____ _____    ______ ____

>  <TORSDO>
F 1

$$$$
=
 OpenBabel11052412493D

 25 29  0  0  1  0  0  0  0  0999 V2000
  186.5650  178.0630  142.3540 C   0  0  0  0  0  0  0  0  0  0  0  0
  187.9400  177.8170  142.3830 C   0  0  0  0  0  0  0  0  0  0  0  0
  186.6170  178.5090  139.9770 C   0  0  0  0  0  3  0  0  0  0  0  0
  185.5600  177.9050  143.4360 C   0  0  2  0  0  3  0  0  0  0  0  0
  183.3450  179.2380  144.7040 C   0  0  0  0  0  3  0  0  0  0  0  0
  188.0050  178.3010  139.9870 C   0  0  0  0  0  3  0  0  0  0  0  0
  184.3100  178.3190  142.7090 C   0  0  0  0  0  0  0  0  0  0  0  0
  183.1380  178.7620  143.4690 C   0  0  0  0  0  3  0  0  0  0  0  0
  190.0950  177.7660  141.1930 N   0  0  0  0  0  0  0  0  0  0  0  0
  190.7850  177.2120  140.0390 C   0  0  0  0  0  1  0  0  0  0  0  0
  188.5780  177.3970  143.5960 N   0  0  0  0  0  2  0  0  0  0  0  0
  184.7210  179.3560  145.2560 C   0  0  0  0  0  3  0  0  0  0  0  0
  185.9210  178.3740  141.1760 C   0  0  0  0  0  0  0  0  0  0  0  0
  184.5020  178.5760  141.4180 C   0  0  0  0  0  3  0  0  0  0  0  0
  191.0160  178.0690  142.6730 S   0  0  0  0  0  0  0  0  0  0  0  0
  185.7720  178.7910  144.6370 C   0  0  0  0  0  3  0  0  0  0  0  0
  189.9610  176.9340  143.6270 C   0  0  1  0  0  3  0  0  0  0  0  0
  188.6750  177.9650  141.1840 C   0  0  0  0  0  0  0  0  0  0  0  0
  190.1090  177.2760  147.3930 C   0  0  0  0  0  0  0  0  0  0  0  0
  190.4410  176.8160  145.0370 C   0  0  0  0  0  0  0  0  0  0  0  0
  189.6820  177.3820  146.0660 C   0  0  0  0  0  3  0  0  0  0  0  0
  189.1560  177.9870  148.6770 Cl  0  0  0  0  0  0  0  0  0  0  0  0
  191.6300  176.1370  145.3430 C   0  0  0  0  0  3  0  0  0  0  0  0
  191.2960  176.6010  147.6950 C   0  0  0  0  0  3  0  0  0  0  0  0
  192.0560  176.0310  146.6690 C   0  0  0  0  0  3  0  0  0  0  0  0
  1  2  1  0  0  0  0
  1  4  1  0  0  0  0
  2 11  1  0  0  0  0
  3  6  2  0  0  0  0
  3 13  1  0  0  0  0
  4 16  1  1  0  0  0
  5 12  1  0  0  0  0
  6 18  1  0  0  0  0
  7  4  1  0  0  0  0
  7  8  1  0  0  0  0
  8  5  2  0  0  0  0
  9 15  1  0  0  0  0
 10  9  1  0  0  0  0
 11 17  1  0  0  0  0
 13 14  1  0  0  0  0
 13  1  2  0  0  0  0
 14  7  2  0  0  0  0
 15 17  1  0  0  0  0
 16 12  2  0  0  0  0
 17 20  1  1  0  0  0
 18  9  1  0  0  0  0
 18  2  2  0  0  0  0
 19 24  1  0  0  0  0
 19 22  1  0  0  0  0
 20 23  2  0  0  0  0
 20 21  1  0  0  0  0
 21 19  2  0  0  0  0
 23 25  1  0  0  0  0
 25 24  2  0  0  0  0
M  END
>  <MODEL>
3

>  <REMARK>
 VINA RESULT:     -10.3      2.673      5.392
  Name = 
  1 active torsions:
  status: ('A' for Active; 'I' for Inactive)
    1  A    between atoms: C_6  and  C_23
                            x       y       z     vdW  Elec       q    Type
                         _______ _______ _______ _____ _____    ______ ____

>  <TORSDO>
F 1

$$$$
=
 OpenBabel11052412493D

 25 29  0  0  1  0  0  0  0  0999 V2000
  186.4780  178.2810  143.7980 C   0  0  0  0  0  0  0  0  0  0  0  0
  187.5800  177.9690  142.9980 C   0  0  0  0  0  0  0  0  0  0  0  0
  187.6030  177.4920  145.7880 C   0  0  0  0  0  3  0  0  0  0  0  0
  185.2220  178.9850  143.4330 C   0  0  2  0  0  3  0  0  0  0  0  0
  182.3600  178.8400  143.7200 C   0  0  0  0  0  3  0  0  0  0  0  0
  188.7090  177.1380  145.0000 C   0  0  0  0  0  3  0  0  0  0  0  0
  184.5160  178.9880  144.7610 C   0  0  0  0  0  0  0  0  0  0  0  0
  183.0620  179.1630  144.8140 C   0  0  0  0  0  3  0  0  0  0  0  0
  189.8290  176.9880  142.8020 N   0  0  0  0  0  0  0  0  0  0  0  0
  191.1830  177.0430  143.3310 C   0  0  0  0  0  1  0  0  0  0  0  0
  187.5750  178.2850  141.6000 N   0  0  0  0  0  2  0  0  0  0  0  0
  183.0340  178.2770  142.5190 C   0  0  0  0  0  3  0  0  0  0  0  0
  186.5030  178.0710  145.1600 C   0  0  0  0  0  0  0  0  0  0  0  0
  185.2420  178.4820  145.7550 C   0  0  0  0  0  3  0  0  0  0  0  0
  189.5950  176.5780  141.0970 S   0  0  0  0  0  0  0  0  0  0  0  0
  184.3730  178.2820  142.4040 C   0  0  0  0  0  3  0  0  0  0  0  0
  188.7720  178.1680  140.7720 C   0  0  1  0  0  3  0  0  0  0  0  0
  188.7030  177.3620  143.6060 C   0  0  0  0  0  0  0  0  0  0  0  0
  186.7840  178.0830  137.5520 C   0  0  0  0  0  0  0  0  0  0  0  0
  188.4210  178.3020  139.3260 C   0  0  0  0  0  0  0  0  0  0  0  0
  187.1350  177.9560  138.9000 C   0  0  0  0  0  3  0  0  0  0  0  0
  185.1740  177.6460  137.0240 Cl  0  0  0  0  0  0  0  0  0  0  0  0
  189.3560  178.7820  138.3960 C   0  0  0  0  0  3  0  0  0  0  0  0
  187.7190  178.5580  136.6270 C   0  0  0  0  0  3  0  0  0  0  0  0
  189.0050  178.9080  137.0490 C   0  0  0  0  0  3  0  0  0  0  0  0
  1 13  1  0  0  0  0
  2 18  1  0  0  0  0
  2  1  2  0  0  0  0
  4 16  1  6  0  0  0
  4  1  1  0  0  0  0
  4  7  1  0  0  0  0
  5  8  2  0  0  0  0
  6  3  1  0  0  0  0
  7  8  1  0  0  0  0
  7 14  2  0  0  0  0
  9 10  1  0  0  0  0
  9 18  1  0  0  0  0
 11  2  1  0  0  0  0
 12  5  1  0  0  0  0
 13 14  1  0  0  0  0
 13  3  2  0  0  0  0
 15  9  1  0  0  0  0
 16 12  2  0  0  0  0
 17 20  1  6  0  0  0
 17 15  1  0  0  0  0
 17 11  1  0  0  0  0
 18  6  2  0  0  0  0
 19 21  1  0  0  0  0
 21 20  2  0  0  0  0
 22 19  1  0  0  0  0
 23 20  1  0  0  0  0
 24 25  1  0  0  0  0
 24 19  2  0  0  0  0
 25 23  2  0  0  0  0
M  END
>  <MODEL>
4

>  <REMARK>
 VINA RESULT:     -10.0      1.853      2.215
  Name = 
  1 active torsions:
  status: ('A' for Active; 'I' for Inactive)
    1  A    between atoms: C_6  and  C_23
                            x       y       z     vdW  Elec       q    Type
                         _______ _______ _______ _____ _____    ______ ____

>  <TORSDO>
F 1

$$$$
=
 OpenBabel11052412493D

 25 29  0  0  1  0  0  0  0  0999 V2000
  189.0960  177.3090  143.3050 C   0  0  0  0  0  0  0  0  0  0  0  0
  188.0800  177.6410  144.2050 C   0  0  0  0  0  0  0  0  0  0  0  0
  190.7430  177.2280  145.0740 C   0  0  0  0  0  3  0  0  0  0  0  0
  189.0000  176.9970  141.8560 C   0  0  2  0  0  3  0  0  0  0  0  0
  190.2220  177.5760  139.3130 C   0  0  0  0  0  3  0  0  0  0  0  0
  189.7470  177.5940  145.9930 C   0  0  0  0  0  3  0  0  0  0  0  0
  190.4450  176.7180  141.5420 C   0  0  0  0  0  0  0  0  0  0  0  0
  190.9220  176.8090  140.1590 C   0  0  0  0  0  3  0  0  0  0  0  0
  187.4060  178.1990  146.5070 N   0  0  0  0  0  0  0  0  0  0  0  0
  187.4410  177.7350  147.8840 C   0  0  0  0  0  1  0  0  0  0  0  0
  186.7260  177.7740  143.7560 N   0  0  0  0  0  2  0  0  0  0  0  0
  189.0370  178.3440  139.7800 C   0  0  0  0  0  3  0  0  0  0  0  0
  190.3850  177.0840  143.7360 C   0  0  0  0  0  0  0  0  0  0  0  0
  191.2410  176.7520  142.6090 C   0  0  0  0  0  3  0  0  0  0  0  0
  186.0160  179.1470  145.9600 S   0  0  0  0  0  0  0  0  0  0  0  0
  188.4980  178.1250  140.9920 C   0  0  0  0  0  3  0  0  0  0  0  0
  185.6090  177.9150  144.6840 C   0  0  1  0  0  3  0  0  0  0  0  0
  188.4190  177.8130  145.5670 C   0  0  0  0  0  0  0  0  0  0  0  0
  183.1970  178.5950  141.8470 C   0  0  0  0  0  0  0  0  0  0  0  0
  184.3650  178.2980  143.9510 C   0  0  0  0  0  0  0  0  0  0  0  0
  184.3540  178.2490  142.5530 C   0  0  0  0  0  3  0  0  0  0  0  0
  183.1900  178.5340  140.0990 Cl  0  0  0  0  0  0  0  0  0  0  0  0
  183.2080  178.6890  144.6410 C   0  0  0  0  0  3  0  0  0  0  0  0
  182.0470  178.9880  142.5380 C   0  0  0  0  0  3  0  0  0  0  0  0
  182.0530  179.0350  143.9360 C   0  0  0  0  0  3  0  0  0  0  0  0
  1 13  2  0  0  0  0
  1  2  1  0  0  0  0
  2 18  2  0  0  0  0
  3  6  2  0  0  0  0
  4 16  1  6  0  0  0
  4  1  1  0  0  0  0
  5 12  1  0  0  0  0
  5  8  2  0  0  0  0
  7  4  1  0  0  0  0
  7 14  2  0  0  0  0
  8  7  1  0  0  0  0
  9 10  1  0  0  0  0
 11  2  1  0  0  0  0
 11 17  1  0  0  0  0
 12 16  2  0  0  0  0
 13  3  1  0  0  0  0
 14 13  1  0  0  0  0
 15  9  1  0  0  0  0
 17 20  1  6  0  0  0
 17 15  1  0  0  0  0
 18  6  1  0  0  0  0
 18  9  1  0  0  0  0
 19 24  2  0  0  0  0
 19 21  1  0  0  0  0
 20 23  1  0  0  0  0
 21 20  2  0  0  0  0
 22 19  1  0  0  0  0
 24 25  1  0  0  0  0
 25 23  2  0  0  0  0
M  END
>  <MODEL>
5

>  <REMARK>
 VINA RESULT:      -9.7      2.610      6.107
  Name = 
  1 active torsions:
  status: ('A' for Active; 'I' for Inactive)
    1  A    between atoms: C_6  and  C_23
                            x       y       z     vdW  Elec       q    Type
                         _______ _______ _______ _____ _____    ______ ____

>  <TORSDO>
F 1

$$$$
=
 OpenBabel11052412493D

 25 29  0  0  1  0  0  0  0  0999 V2000
  187.8030  177.5050  145.2360 C   0  0  0  0  0  0  0  0  0  0  0  0
  187.0610  177.8750  144.1110 C   0  0  0  0  0  0  0  0  0  0  0  0
  185.9840  178.0810  146.7220 C   0  0  0  0  0  3  0  0  0  0  0  0
  189.1390  176.8590  145.3080 C   0  0  2  0  0  3  0  0  0  0  0  0
  191.6800  177.0210  146.6520 C   0  0  0  0  0  3  0  0  0  0  0  0
  185.2310  178.4930  145.6100 C   0  0  0  0  0  3  0  0  0  0  0  0
  189.3030  176.7400  146.7990 C   0  0  0  0  0  0  0  0  0  0  0  0
  190.6410  176.5840  147.3750 C   0  0  0  0  0  3  0  0  0  0  0  0
  184.9970  178.8350  143.1740 N   0  0  0  0  0  0  0  0  0  0  0  0
  183.5480  178.7090  143.1530 C   0  0  0  0  0  1  0  0  0  0  0  0
  187.5980  177.6950  142.7950 N   0  0  0  0  0  2  0  0  0  0  0  0
  191.4710  177.6860  145.3390 C   0  0  0  0  0  3  0  0  0  0  0  0
  187.2650  177.5830  146.5020 C   0  0  0  0  0  0  0  0  0  0  0  0
  188.2360  177.1370  147.4880 C   0  0  0  0  0  3  0  0  0  0  0  0
  185.8240  179.4110  141.7190 S   0  0  0  0  0  0  0  0  0  0  0  0
  190.2710  177.6710  144.7320 C   0  0  0  0  0  3  0  0  0  0  0  0
  186.7880  177.8730  141.5940 C   0  0  1  0  0  3  0  0  0  0  0  0
  185.7630  178.4030  144.3060 C   0  0  0  0  0  0  0  0  0  0  0  0
  187.8910  178.2550  137.9930 C   0  0  0  0  0  0  0  0  0  0  0  0
  187.6550  177.8840  140.3770 C   0  0  0  0  0  0  0  0  0  0  0  0
  187.0950  178.2310  139.1430 C   0  0  0  0  0  3  0  0  0  0  0  0
  187.1860  178.6890  136.4520 Cl  0  0  0  0  0  0  0  0  0  0  0  0
  189.0190  177.5660  140.4570 C   0  0  0  0  0  3  0  0  0  0  0  0
  189.2500  177.9350  138.0750 C   0  0  0  0  0  3  0  0  0  0  0  0
  189.8140  177.5900  139.3070 C   0  0  0  0  0  3  0  0  0  0  0  0
  1  4  1  0  0  0  0
  1 13  1  0  0  0  0
  2 18  1  0  0  0  0
  2  1  2  0  0  0  0
  4 16  1  1  0  0  0
  4  7  1  0  0  0  0
  5  8  2  0  0  0  0
  6  3  1  0  0  0  0
  7  8  1  0  0  0  0
  7 14  2  0  0  0  0
  9 18  1  0  0  0  0
 10  9  1  0  0  0  0
 11  2  1  0  0  0  0
 12  5  1  0  0  0  0
 13  3  2  0  0  0  0
 13 14  1  0  0  0  0
 15  9  1  0  0  0  0
 16 12  2  0  0  0  0
 17 20  1  6  0  0  0
 17 15  1  0  0  0  0
 17 11  1  0  0  0  0
 18  6  2  0  0  0  0
 19 24  2  0  0  0  0
 19 21  1  0  0  0  0
 20 23  1  0  0  0  0
 21 20  2  0  0  0  0
 22 19  1  0  0  0  0
 24 25  1  0  0  0  0
 25 23  2  0  0  0  0
M  END
>  <MODEL>
6

>  <REMARK>
 VINA RESULT:      -9.5      2.043      4.745
  Name = 
  1 active torsions:
  status: ('A' for Active; 'I' for Inactive)
    1  A    between atoms: C_6  and  C_23
                            x       y       z     vdW  Elec       q    Type
                         _______ _______ _______ _____ _____    ______ ____

>  <TORSDO>
F 1

$$$$
=
 OpenBabel11052412493D

 25 29  0  0  1  0  0  0  0  0999 V2000
  187.7920  177.5090  145.2220 C   0  0  0  0  0  0  0  0  0  0  0  0
  187.0410  177.8750  144.1030 C   0  0  0  0  0  0  0  0  0  0  0  0
  185.9750  178.0650  146.7190 C   0  0  0  0  0  3  0  0  0  0  0  0
  189.1340  176.8750  145.2860 C   0  0  2  0  0  3  0  0  0  0  0  0
  191.6810  177.0570  146.6170 C   0  0  0  0  0  3  0  0  0  0  0  0
  185.2130  178.4730  145.6130 C   0  0  0  0  0  3  0  0  0  0  0  0
  189.3060  176.7530  146.7750 C   0  0  0  0  0  0  0  0  0  0  0  0
  190.6490  176.6080  147.3440 C   0  0  0  0  0  3  0  0  0  0  0  0
  184.9630  178.8200  143.1780 N   0  0  0  0  0  0  0  0  0  0  0  0
  183.5160  178.6800  143.1650 C   0  0  0  0  0  1  0  0  0  0  0  0
  187.5720  177.7030  142.7830 N   0  0  0  0  0  2  0  0  0  0  0  0
  191.4580  177.7230  145.3060 C   0  0  0  0  0  3  0  0  0  0  0  0
  187.2600  177.5790  146.4910 C   0  0  0  0  0  0  0  0  0  0  0  0
  188.2400  177.1390  147.4710 C   0  0  0  0  0  3  0  0  0  0  0  0
  185.7770  179.4060  141.7210 S   0  0  0  0  0  0  0  0  0  0  0  0
  190.2560  177.6990  144.7060 C   0  0  0  0  0  3  0  0  0  0  0  0
  186.7550  177.8770  141.5860 C   0  0  1  0  0  3  0  0  0  0  0  0
  185.7400  178.3910  144.3050 C   0  0  0  0  0  0  0  0  0  0  0  0
  189.7860  177.5590  139.3420 C   0  0  0  0  0  0  0  0  0  0  0  0
  187.6150  177.8990  140.3650 C   0  0  0  0  0  0  0  0  0  0  0  0
  188.9650  177.5530  140.4740 C   0  0  0  0  0  3  0  0  0  0  0  0
  191.4760  177.1280  139.4850 Cl  0  0  0  0  0  0  0  0  0  0  0  0
  187.0850  178.2450  139.1130 C   0  0  0  0  0  3  0  0  0  0  0  0
  189.2560  177.9080  138.0950 C   0  0  0  0  0  3  0  0  0  0  0  0
  187.9050  178.2510  137.9810 C   0  0  0  0  0  3  0  0  0  0  0  0
  1  4  1  0  0  0  0
  1 13  1  0  0  0  0
  2 18  1  0  0  0  0
  2  1  2  0  0  0  0
  4 16  1  1  0  0  0
  4  7  1  0  0  0  0
  5  8  2  0  0  0  0
  6  3  1  0  0  0  0
  7  8  1  0  0  0  0
  7 14  2  0  0  0  0
  9 18  1  0  0  0  0
 10  9  1  0  0  0  0
 11  2  1  0  0  0  0
 12  5  1  0  0  0  0
 13  3  2  0  0  0  0
 13 14  1  0  0  0  0
 15  9  1  0  0  0  0
 16 12  2  0  0  0  0
 17 20  1  6  0  0  0
 17 15  1  0  0  0  0
 17 11  1  0  0  0  0
 18  6  2  0  0  0  0
 19 22  1  0  0  0  0
 19 21  1  0  0  0  0
 20 21  2  0  0  0  0
 23 20  1  0  0  0  0
 24 19  2  0  0  0  0
 25 24  1  0  0  0  0
 25 23  2  0  0  0  0
M  END
>  <MODEL>
7

>  <REMARK>
 VINA RESULT:      -9.5      1.765      4.548
  Name = 
  1 active torsions:
  status: ('A' for Active; 'I' for Inactive)
    1  A    between atoms: C_6  and  C_23
                            x       y       z     vdW  Elec       q    Type
                         _______ _______ _______ _____ _____    ______ ____

>  <TORSDO>
F 1

$$$$
=
 OpenBabel11052412493D

 25 29  0  0  1  0  0  0  0  0999 V2000
  188.8120  177.4360  143.0960 C   0  0  0  0  0  0  0  0  0  0  0  0
  187.7290  177.7670  143.9140 C   0  0  0  0  0  0  0  0  0  0  0  0
  190.3360  177.4490  144.9740 C   0  0  0  0  0  3  0  0  0  0  0  0
  188.8240  177.0790  141.6540 C   0  0  2  0  0  3  0  0  0  0  0  0
  190.2030  177.6160  139.1830 C   0  0  0  0  0  3  0  0  0  0  0  0
  189.2700  177.8170  145.8120 C   0  0  0  0  0  3  0  0  0  0  0  0
  190.2930  176.8300  141.4480 C   0  0  0  0  0  0  0  0  0  0  0  0
  190.8610  176.8930  140.0990 C   0  0  0  0  0  3  0  0  0  0  0  0
  186.8860  178.3750  146.1460 N   0  0  0  0  0  0  0  0  0  0  0  0
  186.8370  177.9520  147.5370 C   0  0  0  0  0  1  0  0  0  0  0  0
  186.4060  177.8520  143.3700 N   0  0  0  0  0  2  0  0  0  0  0  0
  188.9710  178.3660  139.5450 C   0  0  0  0  0  3  0  0  0  0  0  0
  190.0740  177.2570  143.6200 C   0  0  0  0  0  0  0  0  0  0  0  0
  191.0130  176.9150  142.5640 C   0  0  0  0  0  3  0  0  0  0  0  0
  185.5140  179.2700  145.4780 S   0  0  0  0  0  0  0  0  0  0  0  0
  188.3550  178.1690  140.7240 C   0  0  0  0  0  3  0  0  0  0  0  0
  185.2250  177.9910  144.2160 C   0  0  1  0  0  3  0  0  0  0  0  0
  187.9690  177.9880  145.2900 C   0  0  0  0  0  0  0  0  0  0  0  0
  181.6790  178.9140  143.2670 C   0  0  0  0  0  0  0  0  0  0  0  0
  184.0260  178.3190  143.3880 C   0  0  0  0  0  0  0  0  0  0  0  0
  182.8110  178.5960  144.0240 C   0  0  0  0  0  3  0  0  0  0  0  0
  180.1610  179.2570  144.0680 Cl  0  0  0  0  0  0  0  0  0  0  0  0
  184.1040  178.3680  141.9880 C   0  0  0  0  0  3  0  0  0  0  0  0
  181.7590  178.9580  141.8710 C   0  0  0  0  0  3  0  0  0  0  0  0
  182.9720  178.6850  141.2320 C   0  0  0  0  0  3  0  0  0  0  0  0
  1 13  2  0  0  0  0
  1  2  1  0  0  0  0
  2 18  2  0  0  0  0
  3  6  2  0  0  0  0
  4 16  1  6  0  0  0
  4  1  1  0  0  0  0
  5 12  1  0  0  0  0
  5  8  2  0  0  0  0
  7  4  1  0  0  0  0
  7 14  2  0  0  0  0
  8  7  1  0  0  0  0
  9 10  1  0  0  0  0
 11  2  1  0  0  0  0
 11 17  1  0  0  0  0
 12 16  2  0  0  0  0
 13  3  1  0  0  0  0
 14 13  1  0  0  0  0
 15  9  1  0  0  0  0
 17 20  1  6  0  0  0
 17 15  1  0  0  0  0
 18  6  1  0  0  0  0
 18  9  1  0  0  0  0
 19 21  1  0  0  0  0
 19 22  1  0  0  0  0
 20 21  2  0  0  0  0
 23 20  1  0  0  0  0
 24 19  2  0  0  0  0
 25 24  1  0  0  0  0
 25 23  2  0  0  0  0
M  END
>  <MODEL>
8

>  <REMARK>
 VINA RESULT:      -9.3      3.339      6.460
  Name = 
  1 active torsions:
  status: ('A' for Active; 'I' for Inactive)
    1  A    between atoms: C_6  and  C_23
                            x       y       z     vdW  Elec       q    Type
                         _______ _______ _______ _____ _____    ______ ____

>  <TORSDO>
F 1

$$$$
=
 OpenBabel11052412493D

 25 29  0  0  1  0  0  0  0  0999 V2000
  187.6700  177.6590  142.8850 C   0  0  0  0  0  0  0  0  0  0  0  0
  187.9550  177.7340  141.5190 C   0  0  0  0  0  0  0  0  0  0  0  0
  185.4430  178.5400  142.5470 C   0  0  0  0  0  3  0  0  0  0  0  0
  188.4830  177.0750  143.9830 C   0  0  2  0  0  3  0  0  0  0  0  0
  189.4240  177.6040  146.6530 C   0  0  0  0  0  3  0  0  0  0  0  0
  185.7170  178.6580  141.1760 C   0  0  0  0  0  3  0  0  0  0  0  0
  187.5720  177.3200  145.1550 C   0  0  0  0  0  0  0  0  0  0  0  0
  188.1200  177.3320  146.5140 C   0  0  0  0  0  3  0  0  0  0  0  0
  187.2530  178.4020  139.2560 N   0  0  0  0  0  0  0  0  0  0  0  0
  186.2060  178.2460  138.2590 C   0  0  0  0  0  1  0  0  0  0  0  0
  189.2060  177.2540  141.0110 N   0  0  0  0  0  2  0  0  0  0  0  0
  190.2660  177.9290  145.4710 C   0  0  0  0  0  3  0  0  0  0  0  0
  186.4370  178.0280  143.3770 C   0  0  0  0  0  0  0  0  0  0  0  0
  186.3980  177.8500  144.8200 C   0  0  0  0  0  3  0  0  0  0  0  0
  188.9220  178.6270  138.7120 S   0  0  0  0  0  0  0  0  0  0  0  0
  189.8110  177.7460  144.2190 C   0  0  0  0  0  3  0  0  0  0  0  0
  189.4650  177.1220  139.5800 C   0  0  1  0  0  3  0  0  0  0  0  0
  186.9710  178.2680  140.6550 C   0  0  0  0  0  0  0  0  0  0  0  0
  192.6400  175.8160  137.9890 C   0  0  0  0  0  0  0  0  0  0  0  0
  190.9140  176.8570  139.3340 C   0  0  0  0  0  0  0  0  0  0  0  0
  191.2880  176.0690  138.2420 C   0  0  0  0  0  3  0  0  0  0  0  0
  193.1030  174.8280  136.6210 Cl  0  0  0  0  0  0  0  0  0  0  0  0
  191.9010  177.3970  140.1730 C   0  0  0  0  0  3  0  0  0  0  0  0
  193.6220  176.3530  138.8280 C   0  0  0  0  0  3  0  0  0  0  0  0
  193.2520  177.1440  139.9200 C   0  0  0  0  0  3  0  0  0  0  0  0
  1 13  1  0  0  0  0
  1  4  1  0  0  0  0
  2  1  2  0  0  0  0
  3 13  2  0  0  0  0
  4 16  1  1  0  0  0
  4  7  1  0  0  0  0
  6  3  1  0  0  0  0
  7  8  1  0  0  0  0
  8  5  2  0  0  0  0
  9 18  1  0  0  0  0
 10  9  1  0  0  0  0
 11  2  1  0  0  0  0
 12  5  1  0  0  0  0
 13 14  1  0  0  0  0
 14  7  2  0  0  0  0
 15  9  1  0  0  0  0
 15 17  1  0  0  0  0
 16 12  2  0  0  0  0
 17 20  1  1  0  0  0
 17 11  1  0  0  0  0
 18  6  2  0  0  0  0
 18  2  1  0  0  0  0
 19 21  2  0  0  0  0
 19 24  1  0  0  0  0
 20 23  2  0  0  0  0
 21 20  1  0  0  0  0
 22 19  1  0  0  0  0
 24 25  2  0  0  0  0
 25 23  1  0  0  0  0
M  END
>  <MODEL>
9

>  <REMARK>
 VINA RESULT:      -9.2      1.998      4.544
  Name = 
  1 active torsions:
  status: ('A' for Active; 'I' for Inactive)
    1  A    between atoms: C_6  and  C_23
                            x       y       z     vdW  Elec       q    Type
                         _______ _______ _______ _____ _____    ______ ____

>  <TORSDO>
F 1

$$$$
