=
 OpenBabel11052414333D

 32 37  0  0  1  0  0  0  0  0999 V2000
  186.7400  177.8350  144.6530 C   0  0  1  0  0  3  0  0  0  0  0  0
  186.1000  178.2970  142.2750 C   0  0  0  0  0  0  0  0  0  0  0  0
  186.4720  178.5200  145.9870 C   0  0  0  0  0  2  0  0  0  0  0  0
  185.7270  178.2640  143.6250 C   0  0  0  0  0  0  0  0  0  0  0  0
  185.1540  178.5940  141.2850 C   0  0  0  0  0  0  0  0  0  0  0  0
  189.4800  178.3540  138.8020 C   0  0  0  0  0  2  0  0  0  0  0  0
  187.5640  178.1910  141.9110 C   0  0  1  0  0  3  0  0  0  0  0  0
  187.1060  178.4670  138.0690 C   0  0  0  0  0  2  0  0  0  0  0  0
  186.7430  178.2560  139.5130 C   0  0  0  0  0  0  0  0  0  0  0  0
  184.4020  178.5600  143.9970 C   0  0  0  0  0  0  0  0  0  0  0  0
  185.5700  178.6550  139.9110 N   0  0  0  0  0  0  0  0  0  0  0  0
  183.4630  178.8670  143.0060 C   0  0  0  0  0  3  0  0  0  0  0  0
  184.0150  178.7260  145.4440 C   0  0  0  0  0  2  0  0  0  0  0  0
  188.2620  177.3940  142.8450 O   0  0  0  0  0  0  0  0  0  0  0  0
  188.1700  178.0310  144.1000 C   0  0  2  0  0  3  0  0  0  0  0  0
  187.7060  177.6050  140.5020 C   0  0  1  0  0  3  0  0  0  0  0  0
  183.8260  178.8700  141.6520 C   0  0  0  0  0  0  0  0  0  0  0  0
  185.0540  178.1630  146.4230 C   0  0  0  0  0  2  0  0  0  0  0  0
  188.4960  177.9510  137.7210 C   0  0  0  0  0  2  0  0  0  0  0  0
  189.1800  177.5560  140.0640 C   0  0  0  0  0  2  0  0  0  0  0  0
  191.6920  177.1090  144.8820 C   0  0  2  0  0  3  0  0  0  0  0  0
  191.9140  177.0170  148.3150 O   0  0  0  0  0  0  0  0  0  0  0  0
  191.7250  176.2280  143.6340 C   0  0  0  0  0  1  0  0  0  0  0  0
  189.7220  177.2940  147.4920 C   0  0  0  0  0  3  0  0  0  0  0  0
  189.2950  177.5010  145.0190 C   0  0  2  0  0  3  0  0  0  0  0  0
  191.6090  176.1900  146.1070 C   0  0  0  0  0  2  0  0  0  0  0  0
  188.8960  177.5500  146.4720 C   0  0  0  0  0  3  0  0  0  0  0  0
  190.6230  178.1300  144.8360 N   0  0  0  0  0  0  0  0  0  0  0  0
  190.7580  178.9120  143.6040 C   0  0  0  0  0  1  0  0  0  0  0  0
  191.1250  176.8690  147.3470 C   0  0  0  0  0  0  0  0  0  0  0  0
  182.7900  179.1810  140.6240 C   0  0  0  0  0  2  0  0  0  0  0  0
  181.4730  178.5260  140.9940 C   0  0  0  0  0  1  0  0  0  0  0  0
  1  3  1  1  0  0  0
  2  4  1  0  0  0  0
  3 18  1  0  0  0  0
  4 10  2  0  0  0  0
  4  1  1  0  0  0  0
  5 17  1  0  0  0  0
  5  2  2  0  0  0  0
  6 20  1  0  0  0  0
  7  2  1  1  0  0  0
  7 14  1  0  0  0  0
  8  9  1  0  0  0  0
  9 11  2  0  0  0  0
  9 16  1  0  0  0  0
 10 13  1  0  0  0  0
 11  5  1  0  0  0  0
 12 10  1  0  0  0  0
 13 18  1  0  0  0  0
 15 14  1  6  0  0  0
 15  1  1  0  0  0  0
 15 25  1  0  0  0  0
 16 20  1  6  0  0  0
 16  7  1  0  0  0  0
 17 12  2  0  0  0  0
 19  8  1  0  0  0  0
 19  6  1  0  0  0  0
 21 23  1  6  0  0  0
 21 26  1  0  0  0  0
 25 27  1  1  0  0  0
 26 30  1  0  0  0  0
 27 24  2  0  0  0  0
 28 21  1  0  0  0  0
 28 25  1  0  0  0  0
 29 28  1  0  0  0  0
 30 24  1  0  0  0  0
 30 22  2  0  0  0  0
 31 32  1  0  0  0  0
 31 17  1  0  0  0  0
M  END
>  <MODEL>
1

>  <REMARK>
 VINA RESULT:     -11.7      0.000      0.000
  Name = 
  2 active torsions:
  status: ('A' for Active; 'I' for Inactive)
    1  A    between atoms: C_13  and  C_29
    2  A    between atoms: C_16  and  C_27
                            x       y       z     vdW  Elec       q    Type
                         _______ _______ _______ _____ _____    ______ ____

>  <TORSDO>
F 2

$$$$
=
 OpenBabel11052414333D

 32 37  0  0  1  0  0  0  0  0999 V2000
  184.9810  178.7040  143.8600 C   0  0  1  0  0  3  0  0  0  0  0  0
  187.2690  178.0360  143.0870 C   0  0  0  0  0  0  0  0  0  0  0  0
  184.0180  178.1930  144.9230 C   0  0  0  0  0  2  0  0  0  0  0  0
  186.3850  178.2460  144.1530 C   0  0  0  0  0  0  0  0  0  0  0  0
  188.6100  177.7070  143.3300 C   0  0  0  0  0  0  0  0  0  0  0  0
  188.1480  177.3350  138.3720 C   0  0  0  0  0  2  0  0  0  0  0  0
  186.7260  177.9870  141.6770 C   0  0  1  0  0  3  0  0  0  0  0  0
  190.1100  177.3280  139.9000 C   0  0  0  0  0  2  0  0  0  0  0  0
  189.1520  177.7240  140.9880 C   0  0  0  0  0  0  0  0  0  0  0  0
  186.8330  178.0970  145.4800 C   0  0  0  0  0  0  0  0  0  0  0  0
  189.4870  177.4640  142.2190 N   0  0  0  0  0  0  0  0  0  0  0  0
  188.1700  177.7570  145.7180 C   0  0  0  0  0  3  0  0  0  0  0  0
  185.8700  178.1210  146.6370 C   0  0  0  0  0  2  0  0  0  0  0  0
  185.5970  178.8260  141.5390 O   0  0  0  0  0  0  0  0  0  0  0  0
  184.5980  178.3390  142.4080 C   0  0  2  0  0  3  0  0  0  0  0  0
  187.8190  178.4030  140.6860 C   0  0  1  0  0  3  0  0  0  0  0  0
  189.0640  177.5770  144.6540 C   0  0  0  0  0  0  0  0  0  0  0  0
  184.4970  178.7050  146.2780 C   0  0  0  0  0  2  0  0  0  0  0  0
  189.6150  177.6940  138.5060 C   0  0  0  0  0  2  0  0  0  0  0  0
  187.3270  178.2890  139.2320 C   0  0  0  0  0  2  0  0  0  0  0  0
  181.9370  178.9940  139.8870 C   0  0  2  0  0  3  0  0  0  0  0  0
  179.0510  179.5610  141.6730 O   0  0  0  0  0  0  0  0  0  0  0  0
  182.9720  179.6770  138.9930 C   0  0  0  0  0  1  0  0  0  0  0  0
  180.9940  179.3960  142.9980 C   0  0  0  0  0  3  0  0  0  0  0  0
  183.2240  178.8770  141.9480 C   0  0  2  0  0  3  0  0  0  0  0  0
  181.0540  180.0850  140.5040 C   0  0  0  0  0  2  0  0  0  0  0  0
  182.2890  179.0810  143.1140 C   0  0  0  0  0  3  0  0  0  0  0  0
  182.5490  178.0940  140.8880 N   0  0  0  0  0  0  0  0  0  0  0  0
  183.4170  177.1320  140.2020 C   0  0  0  0  0  1  0  0  0  0  0  0
  180.3050  179.6480  141.7210 C   0  0  0  0  0  0  0  0  0  0  0  0
  190.4870  177.2360  144.9510 C   0  0  0  0  0  2  0  0  0  0  0  0
  190.6550  176.9400  146.4290 C   0  0  0  0  0  1  0  0  0  0  0  0
  1  4  1  0  0  0  0
  1  3  1  1  0  0  0
  2  5  2  0  0  0  0
  2  4  1  0  0  0  0
  3 18  1  0  0  0  0
  4 10  2  0  0  0  0
  5 17  1  0  0  0  0
  6 19  1  0  0  0  0
  6 20  1  0  0  0  0
  7 14  1  1  0  0  0
  7  2  1  0  0  0  0
  8  9  1  0  0  0  0
  9 11  2  0  0  0  0
 10 12  1  0  0  0  0
 10 13  1  0  0  0  0
 11  5  1  0  0  0  0
 15 14  1  6  0  0  0
 15  1  1  0  0  0  0
 16 20  1  6  0  0  0
 16  9  1  0  0  0  0
 16  7  1  0  0  0  0
 17 31  1  0  0  0  0
 17 12  2  0  0  0  0
 18 13  1  0  0  0  0
 19  8  1  0  0  0  0
 21 23  1  1  0  0  0
 21 26  1  0  0  0  0
 21 28  1  0  0  0  0
 22 30  2  0  0  0  0
 24 27  2  0  0  0  0
 25 15  1  0  0  0  0
 25 27  1  1  0  0  0
 26 30  1  0  0  0  0
 28 25  1  0  0  0  0
 29 28  1  0  0  0  0
 30 24  1  0  0  0  0
 31 32  1  0  0  0  0
M  END
>  <MODEL>
2

>  <REMARK>
 VINA RESULT:     -10.5      2.229      6.879
  Name = 
  2 active torsions:
  status: ('A' for Active; 'I' for Inactive)
    1  A    between atoms: C_13  and  C_29
    2  A    between atoms: C_16  and  C_27
                            x       y       z     vdW  Elec       q    Type
                         _______ _______ _______ _____ _____    ______ ____

>  <TORSDO>
F 2

$$$$
=
 OpenBabel11052414333D

 32 37  0  0  1  0  0  0  0  0999 V2000
  189.9250  177.0180  142.9760 C   0  0  1  0  0  3  0  0  0  0  0  0
  187.6310  177.7990  143.6130 C   0  0  0  0  0  0  0  0  0  0  0  0
  191.3360  177.3340  143.4560 C   0  0  0  0  0  2  0  0  0  0  0  0
  188.9120  177.4050  144.0200 C   0  0  0  0  0  0  0  0  0  0  0  0
  186.6350  178.0690  144.5610 C   0  0  0  0  0  0  0  0  0  0  0  0
  184.5430  179.3410  140.2090 C   0  0  0  0  0  2  0  0  0  0  0  0
  187.3830  178.1080  142.1530 C   0  0  1  0  0  3  0  0  0  0  0  0
  183.6390  179.0550  142.5080 C   0  0  0  0  0  2  0  0  0  0  0  0
  184.9780  178.4750  142.8670 C   0  0  0  0  0  0  0  0  0  0  0  0
  189.2150  177.3070  145.3920 C   0  0  0  0  0  0  0  0  0  0  0  0
  185.3400  178.5040  144.1170 N   0  0  0  0  0  0  0  0  0  0  0  0
  188.2210  177.5880  146.3360 C   0  0  0  0  0  3  0  0  0  0  0  0
  190.6270  177.0790  145.8650 C   0  0  0  0  0  2  0  0  0  0  0  0
  188.2070  177.3170  141.3210 O   0  0  0  0  0  0  0  0  0  0  0  0
  189.5470  177.6450  141.6150 C   0  0  2  0  0  3  0  0  0  0  0  0
  185.9070  177.8720  141.8160 C   0  0  1  0  0  3  0  0  0  0  0  0
  186.9290  177.9520  145.9300 C   0  0  0  0  0  0  0  0  0  0  0  0
  191.5690  176.5800  144.7620 C   0  0  0  0  0  2  0  0  0  0  0  0
  183.3230  178.9530  141.0210 C   0  0  0  0  0  2  0  0  0  0  0  0
  185.6000  178.2530  140.3570 C   0  0  0  0  0  2  0  0  0  0  0  0
  190.2340  176.9290  138.0260 C   0  0  2  0  0  3  0  0  0  0  0  0
  193.6580  176.9930  137.6790 O   0  0  0  0  0  0  0  0  0  0  0  0
  189.0230  175.9980  137.9940 C   0  0  0  0  0  1  0  0  0  0  0  0
  192.9060  177.1280  139.9100 C   0  0  0  0  0  3  0  0  0  0  0  0
  190.4440  177.2100  140.4330 C   0  0  2  0  0  3  0  0  0  0  0  0
  191.4970  176.0590  138.0200 C   0  0  0  0  0  2  0  0  0  0  0  0
  191.9080  177.3010  140.7830 C   0  0  0  0  0  3  0  0  0  0  0  0
  190.1870  177.8940  139.1460 N   0  0  0  0  0  0  0  0  0  0  0  0
  188.9200  178.6280  139.0940 C   0  0  0  0  0  1  0  0  0  0  0  0
  192.7260  176.7660  138.4940 C   0  0  0  0  0  0  0  0  0  0  0  0
  185.8920  178.2220  146.9690 C   0  0  0  0  0  2  0  0  0  0  0  0
  186.0560  179.6260  147.5190 C   0  0  0  0  0  1  0  0  0  0  0  0
  1  3  1  1  0  0  0
  1  4  1  0  0  0  0
  2  4  2  0  0  0  0
  2  5  1  0  0  0  0
  3 18  1  0  0  0  0
  4 10  1  0  0  0  0
  5 17  2  0  0  0  0
  6 20  1  0  0  0  0
  6 19  1  0  0  0  0
  7 14  1  6  0  0  0
  7  2  1  0  0  0  0
  8  9  1  0  0  0  0
  9 11  2  0  0  0  0
 10 13  1  0  0  0  0
 10 12  2  0  0  0  0
 11  5  1  0  0  0  0
 15 14  1  6  0  0  0
 15  1  1  0  0  0  0
 16 20  1  6  0  0  0
 16  7  1  0  0  0  0
 16  9  1  0  0  0  0
 17 12  1  0  0  0  0
 17 31  1  0  0  0  0
 18 13  1  0  0  0  0
 19  8  1  0  0  0  0
 21 23  1  1  0  0  0
 21 28  1  0  0  0  0
 22 30  2  0  0  0  0
 24 27  2  0  0  0  0
 25 27  1  1  0  0  0
 25 15  1  0  0  0  0
 26 21  1  0  0  0  0
 26 30  1  0  0  0  0
 28 25  1  0  0  0  0
 29 28  1  0  0  0  0
 30 24  1  0  0  0  0
 31 32  1  0  0  0  0
M  END
>  <MODEL>
3

>  <REMARK>
 VINA RESULT:     -10.0      2.353      5.790
  Name = 
  2 active torsions:
  status: ('A' for Active; 'I' for Inactive)
    1  A    between atoms: C_13  and  C_29
    2  A    between atoms: C_16  and  C_27
                            x       y       z     vdW  Elec       q    Type
                         _______ _______ _______ _____ _____    ______ ____

>  <TORSDO>
F 2

$$$$
=
 OpenBabel11052414333D

 32 37  0  0  1  0  0  0  0  0999 V2000
  189.8650  176.7090  142.6390 C   0  0  1  0  0  3  0  0  0  0  0  0
  188.0530  177.5040  144.1770 C   0  0  0  0  0  0  0  0  0  0  0  0
  191.3650  176.9490  142.5380 C   0  0  0  0  0  2  0  0  0  0  0  0
  189.3680  177.0450  144.0200 C   0  0  0  0  0  0  0  0  0  0  0  0
  187.5280  177.7290  145.4570 C   0  0  0  0  0  0  0  0  0  0  0  0
  183.9640  179.3790  142.3720 C   0  0  0  0  0  2  0  0  0  0  0  0
  187.2680  177.9270  142.9560 C   0  0  1  0  0  3  0  0  0  0  0  0
  184.0240  178.9480  144.8210 C   0  0  0  0  0  2  0  0  0  0  0  0
  185.3630  178.3060  144.5850 C   0  0  0  0  0  0  0  0  0  0  0  0
  190.1800  176.8370  145.1510 C   0  0  0  0  0  0  0  0  0  0  0  0
  186.1880  178.2320  145.5890 N   0  0  0  0  0  0  0  0  0  0  0  0
  189.6560  177.0740  146.4260 C   0  0  0  0  0  3  0  0  0  0  0  0
  191.6500  176.5360  145.0110 C   0  0  0  0  0  2  0  0  0  0  0  0
  187.6530  177.1780  141.8210 O   0  0  0  0  0  0  0  0  0  0  0  0
  189.0160  177.4450  141.5780 C   0  0  2  0  0  3  0  0  0  0  0  0
  185.7680  177.7580  143.2190 C   0  0  1  0  0  3  0  0  0  0  0  0
  188.3310  177.5030  146.5880 C   0  0  0  0  0  0  0  0  0  0  0  0
  192.0530  176.0940  143.5980 C   0  0  0  0  0  2  0  0  0  0  0  0
  183.1430  178.9660  143.5780 C   0  0  0  0  0  2  0  0  0  0  0  0
  184.9320  178.2540  142.0270 C   0  0  0  0  0  2  0  0  0  0  0  0
  188.6320  177.7320  137.8850 C   0  0  2  0  0  3  0  0  0  0  0  0
  191.4840  176.3710  136.5220 O   0  0  0  0  0  0  0  0  0  0  0  0
  187.1280  177.5110  138.0380 C   0  0  0  0  0  1  0  0  0  0  0  0
  191.2900  176.0800  138.8540 C   0  0  0  0  0  3  0  0  0  0  0  0
  189.3500  177.0740  140.1150 C   0  0  2  0  0  3  0  0  0  0  0  0
  189.2430  176.4470  137.3130 C   0  0  0  0  0  2  0  0  0  0  0  0
  190.6840  176.3800  140.0070 C   0  0  0  0  0  3  0  0  0  0  0  0
  189.2760  178.1850  139.1380 N   0  0  0  0  0  0  0  0  0  0  0  0
  188.5830  179.3780  139.6300 C   0  0  0  0  0  1  0  0  0  0  0  0
  190.7180  176.3280  137.5190 C   0  0  0  0  0  0  0  0  0  0  0  0
  187.8030  177.7240  147.9660 C   0  0  0  0  0  2  0  0  0  0  0  0
  188.9010  178.2530  148.8680 C   0  0  0  0  0  1  0  0  0  0  0  0
  1  3  1  1  0  0  0
  1  4  1  0  0  0  0
  2  5  1  0  0  0  0
  3 18  1  0  0  0  0
  4  2  2  0  0  0  0
  4 10  1  0  0  0  0
  5 11  1  0  0  0  0
  5 17  2  0  0  0  0
  6 19  1  0  0  0  0
  7 14  1  6  0  0  0
  7 16  1  0  0  0  0
  7  2  1  0  0  0  0
  9  8  1  0  0  0  0
  9 11  2  0  0  0  0
 10 12  2  0  0  0  0
 12 17  1  0  0  0  0
 13 10  1  0  0  0  0
 15 14  1  1  0  0  0
 15  1  1  0  0  0  0
 16 20  1  6  0  0  0
 16  9  1  0  0  0  0
 17 31  1  0  0  0  0
 18 13  1  0  0  0  0
 19  8  1  0  0  0  0
 20  6  1  0  0  0  0
 21 23  1  1  0  0  0
 21 28  1  0  0  0  0
 22 30  2  0  0  0  0
 24 27  2  0  0  0  0
 25 27  1  1  0  0  0
 25 15  1  0  0  0  0
 26 30  1  0  0  0  0
 26 21  1  0  0  0  0
 28 29  1  0  0  0  0
 28 25  1  0  0  0  0
 30 24  1  0  0  0  0
 31 32  1  0  0  0  0
M  END
>  <MODEL>
4

>  <REMARK>
 VINA RESULT:     -10.0      2.131      6.766
  Name = 
  2 active torsions:
  status: ('A' for Active; 'I' for Inactive)
    1  A    between atoms: C_13  and  C_29
    2  A    between atoms: C_16  and  C_27
                            x       y       z     vdW  Elec       q    Type
                         _______ _______ _______ _____ _____    ______ ____

>  <TORSDO>
F 2

$$$$
=
 OpenBabel11052414333D

 32 37  0  0  1  0  0  0  0  0999 V2000
  184.0610  178.8880  141.7440 C   0  0  1  0  0  3  0  0  0  0  0  0
  186.4150  178.2210  142.2840 C   0  0  0  0  0  0  0  0  0  0  0  0
  182.6870  178.4800  142.2600 C   0  0  0  0  0  2  0  0  0  0  0  0
  185.1280  178.5310  142.7440 C   0  0  0  0  0  0  0  0  0  0  0  0
  187.4560  177.9830  143.1920 C   0  0  0  0  0  0  0  0  0  0  0  0
  189.4680  176.9480  138.7410 C   0  0  0  0  0  2  0  0  0  0  0  0
  186.6300  177.9660  140.8090 C   0  0  1  0  0  3  0  0  0  0  0  0
  190.4310  177.2230  141.0170 C   0  0  0  0  0  2  0  0  0  0  0  0
  189.0740  177.7170  141.4350 C   0  0  0  0  0  0  0  0  0  0  0  0
  184.8670  178.5750  144.1270 C   0  0  0  0  0  0  0  0  0  0  0  0
  188.7580  177.6340  142.6950 N   0  0  0  0  0  0  0  0  0  0  0  0
  185.9060  178.3260  145.0300 C   0  0  0  0  0  3  0  0  0  0  0  0
  183.4610  178.7100  144.6510 C   0  0  0  0  0  2  0  0  0  0  0  0
  185.7370  178.7310  140.0270 O   0  0  0  0  0  0  0  0  0  0  0  0
  184.4270  178.3200  140.3540 C   0  0  2  0  0  3  0  0  0  0  0  0
  188.0790  178.2940  140.4320 C   0  0  1  0  0  3  0  0  0  0  0  0
  187.2010  178.0460  144.5730 C   0  0  0  0  0  0  0  0  0  0  0  0
  182.4560  179.1850  143.5930 C   0  0  0  0  0  2  0  0  0  0  0  0
  190.6910  177.3820  139.5250 C   0  0  0  0  0  2  0  0  0  0  0  0
  188.3580  177.9700  138.9540 C   0  0  0  0  0  2  0  0  0  0  0  0
  182.2610  177.6570  137.3990 C   0  0  2  0  0  3  0  0  0  0  0  0
  180.1700  180.3770  137.1200 O   0  0  0  0  0  0  0  0  0  0  0  0
  183.4290  176.9420  136.7210 C   0  0  0  0  0  1  0  0  0  0  0  0
  181.8700  180.6220  138.7360 C   0  0  0  0  0  3  0  0  0  0  0  0
  183.4680  178.7360  139.2150 C   0  0  2  0  0  3  0  0  0  0  0  0
  182.0790  179.0180  136.7150 C   0  0  0  0  0  2  0  0  0  0  0  0
  182.8440  180.0840  139.4760 C   0  0  0  0  0  3  0  0  0  0  0  0
  182.4200  177.7500  138.8670 N   0  0  0  0  0  0  0  0  0  0  0  0
  182.6460  176.4090  139.4110 C   0  0  0  0  0  1  0  0  0  0  0  0
  181.3030  180.0070  137.5230 C   0  0  0  0  0  0  0  0  0  0  0  0
  188.2870  177.8080  145.5700 C   0  0  0  0  0  2  0  0  0  0  0  0
  187.6930  177.6080  146.9510 C   0  0  0  0  0  1  0  0  0  0  0  0
  1  3  1  1  0  0  0
  1  4  1  0  0  0  0
  2  4  2  0  0  0  0
  2  5  1  0  0  0  0
  3 18  1  0  0  0  0
  4 10  1  0  0  0  0
  5 17  2  0  0  0  0
  6 20  1  0  0  0  0
  6 19  1  0  0  0  0
  7 14  1  6  0  0  0
  7  2  1  0  0  0  0
  8  9  1  0  0  0  0
  9 11  2  0  0  0  0
 10 13  1  0  0  0  0
 10 12  2  0  0  0  0
 11  5  1  0  0  0  0
 15 14  1  6  0  0  0
 15  1  1  0  0  0  0
 16 20  1  6  0  0  0
 16  7  1  0  0  0  0
 16  9  1  0  0  0  0
 17 12  1  0  0  0  0
 17 31  1  0  0  0  0
 18 13  1  0  0  0  0
 19  8  1  0  0  0  0
 21 23  1  6  0  0  0
 21 28  1  0  0  0  0
 22 30  2  0  0  0  0
 24 27  2  0  0  0  0
 25 27  1  1  0  0  0
 25 15  1  0  0  0  0
 26 21  1  0  0  0  0
 26 30  1  0  0  0  0
 28 25  1  0  0  0  0
 28 29  1  0  0  0  0
 30 24  1  0  0  0  0
 31 32  1  0  0  0  0
M  END
>  <MODEL>
5

>  <REMARK>
 VINA RESULT:     -10.0      2.778      7.446
  Name = 
  2 active torsions:
  status: ('A' for Active; 'I' for Inactive)
    1  A    between atoms: C_13  and  C_29
    2  A    between atoms: C_16  and  C_27
                            x       y       z     vdW  Elec       q    Type
                         _______ _______ _______ _____ _____    ______ ____

>  <TORSDO>
F 2

$$$$
=
 OpenBabel11052414333D

 32 37  0  0  1  0  0  0  0  0999 V2000
  186.1090  178.1130  144.5550 C   0  0  1  0  0  3  0  0  0  0  0  0
  188.4690  177.6280  143.8650 C   0  0  0  0  0  0  0  0  0  0  0  0
  185.1580  177.5370  145.5970 C   0  0  0  0  0  2  0  0  0  0  0  0
  187.5360  177.7780  144.8990 C   0  0  0  0  0  0  0  0  0  0  0  0
  189.8240  177.4160  144.1550 C   0  0  0  0  0  0  0  0  0  0  0  0
  189.5540  176.9380  139.1910 C   0  0  0  0  0  2  0  0  0  0  0  0
  187.9770  177.5150  142.4390 C   0  0  1  0  0  3  0  0  0  0  0  0
  191.4600  177.1170  140.7790 C   0  0  0  0  0  2  0  0  0  0  0  0
  190.4380  177.4460  141.8310 C   0  0  0  0  0  0  0  0  0  0  0  0
  187.9530  177.6850  146.2410 C   0  0  0  0  0  0  0  0  0  0  0  0
  190.7540  177.2320  143.0750 N   0  0  0  0  0  0  0  0  0  0  0  0
  189.3050  177.4620  146.5270 C   0  0  0  0  0  3  0  0  0  0  0  0
  186.9540  177.6440  147.3680 C   0  0  0  0  0  2  0  0  0  0  0  0
  186.7870  178.2530  142.2520 O   0  0  0  0  0  0  0  0  0  0  0  0
  185.8050  177.6960  143.0980 C   0  0  2  0  0  3  0  0  0  0  0  0
  189.0630  178.0060  141.4760 C   0  0  1  0  0  3  0  0  0  0  0  0
  190.2450  177.3430  145.4940 C   0  0  0  0  0  0  0  0  0  0  0  0
  185.5490  178.1070  146.9570 C   0  0  0  0  0  2  0  0  0  0  0  0
  190.9810  177.4200  139.3650 C   0  0  0  0  0  2  0  0  0  0  0  0
  188.6290  177.8310  140.0100 C   0  0  0  0  0  2  0  0  0  0  0  0
  182.5580  179.5030  143.3390 C   0  0  2  0  0  3  0  0  0  0  0  0
  181.2920  179.6190  140.1410 O   0  0  0  0  0  0  0  0  0  0  0  0
  182.3320  178.8850  144.7190 C   0  0  0  0  0  1  0  0  0  0  0  0
  183.2190  178.2800  140.3730 C   0  0  0  0  0  3  0  0  0  0  0  0
  184.4060  178.1100  142.5880 C   0  0  2  0  0  3  0  0  0  0  0  0
  181.6260  178.7970  142.3470 C   0  0  0  0  0  2  0  0  0  0  0  0
  184.2640  177.8780  141.1050 C   0  0  0  0  0  3  0  0  0  0  0  0
  183.9790  179.4870  142.9290 N   0  0  0  0  0  0  0  0  0  0  0  0
  184.7870  180.1300  143.9690 C   0  0  0  0  0  1  0  0  0  0  0  0
  182.0270  178.9540  140.9160 C   0  0  0  0  0  0  0  0  0  0  0  0
  191.6810  177.1280  145.8400 C   0  0  0  0  0  2  0  0  0  0  0  0
  191.8010  176.1040  146.9520 C   0  0  0  0  0  1  0  0  0  0  0  0
  1  4  1  0  0  0  0
  1  3  1  1  0  0  0
  2  5  2  0  0  0  0
  2  4  1  0  0  0  0
  3 18  1  0  0  0  0
  4 10  2  0  0  0  0
  5 17  1  0  0  0  0
  6 19  1  0  0  0  0
  6 20  1  0  0  0  0
  7 14  1  1  0  0  0
  7  2  1  0  0  0  0
  8  9  1  0  0  0  0
  9 11  2  0  0  0  0
 10 12  1  0  0  0  0
 10 13  1  0  0  0  0
 11  5  1  0  0  0  0
 15 14  1  6  0  0  0
 15  1  1  0  0  0  0
 16 20  1  6  0  0  0
 16  9  1  0  0  0  0
 16  7  1  0  0  0  0
 17 31  1  0  0  0  0
 17 12  2  0  0  0  0
 18 13  1  0  0  0  0
 19  8  1  0  0  0  0
 21 23  1  1  0  0  0
 22 30  2  0  0  0  0
 24 30  1  0  0  0  0
 24 27  2  0  0  0  0
 25 27  1  6  0  0  0
 25 28  1  0  0  0  0
 25 15  1  0  0  0  0
 26 21  1  0  0  0  0
 28 21  1  0  0  0  0
 28 29  1  0  0  0  0
 30 26  1  0  0  0  0
 31 32  1  0  0  0  0
M  END
>  <MODEL>
6

>  <REMARK>
 VINA RESULT:      -9.6      2.037      6.716
  Name = 
  2 active torsions:
  status: ('A' for Active; 'I' for Inactive)
    1  A    between atoms: C_13  and  C_29
    2  A    between atoms: C_16  and  C_27
                            x       y       z     vdW  Elec       q    Type
                         _______ _______ _______ _____ _____    ______ ____

>  <TORSDO>
F 2

$$$$
=
 OpenBabel11052414333D

 32 37  0  0  1  0  0  0  0  0999 V2000
  189.6210  177.6000  142.2980 C   0  0  1  0  0  3  0  0  0  0  0  0
  187.9000  178.0800  140.5420 C   0  0  0  0  0  0  0  0  0  0  0  0
  190.7620  176.6010  142.4350 C   0  0  0  0  0  2  0  0  0  0  0  0
  189.2270  177.7590  140.8540 C   0  0  0  0  0  0  0  0  0  0  0  0
  187.5230  178.3340  139.2160 C   0  0  0  0  0  0  0  0  0  0  0  0
  183.2130  178.3980  141.7380 C   0  0  0  0  0  2  0  0  0  0  0  0
  186.8420  177.9720  141.6170 C   0  0  1  0  0  3  0  0  0  0  0  0
  183.8340  179.0530  139.4200 C   0  0  0  0  0  2  0  0  0  0  0  0
  185.2640  178.8640  139.8440 C   0  0  0  0  0  0  0  0  0  0  0  0
  190.1870  177.6590  139.8280 C   0  0  0  0  0  0  0  0  0  0  0  0
  186.1480  178.6280  138.9190 N   0  0  0  0  0  0  0  0  0  0  0  0
  189.8040  177.9020  138.5040 C   0  0  0  0  0  3  0  0  0  0  0  0
  191.5690  177.1270  140.1010 C   0  0  0  0  0  2  0  0  0  0  0  0
  187.3840  178.2530  142.8920 O   0  0  0  0  0  0  0  0  0  0  0  0
  188.3750  177.2830  143.1550 C   0  0  2  0  0  3  0  0  0  0  0  0
  185.6890  178.9330  141.3090 C   0  0  1  0  0  3  0  0  0  0  0  0
  188.4830  178.2540  138.1930 C   0  0  0  0  0  0  0  0  0  0  0  0
  191.9320  177.1020  141.5920 C   0  0  0  0  0  2  0  0  0  0  0  0
  182.8960  179.3340  140.5870 C   0  0  0  0  0  2  0  0  0  0  0  0
  184.5550  178.7940  142.3400 C   0  0  0  0  0  2  0  0  0  0  0  0
  190.4830  177.6560  146.2010 C   0  0  2  0  0  3  0  0  0  0  0  0
  188.2970  177.8830  148.8500 O   0  0  0  0  0  0  0  0  0  0  0  0
  191.5380  176.7530  145.5650 C   0  0  0  0  0  1  0  0  0  0  0  0
  187.2750  177.3490  146.7940 C   0  0  0  0  0  3  0  0  0  0  0  0
  188.6350  177.2280  144.6770 C   0  0  2  0  0  3  0  0  0  0  0  0
  189.7660  176.8500  147.2920 C   0  0  0  0  0  2  0  0  0  0  0  0
  187.3480  177.2400  145.4630 C   0  0  0  0  0  3  0  0  0  0  0  0
  189.5630  178.2530  145.2080 N   0  0  0  0  0  0  0  0  0  0  0  0
  190.3480  178.9460  144.1830 C   0  0  0  0  0  1  0  0  0  0  0  0
  188.4400  177.4110  147.6930 C   0  0  0  0  0  0  0  0  0  0  0  0
  188.1210  178.5260  136.7710 C   0  0  0  0  0  2  0  0  0  0  0  0
  189.0540  177.7760  135.8410 C   0  0  0  0  0  1  0  0  0  0  0  0
  1  3  1  6  0  0  0
  1 15  1  0  0  0  0
  2  4  1  0  0  0  0
  4  1  1  0  0  0  0
  5  2  2  0  0  0  0
  6 20  1  0  0  0  0
  7  2  1  6  0  0  0
  7 14  1  0  0  0  0
  8  9  1  0  0  0  0
  8 19  1  0  0  0  0
  9 16  1  0  0  0  0
 10 13  1  0  0  0  0
 10  4  2  0  0  0  0
 11  5  1  0  0  0  0
 11  9  2  0  0  0  0
 12 10  1  0  0  0  0
 13 18  1  0  0  0  0
 15 14  1  1  0  0  0
 15 25  1  0  0  0  0
 16  7  1  0  0  0  0
 16 20  1  1  0  0  0
 17 12  2  0  0  0  0
 17  5  1  0  0  0  0
 18  3  1  0  0  0  0
 19  6  1  0  0  0  0
 21 23  1  6  0  0  0
 21 26  1  0  0  0  0
 24 30  1  0  0  0  0
 25 28  1  0  0  0  0
 25 27  1  1  0  0  0
 26 30  1  0  0  0  0
 27 24  2  0  0  0  0
 28 21  1  0  0  0  0
 29 28  1  0  0  0  0
 30 22  2  0  0  0  0
 31 17  1  0  0  0  0
 32 31  1  0  0  0  0
M  END
>  <MODEL>
7

>  <REMARK>
 VINA RESULT:      -9.5      1.426      4.716
  Name = 
  2 active torsions:
  status: ('A' for Active; 'I' for Inactive)
    1  A    between atoms: C_13  and  C_29
    2  A    between atoms: C_16  and  C_27
                            x       y       z     vdW  Elec       q    Type
                         _______ _______ _______ _____ _____    ______ ____

>  <TORSDO>
F 2

$$$$
=
 OpenBabel11052414333D

 32 37  0  0  1  0  0  0  0  0999 V2000
  188.8940  177.4350  140.7310 C   0  0  1  0  0  3  0  0  0  0  0  0
  188.0570  177.8360  143.0590 C   0  0  0  0  0  0  0  0  0  0  0  0
  190.1190  177.8790  139.9430 C   0  0  0  0  0  2  0  0  0  0  0  0
  189.1400  177.5700  142.2110 C   0  0  0  0  0  0  0  0  0  0  0  0
  188.2340  177.8680  144.4490 C   0  0  0  0  0  0  0  0  0  0  0  0
  183.5020  179.3230  143.7950 C   0  0  0  0  0  2  0  0  0  0  0  0
  186.7380  178.2670  142.4590 C   0  0  1  0  0  3  0  0  0  0  0  0
  184.8160  178.6720  145.8040 C   0  0  0  0  0  2  0  0  0  0  0  0
  185.8930  178.2360  144.8490 C   0  0  0  0  0  0  0  0  0  0  0  0
  190.4230  177.3640  142.7510 C   0  0  0  0  0  0  0  0  0  0  0  0
  187.1140  178.1750  145.2940 N   0  0  0  0  0  0  0  0  0  0  0  0
  190.5990  177.4070  144.1390 C   0  0  0  0  0  3  0  0  0  0  0  0
  191.6380  177.2720  141.8660 C   0  0  0  0  0  2  0  0  0  0  0  0
  186.5460  177.6860  141.1850 O   0  0  0  0  0  0  0  0  0  0  0  0
  187.5800  178.1520  140.3460 C   0  0  2  0  0  3  0  0  0  0  0  0
  185.5890  177.8780  143.3960 C   0  0  1  0  0  3  0  0  0  0  0  0
  189.5110  177.6420  144.9920 C   0  0  0  0  0  0  0  0  0  0  0  0
  191.3020  177.0240  140.3890 C   0  0  0  0  0  2  0  0  0  0  0  0
  183.4300  178.6930  145.1730 C   0  0  0  0  0  2  0  0  0  0  0  0
  184.2360  178.3730  142.8570 C   0  0  0  0  0  2  0  0  0  0  0  0
  185.0840  177.8780  137.5960 C   0  0  2  0  0  3  0  0  0  0  0  0
  186.8060  178.5010  134.6810 O   0  0  0  0  0  0  0  0  0  0  0  0
  184.3660  176.7780  138.3760 C   0  0  0  0  0  1  0  0  0  0  0  0
  188.1720  178.3170  136.5940 C   0  0  0  0  0  3  0  0  0  0  0  0
  187.1540  177.9690  138.8710 C   0  0  2  0  0  3  0  0  0  0  0  0
  185.8340  177.2190  136.4320 C   0  0  0  0  0  2  0  0  0  0  0  0
  188.2930  178.2530  137.9240 C   0  0  0  0  0  3  0  0  0  0  0  0
  185.9480  178.7200  138.4530 N   0  0  0  0  0  0  0  0  0  0  0  0
  185.1520  179.2510  139.5630 C   0  0  0  0  0  1  0  0  0  0  0  0
  186.9250  178.0610  135.8540 C   0  0  0  0  0  0  0  0  0  0  0  0
  189.7360  177.6590  146.4670 C   0  0  0  0  0  2  0  0  0  0  0  0
  190.8960  176.7530  146.8290 C   0  0  0  0  0  1  0  0  0  0  0  0
  1  3  1  6  0  0  0
  1  4  1  0  0  0  0
  2  5  1  0  0  0  0
  3 18  1  0  0  0  0
  4 10  1  0  0  0  0
  4  2  2  0  0  0  0
  5 17  2  0  0  0  0
  5 11  1  0  0  0  0
  6 19  1  0  0  0  0
  7 14  1  6  0  0  0
  7  2  1  0  0  0  0
  7 16  1  0  0  0  0
  9 11  2  0  0  0  0
  9  8  1  0  0  0  0
 10 12  2  0  0  0  0
 12 17  1  0  0  0  0
 13 10  1  0  0  0  0
 15  1  1  0  0  0  0
 15 14  1  1  0  0  0
 16 20  1  6  0  0  0
 16  9  1  0  0  0  0
 17 31  1  0  0  0  0
 18 13  1  0  0  0  0
 19  8  1  0  0  0  0
 20  6  1  0  0  0  0
 21 23  1  1  0  0  0
 21 28  1  0  0  0  0
 22 30  2  0  0  0  0
 24 27  2  0  0  0  0
 25 27  1  6  0  0  0
 25 15  1  0  0  0  0
 26 21  1  0  0  0  0
 28 25  1  0  0  0  0
 28 29  1  0  0  0  0
 30 26  1  0  0  0  0
 30 24  1  0  0  0  0
 31 32  1  0  0  0  0
M  END
>  <MODEL>
8

>  <REMARK>
 VINA RESULT:      -9.4      2.143      7.840
  Name = 
  2 active torsions:
  status: ('A' for Active; 'I' for Inactive)
    1  A    between atoms: C_13  and  C_29
    2  A    between atoms: C_16  and  C_27
                            x       y       z     vdW  Elec       q    Type
                         _______ _______ _______ _____ _____    ______ ____

>  <TORSDO>
F 2

$$$$
=
 OpenBabel11052414333D

 32 37  0  0  1  0  0  0  0  0999 V2000
  187.1520  178.2600  141.1270 C   0  0  1  0  0  3  0  0  0  0  0  0
  186.1260  178.2580  143.4130 C   0  0  0  0  0  0  0  0  0  0  0  0
  186.7470  177.6980  139.7700 C   0  0  0  0  0  2  0  0  0  0  0  0
  185.9530  178.3830  142.0280 C   0  0  0  0  0  0  0  0  0  0  0  0
  185.0500  178.4670  144.2850 C   0  0  0  0  0  0  0  0  0  0  0  0
  188.7340  176.8800  147.2600 C   0  0  0  0  0  2  0  0  0  0  0  0
  187.4340  177.7190  143.9470 C   0  0  1  0  0  3  0  0  0  0  0  0
  186.5000  177.8780  147.7080 C   0  0  0  0  0  2  0  0  0  0  0  0
  186.4250  178.1530  146.2320 C   0  0  0  0  0  0  0  0  0  0  0  0
  184.6830  178.6910  141.5030 C   0  0  0  0  0  0  0  0  0  0  0  0
  185.2470  178.3000  145.6990 N   0  0  0  0  0  0  0  0  0  0  0  0
  183.6080  178.8880  142.3770 C   0  0  0  0  0  3  0  0  0  0  0  0
  184.4180  178.6390  140.0210 C   0  0  0  0  0  2  0  0  0  0  0  0
  188.5110  178.0700  143.1020 O   0  0  0  0  0  0  0  0  0  0  0  0
  188.2750  177.4760  141.8440 C   0  0  2  0  0  3  0  0  0  0  0  0
  187.6760  178.2530  145.3630 C   0  0  1  0  0  3  0  0  0  0  0  0
  183.7860  178.7940  143.7640 C   0  0  0  0  0  0  0  0  0  0  0  0
  185.6950  178.6270  139.1710 C   0  0  0  0  0  2  0  0  0  0  0  0
  187.9290  177.7370  148.2170 C   0  0  0  0  0  2  0  0  0  0  0  0
  188.9600  177.6620  145.9710 C   0  0  0  0  0  2  0  0  0  0  0  0
  191.9390  176.8880  141.5360 C   0  0  2  0  0  3  0  0  0  0  0  0
  192.5400  176.3540  138.1890 O   0  0  0  0  0  0  0  0  0  0  0  0
  192.1800  177.8770  142.6750 C   0  0  0  0  0  1  0  0  0  0  0  0
  190.3390  177.0440  138.6810 C   0  0  0  0  0  3  0  0  0  0  0  0
  189.6070  177.3990  141.0640 C   0  0  2  0  0  3  0  0  0  0  0  0
  192.3500  177.5690  140.2240 C   0  0  0  0  0  2  0  0  0  0  0  0
  189.3760  177.2760  139.5790 C   0  0  0  0  0  3  0  0  0  0  0  0
  190.5580  176.3580  141.5180 N   0  0  0  0  0  0  0  0  0  0  0  0
  190.2460  175.7860  142.8300 C   0  0  0  0  0  1  0  0  0  0  0  0
  191.7730  176.9340  139.0000 C   0  0  0  0  0  0  0  0  0  0  0  0
  182.6190  179.0320  144.6640 C   0  0  0  0  0  2  0  0  0  0  0  0
  181.3330  178.6280  143.9690 C   0  0  0  0  0  1  0  0  0  0  0  0
  1  3  1  6  0  0  0
  1 15  1  0  0  0  0
  1  4  1  0  0  0  0
  2  7  1  0  0  0  0
  2  5  1  0  0  0  0
  4  2  2  0  0  0  0
  5 11  1  0  0  0  0
  6 19  1  0  0  0  0
  7 14  1  6  0  0  0
  7 16  1  0  0  0  0
  8 19  1  0  0  0  0
  9  8  1  0  0  0  0
 10  4  1  0  0  0  0
 10 12  2  0  0  0  0
 11  9  2  0  0  0  0
 12 17  1  0  0  0  0
 13 10  1  0  0  0  0
 15 14  1  1  0  0  0
 16 20  1  1  0  0  0
 16  9  1  0  0  0  0
 17  5  2  0  0  0  0
 17 31  1  0  0  0  0
 18  3  1  0  0  0  0
 18 13  1  0  0  0  0
 20  6  1  0  0  0  0
 21 23  1  1  0  0  0
 22 30  2  0  0  0  0
 24 30  1  0  0  0  0
 24 27  2  0  0  0  0
 25 27  1  6  0  0  0
 25 28  1  0  0  0  0
 25 15  1  0  0  0  0
 26 21  1  0  0  0  0
 28 21  1  0  0  0  0
 28 29  1  0  0  0  0
 30 26  1  0  0  0  0
 32 31  1  0  0  0  0
M  END
>  <MODEL>
9

>  <REMARK>
 VINA RESULT:      -9.4      2.151      5.599
  Name = 
  2 active torsions:
  status: ('A' for Active; 'I' for Inactive)
    1  A    between atoms: C_13  and  C_29
    2  A    between atoms: C_16  and  C_27
                            x       y       z     vdW  Elec       q    Type
                         _______ _______ _______ _____ _____    ______ ____

>  <TORSDO>
F 2

$$$$
