=
 OpenBabel11052412373D

 30 33  0  0  1  0  0  0  0  0999 V2000
  186.8910  178.9030  141.4800 C   0  0  0  0  0  0  0  0  0  0  0  0
  187.5180  177.9990  139.3830 C   0  0  0  0  0  3  0  0  0  0  0  0
  183.3230  177.5570  138.2850 O   0  0  0  0  0  0  0  0  0  0  0  0
  184.0210  178.9130  142.0330 C   0  0  0  0  0  2  0  0  0  0  0  0
  187.4230  178.0640  142.4570 O   0  0  0  0  0  0  0  0  0  0  0  0
  184.8660  178.3040  145.1040 C   0  0  1  0  0  3  0  0  0  0  0  0
  186.2150  178.6090  144.4740 C   0  0  0  0  0  2  0  0  0  0  0  0
  187.3230  176.4050  144.1870 C   0  0  0  0  0  1  0  0  0  0  0  0
  182.7320  176.6380  139.1830 C   0  0  2  0  0  3  0  0  0  0  0  0
  186.5920  177.5260  143.4760 C   0  0  2  0  0  3  0  0  0  0  0  0
  183.1740  178.5610  143.2490 C   0  0  1  0  0  3  0  0  0  0  0  0
  187.3680  177.3720  138.0420 C   0  0  0  0  0  2  0  0  0  0  0  0
  181.5150  178.3000  140.6690 C   0  0  1  0  0  3  0  0  0  0  0  0
  184.9480  178.5910  146.5890 C   0  0  0  0  0  1  0  0  0  0  0  0
  186.7500  180.1330  141.7150 O   0  0  0  0  0  0  0  0  0  0  0  0
  184.5830  178.0890  138.5640 C   0  0  0  0  0  0  0  0  0  0  0  0
  186.6090  178.2920  137.1530 C   0  0  0  0  0  3  0  0  0  0  0  0
  183.7850  179.1860  144.4960 C   0  0  0  0  0  2  0  0  0  0  0  0
  186.5020  178.3560  140.1790 C   0  0  0  0  0  0  0  0  0  0  0  0
  184.0780  177.7800  140.9970 C   0  0  1  0  0  3  0  0  0  0  0  0
  181.3840  176.1650  138.6640 C   0  0  0  0  0  1  0  0  0  0  0  0
  182.6650  177.2770  140.5650 C   0  0  2  0  0  3  0  0  0  0  0  0
  181.7870  179.1580  143.0620 C   0  0  0  0  0  2  0  0  0  0  0  0
  185.3390  178.5940  137.4010 C   0  0  0  0  0  3  0  0  0  0  0  0
  185.0500  178.1060  139.8470 C   0  0  0  0  0  0  0  0  0  0  0  0
  180.9350  178.3560  142.0840 C   0  0  0  0  0  2  0  0  0  0  0  0
  181.8670  179.5730  140.1930 O   0  0  0  0  0  0  0  0  0  0  0  0
  180.8730  179.9100  139.2710 C   0  0  0  0  0  3  0  0  0  0  0  0
  181.5220  180.3790  137.9850 C   0  0  0  0  0  1  0  0  0  0  0  0
  180.0180  181.0320  139.8300 C   0  0  0  0  0  1  0  0  0  0  0  0
  1 15  2  0  0  0  0
  1  5  1  0  0  0  0
  2 19  2  0  0  0  0
  3 16  1  0  0  0  0
  3  9  1  0  0  0  0
  5 10  1  0  0  0  0
  6 14  1  1  0  0  0
  7  6  1  0  0  0  0
  9 21  1  6  0  0  0
  9 22  1  0  0  0  0
 10  8  1  1  0  0  0
 10  7  1  0  0  0  0
 11  4  1  6  0  0  0
 11 18  1  0  0  0  0
 12  2  1  0  0  0  0
 13 27  1  1  0  0  0
 13 26  1  0  0  0  0
 16 25  2  0  0  0  0
 17 24  2  0  0  0  0
 17 12  1  0  0  0  0
 18  6  1  0  0  0  0
 19  1  1  0  0  0  0
 20  4  1  6  0  0  0
 22 13  1  0  0  0  0
 22 20  1  0  0  0  0
 23 11  1  0  0  0  0
 24 16  1  0  0  0  0
 25 19  1  0  0  0  0
 25 20  1  0  0  0  0
 26 23  1  0  0  0  0
 28 30  1  0  0  0  0
 28 27  1  0  0  0  0
 29 28  1  0  0  0  0
M  END
>  <MODEL>
1

>  <REMARK>
 VINA RESULT:      -6.2      0.000      0.000
  Name = 
  2 active torsions:
  status: ('A' for Active; 'I' for Inactive)
    1  A    between atoms: C_7  and  O_10
    2  A    between atoms: O_10  and  C_15
                            x       y       z     vdW  Elec       q    Type
                         _______ _______ _______ _____ _____    ______ ____

>  <TORSDO>
F 2

$$$$
=
 OpenBabel11052412373D

 30 33  0  0  1  0  0  0  0  0999 V2000
  185.2370  179.1300  139.3450 C   0  0  0  0  0  0  0  0  0  0  0  0
  186.5660  178.1110  137.6710 C   0  0  0  0  0  3  0  0  0  0  0  0
  183.2240  175.5560  136.5290 O   0  0  0  0  0  0  0  0  0  0  0  0
  182.5740  177.9790  139.7050 C   0  0  0  0  0  2  0  0  0  0  0  0
  185.8740  178.9000  140.5620 O   0  0  0  0  0  0  0  0  0  0  0  0
  182.9990  178.6160  142.8550 C   0  0  1  0  0  3  0  0  0  0  0  0
  184.1920  179.3290  142.2390 C   0  0  0  0  0  2  0  0  0  0  0  0
  186.1480  177.8740  142.7130 C   0  0  0  0  0  1  0  0  0  0  0  0
  182.9100  174.7300  137.6340 C   0  0  2  0  0  3  0  0  0  0  0  0
  185.1660  178.3210  141.6490 C   0  0  2  0  0  3  0  0  0  0  0  0
  181.7370  177.6020  140.9200 C   0  0  1  0  0  3  0  0  0  0  0  0
  186.9460  177.1680  136.5840 C   0  0  0  0  0  2  0  0  0  0  0  0
  180.8560  175.9760  138.4590 C   0  0  1  0  0  3  0  0  0  0  0  0
  182.6730  179.2740  144.1800 C   0  0  0  0  0  1  0  0  0  0  0  0
  184.5560  180.1780  139.1780 O   0  0  0  0  0  0  0  0  0  0  0  0
  184.0710  176.6530  136.7000 C   0  0  0  0  0  0  0  0  0  0  0  0
  186.0560  177.3860  135.4120 C   0  0  0  0  0  3  0  0  0  0  0  0
  181.7860  178.7280  141.9440 C   0  0  0  0  0  2  0  0  0  0  0  0
  185.3630  178.1570  138.2580 C   0  0  0  0  0  0  0  0  0  0  0  0
  183.2900  176.7740  139.0760 C   0  0  1  0  0  3  0  0  0  0  0  0
  182.0040  173.5840  137.2120 C   0  0  0  0  0  1  0  0  0  0  0  0
  182.3240  175.5950  138.7430 C   0  0  2  0  0  3  0  0  0  0  0  0
  180.2900  177.4380  140.4790 C   0  0  0  0  0  2  0  0  0  0  0  0
  184.7540  177.1320  135.4820 C   0  0  0  0  0  3  0  0  0  0  0  0
  184.2370  177.2020  137.9390 C   0  0  0  0  0  0  0  0  0  0  0  0
  180.0500  176.1180  139.7520 C   0  0  0  0  0  2  0  0  0  0  0  0
  180.7310  177.1030  137.6330 O   0  0  0  0  0  0  0  0  0  0  0  0
  179.5490  176.9050  136.9140 C   0  0  0  0  0  3  0  0  0  0  0  0
  179.8610  176.1600  135.6330 C   0  0  0  0  0  1  0  0  0  0  0  0
  178.9310  178.2460  136.5680 C   0  0  0  0  0  1  0  0  0  0  0  0
  1  5  1  0  0  0  0
  2 19  2  0  0  0  0
  3 16  1  0  0  0  0
  3  9  1  0  0  0  0
  5 10  1  0  0  0  0
  6 14  1  1  0  0  0
  7  6  1  0  0  0  0
  9 21  1  6  0  0  0
  9 22  1  0  0  0  0
 10  7  1  0  0  0  0
 10  8  1  1  0  0  0
 11  4  1  6  0  0  0
 11 18  1  0  0  0  0
 12  2  1  0  0  0  0
 13 27  1  1  0  0  0
 13 22  1  0  0  0  0
 13 26  1  0  0  0  0
 15  1  2  0  0  0  0
 16 25  2  0  0  0  0
 17 24  2  0  0  0  0
 17 12  1  0  0  0  0
 18  6  1  0  0  0  0
 19  1  1  0  0  0  0
 20  4  1  6  0  0  0
 22 20  1  0  0  0  0
 23 11  1  0  0  0  0
 24 16  1  0  0  0  0
 25 19  1  0  0  0  0
 25 20  1  0  0  0  0
 26 23  1  0  0  0  0
 28 27  1  0  0  0  0
 29 28  1  0  0  0  0
 30 28  1  0  0  0  0
M  END
>  <MODEL>
2

>  <REMARK>
 VINA RESULT:      -6.1      1.905      3.002
  Name = 
  2 active torsions:
  status: ('A' for Active; 'I' for Inactive)
    1  A    between atoms: C_7  and  O_10
    2  A    between atoms: O_10  and  C_15
                            x       y       z     vdW  Elec       q    Type
                         _______ _______ _______ _____ _____    ______ ____

>  <TORSDO>
F 2

$$$$
=
 OpenBabel11052412373D

 30 33  0  0  1  0  0  0  0  0999 V2000
  188.3170  178.2970  138.0510 C   0  0  0  0  0  0  0  0  0  0  0  0
  186.0400  178.3630  138.6970 C   0  0  0  0  0  3  0  0  0  0  0  0
  187.1790  177.8450  142.8730 O   0  0  0  0  0  0  0  0  0  0  0  0
  190.2150  177.7230  140.1990 C   0  0  0  0  0  2  0  0  0  0  0  0
  188.4570  177.2210  137.1760 O   0  0  0  0  0  0  0  0  0  0  0  0
  191.8810  176.0880  137.9500 C   0  0  1  0  0  3  0  0  0  0  0  0
  190.8300  176.7840  137.1000 C   0  0  0  0  0  2  0  0  0  0  0  0
  189.1720  175.0250  136.5290 C   0  0  0  0  0  1  0  0  0  0  0  0
  187.8040  176.5830  143.0010 C   0  0  2  0  0  3  0  0  0  0  0  0
  189.4480  176.2290  137.4070 C   0  0  2  0  0  3  0  0  0  0  0  0
  191.4370  176.8230  140.3220 C   0  0  1  0  0  3  0  0  0  0  0  0
  184.8470  178.2900  139.5840 C   0  0  0  0  0  2  0  0  0  0  0  0
  190.2180  177.3700  143.0960 C   0  0  1  0  0  3  0  0  0  0  0  0
  193.0850  175.7860  137.0800 C   0  0  0  0  0  1  0  0  0  0  0  0
  189.0550  179.3120  137.9250 O   0  0  0  0  0  0  0  0  0  0  0  0
  186.9570  178.3850  141.6050 C   0  0  0  0  0  0  0  0  0  0  0  0
  184.9220  179.3770  140.5970 C   0  0  0  0  0  3  0  0  0  0  0  0
  192.3210  176.9900  139.0940 C   0  0  0  0  0  2  0  0  0  0  0  0
  187.3090  178.2510  139.1120 C   0  0  0  0  0  0  0  0  0  0  0  0
  188.9480  177.0970  140.8030 C   0  0  1  0  0  3  0  0  0  0  0  0
  187.9140  176.1790  144.4620 C   0  0  0  0  0  1  0  0  0  0  0  0
  189.1440  176.6230  142.2760 C   0  0  2  0  0  3  0  0  0  0  0  0
  192.2410  177.2630  141.5360 C   0  0  0  0  0  2  0  0  0  0  0  0
  185.8810  179.3930  141.5160 C   0  0  0  0  0  3  0  0  0  0  0  0
  187.7020  177.9640  140.5410 C   0  0  0  0  0  0  0  0  0  0  0  0
  191.6150  176.7990  142.8480 C   0  0  0  0  0  2  0  0  0  0  0  0
  190.1770  178.7610  142.9160 O   0  0  0  0  0  0  0  0  0  0  0  0
  190.3770  179.3040  144.1880 C   0  0  0  0  0  3  0  0  0  0  0  0
  191.8180  179.7530  144.3190 C   0  0  0  0  0  1  0  0  0  0  0  0
  190.0900  178.2530  145.2420 C   0  0  0  0  0  1  0  0  0  0  0  0
  1 19  1  0  0  0  0
  2 19  2  0  0  0  0
  2 12  1  0  0  0  0
  3  9  1  0  0  0  0
  4 11  1  0  0  0  0
  5 10  1  0  0  0  0
  5  1  1  0  0  0  0
  6 14  1  6  0  0  0
  6 18  1  0  0  0  0
  7 10  1  0  0  0  0
  7  6  1  0  0  0  0
  9 21  1  1  0  0  0
 10  8  1  6  0  0  0
 11 18  1  6  0  0  0
 11 23  1  0  0  0  0
 12 17  1  0  0  0  0
 13 27  1  6  0  0  0
 15  1  2  0  0  0  0
 16  3  1  0  0  0  0
 17 24  2  0  0  0  0
 19 25  1  0  0  0  0
 20  4  1  1  0  0  0
 20 22  1  0  0  0  0
 22  9  1  0  0  0  0
 22 13  1  0  0  0  0
 23 26  1  0  0  0  0
 24 16  1  0  0  0  0
 25 20  1  0  0  0  0
 25 16  2  0  0  0  0
 26 13  1  0  0  0  0
 27 28  1  0  0  0  0
 28 29  1  0  0  0  0
 28 30  1  0  0  0  0
M  END
>  <MODEL>
3

>  <REMARK>
 VINA RESULT:      -5.6      3.357      7.827
  Name = 
  2 active torsions:
  status: ('A' for Active; 'I' for Inactive)
    1  A    between atoms: C_7  and  O_10
    2  A    between atoms: O_10  and  C_15
                            x       y       z     vdW  Elec       q    Type
                         _______ _______ _______ _____ _____    ______ ____

>  <TORSDO>
F 2

$$$$
=
 OpenBabel11052412373D

 30 33  0  0  1  0  0  0  0  0999 V2000
  184.9300  179.1720  143.2200 C   0  0  0  0  0  0  0  0  0  0  0  0
  185.0620  178.2820  145.4100 C   0  0  0  0  0  3  0  0  0  0  0  0
  189.0810  176.8030  144.5980 O   0  0  0  0  0  0  0  0  0  0  0  0
  187.1960  178.5610  141.4790 C   0  0  0  0  0  2  0  0  0  0  0  0
  183.8460  178.5540  142.5980 O   0  0  0  0  0  0  0  0  0  0  0  0
  185.0000  178.3950  139.0990 C   0  0  1  0  0  3  0  0  0  0  0  0
  184.1680  178.9560  140.2400 C   0  0  0  0  0  2  0  0  0  0  0  0
  182.7940  177.0520  141.0520 C   0  0  0  0  0  1  0  0  0  0  0  0
  188.9910  175.8420  143.5630 C   0  0  2  0  0  3  0  0  0  0  0  0
  184.0060  177.9170  141.3380 C   0  0  2  0  0  3  0  0  0  0  0  0
  187.3290  178.1150  140.0280 C   0  0  1  0  0  3  0  0  0  0  0  0
  185.6170  177.5390  146.5740 C   0  0  0  0  0  2  0  0  0  0  0  0
  189.8160  177.2850  141.6430 C   0  0  1  0  0  3  0  0  0  0  0  0
  184.3630  178.8040  137.7870 C   0  0  0  0  0  1  0  0  0  0  0  0
  185.2480  180.3510  142.9060 O   0  0  0  0  0  0  0  0  0  0  0  0
  187.9920  177.6310  144.8740 C   0  0  0  0  0  0  0  0  0  0  0  0
  186.8790  178.1890  147.0160 C   0  0  0  0  0  3  0  0  0  0  0  0
  186.4140  178.9560  139.1490 C   0  0  0  0  0  2  0  0  0  0  0  0
  185.6940  178.4540  144.2420 C   0  0  0  0  0  0  0  0  0  0  0  0
  187.3180  177.3970  142.4740 C   0  0  1  0  0  3  0  0  0  0  0  0
  190.2740  175.0330  143.4630 C   0  0  0  0  0  1  0  0  0  0  0  0
  188.6120  176.5500  142.2680 C   0  0  2  0  0  3  0  0  0  0  0  0
  188.7620  178.3610  139.5770 C   0  0  0  0  0  2  0  0  0  0  0  0
  187.9520  178.2070  146.2330 C   0  0  0  0  0  3  0  0  0  0  0  0
  187.0410  177.8510  143.9200 C   0  0  0  0  0  0  0  0  0  0  0  0
  189.7300  177.3120  140.1160 C   0  0  0  0  0  2  0  0  0  0  0  0
  190.0190  178.5650  142.1820 O   0  0  0  0  0  0  0  0  0  0  0  0
  191.3670  178.6040  142.5440 C   0  0  0  0  0  3  0  0  0  0  0  0
  192.0430  177.3240  142.0990 C   0  0  0  0  0  1  0  0  0  0  0  0
  191.4880  178.7280  144.0510 C   0  0  0  0  0  1  0  0  0  0  0  0
  1 19  1  0  0  0  0
  2 12  1  0  0  0  0
  3 16  1  0  0  0  0
  5  1  1  0  0  0  0
  6 14  1  6  0  0  0
  6 18  1  0  0  0  0
  6  7  1  0  0  0  0
  7 10  1  0  0  0  0
  9 21  1  6  0  0  0
  9  3  1  0  0  0  0
 10  8  1  6  0  0  0
 10  5  1  0  0  0  0
 11 18  1  6  0  0  0
 11  4  1  0  0  0  0
 12 17  1  0  0  0  0
 13 27  1  1  0  0  0
 13 22  1  0  0  0  0
 15  1  2  0  0  0  0
 16 24  1  0  0  0  0
 19  2  2  0  0  0  0
 20  4  1  6  0  0  0
 20 25  1  0  0  0  0
 22 20  1  0  0  0  0
 22  9  1  0  0  0  0
 23 11  1  0  0  0  0
 23 26  1  0  0  0  0
 24 17  2  0  0  0  0
 25 19  1  0  0  0  0
 25 16  2  0  0  0  0
 26 13  1  0  0  0  0
 27 28  1  0  0  0  0
 28 30  1  0  0  0  0
 29 28  1  0  0  0  0
M  END
>  <MODEL>
4

>  <REMARK>
 VINA RESULT:      -5.2      2.349      7.425
  Name = 
  2 active torsions:
  status: ('A' for Active; 'I' for Inactive)
    1  A    between atoms: C_7  and  O_10
    2  A    between atoms: O_10  and  C_15
                            x       y       z     vdW  Elec       q    Type
                         _______ _______ _______ _____ _____    ______ ____

>  <TORSDO>
F 2

$$$$
=
 OpenBabel11052412373D

 30 33  0  0  1  0  0  0  0  0999 V2000
  184.2860  173.6790  136.8510 C   0  0  0  0  0  0  0  0  0  0  0  0
  185.4990  172.0220  135.6740 C   0  0  0  0  0  3  0  0  0  0  0  0
  189.0380  174.5660  135.6770 O   0  0  0  0  0  0  0  0  0  0  0  0
  185.7040  176.1980  137.2890 C   0  0  0  0  0  2  0  0  0  0  0  0
  183.2030  174.0340  136.0490 O   0  0  0  0  0  0  0  0  0  0  0  0
  182.8130  177.6070  136.8770 C   0  0  1  0  0  3  0  0  0  0  0  0
  182.4270  176.1390  136.9410 C   0  0  0  0  0  2  0  0  0  0  0  0
  181.9550  175.4770  134.5940 C   0  0  0  0  0  1  0  0  0  0  0  0
  188.7370  175.7320  134.9350 C   0  0  2  0  0  3  0  0  0  0  0  0
  182.9600  175.3960  135.7260 C   0  0  2  0  0  3  0  0  0  0  0  0
  185.3180  177.6670  137.1710 C   0  0  1  0  0  3  0  0  0  0  0  0
  186.6290  171.3860  134.9440 C   0  0  0  0  0  2  0  0  0  0  0  0
  188.3640  177.3250  136.8780 C   0  0  1  0  0  3  0  0  0  0  0  0
  181.6190  178.4410  137.2940 C   0  0  0  0  0  1  0  0  0  0  0  0
  184.1850  173.7360  138.1070 O   0  0  0  0  0  0  0  0  0  0  0  0
  188.0100  173.7050  136.0660 C   0  0  0  0  0  0  0  0  0  0  0  0
  187.7900  171.2460  135.8640 C   0  0  0  0  0  3  0  0  0  0  0  0
  183.9650  177.8950  137.8290 C   0  0  0  0  0  2  0  0  0  0  0  0
  185.5380  173.2370  136.2350 C   0  0  0  0  0  0  0  0  0  0  0  0
  186.4730  175.6810  136.0630 C   0  0  1  0  0  3  0  0  0  0  0  0
  190.0050  176.4990  134.5940 C   0  0  0  0  0  1  0  0  0  0  0  0
  187.7150  176.5560  135.7080 C   0  0  2  0  0  3  0  0  0  0  0  0
  186.3470  178.4980  137.9230 C   0  0  0  0  0  2  0  0  0  0  0  0
  188.4120  172.3140  136.3510 C   0  0  0  0  0  3  0  0  0  0  0  0
  186.7270  174.1640  136.1460 C   0  0  0  0  0  0  0  0  0  0  0  0
  187.6520  178.6520  137.1460 C   0  0  0  0  0  2  0  0  0  0  0  0
  188.4910  176.5500  138.0410 O   0  0  0  0  0  0  0  0  0  0  0  0
  189.7030  176.9420  138.6160 C   0  0  0  0  0  3  0  0  0  0  0  0
  190.7510  175.8820  138.3460 C   0  0  0  0  0  1  0  0  0  0  0  0
  189.5310  177.0960  140.1150 C   0  0  0  0  0  1  0  0  0  0  0  0
  1 15  2  0  0  0  0
  2 19  2  0  0  0  0
  3 16  1  0  0  0  0
  5  1  1  0  0  0  0
  6  7  1  0  0  0  0
  6 14  1  1  0  0  0
  6 18  1  0  0  0  0
  9 21  1  1  0  0  0
  9  3  1  0  0  0  0
  9 22  1  0  0  0  0
 10  8  1  6  0  0  0
 10  5  1  0  0  0  0
 10  7  1  0  0  0  0
 11  4  1  1  0  0  0
 11 18  1  0  0  0  0
 11 23  1  0  0  0  0
 12  2  1  0  0  0  0
 12 17  1  0  0  0  0
 13 26  1  0  0  0  0
 13 27  1  1  0  0  0
 16 25  2  0  0  0  0
 16 24  1  0  0  0  0
 17 24  2  0  0  0  0
 19  1  1  0  0  0  0
 20 25  1  0  0  0  0
 20  4  1  1  0  0  0
 22 20  1  0  0  0  0
 22 13  1  0  0  0  0
 25 19  1  0  0  0  0
 26 23  1  0  0  0  0
 27 28  1  0  0  0  0
 28 30  1  0  0  0  0
 29 28  1  0  0  0  0
M  END
>  <MODEL>
5

>  <REMARK>
 VINA RESULT:      -4.9      4.279      7.932
  Name = 
  2 active torsions:
  status: ('A' for Active; 'I' for Inactive)
    1  A    between atoms: C_7  and  O_10
    2  A    between atoms: O_10  and  C_15
                            x       y       z     vdW  Elec       q    Type
                         _______ _______ _______ _____ _____    ______ ____

>  <TORSDO>
F 2

$$$$
=
 OpenBabel11052412373D

 30 33  0  0  1  0  0  0  0  0999 V2000
  183.6300  175.3550  135.4660 C   0  0  0  0  0  0  0  0  0  0  0  0
  181.6630  174.0370  135.5160 C   0  0  0  0  0  3  0  0  0  0  0  0
  179.9780  176.6120  138.6030 O   0  0  0  0  0  0  0  0  0  0  0  0
  183.7620  177.4860  137.4630 C   0  0  0  0  0  2  0  0  0  0  0  0
  184.6890  174.5130  135.7970 O   0  0  0  0  0  0  0  0  0  0  0  0
  186.9330  176.8240  137.5930 C   0  0  1  0  0  3  0  0  0  0  0  0
  186.5000  175.9920  136.3980 C   0  0  0  0  0  2  0  0  0  0  0  0
  186.4180  173.6490  137.2190 C   0  0  0  0  0  1  0  0  0  0  0  0
  180.7990  176.5110  139.7510 C   0  0  2  0  0  3  0  0  0  0  0  0
  185.5870  174.8600  136.8420 C   0  0  2  0  0  3  0  0  0  0  0  0
  184.8490  177.9950  138.4000 C   0  0  1  0  0  3  0  0  0  0  0  0
  180.3260  173.5560  135.9590 C   0  0  0  0  0  2  0  0  0  0  0  0
  182.0610  178.7010  139.5000 C   0  0  1  0  0  3  0  0  0  0  0  0
  188.4090  177.1370  137.4560 C   0  0  0  0  0  1  0  0  0  0  0  0
  183.8180  176.3290  134.6890 O   0  0  0  0  0  0  0  0  0  0  0  0
  180.4270  176.1080  137.3810 C   0  0  0  0  0  0  0  0  0  0  0  0
  179.3200  174.6280  135.7320 C   0  0  0  0  0  3  0  0  0  0  0  0
  186.1590  178.1330  137.6370 C   0  0  0  0  0  2  0  0  0  0  0  0
  182.2960  175.1050  136.0180 C   0  0  0  0  0  0  0  0  0  0  0  0
  182.7660  176.5450  138.1590 C   0  0  1  0  0  3  0  0  0  0  0  0
  180.1000  177.0930  140.9690 C   0  0  0  0  0  1  0  0  0  0  0  0
  182.1440  177.1610  139.4500 C   0  0  2  0  0  3  0  0  0  0  0  0
  184.4520  179.3780  138.8960 C   0  0  0  0  0  2  0  0  0  0  0  0
  179.3750  175.7750  136.3990 C   0  0  0  0  0  3  0  0  0  0  0  0
  181.7630  175.9360  137.1610 C   0  0  0  0  0  0  0  0  0  0  0  0
  183.3760  179.3220  139.9760 C   0  0  0  0  0  2  0  0  0  0  0  0
  181.6170  179.2660  138.2940 O   0  0  0  0  0  0  0  0  0  0  0  0
  180.7580  180.3030  138.6670 C   0  0  0  0  0  3  0  0  0  0  0  0
  179.3450  179.9590  138.2420 C   0  0  0  0  0  1  0  0  0  0  0  0
  181.1810  181.5880  137.9810 C   0  0  0  0  0  1  0  0  0  0  0  0
  1  5  1  0  0  0  0
  1 19  1  0  0  0  0
  2 12  1  0  0  0  0
  2 19  2  0  0  0  0
  3  9  1  0  0  0  0
  5 10  1  0  0  0  0
  6 14  1  6  0  0  0
  6 18  1  0  0  0  0
  7 10  1  0  0  0  0
  7  6  1  0  0  0  0
  9 21  1  1  0  0  0
 10  8  1  6  0  0  0
 11  4  1  6  0  0  0
 11 23  1  0  0  0  0
 13 27  1  6  0  0  0
 13 26  1  0  0  0  0
 15  1  2  0  0  0  0
 16  3  1  0  0  0  0
 17 12  1  0  0  0  0
 17 24  2  0  0  0  0
 18 11  1  0  0  0  0
 19 25  1  0  0  0  0
 20  4  1  6  0  0  0
 20 22  1  0  0  0  0
 22 13  1  0  0  0  0
 22  9  1  0  0  0  0
 23 26  1  0  0  0  0
 24 16  1  0  0  0  0
 25 16  2  0  0  0  0
 25 20  1  0  0  0  0
 27 28  1  0  0  0  0
 29 28  1  0  0  0  0
 30 28  1  0  0  0  0
M  END
>  <MODEL>
6

>  <REMARK>
 VINA RESULT:      -4.5      3.498      5.966
  Name = 
  2 active torsions:
  status: ('A' for Active; 'I' for Inactive)
    1  A    between atoms: C_7  and  O_10
    2  A    between atoms: O_10  and  C_15
                            x       y       z     vdW  Elec       q    Type
                         _______ _______ _______ _____ _____    ______ ____

>  <TORSDO>
F 2

$$$$
=
 OpenBabel11052412373D

 30 33  0  0  1  0  0  0  0  0999 V2000
  186.6960  178.2650  137.0710 C   0  0  0  0  0  0  0  0  0  0  0  0
  185.4870  177.1750  135.3520 C   0  0  0  0  0  3  0  0  0  0  0  0
  181.9550  177.0100  137.9010 O   0  0  0  0  0  0  0  0  0  0  0  0
  185.2820  178.5490  139.6140 C   0  0  0  0  0  2  0  0  0  0  0  0
  187.7860  177.4520  137.3770 O   0  0  0  0  0  0  0  0  0  0  0  0
  188.1800  178.0770  140.9900 C   0  0  1  0  0  3  0  0  0  0  0  0
  188.5610  178.2280  139.5270 C   0  0  0  0  0  2  0  0  0  0  0  0
  189.0470  175.9250  138.7310 C   0  0  0  0  0  1  0  0  0  0  0  0
  182.2640  176.2040  139.0230 C   0  0  2  0  0  3  0  0  0  0  0  0
  188.0340  177.0530  138.7180 C   0  0  2  0  0  3  0  0  0  0  0  0
  185.6730  178.3500  141.0730 C   0  0  1  0  0  3  0  0  0  0  0  0
  184.3590  176.4750  134.6790 C   0  0  0  0  0  2  0  0  0  0  0  0
  182.6280  178.0570  140.7220 C   0  0  1  0  0  3  0  0  0  0  0  0
  189.3730  178.4550  141.8440 C   0  0  0  0  0  1  0  0  0  0  0  0
  186.7890  179.5160  137.1980 O   0  0  0  0  0  0  0  0  0  0  0  0
  182.9780  177.4540  137.0620 C   0  0  0  0  0  0  0  0  0  0  0  0
  183.1920  177.3940  134.5940 C   0  0  0  0  0  3  0  0  0  0  0  0
  187.0230  179.0030  141.3350 C   0  0  0  0  0  2  0  0  0  0  0  0
  185.4470  177.6670  136.5970 C   0  0  0  0  0  0  0  0  0  0  0  0
  184.5210  177.3500  139.0300 C   0  0  1  0  0  3  0  0  0  0  0  0
  181.0010  175.8120  139.7710 C   0  0  0  0  0  1  0  0  0  0  0  0
  183.2830  176.9370  139.8870 C   0  0  2  0  0  3  0  0  0  0  0  0
  184.6420  179.0460  141.9480 C   0  0  0  0  0  2  0  0  0  0  0  0
  182.5690  177.8150  135.6890 C   0  0  0  0  0  3  0  0  0  0  0  0
  184.2610  177.5170  137.5210 C   0  0  0  0  0  0  0  0  0  0  0  0
  183.3430  178.2540  142.0610 C   0  0  0  0  0  2  0  0  0  0  0  0
  182.4910  179.2610  140.0150 O   0  0  0  0  0  0  0  0  0  0  0  0
  181.1210  179.3940  139.7730 C   0  0  0  0  0  3  0  0  0  0  0  0
  180.9090  180.3150  138.5890 C   0  0  0  0  0  1  0  0  0  0  0  0
  180.4430  179.9910  140.9910 C   0  0  0  0  0  1  0  0  0  0  0  0
  1 15  2  0  0  0  0
  1  5  1  0  0  0  0
  2 19  2  0  0  0  0
  3  9  1  0  0  0  0
  5 10  1  0  0  0  0
  6 18  1  0  0  0  0
  6 14  1  1  0  0  0
  7  6  1  0  0  0  0
  9 21  1  1  0  0  0
  9 22  1  0  0  0  0
 10  8  1  6  0  0  0
 10  7  1  0  0  0  0
 11  4  1  6  0  0  0
 11 18  1  0  0  0  0
 11 23  1  0  0  0  0
 12  2  1  0  0  0  0
 13 27  1  6  0  0  0
 13 26  1  0  0  0  0
 16 25  2  0  0  0  0
 16  3  1  0  0  0  0
 17 12  1  0  0  0  0
 17 24  2  0  0  0  0
 19  1  1  0  0  0  0
 19 25  1  0  0  0  0
 20  4  1  1  0  0  0
 20 22  1  0  0  0  0
 22 13  1  0  0  0  0
 23 26  1  0  0  0  0
 24 16  1  0  0  0  0
 25 20  1  0  0  0  0
 28 27  1  0  0  0  0
 28 30  1  0  0  0  0
 29 28  1  0  0  0  0
M  END
>  <MODEL>
7

>  <REMARK>
 VINA RESULT:      -4.5      2.197      3.620
  Name = 
  2 active torsions:
  status: ('A' for Active; 'I' for Inactive)
    1  A    between atoms: C_7  and  O_10
    2  A    between atoms: O_10  and  C_15
                            x       y       z     vdW  Elec       q    Type
                         _______ _______ _______ _____ _____    ______ ____

>  <TORSDO>
F 2

$$$$
=
 OpenBabel11052412373D

 30 33  0  0  1  0  0  0  0  0999 V2000
  184.6880  178.5960  138.9390 C   0  0  0  0  0  0  0  0  0  0  0  0
  183.1490  180.3910  138.8170 C   0  0  0  0  0  3  0  0  0  0  0  0
  180.2860  177.8340  136.7510 O   0  0  0  0  0  0  0  0  0  0  0  0
  183.8760  176.1510  137.5580 C   0  0  0  0  0  2  0  0  0  0  0  0
  185.8370  179.0030  138.2630 O   0  0  0  0  0  0  0  0  0  0  0  0
  187.0190  175.8130  136.8370 C   0  0  1  0  0  3  0  0  0  0  0  0
  187.0580  176.9670  137.8260 C   0  0  0  0  0  2  0  0  0  0  0  0
  187.4060  179.0040  136.4490 C   0  0  0  0  0  1  0  0  0  0  0  0
  180.8580  177.4470  135.5160 C   0  0  2  0  0  3  0  0  0  0  0  0
  186.3910  178.1970  137.2320 C   0  0  2  0  0  3  0  0  0  0  0  0
  184.5900  175.1610  136.6460 C   0  0  1  0  0  3  0  0  0  0  0  0
  181.9150  181.1380  138.4480 C   0  0  0  0  0  2  0  0  0  0  0  0
  181.5520  175.0880  136.1500 C   0  0  1  0  0  3  0  0  0  0  0  0
  188.3650  175.1170  136.8510 C   0  0  0  0  0  1  0  0  0  0  0  0
  184.7780  177.7950  139.9080 O   0  0  0  0  0  0  0  0  0  0  0  0
  181.0830  178.4290  137.7300 C   0  0  0  0  0  0  0  0  0  0  0  0
  180.7380  180.4800  139.0760 C   0  0  0  0  0  3  0  0  0  0  0  0
  185.9480  174.8090  137.2360 C   0  0  0  0  0  2  0  0  0  0  0  0
  183.3780  179.1040  138.5260 C   0  0  0  0  0  0  0  0  0  0  0  0
  183.0310  177.1740  136.7840 C   0  0  1  0  0  3  0  0  0  0  0  0
  179.8060  176.8550  134.5940 C   0  0  0  0  0  1  0  0  0  0  0  0
  182.0280  176.5110  135.7900 C   0  0  2  0  0  3  0  0  0  0  0  0
  183.7660  173.8830  136.5810 C   0  0  0  0  0  2  0  0  0  0  0  0
  180.3680  179.2540  138.7250 C   0  0  0  0  0  3  0  0  0  0  0  0
  182.4350  178.2450  137.7170 C   0  0  0  0  0  0  0  0  0  0  0  0
  182.5450  174.0240  135.6770 C   0  0  0  0  0  2  0  0  0  0  0  0
  181.2310  174.9430  137.5080 O   0  0  0  0  0  0  0  0  0  0  0  0
  179.9580  174.3680  137.5280 C   0  0  0  0  0  3  0  0  0  0  0  0
  179.0690  175.1520  138.4710 C   0  0  0  0  0  1  0  0  0  0  0  0
  180.0520  172.9350  138.0160 C   0  0  0  0  0  1  0  0  0  0  0  0
  1 15  2  0  0  0  0
  3 16  1  0  0  0  0
  5  1  1  0  0  0  0
  6 14  1  1  0  0  0
  6 18  1  0  0  0  0
  6  7  1  0  0  0  0
  9 21  1  6  0  0  0
  9 22  1  0  0  0  0
  9  3  1  0  0  0  0
 10  8  1  1  0  0  0
 10  7  1  0  0  0  0
 10  5  1  0  0  0  0
 11 23  1  1  0  0  0
 11 18  1  0  0  0  0
 11  4  1  0  0  0  0
 12  2  1  0  0  0  0
 12 17  1  0  0  0  0
 13 27  1  1  0  0  0
 16 24  1  0  0  0  0
 19  2  2  0  0  0  0
 19  1  1  0  0  0  0
 20  4  1  1  0  0  0
 20 25  1  0  0  0  0
 22 13  1  0  0  0  0
 22 20  1  0  0  0  0
 24 17  2  0  0  0  0
 25 16  2  0  0  0  0
 25 19  1  0  0  0  0
 26 13  1  0  0  0  0
 26 23  1  0  0  0  0
 27 28  1  0  0  0  0
 28 30  1  0  0  0  0
 28 29  1  0  0  0  0
M  END
>  <MODEL>
8

>  <REMARK>
 VINA RESULT:      -4.4      3.590      6.216
  Name = 
  2 active torsions:
  status: ('A' for Active; 'I' for Inactive)
    1  A    between atoms: C_7  and  O_10
    2  A    between atoms: O_10  and  C_15
                            x       y       z     vdW  Elec       q    Type
                         _______ _______ _______ _____ _____    ______ ____

>  <TORSDO>
F 2

$$$$
=
 OpenBabel11052412373D

 30 33  0  0  1  0  0  0  0  0999 V2000
  185.5480  172.9630  137.0840 C   0  0  0  0  0  0  0  0  0  0  0  0
  187.6270  172.5880  136.0150 C   0  0  0  0  0  3  0  0  0  0  0  0
  188.8380  176.6880  136.8650 O   0  0  0  0  0  0  0  0  0  0  0  0
  185.0710  175.7070  137.9720 C   0  0  0  0  0  2  0  0  0  0  0  0
  184.5570  172.7370  136.1300 O   0  0  0  0  0  0  0  0  0  0  0  0
  181.9800  175.1670  137.1580 C   0  0  1  0  0  3  0  0  0  0  0  0
  182.5730  173.7730  137.0330 C   0  0  0  0  0  2  0  0  0  0  0  0
  182.8310  173.3820  134.5940 C   0  0  0  0  0  1  0  0  0  0  0  0
  187.9560  177.5540  136.1770 C   0  0  2  0  0  3  0  0  0  0  0  0
  183.5610  173.7190  135.8780 C   0  0  2  0  0  3  0  0  0  0  0  0
  183.8780  176.6510  137.9050 C   0  0  1  0  0  3  0  0  0  0  0  0
  188.9730  172.8880  135.4540 C   0  0  0  0  0  2  0  0  0  0  0  0
  186.5020  178.2440  138.1420 C   0  0  1  0  0  3  0  0  0  0  0  0
  180.4920  175.0390  137.4180 C   0  0  0  0  0  1  0  0  0  0  0  0
  185.3160  172.7280  138.3000 O   0  0  0  0  0  0  0  0  0  0  0  0
  188.5240  175.3330  136.9900 C   0  0  0  0  0  0  0  0  0  0  0  0
  189.8810  173.3070  136.5550 C   0  0  0  0  0  3  0  0  0  0  0  0
  182.6160  175.9110  138.3230 C   0  0  0  0  0  2  0  0  0  0  0  0
  186.8590  173.4670  136.6710 C   0  0  0  0  0  0  0  0  0  0  0  0
  186.1060  175.9710  136.8690 C   0  0  1  0  0  3  0  0  0  0  0  0
  188.5110  178.9690  136.1340 C   0  0  0  0  0  1  0  0  0  0  0  0
  186.5760  177.4580  136.8160 C   0  0  2  0  0  3  0  0  0  0  0  0
  184.1030  177.7840  138.8950 C   0  0  0  0  0  2  0  0  0  0  0  0
  189.6670  174.4300  137.2310 C   0  0  0  0  0  3  0  0  0  0  0  0
  187.2300  174.9170  136.8740 C   0  0  0  0  0  0  0  0  0  0  0  0
  185.1040  178.8150  138.3830 C   0  0  0  0  0  2  0  0  0  0  0  0
  186.9680  177.5080  139.2430 O   0  0  0  0  0  0  0  0  0  0  0  0
  187.8740  178.3500  139.8940 C   0  0  0  0  0  3  0  0  0  0  0  0
  189.2320  177.6810  139.9430 C   0  0  0  0  0  1  0  0  0  0  0  0
  187.4000  178.6120  141.3110 C   0  0  0  0  0  1  0  0  0  0  0  0
  1 15  2  0  0  0  0
  2 19  2  0  0  0  0
  3 16  1  0  0  0  0
  5  1  1  0  0  0  0
  6 14  1  1  0  0  0
  6 18  1  0  0  0  0
  7  6  1  0  0  0  0
  9 21  1  1  0  0  0
  9 22  1  0  0  0  0
  9  3  1  0  0  0  0
 10  8  1  6  0  0  0
 10  5  1  0  0  0  0
 10  7  1  0  0  0  0
 11  4  1  1  0  0  0
 11 18  1  0  0  0  0
 11 23  1  0  0  0  0
 12  2  1  0  0  0  0
 12 17  1  0  0  0  0
 13 26  1  0  0  0  0
 13 27  1  1  0  0  0
 16 24  1  0  0  0  0
 17 24  2  0  0  0  0
 19 25  1  0  0  0  0
 19  1  1  0  0  0  0
 20 25  1  0  0  0  0
 20  4  1  1  0  0  0
 22 20  1  0  0  0  0
 22 13  1  0  0  0  0
 25 16  2  0  0  0  0
 26 23  1  0  0  0  0
 27 28  1  0  0  0  0
 28 29  1  0  0  0  0
 28 30  1  0  0  0  0
M  END
>  <MODEL>
9

>  <REMARK>
 VINA RESULT:      -4.1      3.391      7.130
  Name = 
  2 active torsions:
  status: ('A' for Active; 'I' for Inactive)
    1  A    between atoms: C_7  and  O_10
    2  A    between atoms: O_10  and  C_15
                            x       y       z     vdW  Elec       q    Type
                         _______ _______ _______ _____ _____    ______ ____

>  <TORSDO>
F 2

$$$$
