=
 OpenBabel11052412493D

 25 28  0  0  1  0  0  0  0  0999 V2000
  187.2250  177.8940  145.6340 C   0  0  0  0  0  0  0  0  0  0  0  0
  188.4620  177.4320  145.1470 C   0  0  0  0  0  0  0  0  0  0  0  0
  188.0560  177.7800  147.9070 C   0  0  0  0  0  3  0  0  0  0  0  0
  186.0670  178.2350  144.9110 C   0  0  0  0  0  0  0  0  0  0  0  0
  190.4450  176.8250  142.0610 C   0  0  0  0  0  0  0  0  0  0  0  0
  183.6040  179.0030  143.8990 C   0  0  0  0  0  3  0  0  0  0  0  0
  189.2480  177.3320  147.4290 N   0  0  0  0  0  0  0  0  0  0  0  0
  185.0290  178.6540  145.7350 C   0  0  0  0  0  0  0  0  0  0  0  0
  183.8220  179.0310  145.2440 N   0  0  0  0  0  0  0  0  0  0  0  0
  190.8070  176.6760  145.6460 C   0  0  0  0  0  0  0  0  0  0  0  0
  192.0490  176.2690  146.8170 Cl  0  0  0  0  0  0  0  0  0  0  0  0
  190.7760  176.7460  140.8020 C   0  0  0  0  0  3  0  0  0  0  0  0
  188.6790  177.1880  143.6740 C   0  0  0  0  0  2  0  0  0  0  0  0
  184.6210  178.5870  143.0200 C   0  0  0  0  0  3  0  0  0  0  0  0
  187.0420  178.0630  147.0040 C   0  0  0  0  0  0  0  0  0  0  0  0
  185.4880  178.6230  147.3540 S   0  0  0  0  0  0  0  0  0  0  0  0
  191.0990  176.5760  144.3500 C   0  0  0  0  0  3  0  0  0  0  0  0
  185.8680  178.1990  143.5290 C   0  0  0  0  0  3  0  0  0  0  0  0
  190.1080  176.9040  143.3170 C   0  0  0  0  0  0  0  0  0  0  0  0
  189.4810  177.1500  146.0930 C   0  0  0  0  0  0  0  0  0  0  0  0
  190.0090  177.4960  139.7630 C   0  0  2  0  0  3  0  0  0  0  0  0
  188.6030  177.5670  140.1260 N   0  0  0  0  0  1  0  0  0  0  0  0
  190.1620  176.8380  138.4330 C   0  0  0  0  0  0  0  0  0  0  0  0
  190.4580  175.4830  138.3680 O   0  0  0  0  0  1  0  0  0  0  0  0
  190.0110  177.4960  137.3700 O   0  0  0  0  0  0  0  0  0  0  0  0
  1 15  1  0  0  0  0
  2  1  2  0  0  0  0
  2 20  1  0  0  0  0
  4  1  1  0  0  0  0
  4  8  1  0  0  0  0
  5 19  2  0  0  0  0
  6  9  1  0  0  0  0
  7  3  1  0  0  0  0
  8 16  1  0  0  0  0
  9  8  2  0  0  0  0
 10 20  1  0  0  0  0
 10 11  1  0  0  0  0
 12  5  2  0  0  0  0
 13  2  1  0  0  0  0
 14 18  1  0  0  0  0
 14  6  2  0  0  0  0
 15 16  1  0  0  0  0
 15  3  2  0  0  0  0
 17 10  2  0  0  0  0
 18  4  2  0  0  0  0
 19 13  1  0  0  0  0
 19 17  1  0  0  0  0
 20  7  2  0  0  0  0
 21 22  1  1  0  0  0
 21 12  1  0  0  0  0
 23 21  1  0  0  0  0
 24 23  1  0  0  0  0
 25 23  2  0  0  0  0
M  END
>  <MODEL>
1

>  <REMARK>
 VINA RESULT:     -10.3      0.000      0.000
  Name = 
  2 active torsions:
  status: ('A' for Active; 'I' for Inactive)
    1  A    between atoms: C_2  and  CA_21
    2  A    between atoms: C_15  and  CA_21
                            x       y       z     vdW  Elec       q    Type
                         _______ _______ _______ _____ _____    ______ ____

>  <TORSDO>
F 2

$$$$
=
 OpenBabel11052412493D

 25 28  0  0  1  0  0  0  0  0999 V2000
  189.3000  177.4470  144.0150 C   0  0  0  0  0  0  0  0  0  0  0  0
  188.2930  177.7660  144.9450 C   0  0  0  0  0  0  0  0  0  0  0  0
  190.8290  176.9260  145.8210 C   0  0  0  0  0  3  0  0  0  0  0  0
  189.2430  177.4850  142.6090 C   0  0  0  0  0  0  0  0  0  0  0  0
  184.6960  178.6330  145.3070 C   0  0  0  0  0  0  0  0  0  0  0  0
  189.5670  177.4130  139.8580 C   0  0  0  0  0  3  0  0  0  0  0  0
  189.8510  177.2380  146.7140 N   0  0  0  0  0  0  0  0  0  0  0  0
  190.4400  177.1000  142.0180 C   0  0  0  0  0  0  0  0  0  0  0  0
  190.6040  177.0640  140.6720 N   0  0  0  0  0  0  0  0  0  0  0  0
  187.5880  177.9550  147.3510 C   0  0  0  0  0  0  0  0  0  0  0  0
  187.9910  177.8720  149.0570 Cl  0  0  0  0  0  0  0  0  0  0  0  0
  183.4570  178.9120  145.0090 C   0  0  0  0  0  3  0  0  0  0  0  0
  186.9440  178.2700  144.4930 C   0  0  0  0  0  2  0  0  0  0  0  0
  188.3330  177.8110  140.4050 C   0  0  0  0  0  3  0  0  0  0  0  0
  190.5500  177.0300  144.4660 C   0  0  0  0  0  0  0  0  0  0  0  0
  191.5930  176.7060  143.1790 S   0  0  0  0  0  0  0  0  0  0  0  0
  186.3410  178.2700  147.0080 C   0  0  0  0  0  3  0  0  0  0  0  0
  188.1660  177.8470  141.7970 C   0  0  0  0  0  3  0  0  0  0  0  0
  185.9340  178.3550  145.5990 C   0  0  0  0  0  0  0  0  0  0  0  0
  188.6060  177.6500  146.3240 C   0  0  0  0  0  0  0  0  0  0  0  0
  182.8940  178.5520  143.6740 C   0  0  2  0  0  3  0  0  0  0  0  0
  183.6630  179.1840  142.6140 N   0  0  0  0  0  1  0  0  0  0  0  0
  181.4640  178.9690  143.5870 C   0  0  0  0  0  0  0  0  0  0  0  0
  181.1140  180.0610  142.8030 O   0  0  0  0  0  0  0  0  0  0  0  0
  180.5700  178.3330  144.2060 O   0  0  0  0  0  1  0  0  0  0  0  0
  1 15  1  0  0  0  0
  1  2  2  0  0  0  0
  2 20  1  0  0  0  0
  3  7  1  0  0  0  0
  4  1  1  0  0  0  0
  5 19  2  0  0  0  0
  6 14  2  0  0  0  0
  6  9  1  0  0  0  0
  8  4  1  0  0  0  0
  8 16  1  0  0  0  0
  9  8  2  0  0  0  0
 10 11  1  0  0  0  0
 12  5  2  0  0  0  0
 13  2  1  0  0  0  0
 13 19  1  0  0  0  0
 14 18  1  0  0  0  0
 15  3  2  0  0  0  0
 16 15  1  0  0  0  0
 17 10  2  0  0  0  0
 18  4  2  0  0  0  0
 19 17  1  0  0  0  0
 20  7  2  0  0  0  0
 20 10  1  0  0  0  0
 21 22  1  6  0  0  0
 21 12  1  0  0  0  0
 23 21  1  0  0  0  0
 23 25  1  0  0  0  0
 24 23  2  0  0  0  0
M  END
>  <MODEL>
2

>  <REMARK>
 VINA RESULT:      -9.9      3.836      6.362
  Name = 
  2 active torsions:
  status: ('A' for Active; 'I' for Inactive)
    1  A    between atoms: C_2  and  CA_21
    2  A    between atoms: C_15  and  CA_21
                            x       y       z     vdW  Elec       q    Type
                         _______ _______ _______ _____ _____    ______ ____

>  <TORSDO>
F 2

$$$$
=
 OpenBabel11052412493D

 25 28  0  0  1  0  0  0  0  0999 V2000
  187.5910  177.8730  145.7480 C   0  0  0  0  0  0  0  0  0  0  0  0
  186.8440  178.2100  144.6040 C   0  0  0  0  0  0  0  0  0  0  0  0
  185.6410  178.2150  147.1450 C   0  0  0  0  0  3  0  0  0  0  0  0
  188.9480  177.5090  145.8380 C   0  0  0  0  0  0  0  0  0  0  0  0
  186.9240  178.3420  140.8890 C   0  0  0  0  0  0  0  0  0  0  0  0
  191.5380  176.7530  146.4660 C   0  0  0  0  0  3  0  0  0  0  0  0
  184.9260  178.5410  146.0340 N   0  0  0  0  0  0  0  0  0  0  0  0
  189.3420  177.2440  147.1440 C   0  0  0  0  0  0  0  0  0  0  0  0
  190.6090  176.8750  147.4560 N   0  0  0  0  0  0  0  0  0  0  0  0
  184.6350  178.8980  143.6200 C   0  0  0  0  0  0  0  0  0  0  0  0
  182.9630  179.3780  143.8440 Cl  0  0  0  0  0  0  0  0  0  0  0  0
  187.3500  178.2530  139.6600 C   0  0  0  0  0  3  0  0  0  0  0  0
  187.4870  178.2650  143.2400 C   0  0  0  0  0  2  0  0  0  0  0  0
  191.1910  177.0090  145.1260 C   0  0  0  0  0  3  0  0  0  0  0  0
  186.9780  177.8780  146.9990 C   0  0  0  0  0  0  0  0  0  0  0  0
  188.0630  177.4450  148.2180 S   0  0  0  0  0  0  0  0  0  0  0  0
  185.1150  178.8280  142.3790 C   0  0  0  0  0  3  0  0  0  0  0  0
  189.8810  177.3900  144.8050 C   0  0  0  0  0  3  0  0  0  0  0  0
  186.5040  178.4300  142.1190 C   0  0  0  0  0  0  0  0  0  0  0  0
  185.4780  178.5500  144.7830 C   0  0  0  0  0  0  0  0  0  0  0  0
  188.5460  177.4250  139.3250 C   0  0  2  0  0  3  0  0  0  0  0  0
  189.4050  177.2830  140.4900 N   0  0  0  0  0  1  0  0  0  0  0  0
  189.3070  178.0470  138.2020 C   0  0  0  0  0  0  0  0  0  0  0  0
  189.0560  179.3670  137.8510 O   0  0  0  0  0  1  0  0  0  0  0  0
  190.1850  177.3920  137.5800 O   0  0  0  0  0  0  0  0  0  0  0  0
  1  4  1  0  0  0  0
  1 15  2  0  0  0  0
  2 20  2  0  0  0  0
  2  1  1  0  0  0  0
  4  8  1  0  0  0  0
  5 19  2  0  0  0  0
  6  9  1  0  0  0  0
  7  3  2  0  0  0  0
  8  9  2  0  0  0  0
  8 16  1  0  0  0  0
 10 11  1  0  0  0  0
 10 20  1  0  0  0  0
 12  5  2  0  0  0  0
 13  2  1  0  0  0  0
 14  6  2  0  0  0  0
 15  3  1  0  0  0  0
 15 16  1  0  0  0  0
 17 10  2  0  0  0  0
 18 14  1  0  0  0  0
 18  4  2  0  0  0  0
 19 17  1  0  0  0  0
 19 13  1  0  0  0  0
 20  7  1  0  0  0  0
 21 12  1  0  0  0  0
 21 22  1  1  0  0  0
 23 21  1  0  0  0  0
 24 23  1  0  0  0  0
 25 23  2  0  0  0  0
M  END
>  <MODEL>
3

>  <REMARK>
 VINA RESULT:      -9.7      2.488      4.727
  Name = 
  2 active torsions:
  status: ('A' for Active; 'I' for Inactive)
    1  A    between atoms: C_2  and  CA_21
    2  A    between atoms: C_15  and  CA_21
                            x       y       z     vdW  Elec       q    Type
                         _______ _______ _______ _____ _____    ______ ____

>  <TORSDO>
F 2

$$$$
=
 OpenBabel11052412493D

 25 28  0  0  1  0  0  0  0  0999 V2000
  186.8760  177.9130  144.6570 C   0  0  0  0  0  0  0  0  0  0  0  0
  188.0990  177.5170  144.0840 C   0  0  0  0  0  0  0  0  0  0  0  0
  187.8340  177.7300  146.8760 C   0  0  0  0  0  3  0  0  0  0  0  0
  185.6680  178.2430  144.0140 C   0  0  0  0  0  0  0  0  0  0  0  0
  189.9280  177.1180  140.8720 C   0  0  0  0  0  0  0  0  0  0  0  0
  183.1290  178.9640  143.1710 C   0  0  0  0  0  3  0  0  0  0  0  0
  189.0130  177.3470  146.3140 N   0  0  0  0  0  0  0  0  0  0  0  0
  184.6640  178.5880  144.9100 C   0  0  0  0  0  0  0  0  0  0  0  0
  183.4200  178.9410  144.5030 N   0  0  0  0  0  0  0  0  0  0  0  0
  190.4930  176.8270  144.4220 C   0  0  0  0  0  0  0  0  0  0  0  0
  191.8100  176.4150  145.5050 Cl  0  0  0  0  0  0  0  0  0  0  0  0
  190.1910  177.1060  139.5950 C   0  0  0  0  0  3  0  0  0  0  0  0
  188.2430  177.3460  142.5920 C   0  0  0  0  0  2  0  0  0  0  0  0
  184.1100  178.6240  142.2210 C   0  0  0  0  0  3  0  0  0  0  0  0
  186.7630  178.0160  146.0420 C   0  0  0  0  0  0  0  0  0  0  0  0
  185.2120  178.5020  146.4990 S   0  0  0  0  0  0  0  0  0  0  0  0
  190.7150  176.7940  143.1090 C   0  0  0  0  0  3  0  0  0  0  0  0
  185.3950  178.2590  142.6440 C   0  0  0  0  0  3  0  0  0  0  0  0
  189.6590  177.1300  142.1470 C   0  0  0  0  0  0  0  0  0  0  0  0
  189.1780  177.2320  144.9610 C   0  0  0  0  0  0  0  0  0  0  0  0
  189.3430  177.8720  138.6340 C   0  0  2  0  0  3  0  0  0  0  0  0
  188.2920  178.5840  139.3430 N   0  0  0  0  0  1  0  0  0  0  0  0
  188.7450  176.9510  137.6250 C   0  0  0  0  0  0  0  0  0  0  0  0
  187.4020  176.6100  137.7170 O   0  0  0  0  0  1  0  0  0  0  0  0
  189.4430  176.4900  136.6820 O   0  0  0  0  0  0  0  0  0  0  0  0
  1 15  1  0  0  0  0
  2  1  2  0  0  0  0
  2 20  1  0  0  0  0
  4  1  1  0  0  0  0
  4  8  1  0  0  0  0
  5 19  2  0  0  0  0
  6  9  1  0  0  0  0
  7  3  1  0  0  0  0
  8 16  1  0  0  0  0
  9  8  2  0  0  0  0
 10 20  1  0  0  0  0
 10 11  1  0  0  0  0
 12  5  2  0  0  0  0
 13  2  1  0  0  0  0
 14 18  1  0  0  0  0
 14  6  2  0  0  0  0
 15 16  1  0  0  0  0
 15  3  2  0  0  0  0
 17 10  2  0  0  0  0
 18  4  2  0  0  0  0
 19 13  1  0  0  0  0
 19 17  1  0  0  0  0
 20  7  2  0  0  0  0
 21 22  1  1  0  0  0
 21 12  1  0  0  0  0
 23 24  1  0  0  0  0
 23 21  1  0  0  0  0
 25 23  2  0  0  0  0
M  END
>  <MODEL>
4

>  <REMARK>
 VINA RESULT:      -9.7      1.116      1.328
  Name = 
  2 active torsions:
  status: ('A' for Active; 'I' for Inactive)
    1  A    between atoms: C_2  and  CA_21
    2  A    between atoms: C_15  and  CA_21
                            x       y       z     vdW  Elec       q    Type
                         _______ _______ _______ _____ _____    ______ ____

>  <TORSDO>
F 2

$$$$
=
 OpenBabel11052412493D

 25 28  0  0  1  0  0  0  0  0999 V2000
  188.5370  177.6050  143.1410 C   0  0  0  0  0  0  0  0  0  0  0  0
  187.2110  177.9290  143.4830 C   0  0  0  0  0  0  0  0  0  0  0  0
  189.0860  177.2960  145.4810 C   0  0  0  0  0  3  0  0  0  0  0  0
  189.1260  177.5440  141.8640 C   0  0  0  0  0  0  0  0  0  0  0  0
  183.8280  178.6130  142.1020 C   0  0  0  0  0  0  0  0  0  0  0  0
  190.6700  177.3040  139.5760 C   0  0  0  0  0  3  0  0  0  0  0  0
  187.8020  177.6110  145.8040 N   0  0  0  0  0  0  0  0  0  0  0  0
  190.4690  177.1880  141.9140 C   0  0  0  0  0  0  0  0  0  0  0  0
  191.2280  177.0700  140.7970 N   0  0  0  0  0  0  0  0  0  0  0  0
  185.4840  178.2410  145.2840 C   0  0  0  0  0  0  0  0  0  0  0  0
  185.0670  178.2970  146.9870 Cl  0  0  0  0  0  0  0  0  0  0  0  0
  182.8560  178.8010  141.2530 C   0  0  0  0  0  3  0  0  0  0  0  0
  186.2060  178.3240  142.4290 C   0  0  0  0  0  2  0  0  0  0  0  0
  189.3140  177.6670  139.4690 C   0  0  0  0  0  3  0  0  0  0  0  0
  189.4520  177.2920  144.1430 C   0  0  0  0  0  0  0  0  0  0  0  0
  190.9730  176.9390  143.5000 S   0  0  0  0  0  0  0  0  0  0  0  0
  184.5240  178.4610  144.3870 C   0  0  0  0  0  3  0  0  0  0  0  0
  188.5310  177.7890  140.6250 C   0  0  0  0  0  3  0  0  0  0  0  0
  184.8020  178.4260  142.9460 C   0  0  0  0  0  0  0  0  0  0  0  0
  186.8640  177.9250  144.8590 C   0  0  0  0  0  0  0  0  0  0  0  0
  182.9700  178.3200  139.8450 C   0  0  2  0  0  3  0  0  0  0  0  0
  183.0340  176.8670  139.8110 N   0  0  0  0  0  1  0  0  0  0  0  0
  184.1810  178.9010  139.1960 C   0  0  0  0  0  0  0  0  0  0  0  0
  184.2960  180.2790  139.0670 O   0  0  0  0  0  1  0  0  0  0  0  0
  185.1050  178.1550  138.7750 O   0  0  0  0  0  0  0  0  0  0  0  0
  1  2  2  0  0  0  0
  1 15  1  0  0  0  0
  2 20  1  0  0  0  0
  3  7  1  0  0  0  0
  4  8  1  0  0  0  0
  4  1  1  0  0  0  0
  5 19  2  0  0  0  0
  6  9  1  0  0  0  0
  8 16  1  0  0  0  0
  9  8  2  0  0  0  0
 10 11  1  0  0  0  0
 12  5  2  0  0  0  0
 13 19  1  0  0  0  0
 13  2  1  0  0  0  0
 14  6  2  0  0  0  0
 14 18  1  0  0  0  0
 15  3  2  0  0  0  0
 16 15  1  0  0  0  0
 17 10  2  0  0  0  0
 18  4  2  0  0  0  0
 19 17  1  0  0  0  0
 20 10  1  0  0  0  0
 20  7  2  0  0  0  0
 21 22  1  1  0  0  0
 21 12  1  0  0  0  0
 23 21  1  0  0  0  0
 24 23  1  0  0  0  0
 25 23  2  0  0  0  0
M  END
>  <MODEL>
5

>  <REMARK>
 VINA RESULT:      -9.5      3.251      5.856
  Name = 
  2 active torsions:
  status: ('A' for Active; 'I' for Inactive)
    1  A    between atoms: C_2  and  CA_21
    2  A    between atoms: C_15  and  CA_21
                            x       y       z     vdW  Elec       q    Type
                         _______ _______ _______ _____ _____    ______ ____

>  <TORSDO>
F 2

$$$$
=
 OpenBabel11052412493D

 25 28  0  0  1  0  0  0  0  0999 V2000
  185.9350  178.4000  141.9450 C   0  0  0  0  0  0  0  0  0  0  0  0
  186.3440  178.1510  143.2690 C   0  0  0  0  0  0  0  0  0  0  0  0
  183.7100  178.9690  142.7180 C   0  0  0  0  0  3  0  0  0  0  0  0
  186.6850  178.2950  140.7590 C   0  0  0  0  0  0  0  0  0  0  0  0
  189.2790  177.3930  145.4200 C   0  0  0  0  0  0  0  0  0  0  0  0
  187.7750  178.2260  138.2120 C   0  0  0  0  0  3  0  0  0  0  0  0
  184.1130  178.7260  143.9960 N   0  0  0  0  0  0  0  0  0  0  0  0
  185.9430  178.6210  139.6300 C   0  0  0  0  0  0  0  0  0  0  0  0
  186.4710  178.5880  138.3820 N   0  0  0  0  0  0  0  0  0  0  0  0
  185.7550  178.0970  145.7120 C   0  0  0  0  0  0  0  0  0  0  0  0
  184.5560  178.2530  146.9840 Cl  0  0  0  0  0  0  0  0  0  0  0  0
  190.5010  177.1300  145.7940 C   0  0  0  0  0  3  0  0  0  0  0  0
  187.7370  177.6600  143.5770 C   0  0  0  0  0  2  0  0  0  0  0  0
  188.5710  177.8860  139.3220 C   0  0  0  0  0  3  0  0  0  0  0  0
  184.6280  178.8070  141.6910 C   0  0  0  0  0  0  0  0  0  0  0  0
  184.3660  179.0430  140.0400 S   0  0  0  0  0  0  0  0  0  0  0  0
  187.0070  177.7970  146.0530 C   0  0  0  0  0  3  0  0  0  0  0  0
  188.0220  177.9210  140.6110 C   0  0  0  0  0  3  0  0  0  0  0  0
  188.0610  177.6540  145.0410 C   0  0  0  0  0  0  0  0  0  0  0  0
  185.3850  178.3260  144.3000 C   0  0  0  0  0  0  0  0  0  0  0  0
  191.6560  177.4400  144.8990 C   0  0  2  0  0  3  0  0  0  0  0  0
  191.5650  178.8060  144.4110 N   0  0  0  0  0  1  0  0  0  0  0  0
  191.6900  176.4880  143.7510 C   0  0  0  0  0  0  0  0  0  0  0  0
  192.0510  175.1640  143.9680 O   0  0  0  0  0  1  0  0  0  0  0  0
  191.3820  176.8690  142.5910 O   0  0  0  0  0  0  0  0  0  0  0  0
  1  2  2  0  0  0  0
  2 13  1  0  0  0  0
  2 20  1  0  0  0  0
  3  7  1  0  0  0  0
  4  1  1  0  0  0  0
  5 12  2  0  0  0  0
  6  9  2  0  0  0  0
  6 14  1  0  0  0  0
  7 20  2  0  0  0  0
  8 16  1  0  0  0  0
  8  4  2  0  0  0  0
  9  8  1  0  0  0  0
 10 17  2  0  0  0  0
 10 11  1  0  0  0  0
 13 19  1  0  0  0  0
 14 18  2  0  0  0  0
 15  1  1  0  0  0  0
 15  3  2  0  0  0  0
 16 15  1  0  0  0  0
 18  4  1  0  0  0  0
 19  5  2  0  0  0  0
 19 17  1  0  0  0  0
 20 10  1  0  0  0  0
 21 22  1  6  0  0  0
 21 12  1  0  0  0  0
 23 24  1  0  0  0  0
 23 21  1  0  0  0  0
 25 23  2  0  0  0  0
M  END
>  <MODEL>
6

>  <REMARK>
 VINA RESULT:      -9.5      3.131      5.417
  Name = 
  2 active torsions:
  status: ('A' for Active; 'I' for Inactive)
    1  A    between atoms: C_2  and  CA_21
    2  A    between atoms: C_15  and  CA_21
                            x       y       z     vdW  Elec       q    Type
                         _______ _______ _______ _____ _____    ______ ____

>  <TORSDO>
F 2

$$$$
=
 OpenBabel11052412493D

 25 28  0  0  1  0  0  0  0  0999 V2000
  187.2150  178.0930  141.9000 C   0  0  0  0  0  0  0  0  0  0  0  0
  187.1140  177.9680  143.2980 C   0  0  0  0  0  0  0  0  0  0  0  0
  184.9370  178.9110  141.7890 C   0  0  0  0  0  3  0  0  0  0  0  0
  188.3110  177.7970  141.0670 C   0  0  0  0  0  0  0  0  0  0  0  0
  189.0290  177.2450  146.4020 C   0  0  0  0  0  0  0  0  0  0  0  0
  190.1950  177.3550  139.0840 C   0  0  0  0  0  3  0  0  0  0  0  0
  184.8470  178.7870  143.1410 N   0  0  0  0  0  0  0  0  0  0  0  0
  188.0430  178.0460  139.7270 C   0  0  0  0  0  0  0  0  0  0  0  0
  188.9610  177.8310  138.7530 N   0  0  0  0  0  0  0  0  0  0  0  0
  185.7190  178.2380  145.3720 C   0  0  0  0  0  0  0  0  0  0  0  0
  184.1810  178.6280  146.1210 Cl  0  0  0  0  0  0  0  0  0  0  0  0
  190.0110  176.9370  147.2020 C   0  0  0  0  0  3  0  0  0  0  0  0
  188.2530  177.4130  144.1170 C   0  0  0  0  0  2  0  0  0  0  0  0
  190.5190  177.0870  140.4270 C   0  0  0  0  0  3  0  0  0  0  0  0
  186.1280  178.5640  141.1680 C   0  0  0  0  0  0  0  0  0  0  0  0
  186.4780  178.6280  139.5170 S   0  0  0  0  0  0  0  0  0  0  0  0
  186.7360  177.8870  146.1560 C   0  0  0  0  0  3  0  0  0  0  0  0
  189.5680  177.3100  141.4330 C   0  0  0  0  0  3  0  0  0  0  0  0
  188.0520  177.5510  145.5970 C   0  0  0  0  0  0  0  0  0  0  0  0
  185.8840  178.3310  143.9070 C   0  0  0  0  0  0  0  0  0  0  0  0
  191.4290  177.0540  146.7510 C   0  0  2  0  0  3  0  0  0  0  0  0
  191.5040  177.0040  145.3000 N   0  0  0  0  0  1  0  0  0  0  0  0
  192.2530  175.9610  147.3440 C   0  0  0  0  0  0  0  0  0  0  0  0
  192.8200  176.1330  148.6000 O   0  0  0  0  0  1  0  0  0  0  0  0
  192.4270  174.8790  146.7230 O   0  0  0  0  0  0  0  0  0  0  0  0
  1  2  2  0  0  0  0
  2 20  1  0  0  0  0
  2 13  1  0  0  0  0
  3  7  1  0  0  0  0
  4 18  1  0  0  0  0
  4  1  1  0  0  0  0
  5 12  2  0  0  0  0
  6 14  1  0  0  0  0
  7 20  2  0  0  0  0
  8  4  2  0  0  0  0
  9  6  2  0  0  0  0
  9  8  1  0  0  0  0
 10 11  1  0  0  0  0
 10 17  2  0  0  0  0
 13 19  1  0  0  0  0
 14 18  2  0  0  0  0
 15  3  2  0  0  0  0
 15  1  1  0  0  0  0
 16  8  1  0  0  0  0
 16 15  1  0  0  0  0
 19 17  1  0  0  0  0
 19  5  2  0  0  0  0
 20 10  1  0  0  0  0
 21 22  1  6  0  0  0
 21 12  1  0  0  0  0
 21 23  1  0  0  0  0
 23 24  1  0  0  0  0
 25 23  2  0  0  0  0
M  END
>  <MODEL>
7

>  <REMARK>
 VINA RESULT:      -9.4      3.837      6.534
  Name = 
  2 active torsions:
  status: ('A' for Active; 'I' for Inactive)
    1  A    between atoms: C_2  and  CA_21
    2  A    between atoms: C_15  and  CA_21
                            x       y       z     vdW  Elec       q    Type
                         _______ _______ _______ _____ _____    ______ ____

>  <TORSDO>
F 2

$$$$
=
 OpenBabel11052412493D

 25 28  0  0  1  0  0  0  0  0999 V2000
  189.0660  177.6950  144.1390 C   0  0  0  0  0  0  0  0  0  0  0  0
  188.1900  177.8920  143.0540 C   0  0  0  0  0  0  0  0  0  0  0  0
  190.9570  177.6380  142.6250 C   0  0  0  0  0  3  0  0  0  0  0  0
  188.7610  177.5930  145.5090 C   0  0  0  0  0  0  0  0  0  0  0  0
  184.6700  178.6490  142.1280 C   0  0  0  0  0  0  0  0  0  0  0  0
  188.6140  177.3420  148.2650 C   0  0  0  0  0  3  0  0  0  0  0  0
  190.1040  177.8270  141.5820 N   0  0  0  0  0  0  0  0  0  0  0  0
  189.8920  177.3970  146.2930 C   0  0  0  0  0  0  0  0  0  0  0  0
  189.8250  177.2730  147.6410 N   0  0  0  0  0  0  0  0  0  0  0  0
  187.8890  178.1750  140.5750 C   0  0  0  0  0  0  0  0  0  0  0  0
  188.5750  178.1910  138.9590 Cl  0  0  0  0  0  0  0  0  0  0  0  0
  183.3950  178.9000  142.2280 C   0  0  0  0  0  3  0  0  0  0  0  0
  186.6980  177.9760  143.2620 C   0  0  0  0  0  2  0  0  0  0  0  0
  187.4380  177.5390  147.5180 C   0  0  0  0  0  3  0  0  0  0  0  0
  190.4340  177.5730  143.9080 C   0  0  0  0  0  0  0  0  0  0  0  0
  191.2840  177.3430  145.3490 S   0  0  0  0  0  0  0  0  0  0  0  0
  186.5830  178.3940  140.7130 C   0  0  0  0  0  3  0  0  0  0  0  0
  187.5090  177.6670  146.1240 C   0  0  0  0  0  3  0  0  0  0  0  0
  185.9450  178.3980  142.0350 C   0  0  0  0  0  0  0  0  0  0  0  0
  188.7530  177.9540  141.7530 C   0  0  0  0  0  0  0  0  0  0  0  0
  182.8090  179.3770  143.5160 C   0  0  2  0  0  3  0  0  0  0  0  0
  183.3440  178.6100  144.6290 N   0  0  0  0  0  1  0  0  0  0  0  0
  181.3220  179.2590  143.4820 C   0  0  0  0  0  0  0  0  0  0  0  0
  180.5710  180.2270  142.8270 O   0  0  0  0  0  0  0  0  0  0  0  0
  180.7420  178.2840  144.0300 O   0  0  0  0  0  1  0  0  0  0  0  0
  1  4  1  0  0  0  0
  2 13  1  0  0  0  0
  2  1  1  0  0  0  0
  3 15  1  0  0  0  0
  4 18  2  0  0  0  0
  4  8  1  0  0  0  0
  5 12  2  0  0  0  0
  7 20  1  0  0  0  0
  7  3  2  0  0  0  0
  8  9  2  0  0  0  0
  9  6  1  0  0  0  0
 10 17  2  0  0  0  0
 10 20  1  0  0  0  0
 11 10  1  0  0  0  0
 12 21  1  0  0  0  0
 14  6  2  0  0  0  0
 15  1  2  0  0  0  0
 15 16  1  0  0  0  0
 16  8  1  0  0  0  0
 17 19  1  0  0  0  0
 18 14  1  0  0  0  0
 19  5  2  0  0  0  0
 19 13  1  0  0  0  0
 20  2  2  0  0  0  0
 21 22  1  1  0  0  0
 23 21  1  0  0  0  0
 23 25  1  0  0  0  0
 24 23  2  0  0  0  0
M  END
>  <MODEL>
8

>  <REMARK>
 VINA RESULT:      -9.2      4.126      6.635
  Name = 
  2 active torsions:
  status: ('A' for Active; 'I' for Inactive)
    1  A    between atoms: C_2  and  CA_21
    2  A    between atoms: C_15  and  CA_21
                            x       y       z     vdW  Elec       q    Type
                         _______ _______ _______ _____ _____    ______ ____

>  <TORSDO>
F 2

$$$$
=
 OpenBabel11052412493D

 25 28  0  0  1  0  0  0  0  0999 V2000
  186.3470  178.2530  144.2990 C   0  0  0  0  0  0  0  0  0  0  0  0
  186.4340  178.3850  142.9000 C   0  0  0  0  0  0  0  0  0  0  0  0
  183.9900  178.8100  144.2240 C   0  0  0  0  0  3  0  0  0  0  0  0
  187.3620  177.9210  145.2160 C   0  0  0  0  0  0  0  0  0  0  0  0
  188.6570  177.8850  139.9620 C   0  0  0  0  0  0  0  0  0  0  0  0
  189.0300  177.3060  147.3410 C   0  0  0  0  0  3  0  0  0  0  0  0
  184.0820  178.9370  142.8720 N   0  0  0  0  0  0  0  0  0  0  0  0
  186.9030  177.8860  146.5270 C   0  0  0  0  0  0  0  0  0  0  0  0
  187.7160  177.5860  147.5700 N   0  0  0  0  0  0  0  0  0  0  0  0
  185.2750  178.8770  140.7240 C   0  0  0  0  0  0  0  0  0  0  0  0
  183.8330  179.3730  139.8560 Cl  0  0  0  0  0  0  0  0  0  0  0  0
  189.7050  177.5930  139.2430 C   0  0  0  0  0  3  0  0  0  0  0  0
  187.7490  178.2130  142.1790 C   0  0  0  0  0  2  0  0  0  0  0  0
  189.5460  177.3270  146.0320 C   0  0  0  0  0  3  0  0  0  0  0  0
  185.1280  178.4660  144.9380 C   0  0  0  0  0  0  0  0  0  0  0  0
  185.2630  178.2550  146.6080 S   0  0  0  0  0  0  0  0  0  0  0  0
  186.3740  178.6010  140.0240 C   0  0  0  0  0  3  0  0  0  0  0  0
  188.7040  177.6380  144.9550 C   0  0  0  0  0  3  0  0  0  0  0  0
  187.6140  178.1770  140.6860 C   0  0  0  0  0  0  0  0  0  0  0  0
  185.2540  178.7380  142.1950 C   0  0  0  0  0  0  0  0  0  0  0  0
  190.7920  176.7310  139.7930 C   0  0  2  0  0  3  0  0  0  0  0  0
  191.7180  177.5280  140.5830 N   0  0  0  0  0  1  0  0  0  0  0  0
  191.5220  176.0480  138.6860 C   0  0  0  0  0  0  0  0  0  0  0  0
  192.5930  176.6860  138.0740 O   0  0  0  0  0  0  0  0  0  0  0  0
  191.1840  174.8940  138.3090 O   0  0  0  0  0  1  0  0  0  0  0  0
  1 15  2  0  0  0  0
  1  4  1  0  0  0  0
  2  1  1  0  0  0  0
  3 15  1  0  0  0  0
  4  8  1  0  0  0  0
  5 19  2  0  0  0  0
  6  9  1  0  0  0  0
  7  3  2  0  0  0  0
  8 16  1  0  0  0  0
  8  9  2  0  0  0  0
 10 20  1  0  0  0  0
 11 10  1  0  0  0  0
 12 21  1  0  0  0  0
 12  5  2  0  0  0  0
 13  2  1  0  0  0  0
 14  6  2  0  0  0  0
 15 16  1  0  0  0  0
 17 19  1  0  0  0  0
 17 10  2  0  0  0  0
 18  4  2  0  0  0  0
 18 14  1  0  0  0  0
 19 13  1  0  0  0  0
 20  7  1  0  0  0  0
 20  2  2  0  0  0  0
 21 22  1  6  0  0  0
 23 21  1  0  0  0  0
 24 23  2  0  0  0  0
 25 23  1  0  0  0  0
M  END
>  <MODEL>
9

>  <REMARK>
 VINA RESULT:      -9.2      2.770      4.683
  Name = 
  2 active torsions:
  status: ('A' for Active; 'I' for Inactive)
    1  A    between atoms: C_2  and  CA_21
    2  A    between atoms: C_15  and  CA_21
                            x       y       z     vdW  Elec       q    Type
                         _______ _______ _______ _____ _____    ______ ____

>  <TORSDO>
F 2

$$$$
