=
 OpenBabel11052413483D

 27 30  0  0  0  0  0  0  0  0999 V2000
  187.2690  177.9510  145.5330 C   0  0  0  0  0  3  0  0  0  0  0  0
  186.8570  177.8840  144.2520 C   0  0  0  0  0  0  0  0  0  0  0  0
  187.9350  178.2710  142.0170 C   0  0  0  0  0  3  0  0  0  0  0  0
  190.4100  176.2770  140.0630 N   0  0  0  0  0  2  0  0  0  0  0  0
  191.2490  176.6740  137.9250 O   0  0  0  0  0  0  0  0  0  0  0  0
  188.5020  176.2750  143.2640 C   0  0  0  0  0  3  0  0  0  0  0  0
  189.0330  178.7950  139.8250 C   0  0  0  0  0  2  0  0  0  0  0  0
  189.3750  178.0230  138.5470 C   0  0  0  0  0  2  0  0  0  0  0  0
  188.7970  177.8790  140.9910 C   0  0  0  0  0  0  0  0  0  0  0  0
  190.4160  176.9780  138.8160 C   0  0  0  0  0  0  0  0  0  0  0  0
  189.5270  176.6830  141.1110 C   0  0  0  0  0  0  0  0  0  0  0  0
  187.7770  177.4720  143.1600 C   0  0  0  0  0  0  0  0  0  0  0  0
  189.3750  175.8840  142.2460 C   0  0  0  0  0  3  0  0  0  0  0  0
  187.6270  176.7980  148.2220 N   0  0  0  0  0  1  0  0  0  0  0  0
  191.1210  176.7480  146.9570 C   0  0  0  0  0  0  0  0  0  0  0  0
  192.4670  176.3350  147.4290 C   0  0  0  0  0  1  0  0  0  0  0  0
  188.5770  177.5140  146.0550 C   0  0  0  0  0  0  0  0  0  0  0  0
  190.0050  176.5590  147.7760 C   0  0  0  0  0  3  0  0  0  0  0  0
  190.9730  177.3430  145.7010 C   0  0  0  0  0  3  0  0  0  0  0  0
  189.7060  177.7300  145.2570 C   0  0  0  0  0  3  0  0  0  0  0  0
  188.7340  176.9440  147.3370 C   0  0  0  0  0  0  0  0  0  0  0  0
  182.8210  179.0650  143.3370 C   0  0  0  0  0  3  0  0  0  0  0  0
  185.4630  178.2990  143.9320 C   0  0  0  0  0  0  0  0  0  0  0  0
  184.6110  178.7840  144.9400 C   0  0  0  0  0  3  0  0  0  0  0  0
  183.2990  179.1660  144.6440 C   0  0  0  0  0  3  0  0  0  0  0  0
  183.6530  178.5820  142.3240 C   0  0  0  0  0  3  0  0  0  0  0  0
  184.9640  178.2000  142.6200 C   0  0  0  0  0  3  0  0  0  0  0  0
  1 17  1  0  0  0  0
  2  1  2  0  0  0  0
  3 12  1  0  0  0  0
  4 11  1  0  0  0  0
  5 10  2  0  0  0  0
  7  9  1  0  0  0  0
  8 10  1  0  0  0  0
  8  7  1  0  0  0  0
  9 11  1  0  0  0  0
  9  3  2  0  0  0  0
 10  4  1  0  0  0  0
 11 13  2  0  0  0  0
 12  6  2  0  0  0  0
 12  2  1  0  0  0  0
 13  6  1  0  0  0  0
 15 16  1  0  0  0  0
 15 18  1  0  0  0  0
 17 21  1  0  0  0  0
 19 15  2  0  0  0  0
 20 19  1  0  0  0  0
 20 17  2  0  0  0  0
 21 18  2  0  0  0  0
 21 14  1  0  0  0  0
 22 25  1  0  0  0  0
 23  2  1  0  0  0  0
 23 24  1  0  0  0  0
 25 24  2  0  0  0  0
 26 27  1  0  0  0  0
 26 22  2  0  0  0  0
 27 23  2  0  0  0  0
M  END
>  <MODEL>
1

>  <REMARK>
 VINA RESULT:     -10.0      0.000      0.000
  Name = 
  3 active torsions:
  status: ('A' for Active; 'I' for Inactive)
    1  A    between atoms: C_1  and  C_18
    2  A    between atoms: C_9  and  C_15
    3  A    between atoms: C_15  and  C_19
                            x       y       z     vdW  Elec       q    Type
                         _______ _______ _______ _____ _____    ______ ____

>  <TORSDO>
F 3

$$$$
=
 OpenBabel11052413483D

 27 30  0  0  0  0  0  0  0  0999 V2000
  188.0460  177.7390  141.1890 C   0  0  0  0  0  3  0  0  0  0  0  0
  189.3440  177.4000  141.3250 C   0  0  0  0  0  0  0  0  0  0  0  0
  190.6210  176.1890  143.1160 C   0  0  0  0  0  3  0  0  0  0  0  0
  191.8730  177.2770  146.4590 N   0  0  0  0  0  2  0  0  0  0  0  0
  192.9430  176.0180  148.1020 O   0  0  0  0  0  0  0  0  0  0  0  0
  190.0110  178.5040  143.4720 C   0  0  0  0  0  3  0  0  0  0  0  0
  191.9810  174.9240  144.8010 C   0  0  0  0  0  2  0  0  0  0  0  0
  191.9720  174.7490  146.3220 C   0  0  0  0  0  2  0  0  0  0  0  0
  191.2330  176.1530  144.3700 C   0  0  0  0  0  0  0  0  0  0  0  0
  192.3190  176.0350  147.0100 C   0  0  0  0  0  0  0  0  0  0  0  0
  191.2470  177.3080  145.1740 C   0  0  0  0  0  0  0  0  0  0  0  0
  190.0010  177.3620  142.6580 C   0  0  0  0  0  0  0  0  0  0  0  0
  190.6340  178.4790  144.7220 C   0  0  0  0  0  3  0  0  0  0  0  0
  185.7490  179.5690  140.9490 N   0  0  0  0  0  1  0  0  0  0  0  0
  185.3360  178.3660  144.4410 C   0  0  0  0  0  0  0  0  0  0  0  0
  184.4060  178.5660  145.5820 C   0  0  0  0  0  1  0  0  0  0  0  0
  187.0840  177.9730  142.2830 C   0  0  0  0  0  0  0  0  0  0  0  0
  185.1050  179.0210  143.2290 C   0  0  0  0  0  3  0  0  0  0  0  0
  186.4520  177.5380  144.5860 C   0  0  0  0  0  3  0  0  0  0  0  0
  187.3250  177.3480  143.5120 C   0  0  0  0  0  3  0  0  0  0  0  0
  185.9750  178.8360  142.1500 C   0  0  0  0  0  0  0  0  0  0  0  0
  191.6350  176.5810  137.7760 C   0  0  0  0  0  3  0  0  0  0  0  0
  190.1370  177.1250  140.0970 C   0  0  0  0  0  0  0  0  0  0  0  0
  189.4980  176.7790  138.8930 C   0  0  0  0  0  3  0  0  0  0  0  0
  190.2410  176.5110  137.7400 C   0  0  0  0  0  3  0  0  0  0  0  0
  192.2860  176.9190  138.9650 C   0  0  0  0  0  3  0  0  0  0  0  0
  191.5430  177.1870  140.1170 C   0  0  0  0  0  3  0  0  0  0  0  0
  1  2  2  0  0  0  0
  1 17  1  0  0  0  0
  2 12  1  0  0  0  0
  3  9  1  0  0  0  0
  4 10  1  0  0  0  0
  6 13  2  0  0  0  0
  7  8  1  0  0  0  0
  8 10  1  0  0  0  0
  9  7  1  0  0  0  0
  9 11  2  0  0  0  0
 10  5  2  0  0  0  0
 11  4  1  0  0  0  0
 12  3  2  0  0  0  0
 12  6  1  0  0  0  0
 13 11  1  0  0  0  0
 14 21  1  0  0  0  0
 15 19  1  0  0  0  0
 15 16  1  0  0  0  0
 17 20  1  0  0  0  0
 18 15  2  0  0  0  0
 20 19  2  0  0  0  0
 21 17  2  0  0  0  0
 21 18  1  0  0  0  0
 22 26  1  0  0  0  0
 23 27  1  0  0  0  0
 23  2  1  0  0  0  0
 24 23  2  0  0  0  0
 25 22  2  0  0  0  0
 25 24  1  0  0  0  0
 26 27  2  0  0  0  0
M  END
>  <MODEL>
2

>  <REMARK>
 VINA RESULT:      -9.8      2.846      6.773
  Name = 
  3 active torsions:
  status: ('A' for Active; 'I' for Inactive)
    1  A    between atoms: C_1  and  C_18
    2  A    between atoms: C_9  and  C_15
    3  A    between atoms: C_15  and  C_19
                            x       y       z     vdW  Elec       q    Type
                         _______ _______ _______ _____ _____    ______ ____

>  <TORSDO>
F 3

$$$$
=
 OpenBabel11052413483D

 27 30  0  0  0  0  0  0  0  0999 V2000
  190.9840  176.8200  141.9800 C   0  0  0  0  0  3  0  0  0  0  0  0
  189.8010  177.1970  141.4580 C   0  0  0  0  0  0  0  0  0  0  0  0
  187.6050  178.2970  141.9800 C   0  0  0  0  0  3  0  0  0  0  0  0
  185.1510  177.7840  144.7430 N   0  0  0  0  0  2  0  0  0  0  0  0
  183.1930  178.9620  145.2000 O   0  0  0  0  0  0  0  0  0  0  0  0
  188.4240  176.5560  143.4490 C   0  0  0  0  0  3  0  0  0  0  0  0
  185.3780  179.3860  142.3610 C   0  0  0  0  0  2  0  0  0  0  0  0
  184.6190  179.9600  143.5610 C   0  0  0  0  0  2  0  0  0  0  0  0
  186.4720  178.4470  142.7820 C   0  0  0  0  0  0  0  0  0  0  0  0
  184.2530  178.8770  144.5300 C   0  0  0  0  0  0  0  0  0  0  0  0
  186.3090  177.6340  143.9180 C   0  0  0  0  0  0  0  0  0  0  0  0
  188.5920  177.3550  142.3070 C   0  0  0  0  0  0  0  0  0  0  0  0
  187.2860  176.6920  144.2490 C   0  0  0  0  0  3  0  0  0  0  0  0
  191.1670  179.0800  143.8620 N   0  0  0  0  0  1  0  0  0  0  0  0
  191.9270  176.2200  146.1100 C   0  0  0  0  0  0  0  0  0  0  0  0
  192.2530  175.9880  147.5410 C   0  0  0  0  0  1  0  0  0  0  0  0
  191.2950  176.6530  143.4120 C   0  0  0  0  0  0  0  0  0  0  0  0
  191.6700  177.5150  145.6550 C   0  0  0  0  0  3  0  0  0  0  0  0
  191.8970  175.1460  145.2180 C   0  0  0  0  0  3  0  0  0  0  0  0
  191.5890  175.3650  143.8730 C   0  0  0  0  0  3  0  0  0  0  0  0
  191.3600  177.7420  144.3100 C   0  0  0  0  0  0  0  0  0  0  0  0
  189.5450  177.7680  137.2000 C   0  0  0  0  0  3  0  0  0  0  0  0
  189.7050  177.3920  139.9850 C   0  0  0  0  0  0  0  0  0  0  0  0
  190.3020  176.4760  139.1010 C   0  0  0  0  0  3  0  0  0  0  0  0
  190.2210  176.6620  137.7180 C   0  0  0  0  0  3  0  0  0  0  0  0
  188.9490  178.6890  138.0640 C   0  0  0  0  0  3  0  0  0  0  0  0
  189.0300  178.5030  139.4470 C   0  0  0  0  0  3  0  0  0  0  0  0
  1 17  1  0  0  0  0
  2  1  2  0  0  0  0
  2 12  1  0  0  0  0
  3 12  2  0  0  0  0
  3  9  1  0  0  0  0
  6 13  2  0  0  0  0
  7  9  1  0  0  0  0
  7  8  1  0  0  0  0
  8 10  1  0  0  0  0
  9 11  2  0  0  0  0
 10  4  1  0  0  0  0
 10  5  2  0  0  0  0
 11 13  1  0  0  0  0
 11  4  1  0  0  0  0
 12  6  1  0  0  0  0
 14 21  1  0  0  0  0
 15 16  1  0  0  0  0
 17 20  2  0  0  0  0
 17 21  1  0  0  0  0
 18 15  1  0  0  0  0
 19 15  2  0  0  0  0
 20 19  1  0  0  0  0
 21 18  2  0  0  0  0
 22 25  2  0  0  0  0
 22 26  1  0  0  0  0
 23  2  1  0  0  0  0
 24 23  2  0  0  0  0
 25 24  1  0  0  0  0
 26 27  2  0  0  0  0
 27 23  1  0  0  0  0
M  END
>  <MODEL>
3

>  <REMARK>
 VINA RESULT:      -9.7      2.832      5.662
  Name = 
  3 active torsions:
  status: ('A' for Active; 'I' for Inactive)
    1  A    between atoms: C_1  and  C_18
    2  A    between atoms: C_9  and  C_15
    3  A    between atoms: C_15  and  C_19
                            x       y       z     vdW  Elec       q    Type
                         _______ _______ _______ _____ _____    ______ ____

>  <TORSDO>
F 3

$$$$
=
 OpenBabel11052413483D

 27 30  0  0  0  0  0  0  0  0999 V2000
  190.8160  176.9040  141.6790 C   0  0  0  0  0  3  0  0  0  0  0  0
  189.6690  177.3770  141.1520 C   0  0  0  0  0  0  0  0  0  0  0  0
  188.5750  177.5870  143.4020 C   0  0  0  0  0  3  0  0  0  0  0  0
  185.1280  178.5920  144.4170 N   0  0  0  0  0  2  0  0  0  0  0  0
  184.1800  178.6270  146.5450 O   0  0  0  0  0  0  0  0  0  0  0  0
  187.2860  178.0970  141.4180 C   0  0  0  0  0  3  0  0  0  0  0  0
  187.6020  177.8620  145.6970 C   0  0  0  0  0  2  0  0  0  0  0  0
  186.2850  177.5020  146.3890 C   0  0  0  0  0  2  0  0  0  0  0  0
  187.4680  177.8770  144.2010 C   0  0  0  0  0  0  0  0  0  0  0  0
  185.1460  178.2900  145.8150 C   0  0  0  0  0  0  0  0  0  0  0  0
  186.2650  178.2940  143.6030 C   0  0  0  0  0  0  0  0  0  0  0  0
  188.4930  177.6900  142.0050 C   0  0  0  0  0  0  0  0  0  0  0  0
  186.1780  178.4010  142.2130 C   0  0  0  0  0  3  0  0  0  0  0  0
  191.3930  179.2010  143.4330 N   0  0  0  0  0  1  0  0  0  0  0  0
  191.7400  176.3770  145.8240 C   0  0  0  0  0  0  0  0  0  0  0  0
  192.0550  176.1710  147.2610 C   0  0  0  0  0  1  0  0  0  0  0  0
  191.1270  176.7640  143.1140 C   0  0  0  0  0  0  0  0  0  0  0  0
  191.6800  177.6710  145.3010 C   0  0  0  0  0  3  0  0  0  0  0  0
  191.5220  175.2770  144.9910 C   0  0  0  0  0  3  0  0  0  0  0  0
  191.2230  175.4710  143.6410 C   0  0  0  0  0  3  0  0  0  0  0  0
  191.3820  177.8740  143.9500 C   0  0  0  0  0  0  0  0  0  0  0  0
  189.4180  177.7960  136.8770 C   0  0  0  0  0  3  0  0  0  0  0  0
  189.5750  177.5210  139.6730 C   0  0  0  0  0  0  0  0  0  0  0  0
  189.9400  176.4600  138.8250 C   0  0  0  0  0  3  0  0  0  0  0  0
  189.8600  176.5960  137.4360 C   0  0  0  0  0  3  0  0  0  0  0  0
  189.0550  178.8610  137.7040 C   0  0  0  0  0  3  0  0  0  0  0  0
  189.1340  178.7250  139.0930 C   0  0  0  0  0  3  0  0  0  0  0  0
  1 17  1  0  0  0  0
  2  1  2  0  0  0  0
  2 12  1  0  0  0  0
  3  9  1  0  0  0  0
  4 10  1  0  0  0  0
  6 12  1  0  0  0  0
  6 13  2  0  0  0  0
  7  8  1  0  0  0  0
  9  7  1  0  0  0  0
 10  8  1  0  0  0  0
 10  5  2  0  0  0  0
 11  9  2  0  0  0  0
 11  4  1  0  0  0  0
 12  3  2  0  0  0  0
 13 11  1  0  0  0  0
 14 21  1  0  0  0  0
 15 16  1  0  0  0  0
 17 20  2  0  0  0  0
 17 21  1  0  0  0  0
 18 15  1  0  0  0  0
 19 15  2  0  0  0  0
 20 19  1  0  0  0  0
 21 18  2  0  0  0  0
 22 25  2  0  0  0  0
 22 26  1  0  0  0  0
 23  2  1  0  0  0  0
 24 23  2  0  0  0  0
 25 24  1  0  0  0  0
 26 27  2  0  0  0  0
 27 23  1  0  0  0  0
M  END
>  <MODEL>
4

>  <REMARK>
 VINA RESULT:      -9.3      2.906      5.950
  Name = 
  3 active torsions:
  status: ('A' for Active; 'I' for Inactive)
    1  A    between atoms: C_1  and  C_18
    2  A    between atoms: C_9  and  C_15
    3  A    between atoms: C_15  and  C_19
                            x       y       z     vdW  Elec       q    Type
                         _______ _______ _______ _____ _____    ______ ____

>  <TORSDO>
F 3

$$$$
=
 OpenBabel11052413483D

 27 30  0  0  0  0  0  0  0  0999 V2000
  186.9790  177.5220  145.1010 C   0  0  0  0  0  3  0  0  0  0  0  0
  188.1660  177.5300  144.4620 C   0  0  0  0  0  0  0  0  0  0  0  0
  188.9840  177.0230  142.1430 C   0  0  0  0  0  3  0  0  0  0  0  0
  188.5410  178.8050  138.8950 N   0  0  0  0  0  2  0  0  0  0  0  0
  189.4610  178.3050  136.8130 O   0  0  0  0  0  0  0  0  0  0  0  0
  187.6430  179.0060  142.5070 C   0  0  0  0  0  3  0  0  0  0  0  0
  189.7630  176.3780  139.8480 C   0  0  0  0  0  2  0  0  0  0  0  0
  190.3950  177.0960  138.6530 C   0  0  0  0  0  2  0  0  0  0  0  0
  189.0820  177.3340  140.7860 C   0  0  0  0  0  0  0  0  0  0  0  0
  189.4360  178.0760  138.0500 C   0  0  0  0  0  0  0  0  0  0  0  0
  188.4430  178.4820  140.2840 C   0  0  0  0  0  0  0  0  0  0  0  0
  188.2680  177.8570  143.0160 C   0  0  0  0  0  0  0  0  0  0  0  0
  187.7270  179.3150  141.1470 C   0  0  0  0  0  3  0  0  0  0  0  0
  184.9310  178.9340  146.6810 N   0  0  0  0  0  1  0  0  0  0  0  0
  183.2350  178.6830  143.3840 C   0  0  0  0  0  0  0  0  0  0  0  0
  181.9440  179.0790  142.7660 C   0  0  0  0  0  1  0  0  0  0  0  0
  185.6820  177.9490  144.5420 C   0  0  0  0  0  0  0  0  0  0  0  0
  183.5020  179.0110  144.7150 C   0  0  0  0  0  3  0  0  0  0  0  0
  184.1750  177.9660  142.6390 C   0  0  0  0  0  3  0  0  0  0  0  0
  185.3900  177.5950  143.2200 C   0  0  0  0  0  3  0  0  0  0  0  0
  184.7170  178.6430  145.3030 C   0  0  0  0  0  0  0  0  0  0  0  0
  191.6820  176.3770  146.6590 C   0  0  0  0  0  3  0  0  0  0  0  0
  189.3840  177.1390  145.2240 C   0  0  0  0  0  0  0  0  0  0  0  0
  190.5570  176.7550  144.5500 C   0  0  0  0  0  3  0  0  0  0  0  0
  191.6990  176.3780  145.2630 C   0  0  0  0  0  3  0  0  0  0  0  0
  190.5240  176.7520  147.3430 C   0  0  0  0  0  3  0  0  0  0  0  0
  189.3820  177.1290  146.6310 C   0  0  0  0  0  3  0  0  0  0  0  0
  2  1  2  0  0  0  0
  2 23  1  0  0  0  0
  3 12  1  0  0  0  0
  4 11  1  0  0  0  0
  5 10  2  0  0  0  0
  6 12  2  0  0  0  0
  7  9  1  0  0  0  0
  8  7  1  0  0  0  0
  9  3  2  0  0  0  0
 10  8  1  0  0  0  0
 10  4  1  0  0  0  0
 11  9  1  0  0  0  0
 11 13  2  0  0  0  0
 12  2  1  0  0  0  0
 13  6  1  0  0  0  0
 15 18  1  0  0  0  0
 16 15  1  0  0  0  0
 17  1  1  0  0  0  0
 17 21  1  0  0  0  0
 18 21  2  0  0  0  0
 19 20  1  0  0  0  0
 19 15  2  0  0  0  0
 20 17  2  0  0  0  0
 21 14  1  0  0  0  0
 22 26  1  0  0  0  0
 23 27  1  0  0  0  0
 24 23  2  0  0  0  0
 24 25  1  0  0  0  0
 25 22  2  0  0  0  0
 27 26  2  0  0  0  0
M  END
>  <MODEL>
5

>  <REMARK>
 VINA RESULT:      -9.2      1.392      5.491
  Name = 
  3 active torsions:
  status: ('A' for Active; 'I' for Inactive)
    1  A    between atoms: C_1  and  C_18
    2  A    between atoms: C_9  and  C_15
    3  A    between atoms: C_15  and  C_19
                            x       y       z     vdW  Elec       q    Type
                         _______ _______ _______ _____ _____    ______ ____

>  <TORSDO>
F 3

$$$$
=
 OpenBabel11052413483D

 27 30  0  0  0  0  0  0  0  0999 V2000
  186.3060  178.6210  140.6440 C   0  0  0  0  0  3  0  0  0  0  0  0
  187.5350  178.1130  140.8630 C   0  0  0  0  0  0  0  0  0  0  0  0
  189.2820  178.1590  142.6660 C   0  0  0  0  0  3  0  0  0  0  0  0
  189.3160  176.8050  146.1430 N   0  0  0  0  0  2  0  0  0  0  0  0
  191.0560  176.7960  147.6930 O   0  0  0  0  0  0  0  0  0  0  0  0
  187.1660  177.0690  143.1100 C   0  0  0  0  0  3  0  0  0  0  0  0
  191.0500  178.3440  144.4350 C   0  0  0  0  0  2  0  0  0  0  0  0
  191.6820  177.4080  145.4680 C   0  0  0  0  0  2  0  0  0  0  0  0
  189.7220  177.8370  143.9510 C   0  0  0  0  0  0  0  0  0  0  0  0
  190.6830  177.0100  146.5120 C   0  0  0  0  0  0  0  0  0  0  0  0
  188.8710  177.1380  144.8260 C   0  0  0  0  0  0  0  0  0  0  0  0
  188.0030  177.7750  142.2330 C   0  0  0  0  0  0  0  0  0  0  0  0
  187.5960  176.7550  144.4020 C   0  0  0  0  0  3  0  0  0  0  0  0
  183.5840  177.5510  140.2760 N   0  0  0  0  0  1  0  0  0  0  0  0
  183.2650  179.1750  143.6040 C   0  0  0  0  0  0  0  0  0  0  0  0
  182.2260  179.3770  144.6460 C   0  0  0  0  0  1  0  0  0  0  0  0
  185.2340  178.7810  141.6460 C   0  0  0  0  0  0  0  0  0  0  0  0
  182.9660  178.4420  142.4530 C   0  0  0  0  0  3  0  0  0  0  0  0
  184.5350  179.7330  143.7660 C   0  0  0  0  0  3  0  0  0  0  0  0
  185.5120  179.5420  142.7870 C   0  0  0  0  0  3  0  0  0  0  0  0
  183.9390  178.2460  141.4680 C   0  0  0  0  0  0  0  0  0  0  0  0
  190.1750  177.6400  137.4990 C   0  0  0  0  0  3  0  0  0  0  0  0
  188.4530  177.9540  139.7030 C   0  0  0  0  0  0  0  0  0  0  0  0
  188.2100  178.6360  138.4970 C   0  0  0  0  0  3  0  0  0  0  0  0
  189.0660  178.4810  137.4040 C   0  0  0  0  0  3  0  0  0  0  0  0
  190.4300  176.9520  138.6870 C   0  0  0  0  0  3  0  0  0  0  0  0
  189.5740  177.1060  139.7810 C   0  0  0  0  0  3  0  0  0  0  0  0
  1  2  2  0  0  0  0
  1 17  1  0  0  0  0
  2 12  1  0  0  0  0
  3  9  1  0  0  0  0
  4 10  1  0  0  0  0
  6 13  2  0  0  0  0
  7  8  1  0  0  0  0
  8 10  1  0  0  0  0
  9  7  1  0  0  0  0
  9 11  2  0  0  0  0
 10  5  2  0  0  0  0
 11  4  1  0  0  0  0
 12  3  2  0  0  0  0
 12  6  1  0  0  0  0
 13 11  1  0  0  0  0
 14 21  1  0  0  0  0
 15 19  1  0  0  0  0
 15 16  1  0  0  0  0
 17 20  1  0  0  0  0
 18 15  2  0  0  0  0
 20 19  2  0  0  0  0
 21 17  2  0  0  0  0
 21 18  1  0  0  0  0
 22 26  1  0  0  0  0
 23 27  1  0  0  0  0
 23  2  1  0  0  0  0
 24 23  2  0  0  0  0
 25 22  2  0  0  0  0
 25 24  1  0  0  0  0
 26 27  2  0  0  0  0
M  END
>  <MODEL>
6

>  <REMARK>
 VINA RESULT:      -9.0      2.619      6.748
  Name = 
  3 active torsions:
  status: ('A' for Active; 'I' for Inactive)
    1  A    between atoms: C_1  and  C_18
    2  A    between atoms: C_9  and  C_15
    3  A    between atoms: C_15  and  C_19
                            x       y       z     vdW  Elec       q    Type
                         _______ _______ _______ _____ _____    ______ ____

>  <TORSDO>
F 3

$$$$
=
 OpenBabel11052413483D

 27 30  0  0  0  0  0  0  0  0999 V2000
  191.5810  176.9940  145.2870 C   0  0  0  0  0  3  0  0  0  0  0  0
  190.9860  177.0740  146.4940 C   0  0  0  0  0  0  0  0  0  0  0  0
  188.6920  177.4130  145.5300 C   0  0  0  0  0  3  0  0  0  0  0  0
  185.4940  178.5840  147.0540 N   0  0  0  0  0  2  0  0  0  0  0  0
  183.4420  178.9850  146.0240 O   0  0  0  0  0  0  0  0  0  0  0  0
  189.0630  177.8900  147.8740 C   0  0  0  0  0  3  0  0  0  0  0  0
  186.4160  177.6260  144.5000 C   0  0  0  0  0  2  0  0  0  0  0  0
  185.2800  178.6520  144.5310 C   0  0  0  0  0  2  0  0  0  0  0  0
  187.3540  177.7860  145.6620 C   0  0  0  0  0  0  0  0  0  0  0  0
  184.6670  178.7290  145.8960 C   0  0  0  0  0  0  0  0  0  0  0  0
  186.8640  178.2000  146.9140 C   0  0  0  0  0  0  0  0  0  0  0  0
  189.5590  177.4660  146.6330 C   0  0  0  0  0  0  0  0  0  0  0  0
  187.7210  178.2530  148.0160 C   0  0  0  0  0  3  0  0  0  0  0  0
  191.0930  179.5970  143.9950 N   0  0  0  0  0  1  0  0  0  0  0  0
  189.6220  177.2760  141.4930 C   0  0  0  0  0  0  0  0  0  0  0  0
  188.9420  177.3490  140.1740 C   0  0  0  0  0  1  0  0  0  0  0  0
  190.9200  177.1310  143.9750 C   0  0  0  0  0  0  0  0  0  0  0  0
  190.0670  178.4440  142.1150 C   0  0  0  0  0  3  0  0  0  0  0  0
  189.7980  176.0400  142.1200 C   0  0  0  0  0  3  0  0  0  0  0  0
  190.4390  175.9710  143.3590 C   0  0  0  0  0  3  0  0  0  0  0  0
  190.7090  178.3830  143.3560 C   0  0  0  0  0  0  0  0  0  0  0  0
  193.3840  176.3620  149.9960 C   0  0  0  0  0  3  0  0  0  0  0  0
  191.8100  176.8230  147.7080 C   0  0  0  0  0  0  0  0  0  0  0  0
  191.9540  177.8160  148.6930 C   0  0  0  0  0  3  0  0  0  0  0  0
  192.7340  177.5870  149.8300 C   0  0  0  0  0  3  0  0  0  0  0  0
  193.2540  175.3660  149.0250 C   0  0  0  0  0  3  0  0  0  0  0  0
  192.4740  175.5960  147.8880 C   0  0  0  0  0  3  0  0  0  0  0  0
  1  2  2  0  0  0  0
  2 12  1  0  0  0  0
  2 23  1  0  0  0  0
  3  9  2  0  0  0  0
  3 12  1  0  0  0  0
  6 13  1  0  0  0  0
  7  8  1  0  0  0  0
  7  9  1  0  0  0  0
  8 10  1  0  0  0  0
  9 11  1  0  0  0  0
 10  5  2  0  0  0  0
 10  4  1  0  0  0  0
 11  4  1  0  0  0  0
 11 13  2  0  0  0  0
 12  6  2  0  0  0  0
 15 18  2  0  0  0  0
 15 19  1  0  0  0  0
 16 15  1  0  0  0  0
 17  1  1  0  0  0  0
 18 21  1  0  0  0  0
 19 20  2  0  0  0  0
 20 17  1  0  0  0  0
 21 17  2  0  0  0  0
 21 14  1  0  0  0  0
 23 27  2  0  0  0  0
 23 24  1  0  0  0  0
 24 25  2  0  0  0  0
 25 22  1  0  0  0  0
 26 22  2  0  0  0  0
 27 26  1  0  0  0  0
M  END
>  <MODEL>
7

>  <REMARK>
 VINA RESULT:      -8.9      2.863      7.343
  Name = 
  3 active torsions:
  status: ('A' for Active; 'I' for Inactive)
    1  A    between atoms: C_1  and  C_18
    2  A    between atoms: C_9  and  C_15
    3  A    between atoms: C_15  and  C_19
                            x       y       z     vdW  Elec       q    Type
                         _______ _______ _______ _____ _____    ______ ____

>  <TORSDO>
F 3

$$$$
=
 OpenBabel11052413483D

 27 30  0  0  0  0  0  0  0  0999 V2000
  188.0830  177.5930  144.9900 C   0  0  0  0  0  3  0  0  0  0  0  0
  187.9990  177.8170  143.6640 C   0  0  0  0  0  0  0  0  0  0  0  0
  189.1000  177.1690  141.5020 C   0  0  0  0  0  3  0  0  0  0  0  0
  192.6130  177.5090  140.2910 N   0  0  0  0  0  2  0  0  0  0  0  0
  193.5540  176.7490  138.3000 O   0  0  0  0  0  0  0  0  0  0  0  0
  190.4310  178.2230  143.2280 C   0  0  0  0  0  3  0  0  0  0  0  0
  190.0850  176.5760  139.2740 C   0  0  0  0  0  2  0  0  0  0  0  0
  191.3680  175.9050  138.7760 C   0  0  0  0  0  2  0  0  0  0  0  0
  190.2240  177.0870  140.6790 C   0  0  0  0  0  0  0  0  0  0  0  0
  192.5670  176.7530  139.0780 C   0  0  0  0  0  0  0  0  0  0  0  0
  191.4580  177.5910  141.1300 C   0  0  0  0  0  0  0  0  0  0  0  0
  189.1930  177.7330  142.7840 C   0  0  0  0  0  0  0  0  0  0  0  0
  191.5570  178.1560  142.4030 C   0  0  0  0  0  3  0  0  0  0  0  0
  188.6090  178.2540  147.8140 N   0  0  0  0  0  1  0  0  0  0  0  0
  191.5830  176.1780  147.0050 C   0  0  0  0  0  0  0  0  0  0  0  0
  192.8040  175.6730  147.6850 C   0  0  0  0  0  1  0  0  0  0  0  0
  189.2720  177.1150  145.7230 C   0  0  0  0  0  0  0  0  0  0  0  0
  190.6550  176.9430  147.7150 C   0  0  0  0  0  3  0  0  0  0  0  0
  191.3740  175.9030  145.6520 C   0  0  0  0  0  3  0  0  0  0  0  0
  190.2250  176.3760  145.0130 C   0  0  0  0  0  3  0  0  0  0  0  0
  189.5030  177.4210  147.0820 C   0  0  0  0  0  0  0  0  0  0  0  0
  184.2020  179.0030  142.0220 C   0  0  0  0  0  3  0  0  0  0  0  0
  186.6830  178.2200  143.0960 C   0  0  0  0  0  0  0  0  0  0  0  0
  186.5760  178.6230  141.7530 C   0  0  0  0  0  3  0  0  0  0  0  0
  185.3440  179.0100  141.2190 C   0  0  0  0  0  3  0  0  0  0  0  0
  184.2910  178.6090  143.3590 C   0  0  0  0  0  3  0  0  0  0  0  0
  185.5240  178.2220  143.8930 C   0  0  0  0  0  3  0  0  0  0  0  0
  1 17  1  0  0  0  0
  2  1  2  0  0  0  0
  3 12  1  0  0  0  0
  4 11  1  0  0  0  0
  5 10  2  0  0  0  0
  7  9  1  0  0  0  0
  8 10  1  0  0  0  0
  8  7  1  0  0  0  0
  9 11  1  0  0  0  0
  9  3  2  0  0  0  0
 10  4  1  0  0  0  0
 11 13  2  0  0  0  0
 12  6  2  0  0  0  0
 12  2  1  0  0  0  0
 13  6  1  0  0  0  0
 15 16  1  0  0  0  0
 15 18  1  0  0  0  0
 17 21  1  0  0  0  0
 19 15  2  0  0  0  0
 20 19  1  0  0  0  0
 20 17  2  0  0  0  0
 21 18  2  0  0  0  0
 21 14  1  0  0  0  0
 22 26  1  0  0  0  0
 23  2  1  0  0  0  0
 23 27  1  0  0  0  0
 24 23  2  0  0  0  0
 25 24  1  0  0  0  0
 25 22  2  0  0  0  0
 26 27  2  0  0  0  0
M  END
>  <MODEL>
8

>  <REMARK>
 VINA RESULT:      -8.8      1.498      2.058
  Name = 
  3 active torsions:
  status: ('A' for Active; 'I' for Inactive)
    1  A    between atoms: C_1  and  C_18
    2  A    between atoms: C_9  and  C_15
    3  A    between atoms: C_15  and  C_19
                            x       y       z     vdW  Elec       q    Type
                         _______ _______ _______ _____ _____    ______ ____

>  <TORSDO>
F 3

$$$$
=
 OpenBabel11052413483D

 27 30  0  0  0  0  0  0  0  0999 V2000
  189.0770  177.8160  143.7530 C   0  0  0  0  0  3  0  0  0  0  0  0
  187.9250  177.9090  144.4460 C   0  0  0  0  0  0  0  0  0  0  0  0
  185.4950  178.5420  144.4670 C   0  0  0  0  0  3  0  0  0  0  0  0
  182.9040  178.5820  141.7830 N   0  0  0  0  0  2  0  0  0  0  0  0
  180.6310  179.0710  141.9490 O   0  0  0  0  0  0  0  0  0  0  0  0
  186.4960  177.7960  142.3930 C   0  0  0  0  0  3  0  0  0  0  0  0
  183.1040  179.2910  144.5670 C   0  0  0  0  0  2  0  0  0  0  0  0
  181.7630  178.7790  144.0360 C   0  0  0  0  0  2  0  0  0  0  0  0
  184.2680  178.7020  143.8220 C   0  0  0  0  0  0  0  0  0  0  0  0
  181.7190  178.8470  142.5390 C   0  0  0  0  0  0  0  0  0  0  0  0
  184.1590  178.4200  142.4480 C   0  0  0  0  0  0  0  0  0  0  0  0
  186.6180  178.0840  143.7600 C   0  0  0  0  0  0  0  0  0  0  0  0
  185.2730  177.9670  141.7380 C   0  0  0  0  0  3  0  0  0  0  0  0
  190.3870  175.5610  142.3810 N   0  0  0  0  0  1  0  0  0  0  0  0
  189.4420  177.6980  139.4910 C   0  0  0  0  0  0  0  0  0  0  0  0
  189.5550  177.6770  138.0100 C   0  0  0  0  0  1  0  0  0  0  0  0
  189.2120  177.7340  142.2860 C   0  0  0  0  0  0  0  0  0  0  0  0
  189.9270  176.6260  140.2430 C   0  0  0  0  0  3  0  0  0  0  0  0
  188.8680  178.7980  140.1320 C   0  0  0  0  0  3  0  0  0  0  0  0
  188.7600  178.8170  141.5250 C   0  0  0  0  0  3  0  0  0  0  0  0
  189.8230  176.6380  141.6380 C   0  0  0  0  0  0  0  0  0  0  0  0
  188.1070  177.8530  148.7440 C   0  0  0  0  0  3  0  0  0  0  0  0
  187.9890  177.8970  145.9330 C   0  0  0  0  0  0  0  0  0  0  0  0
  189.1640  177.5040  146.5970 C   0  0  0  0  0  3  0  0  0  0  0  0
  189.2240  177.4840  147.9930 C   0  0  0  0  0  3  0  0  0  0  0  0
  186.9300  178.2420  148.1010 C   0  0  0  0  0  3  0  0  0  0  0  0
  186.8710  178.2620  146.7050 C   0  0  0  0  0  3  0  0  0  0  0  0
  1  2  2  0  0  0  0
  2 23  1  0  0  0  0
  4 11  1  0  0  0  0
  4 10  1  0  0  0  0
  5 10  2  0  0  0  0
  6 12  1  0  0  0  0
  8  7  1  0  0  0  0
  9  3  1  0  0  0  0
  9  7  1  0  0  0  0
 10  8  1  0  0  0  0
 11  9  2  0  0  0  0
 12  2  1  0  0  0  0
 12  3  2  0  0  0  0
 13  6  2  0  0  0  0
 13 11  1  0  0  0  0
 15 19  2  0  0  0  0
 15 18  1  0  0  0  0
 16 15  1  0  0  0  0
 17  1  1  0  0  0  0
 18 21  2  0  0  0  0
 19 20  1  0  0  0  0
 20 17  2  0  0  0  0
 21 17  1  0  0  0  0
 21 14  1  0  0  0  0
 23 24  2  0  0  0  0
 23 27  1  0  0  0  0
 24 25  1  0  0  0  0
 25 22  2  0  0  0  0
 26 22  1  0  0  0  0
 27 26  2  0  0  0  0
M  END
>  <MODEL>
9

>  <REMARK>
 VINA RESULT:      -8.7      2.957      6.442
  Name = 
  3 active torsions:
  status: ('A' for Active; 'I' for Inactive)
    1  A    between atoms: C_1  and  C_18
    2  A    between atoms: C_9  and  C_15
    3  A    between atoms: C_15  and  C_19
                            x       y       z     vdW  Elec       q    Type
                         _______ _______ _______ _____ _____    ______ ____

>  <TORSDO>
F 3

$$$$
