=
 OpenBabel11052413413D

 27 31  0  0  1  0  0  0  0  0999 V2000
  187.5020  176.6300  143.0670 C   0  0  0  0  0  2  0  0  0  0  0  0
  189.9160  176.3740  143.6520 C   0  0  0  0  0  0  0  0  0  0  0  0
  189.1550  178.0180  145.3040 N   0  0  0  0  0  2  0  0  0  0  0  0
  192.6740  174.9960  146.3630 O   0  0  0  0  0  0  0  0  0  0  0  0
  192.6910  175.2940  148.6630 O   0  0  0  0  0  0  0  0  0  0  0  0
  190.8840  175.5860  143.2590 N   0  0  0  0  0  0  0  0  0  0  0  0
  191.1790  176.6350  147.2990 C   0  0  1  0  0  3  0  0  0  0  0  0
  186.3050  178.3050  147.6810 C   0  0  0  0  0  3  0  0  0  0  0  0
  191.5750  177.9050  147.8830 N   0  0  0  0  0  1  0  0  0  0  0  0
  185.2150  178.2740  146.8090 C   0  0  0  0  0  3  0  0  0  0  0  0
  191.1700  176.7580  145.7720 C   0  0  1  0  0  3  0  0  0  0  0  0
  188.9110  176.7790  142.7040 N   0  0  0  0  0  0  0  0  0  0  0  0
  192.2480  175.6090  147.5270 C   0  0  0  0  0  0  0  0  0  0  0  0
  191.9530  175.5740  145.3420 C   0  0  0  0  0  0  0  0  0  0  0  0
  186.9090  177.9810  143.4400 C   0  0  0  0  0  2  0  0  0  0  0  0
  189.7830  176.7180  145.1330 C   0  0  2  0  0  3  0  0  0  0  0  0
  187.6060  178.2260  147.1760 C   0  0  0  0  0  3  0  0  0  0  0  0
  191.8490  175.0750  144.1520 N   0  0  0  0  0  0  0  0  0  0  0  0
  185.4240  178.1640  145.4320 C   0  0  0  0  0  3  0  0  0  0  0  0
  186.7230  178.0840  144.9190 C   0  0  0  0  0  0  0  0  0  0  0  0
  187.8210  178.1140  145.7980 C   0  0  0  0  0  0  0  0  0  0  0  0
  189.9540  178.0900  138.7890 C   0  0  0  0  0  3  0  0  0  0  0  0
  189.2690  177.2340  141.3810 C   0  0  0  0  0  0  0  0  0  0  0  0
  188.3900  178.0400  140.6360 C   0  0  0  0  0  3  0  0  0  0  0  0
  188.7310  178.4670  139.3490 C   0  0  0  0  0  3  0  0  0  0  0  0
  190.8340  177.2840  139.5150 C   0  0  0  0  0  3  0  0  0  0  0  0
  190.4930  176.8580  140.8010 C   0  0  0  0  0  3  0  0  0  0  0  0
  1 15  1  0  0  0  0
  3 21  1  0  0  0  0
  4 13  1  0  0  0  0
  6  2  2  0  0  0  0
  6 18  1  0  0  0  0
  7 13  1  0  0  0  0
  7  9  1  1  0  0  0
 10  8  2  0  0  0  0
 11 14  1  6  0  0  0
 11  7  1  0  0  0  0
 12  1  1  0  0  0  0
 12  2  1  0  0  0  0
 13  5  2  0  0  0  0
 14  4  1  0  0  0  0
 15 20  1  0  0  0  0
 16  2  1  6  0  0  0
 16  3  1  0  0  0  0
 16 11  1  0  0  0  0
 17  8  1  0  0  0  0
 18 14  2  0  0  0  0
 19 10  1  0  0  0  0
 20 19  2  0  0  0  0
 20 21  1  0  0  0  0
 21 17  2  0  0  0  0
 22 25  2  0  0  0  0
 22 26  1  0  0  0  0
 23 12  1  0  0  0  0
 24 23  2  0  0  0  0
 25 24  1  0  0  0  0
 26 27  2  0  0  0  0
 27 23  1  0  0  0  0
M  END
>  <MODEL>
1

>  <REMARK>
 VINA RESULT:      -9.5      0.000      0.000
  Name = 
  1 active torsions:
  status: ('A' for Active; 'I' for Inactive)
    1  A    between atoms: C_9  and  N_15
                            x       y       z     vdW  Elec       q    Type
                         _______ _______ _______ _____ _____    ______ ____

>  <TORSDO>
F 1

$$$$
=
 OpenBabel11052413413D

 27 31  0  0  1  0  0  0  0  0999 V2000
  189.1060  178.6160  139.2280 C   0  0  0  0  0  2  0  0  0  0  0  0
  186.8480  178.5270  140.2890 C   0  0  0  0  0  0  0  0  0  0  0  0
  188.1670  177.0750  141.7580 N   0  0  0  0  0  2  0  0  0  0  0  0
  184.5070  179.5690  143.4960 O   0  0  0  0  0  0  0  0  0  0  0  0
  184.9940  179.3530  145.7530 O   0  0  0  0  0  0  0  0  0  0  0  0
  185.7100  179.1470  140.0960 N   0  0  0  0  0  0  0  0  0  0  0  0
  186.3930  178.2070  144.1170 C   0  0  1  0  0  3  0  0  0  0  0  0
  191.4430  177.3020  143.5100 C   0  0  0  0  0  3  0  0  0  0  0  0
  186.3220  176.9140  144.7740 N   0  0  0  0  0  1  0  0  0  0  0  0
  192.3190  177.4660  142.4350 C   0  0  0  0  0  3  0  0  0  0  0  0
  186.1160  178.0340  142.6200 C   0  0  1  0  0  3  0  0  0  0  0  0
  187.6930  178.2440  139.1580 N   0  0  0  0  0  0  0  0  0  0  0  0
  185.2460  179.0680  144.5530 C   0  0  0  0  0  0  0  0  0  0  0  0
  185.0900  179.0710  142.3530 C   0  0  0  0  0  0  0  0  0  0  0  0
  189.9620  177.3830  139.4780 C   0  0  0  0  0  2  0  0  0  0  0  0
  187.3240  178.2590  141.7130 C   0  0  2  0  0  3  0  0  0  0  0  0
  190.0710  177.1670  143.2790 C   0  0  0  0  0  3  0  0  0  0  0  0
  184.8760  179.5380  141.1650 N   0  0  0  0  0  0  0  0  0  0  0  0
  191.8250  177.4950  141.1290 C   0  0  0  0  0  3  0  0  0  0  0  0
  190.4530  177.3610  140.8900 C   0  0  0  0  0  0  0  0  0  0  0  0
  189.5710  177.1980  141.9730 C   0  0  0  0  0  0  0  0  0  0  0  0
  186.1330  176.6140  135.5470 C   0  0  0  0  0  3  0  0  0  0  0  0
  187.1530  177.6950  137.9360 C   0  0  0  0  0  0  0  0  0  0  0  0
  186.6040  176.4010  137.9120 C   0  0  0  0  0  3  0  0  0  0  0  0
  186.0950  175.8640  136.7250 C   0  0  0  0  0  3  0  0  0  0  0  0
  186.6800  177.8980  135.5550 C   0  0  0  0  0  3  0  0  0  0  0  0
  187.1880  178.4350  136.7420 C   0  0  0  0  0  3  0  0  0  0  0  0
  1 15  1  0  0  0  0
  3 21  1  0  0  0  0
  4 13  1  0  0  0  0
  6  2  2  0  0  0  0
  6 18  1  0  0  0  0
  7 13  1  0  0  0  0
  7  9  1  1  0  0  0
 10  8  2  0  0  0  0
 11 14  1  6  0  0  0
 11  7  1  0  0  0  0
 12  1  1  0  0  0  0
 12  2  1  0  0  0  0
 13  5  2  0  0  0  0
 14  4  1  0  0  0  0
 15 20  1  0  0  0  0
 16  2  1  6  0  0  0
 16  3  1  0  0  0  0
 16 11  1  0  0  0  0
 17  8  1  0  0  0  0
 18 14  2  0  0  0  0
 19 10  1  0  0  0  0
 20 19  2  0  0  0  0
 20 21  1  0  0  0  0
 21 17  2  0  0  0  0
 22 26  2  0  0  0  0
 22 25  1  0  0  0  0
 23 12  1  0  0  0  0
 24 23  1  0  0  0  0
 25 24  2  0  0  0  0
 26 27  1  0  0  0  0
 27 23  2  0  0  0  0
M  END
>  <MODEL>
2

>  <REMARK>
 VINA RESULT:      -8.6      3.694      6.284
  Name = 
  1 active torsions:
  status: ('A' for Active; 'I' for Inactive)
    1  A    between atoms: C_9  and  N_15
                            x       y       z     vdW  Elec       q    Type
                         _______ _______ _______ _____ _____    ______ ____

>  <TORSDO>
F 1

$$$$
=
 OpenBabel11052413413D

 27 31  0  0  1  0  0  0  0  0999 V2000
  188.8260  178.7090  139.7600 C   0  0  0  0  0  2  0  0  0  0  0  0
  190.9250  177.3570  139.7870 C   0  0  0  0  0  0  0  0  0  0  0  0
  189.5390  176.1290  138.1810 N   0  0  0  0  0  2  0  0  0  0  0  0
  194.2760  176.1590  137.7400 O   0  0  0  0  0  0  0  0  0  0  0  0
  194.4160  175.3640  135.5660 O   0  0  0  0  0  0  0  0  0  0  0  0
  192.1080  177.4970  140.3290 N   0  0  0  0  0  0  0  0  0  0  0  0
  192.2300  175.5370  136.6330 C   0  0  1  0  0  3  0  0  0  0  0  0
  187.4870  176.9970  135.2000 C   0  0  0  0  0  3  0  0  0  0  0  0
  191.8240  174.1810  136.3090 N   0  0  0  0  0  1  0  0  0  0  0  0
  186.5480  177.8680  135.7560 C   0  0  0  0  0  3  0  0  0  0  0  0
  191.9390  175.8160  138.1120 C   0  0  1  0  0  3  0  0  0  0  0  0
  189.7690  177.8590  140.4850 N   0  0  0  0  0  0  0  0  0  0  0  0
  193.7240  175.6520  136.5780 C   0  0  0  0  0  0  0  0  0  0  0  0
  193.2220  176.3800  138.5980 C   0  0  0  0  0  0  0  0  0  0  0  0
  187.5780  177.9190  139.3950 C   0  0  0  0  0  2  0  0  0  0  0  0
  190.8090  176.8110  138.3670 C   0  0  2  0  0  3  0  0  0  0  0  0
  188.4700  176.4200  136.0080 C   0  0  0  0  0  3  0  0  0  0  0  0
  193.2910  177.1140  139.6620 N   0  0  0  0  0  0  0  0  0  0  0  0
  186.5900  178.1640  137.1210 C   0  0  0  0  0  3  0  0  0  0  0  0
  187.5720  177.5900  137.9370 C   0  0  0  0  0  0  0  0  0  0  0  0
  188.5180  176.7150  137.3750 C   0  0  0  0  0  0  0  0  0  0  0  0
  189.1920  177.1690  144.6470 C   0  0  0  0  0  3  0  0  0  0  0  0
  189.5820  177.6160  141.8970 C   0  0  0  0  0  0  0  0  0  0  0  0
  188.7530  176.5730  142.3420 C   0  0  0  0  0  3  0  0  0  0  0  0
  188.5610  176.3490  143.7090 C   0  0  0  0  0  3  0  0  0  0  0  0
  190.0140  178.2130  144.2190 C   0  0  0  0  0  3  0  0  0  0  0  0
  190.2060  178.4360  142.8520 C   0  0  0  0  0  3  0  0  0  0  0  0
  1 12  1  0  0  0  0
  2  6  2  0  0  0  0
  2 12  1  0  0  0  0
  4 14  1  0  0  0  0
  5 13  2  0  0  0  0
  7  9  1  1  0  0  0
  7 11  1  0  0  0  0
  8 10  2  0  0  0  0
  8 17  1  0  0  0  0
 10 19  1  0  0  0  0
 11 16  1  0  0  0  0
 11 14  1  6  0  0  0
 12 23  1  0  0  0  0
 13  7  1  0  0  0  0
 13  4  1  0  0  0  0
 14 18  2  0  0  0  0
 15  1  1  0  0  0  0
 16  3  1  1  0  0  0
 16  2  1  0  0  0  0
 17 21  2  0  0  0  0
 18  6  1  0  0  0  0
 19 20  2  0  0  0  0
 20 15  1  0  0  0  0
 21 20  1  0  0  0  0
 21  3  1  0  0  0  0
 23 24  2  0  0  0  0
 23 27  1  0  0  0  0
 24 25  1  0  0  0  0
 25 22  2  0  0  0  0
 26 22  1  0  0  0  0
 27 26  2  0  0  0  0
M  END
>  <MODEL>
3

>  <REMARK>
 VINA RESULT:      -8.5      4.144      7.809
  Name = 
  1 active torsions:
  status: ('A' for Active; 'I' for Inactive)
    1  A    between atoms: C_9  and  N_15
                            x       y       z     vdW  Elec       q    Type
                         _______ _______ _______ _____ _____    ______ ____

>  <TORSDO>
F 1

$$$$
=
 OpenBabel11052413413D

 27 31  0  0  1  0  0  0  0  0999 V2000
  189.2560  178.3890  144.8300 C   0  0  0  0  0  2  0  0  0  0  0  0
  190.2800  177.5860  142.6990 C   0  0  0  0  0  0  0  0  0  0  0  0
  187.9120  177.0480  142.3700 N   0  0  0  0  0  2  0  0  0  0  0  0
  190.6730  178.1280  138.6490 O   0  0  0  0  0  0  0  0  0  0  0  0
  189.0010  178.5060  137.0870 O   0  0  0  0  0  0  0  0  0  0  0  0
  191.4710  177.6590  142.1610 N   0  0  0  0  0  0  0  0  0  0  0  0
  188.3930  177.7560  139.3270 C   0  0  1  0  0  3  0  0  0  0  0  0
  184.6780  178.8530  142.7450 C   0  0  0  0  0  3  0  0  0  0  0  0
  187.5420  176.6720  138.8710 N   0  0  0  0  0  1  0  0  0  0  0  0
  184.6960  179.1700  144.1050 C   0  0  0  0  0  3  0  0  0  0  0  0
  189.3350  177.2390  140.4190 C   0  0  1  0  0  3  0  0  0  0  0  0
  190.1620  177.4790  144.1310 N   0  0  0  0  0  0  0  0  0  0  0  0
  189.3510  178.1480  138.2430 C   0  0  0  0  0  0  0  0  0  0  0  0
  190.6620  177.7210  139.9640 C   0  0  0  0  0  0  0  0  0  0  0  0
  187.9790  177.6610  145.2230 C   0  0  0  0  0  2  0  0  0  0  0  0
  189.0470  177.7730  141.8210 C   0  0  2  0  0  3  0  0  0  0  0  0
  185.7420  178.1460  142.1780 C   0  0  0  0  0  3  0  0  0  0  0  0
  191.6600  177.8570  140.7770 N   0  0  0  0  0  0  0  0  0  0  0  0
  185.7770  178.7810  144.9000 C   0  0  0  0  0  3  0  0  0  0  0  0
  186.8460  178.0730  144.3390 C   0  0  0  0  0  0  0  0  0  0  0  0
  186.8280  177.7560  142.9690 C   0  0  0  0  0  0  0  0  0  0  0  0
  192.5650  174.7640  146.3640 C   0  0  0  0  0  3  0  0  0  0  0  0
  190.9870  176.5640  144.8850 C   0  0  0  0  0  0  0  0  0  0  0  0
  191.5310  175.4200  144.2760 C   0  0  0  0  0  3  0  0  0  0  0  0
  192.3170  174.5260  145.0110 C   0  0  0  0  0  3  0  0  0  0  0  0
  192.0260  175.8940  146.9840 C   0  0  0  0  0  3  0  0  0  0  0  0
  191.2410  176.7860  146.2490 C   0  0  0  0  0  3  0  0  0  0  0  0
  1 15  1  0  0  0  0
  2 12  1  0  0  0  0
  3 21  1  0  0  0  0
  4 14  1  0  0  0  0
  5 13  2  0  0  0  0
  6  2  2  0  0  0  0
  7  9  1  6  0  0  0
  7 11  1  0  0  0  0
  8 10  1  0  0  0  0
 10 19  2  0  0  0  0
 11 14  1  6  0  0  0
 11 16  1  0  0  0  0
 12  1  1  0  0  0  0
 12 23  1  0  0  0  0
 13  4  1  0  0  0  0
 13  7  1  0  0  0  0
 14 18  2  0  0  0  0
 16  3  1  1  0  0  0
 16  2  1  0  0  0  0
 17  8  2  0  0  0  0
 17 21  1  0  0  0  0
 18  6  1  0  0  0  0
 20 19  1  0  0  0  0
 20 15  1  0  0  0  0
 21 20  2  0  0  0  0
 22 26  1  0  0  0  0
 23 27  1  0  0  0  0
 24 23  2  0  0  0  0
 24 25  1  0  0  0  0
 25 22  2  0  0  0  0
 27 26  2  0  0  0  0
M  END
>  <MODEL>
4

>  <REMARK>
 VINA RESULT:      -8.4      3.060      6.042
  Name = 
  1 active torsions:
  status: ('A' for Active; 'I' for Inactive)
    1  A    between atoms: C_9  and  N_15
                            x       y       z     vdW  Elec       q    Type
                         _______ _______ _______ _____ _____    ______ ____

>  <TORSDO>
F 1

$$$$
=
 OpenBabel11052413413D

 27 31  0  0  1  0  0  0  0  0999 V2000
  185.9560  179.3730  142.2450 C   0  0  0  0  0  2  0  0  0  0  0  0
  185.6140  178.9450  144.6810 C   0  0  0  0  0  0  0  0  0  0  0  0
  187.1750  177.1610  144.0570 N   0  0  0  0  0  2  0  0  0  0  0  0
  187.2450  178.9910  148.4480 O   0  0  0  0  0  0  0  0  0  0  0  0
  189.2990  178.1540  149.1280 O   0  0  0  0  0  0  0  0  0  0  0  0
  185.0010  179.5720  145.6530 N   0  0  0  0  0  0  0  0  0  0  0  0
  188.4320  177.5450  146.9310 C   0  0  1  0  0  3  0  0  0  0  0  0
  190.3870  176.9460  142.1870 C   0  0  0  0  0  3  0  0  0  0  0  0
  188.6330  176.1180  147.1080 N   0  0  0  0  0  1  0  0  0  0  0  0
  190.0070  177.4240  140.9310 C   0  0  0  0  0  3  0  0  0  0  0  0
  187.0210  177.7980  146.3880 C   0  0  1  0  0  3  0  0  0  0  0  0
  185.0690  179.0100  143.3490 N   0  0  0  0  0  0  0  0  0  0  0  0
  188.3830  178.2260  148.2660 C   0  0  0  0  0  0  0  0  0  0  0  0
  186.5020  178.8480  147.2970 C   0  0  0  0  0  0  0  0  0  0  0  0
  186.3270  178.1370  141.4390 C   0  0  0  0  0  2  0  0  0  0  0  0
  186.9680  178.2940  144.9440 C   0  0  2  0  0  3  0  0  0  0  0  0
  189.4440  176.8560  143.2150 C   0  0  0  0  0  3  0  0  0  0  0  0
  185.5250  179.6280  146.9610 N   0  0  0  0  0  0  0  0  0  0  0  0
  188.6850  177.8120  140.7010 C   0  0  0  0  0  3  0  0  0  0  0  0
  187.7350  177.7250  141.7250 C   0  0  0  0  0  0  0  0  0  0  0  0
  188.1190  177.2450  142.9910 C   0  0  0  0  0  0  0  0  0  0  0  0
  180.9150  178.4110  142.6330 C   0  0  0  0  0  3  0  0  0  0  0  0
  183.6580  178.8190  143.1060 C   0  0  0  0  0  0  0  0  0  0  0  0
  182.7420  178.8020  144.1720 C   0  0  0  0  0  3  0  0  0  0  0  0
  181.3780  178.6020  143.9370 C   0  0  0  0  0  3  0  0  0  0  0  0
  181.8140  178.4200  141.5650 C   0  0  0  0  0  3  0  0  0  0  0  0
  183.1770  178.6200  141.8010 C   0  0  0  0  0  3  0  0  0  0  0  0
  1 12  1  0  0  0  0
  2 16  1  0  0  0  0
  2  6  2  0  0  0  0
  6 18  1  0  0  0  0
  7  9  1  1  0  0  0
  7 13  1  0  0  0  0
  8 17  1  0  0  0  0
 10  8  2  0  0  0  0
 11  7  1  0  0  0  0
 11 14  1  1  0  0  0
 12  2  1  0  0  0  0
 13  4  1  0  0  0  0
 13  5  2  0  0  0  0
 14  4  1  0  0  0  0
 15 20  1  0  0  0  0
 15  1  1  0  0  0  0
 16  3  1  6  0  0  0
 16 11  1  0  0  0  0
 18 14  2  0  0  0  0
 19 10  1  0  0  0  0
 19 20  2  0  0  0  0
 20 21  1  0  0  0  0
 21 17  2  0  0  0  0
 21  3  1  0  0  0  0
 22 25  1  0  0  0  0
 23 12  1  0  0  0  0
 23 24  1  0  0  0  0
 25 24  2  0  0  0  0
 26 27  1  0  0  0  0
 26 22  2  0  0  0  0
 27 23  2  0  0  0  0
M  END
>  <MODEL>
5

>  <REMARK>
 VINA RESULT:      -8.3      3.129      5.956
  Name = 
  1 active torsions:
  status: ('A' for Active; 'I' for Inactive)
    1  A    between atoms: C_9  and  N_15
                            x       y       z     vdW  Elec       q    Type
                         _______ _______ _______ _____ _____    ______ ____

>  <TORSDO>
F 1

$$$$
=
 OpenBabel11052413413D

 27 31  0  0  1  0  0  0  0  0999 V2000
  182.9700  178.0210  140.9620 C   0  0  0  0  0  2  0  0  0  0  0  0
  184.0790  178.2190  138.7340 C   0  0  0  0  0  0  0  0  0  0  0  0
  185.8180  179.0440  140.2520 N   0  0  0  0  0  2  0  0  0  0  0  0
  187.0050  176.8340  136.2090 O   0  0  0  0  0  0  0  0  0  0  0  0
  189.2360  176.4230  136.6940 O   0  0  0  0  0  0  0  0  0  0  0  0
  183.7740  177.8560  137.5140 N   0  0  0  0  0  0  0  0  0  0  0  0
  187.8840  177.6840  138.2840 C   0  0  1  0  0  3  0  0  0  0  0  0
  187.3810  177.8780  143.4210 C   0  0  0  0  0  3  0  0  0  0  0  0
  188.8310  178.7770  138.4150 N   0  0  0  0  0  1  0  0  0  0  0  0
  186.2760  177.8350  144.2740 C   0  0  0  0  0  3  0  0  0  0  0  0
  186.4780  178.2530  138.0600 C   0  0  1  0  0  3  0  0  0  0  0  0
  183.0270  178.6220  139.6310 N   0  0  0  0  0  0  0  0  0  0  0  0
  188.1310  176.9420  137.0050 C   0  0  0  0  0  0  0  0  0  0  0  0
  185.9990  177.4900  136.8820 C   0  0  0  0  0  0  0  0  0  0  0  0
  183.4850  179.0030  142.0050 C   0  0  0  0  0  2  0  0  0  0  0  0
  185.5140  178.0580  139.2280 C   0  0  2  0  0  3  0  0  0  0  0  0
  187.2240  178.2840  142.0940 C   0  0  0  0  0  3  0  0  0  0  0  0
  184.7390  177.3610  136.6120 N   0  0  0  0  0  0  0  0  0  0  0  0
  185.0130  178.2000  143.8010 C   0  0  0  0  0  3  0  0  0  0  0  0
  184.8480  178.6070  142.4730 C   0  0  0  0  0  0  0  0  0  0  0  0
  185.9610  178.6480  141.6140 C   0  0  0  0  0  0  0  0  0  0  0  0
  179.9520  181.3020  138.4080 C   0  0  0  0  0  3  0  0  0  0  0  0
  181.9850  179.5280  139.2050 C   0  0  0  0  0  0  0  0  0  0  0  0
  182.3010  180.8080  138.7190 C   0  0  0  0  0  3  0  0  0  0  0  0
  181.2910  181.6890  138.3210 C   0  0  0  0  0  3  0  0  0  0  0  0
  179.6230  180.0350  138.8940 C   0  0  0  0  0  3  0  0  0  0  0  0
  180.6330  179.1550  139.2910 C   0  0  0  0  0  3  0  0  0  0  0  0
  1 15  1  0  0  0  0
  2 12  1  0  0  0  0
  3 21  1  0  0  0  0
  4 14  1  0  0  0  0
  4 13  1  0  0  0  0
  5 13  2  0  0  0  0
  6  2  2  0  0  0  0
  7  9  1  6  0  0  0
  8 10  1  0  0  0  0
 11 14  1  6  0  0  0
 11  7  1  0  0  0  0
 11 16  1  0  0  0  0
 12  1  1  0  0  0  0
 13  7  1  0  0  0  0
 15 20  1  0  0  0  0
 16  2  1  6  0  0  0
 16  3  1  0  0  0  0
 17  8  2  0  0  0  0
 18 14  2  0  0  0  0
 18  6  1  0  0  0  0
 19 10  2  0  0  0  0
 20 19  1  0  0  0  0
 21 17  1  0  0  0  0
 21 20  2  0  0  0  0
 22 26  1  0  0  0  0
 23 27  1  0  0  0  0
 23 12  1  0  0  0  0
 24 23  2  0  0  0  0
 25 22  2  0  0  0  0
 25 24  1  0  0  0  0
 26 27  2  0  0  0  0
M  END
>  <MODEL>
6

>  <REMARK>
 VINA RESULT:      -8.3      5.905      8.320
  Name = 
  1 active torsions:
  status: ('A' for Active; 'I' for Inactive)
    1  A    between atoms: C_9  and  N_15
                            x       y       z     vdW  Elec       q    Type
                         _______ _______ _______ _____ _____    ______ ____

>  <TORSDO>
F 1

$$$$
=
 OpenBabel11052413413D

 27 31  0  0  1  0  0  0  0  0999 V2000
  187.6330  176.6720  143.2590 C   0  0  0  0  0  2  0  0  0  0  0  0
  185.5020  177.9560  143.0530 C   0  0  0  0  0  0  0  0  0  0  0  0
  186.8710  178.9370  141.2720 N   0  0  0  0  0  2  0  0  0  0  0  0
  182.1400  178.7140  140.8220 O   0  0  0  0  0  0  0  0  0  0  0  0
  181.9990  179.1360  138.5450 O   0  0  0  0  0  0  0  0  0  0  0  0
  184.3170  177.8780  143.6050 N   0  0  0  0  0  0  0  0  0  0  0  0
  184.1790  179.1970  139.6360 C   0  0  1  0  0  3  0  0  0  0  0  0
  188.9680  177.6400  138.4840 C   0  0  0  0  0  3  0  0  0  0  0  0
  184.5550  180.4900  139.0930 N   0  0  0  0  0  1  0  0  0  0  0  0
  189.9230  176.8960  139.1810 C   0  0  0  0  0  3  0  0  0  0  0  0
  184.4640  179.1730  141.1410 C   0  0  1  0  0  3  0  0  0  0  0  0
  186.6630  177.6060  143.8290 N   0  0  0  0  0  0  0  0  0  0  0  0
  182.6890  179.0360  139.5940 C   0  0  0  0  0  0  0  0  0  0  0  0
  183.1920  178.6660  141.7090 C   0  0  0  0  0  0  0  0  0  0  0  0
  188.8640  177.4220  142.7730 C   0  0  0  0  0  2  0  0  0  0  0  0
  185.6160  178.2630  141.5630 C   0  0  2  0  0  3  0  0  0  0  0  0
  187.9650  178.3170  139.1820 C   0  0  0  0  0  3  0  0  0  0  0  0
  183.1310  178.1160  142.8790 N   0  0  0  0  0  0  0  0  0  0  0  0
  189.8760  176.8290  140.5760 C   0  0  0  0  0  3  0  0  0  0  0  0
  188.8750  177.5050  141.2810 C   0  0  0  0  0  0  0  0  0  0  0  0
  187.9120  178.2510  140.5780 C   0  0  0  0  0  0  0  0  0  0  0  0
  187.1410  178.9870  147.8290 C   0  0  0  0  0  3  0  0  0  0  0  0
  186.8320  178.0830  145.1820 C   0  0  0  0  0  0  0  0  0  0  0  0
  187.9160  177.6500  145.9650 C   0  0  0  0  0  3  0  0  0  0  0  0
  188.0710  178.1010  147.2800 C   0  0  0  0  0  3  0  0  0  0  0  0
  186.0550  179.4200  147.0640 C   0  0  0  0  0  3  0  0  0  0  0  0
  185.9020  178.9700  145.7500 C   0  0  0  0  0  3  0  0  0  0  0  0
  1 12  1  0  0  0  0
  2  6  2  0  0  0  0
  2 12  1  0  0  0  0
  4 14  1  0  0  0  0
  5 13  2  0  0  0  0
  7  9  1  1  0  0  0
  7 11  1  0  0  0  0
  8 10  2  0  0  0  0
  8 17  1  0  0  0  0
 10 19  1  0  0  0  0
 11 16  1  0  0  0  0
 11 14  1  1  0  0  0
 12 23  1  0  0  0  0
 13  7  1  0  0  0  0
 13  4  1  0  0  0  0
 14 18  2  0  0  0  0
 15  1  1  0  0  0  0
 16  3  1  1  0  0  0
 16  2  1  0  0  0  0
 17 21  2  0  0  0  0
 18  6  1  0  0  0  0
 19 20  2  0  0  0  0
 20 15  1  0  0  0  0
 21  3  1  0  0  0  0
 21 20  1  0  0  0  0
 23 27  2  0  0  0  0
 23 24  1  0  0  0  0
 24 25  2  0  0  0  0
 25 22  1  0  0  0  0
 26 22  2  0  0  0  0
 27 26  1  0  0  0  0
M  END
>  <MODEL>
7

>  <REMARK>
 VINA RESULT:      -8.3      4.600      8.308
  Name = 
  1 active torsions:
  status: ('A' for Active; 'I' for Inactive)
    1  A    between atoms: C_9  and  N_15
                            x       y       z     vdW  Elec       q    Type
                         _______ _______ _______ _____ _____    ______ ____

>  <TORSDO>
F 1

$$$$
=
 OpenBabel11052413413D

 27 31  0  0  1  0  0  0  0  0999 V2000
  190.8020  177.9960  142.2560 C   0  0  0  0  0  2  0  0  0  0  0  0
  188.3520  178.1910  141.8130 C   0  0  0  0  0  0  0  0  0  0  0  0
  188.4040  176.7980  143.8300 N   0  0  0  0  0  2  0  0  0  0  0  0
  184.7460  179.7320  143.0270 O   0  0  0  0  0  0  0  0  0  0  0  0
  183.8240  179.7090  145.1560 O   0  0  0  0  0  0  0  0  0  0  0  0
  187.6150  178.8740  140.9740 N   0  0  0  0  0  0  0  0  0  0  0  0
  185.7550  178.2980  144.6780 C   0  0  1  0  0  3  0  0  0  0  0  0
  190.0880  176.9480  147.1460 C   0  0  0  0  0  3  0  0  0  0  0  0
  185.1640  177.0880  145.2210 N   0  0  0  0  0  1  0  0  0  0  0  0
  191.4330  176.9330  146.7720 C   0  0  0  0  0  3  0  0  0  0  0  0
  186.3650  177.9960  143.3050 C   0  0  1  0  0  3  0  0  0  0  0  0
  189.6510  177.7300  141.3940 N   0  0  0  0  0  0  0  0  0  0  0  0
  184.6800  179.2850  144.3350 C   0  0  0  0  0  0  0  0  0  0  0  0
  185.8120  179.0760  142.4540 C   0  0  0  0  0  0  0  0  0  0  0  0
  191.2030  176.7330  143.0030 C   0  0  0  0  0  2  0  0  0  0  0  0
  187.8920  178.0330  143.2590 C   0  0  2  0  0  3  0  0  0  0  0  0
  189.0910  176.8970  146.1680 C   0  0  0  0  0  3  0  0  0  0  0  0
  186.3760  179.4350  141.3450 N   0  0  0  0  0  0  0  0  0  0  0  0
  191.7840  176.8680  145.4220 C   0  0  0  0  0  3  0  0  0  0  0  0
  190.7910  176.8160  144.4370 C   0  0  0  0  0  0  0  0  0  0  0  0
  189.4360  176.8330  144.8140 C   0  0  0  0  0  0  0  0  0  0  0  0
  190.2230  175.9130  137.5860 C   0  0  0  0  0  3  0  0  0  0  0  0
  189.8440  177.1030  140.1070 C   0  0  0  0  0  0  0  0  0  0  0  0
  191.1270  176.7180  139.6820 C   0  0  0  0  0  3  0  0  0  0  0  0
  191.3150  176.1240  138.4300 C   0  0  0  0  0  3  0  0  0  0  0  0
  188.9430  176.2970  137.9930 C   0  0  0  0  0  3  0  0  0  0  0  0
  188.7560  176.8890  139.2440 C   0  0  0  0  0  3  0  0  0  0  0  0
  1 15  1  0  0  0  0
  3 21  1  0  0  0  0
  4 13  1  0  0  0  0
  6 18  1  0  0  0  0
  6  2  2  0  0  0  0
  7  9  1  6  0  0  0
 10  8  1  0  0  0  0
 11 14  1  6  0  0  0
 11  7  1  0  0  0  0
 12  2  1  0  0  0  0
 12  1  1  0  0  0  0
 13  7  1  0  0  0  0
 13  5  2  0  0  0  0
 14  4  1  0  0  0  0
 15 20  1  0  0  0  0
 16  2  1  6  0  0  0
 16 11  1  0  0  0  0
 16  3  1  0  0  0  0
 17  8  2  0  0  0  0
 18 14  2  0  0  0  0
 19 10  2  0  0  0  0
 20 21  2  0  0  0  0
 20 19  1  0  0  0  0
 21 17  1  0  0  0  0
 22 26  2  0  0  0  0
 22 25  1  0  0  0  0
 23 12  1  0  0  0  0
 24 23  1  0  0  0  0
 25 24  2  0  0  0  0
 26 27  1  0  0  0  0
 27 23  2  0  0  0  0
M  END
>  <MODEL>
8

>  <REMARK>
 VINA RESULT:      -8.2      3.373      5.370
  Name = 
  1 active torsions:
  status: ('A' for Active; 'I' for Inactive)
    1  A    between atoms: C_9  and  N_15
                            x       y       z     vdW  Elec       q    Type
                         _______ _______ _______ _____ _____    ______ ____

>  <TORSDO>
F 1

$$$$
=
 OpenBabel11052413413D

 27 31  0  0  1  0  0  0  0  0999 V2000
  189.4620  176.4380  140.9710 C   0  0  0  0  0  2  0  0  0  0  0  0
  187.5400  177.6620  141.9910 C   0  0  0  0  0  0  0  0  0  0  0  0
  187.7040  178.7080  139.7810 N   0  0  0  0  0  2  0  0  0  0  0  0
  183.4940  178.3530  141.9660 O   0  0  0  0  0  0  0  0  0  0  0  0
  182.1300  178.8030  140.1440 O   0  0  0  0  0  0  0  0  0  0  0  0
  186.8480  177.5400  143.0960 N   0  0  0  0  0  0  0  0  0  0  0  0
  184.5520  178.9130  139.8770 C   0  0  1  0  0  3  0  0  0  0  0  0
  187.9710  177.5150  136.2650 C   0  0  0  0  0  3  0  0  0  0  0  0
  184.5510  180.2250  139.2540 N   0  0  0  0  0  1  0  0  0  0  0  0
  189.1630  176.7900  136.3100 C   0  0  0  0  0  3  0  0  0  0  0  0
  185.6100  178.8760  140.9850 C   0  0  1  0  0  3  0  0  0  0  0  0
  188.9430  177.3350  142.0020 N   0  0  0  0  0  0  0  0  0  0  0  0
  183.2810  178.7080  140.6460 C   0  0  0  0  0  0  0  0  0  0  0  0
  184.8590  178.3220  142.1380 C   0  0  0  0  0  0  0  0  0  0  0  0
  190.2180  177.2310  139.9150 C   0  0  0  0  0  2  0  0  0  0  0  0
  186.8210  177.9940  140.6870 C   0  0  2  0  0  3  0  0  0  0  0  0
  187.4970  178.1520  137.4150 C   0  0  0  0  0  3  0  0  0  0  0  0
  185.4540  177.7530  143.1370 N   0  0  0  0  0  0  0  0  0  0  0  0
  189.8830  176.7010  137.5040 C   0  0  0  0  0  3  0  0  0  0  0  0
  189.4150  177.3360  138.6590 C   0  0  0  0  0  0  0  0  0  0  0  0
  188.2130  178.0650  138.6140 C   0  0  0  0  0  0  0  0  0  0  0  0
  191.5330  178.6840  145.1000 C   0  0  0  0  0  3  0  0  0  0  0  0
  189.8120  177.7960  143.0590 C   0  0  0  0  0  0  0  0  0  0  0  0
  190.2780  179.1220  143.0770 C   0  0  0  0  0  3  0  0  0  0  0  0
  191.1320  179.5640  144.0930 C   0  0  0  0  0  3  0  0  0  0  0  0
  191.0830  177.3620  145.0910 C   0  0  0  0  0  3  0  0  0  0  0  0
  190.2290  176.9210  144.0760 C   0  0  0  0  0  3  0  0  0  0  0  0
  1 12  1  0  0  0  0
  2 12  1  0  0  0  0
  2  6  2  0  0  0  0
  4 14  1  0  0  0  0
  5 13  2  0  0  0  0
  6 18  1  0  0  0  0
  7  9  1  1  0  0  0
  7 13  1  0  0  0  0
  7 11  1  0  0  0  0
  8 10  2  0  0  0  0
  8 17  1  0  0  0  0
 10 19  1  0  0  0  0
 11 14  1  1  0  0  0
 12 23  1  0  0  0  0
 13  4  1  0  0  0  0
 14 18  2  0  0  0  0
 15  1  1  0  0  0  0
 16  3  1  6  0  0  0
 16 11  1  0  0  0  0
 16  2  1  0  0  0  0
 17 21  2  0  0  0  0
 19 20  2  0  0  0  0
 20 15  1  0  0  0  0
 21 20  1  0  0  0  0
 21  3  1  0  0  0  0
 23 24  2  0  0  0  0
 23 27  1  0  0  0  0
 24 25  1  0  0  0  0
 25 22  2  0  0  0  0
 26 22  1  0  0  0  0
 27 26  2  0  0  0  0
M  END
>  <MODEL>
9

>  <REMARK>
 VINA RESULT:      -8.0      4.167      7.824
  Name = 
  1 active torsions:
  status: ('A' for Active; 'I' for Inactive)
    1  A    between atoms: C_9  and  N_15
                            x       y       z     vdW  Elec       q    Type
                         _______ _______ _______ _____ _____    ______ ____

>  <TORSDO>
F 1

$$$$
