=
 OpenBabel11052414383D

 32 36  0  0  1  0  0  0  0  0999 V2000
  189.3440  177.3300  140.4180 N   0  0  0  0  0  0  0  0  0  0  0  0
  187.5270  178.1550  141.4970 C   0  0  0  0  0  0  0  0  0  0  0  0
  188.8400  176.5960  142.7920 C   0  0  0  0  0  3  0  0  0  0  0  0
  184.6410  179.3500  143.4930 C   0  0  0  0  0  3  0  0  0  0  0  0
  188.5920  177.3150  141.6210 C   0  0  0  0  0  0  0  0  0  0  0  0
  185.9380  177.7730  144.8050 C   0  0  0  0  0  3  0  0  0  0  0  0
  186.8300  177.6170  143.7410 C   0  0  0  0  0  0  0  0  0  0  0  0
  187.9390  176.7530  143.8610 C   0  0  0  0  0  3  0  0  0  0  0  0
  187.5360  178.7490  140.2450 O   0  0  0  0  0  0  0  0  0  0  0  0
  188.6750  178.2690  139.5120 C   0  0  2  0  0  3  0  0  0  0  0  0
  186.6180  178.3380  142.5360 C   0  0  0  0  0  0  0  0  0  0  0  0
  184.8460  178.6380  144.6790 C   0  0  0  0  0  3  0  0  0  0  0  0
  185.5240  179.2010  142.4190 C   0  0  0  0  0  3  0  0  0  0  0  0
  188.1910  177.3920  135.8300 C   0  0  0  0  0  0  0  0  0  0  0  0
  188.4920  177.8800  134.6010 F   0  0  0  0  0  0  0  0  0  0  0  0
  188.2430  177.5670  138.2550 C   0  0  0  0  0  0  0  0  0  0  0  0
  187.5010  176.1810  135.9350 C   0  0  0  0  0  3  0  0  0  0  0  0
  187.5580  176.3460  138.3450 C   0  0  0  0  0  3  0  0  0  0  0  0
  188.5690  178.0890  136.9880 C   0  0  0  0  0  0  0  0  0  0  0  0
  189.3170  179.3770  136.8570 C   0  0  0  0  0  1  0  0  0  0  0  0
  187.1810  175.6510  137.1940 C   0  0  0  0  0  0  0  0  0  0  0  0
  185.0850  174.3350  137.2010 C   0  0  0  0  0  1  0  0  0  0  0  0
  186.4970  174.4400  137.3290 O   0  0  0  0  0  0  0  0  0  0  0  0
  191.7420  177.5000  140.8820 C   0  0  0  0  0  2  0  0  0  0  0  0
  190.6500  176.7210  140.1770 C   0  0  2  0  0  3  0  0  0  0  0  0
  190.9460  176.7010  138.7520 N   0  0  0  0  0  0  0  0  0  0  0  0
  192.3900  176.8500  138.6630 C   0  0  0  0  0  2  0  0  0  0  0  0
  192.8390  177.6590  139.8590 C   0  0  0  0  0  2  0  0  0  0  0  0
  190.6250  175.3700  138.2680 C   0  0  0  0  0  2  0  0  0  0  0  0
  191.0750  175.2300  136.8300 C   0  0  0  0  0  2  0  0  0  0  0  0
  190.5480  173.9300  136.2620 C   0  0  0  0  0  2  0  0  0  0  0  0
  189.7390  173.3030  137.2100 O   0  0  0  0  0  1  0  0  0  0  0  0
  1  5  1  0  0  0  0
  2  5  2  0  0  0  0
  2 11  1  0  0  0  0
  3  8  2  0  0  0  0
  4 12  1  0  0  0  0
  5  3  1  0  0  0  0
  7  8  1  0  0  0  0
  7  6  1  0  0  0  0
  9  2  1  0  0  0  0
 10 16  1  6  0  0  0
 10  9  1  0  0  0  0
 10  1  1  0  0  0  0
 11  7  2  0  0  0  0
 12  6  2  0  0  0  0
 13 11  1  0  0  0  0
 13  4  2  0  0  0  0
 14 17  2  0  0  0  0
 14 19  1  0  0  0  0
 15 14  1  0  0  0  0
 16 18  1  0  0  0  0
 17 21  1  0  0  0  0
 19 16  2  0  0  0  0
 20 19  1  0  0  0  0
 21 23  1  0  0  0  0
 21 18  2  0  0  0  0
 22 23  1  0  0  0  0
 25  1  1  6  0  0  0
 25 24  1  0  0  0  0
 26 25  1  0  0  0  0
 27 26  1  0  0  0  0
 27 28  1  0  0  0  0
 28 24  1  0  0  0  0
 29 26  1  0  0  0  0
 30 29  1  0  0  0  0
 31 30  1  0  0  0  0
 31 32  1  0  0  0  0
M  END
>  <MODEL>
1

>  <REMARK>
 VINA RESULT:      -7.2      0.000      0.000
  Name = 
  6 active torsions:
  status: ('A' for Active; 'I' for Inactive)
    1  A    between atoms: N_1  and  C_5
    2  A    between atoms: C_13  and  C_18
    3  A    between atoms: N_14  and  C_29
    4  A    between atoms: O_15  and  C_26
    5  A    between atoms: C_16  and  C_27
    6  A    between atoms: C_18  and  C_29
                            x       y       z     vdW  Elec       q    Type
                         _______ _______ _______ _____ _____    ______ ____

>  <TORSDO>
F 6

$$$$
=
 OpenBabel11052414383D

 32 36  0  0  1  0  0  0  0  0999 V2000
  181.0350  178.9100  138.3650 N   0  0  0  0  0  0  0  0  0  0  0  0
  181.0370  181.1230  137.8670 C   0  0  0  0  0  0  0  0  0  0  0  0
  180.6650  179.6700  135.9750 C   0  0  0  0  0  3  0  0  0  0  0  0
  180.9780  184.6660  136.7790 C   0  0  0  0  0  3  0  0  0  0  0  0
  180.9040  179.8770  137.3350 C   0  0  0  0  0  0  0  0  0  0  0  0
  180.6200  183.2220  134.8610 C   0  0  0  0  0  3  0  0  0  0  0  0
  180.7140  182.0980  135.6860 C   0  0  0  0  0  0  0  0  0  0  0  0
  180.5730  180.8030  135.1460 C   0  0  0  0  0  3  0  0  0  0  0  0
  181.2460  181.0350  139.2340 O   0  0  0  0  0  0  0  0  0  0  0  0
  181.2480  179.6480  139.6140 C   0  0  2  0  0  3  0  0  0  0  0  0
  180.9470  182.2670  137.0760 C   0  0  0  0  0  0  0  0  0  0  0  0
  180.7530  184.5030  135.4070 C   0  0  0  0  0  3  0  0  0  0  0  0
  181.0770  183.5500  137.6160 C   0  0  0  0  0  3  0  0  0  0  0  0
  183.8720  178.4460  142.1090 C   0  0  0  0  0  0  0  0  0  0  0  0
  183.9640  178.0330  143.3980 F   0  0  0  0  0  0  0  0  0  0  0  0
  182.5650  179.2660  140.2300 C   0  0  0  0  0  0  0  0  0  0  0  0
  185.0230  178.4740  141.3170 C   0  0  0  0  0  3  0  0  0  0  0  0
  183.7260  179.2820  139.4450 C   0  0  0  0  0  3  0  0  0  0  0  0
  182.6370  178.8380  141.5700 C   0  0  0  0  0  0  0  0  0  0  0  0
  181.4140  178.7910  142.4290 C   0  0  0  0  0  1  0  0  0  0  0  0
  184.9560  178.8920  139.9790 C   0  0  0  0  0  0  0  0  0  0  0  0
  187.2760  178.2000  139.4640 C   0  0  0  0  0  1  0  0  0  0  0  0
  186.0900  178.9240  139.1630 O   0  0  0  0  0  0  0  0  0  0  0  0
  180.0110  176.9880  139.4820 C   0  0  0  0  0  2  0  0  0  0  0  0
  180.7870  177.4740  138.2750 C   0  0  2  0  0  3  0  0  0  0  0  0
  182.0440  176.7430  138.2120 N   0  0  0  0  0  0  0  0  0  0  0  0
  181.7840  175.4810  138.8870 C   0  0  0  0  0  2  0  0  0  0  0  0
  180.7210  175.7350  139.9330 C   0  0  0  0  0  2  0  0  0  0  0  0
  182.2890  176.4350  136.8140 C   0  0  0  0  0  2  0  0  0  0  0  0
  183.5260  177.1680  136.3410 C   0  0  0  0  0  2  0  0  0  0  0  0
  184.7540  176.5290  136.9520 C   0  0  0  0  0  2  0  0  0  0  0  0
  185.8970  177.0370  136.3330 O   0  0  0  0  0  1  0  0  0  0  0  0
  1 10  1  0  0  0  0
  2  9  1  0  0  0  0
  3  5  2  0  0  0  0
  4 13  2  0  0  0  0
  5  2  1  0  0  0  0
  5  1  1  0  0  0  0
  6 12  2  0  0  0  0
  6  7  1  0  0  0  0
  7 11  1  0  0  0  0
  8  7  2  0  0  0  0
  8  3  1  0  0  0  0
  9 10  1  0  0  0  0
 10 16  1  6  0  0  0
 11 13  1  0  0  0  0
 11  2  2  0  0  0  0
 12  4  1  0  0  0  0
 14 15  1  0  0  0  0
 16 19  2  0  0  0  0
 17 14  2  0  0  0  0
 18 21  2  0  0  0  0
 18 16  1  0  0  0  0
 19 14  1  0  0  0  0
 19 20  1  0  0  0  0
 21 17  1  0  0  0  0
 23 22  1  0  0  0  0
 23 21  1  0  0  0  0
 24 28  1  0  0  0  0
 25  1  1  1  0  0  0
 25 24  1  0  0  0  0
 26 25  1  0  0  0  0
 26 27  1  0  0  0  0
 27 28  1  0  0  0  0
 29 26  1  0  0  0  0
 30 29  1  0  0  0  0
 30 31  1  0  0  0  0
 32 31  1  0  0  0  0
M  END
>  <MODEL>
2

>  <REMARK>
 VINA RESULT:      -7.2      6.110      8.859
  Name = 
  6 active torsions:
  status: ('A' for Active; 'I' for Inactive)
    1  A    between atoms: N_1  and  C_5
    2  A    between atoms: C_13  and  C_18
    3  A    between atoms: N_14  and  C_29
    4  A    between atoms: O_15  and  C_26
    5  A    between atoms: C_16  and  C_27
    6  A    between atoms: C_18  and  C_29
                            x       y       z     vdW  Elec       q    Type
                         _______ _______ _______ _____ _____    ______ ____

>  <TORSDO>
F 6

$$$$
=
 OpenBabel11052414383D

 32 36  0  0  1  0  0  0  0  0999 V2000
  181.2770  178.5980  138.6210 N   0  0  0  0  0  0  0  0  0  0  0  0
  181.1330  180.7870  138.0440 C   0  0  0  0  0  0  0  0  0  0  0  0
  180.9410  179.2480  136.1940 C   0  0  0  0  0  3  0  0  0  0  0  0
  180.8520  184.2770  136.8270 C   0  0  0  0  0  3  0  0  0  0  0  0
  181.1130  179.5170  137.5530 C   0  0  0  0  0  0  0  0  0  0  0  0
  180.6740  182.7470  134.9520 C   0  0  0  0  0  3  0  0  0  0  0  0
  180.8200  181.6610  135.8190 C   0  0  0  0  0  0  0  0  0  0  0  0
  180.7970  180.3420  135.3220 C   0  0  0  0  0  3  0  0  0  0  0  0
  181.2970  180.7600  139.4200 O   0  0  0  0  0  0  0  0  0  0  0  0
  181.3880  179.3920  139.8490 C   0  0  2  0  0  3  0  0  0  0  0  0
  180.9880  181.8940  137.2100 C   0  0  0  0  0  0  0  0  0  0  0  0
  180.6910  184.0520  135.4560 C   0  0  0  0  0  3  0  0  0  0  0  0
  181.0030  183.2010  137.7070 C   0  0  0  0  0  3  0  0  0  0  0  0
  184.0030  178.5380  142.4940 C   0  0  0  0  0  0  0  0  0  0  0  0
  184.0810  178.2400  143.8150 F   0  0  0  0  0  0  0  0  0  0  0  0
  182.7050  179.1310  140.5240 C   0  0  0  0  0  0  0  0  0  0  0  0
  185.1710  178.5590  141.7280 C   0  0  0  0  0  3  0  0  0  0  0  0
  183.8850  179.1400  139.7660 C   0  0  0  0  0  3  0  0  0  0  0  0
  182.7640  178.8200  141.8970 C   0  0  0  0  0  0  0  0  0  0  0  0
  181.5230  178.7810  142.7290 C   0  0  0  0  0  1  0  0  0  0  0  0
  185.1190  178.8610  140.3580 C   0  0  0  0  0  0  0  0  0  0  0  0
  186.4740  177.9890  138.4800 C   0  0  0  0  0  1  0  0  0  0  0  0
  186.2700  178.8830  139.5660 O   0  0  0  0  0  0  0  0  0  0  0  0
  182.2890  176.5230  137.8080 C   0  0  0  0  0  2  0  0  0  0  0  0
  181.1400  177.1450  138.5740 C   0  0  2  0  0  3  0  0  0  0  0  0
  179.8950  176.7720  137.9180 N   0  0  0  0  0  0  0  0  0  0  0  0
  180.1830  175.5170  137.2430 C   0  0  0  0  0  2  0  0  0  0  0  0
  181.6500  175.5240  136.8750 C   0  0  0  0  0  2  0  0  0  0  0  0
  178.9320  176.4800  138.9660 C   0  0  0  0  0  2  0  0  0  0  0  0
  179.6490  175.9110  140.1700 C   0  0  0  0  0  2  0  0  0  0  0  0
  178.9590  174.6390  140.6130 C   0  0  0  0  0  2  0  0  0  0  0  0
  179.1190  174.4790  141.9890 O   0  0  0  0  0  1  0  0  0  0  0  0
  1 10  1  0  0  0  0
  2  9  1  0  0  0  0
  3  5  2  0  0  0  0
  4 13  2  0  0  0  0
  5  2  1  0  0  0  0
  5  1  1  0  0  0  0
  6 12  2  0  0  0  0
  6  7  1  0  0  0  0
  7 11  1  0  0  0  0
  8  7  2  0  0  0  0
  8  3  1  0  0  0  0
  9 10  1  0  0  0  0
 10 16  1  6  0  0  0
 11 13  1  0  0  0  0
 11  2  2  0  0  0  0
 12  4  1  0  0  0  0
 14 15  1  0  0  0  0
 16 19  2  0  0  0  0
 17 14  2  0  0  0  0
 18 21  2  0  0  0  0
 18 16  1  0  0  0  0
 19 14  1  0  0  0  0
 19 20  1  0  0  0  0
 21 17  1  0  0  0  0
 22 23  1  0  0  0  0
 23 21  1  0  0  0  0
 25 24  1  6  0  0  0
 25  1  1  0  0  0  0
 26 25  1  0  0  0  0
 26 29  1  0  0  0  0
 27 26  1  0  0  0  0
 28 27  1  0  0  0  0
 28 24  1  0  0  0  0
 29 30  1  0  0  0  0
 30 31  1  0  0  0  0
 31 32  1  0  0  0  0
M  END
>  <MODEL>
3

>  <REMARK>
 VINA RESULT:      -6.8      6.392      9.418
  Name = 
  6 active torsions:
  status: ('A' for Active; 'I' for Inactive)
    1  A    between atoms: N_1  and  C_5
    2  A    between atoms: C_13  and  C_18
    3  A    between atoms: N_14  and  C_29
    4  A    between atoms: O_15  and  C_26
    5  A    between atoms: C_16  and  C_27
    6  A    between atoms: C_18  and  C_29
                            x       y       z     vdW  Elec       q    Type
                         _______ _______ _______ _____ _____    ______ ____

>  <TORSDO>
F 6

$$$$
=
 OpenBabel11052414383D

 32 36  0  0  1  0  0  0  0  0999 V2000
  189.9160  177.3300  142.4010 N   0  0  0  0  0  0  0  0  0  0  0  0
  190.0420  176.5070  140.2910 C   0  0  0  0  0  0  0  0  0  0  0  0
  191.9840  177.7550  140.9990 C   0  0  0  0  0  3  0  0  0  0  0  0
  190.5180  175.2730  136.8280 C   0  0  0  0  0  3  0  0  0  0  0  0
  190.7100  177.2320  141.2300 C   0  0  0  0  0  0  0  0  0  0  0  0
  192.4720  176.5380  137.5150 C   0  0  0  0  0  3  0  0  0  0  0  0
  191.8860  176.7730  138.7610 C   0  0  0  0  0  0  0  0  0  0  0  0
  192.5720  177.5190  139.7430 C   0  0  0  0  0  3  0  0  0  0  0  0
  188.8160  176.0990  140.7910 O   0  0  0  0  0  0  0  0  0  0  0  0
  188.6790  176.5860  142.1370 C   0  0  2  0  0  3  0  0  0  0  0  0
  190.5950  176.2510  139.0380 C   0  0  0  0  0  0  0  0  0  0  0  0
  191.7880  175.7900  136.5510 C   0  0  0  0  0  3  0  0  0  0  0  0
  189.9180  175.5030  138.0700 C   0  0  0  0  0  3  0  0  0  0  0  0
  185.8120  178.6340  143.6010 C   0  0  0  0  0  0  0  0  0  0  0  0
  185.2280  178.8910  144.7990 F   0  0  0  0  0  0  0  0  0  0  0  0
  187.4870  177.4940  142.2570 C   0  0  0  0  0  0  0  0  0  0  0  0
  185.3230  179.2630  142.4540 C   0  0  0  0  0  3  0  0  0  0  0  0
  186.9900  178.1390  141.1140 C   0  0  0  0  0  3  0  0  0  0  0  0
  186.8980  177.7500  143.5110 C   0  0  0  0  0  0  0  0  0  0  0  0
  187.4150  177.0940  144.7500 C   0  0  0  0  0  1  0  0  0  0  0  0
  185.9100  179.0190  141.2030 C   0  0  0  0  0  0  0  0  0  0  0  0
  184.1910  179.3240  139.4490 C   0  0  0  0  0  1  0  0  0  0  0  0
  185.4450  179.6390  140.0400 O   0  0  0  0  0  0  0  0  0  0  0  0
  190.3570  179.3740  143.6730 C   0  0  0  0  0  2  0  0  0  0  0  0
  190.3100  177.8600  143.7030 C   0  0  2  0  0  3  0  0  0  0  0  0
  191.6280  177.3660  144.0760 N   0  0  0  0  0  0  0  0  0  0  0  0
  192.2300  178.4390  144.8520 C   0  0  0  0  0  2  0  0  0  0  0  0
  191.6570  179.7440  144.3440 C   0  0  0  0  0  2  0  0  0  0  0  0
  191.4240  176.2490  144.9820 C   0  0  0  0  0  2  0  0  0  0  0  0
  191.5090  176.7340  146.4130 C   0  0  0  0  0  2  0  0  0  0  0  0
  192.1370  175.6580  147.2730 C   0  0  0  0  0  2  0  0  0  0  0  0
  192.7980  176.2520  148.3480 O   0  0  0  0  0  1  0  0  0  0  0  0
  2  9  1  0  0  0  0
  2  5  1  0  0  0  0
  3  5  2  0  0  0  0
  4 13  2  0  0  0  0
  5  1  1  0  0  0  0
  6  7  1  0  0  0  0
  7 11  1  0  0  0  0
  7  8  2  0  0  0  0
  8  3  1  0  0  0  0
  9 10  1  0  0  0  0
 10 16  1  6  0  0  0
 10  1  1  0  0  0  0
 11  2  2  0  0  0  0
 12  4  1  0  0  0  0
 12  6  2  0  0  0  0
 13 11  1  0  0  0  0
 14 15  1  0  0  0  0
 16 19  2  0  0  0  0
 17 14  2  0  0  0  0
 18 21  2  0  0  0  0
 18 16  1  0  0  0  0
 19 14  1  0  0  0  0
 19 20  1  0  0  0  0
 21 17  1  0  0  0  0
 22 23  1  0  0  0  0
 23 21  1  0  0  0  0
 24 25  1  0  0  0  0
 24 28  1  0  0  0  0
 25  1  1  6  0  0  0
 25 26  1  0  0  0  0
 26 27  1  0  0  0  0
 26 29  1  0  0  0  0
 28 27  1  0  0  0  0
 29 30  1  0  0  0  0
 30 31  1  0  0  0  0
 31 32  1  0  0  0  0
M  END
>  <MODEL>
4

>  <REMARK>
 VINA RESULT:      -6.5      3.477      6.970
  Name = 
  6 active torsions:
  status: ('A' for Active; 'I' for Inactive)
    1  A    between atoms: N_1  and  C_5
    2  A    between atoms: C_13  and  C_18
    3  A    between atoms: N_14  and  C_29
    4  A    between atoms: O_15  and  C_26
    5  A    between atoms: C_16  and  C_27
    6  A    between atoms: C_18  and  C_29
                            x       y       z     vdW  Elec       q    Type
                         _______ _______ _______ _____ _____    ______ ____

>  <TORSDO>
F 6

$$$$
=
 OpenBabel11052414383D

 32 36  0  0  1  0  0  0  0  0999 V2000
  185.7430  178.6310  140.2660 N   0  0  0  0  0  0  0  0  0  0  0  0
  185.4790  178.6740  142.5200 C   0  0  0  0  0  0  0  0  0  0  0  0
  187.4620  177.5210  141.7640 C   0  0  0  0  0  3  0  0  0  0  0  0
  185.3020  178.6050  146.2210 C   0  0  0  0  0  3  0  0  0  0  0  0
  186.2880  178.2350  141.5160 C   0  0  0  0  0  0  0  0  0  0  0  0
  187.2920  177.4270  145.4810 C   0  0  0  0  0  3  0  0  0  0  0  0
  186.9600  177.6960  144.1510 C   0  0  0  0  0  0  0  0  0  0  0  0
  187.7930  177.2500  143.1040 C   0  0  0  0  0  3  0  0  0  0  0  0
  184.4020  179.3660  141.9910 O   0  0  0  0  0  0  0  0  0  0  0  0
  184.5170  179.3800  140.5580 C   0  0  2  0  0  3  0  0  0  0  0  0
  185.7790  178.4270  143.8570 C   0  0  0  0  0  0  0  0  0  0  0  0
  186.4640  177.8810  146.5140 C   0  0  0  0  0  3  0  0  0  0  0  0
  184.9560  178.8780  144.8940 C   0  0  0  0  0  3  0  0  0  0  0  0
  181.4340  178.7500  138.4000 C   0  0  0  0  0  0  0  0  0  0  0  0
  180.6300  179.4050  137.5260 F   0  0  0  0  0  0  0  0  0  0  0  0
  183.3310  178.7110  139.9220 C   0  0  0  0  0  0  0  0  0  0  0  0
  181.1830  177.4050  138.6830 C   0  0  0  0  0  3  0  0  0  0  0  0
  183.0710  177.3600  140.1900 C   0  0  0  0  0  3  0  0  0  0  0  0
  182.5100  179.4090  139.0130 C   0  0  0  0  0  0  0  0  0  0  0  0
  182.7710  180.8450  138.6900 C   0  0  0  0  0  1  0  0  0  0  0  0
  182.0010  176.7010  139.5810 C   0  0  0  0  0  0  0  0  0  0  0  0
  180.4820  174.7670  139.8570 C   0  0  0  0  0  1  0  0  0  0  0  0
  181.7770  175.3550  139.8780 O   0  0  0  0  0  0  0  0  0  0  0  0
  185.4280  177.8650  137.9630 C   0  0  0  0  0  2  0  0  0  0  0  0
  186.3670  178.5280  138.9500 C   0  0  2  0  0  3  0  0  0  0  0  0
  187.5880  177.7380  139.0250 N   0  0  0  0  0  0  0  0  0  0  0  0
  187.6800  177.0600  137.7430 C   0  0  0  0  0  2  0  0  0  0  0  0
  186.2700  176.8430  137.2400 C   0  0  0  0  0  2  0  0  0  0  0  0
  188.6970  178.6730  139.0930 C   0  0  0  0  0  2  0  0  0  0  0  0
  189.9820  177.9640  138.7260 C   0  0  0  0  0  2  0  0  0  0  0  0
  190.6140  177.3870  139.9740 C   0  0  0  0  0  2  0  0  0  0  0  0
  190.5440  175.9950  139.9280 O   0  0  0  0  0  1  0  0  0  0  0  0
  1 10  1  0  0  0  0
  1  5  1  0  0  0  0
  2 11  1  0  0  0  0
  3  8  2  0  0  0  0
  4 12  1  0  0  0  0
  5  3  1  0  0  0  0
  5  2  2  0  0  0  0
  6 12  2  0  0  0  0
  7  6  1  0  0  0  0
  8  7  1  0  0  0  0
  9  2  1  0  0  0  0
 10 16  1  6  0  0  0
 10  9  1  0  0  0  0
 11  7  2  0  0  0  0
 11 13  1  0  0  0  0
 13  4  2  0  0  0  0
 14 17  2  0  0  0  0
 14 19  1  0  0  0  0
 15 14  1  0  0  0  0
 16 18  1  0  0  0  0
 17 21  1  0  0  0  0
 19 16  2  0  0  0  0
 20 19  1  0  0  0  0
 21 23  1  0  0  0  0
 21 18  2  0  0  0  0
 22 23  1  0  0  0  0
 25 24  1  6  0  0  0
 25 26  1  0  0  0  0
 25  1  1  0  0  0  0
 26 29  1  0  0  0  0
 27 26  1  0  0  0  0
 28 27  1  0  0  0  0
 28 24  1  0  0  0  0
 30 29  1  0  0  0  0
 30 31  1  0  0  0  0
 32 31  1  0  0  0  0
M  END
>  <MODEL>
5

>  <REMARK>
 VINA RESULT:      -6.5      3.381      4.770
  Name = 
  6 active torsions:
  status: ('A' for Active; 'I' for Inactive)
    1  A    between atoms: N_1  and  C_5
    2  A    between atoms: C_13  and  C_18
    3  A    between atoms: N_14  and  C_29
    4  A    between atoms: O_15  and  C_26
    5  A    between atoms: C_16  and  C_27
    6  A    between atoms: C_18  and  C_29
                            x       y       z     vdW  Elec       q    Type
                         _______ _______ _______ _____ _____    ______ ____

>  <TORSDO>
F 6

$$$$
=
 OpenBabel11052414383D

 32 36  0  0  1  0  0  0  0  0999 V2000
  183.5250  177.8970  139.2970 N   0  0  0  0  0  0  0  0  0  0  0  0
  185.5520  178.2530  138.3410 C   0  0  0  0  0  0  0  0  0  0  0  0
  184.3230  176.3890  137.4210 C   0  0  0  0  0  3  0  0  0  0  0  0
  188.8030  178.6160  136.5990 C   0  0  0  0  0  3  0  0  0  0  0  0
  184.4490  177.4540  138.3160 C   0  0  0  0  0  0  0  0  0  0  0  0
  187.5910  176.7280  135.6720 C   0  0  0  0  0  3  0  0  0  0  0  0
  186.5350  176.9680  136.5550 C   0  0  0  0  0  0  0  0  0  0  0  0
  185.3870  176.1490  136.5340 C   0  0  0  0  0  3  0  0  0  0  0  0
  185.4020  179.2350  139.3070 O   0  0  0  0  0  0  0  0  0  0  0  0
  184.1260  179.0660  139.9470 C   0  0  2  0  0  3  0  0  0  0  0  0
  186.6220  178.0460  137.4750 C   0  0  0  0  0  0  0  0  0  0  0  0
  188.7220  177.5510  135.6950 C   0  0  0  0  0  3  0  0  0  0  0  0
  187.7550  178.8650  137.4910 C   0  0  0  0  0  3  0  0  0  0  0  0
  183.3810  178.6560  143.6670 C   0  0  0  0  0  0  0  0  0  0  0  0
  182.3450  178.7690  144.5350 F   0  0  0  0  0  0  0  0  0  0  0  0
  184.2970  178.8160  141.4200 C   0  0  0  0  0  0  0  0  0  0  0  0
  184.6310  178.2530  144.1440 C   0  0  0  0  0  3  0  0  0  0  0  0
  185.5430  178.4030  141.9120 C   0  0  0  0  0  3  0  0  0  0  0  0
  183.2060  178.9360  142.3030 C   0  0  0  0  0  0  0  0  0  0  0  0
  181.8590  179.3550  141.8080 C   0  0  0  0  0  1  0  0  0  0  0  0
  185.7200  178.1240  143.2690 C   0  0  0  0  0  0  0  0  0  0  0  0
  187.2740  177.5030  145.0910 C   0  0  0  0  0  1  0  0  0  0  0  0
  186.9790  177.7180  143.7170 O   0  0  0  0  0  0  0  0  0  0  0  0
  182.1150  175.9720  139.8440 C   0  0  0  0  0  2  0  0  0  0  0  0
  182.1500  177.4460  139.4930 C   0  0  2  0  0  3  0  0  0  0  0  0
  181.3700  177.6480  138.2810 N   0  0  0  0  0  0  0  0  0  0  0  0
  180.4030  176.5620  138.2660 C   0  0  0  0  0  2  0  0  0  0  0  0
  181.0330  175.3830  138.9730 C   0  0  0  0  0  2  0  0  0  0  0  0
  180.6220  178.8810  138.4560 C   0  0  0  0  0  2  0  0  0  0  0  0
  181.1950  179.9550  137.5580 C   0  0  0  0  0  2  0  0  0  0  0  0
  181.4900  181.1930  138.3780 C   0  0  0  0  0  2  0  0  0  0  0  0
  181.1800  182.3290  137.6300 O   0  0  0  0  0  1  0  0  0  0  0  0
  1 10  1  0  0  0  0
  2  9  1  0  0  0  0
  3  5  2  0  0  0  0
  4 13  2  0  0  0  0
  5  2  1  0  0  0  0
  5  1  1  0  0  0  0
  6 12  2  0  0  0  0
  6  7  1  0  0  0  0
  7 11  1  0  0  0  0
  8  7  2  0  0  0  0
  8  3  1  0  0  0  0
  9 10  1  0  0  0  0
 10 16  1  1  0  0  0
 11 13  1  0  0  0  0
 11  2  2  0  0  0  0
 12  4  1  0  0  0  0
 14 17  1  0  0  0  0
 14 15  1  0  0  0  0
 16 18  2  0  0  0  0
 16 19  1  0  0  0  0
 18 21  1  0  0  0  0
 19 14  2  0  0  0  0
 20 19  1  0  0  0  0
 21 23  1  0  0  0  0
 21 17  2  0  0  0  0
 23 22  1  0  0  0  0
 25  1  1  6  0  0  0
 25 24  1  0  0  0  0
 26 29  1  0  0  0  0
 26 25  1  0  0  0  0
 27 26  1  0  0  0  0
 27 28  1  0  0  0  0
 28 24  1  0  0  0  0
 30 31  1  0  0  0  0
 30 29  1  0  0  0  0
 32 31  1  0  0  0  0
M  END
>  <MODEL>
6

>  <REMARK>
 VINA RESULT:      -6.4      4.318      8.502
  Name = 
  6 active torsions:
  status: ('A' for Active; 'I' for Inactive)
    1  A    between atoms: N_1  and  C_5
    2  A    between atoms: C_13  and  C_18
    3  A    between atoms: N_14  and  C_29
    4  A    between atoms: O_15  and  C_26
    5  A    between atoms: C_16  and  C_27
    6  A    between atoms: C_18  and  C_29
                            x       y       z     vdW  Elec       q    Type
                         _______ _______ _______ _____ _____    ______ ____

>  <TORSDO>
F 6

$$$$
=
 OpenBabel11052414383D

 32 36  0  0  1  0  0  0  0  0999 V2000
  188.4420  178.0160  139.4930 N   0  0  0  0  0  0  0  0  0  0  0  0
  187.5750  178.0670  141.5890 C   0  0  0  0  0  0  0  0  0  0  0  0
  189.8130  177.1710  141.4520 C   0  0  0  0  0  3  0  0  0  0  0  0
  186.4130  178.0470  145.1090 C   0  0  0  0  0  3  0  0  0  0  0  0
  188.6720  177.7200  140.8620 C   0  0  0  0  0  0  0  0  0  0  0  0
  188.6560  177.1280  144.9890 C   0  0  0  0  0  3  0  0  0  0  0  0
  188.6670  177.3250  143.6060 C   0  0  0  0  0  0  0  0  0  0  0  0
  189.8000  176.9720  142.8440 C   0  0  0  0  0  3  0  0  0  0  0  0
  186.6050  178.6020  140.7570 O   0  0  0  0  0  0  0  0  0  0  0  0
  187.1010  178.6030  139.4080 C   0  0  2  0  0  3  0  0  0  0  0  0
  187.5290  177.8880  142.9700 C   0  0  0  0  0  0  0  0  0  0  0  0
  187.5310  177.4880  145.7380 C   0  0  0  0  0  3  0  0  0  0  0  0
  186.4080  178.2470  143.7250 C   0  0  0  0  0  3  0  0  0  0  0  0
  184.1410  177.4320  137.3040 C   0  0  0  0  0  0  0  0  0  0  0  0
  182.8900  177.8300  136.9640 F   0  0  0  0  0  0  0  0  0  0  0  0
  186.2220  177.7720  138.5160 C   0  0  0  0  0  0  0  0  0  0  0  0
  184.6460  176.2410  136.7760 C   0  0  0  0  0  3  0  0  0  0  0  0
  186.7190  176.5780  137.9720 C   0  0  0  0  0  3  0  0  0  0  0  0
  184.9260  178.2050  138.1720 C   0  0  0  0  0  0  0  0  0  0  0  0
  184.3740  179.4830  138.7190 C   0  0  0  0  0  1  0  0  0  0  0  0
  185.9390  175.8070  137.1070 C   0  0  0  0  0  0  0  0  0  0  0  0
  186.2750  173.3580  137.2060 C   0  0  0  0  0  1  0  0  0  0  0  0
  186.4720  174.6240  136.5900 O   0  0  0  0  0  0  0  0  0  0  0  0
  189.0550  178.9910  137.3340 C   0  0  0  0  0  2  0  0  0  0  0  0
  189.4070  177.9710  138.3980 C   0  0  2  0  0  3  0  0  0  0  0  0
  189.4190  176.6510  137.7840 N   0  0  0  0  0  0  0  0  0  0  0  0
  189.7190  176.8890  136.3810 C   0  0  0  0  0  2  0  0  0  0  0  0
  189.1730  178.2530  136.0230 C   0  0  0  0  0  2  0  0  0  0  0  0
  190.5480  175.9300  138.3450 C   0  0  0  0  0  2  0  0  0  0  0  0
  191.7790  176.8100  138.3120 C   0  0  0  0  0  2  0  0  0  0  0  0
  192.9870  175.9720  137.9550 C   0  0  0  0  0  2  0  0  0  0  0  0
  193.8980  176.7530  137.2430 O   0  0  0  0  0  1  0  0  0  0  0  0
  1  5  1  0  0  0  0
  2 11  1  0  0  0  0
  3  8  2  0  0  0  0
  4 12  1  0  0  0  0
  5  3  1  0  0  0  0
  5  2  2  0  0  0  0
  6 12  2  0  0  0  0
  7  6  1  0  0  0  0
  8  7  1  0  0  0  0
  9  2  1  0  0  0  0
 10 16  1  6  0  0  0
 10  1  1  0  0  0  0
 10  9  1  0  0  0  0
 11  7  2  0  0  0  0
 11 13  1  0  0  0  0
 13  4  2  0  0  0  0
 14 19  1  0  0  0  0
 15 14  1  0  0  0  0
 17 21  1  0  0  0  0
 17 14  2  0  0  0  0
 18 16  1  0  0  0  0
 19 16  2  0  0  0  0
 19 20  1  0  0  0  0
 21 18  2  0  0  0  0
 23 21  1  0  0  0  0
 23 22  1  0  0  0  0
 25 24  1  6  0  0  0
 25  1  1  0  0  0  0
 26 29  1  0  0  0  0
 26 25  1  0  0  0  0
 27 26  1  0  0  0  0
 28 27  1  0  0  0  0
 28 24  1  0  0  0  0
 30 29  1  0  0  0  0
 31 30  1  0  0  0  0
 32 31  1  0  0  0  0
M  END
>  <MODEL>
7

>  <REMARK>
 VINA RESULT:      -6.4      2.129      2.979
  Name = 
  6 active torsions:
  status: ('A' for Active; 'I' for Inactive)
    1  A    between atoms: N_1  and  C_5
    2  A    between atoms: C_13  and  C_18
    3  A    between atoms: N_14  and  C_29
    4  A    between atoms: O_15  and  C_26
    5  A    between atoms: C_16  and  C_27
    6  A    between atoms: C_18  and  C_29
                            x       y       z     vdW  Elec       q    Type
                         _______ _______ _______ _____ _____    ______ ____

>  <TORSDO>
F 6

$$$$
=
 OpenBabel11052414383D

 32 36  0  0  1  0  0  0  0  0999 V2000
  189.2220  177.5560  138.3600 N   0  0  0  0  0  0  0  0  0  0  0  0
  188.6800  177.5430  140.5640 C   0  0  0  0  0  0  0  0  0  0  0  0
  191.0410  177.3170  140.1100 C   0  0  0  0  0  3  0  0  0  0  0  0
  188.0780  177.5030  144.2210 C   0  0  0  0  0  3  0  0  0  0  0  0
  189.7180  177.4610  139.6870 C   0  0  0  0  0  0  0  0  0  0  0  0
  190.4540  177.2590  143.7860 C   0  0  0  0  0  3  0  0  0  0  0  0
  190.2120  177.3260  142.4110 C   0  0  0  0  0  0  0  0  0  0  0  0
  191.2810  177.2470  141.4950 C   0  0  0  0  0  3  0  0  0  0  0  0
  187.4880  177.7000  139.8740 O   0  0  0  0  0  0  0  0  0  0  0  0
  187.7680  177.7240  138.4640 C   0  0  2  0  0  3  0  0  0  0  0  0
  188.8820  177.4810  141.9410 C   0  0  0  0  0  0  0  0  0  0  0  0
  189.3880  177.3460  144.6880 C   0  0  0  0  0  3  0  0  0  0  0  0
  187.8220  177.5690  142.8480 C   0  0  0  0  0  3  0  0  0  0  0  0
  185.1520  175.7320  136.5280 C   0  0  0  0  0  0  0  0  0  0  0  0
  183.9120  175.8880  136.0010 F   0  0  0  0  0  0  0  0  0  0  0  0
  187.0610  176.5990  137.7610 C   0  0  0  0  0  0  0  0  0  0  0  0
  185.8100  174.5080  136.3760 C   0  0  0  0  0  3  0  0  0  0  0  0
  187.7120  175.3690  137.5930 C   0  0  0  0  0  3  0  0  0  0  0  0
  185.7740  176.7840  137.2170 C   0  0  0  0  0  0  0  0  0  0  0  0
  185.0600  178.0900  137.3600 C   0  0  0  0  0  1  0  0  0  0  0  0
  187.0950  174.3200  136.9080 C   0  0  0  0  0  0  0  0  0  0  0  0
  189.1410  173.0380  136.3670 C   0  0  0  0  0  1  0  0  0  0  0  0
  187.7780  173.1100  136.7660 O   0  0  0  0  0  0  0  0  0  0  0  0
  189.1310  178.2530  136.0160 C   0  0  0  0  0  2  0  0  0  0  0  0
  189.9930  177.6930  137.1290 C   0  0  2  0  0  3  0  0  0  0  0  0
  190.5080  176.3980  136.7040 N   0  0  0  0  0  0  0  0  0  0  0  0
  190.5300  176.4580  135.2510 C   0  0  0  0  0  2  0  0  0  0  0  0
  189.4180  177.3850  134.8160 C   0  0  0  0  0  2  0  0  0  0  0  0
  191.8880  176.3210  137.1480 C   0  0  0  0  0  2  0  0  0  0  0  0
  192.2080  174.9040  137.5690 C   0  0  0  0  0  2  0  0  0  0  0  0
  193.7050  174.6900  137.5240 C   0  0  0  0  0  2  0  0  0  0  0  0
  194.3320  175.6220  138.3520 O   0  0  0  0  0  1  0  0  0  0  0  0
  1 10  1  0  0  0  0
  1  5  1  0  0  0  0
  2 11  1  0  0  0  0
  3  8  2  0  0  0  0
  4 12  1  0  0  0  0
  5  3  1  0  0  0  0
  5  2  2  0  0  0  0
  6 12  2  0  0  0  0
  7  6  1  0  0  0  0
  8  7  1  0  0  0  0
  9  2  1  0  0  0  0
 10 16  1  6  0  0  0
 10  9  1  0  0  0  0
 11  7  2  0  0  0  0
 11 13  1  0  0  0  0
 13  4  2  0  0  0  0
 14 19  1  0  0  0  0
 15 14  1  0  0  0  0
 17 14  2  0  0  0  0
 17 21  1  0  0  0  0
 18 16  1  0  0  0  0
 19 20  1  0  0  0  0
 19 16  2  0  0  0  0
 21 18  2  0  0  0  0
 22 23  1  0  0  0  0
 23 21  1  0  0  0  0
 25 24  1  6  0  0  0
 25  1  1  0  0  0  0
 26 25  1  0  0  0  0
 26 29  1  0  0  0  0
 27 26  1  0  0  0  0
 28 27  1  0  0  0  0
 28 24  1  0  0  0  0
 29 30  1  0  0  0  0
 31 30  1  0  0  0  0
 31 32  1  0  0  0  0
M  END
>  <MODEL>
8

>  <REMARK>
 VINA RESULT:      -6.3      2.012      3.446
  Name = 
  6 active torsions:
  status: ('A' for Active; 'I' for Inactive)
    1  A    between atoms: N_1  and  C_5
    2  A    between atoms: C_13  and  C_18
    3  A    between atoms: N_14  and  C_29
    4  A    between atoms: O_15  and  C_26
    5  A    between atoms: C_16  and  C_27
    6  A    between atoms: C_18  and  C_29
                            x       y       z     vdW  Elec       q    Type
                         _______ _______ _______ _____ _____    ______ ____

>  <TORSDO>
F 6

$$$$
=
 OpenBabel11052414383D

 32 36  0  0  1  0  0  0  0  0999 V2000
  185.5040  178.2280  138.5810 N   0  0  0  0  0  0  0  0  0  0  0  0
  184.2170  178.5100  140.4280 C   0  0  0  0  0  0  0  0  0  0  0  0
  186.5940  178.4900  140.8540 C   0  0  0  0  0  3  0  0  0  0  0  0
  182.3610  178.9960  143.6000 C   0  0  0  0  0  3  0  0  0  0  0  0
  185.5020  178.4080  139.9880 C   0  0  0  0  0  0  0  0  0  0  0  0
  184.7460  178.9630  144.0510 C   0  0  0  0  0  3  0  0  0  0  0  0
  185.0050  178.7770  142.6910 C   0  0  0  0  0  0  0  0  0  0  0  0
  186.3320  178.6750  142.2240 C   0  0  0  0  0  3  0  0  0  0  0  0
  183.3420  178.4130  139.3590 O   0  0  0  0  0  0  0  0  0  0  0  0
  184.1010  178.2390  138.1510 C   0  0  2  0  0  3  0  0  0  0  0  0
  183.9210  178.6970  141.7770 C   0  0  0  0  0  0  0  0  0  0  0  0
  183.4270  179.0710  144.5040 C   0  0  0  0  0  3  0  0  0  0  0  0
  182.6050  178.8080  142.2360 C   0  0  0  0  0  3  0  0  0  0  0  0
  182.6350  175.6970  135.7130 C   0  0  0  0  0  0  0  0  0  0  0  0
  181.8320  175.6530  134.6200 F   0  0  0  0  0  0  0  0  0  0  0  0
  183.7490  176.9410  137.4810 C   0  0  0  0  0  0  0  0  0  0  0  0
  183.1870  174.5110  136.2030 C   0  0  0  0  0  3  0  0  0  0  0  0
  184.3020  175.7430  137.9570 C   0  0  0  0  0  3  0  0  0  0  0  0
  182.9150  176.9180  136.3450 C   0  0  0  0  0  0  0  0  0  0  0  0
  182.3250  178.1790  135.8000 C   0  0  0  0  0  1  0  0  0  0  0  0
  184.0240  174.5270  137.3290 C   0  0  0  0  0  0  0  0  0  0  0  0
  185.9460  172.9910  137.5930 C   0  0  0  0  0  1  0  0  0  0  0  0
  184.5950  173.3580  137.8380 O   0  0  0  0  0  0  0  0  0  0  0  0
  186.2670  178.8200  136.3320 C   0  0  0  0  0  2  0  0  0  0  0  0
  186.6540  178.2510  137.6810 C   0  0  2  0  0  3  0  0  0  0  0  0
  187.1710  176.9040  137.4810 N   0  0  0  0  0  0  0  0  0  0  0  0
  187.6860  176.8940  136.1210 C   0  0  0  0  0  2  0  0  0  0  0  0
  186.8680  177.8800  135.3170 C   0  0  0  0  0  2  0  0  0  0  0  0
  188.3090  176.7480  138.3690 C   0  0  0  0  0  2  0  0  0  0  0  0
  189.4850  177.5330  137.8300 C   0  0  0  0  0  2  0  0  0  0  0  0
  190.7480  177.1030  138.5450 C   0  0  0  0  0  2  0  0  0  0  0  0
  190.5550  175.8410  139.1080 O   0  0  0  0  0  1  0  0  0  0  0  0
  1  5  1  0  0  0  0
  2 11  1  0  0  0  0
  3  8  2  0  0  0  0
  4 12  1  0  0  0  0
  5  2  2  0  0  0  0
  5  3  1  0  0  0  0
  6 12  2  0  0  0  0
  7  6  1  0  0  0  0
  8  7  1  0  0  0  0
  9  2  1  0  0  0  0
 10 16  1  1  0  0  0
 10  1  1  0  0  0  0
 10  9  1  0  0  0  0
 11 13  1  0  0  0  0
 11  7  2  0  0  0  0
 13  4  2  0  0  0  0
 14 17  2  0  0  0  0
 14 19  1  0  0  0  0
 15 14  1  0  0  0  0
 16 18  1  0  0  0  0
 17 21  1  0  0  0  0
 19 16  2  0  0  0  0
 20 19  1  0  0  0  0
 21 23  1  0  0  0  0
 21 18  2  0  0  0  0
 22 23  1  0  0  0  0
 25 24  1  6  0  0  0
 25  1  1  0  0  0  0
 26 25  1  0  0  0  0
 26 29  1  0  0  0  0
 27 26  1  0  0  0  0
 28 27  1  0  0  0  0
 28 24  1  0  0  0  0
 30 29  1  0  0  0  0
 30 31  1  0  0  0  0
 31 32  1  0  0  0  0
M  END
>  <MODEL>
9

>  <REMARK>
 VINA RESULT:      -6.2      2.783      4.336
  Name = 
  6 active torsions:
  status: ('A' for Active; 'I' for Inactive)
    1  A    between atoms: N_1  and  C_5
    2  A    between atoms: C_13  and  C_18
    3  A    between atoms: N_14  and  C_29
    4  A    between atoms: O_15  and  C_26
    5  A    between atoms: C_16  and  C_27
    6  A    between atoms: C_18  and  C_29
                            x       y       z     vdW  Elec       q    Type
                         _______ _______ _______ _____ _____    ______ ____

>  <TORSDO>
F 6

$$$$
