=
 OpenBabel11052415543D

 34 39  0  0  0  0  0  0  0  0999 V2000
  189.2910  177.4960  143.3190 N   0  0  0  0  0  0  0  0  0  0  0  0
  192.4120  176.9750  141.3410 C   0  0  0  0  0  3  0  0  0  0  0  0
  191.9840  176.9300  143.7290 O   0  0  0  0  0  0  0  0  0  0  0  0
  187.6110  177.6970  145.5820 C   0  0  0  0  0  3  0  0  0  0  0  0
  187.8930  177.7870  143.1530 C   0  0  0  0  0  3  0  0  0  0  0  0
  188.8960  177.4150  145.7960 C   0  0  0  0  0  0  0  0  0  0  0  0
  190.6470  176.3590  147.2020 C   0  0  0  0  0  2  0  0  0  0  0  0
  189.4100  177.2570  147.1950 C   0  0  0  0  0  2  0  0  0  0  0  0
  187.0700  177.8910  144.2110 C   0  0  0  0  0  0  0  0  0  0  0  0
  191.1240  177.0380  144.8320 C   0  0  0  0  0  0  0  0  0  0  0  0
  189.8190  177.3180  144.6470 C   0  0  0  0  0  0  0  0  0  0  0  0
  191.6950  176.8830  146.2170 C   0  0  0  0  0  2  0  0  0  0  0  0
  191.9560  177.1380  140.0290 C   0  0  0  0  0  0  0  0  0  0  0  0
  190.6010  177.4250  139.8010 C   0  0  0  0  0  3  0  0  0  0  0  0
  191.5260  177.0940  142.4170 C   0  0  0  0  0  0  0  0  0  0  0  0
  189.7120  177.5450  140.8720 C   0  0  0  0  0  3  0  0  0  0  0  0
  190.1720  177.3810  142.1870 C   0  0  0  0  0  0  0  0  0  0  0  0
  183.5300  179.2480  144.9390 C   0  0  0  0  0  2  0  0  0  0  0  0
  185.1320  178.2590  142.7620 C   0  0  0  0  0  3  0  0  0  0  0  0
  180.9990  179.1360  142.1060 C   0  0  0  0  0  0  0  0  0  0  0  0
  181.5610  179.2930  143.3800 C   0  0  0  0  0  3  0  0  0  0  0  0
  182.9090  178.9960  143.5980 C   0  0  0  0  0  0  0  0  0  0  0  0
  183.1590  178.4150  141.2560 C   0  0  0  0  0  3  0  0  0  0  0  0
  183.7120  178.5610  142.5290 C   0  0  0  0  0  0  0  0  0  0  0  0
  181.8060  178.6990  141.0450 C   0  0  0  0  0  3  0  0  0  0  0  0
  185.6330  178.1890  144.0050 C   0  0  0  0  0  0  0  0  0  0  0  0
  184.6980  178.2890  145.1930 C   0  0  0  0  0  2  0  0  0  0  0  0
  179.5760  179.4420  141.8850 C   0  0  0  0  0  0  0  0  0  0  0  0
  178.9310  180.1200  142.7290 O   0  0  0  0  0  1  0  0  0  0  0  0
  178.9310  178.9860  140.7420 O   0  0  0  0  0  0  0  0  0  0  0  0
  192.8960  176.0010  137.9330 C   0  0  0  0  0  0  0  0  0  0  0  0
  193.9560  176.0220  136.8910 C   0  0  0  0  0  1  0  0  0  0  0  0
  192.0170  175.1010  137.9010 O   0  0  0  0  0  0  0  0  0  0  0  0
  192.8960  177.0070  138.9530 N   0  0  0  0  0  2  0  0  0  0  0  0
  1 11  1  0  0  0  0
  2 15  1  0  0  0  0
  3 10  1  0  0  0  0
  4  6  2  0  0  0  0
  5  1  1  0  0  0  0
  5  9  2  0  0  0  0
  6  8  1  0  0  0  0
  8  7  1  0  0  0  0
  9  4  1  0  0  0  0
 10 12  1  0  0  0  0
 11 10  2  0  0  0  0
 11  6  1  0  0  0  0
 12  7  1  0  0  0  0
 13  2  2  0  0  0  0
 14 13  1  0  0  0  0
 14 16  2  0  0  0  0
 15  3  1  0  0  0  0
 16 17  1  0  0  0  0
 17 15  2  0  0  0  0
 17  1  1  0  0  0  0
 18 27  1  0  0  0  0
 19 26  2  0  0  0  0
 20 21  1  0  0  0  0
 21 22  2  0  0  0  0
 22 18  1  0  0  0  0
 23 24  2  0  0  0  0
 24 19  1  0  0  0  0
 24 22  1  0  0  0  0
 25 23  1  0  0  0  0
 25 20  2  0  0  0  0
 26  9  1  0  0  0  0
 26 27  1  0  0  0  0
 28 20  1  0  0  0  0
 28 29  1  0  0  0  0
 30 28  2  0  0  0  0
 31 34  1  0  0  0  0
 32 31  1  0  0  0  0
 33 31  2  0  0  0  0
 34 13  1  0  0  0  0
M  END
>  <MODEL>
1

>  <REMARK>
 VINA RESULT:     -11.4      0.000      0.000
  Name = 
  3 active torsions:
  status: ('A' for Active; 'I' for Inactive)
    1  A    between atoms: C_7  and  C_11
    2  A    between atoms: C_18  and  C_30
    3  A    between atoms: C_23  and  N_25
                            x       y       z     vdW  Elec       q    Type
                         _______ _______ _______ _____ _____    ______ ____

>  <TORSDO>
F 3

$$$$
=
 OpenBabel11052415543D

 34 39  0  0  0  0  0  0  0  0999 V2000
  186.9240  178.0770  144.1990 N   0  0  0  0  0  0  0  0  0  0  0  0
  183.3680  178.8960  144.9720 C   0  0  0  0  0  3  0  0  0  0  0  0
  185.2590  178.3930  146.4060 O   0  0  0  0  0  0  0  0  0  0  0  0
  189.6360  177.4280  144.6570 C   0  0  0  0  0  3  0  0  0  0  0  0
  187.8210  177.9050  143.0880 C   0  0  0  0  0  3  0  0  0  0  0  0
  188.8550  177.5860  145.7270 C   0  0  0  0  0  0  0  0  0  0  0  0
  188.6040  178.1880  148.1200 C   0  0  0  0  0  2  0  0  0  0  0  0
  189.4100  177.3810  147.1030 C   0  0  0  0  0  2  0  0  0  0  0  0
  189.1150  177.5940  143.2760 C   0  0  0  0  0  0  0  0  0  0  0  0
  186.6100  178.0690  146.6000 C   0  0  0  0  0  0  0  0  0  0  0  0
  187.4260  177.9070  145.5380 C   0  0  0  0  0  0  0  0  0  0  0  0
  187.1140  177.8610  148.0030 C   0  0  0  0  0  2  0  0  0  0  0  0
  182.8250  179.0730  143.6950 C   0  0  0  0  0  0  0  0  0  0  0  0
  183.6480  178.9170  142.5690 C   0  0  0  0  0  3  0  0  0  0  0  0
  184.7180  178.5690  145.1270 C   0  0  0  0  0  0  0  0  0  0  0  0
  184.9980  178.5900  142.7180 C   0  0  0  0  0  3  0  0  0  0  0  0
  185.5400  178.4140  144.0000 C   0  0  0  0  0  0  0  0  0  0  0  0
  192.3870  177.1060  141.2850 C   0  0  0  0  0  2  0  0  0  0  0  0
  189.5330  176.9310  140.9570 C   0  0  0  0  0  3  0  0  0  0  0  0
  192.0800  176.4040  137.5630 C   0  0  0  0  0  0  0  0  0  0  0  0
  192.6280  176.6970  138.8190 C   0  0  0  0  0  3  0  0  0  0  0  0
  191.7950  176.8800  139.9260 C   0  0  0  0  0  0  0  0  0  0  0  0
  189.8540  176.4430  138.5390 C   0  0  0  0  0  3  0  0  0  0  0  0
  190.4030  176.7470  139.7860 C   0  0  0  0  0  0  0  0  0  0  0  0
  190.6890  176.2740  137.4300 C   0  0  0  0  0  3  0  0  0  0  0  0
  190.0130  177.4250  142.1090 C   0  0  0  0  0  0  0  0  0  0  0  0
  191.4410  177.9280  142.1670 C   0  0  0  0  0  2  0  0  0  0  0  0
  192.9610  176.2210  136.3980 C   0  0  0  0  0  0  0  0  0  0  0  0
  192.5450  175.6200  135.3720 O   0  0  0  0  0  0  0  0  0  0  0  0
  194.2610  176.7120  136.4190 O   0  0  0  0  0  1  0  0  0  0  0  0
  180.3210  178.5580  143.8770 C   0  0  0  0  0  0  0  0  0  0  0  0
  178.9400  179.0790  143.6950 C   0  0  0  0  0  1  0  0  0  0  0  0
  180.4870  177.3810  144.2900 O   0  0  0  0  0  0  0  0  0  0  0  0
  181.4350  179.4080  143.5790 N   0  0  0  0  0  2  0  0  0  0  0  0
  1 11  1  0  0  0  0
  2 15  1  0  0  0  0
  3 10  1  0  0  0  0
  4  6  2  0  0  0  0
  5  9  2  0  0  0  0
  5  1  1  0  0  0  0
  6  8  1  0  0  0  0
  8  7  1  0  0  0  0
  9  4  1  0  0  0  0
 10 12  1  0  0  0  0
 11  6  1  0  0  0  0
 11 10  2  0  0  0  0
 12  7  1  0  0  0  0
 13  2  2  0  0  0  0
 14 16  2  0  0  0  0
 14 13  1  0  0  0  0
 15  3  1  0  0  0  0
 16 17  1  0  0  0  0
 17  1  1  0  0  0  0
 17 15  2  0  0  0  0
 18 27  1  0  0  0  0
 19 26  2  0  0  0  0
 20 21  1  0  0  0  0
 21 22  2  0  0  0  0
 22 18  1  0  0  0  0
 23 24  2  0  0  0  0
 24 22  1  0  0  0  0
 24 19  1  0  0  0  0
 25 20  2  0  0  0  0
 25 23  1  0  0  0  0
 26 27  1  0  0  0  0
 26  9  1  0  0  0  0
 28 30  1  0  0  0  0
 28 20  1  0  0  0  0
 29 28  2  0  0  0  0
 31 33  2  0  0  0  0
 32 31  1  0  0  0  0
 34 13  1  0  0  0  0
 34 31  1  0  0  0  0
M  END
>  <MODEL>
2

>  <REMARK>
 VINA RESULT:     -10.6      2.412      9.180
  Name = 
  3 active torsions:
  status: ('A' for Active; 'I' for Inactive)
    1  A    between atoms: C_7  and  C_11
    2  A    between atoms: C_18  and  C_30
    3  A    between atoms: C_23  and  N_25
                            x       y       z     vdW  Elec       q    Type
                         _______ _______ _______ _____ _____    ______ ____

>  <TORSDO>
F 3

$$$$
=
 OpenBabel11052415543D

 34 39  0  0  0  0  0  0  0  0999 V2000
  190.9540  176.5670  138.2560 N   0  0  0  0  0  0  0  0  0  0  0  0
  193.2600  175.5670  135.4990 C   0  0  0  0  0  3  0  0  0  0  0  0
  190.9710  176.3720  135.4810 O   0  0  0  0  0  0  0  0  0  0  0  0
  188.6000  177.4970  139.5130 C   0  0  0  0  0  3  0  0  0  0  0  0
  190.9000  176.6830  139.6890 C   0  0  0  0  0  3  0  0  0  0  0  0
  188.5940  177.4200  138.1820 C   0  0  0  0  0  0  0  0  0  0  0  0
  187.7350  178.2250  135.9980 C   0  0  0  0  0  2  0  0  0  0  0  0
  187.3610  177.7790  137.4110 C   0  0  0  0  0  2  0  0  0  0  0  0
  189.7940  177.1200  140.3140 C   0  0  0  0  0  0  0  0  0  0  0  0
  189.8180  176.8290  136.1350 C   0  0  0  0  0  0  0  0  0  0  0  0
  189.7940  176.9210  137.4800 C   0  0  0  0  0  0  0  0  0  0  0  0
  188.6000  177.1650  135.3140 C   0  0  0  0  0  2  0  0  0  0  0  0
  194.4150  175.2070  136.2010 C   0  0  0  0  0  0  0  0  0  0  0  0
  194.4260  175.2980  137.6020 C   0  0  0  0  0  3  0  0  0  0  0  0
  192.1260  176.0130  136.1850 C   0  0  0  0  0  0  0  0  0  0  0  0
  193.2960  175.7430  138.2920 C   0  0  0  0  0  3  0  0  0  0  0  0
  192.1390  176.1030  137.5860 C   0  0  0  0  0  0  0  0  0  0  0  0
  191.0420  177.8590  143.8920 C   0  0  0  0  0  2  0  0  0  0  0  0
  188.6060  177.3720  142.4390 C   0  0  0  0  0  3  0  0  0  0  0  0
  188.4840  177.7170  146.6990 C   0  0  0  0  0  0  0  0  0  0  0  0
  189.7060  177.8030  146.0170 C   0  0  0  0  0  3  0  0  0  0  0  0
  189.7470  177.6790  144.6260 C   0  0  0  0  0  0  0  0  0  0  0  0
  187.3360  177.4180  144.5770 C   0  0  0  0  0  3  0  0  0  0  0  0
  188.5570  177.4920  143.9040 C   0  0  0  0  0  0  0  0  0  0  0  0
  187.3000  177.5280  145.9700 C   0  0  0  0  0  3  0  0  0  0  0  0
  189.7730  177.2310  141.7920 C   0  0  0  0  0  0  0  0  0  0  0  0
  191.0500  177.0550  142.5880 C   0  0  0  0  0  2  0  0  0  0  0  0
  188.4470  177.8390  148.1650 C   0  0  0  0  0  0  0  0  0  0  0  0
  187.5590  177.2440  148.8330 O   0  0  0  0  0  1  0  0  0  0  0  0
  189.3930  178.6110  148.8290 O   0  0  0  0  0  0  0  0  0  0  0  0
  196.8550  175.3610  135.4310 C   0  0  0  0  0  0  0  0  0  0  0  0
  197.9240  174.7490  134.6010 C   0  0  0  0  0  1  0  0  0  0  0  0
  197.1070  176.4010  136.0940 O   0  0  0  0  0  0  0  0  0  0  0  0
  195.5570  174.7540  135.4600 N   0  0  0  0  0  2  0  0  0  0  0  0
  1  5  1  0  0  0  0
  2 15  2  0  0  0  0
  2 13  1  0  0  0  0
  3 10  1  0  0  0  0
  3 15  1  0  0  0  0
  4  9  1  0  0  0  0
  5  9  2  0  0  0  0
  6  4  2  0  0  0  0
  7  8  1  0  0  0  0
  8  6  1  0  0  0  0
  9 26  1  0  0  0  0
 10 11  2  0  0  0  0
 11  6  1  0  0  0  0
 11  1  1  0  0  0  0
 12  7  1  0  0  0  0
 12 10  1  0  0  0  0
 13 14  2  0  0  0  0
 14 16  1  0  0  0  0
 15 17  1  0  0  0  0
 17  1  1  0  0  0  0
 17 16  2  0  0  0  0
 18 22  1  0  0  0  0
 19 24  1  0  0  0  0
 20 28  1  0  0  0  0
 21 20  1  0  0  0  0
 22 21  2  0  0  0  0
 23 25  1  0  0  0  0
 24 23  2  0  0  0  0
 24 22  1  0  0  0  0
 25 20  2  0  0  0  0
 26 19  2  0  0  0  0
 26 27  1  0  0  0  0
 27 18  1  0  0  0  0
 28 30  2  0  0  0  0
 28 29  1  0  0  0  0
 31 34  1  0  0  0  0
 31 33  2  0  0  0  0
 32 31  1  0  0  0  0
 34 13  1  0  0  0  0
M  END
>  <MODEL>
3

>  <REMARK>
 VINA RESULT:     -10.1      4.463      7.448
  Name = 
  3 active torsions:
  status: ('A' for Active; 'I' for Inactive)
    1  A    between atoms: C_7  and  C_11
    2  A    between atoms: C_18  and  C_30
    3  A    between atoms: C_23  and  N_25
                            x       y       z     vdW  Elec       q    Type
                         _______ _______ _______ _____ _____    ______ ____

>  <TORSDO>
F 3

$$$$
=
 OpenBabel11052415543D

 34 39  0  0  0  0  0  0  0  0999 V2000
  186.8720  177.9670  143.8160 N   0  0  0  0  0  0  0  0  0  0  0  0
  183.5000  178.9940  145.0390 C   0  0  0  0  0  3  0  0  0  0  0  0
  185.5300  178.3810  146.2180 O   0  0  0  0  0  0  0  0  0  0  0  0
  189.5780  177.1610  143.9210 C   0  0  0  0  0  3  0  0  0  0  0  0
  187.6040  177.7420  142.5990 C   0  0  0  0  0  3  0  0  0  0  0  0
  188.9540  177.3650  145.0820 C   0  0  0  0  0  0  0  0  0  0  0  0
  189.0530  177.9810  147.4830 C   0  0  0  0  0  2  0  0  0  0  0  0
  189.6710  177.1280  146.3760 C   0  0  0  0  0  2  0  0  0  0  0  0
  188.8910  177.3560  142.6180 C   0  0  0  0  0  0  0  0  0  0  0  0
  186.8740  177.9790  146.2370 C   0  0  0  0  0  0  0  0  0  0  0  0
  187.5330  177.7690  145.0790 C   0  0  0  0  0  0  0  0  0  0  0  0
  187.5440  177.7430  147.5640 C   0  0  0  0  0  2  0  0  0  0  0  0
  182.8060  179.2020  143.8420 C   0  0  0  0  0  0  0  0  0  0  0  0
  183.4650  178.9970  142.6200 C   0  0  0  0  0  3  0  0  0  0  0  0
  184.8380  178.5880  145.0200 C   0  0  0  0  0  0  0  0  0  0  0  0
  184.8020  178.5920  142.5950 C   0  0  0  0  0  3  0  0  0  0  0  0
  185.4950  178.3850  143.7960 C   0  0  0  0  0  0  0  0  0  0  0  0
  189.5510  177.2490  138.8150 C   0  0  0  0  0  2  0  0  0  0  0  0
  190.9590  177.1560  141.3250 C   0  0  0  0  0  3  0  0  0  0  0  0
  193.1090  176.5450  137.6800 C   0  0  0  0  0  0  0  0  0  0  0  0
  191.7230  176.7520  137.6570 C   0  0  0  0  0  3  0  0  0  0  0  0
  191.0180  176.9400  138.8480 C   0  0  0  0  0  0  0  0  0  0  0  0
  193.0870  176.7540  140.1010 C   0  0  0  0  0  3  0  0  0  0  0  0
  191.7050  176.9470  140.0740 C   0  0  0  0  0  0  0  0  0  0  0  0
  193.7870  176.5510  138.9080 C   0  0  0  0  0  3  0  0  0  0  0  0
  189.6170  177.1350  141.3450 C   0  0  0  0  0  0  0  0  0  0  0  0
  188.8580  176.7560  140.0900 C   0  0  0  0  0  2  0  0  0  0  0  0
  193.8450  176.3370  136.4220 C   0  0  0  0  0  0  0  0  0  0  0  0
  194.7460  177.1440  136.0690 O   0  0  0  0  0  1  0  0  0  0  0  0
  193.5530  175.2460  135.6110 O   0  0  0  0  0  0  0  0  0  0  0  0
  180.2840  178.7670  143.9790 C   0  0  0  0  0  0  0  0  0  0  0  0
  178.9310  179.3790  144.0370 C   0  0  0  0  0  1  0  0  0  0  0  0
  180.3950  177.5140  143.9950 O   0  0  0  0  0  0  0  0  0  0  0  0
  181.4350  179.6180  143.9060 N   0  0  0  0  0  2  0  0  0  0  0  0
  1 11  1  0  0  0  0
  3 10  1  0  0  0  0
  4  6  2  0  0  0  0
  5  9  2  0  0  0  0
  5  1  1  0  0  0  0
  6  8  1  0  0  0  0
  7 12  1  0  0  0  0
  8  7  1  0  0  0  0
  9  4  1  0  0  0  0
 10 12  1  0  0  0  0
 11  6  1  0  0  0  0
 11 10  2  0  0  0  0
 13 34  1  0  0  0  0
 13  2  2  0  0  0  0
 14 13  1  0  0  0  0
 15  2  1  0  0  0  0
 15  3  1  0  0  0  0
 16 14  2  0  0  0  0
 16 17  1  0  0  0  0
 17  1  1  0  0  0  0
 17 15  2  0  0  0  0
 18 22  1  0  0  0  0
 18 27  1  0  0  0  0
 19 26  2  0  0  0  0
 20 25  1  0  0  0  0
 21 20  2  0  0  0  0
 21 22  1  0  0  0  0
 22 24  2  0  0  0  0
 24 23  1  0  0  0  0
 24 19  1  0  0  0  0
 25 23  2  0  0  0  0
 26  9  1  0  0  0  0
 27 26  1  0  0  0  0
 28 20  1  0  0  0  0
 29 28  1  0  0  0  0
 30 28  2  0  0  0  0
 31 33  2  0  0  0  0
 31 32  1  0  0  0  0
 34 31  1  0  0  0  0
M  END
>  <MODEL>
4

>  <REMARK>
 VINA RESULT:      -9.8      2.364      9.462
  Name = 
  3 active torsions:
  status: ('A' for Active; 'I' for Inactive)
    1  A    between atoms: C_7  and  C_11
    2  A    between atoms: C_18  and  C_30
    3  A    between atoms: C_23  and  N_25
                            x       y       z     vdW  Elec       q    Type
                         _______ _______ _______ _____ _____    ______ ____

>  <TORSDO>
F 3

$$$$
=
 OpenBabel11052415543D

 34 39  0  0  0  0  0  0  0  0999 V2000
  186.3670  178.2060  143.7430 N   0  0  0  0  0  0  0  0  0  0  0  0
  182.7170  178.9140  144.0520 C   0  0  0  0  0  3  0  0  0  0  0  0
  184.4460  178.5760  145.7210 O   0  0  0  0  0  0  0  0  0  0  0  0
  189.0290  177.7030  144.5470 C   0  0  0  0  0  3  0  0  0  0  0  0
  187.3930  178.0090  142.7540 C   0  0  0  0  0  3  0  0  0  0  0  0
  188.1230  177.8880  145.5080 C   0  0  0  0  0  0  0  0  0  0  0  0
  187.5740  178.6150  147.8150 C   0  0  0  0  0  2  0  0  0  0  0  0
  188.5220  177.7870  146.9490 C   0  0  0  0  0  2  0  0  0  0  0  0
  188.6660  177.7660  143.1070 C   0  0  0  0  0  0  0  0  0  0  0  0
  185.7760  178.3230  146.0880 C   0  0  0  0  0  0  0  0  0  0  0  0
  186.7150  178.1360  145.1380 C   0  0  0  0  0  0  0  0  0  0  0  0
  186.1200  178.2180  147.5500 C   0  0  0  0  0  2  0  0  0  0  0  0
  182.3210  178.9930  142.7130 C   0  0  0  0  0  0  0  0  0  0  0  0
  183.2750  178.8090  141.7010 C   0  0  0  0  0  3  0  0  0  0  0  0
  184.0510  178.6550  144.3810 C   0  0  0  0  0  0  0  0  0  0  0  0
  184.6100  178.5490  142.0230 C   0  0  0  0  0  3  0  0  0  0  0  0
  185.0040  178.4710  143.3670 C   0  0  0  0  0  0  0  0  0  0  0  0
  192.1410  177.1290  141.5470 C   0  0  0  0  0  2  0  0  0  0  0  0
  189.3490  177.1290  140.8450 C   0  0  0  0  0  3  0  0  0  0  0  0
  192.2880  176.5240  137.7980 C   0  0  0  0  0  0  0  0  0  0  0  0
  192.6810  176.7590  139.1230 C   0  0  0  0  0  3  0  0  0  0  0  0
  191.7210  176.9670  140.1170 C   0  0  0  0  0  0  0  0  0  0  0  0
  189.9590  176.6730  138.4760 C   0  0  0  0  0  3  0  0  0  0  0  0
  190.3550  176.9180  139.7920 C   0  0  0  0  0  0  0  0  0  0  0  0
  190.9220  176.4790  137.4820 C   0  0  0  0  0  3  0  0  0  0  0  0
  189.7000  177.5700  142.0630 C   0  0  0  0  0  0  0  0  0  0  0  0
  191.1330  177.9870  142.3210 C   0  0  0  0  0  2  0  0  0  0  0  0
  193.3040  176.3150  136.7540 C   0  0  0  0  0  0  0  0  0  0  0  0
  194.3090  177.0710  136.6800 O   0  0  0  0  0  1  0  0  0  0  0  0
  193.1640  175.2780  135.8380 O   0  0  0  0  0  0  0  0  0  0  0  0
  180.3920  179.6080  141.1420 C   0  0  0  0  0  0  0  0  0  0  0  0
  178.9310  179.8520  141.0240 C   0  0  0  0  0  1  0  0  0  0  0  0
  181.1190  179.7100  140.1200 O   0  0  0  0  0  0  0  0  0  0  0  0
  180.9430  179.2610  142.4180 N   0  0  0  0  0  2  0  0  0  0  0  0
  1 11  1  0  0  0  0
  2 15  1  0  0  0  0
  3 10  1  0  0  0  0
  4  6  2  0  0  0  0
  5  9  2  0  0  0  0
  5  1  1  0  0  0  0
  6  8  1  0  0  0  0
  8  7  1  0  0  0  0
  9  4  1  0  0  0  0
 10 12  1  0  0  0  0
 11  6  1  0  0  0  0
 11 10  2  0  0  0  0
 12  7  1  0  0  0  0
 13  2  2  0  0  0  0
 14 16  2  0  0  0  0
 14 13  1  0  0  0  0
 15  3  1  0  0  0  0
 16 17  1  0  0  0  0
 17  1  1  0  0  0  0
 17 15  2  0  0  0  0
 18 27  1  0  0  0  0
 19 26  2  0  0  0  0
 20 21  1  0  0  0  0
 21 22  2  0  0  0  0
 22 18  1  0  0  0  0
 23 24  2  0  0  0  0
 24 22  1  0  0  0  0
 24 19  1  0  0  0  0
 25 20  2  0  0  0  0
 25 23  1  0  0  0  0
 26 27  1  0  0  0  0
 26  9  1  0  0  0  0
 28 20  1  0  0  0  0
 29 28  1  0  0  0  0
 30 28  2  0  0  0  0
 31 34  1  0  0  0  0
 32 31  1  0  0  0  0
 33 31  2  0  0  0  0
 34 13  1  0  0  0  0
M  END
>  <MODEL>
5

>  <REMARK>
 VINA RESULT:      -9.8      2.400      9.142
  Name = 
  3 active torsions:
  status: ('A' for Active; 'I' for Inactive)
    1  A    between atoms: C_7  and  C_11
    2  A    between atoms: C_18  and  C_30
    3  A    between atoms: C_23  and  N_25
                            x       y       z     vdW  Elec       q    Type
                         _______ _______ _______ _____ _____    ______ ____

>  <TORSDO>
F 3

$$$$
=
 OpenBabel11052415543D

 34 39  0  0  0  0  0  0  0  0999 V2000
  189.6360  177.5060  141.4860 N   0  0  0  0  0  0  0  0  0  0  0  0
  192.6500  176.7470  139.4230 C   0  0  0  0  0  3  0  0  0  0  0  0
  192.3450  176.9680  141.8200 O   0  0  0  0  0  0  0  0  0  0  0  0
  188.0730  177.9670  143.7950 C   0  0  0  0  0  3  0  0  0  0  0  0
  188.2310  177.7880  141.3600 C   0  0  0  0  0  3  0  0  0  0  0  0
  189.3680  177.7000  143.9740 C   0  0  0  0  0  0  0  0  0  0  0  0
  191.1850  176.7920  145.3970 C   0  0  0  0  0  2  0  0  0  0  0  0
  189.9520  177.6930  145.3540 C   0  0  0  0  0  2  0  0  0  0  0  0
  187.4640  178.0140  142.4400 C   0  0  0  0  0  0  0  0  0  0  0  0
  191.5430  177.2030  142.9460 C   0  0  0  0  0  0  0  0  0  0  0  0
  190.2300  177.4710  142.7970 C   0  0  0  0  0  0  0  0  0  0  0  0
  192.1830  177.1970  144.3090 C   0  0  0  0  0  2  0  0  0  0  0  0
  192.1290  176.7690  138.1250 C   0  0  0  0  0  0  0  0  0  0  0  0
  190.7640  177.0400  137.9360 C   0  0  0  0  0  3  0  0  0  0  0  0
  191.8210  176.9910  140.5220 C   0  0  0  0  0  0  0  0  0  0  0  0
  189.9320  177.2840  139.0310 C   0  0  0  0  0  3  0  0  0  0  0  0
  190.4570  177.2610  140.3310 C   0  0  0  0  0  0  0  0  0  0  0  0
  184.0200  178.3070  140.7200 C   0  0  0  0  0  2  0  0  0  0  0  0
  185.2050  178.2830  143.3430 C   0  0  0  0  0  3  0  0  0  0  0  0
  181.0240  179.0770  142.9280 C   0  0  0  0  0  0  0  0  0  0  0  0
  181.8190  178.8670  141.7930 C   0  0  0  0  0  3  0  0  0  0  0  0
  183.1880  178.6180  141.9270 C   0  0  0  0  0  0  0  0  0  0  0  0
  182.9750  178.7510  144.3410 C   0  0  0  0  0  3  0  0  0  0  0  0
  183.7660  178.5550  143.2070 C   0  0  0  0  0  0  0  0  0  0  0  0
  181.6090  179.0140  144.2010 C   0  0  0  0  0  3  0  0  0  0  0  0
  186.0190  178.2990  142.2760 C   0  0  0  0  0  0  0  0  0  0  0  0
  185.4760  178.7350  140.9300 C   0  0  0  0  0  2  0  0  0  0  0  0
  179.5850  179.3480  142.7790 C   0  0  0  0  0  0  0  0  0  0  0  0
  178.9320  179.8670  143.7240 O   0  0  0  0  0  1  0  0  0  0  0  0
  178.9310  179.0350  141.5930 O   0  0  0  0  0  0  0  0  0  0  0  0
  194.1480  175.6410  137.0220 C   0  0  0  0  0  0  0  0  0  0  0  0
  194.9540  175.5000  135.7810 C   0  0  0  0  0  1  0  0  0  0  0  0
  194.4770  174.9910  138.0490 O   0  0  0  0  0  0  0  0  0  0  0  0
  193.0120  176.5140  137.0240 N   0  0  0  0  0  2  0  0  0  0  0  0
  1 11  1  0  0  0  0
  2 15  1  0  0  0  0
  3 10  1  0  0  0  0
  4  6  2  0  0  0  0
  5  1  1  0  0  0  0
  5  9  2  0  0  0  0
  6  8  1  0  0  0  0
  8  7  1  0  0  0  0
  9  4  1  0  0  0  0
 10 12  1  0  0  0  0
 11 10  2  0  0  0  0
 11  6  1  0  0  0  0
 12  7  1  0  0  0  0
 13  2  2  0  0  0  0
 14 13  1  0  0  0  0
 14 16  2  0  0  0  0
 15  3  1  0  0  0  0
 16 17  1  0  0  0  0
 17 15  2  0  0  0  0
 17  1  1  0  0  0  0
 18 27  1  0  0  0  0
 18 22  1  0  0  0  0
 20 25  1  0  0  0  0
 21 22  1  0  0  0  0
 21 20  2  0  0  0  0
 22 24  2  0  0  0  0
 24 19  1  0  0  0  0
 24 23  1  0  0  0  0
 25 23  2  0  0  0  0
 26  9  1  0  0  0  0
 26 19  2  0  0  0  0
 27 26  1  0  0  0  0
 28 20  1  0  0  0  0
 28 29  1  0  0  0  0
 30 28  2  0  0  0  0
 31 34  1  0  0  0  0
 31 33  2  0  0  0  0
 32 31  1  0  0  0  0
 34 13  1  0  0  0  0
M  END
>  <MODEL>
6

>  <REMARK>
 VINA RESULT:      -8.9      1.208      2.084
  Name = 
  3 active torsions:
  status: ('A' for Active; 'I' for Inactive)
    1  A    between atoms: C_7  and  C_11
    2  A    between atoms: C_18  and  C_30
    3  A    between atoms: C_23  and  N_25
                            x       y       z     vdW  Elec       q    Type
                         _______ _______ _______ _____ _____    ______ ____

>  <TORSDO>
F 3

$$$$
=
 OpenBabel11052415543D

 34 39  0  0  0  0  0  0  0  0999 V2000
  188.6070  176.9860  138.1340 N   0  0  0  0  0  0  0  0  0  0  0  0
  186.1830  177.0490  135.2980 C   0  0  0  0  0  3  0  0  0  0  0  0
  188.5850  176.7090  135.3650 O   0  0  0  0  0  0  0  0  0  0  0  0
  191.0820  176.7510  139.4780 C   0  0  0  0  0  3  0  0  0  0  0  0
  188.6650  177.1220  139.5640 C   0  0  0  0  0  3  0  0  0  0  0  0
  191.0880  176.6050  138.1520 C   0  0  0  0  0  0  0  0  0  0  0  0
  192.1120  175.6280  136.1150 C   0  0  0  0  0  2  0  0  0  0  0  0
  192.3760  176.3670  137.4260 C   0  0  0  0  0  2  0  0  0  0  0  0
  189.8280  177.0180  140.2300 C   0  0  0  0  0  0  0  0  0  0  0  0
  189.7970  176.5990  136.0620 C   0  0  0  0  0  0  0  0  0  0  0  0
  189.8220  176.7380  137.4030 C   0  0  0  0  0  0  0  0  0  0  0  0
  191.0650  176.3730  135.2820 C   0  0  0  0  0  2  0  0  0  0  0  0
  184.9720  177.2910  135.9550 C   0  0  0  0  0  0  0  0  0  0  0  0
  184.9620  177.4340  137.3510 C   0  0  0  0  0  3  0  0  0  0  0  0
  187.3740  176.9510  136.0250 C   0  0  0  0  0  0  0  0  0  0  0  0
  186.1490  177.3370  138.0820 C   0  0  0  0  0  3  0  0  0  0  0  0
  187.3620  177.0940  137.4210 C   0  0  0  0  0  0  0  0  0  0  0  0
  191.1770  177.8600  143.7480 C   0  0  0  0  0  2  0  0  0  0  0  0
  188.7050  177.2940  142.3870 C   0  0  0  0  0  3  0  0  0  0  0  0
  188.7140  177.7310  146.6400 C   0  0  0  0  0  0  0  0  0  0  0  0
  189.9110  177.8250  145.9170 C   0  0  0  0  0  3  0  0  0  0  0  0
  189.9100  177.6720  144.5280 C   0  0  0  0  0  0  0  0  0  0  0  0
  187.5040  177.3630  144.5650 C   0  0  0  0  0  3  0  0  0  0  0  0
  188.7010  177.4450  143.8500 C   0  0  0  0  0  0  0  0  0  0  0  0
  187.5110  177.5030  145.9550 C   0  0  0  0  0  3  0  0  0  0  0  0
  189.8530  177.1610  141.7050 C   0  0  0  0  0  0  0  0  0  0  0  0
  191.1580  177.0270  142.4620 C   0  0  0  0  0  2  0  0  0  0  0  0
  188.7230  177.8840  148.1040 C   0  0  0  0  0  0  0  0  0  0  0  0
  189.7700  178.2500  148.7010 O   0  0  0  0  0  0  0  0  0  0  0  0
  187.5730  177.6280  148.8430 O   0  0  0  0  0  1  0  0  0  0  0  0
  182.4750  176.8960  135.5350 C   0  0  0  0  0  0  0  0  0  0  0  0
  181.3400  177.0840  134.5940 C   0  0  0  0  0  1  0  0  0  0  0  0
  182.2760  176.3130  136.6320 O   0  0  0  0  0  0  0  0  0  0  0  0
  183.7730  177.3850  135.1740 N   0  0  0  0  0  2  0  0  0  0  0  0
  1  5  1  0  0  0  0
  2 13  2  0  0  0  0
  2 15  1  0  0  0  0
  3 15  1  0  0  0  0
  3 10  1  0  0  0  0
  4  9  1  0  0  0  0
  5  9  2  0  0  0  0
  6  4  2  0  0  0  0
  7  8  1  0  0  0  0
  8  6  1  0  0  0  0
  9 26  1  0  0  0  0
 10 11  2  0  0  0  0
 11  1  1  0  0  0  0
 11  6  1  0  0  0  0
 12 10  1  0  0  0  0
 12  7  1  0  0  0  0
 13 14  1  0  0  0  0
 14 16  2  0  0  0  0
 15 17  2  0  0  0  0
 17 16  1  0  0  0  0
 17  1  1  0  0  0  0
 18 22  1  0  0  0  0
 19 24  1  0  0  0  0
 20 28  1  0  0  0  0
 21 20  2  0  0  0  0
 22 21  1  0  0  0  0
 23 25  2  0  0  0  0
 24 22  2  0  0  0  0
 24 23  1  0  0  0  0
 25 20  1  0  0  0  0
 26 19  2  0  0  0  0
 26 27  1  0  0  0  0
 27 18  1  0  0  0  0
 28 29  2  0  0  0  0
 28 30  1  0  0  0  0
 31 33  2  0  0  0  0
 32 31  1  0  0  0  0
 34 31  1  0  0  0  0
 34 13  1  0  0  0  0
M  END
>  <MODEL>
7

>  <REMARK>
 VINA RESULT:      -8.9      3.966      8.421
  Name = 
  3 active torsions:
  status: ('A' for Active; 'I' for Inactive)
    1  A    between atoms: C_7  and  C_11
    2  A    between atoms: C_18  and  C_30
    3  A    between atoms: C_23  and  N_25
                            x       y       z     vdW  Elec       q    Type
                         _______ _______ _______ _____ _____    ______ ____

>  <TORSDO>
F 3

$$$$
=
 OpenBabel11052415543D

 34 39  0  0  0  0  0  0  0  0999 V2000
  186.5990  178.2530  139.8730 N   0  0  0  0  0  0  0  0  0  0  0  0
  183.0970  179.1030  138.9050 C   0  0  0  0  0  3  0  0  0  0  0  0
  185.1120  178.8020  137.5860 O   0  0  0  0  0  0  0  0  0  0  0  0
  189.3490  177.6780  139.5700 C   0  0  0  0  0  3  0  0  0  0  0  0
  187.4060  177.9640  141.0280 C   0  0  0  0  0  3  0  0  0  0  0  0
  188.6490  177.9280  138.4620 C   0  0  0  0  0  0  0  0  0  0  0  0
  188.3230  177.6130  136.0230 C   0  0  0  0  0  2  0  0  0  0  0  0
  189.3290  177.9380  137.1270 C   0  0  0  0  0  2  0  0  0  0  0  0
  188.7160  177.6890  140.9140 C   0  0  0  0  0  0  0  0  0  0  0  0
  186.4790  178.5140  137.4690 C   0  0  0  0  0  0  0  0  0  0  0  0
  187.2120  178.2530  138.5710 C   0  0  0  0  0  0  0  0  0  0  0  0
  187.1160  178.5500  136.1050 C   0  0  0  0  0  2  0  0  0  0  0  0
  182.4480  179.1180  140.1440 C   0  0  0  0  0  0  0  0  0  0  0  0
  183.1800  178.8450  141.3090 C   0  0  0  0  0  3  0  0  0  0  0  0
  184.4630  178.8170  138.8270 C   0  0  0  0  0  0  0  0  0  0  0  0
  184.5460  178.5590  141.2370 C   0  0  0  0  0  3  0  0  0  0  0  0
  185.1950  178.5430  139.9930 C   0  0  0  0  0  0  0  0  0  0  0  0
  191.8290  177.1030  143.1210 C   0  0  0  0  0  2  0  0  0  0  0  0
  189.0080  177.6250  143.3430 C   0  0  0  0  0  3  0  0  0  0  0  0
  191.2830  176.8090  146.8710 C   0  0  0  0  0  0  0  0  0  0  0  0
  191.8980  176.7860  145.6120 C   0  0  0  0  0  3  0  0  0  0  0  0
  191.1530  177.0420  144.4580 C   0  0  0  0  0  0  0  0  0  0  0  0
  189.1700  177.3840  145.8140 C   0  0  0  0  0  3  0  0  0  0  0  0
  189.7850  177.3470  144.5610 C   0  0  0  0  0  0  0  0  0  0  0  0
  189.9160  177.1140  146.9650 C   0  0  0  0  0  3  0  0  0  0  0  0
  189.5190  177.3930  142.1250 C   0  0  0  0  0  0  0  0  0  0  0  0
  190.8640  176.7080  141.9980 C   0  0  0  0  0  2  0  0  0  0  0  0
  192.0710  176.5300  148.0820 C   0  0  0  0  0  0  0  0  0  0  0  0
  192.4740  175.3610  148.3260 O   0  0  0  0  0  0  0  0  0  0  0  0
  192.3800  177.5540  148.9690 O   0  0  0  0  0  1  0  0  0  0  0  0
  180.4050  180.5910  139.6690 C   0  0  0  0  0  0  0  0  0  0  0  0
  178.9310  180.7300  139.7980 C   0  0  0  0  0  1  0  0  0  0  0  0
  181.0640  181.5070  139.1120 O   0  0  0  0  0  0  0  0  0  0  0  0
  181.0450  179.4160  140.1810 N   0  0  0  0  0  2  0  0  0  0  0  0
  1 17  1  0  0  0  0
  1  5  1  0  0  0  0
  2 13  1  0  0  0  0
  3 15  1  0  0  0  0
  4  9  1  0  0  0  0
  6 11  1  0  0  0  0
  6  4  2  0  0  0  0
  7 12  1  0  0  0  0
  7  8  1  0  0  0  0
  8  6  1  0  0  0  0
  9  5  2  0  0  0  0
  9 26  1  0  0  0  0
 10  3  1  0  0  0  0
 10 11  2  0  0  0  0
 11  1  1  0  0  0  0
 12 10  1  0  0  0  0
 13 34  1  0  0  0  0
 13 14  2  0  0  0  0
 15  2  2  0  0  0  0
 15 17  1  0  0  0  0
 16 14  1  0  0  0  0
 17 16  2  0  0  0  0
 18 22  1  0  0  0  0
 19 24  1  0  0  0  0
 20 25  1  0  0  0  0
 20 28  1  0  0  0  0
 21 20  2  0  0  0  0
 22 24  2  0  0  0  0
 22 21  1  0  0  0  0
 23 25  2  0  0  0  0
 24 23  1  0  0  0  0
 26 19  2  0  0  0  0
 27 26  1  0  0  0  0
 27 18  1  0  0  0  0
 28 29  2  0  0  0  0
 28 30  1  0  0  0  0
 31 32  1  0  0  0  0
 31 34  1  0  0  0  0
 33 31  2  0  0  0  0
M  END
>  <MODEL>
8

>  <REMARK>
 VINA RESULT:      -8.9      3.266      9.711
  Name = 
  3 active torsions:
  status: ('A' for Active; 'I' for Inactive)
    1  A    between atoms: C_7  and  C_11
    2  A    between atoms: C_18  and  C_30
    3  A    between atoms: C_23  and  N_25
                            x       y       z     vdW  Elec       q    Type
                         _______ _______ _______ _____ _____    ______ ____

>  <TORSDO>
F 3

$$$$
