=
 OpenBabel11052414253D

 34 37  0  0  1  0  0  0  0  0999 V2000
  192.0450  174.6390  137.9520 C   0  0  1  0  0  3  0  0  0  0  0  0
  192.8580  176.9650  138.1900 C   0  0  1  0  0  3  0  0  0  0  0  0
  190.3300  176.4350  138.5330 C   0  0  1  0  0  3  0  0  0  0  0  0
  193.5210  174.7460  137.9650 C   0  0  0  0  0  0  0  0  0  0  0  0
  193.9960  176.0760  138.0450 N   0  0  0  0  0  2  0  0  0  0  0  0
  191.7670  177.3170  140.4100 C   0  0  0  0  0  3  0  0  0  0  0  0
  191.6330  176.1030  137.7990 C   0  0  2  0  0  3  0  0  0  0  0  0
  194.2980  173.7550  137.9390 O   0  0  0  0  0  0  0  0  0  0  0  0
  192.8250  177.4540  139.6130 C   0  0  0  0  0  3  0  0  0  0  0  0
  190.5580  176.7040  139.9500 N   0  0  0  0  0  0  0  0  0  0  0  0
  188.4630  177.2080  137.0600 C   0  0  1  0  0  0  0  0  0  0  0  0
  189.6320  177.6250  137.8830 C   0  0  2  0  0  3  0  0  0  0  0  0
  189.7040  177.5270  136.4770 O   0  0  0  0  0  0  0  0  0  0  0  0
  188.1860  175.8460  136.9170 O   0  0  0  0  0  1  0  0  0  0  0  0
  186.6400  178.6380  137.7720 F   0  0  0  0  0  0  0  0  0  0  0  0
  187.3620  178.1960  136.6740 C   0  0  2  0  0  3  0  0  0  0  0  0
  186.4880  177.7030  135.5110 C   0  0  0  0  0  2  0  0  0  0  0  0
  185.1370  176.0470  136.6240 O   0  0  0  0  0  1  0  0  0  0  0  0
  184.1830  177.0600  134.6780 C   0  0  0  0  0  1  0  0  0  0  0  0
  185.0810  177.2320  135.8890 C   0  0  2  0  0  3  0  0  0  0  0  0
  191.5820  173.8340  136.7470 C   0  0  0  0  0  2  0  0  0  0  0  0
  191.7780  174.6300  135.4720 C   0  0  0  0  0  1  0  0  0  0  0  0
  189.4870  176.4170  140.8930 C   0  0  0  0  0  2  0  0  0  0  0  0
  189.9870  176.5440  142.3250 C   0  0  2  0  0  3  0  0  0  0  0  0
  190.3560  175.2890  142.8060 O   0  0  0  0  0  1  0  0  0  0  0  0
  188.8950  177.1200  143.2070 C   0  0  0  0  0  2  0  0  0  0  0  0
  189.0870  176.6960  144.5240 O   0  0  0  0  0  0  0  0  0  0  0  0
  189.1380  177.8710  145.2820 C   0  0  2  0  0  3  0  0  0  0  0  0
  189.8030  177.6180  146.6280 C   0  0  1  0  0  3  0  0  0  0  0  0
  188.5930  176.8190  147.7210 S   0  0  0  0  0  0  0  0  0  0  0  0
  187.1990  177.4120  146.7080 C   0  0  0  0  0  2  0  0  0  0  0  0
  187.7300  178.3170  145.6110 C   0  0  0  0  0  2  0  0  0  0  0  0
  191.8310  176.9310  147.6920 O   0  0  0  0  0  1  0  0  0  0  0  0
  191.0750  176.7870  146.5280 C   0  0  0  0  0  2  0  0  0  0  0  0
  1 21  1  6  0  0  0
  1  4  1  0  0  0  0
  2  9  1  1  0  0  0
  3 10  1  1  0  0  0
  4  5  1  0  0  0  0
  5  2  1  0  0  0  0
  7  1  1  0  0  0  0
  7  2  1  0  0  0  0
  7  3  1  0  0  0  0
  8  4  2  0  0  0  0
  9  6  2  0  0  0  0
 10  6  1  0  0  0  0
 10 23  1  0  0  0  0
 11 12  1  0  0  0  0
 12  3  1  0  0  0  0
 13 11  1  0  0  0  0
 13 12  1  0  0  0  0
 14 11  1  0  0  0  0
 16 11  1  0  0  0  0
 16 15  1  0  0  0  0
 17 20  1  0  0  0  0
 17 16  1  0  0  0  0
 19 20  1  0  0  0  0
 20 18  1  0  0  0  0
 22 21  1  0  0  0  0
 23 24  1  0  0  0  0
 24 25  1  0  0  0  0
 24 26  1  0  0  0  0
 26 27  1  0  0  0  0
 27 28  1  0  0  0  0
 28 32  1  0  0  0  0
 28 29  1  0  0  0  0
 29 30  1  0  0  0  0
 31 30  1  0  0  0  0
 32 31  1  0  0  0  0
 34 29  1  0  0  0  0
 34 33  1  0  0  0  0
M  END
>  <MODEL>
1

>  <REMARK>
 VINA RESULT:      -6.0      0.000      0.000
  Name = 
  11 active torsions:
  status: ('A' for Active; 'I' for Inactive)
    1  A    between atoms: C_1  and  C_24
    2  A    between atoms: O_3  and  C_13
    3  A    between atoms: O_3  and  C_17
    4  A    between atoms: C_4  and  C_21
    5  A    between atoms: C_5  and  C_18
    6  A    between atoms: C_5  and  N_31
    7  A    between atoms: C_7  and  C_23
    8  A    between atoms: C_12  and  C_23
    9  A    between atoms: C_12  and  C_27
   10  A    between atoms: C_14  and  C_34
   11  A    between atoms: C_17  and  C_18
                            x       y       z     vdW  Elec       q    Type
                         _______ _______ _______ _____ _____    ______ ____

>  <TORSDO>
F 11

$$$$
=
 OpenBabel11052414253D

 34 37  0  0  1  0  0  0  0  0999 V2000
  192.4490  177.2630  138.8840 C   0  0  1  0  0  3  0  0  0  0  0  0
  190.9670  175.3300  138.4440 C   0  0  1  0  0  3  0  0  0  0  0  0
  190.2710  177.1210  140.2020 C   0  0  1  0  0  3  0  0  0  0  0  0
  192.8570  176.4680  137.7040 C   0  0  0  0  0  0  0  0  0  0  0  0
  192.0490  175.3290  137.4760 N   0  0  0  0  0  2  0  0  0  0  0  0
  188.9270  176.7330  138.1020 C   0  0  0  0  0  3  0  0  0  0  0  0
  191.4050  176.3480  139.5240 C   0  0  2  0  0  3  0  0  0  0  0  0
  193.8110  176.7780  136.9430 O   0  0  0  0  0  0  0  0  0  0  0  0
  189.6990  175.7140  137.7280 C   0  0  0  0  0  3  0  0  0  0  0  0
  189.2450  177.5310  139.2470 N   0  0  0  0  0  0  0  0  0  0  0  0
  189.8210  176.9220  142.6550 C   0  0  1  0  0  0  0  0  0  0  0  0
  189.6420  176.2910  141.3170 C   0  0  2  0  0  3  0  0  0  0  0  0
  190.6340  175.8570  142.2220 O   0  0  0  0  0  0  0  0  0  0  0  0
  190.5640  178.1000  142.7540 O   0  0  0  0  0  1  0  0  0  0  0  0
  187.7220  176.0070  143.4490 F   0  0  0  0  0  0  0  0  0  0  0  0
  188.9380  176.5420  143.8430 C   0  0  2  0  0  3  0  0  0  0  0  0
  188.8170  177.6620  144.8880 C   0  0  0  0  0  2  0  0  0  0  0  0
  187.3230  178.1440  146.7160 O   0  0  0  0  0  1  0  0  0  0  0  0
  189.3830  177.0700  147.2860 C   0  0  0  0  0  1  0  0  0  0  0  0
  188.2790  177.2380  146.2580 C   0  0  2  0  0  3  0  0  0  0  0  0
  193.6270  177.4570  139.8260 C   0  0  0  0  0  2  0  0  0  0  0  0
  194.3650  176.1470  140.0260 C   0  0  0  0  0  1  0  0  0  0  0  0
  188.4770  178.7360  139.5260 C   0  0  0  0  0  2  0  0  0  0  0  0
  187.1050  178.3780  140.0800 C   0  0  2  0  0  3  0  0  0  0  0  0
  186.1150  178.8520  139.2200 O   0  0  0  0  0  1  0  0  0  0  0  0
  186.9210  179.0000  141.4510 C   0  0  0  0  0  2  0  0  0  0  0  0
  185.5720  179.3060  141.6470 O   0  0  0  0  0  0  0  0  0  0  0  0
  185.0350  178.1890  142.2960 C   0  0  2  0  0  3  0  0  0  0  0  0
  183.5130  178.2050  142.2340 C   0  0  1  0  0  3  0  0  0  0  0  0
  182.9050  179.3770  143.4800 S   0  0  0  0  0  0  0  0  0  0  0  0
  184.4700  179.2920  144.4100 C   0  0  0  0  0  2  0  0  0  0  0  0
  185.3740  178.2530  143.7700 C   0  0  0  0  0  2  0  0  0  0  0  0
  181.7340  177.9270  140.6620 O   0  0  0  0  0  1  0  0  0  0  0  0
  182.9690  178.5490  140.8540 C   0  0  0  0  0  2  0  0  0  0  0  0
  1  7  1  0  0  0  0
  1 21  1  1  0  0  0
  2  9  1  6  0  0  0
  2  7  1  0  0  0  0
  3 10  1  6  0  0  0
  3 12  1  0  0  0  0
  4  1  1  0  0  0  0
  5  4  1  0  0  0  0
  5  2  1  0  0  0  0
  6 10  1  0  0  0  0
  7  3  1  0  0  0  0
  8  4  2  0  0  0  0
  9  6  2  0  0  0  0
 10 23  1  0  0  0  0
 11 14  1  0  0  0  0
 11 16  1  0  0  0  0
 12 13  1  0  0  0  0
 12 11  1  0  0  0  0
 13 11  1  0  0  0  0
 15 16  1  0  0  0  0
 16 17  1  0  0  0  0
 17 20  1  0  0  0  0
 20 18  1  0  0  0  0
 20 19  1  0  0  0  0
 21 22  1  0  0  0  0
 23 24  1  0  0  0  0
 24 26  1  0  0  0  0
 25 24  1  0  0  0  0
 26 27  1  0  0  0  0
 27 28  1  0  0  0  0
 28 32  1  0  0  0  0
 29 28  1  0  0  0  0
 29 30  1  0  0  0  0
 30 31  1  0  0  0  0
 32 31  1  0  0  0  0
 33 34  1  0  0  0  0
 34 29  1  0  0  0  0
M  END
>  <MODEL>
2

>  <REMARK>
 VINA RESULT:      -5.9      3.210      6.392
  Name = 
  11 active torsions:
  status: ('A' for Active; 'I' for Inactive)
    1  A    between atoms: C_1  and  C_24
    2  A    between atoms: O_3  and  C_13
    3  A    between atoms: O_3  and  C_17
    4  A    between atoms: C_4  and  C_21
    5  A    between atoms: C_5  and  C_18
    6  A    between atoms: C_5  and  N_31
    7  A    between atoms: C_7  and  C_23
    8  A    between atoms: C_12  and  C_23
    9  A    between atoms: C_12  and  C_27
   10  A    between atoms: C_14  and  C_34
   11  A    between atoms: C_17  and  C_18
                            x       y       z     vdW  Elec       q    Type
                         _______ _______ _______ _____ _____    ______ ____

>  <TORSDO>
F 11

$$$$
=
 OpenBabel11052414253D

 34 37  0  0  1  0  0  0  0  0999 V2000
  191.1090  175.8870  136.1790 C   0  0  1  0  0  3  0  0  0  0  0  0
  189.8090  174.0560  137.2180 C   0  0  1  0  0  3  0  0  0  0  0  0
  189.2410  176.5340  137.7880 C   0  0  1  0  0  3  0  0  0  0  0  0
  191.3860  174.5610  135.5830 C   0  0  0  0  0  0  0  0  0  0  0  0
  190.6890  173.5000  136.2070 N   0  0  0  0  0  2  0  0  0  0  0  0
  187.5920  175.0320  136.6080 C   0  0  0  0  0  3  0  0  0  0  0  0
  190.3150  175.5040  137.4260 C   0  0  2  0  0  3  0  0  0  0  0  0
  192.1430  174.3790  134.5940 O   0  0  0  0  0  0  0  0  0  0  0  0
  188.3960  173.9760  136.7050 C   0  0  0  0  0  3  0  0  0  0  0  0
  188.0170  176.3370  137.0160 N   0  0  0  0  0  0  0  0  0  0  0  0
  188.8090  177.8490  139.8720 C   0  0  1  0  0  0  0  0  0  0  0  0
  188.9270  176.4870  139.2810 C   0  0  2  0  0  3  0  0  0  0  0  0
  189.9760  177.0750  140.0190 O   0  0  0  0  0  0  0  0  0  0  0  0
  189.0540  178.9620  139.0640 O   0  0  0  0  0  1  0  0  0  0  0  0
  187.1520  179.1040  141.1180 F   0  0  0  0  0  0  0  0  0  0  0  0
  188.0890  178.0850  141.1990 C   0  0  2  0  0  3  0  0  0  0  0  0
  189.0480  178.2130  142.3920 C   0  0  0  0  0  2  0  0  0  0  0  0
  189.1190  175.9210  143.1330 O   0  0  0  0  0  1  0  0  0  0  0  0
  187.4100  177.2920  144.0930 C   0  0  0  0  0  1  0  0  0  0  0  0
  188.8210  177.2220  143.5380 C   0  0  2  0  0  3  0  0  0  0  0  0
  192.4090  176.5730  136.5720 C   0  0  0  0  0  2  0  0  0  0  0  0
  192.7820  176.2200  137.9990 C   0  0  0  0  0  1  0  0  0  0  0  0
  187.1770  177.4930  136.7380 C   0  0  0  0  0  2  0  0  0  0  0  0
  185.7820  177.2910  137.3130 C   0  0  2  0  0  3  0  0  0  0  0  0
  184.8410  177.3360  136.2860 O   0  0  0  0  0  1  0  0  0  0  0  0
  185.4750  178.3770  138.3260 C   0  0  0  0  0  2  0  0  0  0  0  0
  184.3710  178.0010  139.0930 O   0  0  0  0  0  0  0  0  0  0  0  0
  183.8720  179.1960  139.6240 C   0  0  2  0  0  3  0  0  0  0  0  0
  183.2660  178.9660  141.0020 C   0  0  1  0  0  3  0  0  0  0  0  0
  181.6200  178.2300  140.7850 S   0  0  0  0  0  0  0  0  0  0  0  0
  181.5140  178.8290  139.0670 C   0  0  0  0  0  2  0  0  0  0  0  0
  182.7280  179.6880  138.7640 C   0  0  0  0  0  2  0  0  0  0  0  0
  183.9260  178.4520  143.2410 O   0  0  0  0  0  1  0  0  0  0  0  0
  184.1320  178.1000  141.9060 C   0  0  0  0  0  2  0  0  0  0  0  0
  1 21  1  1  0  0  0
  1  7  1  0  0  0  0
  2  9  1  6  0  0  0
  2  7  1  0  0  0  0
  3 10  1  6  0  0  0
  3 12  1  0  0  0  0
  4  1  1  0  0  0  0
  4  5  1  0  0  0  0
  5  2  1  0  0  0  0
  6  9  2  0  0  0  0
  6 10  1  0  0  0  0
  7  3  1  0  0  0  0
  8  4  2  0  0  0  0
 11 13  1  0  0  0  0
 11 16  1  0  0  0  0
 12 11  1  0  0  0  0
 12 13  1  0  0  0  0
 14 11  1  0  0  0  0
 15 16  1  0  0  0  0
 16 17  1  0  0  0  0
 17 20  1  0  0  0  0
 18 20  1  0  0  0  0
 20 19  1  0  0  0  0
 21 22  1  0  0  0  0
 23 10  1  0  0  0  0
 23 24  1  0  0  0  0
 24 26  1  0  0  0  0
 25 24  1  0  0  0  0
 26 27  1  0  0  0  0
 27 28  1  0  0  0  0
 28 29  1  0  0  0  0
 29 34  1  0  0  0  0
 30 29  1  0  0  0  0
 31 30  1  0  0  0  0
 32 31  1  0  0  0  0
 32 28  1  0  0  0  0
 34 33  1  0  0  0  0
M  END
>  <MODEL>
3

>  <REMARK>
 VINA RESULT:      -5.8      3.450      6.270
  Name = 
  11 active torsions:
  status: ('A' for Active; 'I' for Inactive)
    1  A    between atoms: C_1  and  C_24
    2  A    between atoms: O_3  and  C_13
    3  A    between atoms: O_3  and  C_17
    4  A    between atoms: C_4  and  C_21
    5  A    between atoms: C_5  and  C_18
    6  A    between atoms: C_5  and  N_31
    7  A    between atoms: C_7  and  C_23
    8  A    between atoms: C_12  and  C_23
    9  A    between atoms: C_12  and  C_27
   10  A    between atoms: C_14  and  C_34
   11  A    between atoms: C_17  and  C_18
                            x       y       z     vdW  Elec       q    Type
                         _______ _______ _______ _____ _____    ______ ____

>  <TORSDO>
F 11

$$$$
=
 OpenBabel11052414253D

 34 37  0  0  1  0  0  0  0  0999 V2000
  191.8030  174.6580  138.0130 C   0  0  1  0  0  3  0  0  0  0  0  0
  192.7410  176.9460  138.1180 C   0  0  1  0  0  3  0  0  0  0  0  0
  190.2330  176.5470  138.6980 C   0  0  1  0  0  3  0  0  0  0  0  0
  193.2780  174.6930  137.8910 C   0  0  0  0  0  0  0  0  0  0  0  0
  193.8190  176.0000  137.8940 N   0  0  0  0  0  2  0  0  0  0  0  0
  191.8730  177.3980  140.4170 C   0  0  0  0  0  3  0  0  0  0  0  0
  191.4470  176.1370  137.8600 C   0  0  2  0  0  3  0  0  0  0  0  0
  194.0010  173.6650  137.8220 O   0  0  0  0  0  0  0  0  0  0  0  0
  192.8590  177.4670  139.5250 C   0  0  0  0  0  3  0  0  0  0  0  0
  190.6000  176.8350  140.0820 N   0  0  0  0  0  0  0  0  0  0  0  0
  188.3830  177.3620  137.2260 C   0  0  1  0  0  0  0  0  0  0  0  0
  189.5350  177.7560  138.0830 C   0  0  2  0  0  3  0  0  0  0  0  0
  189.6300  177.7120  136.6760 O   0  0  0  0  0  0  0  0  0  0  0  0
  188.1190  176.0040  137.0260 O   0  0  0  0  0  1  0  0  0  0  0  0
  187.7700  179.6320  136.6350 F   0  0  0  0  0  0  0  0  0  0  0  0
  187.2800  178.3550  136.8610 C   0  0  2  0  0  3  0  0  0  0  0  0
  186.0820  178.3080  137.8220 C   0  0  0  0  0  2  0  0  0  0  0  0
  184.7630  177.2380  136.1110 O   0  0  0  0  0  1  0  0  0  0  0  0
  183.7050  177.5310  138.2370 C   0  0  0  0  0  1  0  0  0  0  0  0
  184.9990  177.2780  137.4860 C   0  0  2  0  0  3  0  0  0  0  0  0
  191.1960  173.8510  136.8750 C   0  0  0  0  0  2  0  0  0  0  0  0
  191.2190  174.6510  135.5870 C   0  0  0  0  0  1  0  0  0  0  0  0
  189.6060  176.6200  141.1240 C   0  0  0  0  0  2  0  0  0  0  0  0
  190.2700  176.5650  142.4930 C   0  0  2  0  0  3  0  0  0  0  0  0
  190.5380  175.2390  142.8290 O   0  0  0  0  0  1  0  0  0  0  0  0
  189.3560  177.1750  143.5380 C   0  0  0  0  0  2  0  0  0  0  0  0
  188.3720  177.9400  142.9080 O   0  0  0  0  0  0  0  0  0  0  0  0
  187.1830  177.2240  143.0870 C   0  0  2  0  0  3  0  0  0  0  0  0
  185.9770  178.0740  142.7110 C   0  0  1  0  0  3  0  0  0  0  0  0
  185.6380  179.2180  144.0790 S   0  0  0  0  0  0  0  0  0  0  0  0
  186.5610  178.1780  145.2560 C   0  0  0  0  0  2  0  0  0  0  0  0
  187.0050  176.9060  144.5550 C   0  0  0  0  0  2  0  0  0  0  0  0
  184.9610  179.4650  141.0540 O   0  0  0  0  0  1  0  0  0  0  0  0
  186.1540  178.8300  141.4020 C   0  0  0  0  0  2  0  0  0  0  0  0
  1 21  1  6  0  0  0
  2  9  1  1  0  0  0
  3 10  1  1  0  0  0
  4  5  1  0  0  0  0
  4  1  1  0  0  0  0
  5  2  1  0  0  0  0
  7  1  1  0  0  0  0
  7  2  1  0  0  0  0
  7  3  1  0  0  0  0
  8  4  2  0  0  0  0
  9  6  2  0  0  0  0
 10  6  1  0  0  0  0
 10 23  1  0  0  0  0
 11 12  1  0  0  0  0
 12  3  1  0  0  0  0
 13 11  1  0  0  0  0
 13 12  1  0  0  0  0
 14 11  1  0  0  0  0
 15 16  1  0  0  0  0
 16 11  1  0  0  0  0
 16 17  1  0  0  0  0
 18 20  1  0  0  0  0
 20 17  1  0  0  0  0
 20 19  1  0  0  0  0
 22 21  1  0  0  0  0
 23 24  1  0  0  0  0
 24 25  1  0  0  0  0
 24 26  1  0  0  0  0
 27 28  1  0  0  0  0
 27 26  1  0  0  0  0
 28 32  1  0  0  0  0
 29 28  1  0  0  0  0
 29 30  1  0  0  0  0
 30 31  1  0  0  0  0
 32 31  1  0  0  0  0
 33 34  1  0  0  0  0
 34 29  1  0  0  0  0
M  END
>  <MODEL>
4

>  <REMARK>
 VINA RESULT:      -5.8      1.843      2.763
  Name = 
  11 active torsions:
  status: ('A' for Active; 'I' for Inactive)
    1  A    between atoms: C_1  and  C_24
    2  A    between atoms: O_3  and  C_13
    3  A    between atoms: O_3  and  C_17
    4  A    between atoms: C_4  and  C_21
    5  A    between atoms: C_5  and  C_18
    6  A    between atoms: C_5  and  N_31
    7  A    between atoms: C_7  and  C_23
    8  A    between atoms: C_12  and  C_23
    9  A    between atoms: C_12  and  C_27
   10  A    between atoms: C_14  and  C_34
   11  A    between atoms: C_17  and  C_18
                            x       y       z     vdW  Elec       q    Type
                         _______ _______ _______ _____ _____    ______ ____

>  <TORSDO>
F 11

$$$$
=
 OpenBabel11052414253D

 34 37  0  0  1  0  0  0  0  0999 V2000
  183.0270  175.9900  138.9190 C   0  0  1  0  0  3  0  0  0  0  0  0
  184.1570  177.3200  137.1640 C   0  0  1  0  0  3  0  0  0  0  0  0
  183.1730  178.5130  139.2600 C   0  0  1  0  0  3  0  0  0  0  0  0
  183.7350  175.1600  137.9190 C   0  0  0  0  0  0  0  0  0  0  0  0
  184.3380  175.9080  136.8810 N   0  0  0  0  0  2  0  0  0  0  0  0
  185.6480  178.5190  138.7700 C   0  0  0  0  0  3  0  0  0  0  0  0
  183.0580  177.3650  138.2530 C   0  0  2  0  0  3  0  0  0  0  0  0
  183.8300  173.9060  137.9880 O   0  0  0  0  0  0  0  0  0  0  0  0
  185.4790  177.8810  137.6140 C   0  0  0  0  0  3  0  0  0  0  0  0
  184.5570  178.7400  139.6690 N   0  0  0  0  0  0  0  0  0  0  0  0
  181.1740  180.0100  139.1240 C   0  0  1  0  0  0  0  0  0  0  0  0
  182.5820  179.7970  138.6870 C   0  0  2  0  0  3  0  0  0  0  0  0
  181.4860  179.5000  137.8500 O   0  0  0  0  0  0  0  0  0  0  0  0
  180.5530  179.0350  139.9080 O   0  0  0  0  0  1  0  0  0  0  0  0
  179.8790  181.7260  140.2440 F   0  0  0  0  0  0  0  0  0  0  0  0
  180.5170  181.3880  139.0610 C   0  0  2  0  0  3  0  0  0  0  0  0
  179.6510  181.5880  137.8070 C   0  0  0  0  0  2  0  0  0  0  0  0
  180.7190  181.9720  135.6820 O   0  0  0  0  0  1  0  0  0  0  0  0
  181.1810  183.5680  137.4030 C   0  0  0  0  0  1  0  0  0  0  0  0
  180.1720  182.6120  136.7940 C   0  0  2  0  0  3  0  0  0  0  0  0
  181.5900  175.5160  139.0800 C   0  0  0  0  0  2  0  0  0  0  0  0
  180.7670  175.9020  137.8670 C   0  0  0  0  0  1  0  0  0  0  0  0
  184.8090  179.2870  140.9940 C   0  0  0  0  0  2  0  0  0  0  0  0
  184.7960  178.1820  142.0400 C   0  0  2  0  0  3  0  0  0  0  0  0
  183.9510  178.5400  143.0900 O   0  0  0  0  0  1  0  0  0  0  0  0
  186.1970  177.9570  142.5760 C   0  0  0  0  0  2  0  0  0  0  0  0
  186.2760  178.4310  143.8880 O   0  0  0  0  0  0  0  0  0  0  0  0
  186.4580  177.2910  144.6770 C   0  0  2  0  0  3  0  0  0  0  0  0
  186.7910  177.6730  146.1130 C   0  0  1  0  0  3  0  0  0  0  0  0
  188.5410  178.1520  146.1840 S   0  0  0  0  0  0  0  0  0  0  0  0
  188.9080  177.2630  144.6360 C   0  0  0  0  0  2  0  0  0  0  0  0
  187.6630  176.5220  144.1800 C   0  0  0  0  0  2  0  0  0  0  0  0
  184.5990  178.3080  146.8240 O   0  0  0  0  0  1  0  0  0  0  0  0
  185.9030  178.7790  146.6660 C   0  0  0  0  0  2  0  0  0  0  0  0
  1 21  1  6  0  0  0
  2  9  1  1  0  0  0
  2  7  1  0  0  0  0
  3 10  1  6  0  0  0
  4  8  2  0  0  0  0
  4  1  1  0  0  0  0
  5  2  1  0  0  0  0
  5  4  1  0  0  0  0
  6 10  1  0  0  0  0
  7  1  1  0  0  0  0
  7  3  1  0  0  0  0
  9  6  2  0  0  0  0
 10 23  1  0  0  0  0
 11 14  1  0  0  0  0
 12 11  1  0  0  0  0
 12  3  1  0  0  0  0
 13 12  1  0  0  0  0
 13 11  1  0  0  0  0
 16 11  1  0  0  0  0
 16 15  1  0  0  0  0
 17 16  1  0  0  0  0
 18 20  1  0  0  0  0
 20 19  1  0  0  0  0
 20 17  1  0  0  0  0
 22 21  1  0  0  0  0
 23 24  1  0  0  0  0
 24 26  1  0  0  0  0
 24 25  1  0  0  0  0
 26 27  1  0  0  0  0
 27 28  1  0  0  0  0
 28 29  1  0  0  0  0
 29 30  1  0  0  0  0
 29 34  1  0  0  0  0
 31 30  1  0  0  0  0
 32 31  1  0  0  0  0
 32 28  1  0  0  0  0
 34 33  1  0  0  0  0
M  END
>  <MODEL>
5

>  <REMARK>
 VINA RESULT:      -5.7      5.390      7.377
  Name = 
  11 active torsions:
  status: ('A' for Active; 'I' for Inactive)
    1  A    between atoms: C_1  and  C_24
    2  A    between atoms: O_3  and  C_13
    3  A    between atoms: O_3  and  C_17
    4  A    between atoms: C_4  and  C_21
    5  A    between atoms: C_5  and  C_18
    6  A    between atoms: C_5  and  N_31
    7  A    between atoms: C_7  and  C_23
    8  A    between atoms: C_12  and  C_23
    9  A    between atoms: C_12  and  C_27
   10  A    between atoms: C_14  and  C_34
   11  A    between atoms: C_17  and  C_18
                            x       y       z     vdW  Elec       q    Type
                         _______ _______ _______ _____ _____    ______ ____

>  <TORSDO>
F 11

$$$$
=
 OpenBabel11052414253D

 34 37  0  0  1  0  0  0  0  0999 V2000
  181.2150  176.7920  138.9690 C   0  0  1  0  0  3  0  0  0  0  0  0
  179.9610  178.8940  139.3340 C   0  0  1  0  0  3  0  0  0  0  0  0
  182.3660  178.6360  140.3010 C   0  0  1  0  0  3  0  0  0  0  0  0
  179.9730  176.8810  138.1680 C   0  0  0  0  0  0  0  0  0  0  0  0
  179.2210  178.0540  138.4110 N   0  0  0  0  0  2  0  0  0  0  0  0
  181.8210  180.3610  138.5410 C   0  0  0  0  0  3  0  0  0  0  0  0
  181.0400  177.9630  139.9360 C   0  0  2  0  0  3  0  0  0  0  0  0
  179.6200  176.0180  137.3220 O   0  0  0  0  0  0  0  0  0  0  0  0
  180.5260  180.0560  138.5610 C   0  0  0  0  0  3  0  0  0  0  0  0
  182.7800  179.6050  139.2890 N   0  0  0  0  0  0  0  0  0  0  0  0
  183.2870  178.7980  142.6210 C   0  0  1  0  0  0  0  0  0  0  0  0
  182.2700  179.3160  141.6630 C   0  0  2  0  0  3  0  0  0  0  0  0
  181.9460  178.3710  142.6590 O   0  0  0  0  0  0  0  0  0  0  0  0
  184.1250  177.7550  142.2200 O   0  0  0  0  0  1  0  0  0  0  0  0
  184.7050  180.4950  143.6130 F   0  0  0  0  0  0  0  0  0  0  0  0
  183.6880  179.5870  143.8670 C   0  0  2  0  0  3  0  0  0  0  0  0
  183.9400  178.6950  145.0920 C   0  0  0  0  0  2  0  0  0  0  0  0
  186.0940  177.6200  144.9620 O   0  0  0  0  0  1  0  0  0  0  0  0
  185.4740  178.4970  147.1000 C   0  0  0  0  0  1  0  0  0  0  0  0
  185.3870  178.6450  145.5920 C   0  0  2  0  0  3  0  0  0  0  0  0
  181.2580  175.4790  139.7360 C   0  0  0  0  0  2  0  0  0  0  0  0
  179.9680  175.2710  140.5040 C   0  0  0  0  0  1  0  0  0  0  0  0
  184.2020  179.8600  139.1110 C   0  0  0  0  0  2  0  0  0  0  0  0
  184.9900  178.5590  139.1800 C   0  0  2  0  0  3  0  0  0  0  0  0
  186.1310  178.7440  139.9600 O   0  0  0  0  0  1  0  0  0  0  0  0
  185.3980  178.1240  137.7860 C   0  0  0  0  0  2  0  0  0  0  0  0
  186.7890  178.0250  137.7160 O   0  0  0  0  0  0  0  0  0  0  0  0
  187.0430  176.7000  137.3430 C   0  0  2  0  0  3  0  0  0  0  0  0
  188.5260  176.3780  137.4630 C   0  0  1  0  0  3  0  0  0  0  0  0
  189.3790  177.0770  136.0210 S   0  0  0  0  0  0  0  0  0  0  0  0
  187.8290  177.1570  135.0680 C   0  0  0  0  0  2  0  0  0  0  0  0
  186.7130  176.5200  135.8780 C   0  0  0  0  0  2  0  0  0  0  0  0
  190.2160  176.0530  139.1220 O   0  0  0  0  0  1  0  0  0  0  0  0
  189.1510  176.8780  138.7580 C   0  0  0  0  0  2  0  0  0  0  0  0
  1 21  1  1  0  0  0
  1  7  1  0  0  0  0
  2  9  1  6  0  0  0
  2  7  1  0  0  0  0
  3 10  1  6  0  0  0
  3 12  1  0  0  0  0
  4  5  1  0  0  0  0
  4  1  1  0  0  0  0
  5  2  1  0  0  0  0
  6  9  2  0  0  0  0
  6 10  1  0  0  0  0
  7  3  1  0  0  0  0
  8  4  2  0  0  0  0
 11 13  1  0  0  0  0
 11 16  1  0  0  0  0
 12 11  1  0  0  0  0
 12 13  1  0  0  0  0
 14 11  1  0  0  0  0
 15 16  1  0  0  0  0
 16 17  1  0  0  0  0
 17 20  1  0  0  0  0
 18 20  1  0  0  0  0
 20 19  1  0  0  0  0
 21 22  1  0  0  0  0
 23 24  1  0  0  0  0
 23 10  1  0  0  0  0
 24 25  1  0  0  0  0
 26 24  1  0  0  0  0
 27 26  1  0  0  0  0
 28 29  1  0  0  0  0
 28 27  1  0  0  0  0
 29 34  1  0  0  0  0
 30 29  1  0  0  0  0
 31 32  1  0  0  0  0
 31 30  1  0  0  0  0
 32 28  1  0  0  0  0
 34 33  1  0  0  0  0
M  END
>  <MODEL>
6

>  <REMARK>
 VINA RESULT:      -5.4      5.447     10.059
  Name = 
  11 active torsions:
  status: ('A' for Active; 'I' for Inactive)
    1  A    between atoms: C_1  and  C_24
    2  A    between atoms: O_3  and  C_13
    3  A    between atoms: O_3  and  C_17
    4  A    between atoms: C_4  and  C_21
    5  A    between atoms: C_5  and  C_18
    6  A    between atoms: C_5  and  N_31
    7  A    between atoms: C_7  and  C_23
    8  A    between atoms: C_12  and  C_23
    9  A    between atoms: C_12  and  C_27
   10  A    between atoms: C_14  and  C_34
   11  A    between atoms: C_17  and  C_18
                            x       y       z     vdW  Elec       q    Type
                         _______ _______ _______ _____ _____    ______ ____

>  <TORSDO>
F 11

$$$$
=
 OpenBabel11052414253D

 34 37  0  0  1  0  0  0  0  0999 V2000
  183.2120  175.9110  138.9370 C   0  0  1  0  0  3  0  0  0  0  0  0
  184.2410  177.2680  137.1410 C   0  0  1  0  0  3  0  0  0  0  0  0
  183.2680  178.4400  139.2530 C   0  0  1  0  0  3  0  0  0  0  0  0
  183.9250  175.1000  137.9250 C   0  0  0  0  0  0  0  0  0  0  0  0
  184.4700  175.8610  136.8650 N   0  0  0  0  0  2  0  0  0  0  0  0
  185.7260  178.5390  138.6950 C   0  0  0  0  0  3  0  0  0  0  0  0
  183.1710  177.2800  138.2590 C   0  0  2  0  0  3  0  0  0  0  0  0
  184.0710  173.8510  138.0010 O   0  0  0  0  0  0  0  0  0  0  0  0
  185.5520  177.8840  137.5500 C   0  0  0  0  0  3  0  0  0  0  0  0
  184.6520  178.7260  139.6220 N   0  0  0  0  0  0  0  0  0  0  0  0
  181.2490  179.9170  139.2450 C   0  0  1  0  0  0  0  0  0  0  0  0
  182.6110  179.6950  138.6860 C   0  0  2  0  0  3  0  0  0  0  0  0
  181.4450  179.3550  137.9690 O   0  0  0  0  0  0  0  0  0  0  0  0
  180.7140  178.9710  140.1230 O   0  0  0  0  0  1  0  0  0  0  0  0
  179.9530  181.6210  140.3810 F   0  0  0  0  0  0  0  0  0  0  0  0
  180.5720  181.2860  139.1870 C   0  0  2  0  0  3  0  0  0  0  0  0
  179.6810  181.4680  137.9490 C   0  0  0  0  0  2  0  0  0  0  0  0
  180.8510  181.7210  135.8570 O   0  0  0  0  0  1  0  0  0  0  0  0
  181.1460  183.4770  137.4550 C   0  0  0  0  0  1  0  0  0  0  0  0
  180.2150  182.4260  136.8790 C   0  0  2  0  0  3  0  0  0  0  0  0
  181.8000  175.3820  139.1410 C   0  0  0  0  0  2  0  0  0  0  0  0
  181.0020  175.4950  137.8560 C   0  0  0  0  0  1  0  0  0  0  0  0
  184.9180  179.2950  140.9350 C   0  0  0  0  0  2  0  0  0  0  0  0
  184.6550  178.2660  142.0270 C   0  0  2  0  0  3  0  0  0  0  0  0
  183.4800  178.5920  142.7040 O   0  0  0  0  0  1  0  0  0  0  0  0
  185.8110  178.2420  143.0070 C   0  0  0  0  0  2  0  0  0  0  0  0
  186.8960  177.5760  142.4330 O   0  0  0  0  0  0  0  0  0  0  0  0
  188.0240  178.3000  142.8370 C   0  0  2  0  0  3  0  0  0  0  0  0
  189.1900  178.0640  141.8860 C   0  0  1  0  0  3  0  0  0  0  0  0
  189.9290  176.4530  142.2800 S   0  0  0  0  0  0  0  0  0  0  0  0
  189.1990  176.4590  143.9490 C   0  0  0  0  0  2  0  0  0  0  0  0
  188.4950  177.7850  144.1800 C   0  0  0  0  0  2  0  0  0  0  0  0
  189.3210  177.0400  139.7300 O   0  0  0  0  0  1  0  0  0  0  0  0
  188.7950  178.1350  140.4170 C   0  0  0  0  0  2  0  0  0  0  0  0
  1 21  1  6  0  0  0
  2  9  1  1  0  0  0
  2  7  1  0  0  0  0
  3 10  1  6  0  0  0
  4  8  2  0  0  0  0
  4  1  1  0  0  0  0
  5  2  1  0  0  0  0
  5  4  1  0  0  0  0
  6 10  1  0  0  0  0
  7  1  1  0  0  0  0
  7  3  1  0  0  0  0
  9  6  2  0  0  0  0
 10 23  1  0  0  0  0
 11 14  1  0  0  0  0
 12 11  1  0  0  0  0
 12  3  1  0  0  0  0
 13 12  1  0  0  0  0
 13 11  1  0  0  0  0
 16 11  1  0  0  0  0
 16 15  1  0  0  0  0
 17 16  1  0  0  0  0
 18 20  1  0  0  0  0
 20 19  1  0  0  0  0
 20 17  1  0  0  0  0
 22 21  1  0  0  0  0
 23 24  1  0  0  0  0
 24 25  1  0  0  0  0
 24 26  1  0  0  0  0
 27 28  1  0  0  0  0
 27 26  1  0  0  0  0
 28 32  1  0  0  0  0
 29 30  1  0  0  0  0
 29 28  1  0  0  0  0
 30 31  1  0  0  0  0
 31 32  1  0  0  0  0
 33 34  1  0  0  0  0
 34 29  1  0  0  0  0
M  END
>  <MODEL>
7

>  <REMARK>
 VINA RESULT:      -5.4      4.845      7.446
  Name = 
  11 active torsions:
  status: ('A' for Active; 'I' for Inactive)
    1  A    between atoms: C_1  and  C_24
    2  A    between atoms: O_3  and  C_13
    3  A    between atoms: O_3  and  C_17
    4  A    between atoms: C_4  and  C_21
    5  A    between atoms: C_5  and  C_18
    6  A    between atoms: C_5  and  N_31
    7  A    between atoms: C_7  and  C_23
    8  A    between atoms: C_12  and  C_23
    9  A    between atoms: C_12  and  C_27
   10  A    between atoms: C_14  and  C_34
   11  A    between atoms: C_17  and  C_18
                            x       y       z     vdW  Elec       q    Type
                         _______ _______ _______ _____ _____    ______ ____

>  <TORSDO>
F 11

$$$$
=
 OpenBabel11052414253D

 34 37  0  0  1  0  0  0  0  0999 V2000
  187.8170  174.7840  136.8350 C   0  0  1  0  0  3  0  0  0  0  0  0
  187.9110  176.6680  135.2340 C   0  0  1  0  0  3  0  0  0  0  0  0
  186.2910  176.7790  137.2700 C   0  0  1  0  0  3  0  0  0  0  0  0
  188.9410  174.6830  135.8770 C   0  0  0  0  0  0  0  0  0  0  0  0
  188.9710  175.7270  134.9230 N   0  0  0  0  0  2  0  0  0  0  0  0
  188.2020  178.4050  137.0060 C   0  0  0  0  0  3  0  0  0  0  0  0
  186.9890  175.9110  136.2200 C   0  0  2  0  0  3  0  0  0  0  0  0
  189.8160  173.7790  135.9130 O   0  0  0  0  0  0  0  0  0  0  0  0
  188.5390  177.9040  135.8190 C   0  0  0  0  0  3  0  0  0  0  0  0
  187.1820  177.8020  137.8100 N   0  0  0  0  0  0  0  0  0  0  0  0
  183.7910  176.8620  137.2630 C   0  0  1  0  0  0  0  0  0  0  0  0
  185.0410  177.4320  136.6880 C   0  0  2  0  0  3  0  0  0  0  0  0
  184.2670  176.4770  135.9950 O   0  0  0  0  0  0  0  0  0  0  0  0
  183.8830  175.8010  138.1680 O   0  0  0  0  0  1  0  0  0  0  0  0
  182.2970  178.2800  135.9850 F   0  0  0  0  0  0  0  0  0  0  0  0
  182.4610  177.6110  137.1880 C   0  0  2  0  0  3  0  0  0  0  0  0
  182.1850  178.4780  138.4260 C   0  0  0  0  0  2  0  0  0  0  0  0
  183.8670  179.9850  139.2690 O   0  0  0  0  0  1  0  0  0  0  0  0
  181.7540  180.9590  138.7120 C   0  0  0  0  0  1  0  0  0  0  0  0
  182.7820  179.8890  138.3970 C   0  0  2  0  0  3  0  0  0  0  0  0
  187.0160  173.4900  136.8500 C   0  0  0  0  0  2  0  0  0  0  0  0
  186.1780  173.3720  135.5920 C   0  0  0  0  0  1  0  0  0  0  0  0
  186.9590  178.2720  139.1690 C   0  0  0  0  0  2  0  0  0  0  0  0
  188.2530  178.2260  139.9700 C   0  0  2  0  0  3  0  0  0  0  0  0
  188.9400  177.0480  139.6820 O   0  0  0  0  0  1  0  0  0  0  0  0
  187.9480  178.2820  141.4540 C   0  0  0  0  0  2  0  0  0  0  0  0
  189.1410  178.3920  142.1720 O   0  0  0  0  0  0  0  0  0  0  0  0
  188.8960  177.7430  143.3880 C   0  0  2  0  0  3  0  0  0  0  0  0
  190.1230  177.7970  144.2880 C   0  0  1  0  0  3  0  0  0  0  0  0
  191.3050  176.5440  143.7150 S   0  0  0  0  0  0  0  0  0  0  0  0
  189.9980  175.6230  142.8420 C   0  0  0  0  0  2  0  0  0  0  0  0
  188.6550  176.2710  143.1310 C   0  0  0  0  0  2  0  0  0  0  0  0
  192.1330  179.0670  144.0450 O   0  0  0  0  0  1  0  0  0  0  0  0
  190.7730  179.1720  144.3410 C   0  0  0  0  0  2  0  0  0  0  0  0
  1 21  1  6  0  0  0
  2  9  1  1  0  0  0
  2  7  1  0  0  0  0
  3 10  1  6  0  0  0
  4  8  2  0  0  0  0
  4  1  1  0  0  0  0
  5  2  1  0  0  0  0
  5  4  1  0  0  0  0
  6 10  1  0  0  0  0
  7  1  1  0  0  0  0
  7  3  1  0  0  0  0
  9  6  2  0  0  0  0
 10 23  1  0  0  0  0
 11 14  1  0  0  0  0
 12 11  1  0  0  0  0
 12  3  1  0  0  0  0
 13 12  1  0  0  0  0
 13 11  1  0  0  0  0
 15 16  1  0  0  0  0
 16 11  1  0  0  0  0
 16 17  1  0  0  0  0
 20 17  1  0  0  0  0
 20 19  1  0  0  0  0
 20 18  1  0  0  0  0
 22 21  1  0  0  0  0
 23 24  1  0  0  0  0
 24 26  1  0  0  0  0
 25 24  1  0  0  0  0
 26 27  1  0  0  0  0
 27 28  1  0  0  0  0
 28 29  1  0  0  0  0
 29 34  1  0  0  0  0
 30 29  1  0  0  0  0
 31 32  1  0  0  0  0
 31 30  1  0  0  0  0
 32 28  1  0  0  0  0
 33 34  1  0  0  0  0
M  END
>  <MODEL>
8

>  <REMARK>
 VINA RESULT:      -5.4      3.315      4.570
  Name = 
  11 active torsions:
  status: ('A' for Active; 'I' for Inactive)
    1  A    between atoms: C_1  and  C_24
    2  A    between atoms: O_3  and  C_13
    3  A    between atoms: O_3  and  C_17
    4  A    between atoms: C_4  and  C_21
    5  A    between atoms: C_5  and  C_18
    6  A    between atoms: C_5  and  N_31
    7  A    between atoms: C_7  and  C_23
    8  A    between atoms: C_12  and  C_23
    9  A    between atoms: C_12  and  C_27
   10  A    between atoms: C_14  and  C_34
   11  A    between atoms: C_17  and  C_18
                            x       y       z     vdW  Elec       q    Type
                         _______ _______ _______ _____ _____    ______ ____

>  <TORSDO>
F 11

$$$$
=
 OpenBabel11052414253D

 34 37  0  0  1  0  0  0  0  0999 V2000
  185.6580  179.4220  144.5310 C   0  0  1  0  0  3  0  0  0  0  0  0
  186.0870  176.9910  144.3470 C   0  0  1  0  0  3  0  0  0  0  0  0
  186.0440  178.4650  142.2000 C   0  0  1  0  0  3  0  0  0  0  0  0
  185.8860  178.7660  145.8390 C   0  0  0  0  0  0  0  0  0  0  0  0
  186.0770  177.3670  145.7490 N   0  0  0  0  0  2  0  0  0  0  0  0
  188.1370  177.2690  142.9470 C   0  0  0  0  0  3  0  0  0  0  0  0
  185.4950  178.2150  143.6070 C   0  0  2  0  0  3  0  0  0  0  0  0
  185.9410  179.3840  146.9340 O   0  0  0  0  0  0  0  0  0  0  0  0
  187.5050  176.6740  143.9560 C   0  0  0  0  0  3  0  0  0  0  0  0
  187.4880  178.2530  142.1330 N   0  0  0  0  0  0  0  0  0  0  0  0
  184.7840  178.3620  140.0420 C   0  0  1  0  0  0  0  0  0  0  0  0
  185.3400  177.5770  141.1790 C   0  0  2  0  0  3  0  0  0  0  0  0
  183.9720  177.9120  141.1000 O   0  0  0  0  0  0  0  0  0  0  0  0
  184.8940  179.7540  140.0610 O   0  0  0  0  0  1  0  0  0  0  0  0
  185.0660  178.3050  137.6350 F   0  0  0  0  0  0  0  0  0  0  0  0
  184.4320  177.7010  138.7100 C   0  0  2  0  0  3  0  0  0  0  0  0
  182.9210  177.5050  138.5120 C   0  0  0  0  0  2  0  0  0  0  0  0
  181.9490  175.6290  139.6720 O   0  0  0  0  0  1  0  0  0  0  0  0
  183.5280  175.1090  137.9520 C   0  0  0  0  0  1  0  0  0  0  0  0
  182.4430  176.0510  138.4380 C   0  0  2  0  0  3  0  0  0  0  0  0
  184.3730  180.2360  144.5640 C   0  0  0  0  0  2  0  0  0  0  0  0
  183.1700  179.3340  144.3690 C   0  0  0  0  0  1  0  0  0  0  0  0
  188.2570  179.0030  141.1510 C   0  0  0  0  0  2  0  0  0  0  0  0
  188.8490  178.0660  140.1070 C   0  0  2  0  0  3  0  0  0  0  0  0
  190.2060  177.8780  140.3630 O   0  0  0  0  0  1  0  0  0  0  0  0
  188.6750  178.6580  138.7210 C   0  0  0  0  0  2  0  0  0  0  0  0
  189.5470  178.0250  137.8320 O   0  0  0  0  0  0  0  0  0  0  0  0
  188.8820  176.8580  137.4380 C   0  0  2  0  0  3  0  0  0  0  0  0
  189.8340  175.9060  136.7260 C   0  0  1  0  0  3  0  0  0  0  0  0
  190.0630  176.4980  135.0240 S   0  0  0  0  0  0  0  0  0  0  0  0
  188.5250  177.4730  135.0930 C   0  0  0  0  0  2  0  0  0  0  0  0
  187.8240  177.2040  136.4140 C   0  0  0  0  0  2  0  0  0  0  0  0
  190.9780  175.2520  138.7200 O   0  0  0  0  0  1  0  0  0  0  0  0
  191.1740  175.7510  137.4310 C   0  0  0  0  0  2  0  0  0  0  0  0
  1 21  1  1  0  0  0
  1  4  1  0  0  0  0
  2  9  1  6  0  0  0
  2  5  1  0  0  0  0
  3 10  1  1  0  0  0
  3  7  1  0  0  0  0
  4  8  2  0  0  0  0
  5  4  1  0  0  0  0
  6  9  2  0  0  0  0
  7  2  1  0  0  0  0
  7  1  1  0  0  0  0
 10  6  1  0  0  0  0
 11 14  1  0  0  0  0
 11 13  1  0  0  0  0
 11 12  1  0  0  0  0
 12  3  1  0  0  0  0
 13 12  1  0  0  0  0
 15 16  1  0  0  0  0
 16 11  1  0  0  0  0
 17 16  1  0  0  0  0
 19 20  1  0  0  0  0
 20 17  1  0  0  0  0
 20 18  1  0  0  0  0
 22 21  1  0  0  0  0
 23 10  1  0  0  0  0
 24 25  1  0  0  0  0
 24 23  1  0  0  0  0
 26 24  1  0  0  0  0
 27 26  1  0  0  0  0
 28 27  1  0  0  0  0
 29 34  1  0  0  0  0
 29 28  1  0  0  0  0
 30 31  1  0  0  0  0
 30 29  1  0  0  0  0
 31 32  1  0  0  0  0
 32 28  1  0  0  0  0
 34 33  1  0  0  0  0
M  END
>  <MODEL>
9

>  <REMARK>
 VINA RESULT:      -5.4      3.987      8.053
  Name = 
  11 active torsions:
  status: ('A' for Active; 'I' for Inactive)
    1  A    between atoms: C_1  and  C_24
    2  A    between atoms: O_3  and  C_13
    3  A    between atoms: O_3  and  C_17
    4  A    between atoms: C_4  and  C_21
    5  A    between atoms: C_5  and  C_18
    6  A    between atoms: C_5  and  N_31
    7  A    between atoms: C_7  and  C_23
    8  A    between atoms: C_12  and  C_23
    9  A    between atoms: C_12  and  C_27
   10  A    between atoms: C_14  and  C_34
   11  A    between atoms: C_17  and  C_18
                            x       y       z     vdW  Elec       q    Type
                         _______ _______ _______ _____ _____    ______ ____

>  <TORSDO>
F 11

$$$$
