=
 OpenBabel11052416503D

 32 37  0  0  1  0  0  0  0  0999 V2000
  189.7580  176.6010  142.3330 C   0  0  2  0  0  3  0  0  0  0  0  0
  187.4710  177.8180  138.3070 C   0  0  0  0  0  2  0  0  0  0  0  0
  192.1370  174.4060  136.9500 C   0  0  0  0  0  3  0  0  0  0  0  0
  191.1420  173.4960  136.8480 C   0  0  0  0  0  3  0  0  0  0  0  0
  188.2150  178.4790  140.5860 C   0  0  2  0  0  3  0  0  0  0  0  0
  190.1620  178.2280  138.8720 C   0  0  0  0  0  2  0  0  0  0  0  0
  190.0050  176.5010  140.8360 C   0  0  0  0  0  2  0  0  0  0  0  0
  191.8670  175.8940  137.0820 C   0  0  0  0  0  2  0  0  0  0  0  0
  189.9150  177.5130  137.5350 C   0  0  1  0  0  3  0  0  0  0  0  0
  190.4440  176.1050  137.5750 C   0  0  1  0  0  3  0  0  0  0  0  0
  188.1820  175.8870  136.9440 N   0  0  0  0  0  0  0  0  0  0  0  0
  188.2810  176.8520  142.6110 C   0  0  0  0  0  2  0  0  0  0  0  0
  189.3460  177.6190  140.0170 C   0  0  1  0  0  0  0  0  0  0  0  0
  187.8370  178.2030  142.0510 C   0  0  0  0  0  2  0  0  0  0  0  0
  189.6740  173.8760  136.9410 C   0  0  0  0  0  2  0  0  0  0  0  0
  189.5110  175.3680  136.6650 C   0  0  2  0  0  3  0  0  0  0  0  0
  187.8830  177.2990  139.6820 C   0  0  2  0  0  3  0  0  0  0  0  0
  188.4150  177.3120  137.2110 C   0  0  1  0  0  3  0  0  0  0  0  0
  190.8210  177.8730  143.1000 S   0  0  0  0  0  0  0  0  0  0  0  0
  191.5700  176.6820  144.2540 C   0  0  0  0  0  2  0  0  0  0  0  0
  191.1480  176.9720  145.6590 C   0  0  0  0  0  0  0  0  0  0  0  0
  189.7590  177.4490  145.9360 C   0  0  0  0  0  1  0  0  0  0  0  0
  191.9530  176.8670  146.5740 O   0  0  0  0  0  0  0  0  0  0  0  0
  187.4160  175.8330  135.7040 C   0  0  0  0  0  2  0  0  0  0  0  0
  187.3720  173.2670  134.5940 O   0  0  0  0  0  1  0  0  0  0  0  0
  185.1300  172.6580  135.3530 C   0  0  2  0  0  3  0  0  0  0  0  0
  186.1670  174.9730  135.8740 C   0  0  2  0  0  3  0  0  0  0  0  0
  184.6520  173.8670  137.5550 C   0  0  0  0  0  2  0  0  0  0  0  0
  184.0550  173.1930  136.3060 C   0  0  0  0  0  2  0  0  0  0  0  0
  185.8390  171.4650  135.9850 C   0  0  0  0  0  1  0  0  0  0  0  0
  186.0210  174.5160  137.3210 C   0  0  0  0  0  2  0  0  0  0  0  0
  186.0980  173.7760  134.8980 C   0  0  1  0  0  3  0  0  0  0  0  0
  1 12  1  0  0  0  0
  1 19  1  6  0  0  0
  3  8  1  0  0  0  0
  4 15  1  0  0  0  0
  4  3  2  0  0  0  0
  5 14  1  1  0  0  0
  7  1  1  0  0  0  0
  9 10  1  0  0  0  0
  9  6  1  1  0  0  0
 10  8  1  6  0  0  0
 11 18  1  0  0  0  0
 13  6  1  6  0  0  0
 13  5  1  0  0  0  0
 13  7  1  0  0  0  0
 14 12  1  0  0  0  0
 16 15  1  1  0  0  0
 16 11  1  0  0  0  0
 16 10  1  0  0  0  0
 17  2  1  6  0  0  0
 17 13  1  0  0  0  0
 17  5  1  0  0  0  0
 18  9  1  0  0  0  0
 18  2  1  1  0  0  0
 19 20  1  0  0  0  0
 20 21  1  0  0  0  0
 21 22  1  0  0  0  0
 21 23  2  0  0  0  0
 24 11  1  0  0  0  0
 26 30  1  1  0  0  0
 26 29  1  0  0  0  0
 27 24  1  1  0  0  0
 27 31  1  0  0  0  0
 29 28  1  0  0  0  0
 31 28  1  0  0  0  0
 32 25  1  1  0  0  0
 32 26  1  0  0  0  0
 32 27  1  0  0  0  0
M  END
>  <MODEL>
1

>  <REMARK>
 VINA RESULT:      -6.5      0.000      0.000
  Name = 
  5 active torsions:
  status: ('A' for Active; 'I' for Inactive)
    1  A    between atoms: C_1  and  C_10
    2  A    between atoms: C_2  and  S_24
    3  A    between atoms: C_10  and  S_24
    4  A    between atoms: C_11  and  C_27
    5  A    between atoms: N_16  and  C_27
                            x       y       z     vdW  Elec       q    Type
                         _______ _______ _______ _____ _____    ______ ____

>  <TORSDO>
F 5

$$$$
=
 OpenBabel11052416503D

 32 37  0  0  1  0  0  0  0  0999 V2000
  189.9110  176.4010  142.5790 C   0  0  2  0  0  3  0  0  0  0  0  0
  187.4430  177.9560  138.7830 C   0  0  0  0  0  2  0  0  0  0  0  0
  191.9120  174.5130  136.9330 C   0  0  0  0  0  3  0  0  0  0  0  0
  190.8840  173.6400  136.8280 C   0  0  0  0  0  3  0  0  0  0  0  0
  188.3340  178.4370  141.0540 C   0  0  2  0  0  3  0  0  0  0  0  0
  190.1730  178.2490  139.2170 C   0  0  0  0  0  2  0  0  0  0  0  0
  190.0700  176.3970  141.0670 C   0  0  0  0  0  2  0  0  0  0  0  0
  191.6990  175.9950  137.1800 C   0  0  0  0  0  2  0  0  0  0  0  0
  189.8280  177.6350  137.8520 C   0  0  1  0  0  3  0  0  0  0  0  0
  190.3120  176.2130  137.7670 C   0  0  1  0  0  3  0  0  0  0  0  0
  188.0130  176.1030  137.2550 N   0  0  0  0  0  0  0  0  0  0  0  0
  188.4600  176.6740  142.9580 C   0  0  0  0  0  2  0  0  0  0  0  0
  189.4030  177.5860  140.3650 C   0  0  1  0  0  0  0  0  0  0  0  0
  188.0300  178.0730  142.5160 C   0  0  0  0  0  2  0  0  0  0  0  0
  189.4370  174.0550  137.0310 C   0  0  0  0  0  2  0  0  0  0  0  0
  189.3070  175.5660  136.8650 C   0  0  2  0  0  3  0  0  0  0  0  0
  187.9140  177.3320  140.0940 C   0  0  2  0  0  3  0  0  0  0  0  0
  188.3070  177.4990  137.6030 C   0  0  1  0  0  3  0  0  0  0  0  0
  191.0560  177.5860  143.3660 S   0  0  0  0  0  0  0  0  0  0  0  0
  191.5300  176.4050  144.6670 C   0  0  0  0  0  2  0  0  0  0  0  0
  191.1300  176.9140  146.0140 C   0  0  0  0  0  0  0  0  0  0  0  0
  189.7760  177.5160  146.2100 C   0  0  0  0  0  1  0  0  0  0  0  0
  191.9270  176.8850  146.9420 O   0  0  0  0  0  0  0  0  0  0  0  0
  187.1780  176.1560  136.0610 C   0  0  0  0  0  2  0  0  0  0  0  0
  184.7190  177.3850  136.5770 O   0  0  0  0  0  1  0  0  0  0  0  0
  183.3800  175.3420  136.6520 C   0  0  2  0  0  3  0  0  0  0  0  0
  185.9350  175.2860  136.2280 C   0  0  2  0  0  3  0  0  0  0  0  0
  184.4360  173.6110  135.0930 C   0  0  0  0  0  2  0  0  0  0  0  0
  183.5370  173.8540  136.3190 C   0  0  0  0  0  2  0  0  0  0  0  0
  182.5530  176.0320  135.5730 C   0  0  0  0  0  1  0  0  0  0  0  0
  185.5230  174.6740  134.8950 C   0  0  0  0  0  2  0  0  0  0  0  0
  184.7500  176.0180  136.9000 C   0  0  1  0  0  3  0  0  0  0  0  0
  1 12  1  0  0  0  0
  1 19  1  1  0  0  0
  3  8  1  0  0  0  0
  4  3  2  0  0  0  0
  4 15  1  0  0  0  0
  5 14  1  1  0  0  0
  7  1  1  0  0  0  0
  9  6  1  1  0  0  0
 10  8  1  6  0  0  0
 10  9  1  0  0  0  0
 11 18  1  0  0  0  0
 13  6  1  6  0  0  0
 13  5  1  0  0  0  0
 13  7  1  0  0  0  0
 14 12  1  0  0  0  0
 16 15  1  1  0  0  0
 16 11  1  0  0  0  0
 16 10  1  0  0  0  0
 17  2  1  6  0  0  0
 17 13  1  0  0  0  0
 17  5  1  0  0  0  0
 18  9  1  0  0  0  0
 18  2  1  1  0  0  0
 19 20  1  0  0  0  0
 20 21  1  0  0  0  0
 21 22  1  0  0  0  0
 21 23  2  0  0  0  0
 24 11  1  0  0  0  0
 26 30  1  6  0  0  0
 26 32  1  0  0  0  0
 27 24  1  6  0  0  0
 27 32  1  0  0  0  0
 28 29  1  0  0  0  0
 29 26  1  0  0  0  0
 31 28  1  0  0  0  0
 31 27  1  0  0  0  0
 32 25  1  6  0  0  0
M  END
>  <MODEL>
2

>  <REMARK>
 VINA RESULT:      -6.2      1.307      1.763
  Name = 
  5 active torsions:
  status: ('A' for Active; 'I' for Inactive)
    1  A    between atoms: C_1  and  C_10
    2  A    between atoms: C_2  and  S_24
    3  A    between atoms: C_10  and  S_24
    4  A    between atoms: C_11  and  C_27
    5  A    between atoms: N_16  and  C_27
                            x       y       z     vdW  Elec       q    Type
                         _______ _______ _______ _____ _____    ______ ____

>  <TORSDO>
F 5

$$$$
=
 OpenBabel11052416503D

 32 37  0  0  1  0  0  0  0  0999 V2000
  180.2460  175.0470  138.9250 C   0  0  2  0  0  3  0  0  0  0  0  0
  183.8690  178.0470  139.8150 C   0  0  0  0  0  2  0  0  0  0  0  0
  179.2750  179.4390  143.3100 C   0  0  0  0  0  3  0  0  0  0  0  0
  180.0490  178.7690  144.1940 C   0  0  0  0  0  3  0  0  0  0  0  0
  182.6000  176.7190  138.1390 C   0  0  2  0  0  3  0  0  0  0  0  0
  181.2760  178.7480  139.1000 C   0  0  0  0  0  2  0  0  0  0  0  0
  180.4640  176.3320  139.7080 C   0  0  0  0  0  2  0  0  0  0  0  0
  179.7830  179.8630  141.9430 C   0  0  0  0  0  2  0  0  0  0  0  0
  181.7790  179.4570  140.3660 C   0  0  1  0  0  3  0  0  0  0  0  0
  180.9940  179.0210  141.5720 C   0  0  1  0  0  3  0  0  0  0  0  0
  183.2470  178.6140  142.1350 N   0  0  0  0  0  0  0  0  0  0  0  0
  181.5820  174.3790  138.6220 C   0  0  0  0  0  2  0  0  0  0  0  0
  181.5550  177.2410  139.1270 C   0  0  1  0  0  0  0  0  0  0  0  0
  182.4390  175.2530  137.7070 C   0  0  0  0  0  2  0  0  0  0  0  0
  181.4590  178.3120  143.8630 C   0  0  0  0  0  2  0  0  0  0  0  0
  181.9960  179.1150  142.6810 C   0  0  2  0  0  3  0  0  0  0  0  0
  182.9540  176.8420  139.6150 C   0  0  2  0  0  3  0  0  0  0  0  0
  183.2330  179.0850  140.7450 C   0  0  1  0  0  3  0  0  0  0  0  0
  179.2740  175.3460  137.4080 S   0  0  0  0  0  0  0  0  0  0  0  0
  178.9970  173.5700  137.1260 C   0  0  0  0  0  2  0  0  0  0  0  0
  179.4580  173.1740  135.7600 C   0  0  0  0  0  0  0  0  0  0  0  0
  180.2160  174.1500  134.9190 C   0  0  0  0  0  1  0  0  0  0  0  0
  179.1720  172.0730  135.3120 O   0  0  0  0  0  0  0  0  0  0  0  0
  184.3340  179.3330  142.7900 C   0  0  0  0  0  2  0  0  0  0  0  0
  186.8760  178.2780  142.2920 O   0  0  0  0  0  1  0  0  0  0  0  0
  187.1370  177.1230  144.4310 C   0  0  2  0  0  3  0  0  0  0  0  0
  184.9970  178.4630  143.8550 C   0  0  2  0  0  3  0  0  0  0  0  0
  185.8500  178.4140  146.2240 C   0  0  0  0  0  2  0  0  0  0  0  0
  186.4390  177.0590  145.7940 C   0  0  0  0  0  2  0  0  0  0  0  0
  188.4160  177.9460  144.5400 C   0  0  0  0  0  1  0  0  0  0  0  0
  185.4130  179.3050  145.0540 C   0  0  0  0  0  2  0  0  0  0  0  0
  186.1800  177.6220  143.3220 C   0  0  1  0  0  3  0  0  0  0  0  0
  1 19  1  6  0  0  0
  1  7  1  0  0  0  0
  3  4  2  0  0  0  0
  5 14  1  1  0  0  0
  5 13  1  0  0  0  0
  5 17  1  0  0  0  0
  8  3  1  0  0  0  0
  9  6  1  6  0  0  0
  9 18  1  0  0  0  0
  9 10  1  0  0  0  0
 10  8  1  1  0  0  0
 10 16  1  0  0  0  0
 11 16  1  0  0  0  0
 11 24  1  0  0  0  0
 12  1  1  0  0  0  0
 13  6  1  6  0  0  0
 13 17  1  0  0  0  0
 13  7  1  0  0  0  0
 14 12  1  0  0  0  0
 15  4  1  0  0  0  0
 16 15  1  1  0  0  0
 17  2  1  6  0  0  0
 18  2  1  6  0  0  0
 18 11  1  0  0  0  0
 20 19  1  0  0  0  0
 21 20  1  0  0  0  0
 22 21  1  0  0  0  0
 23 21  2  0  0  0  0
 26 30  1  1  0  0  0
 26 29  1  0  0  0  0
 27 24  1  6  0  0  0
 27 31  1  0  0  0  0
 29 28  1  0  0  0  0
 31 28  1  0  0  0  0
 32 25  1  6  0  0  0
 32 27  1  0  0  0  0
 32 26  1  0  0  0  0
M  END
>  <MODEL>
3

>  <REMARK>
 VINA RESULT:      -6.1      5.906     10.772
  Name = 
  5 active torsions:
  status: ('A' for Active; 'I' for Inactive)
    1  A    between atoms: C_1  and  C_10
    2  A    between atoms: C_2  and  S_24
    3  A    between atoms: C_10  and  S_24
    4  A    between atoms: C_11  and  C_27
    5  A    between atoms: N_16  and  C_27
                            x       y       z     vdW  Elec       q    Type
                         _______ _______ _______ _____ _____    ______ ____

>  <TORSDO>
F 5

$$$$
=
 OpenBabel11052416503D

 32 37  0  0  1  0  0  0  0  0999 V2000
  190.1280  176.4370  141.4370 C   0  0  2  0  0  3  0  0  0  0  0  0
  186.5520  178.4660  138.9840 C   0  0  0  0  0  2  0  0  0  0  0  0
  189.9480  175.3310  135.2570 C   0  0  0  0  0  3  0  0  0  0  0  0
  188.9140  174.4730  135.4110 C   0  0  0  0  0  3  0  0  0  0  0  0
  188.2000  178.6470  140.8360 C   0  0  2  0  0  3  0  0  0  0  0  0
  189.2710  178.7180  138.4610 C   0  0  0  0  0  2  0  0  0  0  0  0
  189.7470  176.6350  139.9780 C   0  0  0  0  0  2  0  0  0  0  0  0
  189.8950  176.7660  135.7490 C   0  0  0  0  0  2  0  0  0  0  0  0
  188.4460  178.2880  137.2400 C   0  0  1  0  0  3  0  0  0  0  0  0
  188.8120  176.8940  136.8090 C   0  0  1  0  0  3  0  0  0  0  0  0
  186.4770  176.8370  137.1310 N   0  0  0  0  0  0  0  0  0  0  0  0
  188.9140  176.6480  142.3340 C   0  0  0  0  0  2  0  0  0  0  0  0
  188.9250  177.9030  139.7130 C   0  0  1  0  0  0  0  0  0  0  0  0
  188.4130  178.0890  142.2530 C   0  0  0  0  0  2  0  0  0  0  0  0
  187.6480  174.8470  136.1610 C   0  0  0  0  0  2  0  0  0  0  0  0
  187.5290  176.3660  136.2450 C   0  0  2  0  0  3  0  0  0  0  0  0
  187.4270  177.6770  139.9540 C   0  0  2  0  0  3  0  0  0  0  0  0
  186.9290  178.1760  137.5270 C   0  0  1  0  0  3  0  0  0  0  0  0
  191.5230  177.5150  141.9140 S   0  0  0  0  0  0  0  0  0  0  0  0
  191.6820  176.7380  143.5520 C   0  0  0  0  0  2  0  0  0  0  0  0
  191.5950  177.7650  144.6340 C   0  0  0  0  0  0  0  0  0  0  0  0
  191.3830  179.2020  144.2820 C   0  0  0  0  0  1  0  0  0  0  0  0
  191.7460  177.4380  145.8030 O   0  0  0  0  0  0  0  0  0  0  0  0
  185.2790  177.0430  136.3240 C   0  0  0  0  0  2  0  0  0  0  0  0
  183.2180  178.2080  137.8140 O   0  0  0  0  0  1  0  0  0  0  0  0
  181.8940  176.1760  138.1210 C   0  0  2  0  0  3  0  0  0  0  0  0
  184.1330  176.1640  136.8190 C   0  0  2  0  0  3  0  0  0  0  0  0
  182.2540  174.6480  136.1020 C   0  0  0  0  0  2  0  0  0  0  0  0
  181.8530  174.7400  137.5850 C   0  0  0  0  0  2  0  0  0  0  0  0
  180.7750  176.9980  137.4920 C   0  0  0  0  0  1  0  0  0  0  0  0
  183.2520  175.7240  135.6560 C   0  0  0  0  0  2  0  0  0  0  0  0
  183.2950  176.8110  137.9450 C   0  0  1  0  0  3  0  0  0  0  0  0
  1 19  1  1  0  0  0
  1 12  1  0  0  0  0
  3  4  2  0  0  0  0
  3  8  1  0  0  0  0
  4 15  1  0  0  0  0
  5 14  1  1  0  0  0
  7  1  1  0  0  0  0
  9 18  1  0  0  0  0
  9  6  1  1  0  0  0
 10  8  1  6  0  0  0
 10  9  1  0  0  0  0
 11 18  1  0  0  0  0
 13  6  1  6  0  0  0
 13 17  1  0  0  0  0
 13  7  1  0  0  0  0
 13  5  1  0  0  0  0
 14 12  1  0  0  0  0
 16 15  1  1  0  0  0
 16 10  1  0  0  0  0
 16 11  1  0  0  0  0
 17  2  1  6  0  0  0
 17  5  1  0  0  0  0
 18  2  1  1  0  0  0
 19 20  1  0  0  0  0
 20 21  1  0  0  0  0
 21 23  2  0  0  0  0
 22 21  1  0  0  0  0
 24 11  1  0  0  0  0
 26 30  1  6  0  0  0
 27 24  1  6  0  0  0
 27 32  1  0  0  0  0
 28 29  1  0  0  0  0
 29 26  1  0  0  0  0
 31 28  1  0  0  0  0
 31 27  1  0  0  0  0
 32 25  1  6  0  0  0
 32 26  1  0  0  0  0
M  END
>  <MODEL>
4

>  <REMARK>
 VINA RESULT:      -6.0      2.283      2.943
  Name = 
  5 active torsions:
  status: ('A' for Active; 'I' for Inactive)
    1  A    between atoms: C_1  and  C_10
    2  A    between atoms: C_2  and  S_24
    3  A    between atoms: C_10  and  S_24
    4  A    between atoms: C_11  and  C_27
    5  A    between atoms: N_16  and  C_27
                            x       y       z     vdW  Elec       q    Type
                         _______ _______ _______ _____ _____    ______ ____

>  <TORSDO>
F 5

$$$$
=
 OpenBabel11052416503D

 32 37  0  0  1  0  0  0  0  0999 V2000
  185.2500  179.0800  142.8150 C   0  0  2  0  0  3  0  0  0  0  0  0
  183.1120  179.0600  138.5310 C   0  0  0  0  0  2  0  0  0  0  0  0
  178.9690  179.0250  142.7840 C   0  0  0  0  0  3  0  0  0  0  0  0
  178.9310  180.3300  142.4290 C   0  0  0  0  0  3  0  0  0  0  0  0
  185.0140  178.2930  139.9370 C   0  0  2  0  0  3  0  0  0  0  0  0
  182.7260  177.2250  140.5830 C   0  0  0  0  0  2  0  0  0  0  0  0
  183.8430  178.8890  142.2710 C   0  0  0  0  0  2  0  0  0  0  0  0
  179.7180  177.9830  141.9730 C   0  0  0  0  0  2  0  0  0  0  0  0
  181.4220  177.8330  140.0460 C   0  0  1  0  0  3  0  0  0  0  0  0
  180.7510  178.6750  141.0970 C   0  0  1  0  0  3  0  0  0  0  0  0
  180.9880  180.1010  139.2340 N   0  0  0  0  0  0  0  0  0  0  0  0
  186.1340  179.7520  141.7720 C   0  0  0  0  0  2  0  0  0  0  0  0
  183.7940  178.2900  140.8600 C   0  0  1  0  0  0  0  0  0  0  0  0
  186.3080  178.8610  140.5420 C   0  0  0  0  0  2  0  0  0  0  0  0
  179.7000  180.8750  141.2380 C   0  0  0  0  0  2  0  0  0  0  0  0
  180.0610  179.7330  140.2930 C   0  0  2  0  0  3  0  0  0  0  0  0
  183.9440  179.3640  139.7740 C   0  0  2  0  0  3  0  0  0  0  0  0
  181.6390  178.8320  138.8860 C   0  0  1  0  0  3  0  0  0  0  0  0
  185.9600  177.5010  143.3950 S   0  0  0  0  0  0  0  0  0  0  0  0
  185.6640  177.9050  145.1450 C   0  0  0  0  0  2  0  0  0  0  0  0
  186.9370  177.8370  145.9250 C   0  0  0  0  0  0  0  0  0  0  0  0
  188.2220  177.5220  145.2280 C   0  0  0  0  0  1  0  0  0  0  0  0
  186.9210  177.9880  147.1390 O   0  0  0  0  0  0  0  0  0  0  0  0
  180.1980  180.4790  138.0670 C   0  0  0  0  0  2  0  0  0  0  0  0
  179.8830  181.0260  135.3430 O   0  0  0  0  0  1  0  0  0  0  0  0
  180.7780  183.3000  135.3950 C   0  0  2  0  0  3  0  0  0  0  0  0
  180.6430  181.8360  137.5270 C   0  0  2  0  0  3  0  0  0  0  0  0
  180.2850  184.3230  137.6860 C   0  0  0  0  0  2  0  0  0  0  0  0
  181.1810  184.3520  136.4350 C   0  0  0  0  0  2  0  0  0  0  0  0
  179.4370  183.6730  134.7710 C   0  0  0  0  0  1  0  0  0  0  0  0
  179.7110  182.9390  138.0140 C   0  0  0  0  0  2  0  0  0  0  0  0
  180.8000  181.8710  135.9900 C   0  0  1  0  0  3  0  0  0  0  0  0
  1 19  1  6  0  0  0
  4  3  2  0  0  0  0
  5 14  1  1  0  0  0
  5 13  1  0  0  0  0
  7  1  1  0  0  0  0
  8  3  1  0  0  0  0
  9  6  1  1  0  0  0
  9 10  1  0  0  0  0
 10  8  1  6  0  0  0
 11 16  1  0  0  0  0
 12  1  1  0  0  0  0
 13  6  1  6  0  0  0
 13  7  1  0  0  0  0
 14 12  1  0  0  0  0
 15  4  1  0  0  0  0
 16 10  1  0  0  0  0
 16 15  1  1  0  0  0
 17  2  1  6  0  0  0
 17  5  1  0  0  0  0
 17 13  1  0  0  0  0
 18  2  1  1  0  0  0
 18 11  1  0  0  0  0
 18  9  1  0  0  0  0
 19 20  1  0  0  0  0
 20 21  1  0  0  0  0
 21 23  2  0  0  0  0
 22 21  1  0  0  0  0
 24 11  1  0  0  0  0
 26 30  1  1  0  0  0
 26 32  1  0  0  0  0
 26 29  1  0  0  0  0
 27 31  1  0  0  0  0
 27 24  1  6  0  0  0
 28 31  1  0  0  0  0
 29 28  1  0  0  0  0
 32 25  1  6  0  0  0
 32 27  1  0  0  0  0
M  END
>  <MODEL>
5

>  <REMARK>
 VINA RESULT:      -6.0      6.894      9.096
  Name = 
  5 active torsions:
  status: ('A' for Active; 'I' for Inactive)
    1  A    between atoms: C_1  and  C_10
    2  A    between atoms: C_2  and  S_24
    3  A    between atoms: C_10  and  S_24
    4  A    between atoms: C_11  and  C_27
    5  A    between atoms: N_16  and  C_27
                            x       y       z     vdW  Elec       q    Type
                         _______ _______ _______ _____ _____    ______ ____

>  <TORSDO>
F 5

$$$$
=
 OpenBabel11052416503D

 32 37  0  0  1  0  0  0  0  0999 V2000
  191.1760  177.9380  144.6420 C   0  0  2  0  0  3  0  0  0  0  0  0
  187.6030  178.0510  141.4580 C   0  0  0  0  0  2  0  0  0  0  0  0
  185.3330  178.0580  146.9440 C   0  0  0  0  0  3  0  0  0  0  0  0
  185.2080  179.3690  146.6360 C   0  0  0  0  0  3  0  0  0  0  0  0
  189.8650  177.2070  142.0530 C   0  0  2  0  0  3  0  0  0  0  0  0
  187.9470  176.1920  143.4960 C   0  0  0  0  0  2  0  0  0  0  0  0
  189.6630  177.7950  144.6580 C   0  0  0  0  0  2  0  0  0  0  0  0
  185.6940  177.0100  145.9070 C   0  0  0  0  0  2  0  0  0  0  0  0
  186.5570  176.8450  143.4850 C   0  0  1  0  0  3  0  0  0  0  0  0
  186.3500  177.6870  144.7140 C   0  0  1  0  0  3  0  0  0  0  0  0
  185.9250  179.1390  142.9050 N   0  0  0  0  0  0  0  0  0  0  0  0
  191.6320  178.6030  143.3490 C   0  0  0  0  0  2  0  0  0  0  0  0
  189.0740  177.2220  143.3630 C   0  0  1  0  0  0  0  0  0  0  0  0
  191.3090  177.7290  142.1380 C   0  0  0  0  0  2  0  0  0  0  0  0
  185.4980  179.9130  145.2480 C   0  0  0  0  0  2  0  0  0  0  0  0
  185.4460  178.7780  144.2290 C   0  0  2  0  0  3  0  0  0  0  0  0
  188.8460  178.3100  142.3050 C   0  0  2  0  0  3  0  0  0  0  0  0
  186.3600  177.8580  142.3320 C   0  0  1  0  0  3  0  0  0  0  0  0
  191.9990  176.3290  144.9080 S   0  0  0  0  0  0  0  0  0  0  0  0
  191.0640  176.0000  146.4340 C   0  0  0  0  0  2  0  0  0  0  0  0
  191.8130  176.4920  147.6300 C   0  0  0  0  0  0  0  0  0  0  0  0
  192.8830  175.6440  148.2390 C   0  0  0  0  0  1  0  0  0  0  0  0
  191.5180  177.5640  148.1400 O   0  0  0  0  0  0  0  0  0  0  0  0
  184.7720  179.5580  142.1160 C   0  0  0  0  0  2  0  0  0  0  0  0
  182.1660  178.6300  141.7020 O   0  0  0  0  0  1  0  0  0  0  0  0
  182.6610  177.2220  139.7660 C   0  0  2  0  0  3  0  0  0  0  0  0
  184.5070  178.5760  140.9780 C   0  0  2  0  0  3  0  0  0  0  0  0
  184.6210  178.2480  138.4830 C   0  0  0  0  0  2  0  0  0  0  0  0
  183.8200  176.9710  138.7950 C   0  0  0  0  0  2  0  0  0  0  0  0
  181.5810  178.0530  139.0830 C   0  0  0  0  0  1  0  0  0  0  0  0
  184.6390  179.2690  139.6280 C   0  0  0  0  0  2  0  0  0  0  0  0
  183.1550  177.8350  141.0990 C   0  0  1  0  0  3  0  0  0  0  0  0
  1  7  1  0  0  0  0
  1 19  1  6  0  0  0
  4  3  2  0  0  0  0
  5 14  1  1  0  0  0
  5 17  1  0  0  0  0
  5 13  1  0  0  0  0
  8  3  1  0  0  0  0
  9  6  1  1  0  0  0
  9 10  1  0  0  0  0
 10  8  1  1  0  0  0
 11 16  1  0  0  0  0
 12  1  1  0  0  0  0
 13  6  1  1  0  0  0
 13  7  1  0  0  0  0
 14 12  1  0  0  0  0
 15  4  1  0  0  0  0
 16 10  1  0  0  0  0
 16 15  1  1  0  0  0
 17  2  1  6  0  0  0
 17 13  1  0  0  0  0
 18  2  1  1  0  0  0
 18 11  1  0  0  0  0
 18  9  1  0  0  0  0
 19 20  1  0  0  0  0
 20 21  1  0  0  0  0
 21 23  2  0  0  0  0
 21 22  1  0  0  0  0
 24 11  1  0  0  0  0
 26 30  1  6  0  0  0
 26 32  1  0  0  0  0
 27 32  1  0  0  0  0
 27 24  1  1  0  0  0
 28 29  1  0  0  0  0
 28 31  1  0  0  0  0
 29 26  1  0  0  0  0
 31 27  1  0  0  0  0
 32 25  1  6  0  0  0
M  END
>  <MODEL>
6

>  <REMARK>
 VINA RESULT:      -5.9      4.456      6.777
  Name = 
  5 active torsions:
  status: ('A' for Active; 'I' for Inactive)
    1  A    between atoms: C_1  and  C_10
    2  A    between atoms: C_2  and  S_24
    3  A    between atoms: C_10  and  S_24
    4  A    between atoms: C_11  and  C_27
    5  A    between atoms: N_16  and  C_27
                            x       y       z     vdW  Elec       q    Type
                         _______ _______ _______ _____ _____    ______ ____

>  <TORSDO>
F 5

$$$$
=
 OpenBabel11052416503D

 32 37  0  0  1  0  0  0  0  0999 V2000
  190.7040  178.4780  145.3700 C   0  0  2  0  0  3  0  0  0  0  0  0
  188.6040  177.5520  141.1680 C   0  0  0  0  0  2  0  0  0  0  0  0
  184.4340  178.8240  145.1990 C   0  0  0  0  0  3  0  0  0  0  0  0
  184.4880  180.0020  144.5360 C   0  0  0  0  0  3  0  0  0  0  0  0
  190.4370  177.0290  142.7640 C   0  0  2  0  0  3  0  0  0  0  0  0
  188.0770  176.3020  143.5940 C   0  0  0  0  0  2  0  0  0  0  0  0
  189.2910  178.2520  144.8540 C   0  0  0  0  0  2  0  0  0  0  0  0
  185.1160  177.5690  144.6830 C   0  0  0  0  0  2  0  0  0  0  0  0
  186.8210  176.8430  142.8940 C   0  0  1  0  0  3  0  0  0  0  0  0
  186.2010  177.9580  143.6910 C   0  0  1  0  0  3  0  0  0  0  0  0
  186.5510  178.8680  141.5440 N   0  0  0  0  0  0  0  0  0  0  0  0
  191.6400  178.8160  144.2160 C   0  0  0  0  0  2  0  0  0  0  0  0
  189.2120  177.3310  143.6300 C   0  0  1  0  0  0  0  0  0  0  0  0
  191.7630  177.6430  143.2450 C   0  0  0  0  0  2  0  0  0  0  0  0
  185.3030  180.1890  143.2680 C   0  0  0  0  0  2  0  0  0  0  0  0
  185.5930  178.8300  142.6380 C   0  0  2  0  0  3  0  0  0  0  0  0
  189.4450  178.0950  142.3200 C   0  0  2  0  0  3  0  0  0  0  0  0
  187.1160  177.5130  141.5310 C   0  0  1  0  0  3  0  0  0  0  0  0
  191.2990  177.0450  146.3330 S   0  0  0  0  0  0  0  0  0  0  0  0
  189.6640  176.7500  147.0760 C   0  0  0  0  0  2  0  0  0  0  0  0
  189.3670  177.7740  148.1240 C   0  0  0  0  0  0  0  0  0  0  0  0
  187.9650  178.2530  148.3200 C   0  0  0  0  0  1  0  0  0  0  0  0
  190.2770  178.2550  148.7850 O   0  0  0  0  0  0  0  0  0  0  0  0
  185.7990  179.0000  140.3020 C   0  0  0  0  0  2  0  0  0  0  0  0
  183.7940  180.5210  139.0810 O   0  0  0  0  0  1  0  0  0  0  0  0
  181.8970  179.2060  139.8840 C   0  0  2  0  0  3  0  0  0  0  0  0
  184.3380  178.6030  140.5060 C   0  0  2  0  0  3  0  0  0  0  0  0
  182.6420  176.7750  140.1590 C   0  0  0  0  0  2  0  0  0  0  0  0
  181.6440  177.8660  140.5850 C   0  0  0  0  0  2  0  0  0  0  0  0
  181.5510  179.0910  138.4040 C   0  0  0  0  0  1  0  0  0  0  0  0
  184.0230  177.3110  139.7630 C   0  0  0  0  0  2  0  0  0  0  0  0
  183.3350  179.7210  140.1400 C   0  0  1  0  0  3  0  0  0  0  0  0
  1 19  1  6  0  0  0
  4  3  2  0  0  0  0
  5 14  1  1  0  0  0
  5 13  1  0  0  0  0
  7  1  1  0  0  0  0
  8  3  1  0  0  0  0
  9  6  1  1  0  0  0
  9 10  1  0  0  0  0
 10  8  1  1  0  0  0
 11 16  1  0  0  0  0
 12  1  1  0  0  0  0
 13  6  1  6  0  0  0
 13  7  1  0  0  0  0
 14 12  1  0  0  0  0
 15  4  1  0  0  0  0
 16 15  1  1  0  0  0
 16 10  1  0  0  0  0
 17  2  1  6  0  0  0
 17  5  1  0  0  0  0
 17 13  1  0  0  0  0
 18  2  1  1  0  0  0
 18 11  1  0  0  0  0
 18  9  1  0  0  0  0
 19 20  1  0  0  0  0
 20 21  1  0  0  0  0
 21 22  1  0  0  0  0
 21 23  2  0  0  0  0
 24 11  1  0  0  0  0
 26 30  1  6  0  0  0
 26 32  1  0  0  0  0
 26 29  1  0  0  0  0
 27 24  1  6  0  0  0
 28 29  1  0  0  0  0
 31 28  1  0  0  0  0
 31 27  1  0  0  0  0
 32 25  1  6  0  0  0
 32 27  1  0  0  0  0
M  END
>  <MODEL>
7

>  <REMARK>
 VINA RESULT:      -5.7      4.498      6.552
  Name = 
  5 active torsions:
  status: ('A' for Active; 'I' for Inactive)
    1  A    between atoms: C_1  and  C_10
    2  A    between atoms: C_2  and  S_24
    3  A    between atoms: C_10  and  S_24
    4  A    between atoms: C_11  and  C_27
    5  A    between atoms: N_16  and  C_27
                            x       y       z     vdW  Elec       q    Type
                         _______ _______ _______ _____ _____    ______ ____

>  <TORSDO>
F 5

$$$$
=
 OpenBabel11052416503D

 32 37  0  0  1  0  0  0  0  0999 V2000
  187.1020  175.2600  136.7410 C   0  0  2  0  0  3  0  0  0  0  0  0
  191.0800  176.7630  138.9400 C   0  0  0  0  0  2  0  0  0  0  0  0
  186.3400  178.5610  142.0300 C   0  0  0  0  0  3  0  0  0  0  0  0
  186.7220  177.5030  142.7800 C   0  0  0  0  0  3  0  0  0  0  0  0
  189.9060  176.3070  136.7970 C   0  0  2  0  0  3  0  0  0  0  0  0
  188.9480  178.3430  138.1120 C   0  0  0  0  0  2  0  0  0  0  0  0
  187.4590  176.1990  137.8820 C   0  0  0  0  0  2  0  0  0  0  0  0
  187.2110  179.1320  140.9260 C   0  0  0  0  0  2  0  0  0  0  0  0
  189.3320  178.5480  139.5850 C   0  0  1  0  0  3  0  0  0  0  0  0
  188.2290  178.0860  140.4960 C   0  0  1  0  0  3  0  0  0  0  0  0
  190.1430  176.9150  141.2190 N   0  0  0  0  0  0  0  0  0  0  0  0
  188.2660  174.3220  136.4430 C   0  0  0  0  0  2  0  0  0  0  0  0
  188.8370  176.8590  137.7420 C   0  0  1  0  0  0  0  0  0  0  0  0
  189.4840  175.0990  135.9440 C   0  0  0  0  0  2  0  0  0  0  0  0
  188.0140  176.7460  142.5270 C   0  0  0  0  0  2  0  0  0  0  0  0
  188.9670  177.6150  141.7100 C   0  0  2  0  0  3  0  0  0  0  0  0
  189.9610  175.9630  138.2800 C   0  0  2  0  0  3  0  0  0  0  0  0
  190.5370  177.6880  140.0350 C   0  0  1  0  0  3  0  0  0  0  0  0
  186.5750  176.1850  135.2580 S   0  0  0  0  0  0  0  0  0  0  0  0
  185.3740  177.1810  136.1940 C   0  0  0  0  0  2  0  0  0  0  0  0
  184.0840  176.4420  136.3520 C   0  0  0  0  0  0  0  0  0  0  0  0
  183.5730  176.1210  137.7200 C   0  0  0  0  0  1  0  0  0  0  0  0
  183.4730  176.0560  135.3650 O   0  0  0  0  0  0  0  0  0  0  0  0
  191.2110  177.1060  142.1940 C   0  0  0  0  0  2  0  0  0  0  0  0
  192.0280  175.3000  144.1670 O   0  0  0  0  0  1  0  0  0  0  0  0
  190.7100  176.2470  145.9950 C   0  0  2  0  0  3  0  0  0  0  0  0
  190.6410  177.2400  143.6040 C   0  0  2  0  0  3  0  0  0  0  0  0
  190.4490  178.7610  145.6020 C   0  0  0  0  0  2  0  0  0  0  0  0
  189.8770  177.5030  146.2790 C   0  0  0  0  0  2  0  0  0  0  0  0
  192.0560  176.3440  146.7050 C   0  0  0  0  0  1  0  0  0  0  0  0
  191.1960  178.4810  144.2920 C   0  0  0  0  0  2  0  0  0  0  0  0
  190.8370  175.9790  144.4760 C   0  0  1  0  0  3  0  0  0  0  0  0
  1 19  1  6  0  0  0
  1  7  1  0  0  0  0
  3  4  2  0  0  0  0
  5 14  1  6  0  0  0
  5 13  1  0  0  0  0
  5 17  1  0  0  0  0
  8  3  1  0  0  0  0
  9  6  1  6  0  0  0
  9 18  1  0  0  0  0
  9 10  1  0  0  0  0
 10  8  1  1  0  0  0
 10 16  1  0  0  0  0
 11 16  1  0  0  0  0
 11 24  1  0  0  0  0
 12  1  1  0  0  0  0
 13  7  1  6  0  0  0
 13  6  1  0  0  0  0
 13 17  1  0  0  0  0
 14 12  1  0  0  0  0
 15  4  1  0  0  0  0
 16 15  1  6  0  0  0
 17  2  1  1  0  0  0
 18  2  1  6  0  0  0
 18 11  1  0  0  0  0
 19 20  1  0  0  0  0
 20 21  1  0  0  0  0
 21 22  1  0  0  0  0
 23 21  2  0  0  0  0
 26 29  1  0  0  0  0
 26 30  1  6  0  0  0
 27 24  1  6  0  0  0
 27 31  1  0  0  0  0
 27 32  1  0  0  0  0
 28 29  1  0  0  0  0
 31 28  1  0  0  0  0
 32 25  1  1  0  0  0
 32 26  1  0  0  0  0
M  END
>  <MODEL>
8

>  <REMARK>
 VINA RESULT:      -5.6      2.695      8.360
  Name = 
  5 active torsions:
  status: ('A' for Active; 'I' for Inactive)
    1  A    between atoms: C_1  and  C_10
    2  A    between atoms: C_2  and  S_24
    3  A    between atoms: C_10  and  S_24
    4  A    between atoms: C_11  and  C_27
    5  A    between atoms: N_16  and  C_27
                            x       y       z     vdW  Elec       q    Type
                         _______ _______ _______ _____ _____    ______ ____

>  <TORSDO>
F 5

$$$$
=
 OpenBabel11052416503D

 32 37  0  0  1  0  0  0  0  0999 V2000
  190.0230  176.0610  138.3420 C   0  0  2  0  0  3  0  0  0  0  0  0
  185.8660  178.1910  137.2940 C   0  0  0  0  0  2  0  0  0  0  0  0
  185.6080  172.4900  135.6570 C   0  0  0  0  0  3  0  0  0  0  0  0
  184.9090  172.4350  136.8140 C   0  0  0  0  0  3  0  0  0  0  0  0
  188.3420  178.3670  137.4390 C   0  0  2  0  0  3  0  0  0  0  0  0
  187.5050  176.8020  135.5310 C   0  0  0  0  0  2  0  0  0  0  0  0
  188.7630  175.7240  137.5620 C   0  0  0  0  0  2  0  0  0  0  0  0
  185.9910  173.8040  135.0010 C   0  0  0  0  0  2  0  0  0  0  0  0
  186.0440  176.3270  135.5190 C   0  0  1  0  0  3  0  0  0  0  0  0
  185.9340  174.9180  136.0340 C   0  0  1  0  0  3  0  0  0  0  0  0
  184.4490  176.1720  137.3700 N   0  0  0  0  0  0  0  0  0  0  0  0
  189.7640  177.2260  139.2900 C   0  0  0  0  0  2  0  0  0  0  0  0
  188.0580  176.9440  136.9540 C   0  0  1  0  0  0  0  0  0  0  0  0
  189.4310  178.5010  138.5170 C   0  0  0  0  0  2  0  0  0  0  0  0
  184.5210  173.6790  137.5940 C   0  0  0  0  0  2  0  0  0  0  0  0
  184.5830  174.8990  136.6800 C   0  0  2  0  0  3  0  0  0  0  0  0
  187.1180  177.6240  137.9580 C   0  0  2  0  0  3  0  0  0  0  0  0
  185.1290  177.1220  136.4810 C   0  0  1  0  0  3  0  0  0  0  0  0
  191.4300  176.3920  137.2250 S   0  0  0  0  0  0  0  0  0  0  0  0
  192.2170  174.7930  137.5940 C   0  0  0  0  0  2  0  0  0  0  0  0
  193.7060  174.9250  137.5930 C   0  0  0  0  0  0  0  0  0  0  0  0
  194.5570  173.7550  137.9680 C   0  0  0  0  0  1  0  0  0  0  0  0
  194.2250  176.0020  137.3350 O   0  0  0  0  0  0  0  0  0  0  0  0
  183.0380  176.5420  137.3450 C   0  0  0  0  0  2  0  0  0  0  0  0
  180.3710  176.7770  138.1530 O   0  0  0  0  0  1  0  0  0  0  0  0
  180.7610  178.3260  140.0030 C   0  0  2  0  0  3  0  0  0  0  0  0
  182.6960  177.4580  138.5180 C   0  0  2  0  0  3  0  0  0  0  0  0
  183.0870  177.8830  140.9690 C   0  0  0  0  0  2  0  0  0  0  0  0
  181.9440  178.8990  140.7910 C   0  0  0  0  0  2  0  0  0  0  0  0
  180.0470  177.2660  140.8340 C   0  0  0  0  0  1  0  0  0  0  0  0
  183.2020  176.8650  139.8270 C   0  0  0  0  0  2  0  0  0  0  0  0
  181.1960  177.8190  138.6070 C   0  0  1  0  0  3  0  0  0  0  0  0
  1 19  1  6  0  0  0
  1 12  1  0  0  0  0
  3  4  2  0  0  0  0
  4 15  1  0  0  0  0
  5 17  1  0  0  0  0
  5 14  1  1  0  0  0
  7  1  1  0  0  0  0
  8  3  1  0  0  0  0
  9  6  1  1  0  0  0
  9 10  1  0  0  0  0
  9 18  1  0  0  0  0
 10  8  1  6  0  0  0
 10 16  1  0  0  0  0
 13  6  1  6  0  0  0
 13  5  1  0  0  0  0
 13  7  1  0  0  0  0
 13 17  1  0  0  0  0
 14 12  1  0  0  0  0
 16 11  1  0  0  0  0
 16 15  1  1  0  0  0
 17  2  1  6  0  0  0
 18  2  1  1  0  0  0
 18 11  1  0  0  0  0
 19 20  1  0  0  0  0
 21 20  1  0  0  0  0
 21 22  1  0  0  0  0
 23 21  2  0  0  0  0
 24 11  1  0  0  0  0
 26 29  1  0  0  0  0
 26 30  1  1  0  0  0
 27 24  1  6  0  0  0
 27 32  1  0  0  0  0
 27 31  1  0  0  0  0
 29 28  1  0  0  0  0
 31 28  1  0  0  0  0
 32 25  1  1  0  0  0
 32 26  1  0  0  0  0
M  END
>  <MODEL>
9

>  <REMARK>
 VINA RESULT:      -5.5      3.700      6.017
  Name = 
  5 active torsions:
  status: ('A' for Active; 'I' for Inactive)
    1  A    between atoms: C_1  and  C_10
    2  A    between atoms: C_2  and  S_24
    3  A    between atoms: C_10  and  S_24
    4  A    between atoms: C_11  and  C_27
    5  A    between atoms: N_16  and  C_27
                            x       y       z     vdW  Elec       q    Type
                         _______ _______ _______ _____ _____    ______ ____

>  <TORSDO>
F 5

$$$$
