=
 OpenBabel11052417003D

 32 37  0  0  1  0  0  0  0  0999 V2000
  187.6040  178.3490  136.9580 C   0  0  1  0  0  3  0  0  0  0  0  0
  187.8910  177.9940  142.1110 C   0  0  0  0  0  0  0  0  0  0  0  0
  183.3820  179.0210  143.6420 C   0  0  0  0  0  3  0  0  0  0  0  0
  183.7740  178.7960  144.9620 C   0  0  0  0  0  3  0  0  0  0  0  0
  189.6300  177.3420  143.7850 C   0  0  0  0  0  0  0  0  0  0  0  0
  189.9350  177.1240  145.1310 C   0  0  0  0  0  0  0  0  0  0  0  0
  188.4710  178.4670  139.7580 C   0  0  2  0  0  3  0  0  0  0  0  0
  186.1510  178.5360  140.4700 N   0  0  0  0  0  2  0  0  0  0  0  0
  189.4510  177.0170  147.4920 C   0  0  1  0  0  3  0  0  0  0  0  0
  186.6530  178.7910  138.0780 C   0  0  0  0  0  2  0  0  0  0  0  0
  184.3040  178.8720  142.6050 C   0  0  0  0  0  3  0  0  0  0  0  0
  186.5520  178.3450  141.8360 C   0  0  0  0  0  0  0  0  0  0  0  0
  185.6290  178.4980  142.8770 C   0  0  0  0  0  0  0  0  0  0  0  0
  187.3510  177.8840  144.4960 C   0  0  0  0  0  0  0  0  0  0  0  0
  191.2110  176.4990  147.3640 S   0  0  0  0  0  0  0  0  0  0  0  0
  189.0700  178.5990  137.3440 C   0  0  0  0  0  2  0  0  0  0  0  0
  187.0340  178.1160  139.3910 C   0  0  1  0  0  3  0  0  0  0  0  0
  191.2030  176.7170  145.6090 N   0  0  0  0  0  2  0  0  0  0  0  0
  189.4190  177.9510  138.6860 C   0  0  0  0  0  2  0  0  0  0  0  0
  185.0900  178.4210  145.2460 C   0  0  0  0  0  3  0  0  0  0  0  0
  186.0290  178.2680  144.2120 C   0  0  0  0  0  0  0  0  0  0  0  0
  187.7220  177.6540  145.7890 N   0  0  0  0  0  0  0  0  0  0  0  0
  188.7870  177.9130  141.0340 O   0  0  0  0  0  0  0  0  0  0  0  0
  190.9240  177.0940  142.6090 Cl  0  0  0  0  0  0  0  0  0  0  0  0
  189.3610  178.2790  148.3280 C   0  0  0  0  0  1  0  0  0  0  0  0
  188.3040  177.7350  143.4420 C   0  0  0  0  0  0  0  0  0  0  0  0
  188.9870  177.2890  146.1050 C   0  0  0  0  0  0  0  0  0  0  0  0
  187.4050  176.9980  136.6590 O   0  0  0  0  0  0  0  0  0  0  0  0
  186.1810  176.9550  135.9880 C   0  0  0  0  0  2  0  0  0  0  0  0
  185.4560  175.7110  136.3550 C   0  0  0  0  0  0  0  0  0  0  0  0
  186.0460  174.7890  137.2100 O   0  0  0  0  0  1  0  0  0  0  0  0
  184.2910  175.5100  135.9230 O   0  0  0  0  0  0  0  0  0  0  0  0
  1 28  1  1  0  0  0
  1 16  1  0  0  0  0
  1 10  1  0  0  0  0
  2 26  1  0  0  0  0
  3  4  1  0  0  0  0
  4 20  2  0  0  0  0
  5  6  1  0  0  0  0
  6 18  1  0  0  0  0
  6 27  2  0  0  0  0
  7 19  1  6  0  0  0
  7 23  1  0  0  0  0
  8 12  1  0  0  0  0
  9 25  1  1  0  0  0
 11 13  1  0  0  0  0
 11  3  2  0  0  0  0
 12  2  2  0  0  0  0
 12 13  1  0  0  0  0
 13 21  2  0  0  0  0
 14 22  2  0  0  0  0
 15  9  1  0  0  0  0
 16 19  1  0  0  0  0
 17 10  1  6  0  0  0
 17  7  1  0  0  0  0
 17  8  1  0  0  0  0
 18 15  1  0  0  0  0
 21 14  1  0  0  0  0
 21 20  1  0  0  0  0
 22 27  1  0  0  0  0
 23  2  1  0  0  0  0
 24  5  1  0  0  0  0
 26  5  2  0  0  0  0
 26 14  1  0  0  0  0
 27  9  1  0  0  0  0
 29 30  1  0  0  0  0
 29 28  1  0  0  0  0
 30 31  1  0  0  0  0
 32 30  2  0  0  0  0
M  END
>  <MODEL>
1

>  <REMARK>
 VINA RESULT:     -10.3      0.000      0.000
  Name = 
  3 active torsions:
  status: ('A' for Active; 'I' for Inactive)
    1  A    between atoms: C_1  and  C_10
    2  A    between atoms: C_2  and  O_24
    3  A    between atoms: C_10  and  O_24
                            x       y       z     vdW  Elec       q    Type
                         _______ _______ _______ _____ _____    ______ ____

>  <TORSDO>
F 3

$$$$
=
 OpenBabel11052417003D

 32 37  0  0  1  0  0  0  0  0999 V2000
  181.0750  179.1510  139.4650 C   0  0  1  0  0  3  0  0  0  0  0  0
  185.6330  178.4670  141.8160 C   0  0  0  0  0  0  0  0  0  0  0  0
  184.5510  178.4690  146.5650 C   0  0  0  0  0  3  0  0  0  0  0  0
  185.8900  178.2270  146.8750 C   0  0  0  0  0  3  0  0  0  0  0  0
  187.9910  178.0440  141.1000 C   0  0  0  0  0  0  0  0  0  0  0  0
  189.3060  177.7890  141.4970 C   0  0  0  0  0  0  0  0  0  0  0  0
  183.9110  179.2230  140.2160 C   0  0  2  0  0  3  0  0  0  0  0  0
  183.3070  178.7810  142.5260 N   0  0  0  0  0  2  0  0  0  0  0  0
  191.0720  177.4100  143.0970 C   0  0  1  0  0  3  0  0  0  0  0  0
  181.5180  179.3100  140.9260 C   0  0  0  0  0  2  0  0  0  0  0  0
  184.1520  178.5840  145.2320 C   0  0  0  0  0  3  0  0  0  0  0  0
  184.6870  178.5690  142.8580 C   0  0  0  0  0  0  0  0  0  0  0  0
  185.0880  178.4580  144.1950 C   0  0  0  0  0  0  0  0  0  0  0  0
  187.3900  178.0720  143.4730 C   0  0  0  0  0  0  0  0  0  0  0  0
  191.8990  177.2590  141.4620 S   0  0  0  0  0  0  0  0  0  0  0  0
  182.1580  179.6530  138.4990 C   0  0  0  0  0  2  0  0  0  0  0  0
  182.8620  178.6260  141.1480 C   0  0  1  0  0  3  0  0  0  0  0  0
  190.3900  177.6030  140.6070 N   0  0  0  0  0  2  0  0  0  0  0  0
  183.5090  178.9870  138.7680 C   0  0  0  0  0  2  0  0  0  0  0  0
  186.8320  178.0970  145.8510 C   0  0  0  0  0  3  0  0  0  0  0  0
  186.4440  178.2100  144.5050 C   0  0  0  0  0  0  0  0  0  0  0  0
  188.6950  177.8220  143.7850 N   0  0  0  0  0  0  0  0  0  0  0  0
  185.1840  178.6460  140.4980 O   0  0  0  0  0  0  0  0  0  0  0  0
  187.6710  178.1460  139.3660 Cl  0  0  0  0  0  0  0  0  0  0  0  0
  191.6900  178.5630  143.8650 C   0  0  0  0  0  1  0  0  0  0  0  0
  186.9930  178.1950  142.1060 C   0  0  0  0  0  0  0  0  0  0  0  0
  189.6370  177.6890  142.8230 C   0  0  0  0  0  0  0  0  0  0  0  0
  180.7680  177.8130  139.1960 O   0  0  0  0  0  0  0  0  0  0  0  0
  179.6500  177.5360  139.9850 C   0  0  0  0  0  2  0  0  0  0  0  0
  179.6820  176.1130  140.4120 C   0  0  0  0  0  0  0  0  0  0  0  0
  180.5720  175.2290  139.8160 O   0  0  0  0  0  0  0  0  0  0  0  0
  178.9310  175.7160  141.3410 O   0  0  0  0  0  1  0  0  0  0  0  0
  1 28  1  6  0  0  0
  1 10  1  0  0  0  0
  2 26  2  0  0  0  0
  2 12  1  0  0  0  0
  3  4  1  0  0  0  0
  5  6  2  0  0  0  0
  5 26  1  0  0  0  0
  6 27  1  0  0  0  0
  7 19  1  6  0  0  0
  7 23  1  0  0  0  0
  7 17  1  0  0  0  0
  8 12  1  0  0  0  0
  9 25  1  1  0  0  0
 11  3  2  0  0  0  0
 12 13  2  0  0  0  0
 13 21  1  0  0  0  0
 13 11  1  0  0  0  0
 14 22  1  0  0  0  0
 14 21  2  0  0  0  0
 15  9  1  0  0  0  0
 16 19  1  0  0  0  0
 16  1  1  0  0  0  0
 17 10  1  1  0  0  0
 17  8  1  0  0  0  0
 18 15  1  0  0  0  0
 18  6  1  0  0  0  0
 20  4  2  0  0  0  0
 21 20  1  0  0  0  0
 23  2  1  0  0  0  0
 24  5  1  0  0  0  0
 26 14  1  0  0  0  0
 27  9  1  0  0  0  0
 27 22  2  0  0  0  0
 28 29  1  0  0  0  0
 29 30  1  0  0  0  0
 30 32  1  0  0  0  0
 31 30  2  0  0  0  0
M  END
>  <MODEL>
2

>  <REMARK>
 VINA RESULT:      -9.5      3.459      4.721
  Name = 
  3 active torsions:
  status: ('A' for Active; 'I' for Inactive)
    1  A    between atoms: C_1  and  C_10
    2  A    between atoms: C_2  and  O_24
    3  A    between atoms: C_10  and  O_24
                            x       y       z     vdW  Elec       q    Type
                         _______ _______ _______ _____ _____    ______ ____

>  <TORSDO>
F 3

$$$$
=
 OpenBabel11052417003D

 32 37  0  0  1  0  0  0  0  0999 V2000
  182.6080  179.2380  138.8500 C   0  0  1  0  0  3  0  0  0  0  0  0
  186.2780  178.2960  142.3730 C   0  0  0  0  0  0  0  0  0  0  0  0
  190.3360  177.6770  139.7500 C   0  0  0  0  0  3  0  0  0  0  0  0
  191.0740  177.5120  140.9220 C   0  0  0  0  0  3  0  0  0  0  0  0
  186.4160  178.2370  144.8690 C   0  0  0  0  0  0  0  0  0  0  0  0
  187.2320  178.0730  145.9920 C   0  0  0  0  0  0  0  0  0  0  0  0
  184.1070  178.3130  141.1970 C   0  0  2  0  0  3  0  0  0  0  0  0
  186.1720  178.4520  139.9280 N   0  0  0  0  0  2  0  0  0  0  0  0
  189.3180  177.6870  147.1410 C   0  0  1  0  0  3  0  0  0  0  0  0
  184.0400  178.7010  138.7310 C   0  0  0  0  0  2  0  0  0  0  0  0
  188.9620  177.9190  139.8170 C   0  0  0  0  0  3  0  0  0  0  0  0
  186.9360  178.2430  141.1260 C   0  0  0  0  0  0  0  0  0  0  0  0
  188.3120  177.9960  141.0580 C   0  0  0  0  0  0  0  0  0  0  0  0
  188.4190  177.9170  143.4980 C   0  0  0  0  0  0  0  0  0  0  0  0
  188.0920  177.9280  148.4910 S   0  0  0  0  0  0  0  0  0  0  0  0
  181.9040  178.6690  140.0910 C   0  0  0  0  0  2  0  0  0  0  0  0
  184.8150  178.9700  140.0170 C   0  0  1  0  0  3  0  0  0  0  0  0
  186.7750  178.1430  147.3290 N   0  0  0  0  0  2  0  0  0  0  0  0
  182.7180  178.9100  141.3640 C   0  0  0  0  0  2  0  0  0  0  0  0
  190.4390  177.5890  142.1640 C   0  0  0  0  0  3  0  0  0  0  0  0
  189.0570  177.8320  142.2480 C   0  0  0  0  0  0  0  0  0  0  0  0
  189.1510  177.7670  144.6390 N   0  0  0  0  0  0  0  0  0  0  0  0
  184.8870  178.4870  142.3780 O   0  0  0  0  0  0  0  0  0  0  0  0
  184.7000  178.5460  145.1490 Cl  0  0  0  0  0  0  0  0  0  0  0  0
  189.9050  176.2930  147.2440 C   0  0  0  0  0  1  0  0  0  0  0  0
  187.0130  178.1570  143.5770 C   0  0  0  0  0  0  0  0  0  0  0  0
  188.5740  177.8360  145.8610 C   0  0  0  0  0  0  0  0  0  0  0  0
  182.6170  180.6360  138.8970 O   0  0  0  0  0  0  0  0  0  0  0  0
  181.2780  181.0080  138.7610 C   0  0  0  0  0  2  0  0  0  0  0  0
  181.1050  181.7960  137.5130 C   0  0  0  0  0  0  0  0  0  0  0  0
  180.8480  181.1470  136.3120 O   0  0  0  0  0  0  0  0  0  0  0  0
  181.1520  183.0530  137.5500 O   0  0  0  0  0  1  0  0  0  0  0  0
  1 28  1  1  0  0  0
  1 16  1  0  0  0  0
  2 23  1  0  0  0  0
  2 26  1  0  0  0  0
  3 11  2  0  0  0  0
  3  4  1  0  0  0  0
  4 20  2  0  0  0  0
  5 24  1  0  0  0  0
  5  6  1  0  0  0  0
  6 18  1  0  0  0  0
  7 19  1  1  0  0  0
  7 23  1  0  0  0  0
  8 17  1  0  0  0  0
  8 12  1  0  0  0  0
  9 25  1  6  0  0  0
  9 15  1  0  0  0  0
 10  1  1  0  0  0  0
 11 13  1  0  0  0  0
 12  2  2  0  0  0  0
 13 12  1  0  0  0  0
 13 21  2  0  0  0  0
 14 26  1  0  0  0  0
 14 22  2  0  0  0  0
 16 19  1  0  0  0  0
 17 10  1  6  0  0  0
 17  7  1  0  0  0  0
 18 15  1  0  0  0  0
 20 21  1  0  0  0  0
 21 14  1  0  0  0  0
 22 27  1  0  0  0  0
 26  5  2  0  0  0  0
 27  6  2  0  0  0  0
 27  9  1  0  0  0  0
 29 28  1  0  0  0  0
 30 32  1  0  0  0  0
 30 29  1  0  0  0  0
 31 30  2  0  0  0  0
M  END
>  <MODEL>
3

>  <REMARK>
 VINA RESULT:      -9.1      3.432      5.096
  Name = 
  3 active torsions:
  status: ('A' for Active; 'I' for Inactive)
    1  A    between atoms: C_1  and  C_10
    2  A    between atoms: C_2  and  O_24
    3  A    between atoms: C_10  and  O_24
                            x       y       z     vdW  Elec       q    Type
                         _______ _______ _______ _____ _____    ______ ____

>  <TORSDO>
F 3

$$$$
=
 OpenBabel11052417003D

 32 37  0  0  1  0  0  0  0  0999 V2000
  194.0660  175.6530  136.5530 C   0  0  1  0  0  3  0  0  0  0  0  0
  189.9540  177.2210  139.2730 C   0  0  0  0  0  0  0  0  0  0  0  0
  191.5720  177.4810  143.8600 C   0  0  0  0  0  3  0  0  0  0  0  0
  190.3260  177.9490  144.2770 C   0  0  0  0  0  3  0  0  0  0  0  0
  187.6110  177.9280  138.7620 C   0  0  0  0  0  0  0  0  0  0  0  0
  186.4000  178.4130  139.2620 C   0  0  0  0  0  0  0  0  0  0  0  0
  191.3560  176.0750  137.5940 C   0  0  2  0  0  3  0  0  0  0  0  0
  192.2810  176.6260  139.7700 N   0  0  0  0  0  2  0  0  0  0  0  0
  184.9030  179.1950  140.9860 C   0  0  1  0  0  3  0  0  0  0  0  0
  193.7790  175.6930  138.0590 C   0  0  0  0  0  2  0  0  0  0  0  0
  191.7930  177.1890  142.5130 C   0  0  0  0  0  3  0  0  0  0  0  0
  190.9920  177.0720  140.2170 C   0  0  0  0  0  0  0  0  0  0  0  0
  190.7690  177.3610  141.5690 C   0  0  0  0  0  0  0  0  0  0  0  0
  188.4750  178.0220  141.0500 C   0  0  0  0  0  0  0  0  0  0  0  0
  183.9200  179.3210  139.4370 S   0  0  0  0  0  0  0  0  0  0  0  0
  192.8190  175.2350  135.7610 C   0  0  0  0  0  2  0  0  0  0  0  0
  192.5790  176.5890  138.3450 C   0  0  1  0  0  3  0  0  0  0  0  0
  185.2560  178.6790  138.4730 N   0  0  0  0  0  2  0  0  0  0  0  0
  191.6140  176.1180  136.0950 C   0  0  0  0  0  2  0  0  0  0  0  0
  189.2980  178.1270  143.3480 C   0  0  0  0  0  3  0  0  0  0  0  0
  189.5060  177.8370  141.9880 C   0  0  0  0  0  0  0  0  0  0  0  0
  187.2640  178.4930  141.4670 N   0  0  0  0  0  0  0  0  0  0  0  0
  190.2170  176.8600  137.9420 O   0  0  0  0  0  0  0  0  0  0  0  0
  187.7090  177.6250  137.0250 Cl  0  0  0  0  0  0  0  0  0  0  0  0
  184.2250  178.2210  141.9300 C   0  0  0  0  0  1  0  0  0  0  0  0
  188.6890  177.7200  139.6700 C   0  0  0  0  0  0  0  0  0  0  0  0
  186.2440  178.6790  140.5970 C   0  0  0  0  0  0  0  0  0  0  0  0
  194.5230  176.8990  136.1140 O   0  0  0  0  0  0  0  0  0  0  0  0
  195.2380  176.6280  134.9450 C   0  0  0  0  0  2  0  0  0  0  0  0
  196.5190  175.9580  135.2880 C   0  0  0  0  0  0  0  0  0  0  0  0
  196.8300  174.7260  134.7290 O   0  0  0  0  0  0  0  0  0  0  0  0
  197.3410  176.5250  136.0550 O   0  0  0  0  0  1  0  0  0  0  0  0
  1 28  1  6  0  0  0
  1 10  1  0  0  0  0
  2 26  2  0  0  0  0
  2 12  1  0  0  0  0
  3  4  1  0  0  0  0
  5  6  2  0  0  0  0
  5 26  1  0  0  0  0
  6 27  1  0  0  0  0
  7 19  1  6  0  0  0
  7 23  1  0  0  0  0
  7 17  1  0  0  0  0
  8 12  1  0  0  0  0
  9 25  1  1  0  0  0
 11  3  2  0  0  0  0
 12 13  2  0  0  0  0
 13 21  1  0  0  0  0
 13 11  1  0  0  0  0
 14 22  1  0  0  0  0
 14 21  2  0  0  0  0
 15  9  1  0  0  0  0
 16 19  1  0  0  0  0
 16  1  1  0  0  0  0
 17 10  1  1  0  0  0
 17  8  1  0  0  0  0
 18  6  1  0  0  0  0
 18 15  1  0  0  0  0
 20  4  2  0  0  0  0
 21 20  1  0  0  0  0
 23  2  1  0  0  0  0
 24  5  1  0  0  0  0
 26 14  1  0  0  0  0
 27  9  1  0  0  0  0
 27 22  2  0  0  0  0
 29 30  1  0  0  0  0
 29 28  1  0  0  0  0
 30 32  1  0  0  0  0
 31 30  2  0  0  0  0
M  END
>  <MODEL>
4

>  <REMARK>
 VINA RESULT:      -8.6      4.790      7.170
  Name = 
  3 active torsions:
  status: ('A' for Active; 'I' for Inactive)
    1  A    between atoms: C_1  and  C_10
    2  A    between atoms: C_2  and  O_24
    3  A    between atoms: C_10  and  O_24
                            x       y       z     vdW  Elec       q    Type
                         _______ _______ _______ _____ _____    ______ ____

>  <TORSDO>
F 3

$$$$
=
 OpenBabel11052417003D

 32 37  0  0  1  0  0  0  0  0999 V2000
  192.2320  176.6650  138.0550 C   0  0  1  0  0  3  0  0  0  0  0  0
  189.0940  177.5950  142.0610 C   0  0  0  0  0  0  0  0  0  0  0  0
  184.8190  178.7130  140.0090 C   0  0  0  0  0  3  0  0  0  0  0  0
  184.2410  178.8400  141.2730 C   0  0  0  0  0  3  0  0  0  0  0  0
  189.2570  177.4690  144.5540 C   0  0  0  0  0  0  0  0  0  0  0  0
  188.5960  177.6050  145.7770 C   0  0  0  0  0  0  0  0  0  0  0  0
  191.1020  177.5110  140.6270 C   0  0  2  0  0  3  0  0  0  0  0  0
  188.8970  177.6230  139.6170 N   0  0  0  0  0  2  0  0  0  0  0  0
  186.6990  178.0510  147.1990 C   0  0  1  0  0  3  0  0  0  0  0  0
  190.8450  177.3130  138.1510 C   0  0  0  0  0  2  0  0  0  0  0  0
  186.1670  178.3660  139.8890 C   0  0  0  0  0  3  0  0  0  0  0  0
  188.3000  177.7930  140.9120 C   0  0  0  0  0  0  0  0  0  0  0  0
  186.9500  178.1450  141.0320 C   0  0  0  0  0  0  0  0  0  0  0  0
  187.1390  178.0410  143.4650 C   0  0  0  0  0  0  0  0  0  0  0  0
  188.0510  177.6160  148.3670 S   0  0  0  0  0  0  0  0  0  0  0  0
  193.1220  177.0820  139.2350 C   0  0  0  0  0  2  0  0  0  0  0  0
  190.2080  177.0020  139.5020 C   0  0  1  0  0  3  0  0  0  0  0  0
  189.1990  177.3980  147.0400 N   0  0  0  0  0  2  0  0  0  0  0  0
  192.4470  176.8020  140.5800 C   0  0  0  0  0  2  0  0  0  0  0  0
  185.0090  178.6200  142.4180 C   0  0  0  0  0  3  0  0  0  0  0  0
  186.3670  178.2710  142.3130 C   0  0  0  0  0  0  0  0  0  0  0  0
  186.5610  178.1550  144.6960 N   0  0  0  0  0  0  0  0  0  0  0  0
  190.4550  177.3030  141.8810 O   0  0  0  0  0  0  0  0  0  0  0  0
  190.9620  177.0140  144.5970 Cl  0  0  0  0  0  0  0  0  0  0  0  0
  186.2440  179.4720  147.4690 C   0  0  0  0  0  1  0  0  0  0  0  0
  188.5200  177.6930  143.3540 C   0  0  0  0  0  0  0  0  0  0  0  0
  187.2710  177.9490  145.8300 C   0  0  0  0  0  0  0  0  0  0  0  0
  192.1130  175.2720  138.0070 O   0  0  0  0  0  0  0  0  0  0  0  0
  191.8790  174.9790  136.6610 C   0  0  0  0  0  2  0  0  0  0  0  0
  190.8760  173.8870  136.5570 C   0  0  0  0  0  0  0  0  0  0  0  0
  190.8200  173.1020  135.4120 O   0  0  0  0  0  0  0  0  0  0  0  0
  190.1040  173.6470  137.5210 O   0  0  0  0  0  1  0  0  0  0  0  0
  1 28  1  1  0  0  0
  1 10  1  0  0  0  0
  1 16  1  0  0  0  0
  2 26  1  0  0  0  0
  3  4  1  0  0  0  0
  4 20  2  0  0  0  0
  5 24  1  0  0  0  0
  5  6  1  0  0  0  0
  6 27  2  0  0  0  0
  6 18  1  0  0  0  0
  7 19  1  1  0  0  0
  7 23  1  0  0  0  0
  8 12  1  0  0  0  0
  9 25  1  1  0  0  0
  9 15  1  0  0  0  0
 11  3  2  0  0  0  0
 11 13  1  0  0  0  0
 12 13  1  0  0  0  0
 12  2  2  0  0  0  0
 13 21  2  0  0  0  0
 14 22  2  0  0  0  0
 16 19  1  0  0  0  0
 17 10  1  6  0  0  0
 17  8  1  0  0  0  0
 17  7  1  0  0  0  0
 18 15  1  0  0  0  0
 21 20  1  0  0  0  0
 21 14  1  0  0  0  0
 22 27  1  0  0  0  0
 23  2  1  0  0  0  0
 26 14  1  0  0  0  0
 26  5  2  0  0  0  0
 27  9  1  0  0  0  0
 29 28  1  0  0  0  0
 30 29  1  0  0  0  0
 30 32  1  0  0  0  0
 31 30  2  0  0  0  0
M  END
>  <MODEL>
5

>  <REMARK>
 VINA RESULT:      -8.4      2.699      3.521
  Name = 
  3 active torsions:
  status: ('A' for Active; 'I' for Inactive)
    1  A    between atoms: C_1  and  C_10
    2  A    between atoms: C_2  and  O_24
    3  A    between atoms: C_10  and  O_24
                            x       y       z     vdW  Elec       q    Type
                         _______ _______ _______ _____ _____    ______ ____

>  <TORSDO>
F 3

$$$$
=
 OpenBabel11052417003D

 32 37  0  0  1  0  0  0  0  0999 V2000
  191.3160  176.2750  147.6280 C   0  0  1  0  0  3  0  0  0  0  0  0
  188.7260  177.4240  143.2990 C   0  0  0  0  0  0  0  0  0  0  0  0
  184.2900  178.7020  144.8510 C   0  0  0  0  0  3  0  0  0  0  0  0
  183.9060  178.9800  143.5390 C   0  0  0  0  0  3  0  0  0  0  0  0
  189.2590  177.5780  140.8600 C   0  0  0  0  0  0  0  0  0  0  0  0
  188.7960  177.8910  139.5790 C   0  0  0  0  0  0  0  0  0  0  0  0
  190.2590  176.3230  144.8910 C   0  0  2  0  0  3  0  0  0  0  0  0
  188.2250  177.3740  145.6980 N   0  0  0  0  0  2  0  0  0  0  0  0
  187.1610  178.6280  137.9650 C   0  0  1  0  0  3  0  0  0  0  0  0
  189.8240  176.4930  147.3440 C   0  0  0  0  0  2  0  0  0  0  0  0
  185.5840  178.2530  145.1200 C   0  0  0  0  0  3  0  0  0  0  0  0
  187.8060  177.6280  144.3480 C   0  0  0  0  0  0  0  0  0  0  0  0
  186.5070  178.0740  144.0780 C   0  0  0  0  0  0  0  0  0  0  0  0
  187.0420  178.1920  141.6980 C   0  0  0  0  0  0  0  0  0  0  0  0
  188.6770  178.3200  136.9700 S   0  0  0  0  0  0  0  0  0  0  0  0
  191.9920  175.5070  146.4830 C   0  0  0  0  0  2  0  0  0  0  0  0
  189.6360  177.1740  145.9920 C   0  0  1  0  0  3  0  0  0  0  0  0
  189.5770  177.8050  138.4030 N   0  0  0  0  0  2  0  0  0  0  0  0
  191.7550  176.1820  145.1300 C   0  0  0  0  0  2  0  0  0  0  0  0
  184.8160  178.8090  142.4930 C   0  0  0  0  0  3  0  0  0  0  0  0
  186.1220  178.3570  142.7490 C   0  0  0  0  0  0  0  0  0  0  0  0
  186.6600  178.4780  140.4190 N   0  0  0  0  0  0  0  0  0  0  0  0
  189.9950  176.9180  143.6220 O   0  0  0  0  0  0  0  0  0  0  0  0
  190.9310  177.0330  141.0090 Cl  0  0  0  0  0  0  0  0  0  0  0  0
  186.0580  177.7010  137.4940 C   0  0  0  0  0  1  0  0  0  0  0  0
  188.3660  177.7250  141.9610 C   0  0  0  0  0  0  0  0  0  0  0  0
  187.5130  178.3270  139.3790 C   0  0  0  0  0  0  0  0  0  0  0  0
  191.9540  177.5030  147.8300 O   0  0  0  0  0  0  0  0  0  0  0  0
  192.0510  177.6330  149.2170 C   0  0  0  0  0  2  0  0  0  0  0  0
  193.2400  176.8870  149.7050 C   0  0  0  0  0  0  0  0  0  0  0  0
  193.1890  175.5050  149.8300 O   0  0  0  0  0  0  0  0  0  0  0  0
  194.3050  177.5030  149.9680 O   0  0  0  0  0  1  0  0  0  0  0  0
  1 28  1  6  0  0  0
  2 23  1  0  0  0  0
  2 12  1  0  0  0  0
  3 11  2  0  0  0  0
  4  3  1  0  0  0  0
  5 24  1  0  0  0  0
  5 26  1  0  0  0  0
  6  5  2  0  0  0  0
  7 19  1  1  0  0  0
  7 17  1  0  0  0  0
  8 17  1  0  0  0  0
  9 25  1  6  0  0  0
  9 27  1  0  0  0  0
 10  1  1  0  0  0  0
 12  8  1  0  0  0  0
 13 12  2  0  0  0  0
 13 11  1  0  0  0  0
 14 26  1  0  0  0  0
 14 21  2  0  0  0  0
 15  9  1  0  0  0  0
 15 18  1  0  0  0  0
 16  1  1  0  0  0  0
 17 10  1  1  0  0  0
 18  6  1  0  0  0  0
 19 16  1  0  0  0  0
 20 21  1  0  0  0  0
 20  4  2  0  0  0  0
 21 13  1  0  0  0  0
 22 14  1  0  0  0  0
 23  7  1  0  0  0  0
 26  2  2  0  0  0  0
 27  6  1  0  0  0  0
 27 22  2  0  0  0  0
 28 29  1  0  0  0  0
 29 30  1  0  0  0  0
 30 31  2  0  0  0  0
 30 32  1  0  0  0  0
M  END
>  <MODEL>
6

>  <REMARK>
 VINA RESULT:      -8.2      3.834      8.274
  Name = 
  3 active torsions:
  status: ('A' for Active; 'I' for Inactive)
    1  A    between atoms: C_1  and  C_10
    2  A    between atoms: C_2  and  O_24
    3  A    between atoms: C_10  and  O_24
                            x       y       z     vdW  Elec       q    Type
                         _______ _______ _______ _____ _____    ______ ____

>  <TORSDO>
F 3

$$$$
=
 OpenBabel11052417003D

 32 37  0  0  1  0  0  0  0  0999 V2000
  191.5010  177.2950  144.9300 C   0  0  1  0  0  3  0  0  0  0  0  0
  187.4950  178.1520  141.7700 C   0  0  0  0  0  0  0  0  0  0  0  0
  189.4260  177.9770  137.3020 C   0  0  0  0  0  3  0  0  0  0  0  0
  188.1630  178.1760  136.7440 C   0  0  0  0  0  3  0  0  0  0  0  0
  185.0260  178.4620  142.0230 C   0  0  0  0  0  0  0  0  0  0  0  0
  183.7980  178.6450  141.3820 C   0  0  0  0  0  0  0  0  0  0  0  0
  189.0200  178.2760  143.7080 C   0  0  2  0  0  3  0  0  0  0  0  0
  189.8990  177.7460  141.5070 N   0  0  0  0  0  2  0  0  0  0  0  0
  182.3460  178.8920  139.4710 C   0  0  1  0  0  3  0  0  0  0  0  0
  191.4180  177.6350  143.4360 C   0  0  0  0  0  2  0  0  0  0  0  0
  189.5750  177.9160  138.6890 C   0  0  0  0  0  3  0  0  0  0  0  0
  188.6100  177.9880  140.9220 C   0  0  0  0  0  0  0  0  0  0  0  0
  188.4610  178.0540  139.5320 C   0  0  0  0  0  0  0  0  0  0  0  0
  186.0560  178.3820  139.8040 C   0  0  0  0  0  0  0  0  0  0  0  0
  181.2110  178.9510  140.9170 S   0  0  0  0  0  0  0  0  0  0  0  0
  190.4530  178.0770  145.7360 C   0  0  0  0  0  2  0  0  0  0  0  0
  190.0000  177.4130  142.9210 C   0  0  1  0  0  3  0  0  0  0  0  0
  182.5580  178.7770  142.0490 N   0  0  0  0  0  2  0  0  0  0  0  0
  189.0430  177.8760  145.1760 C   0  0  0  0  0  2  0  0  0  0  0  0
  187.0460  178.3120  137.5710 C   0  0  0  0  0  3  0  0  0  0  0  0
  187.1810  178.2530  138.9690 C   0  0  0  0  0  0  0  0  0  0  0  0
  184.8230  178.5640  139.2480 N   0  0  0  0  0  0  0  0  0  0  0  0
  187.7120  178.1360  143.1570 O   0  0  0  0  0  0  0  0  0  0  0  0
  185.0190  178.3990  143.7880 Cl  0  0  0  0  0  0  0  0  0  0  0  0
  182.2640  180.2050  138.7180 C   0  0  0  0  0  1  0  0  0  0  0  0
  186.1990  178.3280  141.2240 C   0  0  0  0  0  0  0  0  0  0  0  0
  183.7170  178.6990  140.0160 C   0  0  0  0  0  0  0  0  0  0  0  0
  191.3330  175.9200  145.1240 O   0  0  0  0  0  0  0  0  0  0  0  0
  192.4300  175.5300  145.8940 C   0  0  0  0  0  2  0  0  0  0  0  0
  192.0850  175.6240  147.3370 C   0  0  0  0  0  0  0  0  0  0  0  0
  193.0520  176.0030  148.2590 O   0  0  0  0  0  1  0  0  0  0  0  0
  190.9080  175.3990  147.7190 O   0  0  0  0  0  0  0  0  0  0  0  0
  1 28  1  6  0  0  0
  1 16  1  0  0  0  0
  2 23  1  0  0  0  0
  3 11  1  0  0  0  0
  4  3  2  0  0  0  0
  4 20  1  0  0  0  0
  5 24  1  0  0  0  0
  6  5  1  0  0  0  0
  6 18  1  0  0  0  0
  7 19  1  1  0  0  0
  8 17  1  0  0  0  0
  9 25  1  1  0  0  0
  9 27  1  0  0  0  0
  9 15  1  0  0  0  0
 10  1  1  0  0  0  0
 11 13  2  0  0  0  0
 12  8  1  0  0  0  0
 12  2  2  0  0  0  0
 13 12  1  0  0  0  0
 14 26  1  0  0  0  0
 15 18  1  0  0  0  0
 17 10  1  1  0  0  0
 17  7  1  0  0  0  0
 19 16  1  0  0  0  0
 20 21  2  0  0  0  0
 21 13  1  0  0  0  0
 21 14  1  0  0  0  0
 22 14  2  0  0  0  0
 22 27  1  0  0  0  0
 23  7  1  0  0  0  0
 26  2  1  0  0  0  0
 26  5  2  0  0  0  0
 27  6  2  0  0  0  0
 28 29  1  0  0  0  0
 29 30  1  0  0  0  0
 30 32  2  0  0  0  0
 30 31  1  0  0  0  0
M  END
>  <MODEL>
7

>  <REMARK>
 VINA RESULT:      -8.0      3.851      8.204
  Name = 
  3 active torsions:
  status: ('A' for Active; 'I' for Inactive)
    1  A    between atoms: C_1  and  C_10
    2  A    between atoms: C_2  and  O_24
    3  A    between atoms: C_10  and  O_24
                            x       y       z     vdW  Elec       q    Type
                         _______ _______ _______ _____ _____    ______ ____

>  <TORSDO>
F 3

$$$$
=
 OpenBabel11052417003D

 32 37  0  0  1  0  0  0  0  0999 V2000
  189.5220  177.7300  146.3730 C   0  0  1  0  0  3  0  0  0  0  0  0
  185.5930  178.4280  143.0800 C   0  0  0  0  0  0  0  0  0  0  0  0
  187.6670  178.2550  138.6760 C   0  0  0  0  0  3  0  0  0  0  0  0
  186.4170  178.4090  138.0760 C   0  0  0  0  0  3  0  0  0  0  0  0
  183.1100  178.6690  143.2530 C   0  0  0  0  0  0  0  0  0  0  0  0
  181.8980  178.8070  142.5710 C   0  0  0  0  0  0  0  0  0  0  0  0
  187.0530  178.6220  145.0620 C   0  0  2  0  0  3  0  0  0  0  0  0
  188.0150  178.0900  142.8970 N   0  0  0  0  0  2  0  0  0  0  0  0
  180.4990  178.9870  140.6140 C   0  0  1  0  0  3  0  0  0  0  0  0
  189.4760  178.0480  144.8720 C   0  0  0  0  0  2  0  0  0  0  0  0
  187.7740  178.2150  140.0670 C   0  0  0  0  0  3  0  0  0  0  0  0
  186.7390  178.2860  142.2690 C   0  0  0  0  0  0  0  0  0  0  0  0
  186.6320  178.3310  140.8730 C   0  0  0  0  0  0  0  0  0  0  0  0
  184.2110  178.5920  141.0670 C   0  0  0  0  0  0  0  0  0  0  0  0
  179.3190  179.0310  142.0230 S   0  0  0  0  0  0  0  0  0  0  0  0
  188.4280  178.4900  147.1350 C   0  0  0  0  0  2  0  0  0  0  0  0
  188.0820  177.7780  144.3170 C   0  0  1  0  0  3  0  0  0  0  0  0
  180.6350  178.9110  143.1990 N   0  0  0  0  0  2  0  0  0  0  0  0
  187.0420  178.2410  146.5350 C   0  0  0  0  0  2  0  0  0  0  0  0
  185.2710  178.5230  138.8670 C   0  0  0  0  0  3  0  0  0  0  0  0
  185.3640  178.4850  140.2690 C   0  0  0  0  0  0  0  0  0  0  0  0
  182.9910  178.7290  140.4710 N   0  0  0  0  0  0  0  0  0  0  0  0
  185.7680  178.4360  144.4730 O   0  0  0  0  0  0  0  0  0  0  0  0
  183.0500  178.6280  145.0170 Cl  0  0  0  0  0  0  0  0  0  0  0  0
  180.4030  180.2880  139.8410 C   0  0  0  0  0  1  0  0  0  0  0  0
  184.3110  178.5590  142.4920 C   0  0  0  0  0  0  0  0  0  0  0  0
  181.8580  178.8420  141.2030 C   0  0  0  0  0  0  0  0  0  0  0  0
  189.3890  176.3530  146.5790 O   0  0  0  0  0  0  0  0  0  0  0  0
  190.1740  176.0810  147.7020 C   0  0  0  0  0  2  0  0  0  0  0  0
  191.6120  176.1570  147.3340 C   0  0  0  0  0  0  0  0  0  0  0  0
  192.0520  175.6110  146.1350 O   0  0  0  0  0  0  0  0  0  0  0  0
  192.4250  176.7520  148.0890 O   0  0  0  0  0  1  0  0  0  0  0  0
  1 28  1  6  0  0  0
  1 16  1  0  0  0  0
  2 23  1  0  0  0  0
  3 11  1  0  0  0  0
  4  3  2  0  0  0  0
  4 20  1  0  0  0  0
  5 24  1  0  0  0  0
  6 18  1  0  0  0  0
  6  5  1  0  0  0  0
  7 19  1  1  0  0  0
  8 17  1  0  0  0  0
  9 25  1  1  0  0  0
  9 27  1  0  0  0  0
  9 15  1  0  0  0  0
 10  1  1  0  0  0  0
 11 13  2  0  0  0  0
 12  8  1  0  0  0  0
 12  2  2  0  0  0  0
 13 12  1  0  0  0  0
 14 26  1  0  0  0  0
 15 18  1  0  0  0  0
 17 10  1  1  0  0  0
 17  7  1  0  0  0  0
 19 16  1  0  0  0  0
 20 21  2  0  0  0  0
 21 13  1  0  0  0  0
 21 14  1  0  0  0  0
 22 14  2  0  0  0  0
 22 27  1  0  0  0  0
 23  7  1  0  0  0  0
 26  2  1  0  0  0  0
 26  5  2  0  0  0  0
 27  6  2  0  0  0  0
 28 29  1  0  0  0  0
 30 29  1  0  0  0  0
 30 32  1  0  0  0  0
 31 30  2  0  0  0  0
M  END
>  <MODEL>
8

>  <REMARK>
 VINA RESULT:      -7.9      4.220      8.430
  Name = 
  3 active torsions:
  status: ('A' for Active; 'I' for Inactive)
    1  A    between atoms: C_1  and  C_10
    2  A    between atoms: C_2  and  O_24
    3  A    between atoms: C_10  and  O_24
                            x       y       z     vdW  Elec       q    Type
                         _______ _______ _______ _____ _____    ______ ____

>  <TORSDO>
F 3

$$$$
=
 OpenBabel11052417003D

 32 37  0  0  1  0  0  0  0  0999 V2000
  180.8000  179.5950  139.3090 C   0  0  1  0  0  3  0  0  0  0  0  0
  185.5850  178.4880  140.9350 C   0  0  0  0  0  0  0  0  0  0  0  0
  188.2710  178.4980  136.8710 C   0  0  0  0  0  3  0  0  0  0  0  0
  189.4180  178.2410  137.6230 C   0  0  0  0  0  3  0  0  0  0  0  0
  186.7080  178.1270  143.1400 C   0  0  0  0  0  0  0  0  0  0  0  0
  187.9060  177.8830  143.8170 C   0  0  0  0  0  0  0  0  0  0  0  0
  183.1260  178.4940  140.7200 C   0  0  2  0  0  3  0  0  0  0  0  0
  184.5110  178.9410  138.7770 N   0  0  0  0  0  2  0  0  0  0  0  0
  190.2830  177.5090  143.9870 C   0  0  1  0  0  3  0  0  0  0  0  0
  182.0750  179.1820  138.5620 C   0  0  0  0  0  2  0  0  0  0  0  0
  187.0340  178.6290  137.5060 C   0  0  0  0  0  3  0  0  0  0  0  0
  185.6930  178.6390  139.5360 C   0  0  0  0  0  0  0  0  0  0  0  0
  186.9320  178.5030  138.8990 C   0  0  0  0  0  0  0  0  0  0  0  0
  188.0030  178.1270  141.0630 C   0  0  0  0  0  0  0  0  0  0  0  0
  189.6930  177.4890  145.7290 S   0  0  0  0  0  0  0  0  0  0  0  0
  180.6580  178.8260  140.6310 C   0  0  0  0  0  2  0  0  0  0  0  0
  183.2930  179.3430  139.4650 C   0  0  1  0  0  3  0  0  0  0  0  0
  188.0190  177.7510  145.2210 N   0  0  0  0  0  2  0  0  0  0  0  0
  181.9080  178.9640  141.5030 C   0  0  0  0  0  2  0  0  0  0  0  0
  189.3300  178.1160  139.0110 C   0  0  0  0  0  3  0  0  0  0  0  0
  188.0920  178.2450  139.6640 C   0  0  0  0  0  0  0  0  0  0  0  0
  189.1320  177.8880  141.7910 N   0  0  0  0  0  0  0  0  0  0  0  0
  184.3090  178.5750  141.5130 O   0  0  0  0  0  0  0  0  0  0  0  0
  185.2410  178.2730  144.1120 Cl  0  0  0  0  0  0  0  0  0  0  0  0
  190.8860  176.1590  143.6500 C   0  0  0  0  0  1  0  0  0  0  0  0
  186.7410  178.2530  141.7210 C   0  0  0  0  0  0  0  0  0  0  0  0
  189.0880  177.7620  143.1370 C   0  0  0  0  0  0  0  0  0  0  0  0
  180.8040  180.9720  139.5490 O   0  0  0  0  0  0  0  0  0  0  0  0
  179.6950  181.4600  138.8540 C   0  0  0  0  0  2  0  0  0  0  0  0
  180.0300  182.7710  138.2390 C   0  0  0  0  0  0  0  0  0  0  0  0
  181.2020  182.9170  137.5090 O   0  0  0  0  0  0  0  0  0  0  0  0
  179.2330  183.7390  138.3460 O   0  0  0  0  0  1  0  0  0  0  0  0
  1 28  1  1  0  0  0
  1 16  1  0  0  0  0
  2 23  1  0  0  0  0
  2 26  1  0  0  0  0
  3 11  2  0  0  0  0
  3  4  1  0  0  0  0
  4 20  2  0  0  0  0
  5  6  1  0  0  0  0
  5 24  1  0  0  0  0
  6 18  1  0  0  0  0
  7 19  1  1  0  0  0
  7 23  1  0  0  0  0
  8 17  1  0  0  0  0
  8 12  1  0  0  0  0
  9 25  1  6  0  0  0
  9 15  1  0  0  0  0
 10  1  1  0  0  0  0
 11 13  1  0  0  0  0
 12  2  2  0  0  0  0
 13 12  1  0  0  0  0
 13 21  2  0  0  0  0
 14 26  1  0  0  0  0
 14 22  2  0  0  0  0
 16 19  1  0  0  0  0
 17 10  1  6  0  0  0
 17  7  1  0  0  0  0
 18 15  1  0  0  0  0
 20 21  1  0  0  0  0
 21 14  1  0  0  0  0
 22 27  1  0  0  0  0
 26  5  2  0  0  0  0
 27  6  2  0  0  0  0
 27  9  1  0  0  0  0
 29 28  1  0  0  0  0
 30 32  1  0  0  0  0
 30 29  1  0  0  0  0
 31 30  2  0  0  0  0
M  END
>  <MODEL>
9

>  <REMARK>
 VINA RESULT:      -7.9      3.925      6.024
  Name = 
  3 active torsions:
  status: ('A' for Active; 'I' for Inactive)
    1  A    between atoms: C_1  and  C_10
    2  A    between atoms: C_2  and  O_24
    3  A    between atoms: C_10  and  O_24
                            x       y       z     vdW  Elec       q    Type
                         _______ _______ _______ _____ _____    ______ ____

>  <TORSDO>
F 3

$$$$
