=
 OpenBabel11052414243D

 34 38  0  0  1  0  0  0  0  0999 V2000
  188.8320  177.6540  138.4630 C   0  0  0  0  0  0  0  0  0  0  0  0
  191.0330  177.0710  139.3340 C   0  0  0  0  0  0  0  0  0  0  0  0
  189.1970  177.8820  140.8470 C   0  0  0  0  0  0  0  0  0  0  0  0
  189.5760  178.5320  143.1530 C   0  0  2  0  0  3  0  0  0  0  0  0
  189.2350  177.2560  137.1870 C   0  0  0  0  0  3  0  0  0  0  0  0
  191.4130  176.6830  138.0460 C   0  0  0  0  0  3  0  0  0  0  0  0
  190.0040  176.1620  142.4040 C   0  0  0  0  0  2  0  0  0  0  0  0
  189.7040  177.5220  139.5730 C   0  0  0  0  0  0  0  0  0  0  0  0
  190.9330  175.9560  143.5900 C   0  0  0  0  0  2  0  0  0  0  0  0
  190.4030  178.2710  144.4130 C   0  0  0  0  0  2  0  0  0  0  0  0
  190.5170  176.7570  136.9810 C   0  0  0  0  0  3  0  0  0  0  0  0
  187.9140  178.4560  140.9380 C   0  0  0  0  0  0  0  0  0  0  0  0
  187.5990  178.1960  138.6250 N   0  0  0  0  0  0  0  0  0  0  0  0
  192.3250  177.1090  140.5280 Cl  0  0  0  0  0  0  0  0  0  0  0  0
  188.1450  178.4880  143.4350 N   0  0  0  0  0  2  0  0  0  0  0  0
  187.4080  179.0020  142.2680 C   0  0  2  0  0  3  0  0  0  0  0  0
  190.4320  176.7840  144.7690 C   0  0  2  0  0  3  0  0  0  0  0  0
  189.8740  177.5850  142.0740 N   0  0  0  0  0  0  0  0  0  0  0  0
  187.1650  178.6050  139.8160 N   0  0  0  0  0  0  0  0  0  0  0  0
  183.9910  178.5480  143.8780 C   0  0  0  0  0  0  0  0  0  0  0  0
  183.1980  178.2870  142.7560 C   0  0  0  0  0  3  0  0  0  0  0  0
  185.9420  178.7600  142.4500 C   0  0  0  0  0  0  0  0  0  0  0  0
  183.7760  178.2630  141.4830 C   0  0  0  0  0  3  0  0  0  0  0  0
  185.3610  178.7830  143.7260 C   0  0  0  0  0  3  0  0  0  0  0  0
  185.1450  178.4990  141.3310 C   0  0  0  0  0  3  0  0  0  0  0  0
  183.4330  178.5700  145.1120 F   0  0  0  0  0  0  0  0  0  0  0  0
  191.2110  176.5290  145.9830 N   0  0  0  0  0  2  0  0  0  0  0  0
  190.5940  177.1730  147.1420 C   0  0  0  0  0  2  0  0  0  0  0  0
  189.0010  175.5730  147.9390 F   0  0  0  0  0  0  0  0  0  0  0  0
  189.1230  176.7770  147.2670 C   0  0  1  0  0  3  0  0  0  0  0  0
  187.0880  178.2200  147.0260 C   0  0  0  0  0  1  0  0  0  0  0  0
  188.2560  177.8550  147.9250 C   0  0  0  0  0  0  0  0  0  0  0  0
  189.0050  178.9890  148.1860 F   0  0  0  0  0  0  0  0  0  0  0  0
  187.7570  177.3670  149.1160 F   0  0  0  0  0  0  0  0  0  0  0  0
  1 13  2  0  0  0  0
  1  8  1  0  0  0  0
  2  8  1  0  0  0  0
  2 14  1  0  0  0  0
  3 12  1  0  0  0  0
  3 18  1  0  0  0  0
  4 15  1  0  0  0  0
  4 10  1  1  0  0  0
  5  1  1  0  0  0  0
  6  2  2  0  0  0  0
  7  9  1  0  0  0  0
  8  3  2  0  0  0  0
  9 17  1  0  0  0  0
 10 17  1  0  0  0  0
 11  5  2  0  0  0  0
 11  6  1  0  0  0  0
 12 16  1  0  0  0  0
 13 19  1  0  0  0  0
 16 22  1  1  0  0  0
 16 15  1  0  0  0  0
 17 27  1  1  0  0  0
 18  7  1  0  0  0  0
 18  4  1  0  0  0  0
 19 12  2  0  0  0  0
 20 26  1  0  0  0  0
 21 20  2  0  0  0  0
 22 24  2  0  0  0  0
 23 21  1  0  0  0  0
 24 20  1  0  0  0  0
 25 23  2  0  0  0  0
 25 22  1  0  0  0  0
 27 28  1  0  0  0  0
 28 30  1  0  0  0  0
 30 32  1  0  0  0  0
 30 29  1  1  0  0  0
 31 32  1  0  0  0  0
 32 33  1  0  0  0  0
 32 34  1  0  0  0  0
M  END
>  <MODEL>
1

>  <REMARK>
 VINA RESULT:      -9.4      0.000      0.000
  Name = 
  5 active torsions:
  status: ('A' for Active; 'I' for Inactive)
    1  A    between atoms: N_3  and  C_13
    2  A    between atoms: N_3  and  C_29
    3  A    between atoms: C_12  and  C_28
    4  A    between atoms: C_13  and  C_33
    5  A    between atoms: C_20  and  C_33
                            x       y       z     vdW  Elec       q    Type
                         _______ _______ _______ _____ _____    ______ ____

>  <TORSDO>
F 5

$$$$
=
 OpenBabel11052414243D

 34 38  0  0  1  0  0  0  0  0999 V2000
  188.7100  177.8680  139.1900 C   0  0  0  0  0  0  0  0  0  0  0  0
  189.8990  177.7440  141.3150 C   0  0  0  0  0  0  0  0  0  0  0  0
  187.4450  178.2790  141.2140 C   0  0  0  0  0  0  0  0  0  0  0  0
  186.1930  179.1040  143.1220 C   0  0  2  0  0  3  0  0  0  0  0  0
  189.8740  177.4870  138.5200 C   0  0  0  0  0  3  0  0  0  0  0  0
  191.0520  177.3680  140.6200 C   0  0  0  0  0  3  0  0  0  0  0  0
  187.2580  176.8180  143.1800 C   0  0  0  0  0  2  0  0  0  0  0  0
  188.6830  177.9550  140.6050 C   0  0  0  0  0  0  0  0  0  0  0  0
  187.2340  176.8470  144.7000 C   0  0  0  0  0  2  0  0  0  0  0  0
  186.0510  179.0630  144.6450 C   0  0  0  0  0  2  0  0  0  0  0  0
  191.0390  177.2220  139.2340 C   0  0  0  0  0  3  0  0  0  0  0  0
  186.3450  178.6120  140.4000 C   0  0  0  0  0  0  0  0  0  0  0  0
  187.6060  178.1820  138.4660 N   0  0  0  0  0  0  0  0  0  0  0  0
  190.1200  178.0790  143.0280 Cl  0  0  0  0  0  0  0  0  0  0  0  0
  184.9270  178.8120  142.4590 N   0  0  0  0  0  2  0  0  0  0  0  0
  185.0530  179.1220  141.0250 C   0  0  2  0  0  3  0  0  0  0  0  0
  186.0100  177.6260  145.1680 C   0  0  2  0  0  3  0  0  0  0  0  0
  187.2120  178.1740  142.6240 N   0  0  0  0  0  0  0  0  0  0  0  0
  186.4720  178.5640  139.0490 N   0  0  0  0  0  0  0  0  0  0  0  0
  182.2280  176.8790  139.8150 C   0  0  0  0  0  0  0  0  0  0  0  0
  181.5910  177.7200  138.8970 C   0  0  0  0  0  3  0  0  0  0  0  0
  183.8440  178.6240  140.2940 C   0  0  0  0  0  0  0  0  0  0  0  0
  182.0800  179.0110  138.6770 C   0  0  0  0  0  3  0  0  0  0  0  0
  183.3530  177.3290  140.5120 C   0  0  0  0  0  3  0  0  0  0  0  0
  183.2040  179.4620  139.3740 C   0  0  0  0  0  3  0  0  0  0  0  0
  181.7560  175.6270  140.0280 F   0  0  0  0  0  0  0  0  0  0  0  0
  185.8590  177.5810  146.6240 N   0  0  0  0  0  2  0  0  0  0  0  0
  186.7760  178.5180  147.2730 C   0  0  0  0  0  2  0  0  0  0  0  0
  187.4420  176.4350  148.2470 F   0  0  0  0  0  0  0  0  0  0  0  0
  187.7750  177.7770  148.1600 C   0  0  1  0  0  3  0  0  0  0  0  0
  189.8660  176.5910  147.4510 C   0  0  0  0  0  1  0  0  0  0  0  0
  189.2300  177.9450  147.7110 C   0  0  0  0  0  0  0  0  0  0  0  0
  189.9610  178.6180  148.6730 F   0  0  0  0  0  0  0  0  0  0  0  0
  189.2590  178.6740  146.5380 F   0  0  0  0  0  0  0  0  0  0  0  0
  1  8  1  0  0  0  0
  2 14  1  0  0  0  0
  3 18  1  0  0  0  0
  4 10  1  1  0  0  0
  5  1  2  0  0  0  0
  5 11  1  0  0  0  0
  6  2  1  0  0  0  0
  7  9  1  0  0  0  0
  8  3  1  0  0  0  0
  8  2  2  0  0  0  0
  9 17  1  0  0  0  0
 10 17  1  0  0  0  0
 11  6  2  0  0  0  0
 12 16  1  0  0  0  0
 12  3  2  0  0  0  0
 13 19  2  0  0  0  0
 13  1  1  0  0  0  0
 15  4  1  0  0  0  0
 16 22  1  6  0  0  0
 16 15  1  0  0  0  0
 17 27  1  1  0  0  0
 18  4  1  0  0  0  0
 18  7  1  0  0  0  0
 19 12  1  0  0  0  0
 20 26  1  0  0  0  0
 20 24  1  0  0  0  0
 21 20  2  0  0  0  0
 22 24  2  0  0  0  0
 23 21  1  0  0  0  0
 23 25  2  0  0  0  0
 25 22  1  0  0  0  0
 27 28  1  0  0  0  0
 28 30  1  0  0  0  0
 30 29  1  6  0  0  0
 31 32  1  0  0  0  0
 32 30  1  0  0  0  0
 32 33  1  0  0  0  0
 34 32  1  0  0  0  0
M  END
>  <MODEL>
2

>  <REMARK>
 VINA RESULT:      -8.9      2.129      3.185
  Name = 
  5 active torsions:
  status: ('A' for Active; 'I' for Inactive)
    1  A    between atoms: N_3  and  C_13
    2  A    between atoms: N_3  and  C_29
    3  A    between atoms: C_12  and  C_28
    4  A    between atoms: C_13  and  C_33
    5  A    between atoms: C_20  and  C_33
                            x       y       z     vdW  Elec       q    Type
                         _______ _______ _______ _____ _____    ______ ____

>  <TORSDO>
F 5

$$$$
=
 OpenBabel11052414243D

 34 38  0  0  1  0  0  0  0  0999 V2000
  188.0370  177.9680  147.5030 C   0  0  0  0  0  0  0  0  0  0  0  0
  190.3760  177.5150  146.9810 C   0  0  0  0  0  0  0  0  0  0  0  0
  188.5950  177.4310  145.2080 C   0  0  0  0  0  0  0  0  0  0  0  0
  188.9770  176.5100  142.9960 C   0  0  2  0  0  3  0  0  0  0  0  0
  188.3910  178.2580  148.8220 C   0  0  0  0  0  3  0  0  0  0  0  0
  190.7030  177.8060  148.3090 C   0  0  0  0  0  3  0  0  0  0  0  0
  190.2600  178.5370  143.7780 C   0  0  0  0  0  2  0  0  0  0  0  0
  189.0270  177.6420  146.5420 C   0  0  0  0  0  0  0  0  0  0  0  0
  191.3420  178.2470  142.7500 C   0  0  0  0  0  2  0  0  0  0  0  0
  190.0010  176.3080  141.8780 C   0  0  0  0  0  2  0  0  0  0  0  0
  189.7230  178.1920  149.2210 C   0  0  0  0  0  3  0  0  0  0  0  0
  187.2160  177.4370  144.9230 C   0  0  0  0  0  0  0  0  0  0  0  0
  186.7260  177.9780  147.1550 N   0  0  0  0  0  0  0  0  0  0  0  0
  191.6810  176.8540  146.0040 Cl  0  0  0  0  0  0  0  0  0  0  0  0
  187.7520  177.1250  142.4940 N   0  0  0  0  0  2  0  0  0  0  0  0
  186.7150  177.0530  143.5370 C   0  0  2  0  0  3  0  0  0  0  0  0
  190.7050  177.6170  141.5160 C   0  0  2  0  0  3  0  0  0  0  0  0
  189.4960  177.3260  144.0980 N   0  0  0  0  0  0  0  0  0  0  0  0
  186.3280  177.6980  145.9160 N   0  0  0  0  0  0  0  0  0  0  0  0
  183.4520  179.0050  143.6570 C   0  0  0  0  0  0  0  0  0  0  0  0
  183.3140  179.3820  142.3180 C   0  0  0  0  0  3  0  0  0  0  0  0
  185.5290  177.8690  143.1250 C   0  0  0  0  0  0  0  0  0  0  0  0
  184.2820  179.0030  141.3830 C   0  0  0  0  0  3  0  0  0  0  0  0
  184.5560  178.2490  144.0610 C   0  0  0  0  0  3  0  0  0  0  0  0
  185.3870  178.2480  141.7860 C   0  0  0  0  0  3  0  0  0  0  0  0
  182.5140  179.3710  144.5640 F   0  0  0  0  0  0  0  0  0  0  0  0
  191.6770  177.4320  140.4360 N   0  0  0  0  0  2  0  0  0  0  0  0
  191.1190  176.6010  139.3690 C   0  0  0  0  0  2  0  0  0  0  0  0
  190.9190  176.8100  136.9930 F   0  0  0  0  0  0  0  0  0  0  0  0
  190.6670  177.4610  138.1900 C   0  0  1  0  0  3  0  0  0  0  0  0
  188.6530  178.1960  136.8920 C   0  0  0  0  0  1  0  0  0  0  0  0
  189.1990  177.8870  138.2750 C   0  0  0  0  0  0  0  0  0  0  0  0
  189.0620  179.0040  139.0810 F   0  0  0  0  0  0  0  0  0  0  0  0
  188.4590  176.8540  138.8170 F   0  0  0  0  0  0  0  0  0  0  0  0
  1  5  2  0  0  0  0
  2  6  1  0  0  0  0
  3  8  1  0  0  0  0
  4 10  1  6  0  0  0
  4 18  1  0  0  0  0
  5 11  1  0  0  0  0
  6 11  2  0  0  0  0
  7 18  1  0  0  0  0
  8  2  2  0  0  0  0
  8  1  1  0  0  0  0
  9  7  1  0  0  0  0
 12  3  2  0  0  0  0
 12 19  1  0  0  0  0
 13  1  1  0  0  0  0
 14  2  1  0  0  0  0
 15  4  1  0  0  0  0
 15 16  1  0  0  0  0
 16 22  1  6  0  0  0
 16 12  1  0  0  0  0
 17 27  1  6  0  0  0
 17 10  1  0  0  0  0
 17  9  1  0  0  0  0
 18  3  1  0  0  0  0
 19 13  2  0  0  0  0
 20 24  1  0  0  0  0
 20 26  1  0  0  0  0
 21 20  2  0  0  0  0
 22 24  2  0  0  0  0
 23 25  2  0  0  0  0
 23 21  1  0  0  0  0
 25 22  1  0  0  0  0
 28 27  1  0  0  0  0
 30 29  1  6  0  0  0
 30 32  1  0  0  0  0
 30 28  1  0  0  0  0
 31 32  1  0  0  0  0
 32 34  1  0  0  0  0
 32 33  1  0  0  0  0
M  END
>  <MODEL>
3

>  <REMARK>
 VINA RESULT:      -8.7      3.300      6.685
  Name = 
  5 active torsions:
  status: ('A' for Active; 'I' for Inactive)
    1  A    between atoms: N_3  and  C_13
    2  A    between atoms: N_3  and  C_29
    3  A    between atoms: C_12  and  C_28
    4  A    between atoms: C_13  and  C_33
    5  A    between atoms: C_20  and  C_33
                            x       y       z     vdW  Elec       q    Type
                         _______ _______ _______ _____ _____    ______ ____

>  <TORSDO>
F 5

$$$$
=
 OpenBabel11052414243D

 34 38  0  0  1  0  0  0  0  0999 V2000
  181.3020  178.7110  143.5330 C   0  0  0  0  0  0  0  0  0  0  0  0
  180.5590  178.7730  141.2110 C   0  0  0  0  0  0  0  0  0  0  0  0
  183.0000  178.7220  141.8060 C   0  0  0  0  0  0  0  0  0  0  0  0
  184.7620  179.1430  140.1920 C   0  0  2  0  0  3  0  0  0  0  0  0
  179.9720  178.6440  143.9530 C   0  0  0  0  0  3  0  0  0  0  0  0
  179.2350  178.7100  141.6590 C   0  0  0  0  0  3  0  0  0  0  0  0
  183.2150  177.1700  139.9140 C   0  0  0  0  0  2  0  0  0  0  0  0
  181.6260  178.7250  142.1530 C   0  0  0  0  0  0  0  0  0  0  0  0
  183.5440  177.1240  138.4300 C   0  0  0  0  0  2  0  0  0  0  0  0
  185.1870  179.0010  138.7300 C   0  0  0  0  0  2  0  0  0  0  0  0
  178.9410  178.6280  143.0180 C   0  0  0  0  0  3  0  0  0  0  0  0
  183.9660  178.8250  142.8270 C   0  0  0  0  0  0  0  0  0  0  0  0
  182.2840  178.7900  144.4650 N   0  0  0  0  0  0  0  0  0  0  0  0
  180.7650  179.0720  139.4900 Cl  0  0  0  0  0  0  0  0  0  0  0  0
  185.7660  178.5930  141.0970 N   0  0  0  0  0  2  0  0  0  0  0  0
  185.4400  178.9890  142.4770 C   0  0  2  0  0  3  0  0  0  0  0  0
  184.9860  177.5730  138.2210 C   0  0  2  0  0  3  0  0  0  0  0  0
  183.4740  178.5020  140.4720 N   0  0  0  0  0  0  0  0  0  0  0  0
  183.5680  178.8690  144.1240 N   0  0  0  0  0  0  0  0  0  0  0  0
  188.1890  176.7650  143.8810 C   0  0  0  0  0  0  0  0  0  0  0  0
  187.9560  176.8850  145.2550 C   0  0  0  0  0  3  0  0  0  0  0  0
  186.3260  178.2550  143.4350 C   0  0  0  0  0  0  0  0  0  0  0  0
  186.9100  177.6870  145.7180 C   0  0  0  0  0  3  0  0  0  0  0  0
  187.3760  177.4480  142.9720 C   0  0  0  0  0  3  0  0  0  0  0  0
  186.0970  178.3710  144.8100 C   0  0  0  0  0  3  0  0  0  0  0  0
  189.2020  175.9870  143.4310 F   0  0  0  0  0  0  0  0  0  0  0  0
  185.4050  177.4270  136.8260 N   0  0  0  0  0  2  0  0  0  0  0  0
  186.7320  176.8180  136.7410 C   0  0  0  0  0  2  0  0  0  0  0  0
  187.1810  179.0710  136.0690 F   0  0  0  0  0  0  0  0  0  0  0  0
  187.7820  177.8540  136.3390 C   0  0  1  0  0  3  0  0  0  0  0  0
  188.5740  177.2480  138.6380 C   0  0  0  0  0  1  0  0  0  0  0  0
  188.9000  178.0190  137.3710 C   0  0  0  0  0  0  0  0  0  0  0  0
  189.0820  179.3550  137.6820 F   0  0  0  0  0  0  0  0  0  0  0  0
  190.0770  177.5210  136.8460 F   0  0  0  0  0  0  0  0  0  0  0  0
  1  5  1  0  0  0  0
  1 13  1  0  0  0  0
  2  6  2  0  0  0  0
  2  8  1  0  0  0  0
  3  8  1  0  0  0  0
  3 12  2  0  0  0  0
  4 10  1  6  0  0  0
  4 18  1  0  0  0  0
  4 15  1  0  0  0  0
  6 11  1  0  0  0  0
  7 18  1  0  0  0  0
  8  1  2  0  0  0  0
  9  7  1  0  0  0  0
 11  5  2  0  0  0  0
 12 19  1  0  0  0  0
 14  2  1  0  0  0  0
 15 16  1  0  0  0  0
 16 12  1  0  0  0  0
 16 22  1  1  0  0  0
 17 27  1  6  0  0  0
 17  9  1  0  0  0  0
 17 10  1  0  0  0  0
 18  3  1  0  0  0  0
 19 13  2  0  0  0  0
 20 21  1  0  0  0  0
 21 23  2  0  0  0  0
 22 25  2  0  0  0  0
 24 22  1  0  0  0  0
 24 20  2  0  0  0  0
 25 23  1  0  0  0  0
 26 20  1  0  0  0  0
 28 27  1  0  0  0  0
 30 29  1  1  0  0  0
 30 28  1  0  0  0  0
 30 32  1  0  0  0  0
 32 33  1  0  0  0  0
 32 31  1  0  0  0  0
 34 32  1  0  0  0  0
M  END
>  <MODEL>
4

>  <REMARK>
 VINA RESULT:      -8.7      4.440      8.600
  Name = 
  5 active torsions:
  status: ('A' for Active; 'I' for Inactive)
    1  A    between atoms: N_3  and  C_13
    2  A    between atoms: N_3  and  C_29
    3  A    between atoms: C_12  and  C_28
    4  A    between atoms: C_13  and  C_33
    5  A    between atoms: C_20  and  C_33
                            x       y       z     vdW  Elec       q    Type
                         _______ _______ _______ _____ _____    ______ ____

>  <TORSDO>
F 5

$$$$
=
 OpenBabel11052414243D

 34 38  0  0  1  0  0  0  0  0999 V2000
  191.0390  176.8080  144.4500 C   0  0  0  0  0  0  0  0  0  0  0  0
  189.1620  177.5870  145.7980 C   0  0  0  0  0  0  0  0  0  0  0  0
  189.1130  177.7030  143.2870 C   0  0  0  0  0  0  0  0  0  0  0  0
  187.4320  178.9450  142.0550 C   0  0  2  0  0  3  0  0  0  0  0  0
  191.6930  176.3890  145.6110 C   0  0  0  0  0  3  0  0  0  0  0  0
  189.8400  177.1620  146.9440 C   0  0  0  0  0  3  0  0  0  0  0  0
  186.7720  176.9910  143.5070 C   0  0  0  0  0  2  0  0  0  0  0  0
  189.7380  177.3680  144.5140 C   0  0  0  0  0  0  0  0  0  0  0  0
  185.3540  177.5340  143.5910 C   0  0  0  0  0  2  0  0  0  0  0  0
  185.9730  179.4070  142.0350 C   0  0  0  0  0  2  0  0  0  0  0  0
  191.0890  176.5510  146.8540 C   0  0  0  0  0  3  0  0  0  0  0  0
  189.8420  177.5800  142.0880 C   0  0  0  0  0  0  0  0  0  0  0  0
  191.6760  176.6960  143.2580 N   0  0  0  0  0  0  0  0  0  0  0  0
  187.6940  178.5140  146.0830 Cl  0  0  0  0  0  0  0  0  0  0  0  0
  187.7950  178.2680  140.8140 N   0  0  0  0  0  2  0  0  0  0  0  0
  189.2550  178.0850  140.7760 C   0  0  2  0  0  3  0  0  0  0  0  0
  185.0110  178.2460  142.2870 C   0  0  2  0  0  3  0  0  0  0  0  0
  187.7280  178.0550  143.1820 N   0  0  0  0  0  0  0  0  0  0  0  0
  191.1080  177.0910  142.1210 N   0  0  0  0  0  0  0  0  0  0  0  0
  191.2660  175.9370  138.3630 C   0  0  0  0  0  0  0  0  0  0  0  0
  190.2770  175.5640  137.4480 C   0  0  0  0  0  3  0  0  0  0  0  0
  189.6220  177.2020  139.6230 C   0  0  0  0  0  0  0  0  0  0  0  0
  188.9630  176.0090  137.6190 C   0  0  0  0  0  3  0  0  0  0  0  0
  190.9410  176.7550  139.4490 C   0  0  0  0  0  3  0  0  0  0  0  0
  188.6370  176.8270  138.7050 C   0  0  0  0  0  3  0  0  0  0  0  0
  192.5400  175.5070  138.1980 F   0  0  0  0  0  0  0  0  0  0  0  0
  183.6130  178.6790  142.2550 N   0  0  0  0  0  2  0  0  0  0  0  0
  183.1170  178.7380  140.8800 C   0  0  0  0  0  2  0  0  0  0  0  0
  183.0020  176.5700  139.8710 F   0  0  0  0  0  0  0  0  0  0  0  0
  183.8060  177.6900  140.0070 C   0  0  1  0  0  3  0  0  0  0  0  0
  183.2680  177.7470  137.5600 C   0  0  0  0  0  1  0  0  0  0  0  0
  184.2290  178.2220  138.6360 C   0  0  0  0  0  0  0  0  0  0  0  0
  185.5100  177.8010  138.3240 F   0  0  0  0  0  0  0  0  0  0  0  0
  184.2090  179.6030  138.6620 F   0  0  0  0  0  0  0  0  0  0  0  0
  1  8  1  0  0  0  0
  1  5  2  0  0  0  0
  2 14  1  0  0  0  0
  2  6  1  0  0  0  0
  3  8  1  0  0  0  0
  4 10  1  6  0  0  0
  4 18  1  0  0  0  0
  5 11  1  0  0  0  0
  7  9  1  0  0  0  0
  8  2  2  0  0  0  0
 10 17  1  0  0  0  0
 11  6  2  0  0  0  0
 12 19  1  0  0  0  0
 12  3  2  0  0  0  0
 13  1  1  0  0  0  0
 15  4  1  0  0  0  0
 16 22  1  6  0  0  0
 16 15  1  0  0  0  0
 16 12  1  0  0  0  0
 17 27  1  1  0  0  0
 17  9  1  0  0  0  0
 18  3  1  0  0  0  0
 18  7  1  0  0  0  0
 19 13  2  0  0  0  0
 20 24  1  0  0  0  0
 21 23  1  0  0  0  0
 21 20  2  0  0  0  0
 23 25  2  0  0  0  0
 24 22  2  0  0  0  0
 25 22  1  0  0  0  0
 26 20  1  0  0  0  0
 28 27  1  0  0  0  0
 30 29  1  6  0  0  0
 30 28  1  0  0  0  0
 31 32  1  0  0  0  0
 32 34  1  0  0  0  0
 32 30  1  0  0  0  0
 33 32  1  0  0  0  0
M  END
>  <MODEL>
5

>  <REMARK>
 VINA RESULT:      -8.4      3.675      7.474
  Name = 
  5 active torsions:
  status: ('A' for Active; 'I' for Inactive)
    1  A    between atoms: N_3  and  C_13
    2  A    between atoms: N_3  and  C_29
    3  A    between atoms: C_12  and  C_28
    4  A    between atoms: C_13  and  C_33
    5  A    between atoms: C_20  and  C_33
                            x       y       z     vdW  Elec       q    Type
                         _______ _______ _______ _____ _____    ______ ____

>  <TORSDO>
F 5

$$$$
=
 OpenBabel11052414243D

 34 38  0  0  1  0  0  0  0  0999 V2000
  187.8640  177.9690  147.3690 C   0  0  0  0  0  0  0  0  0  0  0  0
  190.2400  177.5370  147.0320 C   0  0  0  0  0  0  0  0  0  0  0  0
  188.6060  177.4490  145.1230 C   0  0  0  0  0  0  0  0  0  0  0  0
  189.1690  176.5450  142.9430 C   0  0  2  0  0  3  0  0  0  0  0  0
  188.1110  178.2540  148.7140 C   0  0  0  0  0  3  0  0  0  0  0  0
  190.4590  177.8220  148.3830 C   0  0  0  0  0  3  0  0  0  0  0  0
  190.3690  178.5760  143.8360 C   0  0  0  0  0  2  0  0  0  0  0  0
  188.9300  177.6560  146.4880 C   0  0  0  0  0  0  0  0  0  0  0  0
  191.5320  178.3010  142.8940 C   0  0  0  0  0  2  0  0  0  0  0  0
  190.2800  176.3570  141.9090 C   0  0  0  0  0  2  0  0  0  0  0  0
  189.4070  178.1950  149.2170 C   0  0  0  0  0  3  0  0  0  0  0  0
  187.2530  177.4470  144.7300 C   0  0  0  0  0  0  0  0  0  0  0  0
  186.5850  177.9710  146.9190 N   0  0  0  0  0  0  0  0  0  0  0  0
  191.6240  176.8910  146.1570 Cl  0  0  0  0  0  0  0  0  0  0  0  0
  187.9830  177.1530  142.3490 N   0  0  0  0  0  2  0  0  0  0  0  0
  186.8670  177.0670  143.3060 C   0  0  2  0  0  3  0  0  0  0  0  0
  191.0000  177.6730  141.6110 C   0  0  2  0  0  3  0  0  0  0  0  0
  189.5920  177.3580  144.0880 N   0  0  0  0  0  0  0  0  0  0  0  0
  186.2880  177.6960  145.6510 N   0  0  0  0  0  0  0  0  0  0  0  0
  183.5940  179.0030  143.1810 C   0  0  0  0  0  0  0  0  0  0  0  0
  183.5550  179.3780  141.8350 C   0  0  0  0  0  3  0  0  0  0  0  0
  185.7110  177.8770  142.8070 C   0  0  0  0  0  0  0  0  0  0  0  0
  184.5920  179.0030  140.9750 C   0  0  0  0  0  3  0  0  0  0  0  0
  184.6690  178.2530  143.6670 C   0  0  0  0  0  3  0  0  0  0  0  0
  185.6670  178.2540  141.4610 C   0  0  0  0  0  3  0  0  0  0  0  0
  182.5890  179.3640  144.0150 F   0  0  0  0  0  0  0  0  0  0  0  0
  192.0560  177.5020  140.6100 N   0  0  0  0  0  2  0  0  0  0  0  0
  191.5530  176.7840  139.4390 C   0  0  0  0  0  2  0  0  0  0  0  0
  193.7620  176.1010  138.8230 F   0  0  0  0  0  0  0  0  0  0  0  0
  192.6170  176.7140  138.3440 C   0  0  1  0  0  3  0  0  0  0  0  0
  191.7620  174.5810  137.3440 C   0  0  0  0  0  1  0  0  0  0  0  0
  192.1300  176.0270  137.0650 C   0  0  0  0  0  0  0  0  0  0  0  0
  193.1080  176.0710  136.0870 F   0  0  0  0  0  0  0  0  0  0  0  0
  191.0060  176.6830  136.6010 F   0  0  0  0  0  0  0  0  0  0  0  0
  1  5  2  0  0  0  0
  2  6  1  0  0  0  0
  3  8  1  0  0  0  0
  4 10  1  6  0  0  0
  4 18  1  0  0  0  0
  5 11  1  0  0  0  0
  6 11  2  0  0  0  0
  7 18  1  0  0  0  0
  8  2  2  0  0  0  0
  8  1  1  0  0  0  0
  9  7  1  0  0  0  0
 12  3  2  0  0  0  0
 12 19  1  0  0  0  0
 13  1  1  0  0  0  0
 14  2  1  0  0  0  0
 15  4  1  0  0  0  0
 15 16  1  0  0  0  0
 16 22  1  6  0  0  0
 16 12  1  0  0  0  0
 17 27  1  6  0  0  0
 17 10  1  0  0  0  0
 17  9  1  0  0  0  0
 18  3  1  0  0  0  0
 19 13  2  0  0  0  0
 20 24  1  0  0  0  0
 20 26  1  0  0  0  0
 21 20  2  0  0  0  0
 22 24  2  0  0  0  0
 23 25  2  0  0  0  0
 23 21  1  0  0  0  0
 25 22  1  0  0  0  0
 28 27  1  0  0  0  0
 30 29  1  1  0  0  0
 30 28  1  0  0  0  0
 32 31  1  0  0  0  0
 32 30  1  0  0  0  0
 33 32  1  0  0  0  0
 34 32  1  0  0  0  0
M  END
>  <MODEL>
6

>  <REMARK>
 VINA RESULT:      -8.4      3.891      7.097
  Name = 
  5 active torsions:
  status: ('A' for Active; 'I' for Inactive)
    1  A    between atoms: N_3  and  C_13
    2  A    between atoms: N_3  and  C_29
    3  A    between atoms: C_12  and  C_28
    4  A    between atoms: C_13  and  C_33
    5  A    between atoms: C_20  and  C_33
                            x       y       z     vdW  Elec       q    Type
                         _______ _______ _______ _____ _____    ______ ____

>  <TORSDO>
F 5

$$$$
=
 OpenBabel11052414243D

 34 38  0  0  1  0  0  0  0  0999 V2000
  190.9730  176.9560  144.6080 C   0  0  0  0  0  0  0  0  0  0  0  0
  188.9610  177.6410  145.8020 C   0  0  0  0  0  0  0  0  0  0  0  0
  189.1050  177.7640  143.2950 C   0  0  0  0  0  0  0  0  0  0  0  0
  187.4700  178.9300  141.9340 C   0  0  2  0  0  3  0  0  0  0  0  0
  191.5520  176.5630  145.8160 C   0  0  0  0  0  3  0  0  0  0  0  0
  189.5650  177.2450  146.9990 C   0  0  0  0  0  3  0  0  0  0  0  0
  186.7900  176.9420  143.3300 C   0  0  0  0  0  2  0  0  0  0  0  0
  189.6460  177.4540  144.5680 C   0  0  0  0  0  0  0  0  0  0  0  0
  185.3460  177.4180  143.3010 C   0  0  0  0  0  2  0  0  0  0  0  0
  185.9980  179.3240  141.7980 C   0  0  0  0  0  2  0  0  0  0  0  0
  190.8440  176.6930  147.0080 C   0  0  0  0  0  3  0  0  0  0  0  0
  189.9320  177.6790  142.1580 C   0  0  0  0  0  0  0  0  0  0  0  0
  191.7070  176.8780  143.4700 N   0  0  0  0  0  0  0  0  0  0  0  0
  187.4330  178.4980  145.9690 Cl  0  0  0  0  0  0  0  0  0  0  0  0
  187.9620  178.2760  140.7260 N   0  0  0  0  0  2  0  0  0  0  0  0
  189.4280  178.1600  140.8030 C   0  0  2  0  0  3  0  0  0  0  0  0
  185.0750  178.1180  141.9740 C   0  0  2  0  0  3  0  0  0  0  0  0
  187.7180  178.0510  143.0810 N   0  0  0  0  0  0  0  0  0  0  0  0
  191.2130  177.2500  142.2910 N   0  0  0  0  0  0  0  0  0  0  0  0
  191.7470  176.2950  138.4320 C   0  0  0  0  0  0  0  0  0  0  0  0
  190.8230  175.6960  137.5700 C   0  0  0  0  0  3  0  0  0  0  0  0
  189.9260  177.3000  139.6840 C   0  0  0  0  0  0  0  0  0  0  0  0
  189.4540  175.8980  137.7630 C   0  0  0  0  0  3  0  0  0  0  0  0
  191.3000  177.0970  139.4870 C   0  0  0  0  0  3  0  0  0  0  0  0
  189.0060  176.6980  138.8190 C   0  0  0  0  0  3  0  0  0  0  0  0
  193.0740  176.1010  138.2450 F   0  0  0  0  0  0  0  0  0  0  0  0
  183.6640  178.4860  141.8310 N   0  0  0  0  0  2  0  0  0  0  0  0
  183.2340  179.3390  142.9380 C   0  0  0  0  0  2  0  0  0  0  0  0
  182.5220  178.8050  145.1600 F   0  0  0  0  0  0  0  0  0  0  0  0
  182.2200  178.6140  143.8230 C   0  0  1  0  0  3  0  0  0  0  0  0
  180.1710  178.0980  142.4760 C   0  0  0  0  0  1  0  0  0  0  0  0
  180.7690  179.0080  143.5340 C   0  0  0  0  0  0  0  0  0  0  0  0
  180.6970  180.3210  143.1030 F   0  0  0  0  0  0  0  0  0  0  0  0
  180.0270  178.8780  144.6920 F   0  0  0  0  0  0  0  0  0  0  0  0
  1  5  2  0  0  0  0
  2 14  1  0  0  0  0
  2  6  1  0  0  0  0
  3  8  1  0  0  0  0
  4 10  1  6  0  0  0
  4 18  1  0  0  0  0
  5 11  1  0  0  0  0
  6 11  2  0  0  0  0
  8  1  1  0  0  0  0
  8  2  2  0  0  0  0
  9  7  1  0  0  0  0
 10 17  1  0  0  0  0
 12 19  1  0  0  0  0
 12  3  2  0  0  0  0
 13  1  1  0  0  0  0
 15 16  1  0  0  0  0
 15  4  1  0  0  0  0
 16 22  1  6  0  0  0
 16 12  1  0  0  0  0
 17 27  1  1  0  0  0
 17  9  1  0  0  0  0
 18  3  1  0  0  0  0
 18  7  1  0  0  0  0
 19 13  2  0  0  0  0
 20 24  1  0  0  0  0
 21 23  1  0  0  0  0
 21 20  2  0  0  0  0
 23 25  2  0  0  0  0
 24 22  2  0  0  0  0
 25 22  1  0  0  0  0
 26 20  1  0  0  0  0
 27 28  1  0  0  0  0
 28 30  1  0  0  0  0
 30 29  1  1  0  0  0
 31 32  1  0  0  0  0
 32 30  1  0  0  0  0
 32 34  1  0  0  0  0
 33 32  1  0  0  0  0
M  END
>  <MODEL>
7

>  <REMARK>
 VINA RESULT:      -8.2      2.784      7.158
  Name = 
  5 active torsions:
  status: ('A' for Active; 'I' for Inactive)
    1  A    between atoms: N_3  and  C_13
    2  A    between atoms: N_3  and  C_29
    3  A    between atoms: C_12  and  C_28
    4  A    between atoms: C_13  and  C_33
    5  A    between atoms: C_20  and  C_33
                            x       y       z     vdW  Elec       q    Type
                         _______ _______ _______ _____ _____    ______ ____

>  <TORSDO>
F 5

$$$$
=
 OpenBabel11052414243D

 34 38  0  0  1  0  0  0  0  0999 V2000
  187.3720  177.7840  143.4960 C   0  0  0  0  0  0  0  0  0  0  0  0
  185.0930  178.5220  143.9490 C   0  0  0  0  0  0  0  0  0  0  0  0
  185.9970  178.4200  141.6060 C   0  0  0  0  0  0  0  0  0  0  0  0
  184.8600  179.4140  139.7070 C   0  0  2  0  0  3  0  0  0  0  0  0
  187.5530  177.5190  144.8540 C   0  0  0  0  0  3  0  0  0  0  0  0
  185.3020  178.2530  145.3050 C   0  0  0  0  0  3  0  0  0  0  0  0
  183.7800  177.5440  141.0110 C   0  0  0  0  0  2  0  0  0  0  0  0
  186.1230  178.2420  143.0070 C   0  0  0  0  0  0  0  0  0  0  0  0
  182.4150  177.9780  140.4990 C   0  0  0  0  0  2  0  0  0  0  0  0
  183.5010  179.7540  139.0930 C   0  0  0  0  0  2  0  0  0  0  0  0
  186.5150  177.7380  145.7560 C   0  0  0  0  0  3  0  0  0  0  0  0
  187.1310  178.2530  140.7870 C   0  0  0  0  0  0  0  0  0  0  0  0
  188.4190  177.6220  142.6480 N   0  0  0  0  0  0  0  0  0  0  0  0
  183.5900  179.3510  143.5610 Cl  0  0  0  0  0  0  0  0  0  0  0  0
  185.6950  178.6650  138.7740 N   0  0  0  0  0  2  0  0  0  0  0  0
  187.0670  178.5950  139.3050 C   0  0  2  0  0  3  0  0  0  0  0  0
  182.5640  178.5460  139.0920 C   0  0  2  0  0  3  0  0  0  0  0  0
  184.7430  178.6490  140.9530 N   0  0  0  0  0  0  0  0  0  0  0  0
  188.3090  177.8720  141.3450 N   0  0  0  0  0  0  0  0  0  0  0  0
  190.0210  176.8740  137.6350 C   0  0  0  0  0  0  0  0  0  0  0  0
  189.3710  175.8730  136.9060 C   0  0  0  0  0  3  0  0  0  0  0  0
  187.8810  177.6490  138.4770 C   0  0  0  0  0  0  0  0  0  0  0  0
  187.9790  175.7600  136.9620 C   0  0  0  0  0  3  0  0  0  0  0  0
  189.2780  177.7620  138.4180 C   0  0  0  0  0  3  0  0  0  0  0  0
  187.2360  176.6460  137.7460 C   0  0  0  0  0  3  0  0  0  0  0  0
  191.3700  176.9850  137.5800 F   0  0  0  0  0  0  0  0  0  0  0  0
  181.2670  178.8620  138.4920 N   0  0  0  0  0  2  0  0  0  0  0  0
  181.3390  180.0990  137.7150 C   0  0  0  0  0  2  0  0  0  0  0  0
  180.5270  181.2240  139.6660 F   0  0  0  0  0  0  0  0  0  0  0  0
  180.3990  181.1590  138.2890 C   0  0  1  0  0  3  0  0  0  0  0  0
  180.4280  182.4690  136.1530 C   0  0  0  0  0  1  0  0  0  0  0  0
  180.5860  182.5430  137.6610 C   0  0  0  0  0  0  0  0  0  0  0  0
  181.8360  183.0510  137.9670 F   0  0  0  0  0  0  0  0  0  0  0  0
  179.6240  183.3990  138.1610 F   0  0  0  0  0  0  0  0  0  0  0  0
  1  5  2  0  0  0  0
  2  6  1  0  0  0  0
  3  8  1  0  0  0  0
  4 10  1  6  0  0  0
  4 18  1  0  0  0  0
  5 11  1  0  0  0  0
  6 11  2  0  0  0  0
  8  1  1  0  0  0  0
  8  2  2  0  0  0  0
  9  7  1  0  0  0  0
 12 19  1  0  0  0  0
 12  3  2  0  0  0  0
 13  1  1  0  0  0  0
 14  2  1  0  0  0  0
 15 16  1  0  0  0  0
 15  4  1  0  0  0  0
 16 22  1  6  0  0  0
 16 12  1  0  0  0  0
 17 27  1  1  0  0  0
 17 10  1  0  0  0  0
 17  9  1  0  0  0  0
 18  7  1  0  0  0  0
 18  3  1  0  0  0  0
 19 13  2  0  0  0  0
 20 24  1  0  0  0  0
 21 23  1  0  0  0  0
 21 20  2  0  0  0  0
 23 25  2  0  0  0  0
 24 22  2  0  0  0  0
 25 22  1  0  0  0  0
 26 20  1  0  0  0  0
 28 30  1  0  0  0  0
 28 27  1  0  0  0  0
 30 29  1  1  0  0  0
 31 32  1  0  0  0  0
 32 33  1  0  0  0  0
 32 34  1  0  0  0  0
 32 30  1  0  0  0  0
M  END
>  <MODEL>
8

>  <REMARK>
 VINA RESULT:      -8.2      4.436      8.993
  Name = 
  5 active torsions:
  status: ('A' for Active; 'I' for Inactive)
    1  A    between atoms: N_3  and  C_13
    2  A    between atoms: N_3  and  C_29
    3  A    between atoms: C_12  and  C_28
    4  A    between atoms: C_13  and  C_33
    5  A    between atoms: C_20  and  C_33
                            x       y       z     vdW  Elec       q    Type
                         _______ _______ _______ _____ _____    ______ ____

>  <TORSDO>
F 5

$$$$
=
 OpenBabel11052414243D

 34 38  0  0  1  0  0  0  0  0999 V2000
  180.8520  177.7670  140.0340 C   0  0  0  0  0  0  0  0  0  0  0  0
  181.3500  177.4330  137.6700 C   0  0  0  0  0  0  0  0  0  0  0  0
  183.1450  178.0680  139.3120 C   0  0  0  0  0  0  0  0  0  0  0  0
  185.3600  178.7900  138.6340 C   0  0  2  0  0  3  0  0  0  0  0  0
  179.5270  177.3940  139.8030 C   0  0  0  0  0  3  0  0  0  0  0  0
  180.0160  177.0680  137.4660 C   0  0  0  0  0  3  0  0  0  0  0  0
  184.5450  176.4670  138.0830 C   0  0  0  0  0  2  0  0  0  0  0  0
  181.8040  177.7440  138.9830 C   0  0  0  0  0  0  0  0  0  0  0  0
  185.5630  176.3790  136.9570 C   0  0  0  0  0  2  0  0  0  0  0  0
  186.4670  178.6360  137.5900 C   0  0  0  0  0  2  0  0  0  0  0  0
  179.1130  177.0300  138.5250 C   0  0  0  0  0  3  0  0  0  0  0  0
  183.4460  178.5060  140.6170 C   0  0  0  0  0  0  0  0  0  0  0  0
  181.2150  178.1780  141.2740 N   0  0  0  0  0  0  0  0  0  0  0  0
  182.3180  177.6250  136.2130 Cl  0  0  0  0  0  0  0  0  0  0  0  0
  185.8710  178.5990  139.9880 N   0  0  0  0  0  2  0  0  0  0  0  0
  184.8410  179.0150  140.9540 C   0  0  2  0  0  3  0  0  0  0  0  0
  186.8100  177.1660  137.3450 C   0  0  2  0  0  3  0  0  0  0  0  0
  184.2450  177.8630  138.4170 N   0  0  0  0  0  0  0  0  0  0  0  0
  182.4610  178.5570  141.5500 N   0  0  0  0  0  0  0  0  0  0  0  0
  184.9170  178.6400  144.7400 C   0  0  0  0  0  0  0  0  0  0  0  0
  186.0800  177.8830  144.9110 C   0  0  0  0  0  3  0  0  0  0  0  0
  185.2600  178.6220  142.3370 C   0  0  0  0  0  0  0  0  0  0  0  0
  186.8330  177.4960  143.7980 C   0  0  0  0  0  3  0  0  0  0  0  0
  184.5070  179.0100  143.4560 C   0  0  0  0  0  3  0  0  0  0  0  0
  186.4230  177.8650  142.5140 C   0  0  0  0  0  3  0  0  0  0  0  0
  184.1880  179.0160  145.8180 F   0  0  0  0  0  0  0  0  0  0  0  0
  187.8800  177.0140  136.3560 N   0  0  0  0  0  2  0  0  0  0  0  0
  189.1870  177.2730  136.9590 C   0  0  0  0  0  2  0  0  0  0  0  0
  190.3400  175.5440  138.1460 F   0  0  0  0  0  0  0  0  0  0  0  0
  189.3470  176.5000  138.2680 C   0  0  1  0  0  3  0  0  0  0  0  0
  191.0200  177.1980  139.9980 C   0  0  0  0  0  1  0  0  0  0  0  0
  189.6070  177.4000  139.4790 C   0  0  0  0  0  0  0  0  0  0  0  0
  188.7040  177.1280  140.4910 F   0  0  0  0  0  0  0  0  0  0  0  0
  189.4650  178.7200  139.0990 F   0  0  0  0  0  0  0  0  0  0  0  0
  1 13  1  0  0  0  0
  2  8  1  0  0  0  0
  3 12  2  0  0  0  0
  4 10  1  6  0  0  0
  4 15  1  0  0  0  0
  5  1  1  0  0  0  0
  6  2  2  0  0  0  0
  6 11  1  0  0  0  0
  7 18  1  0  0  0  0
  8  3  1  0  0  0  0
  8  1  2  0  0  0  0
  9 17  1  0  0  0  0
  9  7  1  0  0  0  0
 11  5  2  0  0  0  0
 12 16  1  0  0  0  0
 12 19  1  0  0  0  0
 13 19  2  0  0  0  0
 14  2  1  0  0  0  0
 15 16  1  0  0  0  0
 16 22  1  1  0  0  0
 17 27  1  6  0  0  0
 17 10  1  0  0  0  0
 18  4  1  0  0  0  0
 18  3  1  0  0  0  0
 20 21  1  0  0  0  0
 20 26  1  0  0  0  0
 22 25  2  0  0  0  0
 22 24  1  0  0  0  0
 23 21  2  0  0  0  0
 24 20  2  0  0  0  0
 25 23  1  0  0  0  0
 27 28  1  0  0  0  0
 28 30  1  0  0  0  0
 30 29  1  6  0  0  0
 30 32  1  0  0  0  0
 32 31  1  0  0  0  0
 32 33  1  0  0  0  0
 34 32  1  0  0  0  0
M  END
>  <MODEL>
9

>  <REMARK>
 VINA RESULT:      -7.9      4.271      7.541
  Name = 
  5 active torsions:
  status: ('A' for Active; 'I' for Inactive)
    1  A    between atoms: N_3  and  C_13
    2  A    between atoms: N_3  and  C_29
    3  A    between atoms: C_12  and  C_28
    4  A    between atoms: C_13  and  C_33
    5  A    between atoms: C_20  and  C_33
                            x       y       z     vdW  Elec       q    Type
                         _______ _______ _______ _____ _____    ______ ____

>  <TORSDO>
F 5

$$$$
