=
 OpenBabel11052412533D

 25 28  0  0  1  0  0  0  0  0999 V2000
  186.6930  178.2670  142.9100 C   0  0  0  0  0  0  0  0  0  0  0  0
  186.6600  177.9410  144.2730 C   0  0  0  0  0  0  0  0  0  0  0  0
  184.7930  179.7480  143.1130 C   0  0  0  0  0  3  0  0  0  0  0  0
  187.5180  177.8870  141.8760 C   0  0  0  0  0  0  0  0  0  0  0  0
  188.4700  177.7000  145.8690 C   0  0  0  0  0  0  0  0  0  0  0  0
  188.5460  177.2970  139.3380 C   0  0  0  0  0  2  0  0  0  0  0  0
  184.7270  179.4240  144.4770 C   0  0  0  0  0  3  0  0  0  0  0  0
  187.0520  178.5420  140.7590 C   0  0  0  0  0  0  0  0  0  0  0  0
  187.5380  178.3450  139.5710 N   0  0  0  0  0  0  0  0  0  0  0  0
  185.4980  178.2120  146.5050 C   0  0  0  0  0  0  0  0  0  0  0  0
  184.3330  178.1420  146.9790 O   0  0  0  0  0  0  0  0  0  0  0  0
  189.7650  177.9440  145.6570 C   0  0  0  0  0  3  0  0  0  0  0  0
  187.6370  176.9830  144.8620 C   0  0  0  0  0  2  0  0  0  0  0  0
  189.4050  177.0230  140.5940 C   0  0  0  0  0  2  0  0  0  0  0  0
  185.7940  179.1560  142.3510 C   0  0  0  0  0  0  0  0  0  0  0  0
  185.9980  179.3450  141.0270 N   0  0  0  0  0  2  0  0  0  0  0  0
  186.5760  178.0420  147.3890 O   0  0  0  0  0  0  0  0  0  0  0  0
  188.5890  177.0960  141.8620 C   0  0  0  0  0  3  0  0  0  0  0  0
  187.9070  178.1300  147.0720 O   0  0  0  0  0  0  0  0  0  0  0  0
  185.6560  178.5360  145.0710 C   0  0  0  0  0  0  0  0  0  0  0  0
  191.5280  176.4480  144.7650 C   0  0  0  0  0  1  0  0  0  0  0  0
  190.5040  177.5170  144.4280 C   0  0  2  0  0  3  0  0  0  0  0  0
  191.1670  178.6880  143.7830 C   0  0  0  0  0  0  0  0  0  0  0  0
  191.9820  178.4880  142.6760 O   0  0  0  0  0  0  0  0  0  0  0  0
  190.9950  179.8530  144.2300 O   0  0  0  0  0  1  0  0  0  0  0  0
  1  2  1  0  0  0  0
  2 13  1  0  0  0  0
  2 20  2  0  0  0  0
  3  7  2  0  0  0  0
  4  1  1  0  0  0  0
  5 19  1  0  0  0  0
  6  9  1  0  0  0  0
  6 14  1  0  0  0  0
  7 20  1  0  0  0  0
  8 16  1  0  0  0  0
  8  4  1  0  0  0  0
  9  8  2  0  0  0  0
 10 11  2  0  0  0  0
 10 17  1  0  0  0  0
 12  5  2  0  0  0  0
 13  5  1  0  0  0  0
 14 18  1  0  0  0  0
 15  1  2  0  0  0  0
 15  3  1  0  0  0  0
 16 15  1  0  0  0  0
 18  4  2  0  0  0  0
 19 17  1  0  0  0  0
 20 10  1  0  0  0  0
 22 21  1  1  0  0  0
 22 12  1  0  0  0  0
 23 25  1  0  0  0  0
 23 22  1  0  0  0  0
 24 23  2  0  0  0  0
M  END
>  <MODEL>
1

>  <REMARK>
 VINA RESULT:      -9.6      0.000      0.000
  Name = 
  2 active torsions:
  status: ('A' for Active; 'I' for Inactive)
    1  A    between atoms: C_2  and  C_25
    2  A    between atoms: C_15  and  C_25
                            x       y       z     vdW  Elec       q    Type
                         _______ _______ _______ _____ _____    ______ ____

>  <TORSDO>
F 2

$$$$
=
 OpenBabel11052412533D

 25 28  0  0  1  0  0  0  0  0999 V2000
  187.1590  178.0110  142.7030 C   0  0  0  0  0  0  0  0  0  0  0  0
  186.7550  177.8610  144.0370 C   0  0  0  0  0  0  0  0  0  0  0  0
  185.3290  179.5100  142.2090 C   0  0  0  0  0  3  0  0  0  0  0  0
  188.2140  177.4990  141.9830 C   0  0  0  0  0  0  0  0  0  0  0  0
  188.0670  177.8210  146.0760 C   0  0  0  0  0  0  0  0  0  0  0  0
  189.8550  176.5890  139.9020 C   0  0  0  0  0  2  0  0  0  0  0  0
  184.8920  179.3620  143.5340 C   0  0  0  0  0  3  0  0  0  0  0  0
  188.0840  178.0080  140.7100 C   0  0  0  0  0  0  0  0  0  0  0  0
  188.8600  177.6610  139.7280 N   0  0  0  0  0  0  0  0  0  0  0  0
  185.0540  178.4160  145.8270 C   0  0  0  0  0  0  0  0  0  0  0  0
  183.8030  178.4100  145.9770 O   0  0  0  0  0  0  0  0  0  0  0  0
  189.3800  178.0320  146.1900 C   0  0  0  0  0  3  0  0  0  0  0  0
  187.5050  176.9830  144.9780 C   0  0  0  0  0  2  0  0  0  0  0  0
  190.3400  176.4750  141.3660 C   0  0  0  0  0  2  0  0  0  0  0  0
  186.4730  178.8230  141.8200 C   0  0  0  0  0  0  0  0  0  0  0  0
  187.0270  178.8410  140.5870 N   0  0  0  0  0  2  0  0  0  0  0  0
  185.8520  178.3580  146.9810 O   0  0  0  0  0  0  0  0  0  0  0  0
  189.2210  176.7110  142.3520 C   0  0  0  0  0  3  0  0  0  0  0  0
  187.2220  178.4010  147.0230 O   0  0  0  0  0  0  0  0  0  0  0  0
  185.5970  178.5550  144.4590 C   0  0  0  0  0  0  0  0  0  0  0  0
  191.3780  176.5730  146.0300 C   0  0  0  0  0  1  0  0  0  0  0  0
  190.4020  177.4500  145.2640 C   0  0  2  0  0  3  0  0  0  0  0  0
  191.1310  178.5340  144.5430 C   0  0  0  0  0  0  0  0  0  0  0  0
  190.4110  179.5170  143.8770 O   0  0  0  0  0  0  0  0  0  0  0  0
  192.3910  178.5660  144.5320 O   0  0  0  0  0  1  0  0  0  0  0  0
  1  2  1  0  0  0  0
  2 20  2  0  0  0  0
  2 13  1  0  0  0  0
  3  7  2  0  0  0  0
  4 18  2  0  0  0  0
  4  1  1  0  0  0  0
  5 12  2  0  0  0  0
  5 19  1  0  0  0  0
  6 14  1  0  0  0  0
  7 20  1  0  0  0  0
  8  4  1  0  0  0  0
  9  6  1  0  0  0  0
  9  8  2  0  0  0  0
 10 11  2  0  0  0  0
 10 17  1  0  0  0  0
 13  5  1  0  0  0  0
 14 18  1  0  0  0  0
 15  3  1  0  0  0  0
 15  1  2  0  0  0  0
 16  8  1  0  0  0  0
 16 15  1  0  0  0  0
 17 19  1  0  0  0  0
 20 10  1  0  0  0  0
 22 21  1  1  0  0  0
 22 12  1  0  0  0  0
 23 22  1  0  0  0  0
 24 23  2  0  0  0  0
 25 23  1  0  0  0  0
M  END
>  <MODEL>
2

>  <REMARK>
 VINA RESULT:      -9.1      0.947      1.100
  Name = 
  2 active torsions:
  status: ('A' for Active; 'I' for Inactive)
    1  A    between atoms: C_2  and  C_25
    2  A    between atoms: C_15  and  C_25
                            x       y       z     vdW  Elec       q    Type
                         _______ _______ _______ _____ _____    ______ ____

>  <TORSDO>
F 2

$$$$
=
 OpenBabel11052412533D

 25 28  0  0  1  0  0  0  0  0999 V2000
  187.2250  177.8880  142.7690 C   0  0  0  0  0  0  0  0  0  0  0  0
  186.0830  178.4640  143.3420 C   0  0  0  0  0  0  0  0  0  0  0  0
  187.8530  176.8180  144.8430 C   0  0  0  0  0  3  0  0  0  0  0  0
  187.7520  177.9230  141.4980 C   0  0  0  0  0  0  0  0  0  0  0  0
  183.8320  178.6880  142.4660 C   0  0  0  0  0  0  0  0  0  0  0  0
  189.5060  177.8420  139.3150 C   0  0  0  0  0  2  0  0  0  0  0  0
  186.7260  177.3980  145.4470 C   0  0  0  0  0  3  0  0  0  0  0  0
  188.8970  177.1590  141.5430 C   0  0  0  0  0  0  0  0  0  0  0  0
  189.7090  177.0440  140.5360 N   0  0  0  0  0  0  0  0  0  0  0  0
  184.6870  178.8180  145.4240 C   0  0  0  0  0  0  0  0  0  0  0  0
  184.8490  179.1740  146.6220 O   0  0  0  0  0  0  0  0  0  0  0  0
  183.3660  178.1910  141.3190 C   0  0  0  0  0  3  0  0  0  0  0  0
  185.1730  179.3350  142.5460 C   0  0  0  0  0  2  0  0  0  0  0  0
  188.0180  178.1960  139.0890 C   0  0  0  0  0  2  0  0  0  0  0  0
  188.0760  177.0770  143.4960 C   0  0  0  0  0  0  0  0  0  0  0  0
  189.1110  176.6120  142.7600 N   0  0  0  0  0  2  0  0  0  0  0  0
  183.4070  178.9640  144.8650 O   0  0  0  0  0  0  0  0  0  0  0  0
  187.3070  178.5020  140.3850 C   0  0  0  0  0  3  0  0  0  0  0  0
  183.0260  178.5930  143.6010 O   0  0  0  0  0  0  0  0  0  0  0  0
  185.8300  178.2100  144.7110 C   0  0  0  0  0  0  0  0  0  0  0  0
  183.8640  179.5750  139.3230 C   0  0  0  0  0  1  0  0  0  0  0  0
  184.1090  178.2480  140.0210 C   0  0  2  0  0  3  0  0  0  0  0  0
  183.7080  177.1140  139.1380 C   0  0  0  0  0  0  0  0  0  0  0  0
  184.3240  176.9580  137.9030 O   0  0  0  0  0  0  0  0  0  0  0  0
  182.8180  176.2990  139.5010 O   0  0  0  0  0  1  0  0  0  0  0  0
  1  2  2  0  0  0  0
  1 15  1  0  0  0  0
  2 20  1  0  0  0  0
  3  7  1  0  0  0  0
  4  8  1  0  0  0  0
  4  1  1  0  0  0  0
  5 13  1  0  0  0  0
  5 19  1  0  0  0  0
  6  9  1  0  0  0  0
  8 16  1  0  0  0  0
  9  8  2  0  0  0  0
 10 11  2  0  0  0  0
 12  5  2  0  0  0  0
 13  2  1  0  0  0  0
 14  6  1  0  0  0  0
 14 18  1  0  0  0  0
 15  3  2  0  0  0  0
 16 15  1  0  0  0  0
 17 10  1  0  0  0  0
 18  4  2  0  0  0  0
 19 17  1  0  0  0  0
 20 10  1  0  0  0  0
 20  7  2  0  0  0  0
 22 21  1  6  0  0  0
 22 12  1  0  0  0  0
 23 25  1  0  0  0  0
 23 22  1  0  0  0  0
 24 23  2  0  0  0  0
M  END
>  <MODEL>
3

>  <REMARK>
 VINA RESULT:      -8.6      3.141      5.221
  Name = 
  2 active torsions:
  status: ('A' for Active; 'I' for Inactive)
    1  A    between atoms: C_2  and  C_25
    2  A    between atoms: C_15  and  C_25
                            x       y       z     vdW  Elec       q    Type
                         _______ _______ _______ _____ _____    ______ ____

>  <TORSDO>
F 2

$$$$
=
 OpenBabel11052412533D

 25 28  0  0  1  0  0  0  0  0999 V2000
  186.9940  177.8890  143.2380 C   0  0  0  0  0  0  0  0  0  0  0  0
  185.9830  177.9310  144.2070 C   0  0  0  0  0  0  0  0  0  0  0  0
  185.7780  179.3580  141.7540 C   0  0  0  0  0  3  0  0  0  0  0  0
  188.2150  177.2550  143.1880 C   0  0  0  0  0  0  0  0  0  0  0  0
  186.1310  178.1290  146.6200 C   0  0  0  0  0  0  0  0  0  0  0  0
  190.5690  176.0270  142.2930 C   0  0  0  0  0  2  0  0  0  0  0  0
  184.7420  179.4030  142.7000 C   0  0  0  0  0  3  0  0  0  0  0  0
  188.7660  177.5920  141.9710 C   0  0  0  0  0  0  0  0  0  0  0  0
  189.8850  177.0930  141.5410 N   0  0  0  0  0  0  0  0  0  0  0  0
  183.6850  178.7710  144.8590 C   0  0  0  0  0  0  0  0  0  0  0  0
  182.5240  178.8200  144.3730 O   0  0  0  0  0  0  0  0  0  0  0  0
  187.2380  178.3170  147.3420 C   0  0  0  0  0  3  0  0  0  0  0  0
  186.0990  177.1670  145.4810 C   0  0  0  0  0  2  0  0  0  0  0  0
  190.2710  176.0980  143.8080 C   0  0  0  0  0  2  0  0  0  0  0  0
  186.9000  178.5940  142.0530 C   0  0  0  0  0  0  0  0  0  0  0  0
  187.9810  178.4300  141.2580 N   0  0  0  0  0  2  0  0  0  0  0  0
  183.8150  178.8460  146.2550 O   0  0  0  0  0  0  0  0  0  0  0  0
  188.8410  176.4960  144.0850 C   0  0  0  0  0  3  0  0  0  0  0  0
  184.9900  178.8560  146.9620 O   0  0  0  0  0  0  0  0  0  0  0  0
  184.8340  178.7080  143.9300 C   0  0  0  0  0  0  0  0  0  0  0  0
  188.3460  176.0990  147.3550 C   0  0  0  0  0  1  0  0  0  0  0  0
  188.5230  177.5870  147.1060 C   0  0  2  0  0  3  0  0  0  0  0  0
  189.6040  178.1360  147.9770 C   0  0  0  0  0  0  0  0  0  0  0  0
  190.8870  177.6130  147.8850 O   0  0  0  0  0  0  0  0  0  0  0  0
  189.3640  179.0660  148.7930 O   0  0  0  0  0  1  0  0  0  0  0  0
  1  2  1  0  0  0  0
  2 13  1  0  0  0  0
  3 15  1  0  0  0  0
  3  7  2  0  0  0  0
  4  1  1  0  0  0  0
  4 18  2  0  0  0  0
  5 19  1  0  0  0  0
  5 12  2  0  0  0  0
  6 14  1  0  0  0  0
  7 20  1  0  0  0  0
  8  4  1  0  0  0  0
  9  8  2  0  0  0  0
  9  6  1  0  0  0  0
 10 17  1  0  0  0  0
 11 10  2  0  0  0  0
 13  5  1  0  0  0  0
 14 18  1  0  0  0  0
 15  1  2  0  0  0  0
 16  8  1  0  0  0  0
 16 15  1  0  0  0  0
 17 19  1  0  0  0  0
 20  2  2  0  0  0  0
 20 10  1  0  0  0  0
 22 12  1  0  0  0  0
 22 21  1  1  0  0  0
 22 23  1  0  0  0  0
 23 25  1  0  0  0  0
 24 23  2  0  0  0  0
M  END
>  <MODEL>
4

>  <REMARK>
 VINA RESULT:      -8.0      2.023      2.976
  Name = 
  2 active torsions:
  status: ('A' for Active; 'I' for Inactive)
    1  A    between atoms: C_2  and  C_25
    2  A    between atoms: C_15  and  C_25
                            x       y       z     vdW  Elec       q    Type
                         _______ _______ _______ _____ _____    ______ ____

>  <TORSDO>
F 2

$$$$
=
 OpenBabel11052412533D

 25 28  0  0  1  0  0  0  0  0999 V2000
  187.4900  177.8920  146.1310 C   0  0  0  0  0  0  0  0  0  0  0  0
  188.7120  177.2590  145.8610 C   0  0  0  0  0  0  0  0  0  0  0  0
  188.1920  178.5300  148.3530 C   0  0  0  0  0  3  0  0  0  0  0  0
  186.3500  178.0790  145.3840 C   0  0  0  0  0  0  0  0  0  0  0  0
  190.0820  177.2850  143.8610 C   0  0  0  0  0  0  0  0  0  0  0  0
  183.6950  178.5060  144.5970 C   0  0  0  0  0  2  0  0  0  0  0  0
  189.4170  177.8870  148.1170 C   0  0  0  0  0  3  0  0  0  0  0  0
  185.4810  178.7790  146.1900 C   0  0  0  0  0  0  0  0  0  0  0  0
  184.2590  179.0530  145.8430 N   0  0  0  0  0  0  0  0  0  0  0  0
  190.9920  176.5700  146.7160 C   0  0  0  0  0  0  0  0  0  0  0  0
  191.4910  175.9900  147.7180 O   0  0  0  0  0  0  0  0  0  0  0  0
  189.8750  178.0040  142.7560 C   0  0  0  0  0  3  0  0  0  0  0  0
  188.9630  176.5870  144.5560 C   0  0  0  0  0  2  0  0  0  0  0  0
  184.7800  178.2540  143.5250 C   0  0  0  0  0  2  0  0  0  0  0  0
  187.2450  178.5220  147.3360 C   0  0  0  0  0  0  0  0  0  0  0  0
  186.0140  179.0790  147.3950 N   0  0  0  0  0  2  0  0  0  0  0  0
  191.7370  176.5780  145.5260 O   0  0  0  0  0  0  0  0  0  0  0  0
  186.0620  177.7360  144.1300 C   0  0  0  0  0  3  0  0  0  0  0  0
  191.3850  177.1930  144.3520 O   0  0  0  0  0  0  0  0  0  0  0  0
  189.6950  177.2610  146.8780 C   0  0  0  0  0  0  0  0  0  0  0  0
  187.7070  176.9050  142.2680 C   0  0  0  0  0  1  0  0  0  0  0  0
  188.5380  178.1670  142.1030 C   0  0  2  0  0  3  0  0  0  0  0  0
  188.6980  178.4990  140.6580 C   0  0  0  0  0  0  0  0  0  0  0  0
  189.9110  178.2500  140.0290 O   0  0  0  0  0  1  0  0  0  0  0  0
  187.7460  179.0030  140.0030 O   0  0  0  0  0  0  0  0  0  0  0  0
  1 15  1  0  0  0  0
  2  1  2  0  0  0  0
  2 20  1  0  0  0  0
  4  1  1  0  0  0  0
  4  8  1  0  0  0  0
  5 19  1  0  0  0  0
  5 13  1  0  0  0  0
  6  9  1  0  0  0  0
  7  3  1  0  0  0  0
  8 16  1  0  0  0  0
  9  8  2  0  0  0  0
 10 20  1  0  0  0  0
 10 11  2  0  0  0  0
 12  5  2  0  0  0  0
 13  2  1  0  0  0  0
 14 18  1  0  0  0  0
 14  6  1  0  0  0  0
 15 16  1  0  0  0  0
 15  3  2  0  0  0  0
 17 10  1  0  0  0  0
 18  4  2  0  0  0  0
 19 17  1  0  0  0  0
 20  7  2  0  0  0  0
 22 21  1  6  0  0  0
 22 12  1  0  0  0  0
 23 22  1  0  0  0  0
 24 23  1  0  0  0  0
 25 23  2  0  0  0  0
M  END
>  <MODEL>
5

>  <REMARK>
 VINA RESULT:      -8.0      3.000      4.998
  Name = 
  2 active torsions:
  status: ('A' for Active; 'I' for Inactive)
    1  A    between atoms: C_2  and  C_25
    2  A    between atoms: C_15  and  C_25
                            x       y       z     vdW  Elec       q    Type
                         _______ _______ _______ _____ _____    ______ ____

>  <TORSDO>
F 2

$$$$
=
 OpenBabel11052412533D

 25 28  0  0  1  0  0  0  0  0999 V2000
  186.9270  178.2200  143.7810 C   0  0  0  0  0  0  0  0  0  0  0  0
  187.0030  178.5730  142.4260 C   0  0  0  0  0  0  0  0  0  0  0  0
  184.5360  177.8870  143.6680 C   0  0  0  0  0  3  0  0  0  0  0  0
  187.8760  178.1000  144.7700 C   0  0  0  0  0  0  0  0  0  0  0  0
  188.6210  177.9460  140.7320 C   0  0  0  0  0  0  0  0  0  0  0  0
  189.1690  178.0010  147.2540 C   0  0  0  0  0  2  0  0  0  0  0  0
  184.5810  178.2550  142.3140 C   0  0  0  0  0  3  0  0  0  0  0  0
  187.1940  177.7190  145.9040 C   0  0  0  0  0  0  0  0  0  0  0  0
  187.7640  177.6010  147.0650 N   0  0  0  0  0  0  0  0  0  0  0  0
  185.7650  179.0030  140.2600 C   0  0  0  0  0  0  0  0  0  0  0  0
  184.7700  179.6610  139.8550 O   0  0  0  0  0  0  0  0  0  0  0  0
  189.6310  177.0840  140.8680 C   0  0  0  0  0  3  0  0  0  0  0  0
  188.3000  178.9420  141.7950 C   0  0  0  0  0  2  0  0  0  0  0  0
  189.9950  177.8620  145.9550 C   0  0  0  0  0  2  0  0  0  0  0  0
  185.7300  177.8730  144.3780 C   0  0  0  0  0  0  0  0  0  0  0  0
  185.8700  177.5560  145.6860 N   0  0  0  0  0  2  0  0  0  0  0  0
  186.7450  178.6500  139.3190 O   0  0  0  0  0  0  0  0  0  0  0  0
  189.1980  178.2530  144.7340 C   0  0  0  0  0  3  0  0  0  0  0  0
  187.8680  177.9000  139.5590 O   0  0  0  0  0  0  0  0  0  0  0  0
  185.8020  178.5870  141.6790 C   0  0  0  0  0  0  0  0  0  0  0  0
  191.9900  177.1260  141.6270 C   0  0  0  0  0  1  0  0  0  0  0  0
  190.5360  177.0380  142.0580 C   0  0  2  0  0  3  0  0  0  0  0  0
  190.3010  175.7940  142.8470 C   0  0  0  0  0  0  0  0  0  0  0  0
  191.3390  175.2520  143.5930 O   0  0  0  0  0  1  0  0  0  0  0  0
  189.1740  175.2320  142.8440 O   0  0  0  0  0  0  0  0  0  0  0  0
  1 15  1  0  0  0  0
  1  4  1  0  0  0  0
  2  1  2  0  0  0  0
  3 15  2  0  0  0  0
  4  8  1  0  0  0  0
  5 12  2  0  0  0  0
  5 13  1  0  0  0  0
  7  3  1  0  0  0  0
  8  9  2  0  0  0  0
  9  6  1  0  0  0  0
 10 20  1  0  0  0  0
 11 10  2  0  0  0  0
 12 22  1  0  0  0  0
 13  2  1  0  0  0  0
 14  6  1  0  0  0  0
 15 16  1  0  0  0  0
 16  8  1  0  0  0  0
 17 19  1  0  0  0  0
 17 10  1  0  0  0  0
 18  4  2  0  0  0  0
 18 14  1  0  0  0  0
 19  5  1  0  0  0  0
 20  7  2  0  0  0  0
 20  2  1  0  0  0  0
 22 21  1  6  0  0  0
 22 23  1  0  0  0  0
 23 24  1  0  0  0  0
 25 23  2  0  0  0  0
M  END
>  <MODEL>
6

>  <REMARK>
 VINA RESULT:      -7.7      3.185      4.883
  Name = 
  2 active torsions:
  status: ('A' for Active; 'I' for Inactive)
    1  A    between atoms: C_2  and  C_25
    2  A    between atoms: C_15  and  C_25
                            x       y       z     vdW  Elec       q    Type
                         _______ _______ _______ _____ _____    ______ ____

>  <TORSDO>
F 2

$$$$
=
 OpenBabel11052412533D

 25 28  0  0  1  0  0  0  0  0999 V2000
  187.4840  178.0160  144.5630 C   0  0  0  0  0  0  0  0  0  0  0  0
  188.1510  178.0660  143.3310 C   0  0  0  0  0  0  0  0  0  0  0  0
  185.3170  177.8870  143.5020 C   0  0  0  0  0  3  0  0  0  0  0  0
  187.9260  178.0210  145.8670 C   0  0  0  0  0  0  0  0  0  0  0  0
  190.1770  176.9500  142.6000 C   0  0  0  0  0  0  0  0  0  0  0  0
  188.0870  178.3310  148.6460 C   0  0  0  0  0  2  0  0  0  0  0  0
  185.9590  177.9550  142.2550 C   0  0  0  0  0  3  0  0  0  0  0  0
  186.7950  177.9530  146.6490 C   0  0  0  0  0  0  0  0  0  0  0  0
  186.8270  178.0320  147.9450 N   0  0  0  0  0  0  0  0  0  0  0  0
  187.9710  178.1400  140.8080 C   0  0  0  0  0  0  0  0  0  0  0  0
  187.3480  178.7860  139.9230 O   0  0  0  0  0  0  0  0  0  0  0  0
  190.8850  176.0480  143.2810 C   0  0  0  0  0  3  0  0  0  0  0  0
  189.6350  178.1740  143.2600 C   0  0  0  0  0  2  0  0  0  0  0  0
  189.3240  177.8460  147.8570 C   0  0  0  0  0  2  0  0  0  0  0  0
  186.1080  177.9140  144.6440 C   0  0  0  0  0  0  0  0  0  0  0  0
  185.6610  177.8700  145.9190 N   0  0  0  0  0  2  0  0  0  0  0  0
  189.1680  177.5080  140.4360 O   0  0  0  0  0  0  0  0  0  0  0  0
  189.1580  178.0420  146.3700 C   0  0  0  0  0  3  0  0  0  0  0  0
  189.9570  176.7260  141.2410 O   0  0  0  0  0  0  0  0  0  0  0  0
  187.3680  178.0320  142.1540 C   0  0  0  0  0  0  0  0  0  0  0  0
  191.9200  177.4920  145.0090 C   0  0  0  0  0  1  0  0  0  0  0  0
  191.2200  176.1720  144.7340 C   0  0  2  0  0  3  0  0  0  0  0  0
  192.0730  175.0290  145.1750 C   0  0  0  0  0  0  0  0  0  0  0  0
  192.4780  174.9510  146.5010 O   0  0  0  0  0  1  0  0  0  0  0  0
  192.4270  174.1370  144.3580 O   0  0  0  0  0  0  0  0  0  0  0  0
  1 15  1  0  0  0  0
  1  4  1  0  0  0  0
  2  1  2  0  0  0  0
  3 15  2  0  0  0  0
  4 18  2  0  0  0  0
  4  8  1  0  0  0  0
  5 13  1  0  0  0  0
  5 12  2  0  0  0  0
  7  3  1  0  0  0  0
  8  9  2  0  0  0  0
  9  6  1  0  0  0  0
 10 20  1  0  0  0  0
 11 10  2  0  0  0  0
 12 22  1  0  0  0  0
 13  2  1  0  0  0  0
 14  6  1  0  0  0  0
 15 16  1  0  0  0  0
 16  8  1  0  0  0  0
 17 10  1  0  0  0  0
 17 19  1  0  0  0  0
 18 14  1  0  0  0  0
 19  5  1  0  0  0  0
 20  7  2  0  0  0  0
 20  2  1  0  0  0  0
 22 21  1  6  0  0  0
 22 23  1  0  0  0  0
 23 24  1  0  0  0  0
 25 23  2  0  0  0  0
M  END
>  <MODEL>
7

>  <REMARK>
 VINA RESULT:      -7.4      3.263      5.125
  Name = 
  2 active torsions:
  status: ('A' for Active; 'I' for Inactive)
    1  A    between atoms: C_2  and  C_25
    2  A    between atoms: C_15  and  C_25
                            x       y       z     vdW  Elec       q    Type
                         _______ _______ _______ _____ _____    ______ ____

>  <TORSDO>
F 2

$$$$
=
 OpenBabel11052412533D

 25 28  0  0  1  0  0  0  0  0999 V2000
  185.9790  178.1460  144.7170 C   0  0  0  0  0  0  0  0  0  0  0  0
  187.1740  177.5110  145.0840 C   0  0  0  0  0  0  0  0  0  0  0  0
  185.7880  179.2500  146.8580 C   0  0  0  0  0  3  0  0  0  0  0  0
  185.2330  178.1390  143.5600 C   0  0  0  0  0  0  0  0  0  0  0  0
  189.2170  177.1680  143.8240 C   0  0  0  0  0  0  0  0  0  0  0  0
  183.1250  178.3110  141.7240 C   0  0  0  0  0  2  0  0  0  0  0  0
  186.9720  178.6110  147.2580 C   0  0  0  0  0  3  0  0  0  0  0  0
  184.1560  178.9620  143.8000 C   0  0  0  0  0  0  0  0  0  0  0  0
  183.1850  179.1200  142.9520 N   0  0  0  0  0  0  0  0  0  0  0  0
  188.8980  177.0850  146.8870 C   0  0  0  0  0  0  0  0  0  0  0  0
  188.9340  176.7400  148.0980 O   0  0  0  0  0  0  0  0  0  0  0  0
  189.4970  177.6370  142.6060 C   0  0  0  0  0  3  0  0  0  0  0  0
  187.8800  176.5920  144.1470 C   0  0  0  0  0  2  0  0  0  0  0  0
  184.5280  177.8780  141.2400 C   0  0  0  0  0  2  0  0  0  0  0  0
  185.3150  179.0020  145.5750 C   0  0  0  0  0  0  0  0  0  0  0  0
  184.1910  179.5210  145.0300 N   0  0  0  0  0  2  0  0  0  0  0  0
  190.0480  176.8710  146.1110 O   0  0  0  0  0  0  0  0  0  0  0  0
  185.4420  177.5360  142.3920 C   0  0  0  0  0  3  0  0  0  0  0  0
  190.2170  177.2210  144.7950 O   0  0  0  0  0  0  0  0  0  0  0  0
  187.6790  177.7530  146.3820 C   0  0  0  0  0  0  0  0  0  0  0  0
  189.0560  176.7430  140.3370 C   0  0  0  0  0  1  0  0  0  0  0  0
  188.5330  177.6190  141.4620 C   0  0  2  0  0  3  0  0  0  0  0  0
  188.2800  179.0050  140.9680 C   0  0  0  0  0  0  0  0  0  0  0  0
  188.6810  179.3560  139.6850 O   0  0  0  0  0  0  0  0  0  0  0  0
  187.7100  179.8560  141.7010 O   0  0  0  0  0  1  0  0  0  0  0  0
  1  2  2  0  0  0  0
  1 15  1  0  0  0  0
  2 20  1  0  0  0  0
  3  7  1  0  0  0  0
  4  8  1  0  0  0  0
  4  1  1  0  0  0  0
  5 13  1  0  0  0  0
  5 19  1  0  0  0  0
  6  9  1  0  0  0  0
  8 16  1  0  0  0  0
  9  8  2  0  0  0  0
 10 11  2  0  0  0  0
 12  5  2  0  0  0  0
 13  2  1  0  0  0  0
 14  6  1  0  0  0  0
 14 18  1  0  0  0  0
 15  3  2  0  0  0  0
 16 15  1  0  0  0  0
 17 10  1  0  0  0  0
 18  4  2  0  0  0  0
 19 17  1  0  0  0  0
 20 10  1  0  0  0  0
 20  7  2  0  0  0  0
 22 21  1  6  0  0  0
 22 12  1  0  0  0  0
 23 22  1  0  0  0  0
 23 25  1  0  0  0  0
 24 23  2  0  0  0  0
M  END
>  <MODEL>
8

>  <REMARK>
 VINA RESULT:      -6.8      2.279      3.847
  Name = 
  2 active torsions:
  status: ('A' for Active; 'I' for Inactive)
    1  A    between atoms: C_2  and  C_25
    2  A    between atoms: C_15  and  C_25
                            x       y       z     vdW  Elec       q    Type
                         _______ _______ _______ _____ _____    ______ ____

>  <TORSDO>
F 2

$$$$
=
 OpenBabel11052412533D

 25 28  0  0  1  0  0  0  0  0999 V2000
  187.6330  178.0060  145.5730 C   0  0  0  0  0  0  0  0  0  0  0  0
  186.9410  178.6000  144.5080 C   0  0  0  0  0  0  0  0  0  0  0  0
  185.6120  177.7370  146.8710 C   0  0  0  0  0  3  0  0  0  0  0  0
  188.9580  177.6920  145.7680 C   0  0  0  0  0  0  0  0  0  0  0  0
  187.1660  178.2700  142.1160 C   0  0  0  0  0  0  0  0  0  0  0  0
  191.4390  177.1190  146.9380 C   0  0  0  0  0  2  0  0  0  0  0  0
  184.8980  178.3460  145.8270 C   0  0  0  0  0  3  0  0  0  0  0  0
  189.0310  177.1200  147.0180 C   0  0  0  0  0  0  0  0  0  0  0  0
  190.1550  176.7830  147.5760 N   0  0  0  0  0  0  0  0  0  0  0  0
  184.7330  179.4390  143.6010 C   0  0  0  0  0  0  0  0  0  0  0  0
  183.7780  180.1760  143.9680 O   0  0  0  0  0  0  0  0  0  0  0  0
  187.9480  177.3820  141.4990 C   0  0  0  0  0  3  0  0  0  0  0  0
  187.6550  179.0590  143.2830 C   0  0  0  0  0  2  0  0  0  0  0  0
  191.3200  177.2070  145.3990 C   0  0  0  0  0  2  0  0  0  0  0  0
  186.9830  177.5750  146.7140 C   0  0  0  0  0  0  0  0  0  0  0  0
  187.8240  177.0210  147.6170 N   0  0  0  0  0  2  0  0  0  0  0  0
  184.9210  179.2500  142.2230 O   0  0  0  0  0  0  0  0  0  0  0  0
  190.0140  177.8280  144.9680 C   0  0  0  0  0  3  0  0  0  0  0  0
  185.8690  178.4520  141.6350 O   0  0  0  0  0  0  0  0  0  0  0  0
  185.5440  178.7700  144.6410 C   0  0  0  0  0  0  0  0  0  0  0  0
  190.2580  177.0560  140.6600 C   0  0  0  0  0  1  0  0  0  0  0  0
  189.3660  177.1050  141.8890 C   0  0  2  0  0  3  0  0  0  0  0  0
  189.4590  175.8240  142.6500 C   0  0  0  0  0  0  0  0  0  0  0  0
  188.3210  175.3030  143.2520 O   0  0  0  0  0  1  0  0  0  0  0  0
  190.5560  175.2130  142.7510 O   0  0  0  0  0  0  0  0  0  0  0  0
  1  4  1  0  0  0  0
  1 15  1  0  0  0  0
  2 20  1  0  0  0  0
  2  1  2  0  0  0  0
  4  8  1  0  0  0  0
  5 13  1  0  0  0  0
  6  9  1  0  0  0  0
  7  3  1  0  0  0  0
  8  9  2  0  0  0  0
  8 16  1  0  0  0  0
 10 11  2  0  0  0  0
 10 20  1  0  0  0  0
 12 22  1  0  0  0  0
 12  5  2  0  0  0  0
 13  2  1  0  0  0  0
 14  6  1  0  0  0  0
 15  3  2  0  0  0  0
 15 16  1  0  0  0  0
 17 10  1  0  0  0  0
 18 14  1  0  0  0  0
 18  4  2  0  0  0  0
 19  5  1  0  0  0  0
 19 17  1  0  0  0  0
 20  7  2  0  0  0  0
 22 21  1  6  0  0  0
 22 23  1  0  0  0  0
 23 25  2  0  0  0  0
 23 24  1  0  0  0  0
M  END
>  <MODEL>
9

>  <REMARK>
 VINA RESULT:      -6.8      3.130      4.759
  Name = 
  2 active torsions:
  status: ('A' for Active; 'I' for Inactive)
    1  A    between atoms: C_2  and  C_25
    2  A    between atoms: C_15  and  C_25
                            x       y       z     vdW  Elec       q    Type
                         _______ _______ _______ _____ _____    ______ ____

>  <TORSDO>
F 2

$$$$
