=
 OpenBabel11052415433D

 34 36  0  0  1  0  0  0  0  0999 V2000
  184.7590  178.6300  138.2790 C   0  0  0  0  0  2  0  0  0  0  0  0
  185.1070  178.9100  140.7500 C   0  0  0  0  0  0  0  0  0  0  0  0
  182.5670  178.4870  143.5750 C   0  0  0  0  0  2  0  0  0  0  0  0
  182.4410  177.9950  141.1350 C   0  0  0  0  0  3  0  0  0  0  0  0
  186.2570  179.3850  140.5400 O   0  0  0  0  0  0  0  0  0  0  0  0
  182.9900  177.8890  139.9200 C   0  0  0  0  0  0  0  0  0  0  0  0
  184.2810  178.4800  139.6520 N   0  0  0  0  0  0  0  0  0  0  0  0
  183.1840  179.4290  144.6130 C   0  0  0  0  0  2  0  0  0  0  0  0
  184.7170  179.3990  144.5770 C   0  0  2  0  0  3  0  0  0  0  0  0
  183.0930  178.8370  142.1890 C   0  0  2  0  0  3  0  0  0  0  0  0
  185.2420  179.6630  143.1580 C   0  0  0  0  0  2  0  0  0  0  0  0
  184.6170  178.6910  142.1540 C   0  0  2  0  0  3  0  0  0  0  0  0
  182.6420  175.6100  139.0400 C   0  0  0  0  0  1  0  0  0  0  0  0
  182.2860  177.0750  138.8830 C   0  0  0  0  0  2  0  0  0  0  0  0
  185.2460  178.0850  145.1440 C   0  0  0  0  0  2  0  0  0  0  0  0
  185.6440  179.3730  147.2420 O   0  0  0  0  0  1  0  0  0  0  0  0
  186.9600  177.5700  146.7180 O   0  0  0  0  0  0  0  0  0  0  0  0
  185.9930  178.3160  146.4130 C   0  0  0  0  0  0  0  0  0  0  0  0
  185.6920  177.4850  137.9100 C   0  0  0  0  0  2  0  0  0  0  0  0
  187.4150  174.3930  136.7120 O   0  0  0  0  0  0  0  0  0  0  0  0
  188.9900  178.4230  136.9140 C   0  0  0  0  0  2  0  0  0  0  0  0
  186.4760  177.7920  136.6370 C   0  0  2  0  0  3  0  0  0  0  0  0
  189.1360  175.9220  137.2790 C   0  0  0  0  0  2  0  0  0  0  0  0
  186.9880  176.5670  136.0290 N   0  0  0  0  0  2  0  0  0  0  0  0
  189.2690  177.3040  137.9170 C   0  0  2  0  0  3  0  0  0  0  0  0
  187.5320  178.8840  136.8510 C   0  0  0  0  0  2  0  0  0  0  0  0
  187.7860  175.5950  136.7130 C   0  0  0  0  0  0  0  0  0  0  0  0
  188.5460  177.4640  139.2540 C   0  0  0  0  0  2  0  0  0  0  0  0
  189.5070  177.8380  140.3750 C   0  0  0  0  0  2  0  0  0  0  0  0
  189.2800  176.9680  141.6090 C   0  0  2  0  0  3  0  0  0  0  0  0
  188.4430  177.7070  142.6390 C   0  0  0  0  0  1  0  0  0  0  0  0
  190.4350  176.1740  143.5720 O   0  0  0  0  0  1  0  0  0  0  0  0
  190.5990  176.5140  142.2270 C   0  0  0  0  0  3  0  0  0  0  0  0
  191.5570  177.5210  142.1100 O   0  0  0  0  0  1  0  0  0  0  0  0
  1  7  1  0  0  0  0
  2 12  1  0  0  0  0
  3  8  1  0  0  0  0
  5  2  2  0  0  0  0
  6  4  2  0  0  0  0
  7  6  1  0  0  0  0
  7  2  1  0  0  0  0
  9  8  1  0  0  0  0
  9 15  1  6  0  0  0
 10  4  1  6  0  0  0
 10  3  1  0  0  0  0
 11  9  1  0  0  0  0
 12 10  1  0  0  0  0
 12 11  1  1  0  0  0
 14 13  1  0  0  0  0
 14  6  1  0  0  0  0
 15 18  1  0  0  0  0
 18 17  2  0  0  0  0
 18 16  1  0  0  0  0
 19  1  1  0  0  0  0
 20 27  2  0  0  0  0
 21 25  1  0  0  0  0
 22 26  1  0  0  0  0
 22 19  1  1  0  0  0
 23 25  1  0  0  0  0
 24 22  1  0  0  0  0
 24 27  1  0  0  0  0
 25 28  1  1  0  0  0
 26 21  1  0  0  0  0
 27 23  1  0  0  0  0
 28 29  1  0  0  0  0
 29 30  1  0  0  0  0
 30 33  1  0  0  0  0
 30 31  1  1  0  0  0
 33 32  1  0  0  0  0
 34 33  1  0  0  0  0
M  END
>  <MODEL>
1

>  <REMARK>
 VINA RESULT:      -7.2      0.000      0.000
  Name = 
  10 active torsions:
  status: ('A' for Active; 'I' for Inactive)
    1  A    between atoms: C_7  and  C_15
    2  A    between atoms: C_7  and  C_29
    3  A    between atoms: C_8  and  C_17
    4  A    between atoms: C_10  and  C_17
    5  A    between atoms: C_10  and  N_20
    6  A    between atoms: C_19  and  C_22
    7  A    between atoms: C_24  and  C_25
    8  A    between atoms: C_25  and  C_27
    9  A    between atoms: C_26  and  C_28
   10  A    between atoms: C_26  and  C_29
                            x       y       z     vdW  Elec       q    Type
                         _______ _______ _______ _____ _____    ______ ____

>  <TORSDO>
F 10

$$$$
=
 OpenBabel11052415433D

 34 36  0  0  1  0  0  0  0  0999 V2000
  188.5070  178.2610  138.8020 C   0  0  0  0  0  2  0  0  0  0  0  0
  187.2150  178.3930  140.9520 C   0  0  0  0  0  0  0  0  0  0  0  0
  188.1010  176.8970  144.3560 C   0  0  0  0  0  2  0  0  0  0  0  0
  189.3880  177.0730  142.2290 C   0  0  0  0  0  3  0  0  0  0  0  0
  186.2390  178.9060  140.3400 O   0  0  0  0  0  0  0  0  0  0  0  0
  189.5490  177.5150  140.9770 C   0  0  0  0  0  0  0  0  0  0  0  0
  188.4230  178.0510  140.2460 N   0  0  0  0  0  0  0  0  0  0  0  0
  186.6930  176.7360  144.9360 C   0  0  0  0  0  2  0  0  0  0  0  0
  185.7620  177.8770  144.5100 C   0  0  2  0  0  3  0  0  0  0  0  0
  188.0210  177.0060  142.8390 C   0  0  2  0  0  3  0  0  0  0  0  0
  185.7540  178.0440  142.9820 C   0  0  0  0  0  2  0  0  0  0  0  0
  187.1760  178.2210  142.4450 C   0  0  2  0  0  3  0  0  0  0  0  0
  191.9610  177.4760  141.4930 C   0  0  0  0  0  1  0  0  0  0  0  0
  190.9220  177.5250  140.3900 C   0  0  0  0  0  2  0  0  0  0  0  0
  186.1360  179.1740  145.2210 C   0  0  0  0  0  2  0  0  0  0  0  0
  186.1020  180.0310  147.5630 O   0  0  0  0  0  1  0  0  0  0  0  0
  184.5340  178.5130  146.8580 O   0  0  0  0  0  0  0  0  0  0  0  0
  185.5360  179.2240  146.5850 C   0  0  0  0  0  0  0  0  0  0  0  0
  187.8110  177.1310  138.0550 C   0  0  0  0  0  2  0  0  0  0  0  0
  186.6350  174.0660  136.2720 O   0  0  0  0  0  0  0  0  0  0  0  0
  189.9090  176.6900  135.2010 C   0  0  0  0  0  2  0  0  0  0  0  0
  187.7910  177.3860  136.5520 C   0  0  2  0  0  3  0  0  0  0  0  0
  188.8730  174.4110  135.5710 C   0  0  0  0  0  2  0  0  0  0  0  0
  187.1420  176.2860  135.8420 N   0  0  0  0  0  2  0  0  0  0  0  0
  190.0410  175.3390  135.9010 C   0  0  2  0  0  3  0  0  0  0  0  0
  189.1730  177.7650  136.0040 C   0  0  0  0  0  2  0  0  0  0  0  0
  187.5150  174.9100  135.9660 C   0  0  0  0  0  0  0  0  0  0  0  0
  190.3840  175.4320  137.3880 C   0  0  0  0  0  2  0  0  0  0  0  0
  191.6700  174.6860  137.7190 C   0  0  0  0  0  2  0  0  0  0  0  0
  192.7460  174.9470  136.6680 C   0  0  2  0  0  3  0  0  0  0  0  0
  193.2360  173.6400  136.0680 C   0  0  0  0  0  1  0  0  0  0  0  0
  193.4840  176.6500  138.2070 O   0  0  0  0  0  1  0  0  0  0  0  0
  193.9170  175.7360  137.2440 C   0  0  0  0  0  3  0  0  0  0  0  0
  194.5910  176.4100  136.2250 O   0  0  0  0  0  1  0  0  0  0  0  0
  1  7  1  0  0  0  0
  2 12  1  0  0  0  0
  3  8  1  0  0  0  0
  5  2  2  0  0  0  0
  6  4  2  0  0  0  0
  7  2  1  0  0  0  0
  7  6  1  0  0  0  0
  9  8  1  0  0  0  0
  9 15  1  1  0  0  0
 10  4  1  6  0  0  0
 10  3  1  0  0  0  0
 11  9  1  0  0  0  0
 12 10  1  0  0  0  0
 12 11  1  6  0  0  0
 14  6  1  0  0  0  0
 14 13  1  0  0  0  0
 15 18  1  0  0  0  0
 18 17  2  0  0  0  0
 18 16  1  0  0  0  0
 19  1  1  0  0  0  0
 21 25  1  0  0  0  0
 21 26  1  0  0  0  0
 22 19  1  1  0  0  0
 23 25  1  0  0  0  0
 23 27  1  0  0  0  0
 24 27  1  0  0  0  0
 24 22  1  0  0  0  0
 25 28  1  1  0  0  0
 26 22  1  0  0  0  0
 27 20  2  0  0  0  0
 28 29  1  0  0  0  0
 30 31  1  1  0  0  0
 30 33  1  0  0  0  0
 30 29  1  0  0  0  0
 33 32  1  0  0  0  0
 34 33  1  0  0  0  0
M  END
>  <MODEL>
2

>  <REMARK>
 VINA RESULT:      -7.0      2.693      4.602
  Name = 
  10 active torsions:
  status: ('A' for Active; 'I' for Inactive)
    1  A    between atoms: C_7  and  C_15
    2  A    between atoms: C_7  and  C_29
    3  A    between atoms: C_8  and  C_17
    4  A    between atoms: C_10  and  C_17
    5  A    between atoms: C_10  and  N_20
    6  A    between atoms: C_19  and  C_22
    7  A    between atoms: C_24  and  C_25
    8  A    between atoms: C_25  and  C_27
    9  A    between atoms: C_26  and  C_28
   10  A    between atoms: C_26  and  C_29
                            x       y       z     vdW  Elec       q    Type
                         _______ _______ _______ _____ _____    ______ ____

>  <TORSDO>
F 10

$$$$
=
 OpenBabel11052415433D

 34 36  0  0  1  0  0  0  0  0999 V2000
  189.4820  178.1350  140.8110 C   0  0  0  0  0  2  0  0  0  0  0  0
  191.1490  177.0750  139.2610 C   0  0  0  0  0  0  0  0  0  0  0  0
  190.4930  174.8590  136.2160 C   0  0  0  0  0  2  0  0  0  0  0  0
  188.9630  176.1800  137.6750 C   0  0  0  0  0  3  0  0  0  0  0  0
  192.0890  177.4200  140.0280 O   0  0  0  0  0  0  0  0  0  0  0  0
  188.7300  177.0590  138.6550 C   0  0  0  0  0  0  0  0  0  0  0  0
  189.7860  177.4170  139.5760 N   0  0  0  0  0  0  0  0  0  0  0  0
  191.7950  174.0540  136.2030 C   0  0  0  0  0  2  0  0  0  0  0  0
  192.9990  174.9010  136.6360 C   0  0  2  0  0  3  0  0  0  0  0  0
  190.2750  175.4600  137.5980 C   0  0  2  0  0  3  0  0  0  0  0  0
  192.7390  175.5790  137.9900 C   0  0  0  0  0  2  0  0  0  0  0  0
  191.4400  176.3880  137.9560 C   0  0  2  0  0  3  0  0  0  0  0  0
  186.7630  177.7630  137.3440 C   0  0  0  0  0  1  0  0  0  0  0  0
  187.3940  177.7220  138.7220 C   0  0  0  0  0  2  0  0  0  0  0  0
  193.3660  175.9120  135.5540 C   0  0  0  0  0  2  0  0  0  0  0  0
  195.0230  177.7750  135.5660 O   0  0  0  0  0  0  0  0  0  0  0  0
  195.6760  175.6370  136.0720 O   0  0  0  0  0  1  0  0  0  0  0  0
  194.7500  176.4280  135.7560 C   0  0  0  0  0  0  0  0  0  0  0  0
  189.9510  177.3380  142.0220 C   0  0  0  0  0  2  0  0  0  0  0  0
  191.8910  174.8950  144.0770 O   0  0  0  0  0  0  0  0  0  0  0  0
  190.5440  178.8550  145.1980 C   0  0  0  0  0  2  0  0  0  0  0  0
  191.0650  178.0640  142.7690 C   0  0  2  0  0  3  0  0  0  0  0  0
  190.8720  176.3810  145.6180 C   0  0  0  0  0  2  0  0  0  0  0  0
  191.9670  177.1150  143.4150 N   0  0  0  0  0  2  0  0  0  0  0  0
  189.8770  177.5400  145.5960 C   0  0  2  0  0  3  0  0  0  0  0  0
  190.5270  179.1600  143.6990 C   0  0  0  0  0  2  0  0  0  0  0  0
  191.5490  176.0820  144.3140 C   0  0  0  0  0  0  0  0  0  0  0  0
  188.5710  177.2490  144.8570 C   0  0  0  0  0  2  0  0  0  0  0  0
  187.3530  177.5640  145.7160 C   0  0  0  0  0  2  0  0  0  0  0  0
  186.1130  177.7840  144.8540 C   0  0  2  0  0  3  0  0  0  0  0  0
  186.4910  177.8810  143.3860 C   0  0  0  0  0  1  0  0  0  0  0  0
  184.4230  178.7280  146.2920 O   0  0  0  0  0  1  0  0  0  0  0  0
  185.3420  179.0290  145.2850 C   0  0  0  0  0  3  0  0  0  0  0  0
  184.6760  179.5850  144.1910 O   0  0  0  0  0  1  0  0  0  0  0  0
  1 19  1  0  0  0  0
  2  7  1  0  0  0  0
  2  5  2  0  0  0  0
  4  6  2  0  0  0  0
  6 14  1  0  0  0  0
  6  7  1  0  0  0  0
  7  1  1  0  0  0  0
  8  3  1  0  0  0  0
  8  9  1  0  0  0  0
  9 15  1  6  0  0  0
  9 11  1  0  0  0  0
 10  3  1  6  0  0  0
 10  4  1  0  0  0  0
 10 12  1  0  0  0  0
 12 11  1  1  0  0  0
 12  2  1  0  0  0  0
 13 14  1  0  0  0  0
 15 18  1  0  0  0  0
 16 18  2  0  0  0  0
 18 17  1  0  0  0  0
 20 27  2  0  0  0  0
 21 25  1  0  0  0  0
 22 19  1  1  0  0  0
 22 24  1  0  0  0  0
 22 26  1  0  0  0  0
 24 27  1  0  0  0  0
 25 28  1  6  0  0  0
 25 23  1  0  0  0  0
 26 21  1  0  0  0  0
 27 23  1  0  0  0  0
 28 29  1  0  0  0  0
 30 31  1  6  0  0  0
 30 33  1  0  0  0  0
 30 29  1  0  0  0  0
 33 32  1  0  0  0  0
 34 33  1  0  0  0  0
M  END
>  <MODEL>
3

>  <REMARK>
 VINA RESULT:      -7.0      3.478      8.726
  Name = 
  10 active torsions:
  status: ('A' for Active; 'I' for Inactive)
    1  A    between atoms: C_7  and  C_15
    2  A    between atoms: C_7  and  C_29
    3  A    between atoms: C_8  and  C_17
    4  A    between atoms: C_10  and  C_17
    5  A    between atoms: C_10  and  N_20
    6  A    between atoms: C_19  and  C_22
    7  A    between atoms: C_24  and  C_25
    8  A    between atoms: C_25  and  C_27
    9  A    between atoms: C_26  and  C_28
   10  A    between atoms: C_26  and  C_29
                            x       y       z     vdW  Elec       q    Type
                         _______ _______ _______ _____ _____    ______ ____

>  <TORSDO>
F 10

$$$$
=
 OpenBabel11052415433D

 34 36  0  0  1  0  0  0  0  0999 V2000
  187.9390  178.6390  141.0570 C   0  0  0  0  0  2  0  0  0  0  0  0
  189.1560  178.0840  143.1820 C   0  0  0  0  0  0  0  0  0  0  0  0
  187.7080  177.4970  146.6710 C   0  0  0  0  0  2  0  0  0  0  0  0
  186.6230  177.7930  144.4460 C   0  0  0  0  0  3  0  0  0  0  0  0
  190.2610  178.2950  142.6110 O   0  0  0  0  0  0  0  0  0  0  0  0
  186.6690  177.9150  143.1150 C   0  0  0  0  0  0  0  0  0  0  0  0
  187.9200  178.2170  142.4560 N   0  0  0  0  0  0  0  0  0  0  0  0
  188.9160  177.9060  147.5180 C   0  0  0  0  0  2  0  0  0  0  0  0
  190.2420  177.5060  146.8600 C   0  0  2  0  0  3  0  0  0  0  0  0
  187.8340  178.0960  145.2770 C   0  0  2  0  0  3  0  0  0  0  0  0
  190.3270  178.0360  145.4200 C   0  0  0  0  0  2  0  0  0  0  0  0
  189.1120  177.5900  144.6020 C   0  0  2  0  0  3  0  0  0  0  0  0
  184.2890  178.5040  142.8400 C   0  0  0  0  0  1  0  0  0  0  0  0
  185.4290  177.6460  142.3270 C   0  0  0  0  0  2  0  0  0  0  0  0
  190.4420  175.9940  146.9220 C   0  0  0  0  0  2  0  0  0  0  0  0
  192.6180  176.1490  148.1320 O   0  0  0  0  0  1  0  0  0  0  0  0
  192.4520  174.9440  146.1890 O   0  0  0  0  0  0  0  0  0  0  0  0
  191.8870  175.6550  147.0600 C   0  0  0  0  0  0  0  0  0  0  0  0
  188.4960  177.5330  140.1720 C   0  0  0  0  0  2  0  0  0  0  0  0
  187.5610  179.4500  137.1040 O   0  0  0  0  0  0  0  0  0  0  0  0
  190.6450  176.4400  137.5390 C   0  0  0  0  0  2  0  0  0  0  0  0
  189.7570  177.9840  139.4420 C   0  0  2  0  0  3  0  0  0  0  0  0
  188.6850  177.5060  136.3430 C   0  0  0  0  0  2  0  0  0  0  0  0
  189.4330  178.9080  138.3590 N   0  0  0  0  0  2  0  0  0  0  0  0
  189.2610  176.2190  136.9290 C   0  0  2  0  0  3  0  0  0  0  0  0
  190.6450  176.8050  139.0250 C   0  0  0  0  0  2  0  0  0  0  0  0
  188.4950  178.6340  137.3130 C   0  0  0  0  0  0  0  0  0  0  0  0
  188.2990  175.4360  137.8230 C   0  0  0  0  0  2  0  0  0  0  0  0
  186.9100  175.3340  137.2060 C   0  0  0  0  0  2  0  0  0  0  0  0
  186.8160  174.1440  136.2540 C   0  0  2  0  0  3  0  0  0  0  0  0
  185.6500  174.3170  135.2950 C   0  0  0  0  0  1  0  0  0  0  0  0
  186.3570  171.7790  136.1470 O   0  0  0  0  0  1  0  0  0  0  0  0
  186.6880  172.8260  137.0110 C   0  0  0  0  0  3  0  0  0  0  0  0
  185.7190  172.9360  138.0090 O   0  0  0  0  0  1  0  0  0  0  0  0
  1  7  1  0  0  0  0
  2 12  1  0  0  0  0
  3  8  1  0  0  0  0
  5  2  2  0  0  0  0
  6  4  2  0  0  0  0
  7  6  1  0  0  0  0
  7  2  1  0  0  0  0
  9 15  1  6  0  0  0
  9  8  1  0  0  0  0
 10  4  1  6  0  0  0
 10  3  1  0  0  0  0
 11  9  1  0  0  0  0
 12 10  1  0  0  0  0
 12 11  1  1  0  0  0
 14 13  1  0  0  0  0
 14  6  1  0  0  0  0
 15 18  1  0  0  0  0
 17 18  2  0  0  0  0
 18 16  1  0  0  0  0
 19  1  1  0  0  0  0
 20 27  2  0  0  0  0
 21 26  1  0  0  0  0
 22 19  1  6  0  0  0
 23 25  1  0  0  0  0
 23 27  1  0  0  0  0
 24 22  1  0  0  0  0
 25 21  1  0  0  0  0
 25 28  1  1  0  0  0
 26 22  1  0  0  0  0
 27 24  1  0  0  0  0
 29 28  1  0  0  0  0
 30 31  1  6  0  0  0
 30 33  1  0  0  0  0
 30 29  1  0  0  0  0
 32 33  1  0  0  0  0
 33 34  1  0  0  0  0
M  END
>  <MODEL>
4

>  <REMARK>
 VINA RESULT:      -6.9      2.817      5.560
  Name = 
  10 active torsions:
  status: ('A' for Active; 'I' for Inactive)
    1  A    between atoms: C_7  and  C_15
    2  A    between atoms: C_7  and  C_29
    3  A    between atoms: C_8  and  C_17
    4  A    between atoms: C_10  and  C_17
    5  A    between atoms: C_10  and  N_20
    6  A    between atoms: C_19  and  C_22
    7  A    between atoms: C_24  and  C_25
    8  A    between atoms: C_25  and  C_27
    9  A    between atoms: C_26  and  C_28
   10  A    between atoms: C_26  and  C_29
                            x       y       z     vdW  Elec       q    Type
                         _______ _______ _______ _____ _____    ______ ____

>  <TORSDO>
F 10

$$$$
=
 OpenBabel11052415433D

 34 36  0  0  1  0  0  0  0  0999 V2000
  187.3300  178.9150  142.5960 C   0  0  0  0  0  2  0  0  0  0  0  0
  185.7880  178.6960  140.6270 C   0  0  0  0  0  0  0  0  0  0  0  0
  182.0470  177.9120  140.6090 C   0  0  0  0  0  2  0  0  0  0  0  0
  183.6340  178.4140  142.4640 C   0  0  0  0  0  3  0  0  0  0  0  0
  186.7740  178.7460  139.8420 O   0  0  0  0  0  0  0  0  0  0  0  0
  184.8300  178.7910  142.9270 C   0  0  0  0  0  0  0  0  0  0  0  0
  185.9800  178.7950  142.0500 N   0  0  0  0  0  0  0  0  0  0  0  0
  181.9300  177.2630  139.2270 C   0  0  0  0  0  2  0  0  0  0  0  0
  182.8620  177.9230  138.2020 C   0  0  2  0  0  3  0  0  0  0  0  0
  183.4960  177.8700  141.0740 C   0  0  2  0  0  3  0  0  0  0  0  0
  184.3100  177.9600  138.7140 C   0  0  0  0  0  2  0  0  0  0  0  0
  184.3850  178.6320  140.0880 C   0  0  2  0  0  3  0  0  0  0  0  0
  183.6880  178.9070  145.1100 C   0  0  0  0  0  1  0  0  0  0  0  0
  184.9330  179.2860  144.3320 C   0  0  0  0  0  2  0  0  0  0  0  0
  182.3550  179.3120  137.8260 C   0  0  0  0  0  2  0  0  0  0  0  0
  179.9000  179.5750  137.4730 O   0  0  0  0  0  1  0  0  0  0  0  0
  181.2390  178.7940  135.7840 O   0  0  0  0  0  0  0  0  0  0  0  0
  181.1420  179.2200  136.9640 C   0  0  0  0  0  0  0  0  0  0  0  0
  188.0760  177.5940  142.4720 C   0  0  0  0  0  2  0  0  0  0  0  0
  190.1270  174.5120  142.9790 O   0  0  0  0  0  0  0  0  0  0  0  0
  191.3460  178.6410  143.4490 C   0  0  0  0  0  2  0  0  0  0  0  0
  189.4610  177.7900  141.8630 C   0  0  2  0  0  3  0  0  0  0  0  0
  191.2130  176.2280  144.2020 C   0  0  0  0  0  2  0  0  0  0  0  0
  190.2140  176.5390  141.8580 N   0  0  0  0  0  2  0  0  0  0  0  0
  190.9690  177.6870  144.5810 C   0  0  2  0  0  3  0  0  0  0  0  0
  190.2090  178.9780  142.4820 C   0  0  0  0  0  2  0  0  0  0  0  0
  190.4450  175.7280  143.0150 C   0  0  0  0  0  0  0  0  0  0  0  0
  189.6020  177.9660  145.2080 C   0  0  0  0  0  2  0  0  0  0  0  0
  189.5490  177.5290  146.6660 C   0  0  0  0  0  2  0  0  0  0  0  0
  188.1350  177.1200  147.0680 C   0  0  2  0  0  3  0  0  0  0  0  0
  187.1740  177.2980  145.9050 C   0  0  0  0  0  1  0  0  0  0  0  0
  186.8220  178.9650  147.8990 O   0  0  0  0  0  1  0  0  0  0  0  0
  187.6460  177.9050  148.2820 C   0  0  0  0  0  3  0  0  0  0  0  0
  188.7320  178.3920  149.0090 O   0  0  0  0  0  1  0  0  0  0  0  0
  2  7  1  0  0  0  0
  4  6  2  0  0  0  0
  5  2  2  0  0  0  0
  6 14  1  0  0  0  0
  7  1  1  0  0  0  0
  7  6  1  0  0  0  0
  8  3  1  0  0  0  0
  9 15  1  1  0  0  0
  9 11  1  0  0  0  0
  9  8  1  0  0  0  0
 10  3  1  6  0  0  0
 10  4  1  0  0  0  0
 12 11  1  6  0  0  0
 12  2  1  0  0  0  0
 12 10  1  0  0  0  0
 14 13  1  0  0  0  0
 17 18  2  0  0  0  0
 18 16  1  0  0  0  0
 18 15  1  0  0  0  0
 19  1  1  0  0  0  0
 20 27  2  0  0  0  0
 21 25  1  0  0  0  0
 22 19  1  1  0  0  0
 22 26  1  0  0  0  0
 23 25  1  0  0  0  0
 24 22  1  0  0  0  0
 24 27  1  0  0  0  0
 25 28  1  6  0  0  0
 26 21  1  0  0  0  0
 27 23  1  0  0  0  0
 28 29  1  0  0  0  0
 29 30  1  0  0  0  0
 30 31  1  6  0  0  0
 30 33  1  0  0  0  0
 32 33  1  0  0  0  0
 33 34  1  0  0  0  0
M  END
>  <MODEL>
5

>  <REMARK>
 VINA RESULT:      -6.8      2.734      6.357
  Name = 
  10 active torsions:
  status: ('A' for Active; 'I' for Inactive)
    1  A    between atoms: C_7  and  C_15
    2  A    between atoms: C_7  and  C_29
    3  A    between atoms: C_8  and  C_17
    4  A    between atoms: C_10  and  C_17
    5  A    between atoms: C_10  and  N_20
    6  A    between atoms: C_19  and  C_22
    7  A    between atoms: C_24  and  C_25
    8  A    between atoms: C_25  and  C_27
    9  A    between atoms: C_26  and  C_28
   10  A    between atoms: C_26  and  C_29
                            x       y       z     vdW  Elec       q    Type
                         _______ _______ _______ _____ _____    ______ ____

>  <TORSDO>
F 10

$$$$
=
 OpenBabel11052415433D

 34 36  0  0  1  0  0  0  0  0999 V2000
  181.7090  179.0060  140.6990 C   0  0  0  0  0  2  0  0  0  0  0  0
  183.8050  178.7150  142.0510 C   0  0  0  0  0  0  0  0  0  0  0  0
  184.1910  178.6270  145.8530 C   0  0  0  0  0  2  0  0  0  0  0  0
  182.1770  178.6450  144.3840 C   0  0  0  0  0  3  0  0  0  0  0  0
  184.5020  178.8280  141.0060 O   0  0  0  0  0  0  0  0  0  0  0  0
  181.5880  178.5870  143.1850 C   0  0  0  0  0  0  0  0  0  0  0  0
  182.3680  178.7740  141.9820 N   0  0  0  0  0  0  0  0  0  0  0  0
  185.6350  179.1220  145.9730 C   0  0  0  0  0  2  0  0  0  0  0  0
  186.5140  178.6120  144.8240 C   0  0  2  0  0  3  0  0  0  0  0  0
  183.6200  179.0320  144.5010 C   0  0  2  0  0  3  0  0  0  0  0  0
  185.8890  178.9440  143.4600 C   0  0  0  0  0  2  0  0  0  0  0  0
  184.4540  178.4170  143.3740 C   0  0  2  0  0  3  0  0  0  0  0  0
  179.3120  179.2990  143.8190 C   0  0  0  0  0  1  0  0  0  0  0  0
  180.1370  178.2400  143.1140 C   0  0  0  0  0  2  0  0  0  0  0  0
  186.7890  177.1190  144.9760 C   0  0  0  0  0  2  0  0  0  0  0  0
  189.2810  177.0770  144.8940 O   0  0  0  0  0  1  0  0  0  0  0  0
  188.0480  176.1490  143.1990 O   0  0  0  0  0  0  0  0  0  0  0  0
  188.0680  176.7440  144.3080 C   0  0  0  0  0  0  0  0  0  0  0  0
  181.7020  177.7320  139.8640 C   0  0  0  0  0  2  0  0  0  0  0  0
  181.5130  174.4740  138.0460 O   0  0  0  0  0  0  0  0  0  0  0  0
  182.0430  178.4360  136.3800 C   0  0  0  0  0  2  0  0  0  0  0  0
  180.8300  177.8850  138.6210 C   0  0  2  0  0  3  0  0  0  0  0  0
  182.6110  175.9780  136.5790 C   0  0  0  0  0  2  0  0  0  0  0  0
  180.5660  176.5880  138.0040 N   0  0  0  0  0  2  0  0  0  0  0  0
  183.1500  177.4060  136.6040 C   0  0  2  0  0  3  0  0  0  0  0  0
  181.3700  178.9480  137.6560 C   0  0  0  0  0  2  0  0  0  0  0  0
  181.5780  175.6540  137.6160 C   0  0  0  0  0  0  0  0  0  0  0  0
  184.0720  177.7220  137.7820 C   0  0  0  0  0  2  0  0  0  0  0  0
  185.4560  177.1140  137.5950 C   0  0  0  0  0  2  0  0  0  0  0  0
  186.5340  178.1940  137.5650 C   0  0  2  0  0  3  0  0  0  0  0  0
  187.1610  178.2870  136.1840 C   0  0  0  0  0  1  0  0  0  0  0  0
  188.5240  179.0020  138.6620 O   0  0  0  0  0  1  0  0  0  0  0  0
  187.6100  177.9470  138.6180 C   0  0  0  0  0  3  0  0  0  0  0  0
  188.2810  176.7530  138.3490 O   0  0  0  0  0  1  0  0  0  0  0  0
  1  7  1  0  0  0  0
  2 12  1  0  0  0  0
  3  8  1  0  0  0  0
  5  2  2  0  0  0  0
  6  4  2  0  0  0  0
  7  2  1  0  0  0  0
  7  6  1  0  0  0  0
  9 15  1  1  0  0  0
  9  8  1  0  0  0  0
 10  4  1  1  0  0  0
 10  3  1  0  0  0  0
 11  9  1  0  0  0  0
 12 11  1  6  0  0  0
 12 10  1  0  0  0  0
 14  6  1  0  0  0  0
 14 13  1  0  0  0  0
 17 18  2  0  0  0  0
 18 16  1  0  0  0  0
 18 15  1  0  0  0  0
 19  1  1  0  0  0  0
 21 25  1  0  0  0  0
 21 26  1  0  0  0  0
 22 19  1  1  0  0  0
 23 25  1  0  0  0  0
 23 27  1  0  0  0  0
 24 22  1  0  0  0  0
 25 28  1  1  0  0  0
 26 22  1  0  0  0  0
 27 24  1  0  0  0  0
 27 20  2  0  0  0  0
 29 28  1  0  0  0  0
 30 31  1  6  0  0  0
 30 29  1  0  0  0  0
 30 33  1  0  0  0  0
 33 32  1  0  0  0  0
 34 33  1  0  0  0  0
M  END
>  <MODEL>
6

>  <REMARK>
 VINA RESULT:      -6.8      2.397      4.717
  Name = 
  10 active torsions:
  status: ('A' for Active; 'I' for Inactive)
    1  A    between atoms: C_7  and  C_15
    2  A    between atoms: C_7  and  C_29
    3  A    between atoms: C_8  and  C_17
    4  A    between atoms: C_10  and  C_17
    5  A    between atoms: C_10  and  N_20
    6  A    between atoms: C_19  and  C_22
    7  A    between atoms: C_24  and  C_25
    8  A    between atoms: C_25  and  C_27
    9  A    between atoms: C_26  and  C_28
   10  A    between atoms: C_26  and  C_29
                            x       y       z     vdW  Elec       q    Type
                         _______ _______ _______ _____ _____    ______ ____

>  <TORSDO>
F 10

$$$$
=
 OpenBabel11052415433D

 34 36  0  0  1  0  0  0  0  0999 V2000
  188.2210  179.0320  141.3480 C   0  0  0  0  0  2  0  0  0  0  0  0
  185.7520  178.7800  140.9640 C   0  0  0  0  0  0  0  0  0  0  0  0
  183.9270  177.8770  137.7300 C   0  0  0  0  0  2  0  0  0  0  0  0
  186.3480  177.9080  138.3220 C   0  0  0  0  0  3  0  0  0  0  0  0
  185.5210  179.2430  142.1150 O   0  0  0  0  0  0  0  0  0  0  0  0
  187.3480  178.0350  139.2000 C   0  0  0  0  0  0  0  0  0  0  0  0
  187.1060  178.6190  140.5000 N   0  0  0  0  0  0  0  0  0  0  0  0
  182.5820  178.5580  137.9990 C   0  0  0  0  0  2  0  0  0  0  0  0
  182.1840  178.4780  139.4780 C   0  0  2  0  0  3  0  0  0  0  0  0
  184.9980  178.4860  138.6230 C   0  0  2  0  0  3  0  0  0  0  0  0
  183.3050  179.0100  140.3830 C   0  0  0  0  0  2  0  0  0  0  0  0
  184.6260  178.2920  140.0960 C   0  0  2  0  0  3  0  0  0  0  0  0
  189.1270  178.0080  137.4900 C   0  0  0  0  0  1  0  0  0  0  0  0
  188.6900  177.4820  138.8440 C   0  0  0  0  0  2  0  0  0  0  0  0
  181.7780  177.0550  139.8530 C   0  0  0  0  0  2  0  0  0  0  0  0
  179.5030  177.5650  140.7370 O   0  0  0  0  0  1  0  0  0  0  0  0
  179.7670  176.1370  138.9620 O   0  0  0  0  0  0  0  0  0  0  0  0
  180.2960  176.8970  139.8140 C   0  0  0  0  0  0  0  0  0  0  0  0
  188.9220  177.8170  141.9410 C   0  0  0  0  0  2  0  0  0  0  0  0
  190.5870  174.7270  143.2200 O   0  0  0  0  0  0  0  0  0  0  0  0
  191.0100  178.7860  144.6680 C   0  0  0  0  0  2  0  0  0  0  0  0
  190.3910  178.1060  142.2290 C   0  0  2  0  0  3  0  0  0  0  0  0
  190.6760  176.2990  144.9920 C   0  0  0  0  0  2  0  0  0  0  0  0
  191.1180  176.8750  142.5310 N   0  0  0  0  0  2  0  0  0  0  0  0
  190.1470  177.6970  145.3030 C   0  0  2  0  0  3  0  0  0  0  0  0
  190.5750  179.2200  143.2670 C   0  0  0  0  0  2  0  0  0  0  0  0
  190.7350  175.9350  143.5390 C   0  0  0  0  0  0  0  0  0  0  0  0
  188.6450  177.8780  145.0820 C   0  0  0  0  0  2  0  0  0  0  0  0
  187.8760  177.8760  146.3970 C   0  0  0  0  0  2  0  0  0  0  0  0
  186.4140  177.4950  146.1800 C   0  0  2  0  0  3  0  0  0  0  0  0
  186.0660  177.5250  144.7010 C   0  0  0  0  0  1  0  0  0  0  0  0
  184.2940  178.6430  146.2520 O   0  0  0  0  0  1  0  0  0  0  0  0
  185.4720  178.4050  146.9640 C   0  0  0  0  0  3  0  0  0  0  0  0
  186.1030  179.6170  147.2500 O   0  0  0  0  0  1  0  0  0  0  0  0
  1 19  1  0  0  0  0
  2  5  2  0  0  0  0
  3  8  1  0  0  0  0
  4 10  1  0  0  0  0
  4  6  2  0  0  0  0
  6  7  1  0  0  0  0
  7  2  1  0  0  0  0
  7  1  1  0  0  0  0
  8  9  1  0  0  0  0
  9 15  1  1  0  0  0
  9 11  1  0  0  0  0
 10  3  1  6  0  0  0
 10 12  1  0  0  0  0
 12 11  1  1  0  0  0
 12  2  1  0  0  0  0
 13 14  1  0  0  0  0
 14  6  1  0  0  0  0
 17 18  2  0  0  0  0
 18 15  1  0  0  0  0
 18 16  1  0  0  0  0
 20 27  2  0  0  0  0
 21 25  1  0  0  0  0
 22 19  1  1  0  0  0
 22 24  1  0  0  0  0
 22 26  1  0  0  0  0
 23 25  1  0  0  0  0
 24 27  1  0  0  0  0
 25 28  1  6  0  0  0
 26 21  1  0  0  0  0
 27 23  1  0  0  0  0
 28 29  1  0  0  0  0
 30 31  1  6  0  0  0
 30 29  1  0  0  0  0
 30 33  1  0  0  0  0
 32 33  1  0  0  0  0
 33 34  1  0  0  0  0
M  END
>  <MODEL>
7

>  <REMARK>
 VINA RESULT:      -6.6      2.740      6.373
  Name = 
  10 active torsions:
  status: ('A' for Active; 'I' for Inactive)
    1  A    between atoms: C_7  and  C_15
    2  A    between atoms: C_7  and  C_29
    3  A    between atoms: C_8  and  C_17
    4  A    between atoms: C_10  and  C_17
    5  A    between atoms: C_10  and  N_20
    6  A    between atoms: C_19  and  C_22
    7  A    between atoms: C_24  and  C_25
    8  A    between atoms: C_25  and  C_27
    9  A    between atoms: C_26  and  C_28
   10  A    between atoms: C_26  and  C_29
                            x       y       z     vdW  Elec       q    Type
                         _______ _______ _______ _____ _____    ______ ____

>  <TORSDO>
F 10

$$$$
=
 OpenBabel11052415433D

 34 36  0  0  1  0  0  0  0  0999 V2000
  189.2560  178.7290  141.0290 C   0  0  0  0  0  2  0  0  0  0  0  0
  187.5080  178.1040  139.3370 C   0  0  0  0  0  0  0  0  0  0  0  0
  187.9970  176.6810  135.8240 C   0  0  0  0  0  2  0  0  0  0  0  0
  189.5980  177.0990  137.6890 C   0  0  0  0  0  3  0  0  0  0  0  0
  186.6150  178.6280  140.0580 O   0  0  0  0  0  0  0  0  0  0  0  0
  189.8800  177.4380  138.9510 C   0  0  0  0  0  0  0  0  0  0  0  0
  188.8830  178.0930  139.7670 N   0  0  0  0  0  0  0  0  0  0  0  0
  186.7130  177.1900  135.1630 C   0  0  0  0  0  2  0  0  0  0  0  0
  185.5260  177.1830  136.1340 C   0  0  2  0  0  3  0  0  0  0  0  0
  188.2970  177.5080  137.0660 C   0  0  2  0  0  3  0  0  0  0  0  0
  185.8640  177.9420  137.4270 C   0  0  0  0  0  2  0  0  0  0  0  0
  187.1420  177.3920  138.0650 C   0  0  2  0  0  3  0  0  0  0  0  0
  192.0870  176.4650  138.4340 C   0  0  0  0  0  1  0  0  0  0  0  0
  191.2050  177.0490  139.5200 C   0  0  0  0  0  2  0  0  0  0  0  0
  185.0670  175.7560  136.4170 C   0  0  0  0  0  2  0  0  0  0  0  0
  182.6120  176.1640  136.2540 O   0  0  0  0  0  0  0  0  0  0  0  0
  183.5330  175.3820  138.2030 O   0  0  0  0  0  1  0  0  0  0  0  0
  183.6990  175.7450  137.0090 C   0  0  0  0  0  0  0  0  0  0  0  0
  189.7400  177.6880  142.0290 C   0  0  0  0  0  2  0  0  0  0  0  0
  191.4260  174.7400  143.5870 O   0  0  0  0  0  0  0  0  0  0  0  0
  190.8640  178.6930  145.2650 C   0  0  0  0  0  2  0  0  0  0  0  0
  191.0220  178.1350  142.7240 C   0  0  2  0  0  3  0  0  0  0  0  0
  190.8130  176.1650  145.3800 C   0  0  0  0  0  2  0  0  0  0  0  0
  191.8100  176.9860  143.1610 N   0  0  0  0  0  2  0  0  0  0  0  0
  190.0270  177.4570  145.5910 C   0  0  2  0  0  3  0  0  0  0  0  0
  190.7610  179.1780  143.8180 C   0  0  0  0  0  2  0  0  0  0  0  0
  191.3090  175.9280  143.9850 C   0  0  0  0  0  0  0  0  0  0  0  0
  188.6290  177.4640  144.9730 C   0  0  0  0  0  2  0  0  0  0  0  0
  187.5640  177.8670  145.9860 C   0  0  0  0  0  2  0  0  0  0  0  0
  186.1790  177.8990  145.3470 C   0  0  2  0  0  3  0  0  0  0  0  0
  186.2880  178.0240  143.8370 C   0  0  0  0  0  1  0  0  0  0  0  0
  185.6790  179.3200  147.2300 O   0  0  0  0  0  1  0  0  0  0  0  0
  185.3240  179.0300  145.9110 C   0  0  0  0  0  3  0  0  0  0  0  0
  183.9730  178.6870  145.8520 O   0  0  0  0  0  1  0  0  0  0  0  0
  1 19  1  0  0  0  0
  2  7  1  0  0  0  0
  2  5  2  0  0  0  0
  4  6  2  0  0  0  0
  6 14  1  0  0  0  0
  6  7  1  0  0  0  0
  7  1  1  0  0  0  0
  8  3  1  0  0  0  0
  8  9  1  0  0  0  0
  9 15  1  1  0  0  0
  9 11  1  0  0  0  0
 10  3  1  6  0  0  0
 10  4  1  0  0  0  0
 10 12  1  0  0  0  0
 12 11  1  6  0  0  0
 12  2  1  0  0  0  0
 13 14  1  0  0  0  0
 15 18  1  0  0  0  0
 16 18  2  0  0  0  0
 18 17  1  0  0  0  0
 20 27  2  0  0  0  0
 21 25  1  0  0  0  0
 22 19  1  1  0  0  0
 22 24  1  0  0  0  0
 22 26  1  0  0  0  0
 23 25  1  0  0  0  0
 24 27  1  0  0  0  0
 25 28  1  6  0  0  0
 26 21  1  0  0  0  0
 27 23  1  0  0  0  0
 28 29  1  0  0  0  0
 30 31  1  6  0  0  0
 30 33  1  0  0  0  0
 30 29  1  0  0  0  0
 33 32  1  0  0  0  0
 34 33  1  0  0  0  0
M  END
>  <MODEL>
8

>  <REMARK>
 VINA RESULT:      -6.5      2.705      7.602
  Name = 
  10 active torsions:
  status: ('A' for Active; 'I' for Inactive)
    1  A    between atoms: C_7  and  C_15
    2  A    between atoms: C_7  and  C_29
    3  A    between atoms: C_8  and  C_17
    4  A    between atoms: C_10  and  C_17
    5  A    between atoms: C_10  and  N_20
    6  A    between atoms: C_19  and  C_22
    7  A    between atoms: C_24  and  C_25
    8  A    between atoms: C_25  and  C_27
    9  A    between atoms: C_26  and  C_28
   10  A    between atoms: C_26  and  C_29
                            x       y       z     vdW  Elec       q    Type
                         _______ _______ _______ _____ _____    ______ ____

>  <TORSDO>
F 10

$$$$
=
 OpenBabel11052415433D

 34 36  0  0  1  0  0  0  0  0999 V2000
  185.6370  176.3620  136.6470 C   0  0  0  0  0  2  0  0  0  0  0  0
  184.2130  177.6230  138.2860 C   0  0  0  0  0  0  0  0  0  0  0  0
  181.0110  176.4800  140.0310 C   0  0  0  0  0  2  0  0  0  0  0  0
  182.6530  175.2650  138.6030 C   0  0  0  0  0  3  0  0  0  0  0  0
  184.8780  178.6730  138.0640 O   0  0  0  0  0  0  0  0  0  0  0  0
  183.8060  175.1890  137.9310 C   0  0  0  0  0  0  0  0  0  0  0  0
  184.5460  176.3910  137.6190 N   0  0  0  0  0  0  0  0  0  0  0  0
  180.3510  177.8420  140.2670 C   0  0  0  0  0  2  0  0  0  0  0  0
  181.3810  178.9310  140.5890 C   0  0  2  0  0  3  0  0  0  0  0  0
  182.0510  176.5990  138.9260 C   0  0  2  0  0  3  0  0  0  0  0  0
  182.4800  178.9880  139.5170 C   0  0  0  0  0  2  0  0  0  0  0  0
  183.1260  177.6140  139.3250 C   0  0  2  0  0  3  0  0  0  0  0  0
  183.4540  173.1560  136.5790 C   0  0  0  0  0  1  0  0  0  0  0  0
  184.3520  173.8410  137.5910 C   0  0  0  0  0  2  0  0  0  0  0  0
  181.9600  178.7330  141.9870 C   0  0  0  0  0  2  0  0  0  0  0  0
  180.8640  178.6280  144.2250 O   0  0  0  0  0  1  0  0  0  0  0  0
  180.4310  180.3710  142.8000 O   0  0  0  0  0  0  0  0  0  0  0  0
  181.0510  179.2990  143.0240 C   0  0  0  0  0  0  0  0  0  0  0  0
  186.9850  176.3650  137.3550 C   0  0  0  0  0  2  0  0  0  0  0  0
  190.3970  175.2070  138.3450 O   0  0  0  0  0  0  0  0  0  0  0  0
  189.0550  179.2610  137.6190 C   0  0  0  0  0  2  0  0  0  0  0  0
  188.0380  177.1140  136.5450 C   0  0  2  0  0  3  0  0  0  0  0  0
  190.2800  177.4950  138.9560 C   0  0  0  0  0  2  0  0  0  0  0  0
  189.3660  176.5420  136.7550 N   0  0  0  0  0  2  0  0  0  0  0  0
  189.2410  178.6140  138.9910 C   0  0  2  0  0  3  0  0  0  0  0  0
  187.9630  178.6330  136.7510 C   0  0  0  0  0  2  0  0  0  0  0  0
  189.9710  176.3510  138.0370 C   0  0  0  0  0  0  0  0  0  0  0  0
  187.9340  178.2530  139.6970 C   0  0  0  0  0  2  0  0  0  0  0  0
  188.0580  178.3700  141.2100 C   0  0  0  0  0  2  0  0  0  0  0  0
  186.7270  178.0750  141.8970 C   0  0  2  0  0  3  0  0  0  0  0  0
  185.7270  179.1870  141.6300 C   0  0  0  0  0  1  0  0  0  0  0  0
  187.5620  176.6690  143.6700 O   0  0  0  0  0  1  0  0  0  0  0  0
  186.9020  177.8700  143.3990 C   0  0  0  0  0  3  0  0  0  0  0  0
  185.6590  177.8780  144.0340 O   0  0  0  0  0  1  0  0  0  0  0  0
  1 19  1  0  0  0  0
  1  7  1  0  0  0  0
  2 12  1  0  0  0  0
  3  8  1  0  0  0  0
  5  2  2  0  0  0  0
  6  4  2  0  0  0  0
  7  6  1  0  0  0  0
  7  2  1  0  0  0  0
  8  9  1  0  0  0  0
  9 15  1  1  0  0  0
 10  4  1  1  0  0  0
 10 12  1  0  0  0  0
 10  3  1  0  0  0  0
 11  9  1  0  0  0  0
 12 11  1  6  0  0  0
 13 14  1  0  0  0  0
 14  6  1  0  0  0  0
 15 18  1  0  0  0  0
 17 18  2  0  0  0  0
 18 16  1  0  0  0  0
 21 25  1  0  0  0  0
 22 26  1  0  0  0  0
 22 24  1  0  0  0  0
 22 19  1  1  0  0  0
 23 25  1  0  0  0  0
 24 27  1  0  0  0  0
 25 28  1  6  0  0  0
 26 21  1  0  0  0  0
 27 20  2  0  0  0  0
 27 23  1  0  0  0  0
 28 29  1  0  0  0  0
 29 30  1  0  0  0  0
 30 31  1  1  0  0  0
 30 33  1  0  0  0  0
 33 32  1  0  0  0  0
 33 34  1  0  0  0  0
M  END
>  <MODEL>
9

>  <REMARK>
 VINA RESULT:      -6.4      2.388      3.835
  Name = 
  10 active torsions:
  status: ('A' for Active; 'I' for Inactive)
    1  A    between atoms: C_7  and  C_15
    2  A    between atoms: C_7  and  C_29
    3  A    between atoms: C_8  and  C_17
    4  A    between atoms: C_10  and  C_17
    5  A    between atoms: C_10  and  N_20
    6  A    between atoms: C_19  and  C_22
    7  A    between atoms: C_24  and  C_25
    8  A    between atoms: C_25  and  C_27
    9  A    between atoms: C_26  and  C_28
   10  A    between atoms: C_26  and  C_29
                            x       y       z     vdW  Elec       q    Type
                         _______ _______ _______ _____ _____    ______ ____

>  <TORSDO>
F 10

$$$$
