=
 OpenBabel11052412183D

 30 34  0  0  1  0  0  0  0  0999 V2000
  189.0070  176.6900  143.2570 C   0  0  2  0  0  3  0  0  0  0  0  0
  189.3040  177.4910  141.9490 C   0  0  1  0  0  0  0  0  0  0  0  0
  187.5160  176.6230  143.6050 C   0  0  0  0  0  2  0  0  0  0  0  0
  185.9400  179.1520  141.5640 C   0  0  0  0  0  2  0  0  0  0  0  0
  189.5830  178.4610  139.1720 C   0  0  1  0  0  3  0  0  0  0  0  0
  186.8670  178.0540  141.7950 N   0  0  2  0  0  0  0  0  0  0  0  0
  185.4620  178.1060  143.6890 C   0  0  0  0  0  2  0  0  0  0  0  0
  190.6480  177.5460  139.7170 C   0  0  2  0  0  3  0  0  0  0  0  0
  186.8890  177.9490  143.2370 C   0  0  1  0  0  3  0  0  0  0  0  0
  188.2060  178.3760  141.2850 C   0  0  2  0  0  3  0  0  0  0  0  0
  190.7380  176.4970  138.8170 O   0  0  0  0  0  0  0  0  0  0  0  0
  189.5550  178.2200  137.7970 O   0  0  0  0  0  0  0  0  0  0  0  0
  183.7230  178.5220  142.1400 F   0  0  0  0  0  0  0  0  0  0  0  0
  184.8850  179.0610  142.6590 C   0  0  2  0  0  3  0  0  0  0  0  0
  190.5410  178.1620  142.0080 O   0  0  0  0  0  0  0  0  0  0  0  0
  190.4950  177.0400  141.1600 C   0  0  1  0  0  3  0  0  0  0  0  0
  190.3810  177.0940  137.5950 C   0  0  0  0  0  2  0  0  0  0  0  0
  187.7570  176.9060  139.4260 O   0  0  0  0  0  1  0  0  0  0  0  0
  188.2030  178.1900  139.7650 C   0  0  2  0  0  3  0  0  0  0  0  0
  189.8280  177.0550  144.5140 C   0  0  2  0  0  3  0  0  0  0  0  0
  191.2640  176.5110  144.5340 C   0  0  2  0  0  3  0  0  0  0  0  0
  191.3950  175.1560  143.8520 C   0  0  0  0  0  2  0  0  0  0  0  0
  192.4160  174.4190  144.4500 O   0  0  0  0  0  1  0  0  0  0  0  0
  191.7470  176.4300  145.9170 C   0  0  0  0  0  0  0  0  0  0  0  0
  192.1270  176.3670  147.0080 N   0  0  0  0  0  0  0  0  0  0  0  0
  189.1350  176.7810  145.7000 O   0  0  0  0  0  0  0  0  0  0  0  0
  188.9440  178.0270  146.3050 C   0  0  0  0  0  2  0  0  0  0  0  0
  187.9280  177.9450  147.4050 C   0  0  0  0  0  0  0  0  0  0  0  0
  186.5180  178.3990  147.2060 C   0  0  0  0  0  1  0  0  0  0  0  0
  188.2620  177.4990  148.4890 O   0  0  0  0  0  0  0  0  0  0  0  0
  1  3  1  0  0  0  0
  1 20  1  1  0  0  0
  2 15  1  1  0  0  0
  2  1  1  0  0  0  0
  4 14  1  0  0  0  0
  5 12  1  6  0  0  0
  5  8  1  0  0  0  0
  5 19  1  0  0  0  0
  6  4  1  1  0  0  0
  6  9  1  0  0  0  0
  8 11  1  6  0  0  0
  8 16  1  0  0  0  0
  9  3  1  6  0  0  0
  9  7  1  0  0  0  0
 10  6  1  0  0  0  0
 10  2  1  0  0  0  0
 13 14  1  0  0  0  0
 14  7  1  0  0  0  0
 16  2  1  0  0  0  0
 16 15  1  0  0  0  0
 17 12  1  0  0  0  0
 17 11  1  0  0  0  0
 18 19  1  0  0  0  0
 19 10  1  0  0  0  0
 20 21  1  0  0  0  0
 20 26  1  0  0  0  0
 21 24  1  0  0  0  0
 22 23  1  0  0  0  0
 22 21  1  0  0  0  0
 24 25  3  0  0  0  0
 26 27  1  0  0  0  0
 27 28  1  0  0  0  0
 28 30  2  0  0  0  0
 29 28  1  0  0  0  0
M  END
>  <MODEL>
1

>  <REMARK>
 VINA RESULT:      -7.9      0.000      0.000
  Name = 
  7 active torsions:
  status: ('A' for Active; 'I' for Inactive)
    1  A    between atoms: C_1  and  C_22
    2  A    between atoms: C_2  and  C_14
    3  A    between atoms: C_3  and  C_19
    4  A    between atoms: C_14  and  C_20
    5  A    between atoms: C_14  and  C_22
    6  A    between atoms: C_19  and  O_29
    7  A    between atoms: C_22  and  O_29
                            x       y       z     vdW  Elec       q    Type
                         _______ _______ _______ _____ _____    ______ ____

>  <TORSDO>
F 7

$$$$
=
 OpenBabel11052412183D

 30 34  0  0  1  0  0  0  0  0999 V2000
  188.8460  176.6310  141.9040 C   0  0  2  0  0  3  0  0  0  0  0  0
  188.0030  177.6850  142.6920 C   0  0  1  0  0  0  0  0  0  0  0  0
  189.8010  175.8270  142.7920 C   0  0  0  0  0  2  0  0  0  0  0  0
  189.9740  177.6450  145.9090 C   0  0  0  0  0  2  0  0  0  0  0  0
  186.0900  179.1230  144.4250 C   0  0  1  0  0  3  0  0  0  0  0  0
  189.2710  177.0770  144.7670 N   0  0  2  0  0  0  0  0  0  0  0  0
  191.4420  176.1590  144.6960 C   0  0  0  0  0  2  0  0  0  0  0  0
  185.6400  178.7250  143.0430 C   0  0  2  0  0  3  0  0  0  0  0  0
  190.3450  176.7550  143.8550 C   0  0  1  0  0  3  0  0  0  0  0  0
  188.3630  178.0610  144.1620 C   0  0  2  0  0  3  0  0  0  0  0  0
  184.4720  178.0030  143.2220 O   0  0  0  0  0  0  0  0  0  0  0  0
  184.9310  179.1290  145.2040 O   0  0  0  0  0  0  0  0  0  0  0  0
  191.2270  175.9770  147.0450 F   0  0  0  0  0  0  0  0  0  0  0  0
  191.2960  176.8960  146.0140 C   0  0  2  0  0  3  0  0  0  0  0  0
  187.7300  178.8310  141.9210 O   0  0  0  0  0  0  0  0  0  0  0  0
  186.6370  177.9730  142.1490 C   0  0  1  0  0  3  0  0  0  0  0  0
  183.9260  178.5630  144.3910 C   0  0  0  0  0  2  0  0  0  0  0  0
  186.5330  176.8830  145.2010 O   0  0  0  0  0  1  0  0  0  0  0  0
  187.1020  178.1500  145.0250 C   0  0  2  0  0  3  0  0  0  0  0  0
  189.5840  177.1180  140.6370 C   0  0  2  0  0  3  0  0  0  0  0  0
  188.7270  177.1710  139.3640 C   0  0  2  0  0  3  0  0  0  0  0  0
  189.0320  176.0350  138.3960 C   0  0  0  0  0  2  0  0  0  0  0  0
  188.0920  176.0230  137.3650 O   0  0  0  0  0  1  0  0  0  0  0  0
  188.9040  178.4650  138.6970 C   0  0  0  0  0  0  0  0  0  0  0  0
  189.0430  179.4870  138.1710 N   0  0  0  0  0  0  0  0  0  0  0  0
  190.7980  176.4480  140.4380 O   0  0  0  0  0  0  0  0  0  0  0  0
  191.7720  177.4510  140.4480 C   0  0  0  0  0  2  0  0  0  0  0  0
  192.9040  177.1160  139.5230 C   0  0  0  0  0  0  0  0  0  0  0  0
  192.6650  176.5100  138.1780 C   0  0  0  0  0  1  0  0  0  0  0  0
  194.0480  177.3410  139.8800 O   0  0  0  0  0  0  0  0  0  0  0  0
  1 20  1  6  0  0  0
  1  2  1  0  0  0  0
  1  3  1  0  0  0  0
  2 15  1  6  0  0  0
  2 10  1  0  0  0  0
  4 14  1  0  0  0  0
  5 19  1  0  0  0  0
  5 12  1  1  0  0  0
  6  4  1  1  0  0  0
  7 14  1  0  0  0  0
  8 11  1  1  0  0  0
  8  5  1  0  0  0  0
  9  3  1  6  0  0  0
  9  7  1  0  0  0  0
  9  6  1  0  0  0  0
 10  6  1  0  0  0  0
 10 19  1  0  0  0  0
 11 17  1  0  0  0  0
 14 13  1  0  0  0  0
 15 16  1  0  0  0  0
 16  2  1  0  0  0  0
 16  8  1  0  0  0  0
 17 12  1  0  0  0  0
 19 18  1  0  0  0  0
 21 20  1  0  0  0  0
 22 21  1  0  0  0  0
 23 22  1  0  0  0  0
 24 21  1  0  0  0  0
 25 24  3  0  0  0  0
 26 27  1  0  0  0  0
 26 20  1  0  0  0  0
 28 30  2  0  0  0  0
 28 27  1  0  0  0  0
 29 28  1  0  0  0  0
M  END
>  <MODEL>
2

>  <REMARK>
 VINA RESULT:      -7.2      2.866      6.768
  Name = 
  7 active torsions:
  status: ('A' for Active; 'I' for Inactive)
    1  A    between atoms: C_1  and  C_22
    2  A    between atoms: C_2  and  C_14
    3  A    between atoms: C_3  and  C_19
    4  A    between atoms: C_14  and  C_20
    5  A    between atoms: C_14  and  C_22
    6  A    between atoms: C_19  and  O_29
    7  A    between atoms: C_22  and  O_29
                            x       y       z     vdW  Elec       q    Type
                         _______ _______ _______ _____ _____    ______ ____

>  <TORSDO>
F 7

$$$$
=
 OpenBabel11052412183D

 30 34  0  0  1  0  0  0  0  0999 V2000
  188.4980  178.1730  142.3630 C   0  0  2  0  0  3  0  0  0  0  0  0
  187.4160  177.7780  143.4190 C   0  0  1  0  0  0  0  0  0  0  0  0
  187.9240  178.9080  141.1470 C   0  0  0  0  0  2  0  0  0  0  0  0
  184.3580  178.3570  141.2880 C   0  0  0  0  0  2  0  0  0  0  0  0
  185.3570  177.7050  145.5360 C   0  0  1  0  0  3  0  0  0  0  0  0
  185.6530  178.6660  141.8750 N   0  0  2  0  0  0  0  0  0  0  0  0
  185.9680  178.7920  139.5410 C   0  0  0  0  0  2  0  0  0  0  0  0
  186.8060  177.7020  145.9510 C   0  0  2  0  0  3  0  0  0  0  0  0
  186.5780  178.3010  140.8250 C   0  0  1  0  0  3  0  0  0  0  0  0
  185.8970  177.8580  143.0760 C   0  0  2  0  0  3  0  0  0  0  0  0
  186.9450  178.7600  146.8350 O   0  0  0  0  0  0  0  0  0  0  0  0
  184.6740  178.3290  146.5820 O   0  0  0  0  0  0  0  0  0  0  0  0
  183.8530  179.8530  139.5140 F   0  0  0  0  0  0  0  0  0  0  0  0
  184.4780  178.6540  139.7990 C   0  0  2  0  0  3  0  0  0  0  0  0
  187.7320  176.5740  144.0780 O   0  0  0  0  0  0  0  0  0  0  0  0
  187.8720  177.7450  144.8460 C   0  0  1  0  0  3  0  0  0  0  0  0
  185.6750  178.8470  147.4320 C   0  0  0  0  0  2  0  0  0  0  0  0
  185.4250  179.8260  144.3900 O   0  0  0  0  0  1  0  0  0  0  0  0
  185.1100  178.4700  144.2390 C   0  0  2  0  0  3  0  0  0  0  0  0
  189.4740  177.0670  141.9010 C   0  0  2  0  0  3  0  0  0  0  0  0
  190.8750  177.1320  142.5270 C   0  0  2  0  0  3  0  0  0  0  0  0
  191.1780  175.9410  143.4270 C   0  0  0  0  0  2  0  0  0  0  0  0
  190.4090  174.8440  143.0400 O   0  0  0  0  0  1  0  0  0  0  0  0
  191.0290  178.3830  143.2760 C   0  0  0  0  0  0  0  0  0  0  0  0
  191.1520  179.3710  143.8660 N   0  0  0  0  0  0  0  0  0  0  0  0
  189.5160  176.9430  140.5060 O   0  0  0  0  0  0  0  0  0  0  0  0
  190.8640  177.0970  140.1690 C   0  0  0  0  0  2  0  0  0  0  0  0
  191.2050  176.3210  138.9320 C   0  0  0  0  0  0  0  0  0  0  0  0
  192.5120  176.4990  138.2300 C   0  0  0  0  0  1  0  0  0  0  0  0
  190.3940  175.5270  138.4870 O   0  0  0  0  0  0  0  0  0  0  0  0
  1 20  1  6  0  0  0
  1  2  1  0  0  0  0
  2 15  1  6  0  0  0
  2 16  1  0  0  0  0
  3  1  1  0  0  0  0
  5  8  1  0  0  0  0
  5 12  1  1  0  0  0
  6  4  1  6  0  0  0
  6 10  1  0  0  0  0
  7 14  1  0  0  0  0
  8 11  1  1  0  0  0
  9  7  1  6  0  0  0
  9  3  1  0  0  0  0
  9  6  1  0  0  0  0
 10  2  1  0  0  0  0
 10 19  1  0  0  0  0
 11 17  1  0  0  0  0
 12 17  1  0  0  0  0
 13 14  1  0  0  0  0
 14  4  1  0  0  0  0
 15 16  1  0  0  0  0
 16  8  1  0  0  0  0
 19 18  1  0  0  0  0
 19  5  1  0  0  0  0
 20 21  1  0  0  0  0
 21 24  1  0  0  0  0
 21 22  1  0  0  0  0
 23 22  1  0  0  0  0
 24 25  3  0  0  0  0
 26 20  1  0  0  0  0
 27 26  1  0  0  0  0
 28 27  1  0  0  0  0
 29 28  1  0  0  0  0
 30 28  2  0  0  0  0
M  END
>  <MODEL>
3

>  <REMARK>
 VINA RESULT:      -7.2      2.141      5.864
  Name = 
  7 active torsions:
  status: ('A' for Active; 'I' for Inactive)
    1  A    between atoms: C_1  and  C_22
    2  A    between atoms: C_2  and  C_14
    3  A    between atoms: C_3  and  C_19
    4  A    between atoms: C_14  and  C_20
    5  A    between atoms: C_14  and  C_22
    6  A    between atoms: C_19  and  O_29
    7  A    between atoms: C_22  and  O_29
                            x       y       z     vdW  Elec       q    Type
                         _______ _______ _______ _____ _____    ______ ____

>  <TORSDO>
F 7

$$$$
=
 OpenBabel11052412183D

 30 34  0  0  1  0  0  0  0  0999 V2000
  186.0930  178.7830  142.1390 C   0  0  2  0  0  3  0  0  0  0  0  0
  184.9380  178.4060  141.1560 C   0  0  1  0  0  0  0  0  0  0  0  0
  187.3890  179.1920  141.4300 C   0  0  0  0  0  2  0  0  0  0  0  0
  186.9960  178.0990  138.0100 C   0  0  0  0  0  2  0  0  0  0  0  0
  182.7480  178.3680  139.1730 C   0  0  1  0  0  3  0  0  0  0  0  0
  186.5290  178.7130  139.2440 N   0  0  2  0  0  0  0  0  0  0  0  0
  188.8630  178.4800  139.4950 C   0  0  0  0  0  2  0  0  0  0  0  0
  182.4050  178.6740  140.6080 C   0  0  2  0  0  3  0  0  0  0  0  0
  187.5430  178.3260  140.2000 C   0  0  1  0  0  3  0  0  0  0  0  0
  185.2210  178.1770  139.6400 C   0  0  2  0  0  3  0  0  0  0  0  0
  181.7200  179.8770  140.5820 O   0  0  0  0  0  0  0  0  0  0  0  0
  181.7930  179.0440  138.4120 O   0  0  0  0  0  0  0  0  0  0  0  0
  188.9730  179.1610  137.2310 F   0  0  0  0  0  0  0  0  0  0  0  0
  188.5180  178.1480  138.0540 C   0  0  2  0  0  3  0  0  0  0  0  0
  184.1000  177.4040  141.6810 O   0  0  0  0  0  0  0  0  0  0  0  0
  183.5480  178.6980  141.6340 C   0  0  1  0  0  3  0  0  0  0  0  0
  181.0890  179.8580  139.3250 C   0  0  0  0  0  2  0  0  0  0  0  0
  184.2380  180.2400  138.8650 O   0  0  0  0  0  1  0  0  0  0  0  0
  184.1440  178.8450  138.7800 C   0  0  2  0  0  3  0  0  0  0  0  0
  186.4060  177.7880  143.2800 C   0  0  2  0  0  3  0  0  0  0  0  0
  185.5610  177.9680  144.5500 C   0  0  2  0  0  3  0  0  0  0  0  0
  184.8870  179.3310  144.6250 C   0  0  0  0  0  2  0  0  0  0  0  0
  183.7650  179.2620  145.4520 O   0  0  0  0  0  1  0  0  0  0  0  0
  186.3950  177.7500  145.7370 C   0  0  0  0  0  0  0  0  0  0  0  0
  187.0530  177.5770  146.6730 N   0  0  0  0  0  0  0  0  0  0  0  0
  187.7770  177.7070  143.5550 O   0  0  0  0  0  0  0  0  0  0  0  0
  188.1390  176.4000  143.2170 C   0  0  0  0  0  2  0  0  0  0  0  0
  189.6080  176.3000  142.9350 C   0  0  0  0  0  0  0  0  0  0  0  0
  190.4580  177.5170  142.7650 C   0  0  0  0  0  1  0  0  0  0  0  0
  190.1200  175.1980  142.8400 O   0  0  0  0  0  0  0  0  0  0  0  0
  1 20  1  1  0  0  0
  2 16  1  0  0  0  0
  2 15  1  1  0  0  0
  2  1  1  0  0  0  0
  3  1  1  0  0  0  0
  4 14  1  0  0  0  0
  5 12  1  6  0  0  0
  5  8  1  0  0  0  0
  6  4  1  6  0  0  0
  6 10  1  0  0  0  0
  6  9  1  0  0  0  0
  8 11  1  6  0  0  0
  8 16  1  0  0  0  0
  9  7  1  6  0  0  0
  9  3  1  0  0  0  0
 10  2  1  0  0  0  0
 12 17  1  0  0  0  0
 13 14  1  0  0  0  0
 14  7  1  0  0  0  0
 16 15  1  0  0  0  0
 17 11  1  0  0  0  0
 19 18  1  0  0  0  0
 19  5  1  0  0  0  0
 19 10  1  0  0  0  0
 20 26  1  0  0  0  0
 20 21  1  0  0  0  0
 21 22  1  0  0  0  0
 21 24  1  0  0  0  0
 22 23  1  0  0  0  0
 24 25  3  0  0  0  0
 27 26  1  0  0  0  0
 28 27  1  0  0  0  0
 29 28  1  0  0  0  0
 30 28  2  0  0  0  0
M  END
>  <MODEL>
4

>  <REMARK>
 VINA RESULT:      -7.0      3.443      6.056
  Name = 
  7 active torsions:
  status: ('A' for Active; 'I' for Inactive)
    1  A    between atoms: C_1  and  C_22
    2  A    between atoms: C_2  and  C_14
    3  A    between atoms: C_3  and  C_19
    4  A    between atoms: C_14  and  C_20
    5  A    between atoms: C_14  and  C_22
    6  A    between atoms: C_19  and  O_29
    7  A    between atoms: C_22  and  O_29
                            x       y       z     vdW  Elec       q    Type
                         _______ _______ _______ _____ _____    ______ ____

>  <TORSDO>
F 7

$$$$
=
 OpenBabel11052412183D

 30 34  0  0  1  0  0  0  0  0999 V2000
  188.0220  177.3350  142.6150 C   0  0  2  0  0  3  0  0  0  0  0  0
  187.0080  178.2740  141.8870 C   0  0  1  0  0  0  0  0  0  0  0  0
  187.5460  176.8770  143.9980 C   0  0  0  0  0  2  0  0  0  0  0  0
  184.8080  179.0750  144.8450 C   0  0  0  0  0  2  0  0  0  0  0  0
  184.7210  179.4750  140.4520 C   0  0  1  0  0  3  0  0  0  0  0  0
  185.5660  178.2270  143.9370 N   0  0  2  0  0  0  0  0  0  0  0  0
  186.4410  177.7980  146.0850 C   0  0  0  0  0  2  0  0  0  0  0  0
  185.8050  178.8150  139.6400 C   0  0  2  0  0  3  0  0  0  0  0  0
  186.8110  178.0300  144.6450 C   0  0  1  0  0  3  0  0  0  0  0  0
  185.8070  178.9050  142.6570 C   0  0  2  0  0  3  0  0  0  0  0  0
  185.1610  177.8870  138.8380 O   0  0  0  0  0  0  0  0  0  0  0  0
  183.5550  179.3320  139.6980 O   0  0  0  0  0  0  0  0  0  0  0  0
  184.1880  177.8780  146.8010 F   0  0  0  0  0  0  0  0  0  0  0  0
  185.1970  178.6500  146.2560 C   0  0  2  0  0  3  0  0  0  0  0  0
  187.6530  179.2250  141.0740 O   0  0  0  0  0  0  0  0  0  0  0  0
  186.9890  178.1880  140.3920 C   0  0  1  0  0  3  0  0  0  0  0  0
  183.8940  178.4610  138.6400 C   0  0  0  0  0  2  0  0  0  0  0  0
  184.0970  177.5030  141.6920 O   0  0  0  0  0  1  0  0  0  0  0  0
  184.5260  178.8300  141.8210 C   0  0  2  0  0  3  0  0  0  0  0  0
  189.4930  177.8030  142.6900 C   0  0  2  0  0  3  0  0  0  0  0  0
  190.4930  176.9330  141.9130 C   0  0  2  0  0  3  0  0  0  0  0  0
  191.9070  177.4990  141.9260 C   0  0  0  0  0  2  0  0  0  0  0  0
  192.4300  177.5030  140.6330 O   0  0  0  0  0  1  0  0  0  0  0  0
  190.0320  176.7560  140.5330 C   0  0  0  0  0  0  0  0  0  0  0  0
  189.6680  176.6170  139.4430 N   0  0  0  0  0  0  0  0  0  0  0  0
  189.9070  178.0500  144.0050 O   0  0  0  0  0  0  0  0  0  0  0  0
  190.5690  176.8850  144.4020 C   0  0  0  0  0  2  0  0  0  0  0  0
  190.8980  176.9210  145.8640 C   0  0  0  0  0  0  0  0  0  0  0  0
  189.8440  177.1390  146.9000 C   0  0  0  0  0  1  0  0  0  0  0  0
  192.0550  176.7690  146.2160 O   0  0  0  0  0  0  0  0  0  0  0  0
  1 20  1  1  0  0  0
  1  3  1  0  0  0  0
  2 15  1  1  0  0  0
  2  1  1  0  0  0  0
  2 10  1  0  0  0  0
  4 14  1  0  0  0  0
  5 12  1  6  0  0  0
  5 19  1  0  0  0  0
  6  9  1  0  0  0  0
  6  4  1  1  0  0  0
  7 14  1  0  0  0  0
  8 11  1  1  0  0  0
  8 16  1  0  0  0  0
  8  5  1  0  0  0  0
  9  3  1  6  0  0  0
  9  7  1  0  0  0  0
 10  6  1  0  0  0  0
 14 13  1  0  0  0  0
 16 15  1  0  0  0  0
 16  2  1  0  0  0  0
 17 11  1  0  0  0  0
 17 12  1  0  0  0  0
 18 19  1  0  0  0  0
 19 10  1  0  0  0  0
 20 26  1  0  0  0  0
 21 22  1  0  0  0  0
 21 20  1  0  0  0  0
 23 22  1  0  0  0  0
 24 21  1  0  0  0  0
 25 24  3  0  0  0  0
 26 27  1  0  0  0  0
 27 28  1  0  0  0  0
 28 30  2  0  0  0  0
 28 29  1  0  0  0  0
M  END
>  <MODEL>
5

>  <REMARK>
 VINA RESULT:      -6.9      2.554      4.118
  Name = 
  7 active torsions:
  status: ('A' for Active; 'I' for Inactive)
    1  A    between atoms: C_1  and  C_22
    2  A    between atoms: C_2  and  C_14
    3  A    between atoms: C_3  and  C_19
    4  A    between atoms: C_14  and  C_20
    5  A    between atoms: C_14  and  C_22
    6  A    between atoms: C_19  and  O_29
    7  A    between atoms: C_22  and  O_29
                            x       y       z     vdW  Elec       q    Type
                         _______ _______ _______ _____ _____    ______ ____

>  <TORSDO>
F 7

$$$$
=
 OpenBabel11052412183D

 30 34  0  0  1  0  0  0  0  0999 V2000
  188.0580  176.9990  142.8370 C   0  0  2  0  0  3  0  0  0  0  0  0
  187.1400  178.0150  142.0840 C   0  0  1  0  0  0  0  0  0  0  0  0
  187.5280  176.6090  144.2210 C   0  0  0  0  0  2  0  0  0  0  0  0
  184.9910  179.0590  145.0030 C   0  0  0  0  0  2  0  0  0  0  0  0
  184.9880  179.3960  140.6030 C   0  0  1  0  0  3  0  0  0  0  0  0
  185.6790  178.1320  144.1170 N   0  0  2  0  0  0  0  0  0  0  0  0
  186.4890  177.6580  146.2810 C   0  0  0  0  0  2  0  0  0  0  0  0
  186.0160  178.6280  139.8140 C   0  0  2  0  0  3  0  0  0  0  0  0
  186.8940  177.8330  144.8420 C   0  0  1  0  0  3  0  0  0  0  0  0
  185.9940  178.7640  142.8300 C   0  0  2  0  0  3  0  0  0  0  0  0
  185.2990  177.7490  139.0190 O   0  0  0  0  0  0  0  0  0  0  0  0
  183.8210  179.3470  139.8380 O   0  0  0  0  0  0  0  0  0  0  0  0
  184.2440  177.9530  146.9690 F   0  0  0  0  0  0  0  0  0  0  0  0
  185.3250  178.6220  146.4240 C   0  0  2  0  0  3  0  0  0  0  0  0
  187.8780  178.8900  141.2640 O   0  0  0  0  0  0  0  0  0  0  0  0
  187.1300  177.9080  140.5890 C   0  0  1  0  0  3  0  0  0  0  0  0
  184.0910  178.4330  138.7970 C   0  0  0  0  0  2  0  0  0  0  0  0
  184.1750  177.5080  141.8650 O   0  0  0  0  0  1  0  0  0  0  0  0
  184.7210  178.7930  141.9800 C   0  0  2  0  0  3  0  0  0  0  0  0
  189.5640  177.3330  142.9220 C   0  0  2  0  0  3  0  0  0  0  0  0
  189.9720  178.2000  144.1230 C   0  0  2  0  0  3  0  0  0  0  0  0
  190.7950  179.4170  143.7240 C   0  0  0  0  0  2  0  0  0  0  0  0
  192.0580  179.3520  144.3120 O   0  0  0  0  0  1  0  0  0  0  0  0
  190.7090  177.3880  145.0960 C   0  0  0  0  0  0  0  0  0  0  0  0
  191.2930  176.7480  145.8640 N   0  0  0  0  0  0  0  0  0  0  0  0
  190.0700  177.8240  141.7120 O   0  0  0  0  0  0  0  0  0  0  0  0
  190.7770  176.7550  141.1530 C   0  0  0  0  0  2  0  0  0  0  0  0
  190.5710  176.6850  139.6700 C   0  0  0  0  0  0  0  0  0  0  0  0
  190.1360  177.8770  138.8820 C   0  0  0  0  0  1  0  0  0  0  0  0
  190.7610  175.6270  139.0940 O   0  0  0  0  0  0  0  0  0  0  0  0
  1 20  1  1  0  0  0
  1  3  1  0  0  0  0
  2 15  1  1  0  0  0
  2 10  1  0  0  0  0
  2  1  1  0  0  0  0
  4 14  1  0  0  0  0
  5 12  1  6  0  0  0
  5 19  1  0  0  0  0
  6  9  1  0  0  0  0
  6  4  1  1  0  0  0
  7 14  1  0  0  0  0
  8 11  1  1  0  0  0
  8 16  1  0  0  0  0
  8  5  1  0  0  0  0
  9  3  1  6  0  0  0
  9  7  1  0  0  0  0
 10  6  1  0  0  0  0
 14 13  1  0  0  0  0
 16 15  1  0  0  0  0
 16  2  1  0  0  0  0
 17 11  1  0  0  0  0
 17 12  1  0  0  0  0
 18 19  1  0  0  0  0
 19 10  1  0  0  0  0
 20 21  1  0  0  0  0
 21 24  1  0  0  0  0
 22 21  1  0  0  0  0
 22 23  1  0  0  0  0
 24 25  3  0  0  0  0
 26 20  1  0  0  0  0
 27 26  1  0  0  0  0
 28 27  1  0  0  0  0
 29 28  1  0  0  0  0
 30 28  2  0  0  0  0
M  END
>  <MODEL>
6

>  <REMARK>
 VINA RESULT:      -6.7      2.345      4.663
  Name = 
  7 active torsions:
  status: ('A' for Active; 'I' for Inactive)
    1  A    between atoms: C_1  and  C_22
    2  A    between atoms: C_2  and  C_14
    3  A    between atoms: C_3  and  C_19
    4  A    between atoms: C_14  and  C_20
    5  A    between atoms: C_14  and  C_22
    6  A    between atoms: C_19  and  O_29
    7  A    between atoms: C_22  and  O_29
                            x       y       z     vdW  Elec       q    Type
                         _______ _______ _______ _____ _____    ______ ____

>  <TORSDO>
F 7

$$$$
=
 OpenBabel11052412183D

 30 34  0  0  1  0  0  0  0  0999 V2000
  189.6420  177.9460  141.1500 C   0  0  2  0  0  3  0  0  0  0  0  0
  189.6460  177.1610  142.5010 C   0  0  1  0  0  0  0  0  0  0  0  0
  188.4560  178.9050  141.0060 C   0  0  0  0  0  2  0  0  0  0  0  0
  186.1090  177.9200  143.5700 C   0  0  0  0  0  2  0  0  0  0  0  0
  189.8160  176.2860  145.3180 C   0  0  1  0  0  3  0  0  0  0  0  0
  187.4430  178.2130  143.0660 N   0  0  2  0  0  0  0  0  0  0  0  0
  185.9550  178.9910  141.4100 C   0  0  0  0  0  2  0  0  0  0  0  0
  191.0880  176.3440  144.5120 C   0  0  2  0  0  3  0  0  0  0  0  0
  187.2450  178.2510  141.6340 C   0  0  1  0  0  3  0  0  0  0  0  0
  188.3900  177.1500  143.4250 C   0  0  2  0  0  3  0  0  0  0  0  0
  191.9580  177.1370  145.2410 O   0  0  0  0  0  0  0  0  0  0  0  0
  190.2040  176.5240  146.6380 O   0  0  0  0  0  0  0  0  0  0  0  0
  184.6520  179.7640  143.2270 F   0  0  0  0  0  0  0  0  0  0  0  0
  185.1320  178.6140  142.6290 C   0  0  2  0  0  3  0  0  0  0  0  0
  190.1940  175.8710  142.3630 O   0  0  0  0  0  0  0  0  0  0  0  0
  190.9940  176.8040  143.0490 C   0  0  1  0  0  3  0  0  0  0  0  0
  191.5590  176.9120  146.5700 C   0  0  0  0  0  2  0  0  0  0  0  0
  189.2780  178.6280  145.1110 O   0  0  0  0  0  1  0  0  0  0  0  0
  188.7920  177.3330  144.8910 C   0  0  2  0  0  3  0  0  0  0  0  0
  189.8200  177.1260  139.8530 C   0  0  2  0  0  3  0  0  0  0  0  0
  191.2340  176.5720  139.6210 C   0  0  2  0  0  3  0  0  0  0  0  0
  192.3280  177.5430  140.0470 C   0  0  0  0  0  2  0  0  0  0  0  0
  193.5580  177.1270  139.5380 O   0  0  0  0  0  1  0  0  0  0  0  0
  191.4020  176.2080  138.2110 C   0  0  0  0  0  0  0  0  0  0  0  0
  191.5360  175.9200  137.0980 N   0  0  0  0  0  0  0  0  0  0  0  0
  189.3150  177.7920  138.7290 O   0  0  0  0  0  0  0  0  0  0  0  0
  188.2100  177.0370  138.3250 C   0  0  0  0  0  2  0  0  0  0  0  0
  187.1540  177.9070  137.7120 C   0  0  0  0  0  0  0  0  0  0  0  0
  185.7360  177.4520  137.5920 C   0  0  0  0  0  1  0  0  0  0  0  0
  187.4610  179.0130  137.3010 O   0  0  0  0  0  0  0  0  0  0  0  0
  1 20  1  6  0  0  0
  1  2  1  0  0  0  0
  2 15  1  6  0  0  0
  2 16  1  0  0  0  0
  2 10  1  0  0  0  0
  3  1  1  0  0  0  0
  5 12  1  1  0  0  0
  6 10  1  0  0  0  0
  6  4  1  1  0  0  0
  7  9  1  0  0  0  0
  7 14  1  0  0  0  0
  8 11  1  1  0  0  0
  8  5  1  0  0  0  0
  9  3  1  6  0  0  0
  9  6  1  0  0  0  0
 10 19  1  0  0  0  0
 11 17  1  0  0  0  0
 14 13  1  0  0  0  0
 14  4  1  0  0  0  0
 15 16  1  0  0  0  0
 16  8  1  0  0  0  0
 17 12  1  0  0  0  0
 19 18  1  0  0  0  0
 19  5  1  0  0  0  0
 21 20  1  0  0  0  0
 21 22  1  0  0  0  0
 23 22  1  0  0  0  0
 24 21  1  0  0  0  0
 25 24  3  0  0  0  0
 26 20  1  0  0  0  0
 27 26  1  0  0  0  0
 28 27  1  0  0  0  0
 29 28  1  0  0  0  0
 30 28  2  0  0  0  0
M  END
>  <MODEL>
7

>  <REMARK>
 VINA RESULT:      -6.5      2.052      6.011
  Name = 
  7 active torsions:
  status: ('A' for Active; 'I' for Inactive)
    1  A    between atoms: C_1  and  C_22
    2  A    between atoms: C_2  and  C_14
    3  A    between atoms: C_3  and  C_19
    4  A    between atoms: C_14  and  C_20
    5  A    between atoms: C_14  and  C_22
    6  A    between atoms: C_19  and  O_29
    7  A    between atoms: C_22  and  O_29
                            x       y       z     vdW  Elec       q    Type
                         _______ _______ _______ _____ _____    ______ ____

>  <TORSDO>
F 7

$$$$
=
 OpenBabel11052412183D

 30 34  0  0  1  0  0  0  0  0999 V2000
  187.6620  177.3180  143.8100 C   0  0  2  0  0  3  0  0  0  0  0  0
  189.0220  177.4940  144.5590 C   0  0  1  0  0  0  0  0  0  0  0  0
  187.8210  176.8570  142.3570 C   0  0  0  0  0  2  0  0  0  0  0  0
  191.3000  177.4020  141.5530 C   0  0  0  0  0  2  0  0  0  0  0  0
  191.6060  177.1450  145.9480 C   0  0  1  0  0  3  0  0  0  0  0  0
  190.2150  176.9640  142.4190 N   0  0  2  0  0  0  0  0  0  0  0  0
  189.2330  177.3240  140.3050 C   0  0  0  0  0  2  0  0  0  0  0  0
  190.3410  177.0470  146.7610 C   0  0  2  0  0  3  0  0  0  0  0  0
  189.0470  177.5320  141.7840 C   0  0  1  0  0  3  0  0  0  0  0  0
  190.3710  177.5020  143.7770 C   0  0  2  0  0  3  0  0  0  0  0  0
  190.4090  175.8280  147.4140 O   0  0  0  0  0  0  0  0  0  0  0  0
  192.5290  176.3240  146.5990 O   0  0  0  0  0  0  0  0  0  0  0  0
  191.1910  176.3130  139.4450 F   0  0  0  0  0  0  0  0  0  0  0  0
  190.7380  177.4210  140.1370 C   0  0  2  0  0  3  0  0  0  0  0  0
  188.9730  178.5310  145.5100 O   0  0  0  0  0  0  0  0  0  0  0  0
  189.0010  177.2240  146.0320 C   0  0  1  0  0  3  0  0  0  0  0  0
  191.7900  175.6310  147.5820 C   0  0  0  0  0  2  0  0  0  0  0  0
  191.0990  175.3090  144.4680 O   0  0  0  0  0  1  0  0  0  0  0  0
  191.4280  176.6700  144.5080 C   0  0  2  0  0  3  0  0  0  0  0  0
  186.6530  178.4860  143.8880 C   0  0  2  0  0  3  0  0  0  0  0  0
  185.4410  178.2390  144.7990 C   0  0  2  0  0  3  0  0  0  0  0  0
  184.2890  179.1970  144.5260 C   0  0  0  0  0  2  0  0  0  0  0  0
  183.3430  179.1080  145.5470 O   0  0  0  0  0  1  0  0  0  0  0  0
  185.8480  178.3260  146.2050 C   0  0  0  0  0  0  0  0  0  0  0  0
  186.1680  178.3950  147.3150 N   0  0  0  0  0  0  0  0  0  0  0  0
  186.2840  178.9550  142.6210 O   0  0  0  0  0  0  0  0  0  0  0  0
  185.2010  178.1570  142.2390 C   0  0  0  0  0  2  0  0  0  0  0  0
  184.6010  178.6380  140.9530 C   0  0  0  0  0  0  0  0  0  0  0  0
  183.3950  177.9860  140.3580 C   0  0  0  0  0  1  0  0  0  0  0  0
  185.1100  179.5840  140.3770 O   0  0  0  0  0  0  0  0  0  0  0  0
  1 20  1  6  0  0  0
  1  2  1  0  0  0  0
  2 15  1  1  0  0  0
  2 16  1  0  0  0  0
  3  1  1  0  0  0  0
  5 12  1  1  0  0  0
  5  8  1  0  0  0  0
  6  4  1  6  0  0  0
  6 10  1  0  0  0  0
  8 11  1  6  0  0  0
  9  7  1  6  0  0  0
  9  3  1  0  0  0  0
  9  6  1  0  0  0  0
 10 19  1  0  0  0  0
 10  2  1  0  0  0  0
 11 17  1  0  0  0  0
 12 17  1  0  0  0  0
 13 14  1  0  0  0  0
 14  7  1  0  0  0  0
 14  4  1  0  0  0  0
 15 16  1  0  0  0  0
 16  8  1  0  0  0  0
 18 19  1  0  0  0  0
 19  5  1  0  0  0  0
 20 21  1  0  0  0  0
 21 24  1  0  0  0  0
 22 21  1  0  0  0  0
 22 23  1  0  0  0  0
 24 25  3  0  0  0  0
 26 20  1  0  0  0  0
 27 26  1  0  0  0  0
 28 27  1  0  0  0  0
 29 28  1  0  0  0  0
 30 28  2  0  0  0  0
M  END
>  <MODEL>
8

>  <REMARK>
 VINA RESULT:      -6.5      2.849      6.430
  Name = 
  7 active torsions:
  status: ('A' for Active; 'I' for Inactive)
    1  A    between atoms: C_1  and  C_22
    2  A    between atoms: C_2  and  C_14
    3  A    between atoms: C_3  and  C_19
    4  A    between atoms: C_14  and  C_20
    5  A    between atoms: C_14  and  C_22
    6  A    between atoms: C_19  and  O_29
    7  A    between atoms: C_22  and  O_29
                            x       y       z     vdW  Elec       q    Type
                         _______ _______ _______ _____ _____    ______ ____

>  <TORSDO>
F 7

$$$$
=
 OpenBabel11052412183D

 30 34  0  0  1  0  0  0  0  0999 V2000
  187.5860  177.2030  143.0050 C   0  0  2  0  0  3  0  0  0  0  0  0
  186.4590  178.2640  143.2230 C   0  0  1  0  0  0  0  0  0  0  0  0
  188.0890  176.5720  144.3080 C   0  0  0  0  0  2  0  0  0  0  0  0
  186.8590  178.7110  146.9470 C   0  0  0  0  0  2  0  0  0  0  0  0
  183.9510  179.7200  143.7860 C   0  0  1  0  0  3  0  0  0  0  0  0
  186.7300  177.9750  145.6980 N   0  0  2  0  0  0  0  0  0  0  0  0
  188.7440  177.2260  146.6670 C   0  0  0  0  0  2  0  0  0  0  0  0
  184.1480  179.1480  142.4060 C   0  0  2  0  0  3  0  0  0  0  0  0
  188.0990  177.6440  145.3740 C   0  0  1  0  0  3  0  0  0  0  0  0
  186.1440  178.8170  144.6460 C   0  0  2  0  0  3  0  0  0  0  0  0
  183.0350  178.3600  142.1650 O   0  0  0  0  0  0  0  0  0  0  0  0
  182.5700  179.7170  143.9940 O   0  0  0  0  0  0  0  0  0  0  0  0
  187.5470  177.2720  148.7080 F   0  0  0  0  0  0  0  0  0  0  0  0
  188.0280  178.0820  147.6960 C   0  0  2  0  0  3  0  0  0  0  0  0
  186.5140  179.2990  142.2690 O   0  0  0  0  0  0  0  0  0  0  0  0
  185.4520  178.3870  142.1210 C   0  0  1  0  0  3  0  0  0  0  0  0
  182.0270  178.9930  142.9120 C   0  0  0  0  0  2  0  0  0  0  0  0
  184.0760  177.6140  144.9540 O   0  0  0  0  0  1  0  0  0  0  0  0
  184.6320  178.8970  144.8760 C   0  0  2  0  0  3  0  0  0  0  0  0
  188.7840  177.6130  142.1190 C   0  0  2  0  0  3  0  0  0  0  0  0
  188.7920  176.9970  140.7110 C   0  0  2  0  0  3  0  0  0  0  0  0
  190.1970  176.7060  140.2000 C   0  0  0  0  0  2  0  0  0  0  0  0
  190.6120  177.7240  139.3430 O   0  0  0  0  0  1  0  0  0  0  0  0
  188.0870  177.8800  139.7770 C   0  0  0  0  0  0  0  0  0  0  0  0
  187.5290  178.5770  139.0400 N   0  0  0  0  0  0  0  0  0  0  0  0
  190.0100  177.4600  142.7780 O   0  0  0  0  0  0  0  0  0  0  0  0
  190.3860  178.7530  143.1510 C   0  0  0  0  0  2  0  0  0  0  0  0
  191.4480  178.7250  144.2090 C   0  0  0  0  0  0  0  0  0  0  0  0
  191.7100  177.5010  145.0250 C   0  0  0  0  0  1  0  0  0  0  0  0
  192.1130  179.7270  144.4090 O   0  0  0  0  0  0  0  0  0  0  0  0
  1 20  1  1  0  0  0
  1  2  1  0  0  0  0
  1  3  1  0  0  0  0
  2 15  1  6  0  0  0
  2 10  1  0  0  0  0
  4 14  1  0  0  0  0
  5 12  1  1  0  0  0
  5 19  1  0  0  0  0
  6  4  1  1  0  0  0
  7 14  1  0  0  0  0
  8 11  1  1  0  0  0
  8  5  1  0  0  0  0
  9  3  1  6  0  0  0
  9  6  1  0  0  0  0
  9  7  1  0  0  0  0
 10 19  1  0  0  0  0
 10  6  1  0  0  0  0
 11 17  1  0  0  0  0
 14 13  1  0  0  0  0
 16 15  1  0  0  0  0
 16  8  1  0  0  0  0
 16  2  1  0  0  0  0
 17 12  1  0  0  0  0
 19 18  1  0  0  0  0
 20 26  1  0  0  0  0
 21 20  1  0  0  0  0
 22 21  1  0  0  0  0
 23 22  1  0  0  0  0
 24 21  1  0  0  0  0
 25 24  3  0  0  0  0
 26 27  1  0  0  0  0
 27 28  1  0  0  0  0
 28 30  2  0  0  0  0
 28 29  1  0  0  0  0
M  END
>  <MODEL>
9

>  <REMARK>
 VINA RESULT:      -6.5      2.953      5.890
  Name = 
  7 active torsions:
  status: ('A' for Active; 'I' for Inactive)
    1  A    between atoms: C_1  and  C_22
    2  A    between atoms: C_2  and  C_14
    3  A    between atoms: C_3  and  C_19
    4  A    between atoms: C_14  and  C_20
    5  A    between atoms: C_14  and  C_22
    6  A    between atoms: C_19  and  O_29
    7  A    between atoms: C_22  and  O_29
                            x       y       z     vdW  Elec       q    Type
                         _______ _______ _______ _____ _____    ______ ____

>  <TORSDO>
F 7

$$$$
