=
 OpenBabel11052414363D

 32 36  0  0  1  0  0  0  0  0999 V2000
  187.1780  177.8500  140.1700 C   0  0  1  0  0  3  0  0  0  0  0  0
  185.1150  179.1920  141.0120 C   0  0  2  0  0  3  0  0  0  0  0  0
  188.6910  177.7830  140.4300 C   0  0  0  0  0  2  0  0  0  0  0  0
  186.5820  178.7820  141.2270 C   0  0  1  0  0  3  0  0  0  0  0  0
  184.1840  178.2270  141.7740 C   0  0  2  0  0  3  0  0  0  0  0  0
  180.3010  179.3880  137.9900 N   0  0  0  0  0  1  0  0  0  0  0  0
  184.7260  179.3200  139.5720 C   0  0  1  0  0  3  0  0  0  0  0  0
  181.2740  177.9300  139.6870 C   0  0  0  0  0  2  0  0  0  0  0  0
  182.4730  177.5020  140.5490 C   0  0  0  0  0  2  0  0  0  0  0  0
  186.7350  178.0450  142.5580 C   0  0  2  0  0  3  0  0  0  0  0  0
  182.8130  178.4530  141.5270 O   0  0  0  0  0  0  0  0  0  0  0  0
  185.9090  178.6200  143.5400 O   0  0  0  0  0  0  0  0  0  0  0  0
  188.2100  178.0230  142.9300 C   0  0  0  0  0  2  0  0  0  0  0  0
  185.3160  178.3670  138.5710 C   0  0  0  0  0  2  0  0  0  0  0  0
  186.8340  178.3050  138.7470 C   0  0  2  0  0  3  0  0  0  0  0  0
  183.6150  179.9310  139.3610 N   0  0  0  0  0  2  0  0  0  0  0  0
  184.5690  178.2050  143.2880 C   0  0  1  0  0  3  0  0  0  0  0  0
  188.9780  177.2480  141.8450 C   0  0  0  0  0  2  0  0  0  0  0  0
  181.3620  179.2930  138.9740 C   0  0  1  0  0  3  0  0  0  0  0  0
  182.7030  179.5910  138.3070 C   0  0  0  0  0  2  0  0  0  0  0  0
  189.0140  177.0310  135.9000 C   0  0  0  0  0  0  0  0  0  0  0  0
  190.0020  177.4810  135.0880 F   0  0  0  0  0  0  0  0  0  0  0  0
  187.4330  177.4010  137.7060 C   0  0  0  0  0  0  0  0  0  0  0  0
  188.5560  175.7170  135.7670 C   0  0  0  0  0  3  0  0  0  0  0  0
  186.9790  176.0800  137.5650 C   0  0  0  0  0  3  0  0  0  0  0  0
  188.4550  177.8750  136.8680 C   0  0  0  0  0  0  0  0  0  0  0  0
  188.9190  179.1800  136.9930 O   0  0  0  0  0  1  0  0  0  0  0  0
  187.5350  175.2350  136.6000 C   0  0  0  0  0  0  0  0  0  0  0  0
  186.0440  173.4070  137.3430 C   0  0  0  0  0  1  0  0  0  0  0  0
  187.0550  173.9270  136.4910 O   0  0  0  0  0  0  0  0  0  0  0  0
  183.6330  179.0570  144.1360 C   0  0  0  0  0  2  0  0  0  0  0  0
  184.0330  179.0190  145.4710 O   0  0  0  0  0  1  0  0  0  0  0  0
  1  3  1  6  0  0  0
  1  4  1  0  0  0  0
  2  4  1  0  0  0  0
  2  5  1  0  0  0  0
  3 18  1  0  0  0  0
  4 10  1  0  0  0  0
  5 17  1  0  0  0  0
  6 19  1  0  0  0  0
  7  2  1  0  0  0  0
  8  9  1  0  0  0  0
  9 11  1  0  0  0  0
 10 13  1  0  0  0  0
 10 12  1  0  0  0  0
 11  5  1  0  0  0  0
 14 15  1  0  0  0  0
 14  7  1  0  0  0  0
 15  1  1  0  0  0  0
 16  7  1  0  0  0  0
 17 12  1  0  0  0  0
 17 31  1  0  0  0  0
 18 13  1  0  0  0  0
 19  8  1  0  0  0  0
 20 19  1  0  0  0  0
 20 16  1  0  0  0  0
 21 26  1  0  0  0  0
 22 21  1  0  0  0  0
 23 15  1  0  0  0  0
 24 21  2  0  0  0  0
 24 28  1  0  0  0  0
 25 23  1  0  0  0  0
 26 27  1  0  0  0  0
 26 23  2  0  0  0  0
 28 25  2  0  0  0  0
 30 28  1  0  0  0  0
 30 29  1  0  0  0  0
 31 32  1  0  0  0  0
M  END
>  <MODEL>
1

>  <REMARK>
 VINA RESULT:      -7.3      0.000      0.000
  Name = 
  3 active torsions:
  status: ('A' for Active; 'I' for Inactive)
    1  A    between atoms: C_13  and  C_29
    2  A    between atoms: O_15  and  C_26
    3  A    between atoms: C_16  and  C_27
                            x       y       z     vdW  Elec       q    Type
                         _______ _______ _______ _____ _____    ______ ____

>  <TORSDO>
F 3

$$$$
=
 OpenBabel11052414363D

 32 36  0  0  1  0  0  0  0  0999 V2000
  187.4810  178.0580  140.5150 C   0  0  1  0  0  3  0  0  0  0  0  0
  188.3830  177.7770  138.0910 C   0  0  2  0  0  3  0  0  0  0  0  0
  186.5550  179.0030  141.2950 C   0  0  0  0  0  2  0  0  0  0  0  0
  187.3590  178.4300  139.0360 C   0  0  1  0  0  3  0  0  0  0  0  0
  187.7970  176.4780  137.5010 C   0  0  2  0  0  3  0  0  0  0  0  0
  193.0070  174.6460  137.0170 N   0  0  0  0  0  1  0  0  0  0  0  0
  189.7240  177.5490  138.7140 C   0  0  1  0  0  3  0  0  0  0  0  0
  190.6070  174.2570  137.2150 C   0  0  0  0  0  2  0  0  0  0  0  0
  189.2030  174.7550  137.5930 C   0  0  0  0  0  2  0  0  0  0  0  0
  185.9380  178.0370  138.6300 C   0  0  2  0  0  3  0  0  0  0  0  0
  188.7180  175.7460  136.7230 O   0  0  0  0  0  0  0  0  0  0  0  0
  185.8210  177.9860  137.2290 O   0  0  0  0  0  0  0  0  0  0  0  0
  184.9640  178.9970  139.2940 C   0  0  0  0  0  2  0  0  0  0  0  0
  189.7970  177.1600  140.1650 C   0  0  0  0  0  2  0  0  0  0  0  0
  188.9350  178.1080  140.9990 C   0  0  2  0  0  3  0  0  0  0  0  0
  190.6700  177.2800  137.8870 N   0  0  0  0  0  2  0  0  0  0  0  0
  186.4470  176.7870  136.7770 C   0  0  1  0  0  3  0  0  0  0  0  0
  185.0970  178.8540  140.8200 C   0  0  0  0  0  2  0  0  0  0  0  0
  191.7210  175.3130  137.0760 C   0  0  1  0  0  3  0  0  0  0  0  0
  191.7480  176.3770  138.1700 C   0  0  0  0  0  2  0  0  0  0  0  0
  190.4320  177.3700  144.4180 C   0  0  0  0  0  0  0  0  0  0  0  0
  191.6510  177.3030  145.0090 F   0  0  0  0  0  0  0  0  0  0  0  0
  189.0560  177.7600  142.4560 C   0  0  0  0  0  0  0  0  0  0  0  0
  189.2850  177.1170  145.1750 C   0  0  0  0  0  3  0  0  0  0  0  0
  187.9090  177.5040  143.2240 C   0  0  0  0  0  3  0  0  0  0  0  0
  190.3220  177.6920  143.0600 C   0  0  0  0  0  0  0  0  0  0  0  0
  191.4700  177.9430  142.3170 O   0  0  0  0  0  1  0  0  0  0  0  0
  188.0160  177.1820  144.5800 C   0  0  0  0  0  0  0  0  0  0  0  0
  186.2990  177.8780  146.2190 C   0  0  0  0  0  1  0  0  0  0  0  0
  186.8500  176.9350  145.3100 O   0  0  0  0  0  0  0  0  0  0  0  0
  186.6060  176.8680  135.2640 C   0  0  0  0  0  2  0  0  0  0  0  0
  186.8060  178.1930  134.8770 O   0  0  0  0  0  1  0  0  0  0  0  0
  1 15  1  0  0  0  0
  1  3  1  1  0  0  0
  2  7  1  0  0  0  0
  2  4  1  0  0  0  0
  4  1  1  0  0  0  0
  5  2  1  0  0  0  0
  6 19  1  0  0  0  0
  7 14  1  0  0  0  0
  8  9  1  0  0  0  0
 10  4  1  0  0  0  0
 10 13  1  0  0  0  0
 11  5  1  0  0  0  0
 11  9  1  0  0  0  0
 12 10  1  0  0  0  0
 13 18  1  0  0  0  0
 14 15  1  0  0  0  0
 15 23  1  0  0  0  0
 16 20  1  0  0  0  0
 16  7  1  0  0  0  0
 17 12  1  0  0  0  0
 17  5  1  0  0  0  0
 18  3  1  0  0  0  0
 19  8  1  0  0  0  0
 19 20  1  0  0  0  0
 21 22  1  0  0  0  0
 21 24  1  0  0  0  0
 23 26  1  0  0  0  0
 23 25  2  0  0  0  0
 25 28  1  0  0  0  0
 26 21  2  0  0  0  0
 27 26  1  0  0  0  0
 28 24  2  0  0  0  0
 28 30  1  0  0  0  0
 30 29  1  0  0  0  0
 31 17  1  0  0  0  0
 32 31  1  0  0  0  0
M  END
>  <MODEL>
2

>  <REMARK>
 VINA RESULT:      -6.9      3.694      7.596
  Name = 
  3 active torsions:
  status: ('A' for Active; 'I' for Inactive)
    1  A    between atoms: C_13  and  C_29
    2  A    between atoms: O_15  and  C_26
    3  A    between atoms: C_16  and  C_27
                            x       y       z     vdW  Elec       q    Type
                         _______ _______ _______ _____ _____    ______ ____

>  <TORSDO>
F 3

$$$$
=
 OpenBabel11052414363D

 32 36  0  0  1  0  0  0  0  0999 V2000
  185.1280  178.4520  142.9360 C   0  0  1  0  0  3  0  0  0  0  0  0
  183.7540  179.0330  140.8050 C   0  0  2  0  0  3  0  0  0  0  0  0
  185.2940  178.9690  144.3730 C   0  0  0  0  0  2  0  0  0  0  0  0
  183.9500  179.2100  142.3200 C   0  0  1  0  0  3  0  0  0  0  0  0
  182.7630  177.8830  140.5350 C   0  0  2  0  0  3  0  0  0  0  0  0
  185.3340  177.1400  135.6790 N   0  0  0  0  0  1  0  0  0  0  0  0
  185.0320  178.8560  140.0440 C   0  0  1  0  0  3  0  0  0  0  0  0
  183.9670  176.3260  137.5290 C   0  0  0  0  0  2  0  0  0  0  0  0
  183.4680  176.4590  138.9770 C   0  0  0  0  0  2  0  0  0  0  0  0
  182.7110  178.7260  143.0740 C   0  0  2  0  0  3  0  0  0  0  0  0
  182.6240  177.5660  139.1670 O   0  0  0  0  0  0  0  0  0  0  0  0
  181.5400  179.0630  142.3700 O   0  0  0  0  0  0  0  0  0  0  0  0
  182.7590  179.2820  144.4890 C   0  0  0  0  0  2  0  0  0  0  0  0
  186.1540  178.0820  140.6770 C   0  0  0  0  0  2  0  0  0  0  0  0
  186.4020  178.5960  142.0960 C   0  0  2  0  0  3  0  0  0  0  0  0
  184.9300  178.9950  138.7710 N   0  0  0  0  0  2  0  0  0  0  0  0
  181.4130  178.1640  141.2700 C   0  0  1  0  0  3  0  0  0  0  0  0
  184.0110  178.7280  145.1910 C   0  0  0  0  0  2  0  0  0  0  0  0
  184.6810  177.5440  136.9100 C   0  0  1  0  0  3  0  0  0  0  0  0
  185.6910  178.2370  137.8210 C   0  0  0  0  0  2  0  0  0  0  0  0
  189.6900  176.7170  142.4640 C   0  0  0  0  0  0  0  0  0  0  0  0
  190.6990  176.2560  141.6830 F   0  0  0  0  0  0  0  0  0  0  0  0
  187.5660  177.8670  142.7070 C   0  0  0  0  0  0  0  0  0  0  0  0
  189.7400  176.5130  143.8450 C   0  0  0  0  0  3  0  0  0  0  0  0
  187.6240  177.6570  144.0950 C   0  0  0  0  0  3  0  0  0  0  0  0
  188.6060  177.3930  141.8920 C   0  0  0  0  0  0  0  0  0  0  0  0
  188.5680  177.5920  140.5160 O   0  0  0  0  0  1  0  0  0  0  0  0
  188.7050  176.9820  144.6680 C   0  0  0  0  0  0  0  0  0  0  0  0
  187.9950  177.6180  146.9500 C   0  0  0  0  0  1  0  0  0  0  0  0
  188.7260  176.7930  146.0530 O   0  0  0  0  0  0  0  0  0  0  0  0
  180.3430  178.7020  140.3300 C   0  0  0  0  0  2  0  0  0  0  0  0
  180.3770  180.0970  140.3180 O   0  0  0  0  0  1  0  0  0  0  0  0
  1  3  1  1  0  0  0
  2  4  1  0  0  0  0
  3 18  1  0  0  0  0
  4  1  1  0  0  0  0
  4 10  1  0  0  0  0
  5  2  1  0  0  0  0
  5 17  1  0  0  0  0
  6 19  1  0  0  0  0
  7 14  1  0  0  0  0
  7  2  1  0  0  0  0
  8  9  1  0  0  0  0
  9 11  1  0  0  0  0
 10 13  1  0  0  0  0
 11  5  1  0  0  0  0
 12 10  1  0  0  0  0
 13 18  1  0  0  0  0
 14 15  1  0  0  0  0
 15 23  1  0  0  0  0
 15  1  1  0  0  0  0
 16  7  1  0  0  0  0
 17 12  1  0  0  0  0
 19  8  1  0  0  0  0
 19 20  1  0  0  0  0
 20 16  1  0  0  0  0
 21 24  1  0  0  0  0
 22 21  1  0  0  0  0
 23 25  2  0  0  0  0
 24 28  2  0  0  0  0
 25 28  1  0  0  0  0
 26 21  2  0  0  0  0
 26 23  1  0  0  0  0
 27 26  1  0  0  0  0
 28 30  1  0  0  0  0
 30 29  1  0  0  0  0
 31 17  1  0  0  0  0
 32 31  1  0  0  0  0
M  END
>  <MODEL>
3

>  <REMARK>
 VINA RESULT:      -6.8      2.848      5.329
  Name = 
  3 active torsions:
  status: ('A' for Active; 'I' for Inactive)
    1  A    between atoms: C_13  and  C_29
    2  A    between atoms: O_15  and  C_26
    3  A    between atoms: C_16  and  C_27
                            x       y       z     vdW  Elec       q    Type
                         _______ _______ _______ _____ _____    ______ ____

>  <TORSDO>
F 3

$$$$
=
 OpenBabel11052414363D

 32 36  0  0  1  0  0  0  0  0999 V2000
  185.6000  178.1460  139.5170 C   0  0  1  0  0  3  0  0  0  0  0  0
  187.0260  178.9180  141.5510 C   0  0  2  0  0  3  0  0  0  0  0  0
  185.6090  178.2850  137.9880 C   0  0  0  0  0  2  0  0  0  0  0  0
  186.9190  178.7270  140.0280 C   0  0  1  0  0  3  0  0  0  0  0  0
  187.6750  177.6740  142.1910 C   0  0  2  0  0  3  0  0  0  0  0  0
  184.8830  178.9100  146.8190 N   0  0  0  0  0  1  0  0  0  0  0  0
  185.7290  179.2710  142.2110 C   0  0  1  0  0  3  0  0  0  0  0  0
  186.0340  177.3220  145.3690 C   0  0  0  0  0  2  0  0  0  0  0  0
  186.5850  176.9360  143.9860 C   0  0  0  0  0  2  0  0  0  0  0  0
  188.0060  177.7700  139.5380 C   0  0  2  0  0  3  0  0  0  0  0  0
  187.6940  177.7100  143.6020 O   0  0  0  0  0  0  0  0  0  0  0  0
  189.2070  177.9830  140.2400 O   0  0  0  0  0  0  0  0  0  0  0  0
  188.1400  177.9220  138.0310 C   0  0  0  0  0  2  0  0  0  0  0  0
  184.4580  178.6570  141.6920 C   0  0  0  0  0  2  0  0  0  0  0  0
  184.3880  178.8180  140.1730 C   0  0  2  0  0  3  0  0  0  0  0  0
  185.8320  179.7140  143.4120 N   0  0  0  0  0  2  0  0  0  0  0  0
  189.0690  177.4070  141.5370 C   0  0  1  0  0  3  0  0  0  0  0  0
  186.8040  177.5270  137.3780 C   0  0  0  0  0  2  0  0  0  0  0  0
  185.6490  178.7970  145.5930 C   0  0  1  0  0  3  0  0  0  0  0  0
  184.8770  179.4490  144.4480 C   0  0  0  0  0  2  0  0  0  0  0  0
  181.0210  178.5500  138.4210 C   0  0  0  0  0  0  0  0  0  0  0  0
  180.1850  179.3250  137.6860 F   0  0  0  0  0  0  0  0  0  0  0  0
  183.0890  178.2620  139.6600 C   0  0  0  0  0  0  0  0  0  0  0  0
  180.6690  177.2260  138.6970 C   0  0  0  0  0  3  0  0  0  0  0  0
  182.7270  176.9330  139.9330 C   0  0  0  0  0  3  0  0  0  0  0  0
  182.2290  179.0710  138.9000 C   0  0  0  0  0  0  0  0  0  0  0  0
  182.5700  180.3890  138.6180 O   0  0  0  0  0  1  0  0  0  0  0  0
  181.5210  176.4100  139.4560 C   0  0  0  0  0  0  0  0  0  0  0  0
  179.8850  174.6760  140.1130 C   0  0  0  0  0  1  0  0  0  0  0  0
  181.1980  175.0830  139.7500 O   0  0  0  0  0  0  0  0  0  0  0  0
  190.2190  177.8970  142.4060 C   0  0  0  0  0  2  0  0  0  0  0  0
  191.4380  177.5970  141.7970 O   0  0  0  0  0  1  0  0  0  0  0  0
  1  3  1  6  0  0  0
  1  4  1  0  0  0  0
  1 15  1  0  0  0  0
  2  5  1  0  0  0  0
  2  7  1  0  0  0  0
  4  2  1  0  0  0  0
  5 11  1  0  0  0  0
  7 16  1  0  0  0  0
  8 19  1  0  0  0  0
  9  8  1  0  0  0  0
 10  4  1  0  0  0  0
 10 12  1  0  0  0  0
 11  9  1  0  0  0  0
 12 17  1  0  0  0  0
 13 10  1  0  0  0  0
 14  7  1  0  0  0  0
 15 14  1  0  0  0  0
 16 20  1  0  0  0  0
 17  5  1  0  0  0  0
 17 31  1  0  0  0  0
 18  3  1  0  0  0  0
 18 13  1  0  0  0  0
 19  6  1  0  0  0  0
 20 19  1  0  0  0  0
 21 24  2  0  0  0  0
 21 26  1  0  0  0  0
 22 21  1  0  0  0  0
 23 25  1  0  0  0  0
 23 15  1  0  0  0  0
 24 28  1  0  0  0  0
 26 23  2  0  0  0  0
 27 26  1  0  0  0  0
 28 30  1  0  0  0  0
 28 25  2  0  0  0  0
 30 29  1  0  0  0  0
 32 31  1  0  0  0  0
M  END
>  <MODEL>
4

>  <REMARK>
 VINA RESULT:      -6.7      3.217      6.005
  Name = 
  3 active torsions:
  status: ('A' for Active; 'I' for Inactive)
    1  A    between atoms: C_13  and  C_29
    2  A    between atoms: O_15  and  C_26
    3  A    between atoms: C_16  and  C_27
                            x       y       z     vdW  Elec       q    Type
                         _______ _______ _______ _____ _____    ______ ____

>  <TORSDO>
F 3

$$$$
=
 OpenBabel11052414363D

 32 36  0  0  1  0  0  0  0  0999 V2000
  189.8230  177.1410  139.0750 C   0  0  1  0  0  3  0  0  0  0  0  0
  189.6630  178.1960  141.4480 C   0  0  2  0  0  3  0  0  0  0  0  0
  190.7760  177.1600  137.8710 C   0  0  0  0  0  2  0  0  0  0  0  0
  190.5280  177.8760  140.2160 C   0  0  1  0  0  3  0  0  0  0  0  0
  189.8020  177.0690  142.4920 C   0  0  2  0  0  3  0  0  0  0  0  0
  184.7160  178.4070  144.2450 N   0  0  0  0  0  1  0  0  0  0  0  0
  188.2290  178.4800  141.1250 C   0  0  1  0  0  3  0  0  0  0  0  0
  186.5530  176.8200  144.0060 C   0  0  0  0  0  2  0  0  0  0  0  0
  187.8510  176.3790  143.3100 C   0  0  0  0  0  2  0  0  0  0  0  0
  191.7060  176.9860  140.6140 C   0  0  2  0  0  3  0  0  0  0  0  0
  188.9420  177.2170  143.6000 O   0  0  0  0  0  0  0  0  0  0  0  0
  192.2070  177.3610  141.8740 O   0  0  0  0  0  0  0  0  0  0  0  0
  192.7420  177.0310  139.5010 C   0  0  0  0  0  2  0  0  0  0  0  0
  187.5680  177.7150  140.0120 C   0  0  0  0  0  2  0  0  0  0  0  0
  188.4510  177.7500  138.7640 C   0  0  2  0  0  3  0  0  0  0  0  0
  187.5560  179.0240  142.0740 N   0  0  0  0  0  2  0  0  0  0  0  0
  191.3070  176.8790  142.8690 C   0  0  1  0  0  3  0  0  0  0  0  0
  192.1080  176.4670  138.2180 C   0  0  0  0  0  2  0  0  0  0  0  0
  186.0790  178.2680  143.7710 C   0  0  1  0  0  3  0  0  0  0  0  0
  186.1700  178.7550  142.3270 C   0  0  0  0  0  2  0  0  0  0  0  0
  186.4770  177.1170  135.5730 C   0  0  0  0  0  0  0  0  0  0  0  0
  185.8490  177.8240  134.6010 F   0  0  0  0  0  0  0  0  0  0  0  0
  187.7630  177.0410  137.6310 C   0  0  0  0  0  0  0  0  0  0  0  0
  186.4850  175.7210  135.5150 C   0  0  0  0  0  3  0  0  0  0  0  0
  187.7660  175.6380  137.5650 C   0  0  0  0  0  3  0  0  0  0  0  0
  187.1150  177.7800  136.6290 C   0  0  0  0  0  0  0  0  0  0  0  0
  187.1030  179.1700  136.6760 O   0  0  0  0  0  1  0  0  0  0  0  0
  187.1290  174.9730  136.5120 C   0  0  0  0  0  0  0  0  0  0  0  0
  188.3020  172.8220  136.8460 C   0  0  0  0  0  1  0  0  0  0  0  0
  187.1540  173.5770  136.4820 O   0  0  0  0  0  0  0  0  0  0  0  0
  191.6600  177.5360  144.1960 C   0  0  0  0  0  2  0  0  0  0  0  0
  191.6820  176.5800  145.2110 O   0  0  0  0  0  1  0  0  0  0  0  0
  1  3  1  6  0  0  0
  1  4  1  0  0  0  0
  2  5  1  0  0  0  0
  3 18  1  0  0  0  0
  4 10  1  0  0  0  0
  4  2  1  0  0  0  0
  5 17  1  0  0  0  0
  5 11  1  0  0  0  0
  7  2  1  0  0  0  0
  7 16  1  0  0  0  0
  9 11  1  0  0  0  0
  9  8  1  0  0  0  0
 10 12  1  0  0  0  0
 12 17  1  0  0  0  0
 13 10  1  0  0  0  0
 14  7  1  0  0  0  0
 15  1  1  0  0  0  0
 15 14  1  0  0  0  0
 16 20  1  0  0  0  0
 17 31  1  0  0  0  0
 18 13  1  0  0  0  0
 19  8  1  0  0  0  0
 19  6  1  0  0  0  0
 20 19  1  0  0  0  0
 21 26  1  0  0  0  0
 22 21  1  0  0  0  0
 23 15  1  0  0  0  0
 24 21  2  0  0  0  0
 24 28  1  0  0  0  0
 25 23  1  0  0  0  0
 26 27  1  0  0  0  0
 26 23  2  0  0  0  0
 28 25  2  0  0  0  0
 30 28  1  0  0  0  0
 30 29  1  0  0  0  0
 31 32  1  0  0  0  0
M  END
>  <MODEL>
5

>  <REMARK>
 VINA RESULT:      -6.6      3.347      4.860
  Name = 
  3 active torsions:
  status: ('A' for Active; 'I' for Inactive)
    1  A    between atoms: C_13  and  C_29
    2  A    between atoms: O_15  and  C_26
    3  A    between atoms: C_16  and  C_27
                            x       y       z     vdW  Elec       q    Type
                         _______ _______ _______ _____ _____    ______ ____

>  <TORSDO>
F 3

$$$$
=
 OpenBabel11052414363D

 32 36  0  0  1  0  0  0  0  0999 V2000
  188.1360  177.7260  140.6250 C   0  0  1  0  0  3  0  0  0  0  0  0
  186.0260  178.9780  141.4900 C   0  0  2  0  0  3  0  0  0  0  0  0
  189.6440  177.6790  140.9140 C   0  0  0  0  0  2  0  0  0  0  0  0
  187.4970  178.5880  141.7150 C   0  0  1  0  0  3  0  0  0  0  0  0
  185.1010  177.9540  142.1800 C   0  0  2  0  0  3  0  0  0  0  0  0
  181.2710  179.2250  138.3790 N   0  0  0  0  0  1  0  0  0  0  0  0
  185.6630  179.1720  140.0500 C   0  0  1  0  0  3  0  0  0  0  0  0
  182.2420  177.7020  140.0190 C   0  0  0  0  0  2  0  0  0  0  0  0
  183.4330  177.2570  140.8830 C   0  0  0  0  0  2  0  0  0  0  0  0
  187.6400  177.7870  143.0090 C   0  0  2  0  0  3  0  0  0  0  0  0
  183.7310  178.1620  141.9160 O   0  0  0  0  0  0  0  0  0  0  0  0
  186.7800  178.2930  144.0020 O   0  0  0  0  0  0  0  0  0  0  0  0
  189.1060  177.7780  143.4120 C   0  0  0  0  0  2  0  0  0  0  0  0
  186.2950  178.2840  139.0140 C   0  0  0  0  0  2  0  0  0  0  0  0
  187.8100  178.2470  139.2200 C   0  0  2  0  0  3  0  0  0  0  0  0
  184.5430  179.7680  139.8470 N   0  0  0  0  0  2  0  0  0  0  0  0
  185.4550  177.8620  143.7000 C   0  0  1  0  0  3  0  0  0  0  0  0
  189.9140  177.0770  142.3060 C   0  0  0  0  0  2  0  0  0  0  0  0
  182.3140  179.1020  139.3790 C   0  0  1  0  0  3  0  0  0  0  0  0
  183.6610  179.4640  138.7580 C   0  0  0  0  0  2  0  0  0  0  0  0
  189.4410  177.2240  135.9380 C   0  0  0  0  0  0  0  0  0  0  0  0
  189.8210  177.7880  134.7650 F   0  0  0  0  0  0  0  0  0  0  0  0
  188.4510  177.4120  138.1470 C   0  0  0  0  0  0  0  0  0  0  0  0
  189.6520  175.8590  136.1470 C   0  0  0  0  0  3  0  0  0  0  0  0
  188.6670  176.0390  138.3480 C   0  0  0  0  0  3  0  0  0  0  0  0
  188.8420  178.0030  136.9350 C   0  0  0  0  0  0  0  0  0  0  0  0
  188.6370  179.3620  136.7170 O   0  0  0  0  0  1  0  0  0  0  0  0
  189.2650  175.2590  137.3540 C   0  0  0  0  0  0  0  0  0  0  0  0
  188.8360  172.8830  136.8180 C   0  0  0  0  0  1  0  0  0  0  0  0
  189.4620  173.8960  137.5930 O   0  0  0  0  0  0  0  0  0  0  0  0
  184.4830  178.6480  144.5700 C   0  0  0  0  0  2  0  0  0  0  0  0
  184.9940  178.7730  145.8610 O   0  0  0  0  0  1  0  0  0  0  0  0
  1  3  1  1  0  0  0
  1  4  1  0  0  0  0
  2  4  1  0  0  0  0
  2  5  1  0  0  0  0
  3 18  1  0  0  0  0
  4 10  1  0  0  0  0
  5 17  1  0  0  0  0
  6 19  1  0  0  0  0
  7  2  1  0  0  0  0
  8  9  1  0  0  0  0
  9 11  1  0  0  0  0
 10 13  1  0  0  0  0
 10 12  1  0  0  0  0
 11  5  1  0  0  0  0
 14 15  1  0  0  0  0
 14  7  1  0  0  0  0
 15  1  1  0  0  0  0
 16  7  1  0  0  0  0
 17 12  1  0  0  0  0
 17 31  1  0  0  0  0
 18 13  1  0  0  0  0
 19  8  1  0  0  0  0
 20 19  1  0  0  0  0
 20 16  1  0  0  0  0
 21 24  2  0  0  0  0
 21 26  1  0  0  0  0
 22 21  1  0  0  0  0
 23 25  1  0  0  0  0
 23 15  1  0  0  0  0
 24 28  1  0  0  0  0
 26 23  2  0  0  0  0
 27 26  1  0  0  0  0
 28 30  1  0  0  0  0
 28 25  2  0  0  0  0
 29 30  1  0  0  0  0
 31 32  1  0  0  0  0
M  END
>  <MODEL>
6

>  <REMARK>
 VINA RESULT:      -6.4      1.206      1.254
  Name = 
  3 active torsions:
  status: ('A' for Active; 'I' for Inactive)
    1  A    between atoms: C_13  and  C_29
    2  A    between atoms: O_15  and  C_26
    3  A    between atoms: C_16  and  C_27
                            x       y       z     vdW  Elec       q    Type
                         _______ _______ _______ _____ _____    ______ ____

>  <TORSDO>
F 3

$$$$
=
 OpenBabel11052414363D

 32 36  0  0  1  0  0  0  0  0999 V2000
  186.2700  178.3870  143.2840 C   0  0  1  0  0  3  0  0  0  0  0  0
  184.0590  179.3440  142.3030 C   0  0  2  0  0  3  0  0  0  0  0  0
  187.1830  178.6150  144.4980 C   0  0  0  0  0  2  0  0  0  0  0  0
  185.0100  179.2250  143.5070 C   0  0  1  0  0  3  0  0  0  0  0  0
  182.9770  178.2480  142.3790 C   0  0  2  0  0  3  0  0  0  0  0  0
  182.6640  178.5270  136.8500 N   0  0  0  0  0  1  0  0  0  0  0  0
  184.7560  179.3480  140.9780 C   0  0  1  0  0  3  0  0  0  0  0  0
  182.3600  177.3370  138.9580 C   0  0  0  0  0  2  0  0  0  0  0  0
  182.6760  177.1720  140.4530 C   0  0  0  0  0  2  0  0  0  0  0  0
  184.2880  178.5750  144.6880 C   0  0  2  0  0  3  0  0  0  0  0  0
  182.1390  178.2020  141.2450 O   0  0  0  0  0  0  0  0  0  0  0  0
  182.9540  179.0180  144.7570 O   0  0  0  0  0  0  0  0  0  0  0  0
  185.0910  178.8440  145.9510 C   0  0  0  0  0  2  0  0  0  0  0  0
  185.9760  178.4890  140.7950 C   0  0  0  0  0  2  0  0  0  0  0  0
  186.9500  178.7200  141.9510 C   0  0  2  0  0  3  0  0  0  0  0  0
  184.0350  179.7310  139.9860 N   0  0  0  0  0  2  0  0  0  0  0  0
  182.2140  178.3490  143.7380 C   0  0  1  0  0  3  0  0  0  0  0  0
  186.4760  178.1910  145.8000 C   0  0  0  0  0  2  0  0  0  0  0  0
  182.7590  178.6670  138.2900 C   0  0  1  0  0  3  0  0  0  0  0  0
  184.1450  179.1900  138.6620 C   0  0  0  0  0  2  0  0  0  0  0  0
  190.0510  177.2370  140.3200 C   0  0  0  0  0  0  0  0  0  0  0  0
  190.7220  177.3070  139.1440 F   0  0  0  0  0  0  0  0  0  0  0  0
  188.1990  177.9110  141.7380 C   0  0  0  0  0  0  0  0  0  0  0  0
  190.5300  176.4080  141.3380 C   0  0  0  0  0  3  0  0  0  0  0  0
  188.6870  177.0750  142.7550 C   0  0  0  0  0  3  0  0  0  0  0  0
  188.8870  177.9890  140.5160 C   0  0  0  0  0  0  0  0  0  0  0  0
  188.4200  178.8120  139.4970 O   0  0  0  0  0  1  0  0  0  0  0  0
  189.8490  176.3230  142.5620 C   0  0  0  0  0  0  0  0  0  0  0  0
  191.6790  175.3770  143.9310 C   0  0  0  0  0  1  0  0  0  0  0  0
  190.3030  175.5030  143.5990 O   0  0  0  0  0  0  0  0  0  0  0  0
  180.8630  179.0380  143.5940 C   0  0  0  0  0  2  0  0  0  0  0  0
  179.8610  178.2440  144.1500 O   0  0  0  0  0  1  0  0  0  0  0  0
  1  4  1  0  0  0  0
  1  3  1  1  0  0  0
  2  5  1  0  0  0  0
  2  4  1  0  0  0  0
  3 18  1  0  0  0  0
  4 10  1  0  0  0  0
  5 17  1  0  0  0  0
  6 19  1  0  0  0  0
  7  2  1  0  0  0  0
  8  9  1  0  0  0  0
  9 11  1  0  0  0  0
 10 12  1  0  0  0  0
 10 13  1  0  0  0  0
 11  5  1  0  0  0  0
 14  7  1  0  0  0  0
 14 15  1  0  0  0  0
 15  1  1  0  0  0  0
 16  7  1  0  0  0  0
 17 12  1  0  0  0  0
 18 13  1  0  0  0  0
 19 20  1  0  0  0  0
 19  8  1  0  0  0  0
 20 16  1  0  0  0  0
 21 26  2  0  0  0  0
 21 24  1  0  0  0  0
 22 21  1  0  0  0  0
 23 15  1  0  0  0  0
 23 25  2  0  0  0  0
 24 28  2  0  0  0  0
 26 23  1  0  0  0  0
 27 26  1  0  0  0  0
 28 25  1  0  0  0  0
 28 30  1  0  0  0  0
 30 29  1  0  0  0  0
 31 17  1  0  0  0  0
 31 32  1  0  0  0  0
M  END
>  <MODEL>
7

>  <REMARK>
 VINA RESULT:      -6.4      2.766      3.952
  Name = 
  3 active torsions:
  status: ('A' for Active; 'I' for Inactive)
    1  A    between atoms: C_13  and  C_29
    2  A    between atoms: O_15  and  C_26
    3  A    between atoms: C_16  and  C_27
                            x       y       z     vdW  Elec       q    Type
                         _______ _______ _______ _____ _____    ______ ____

>  <TORSDO>
F 3

$$$$
=
 OpenBabel11052414363D

 32 36  0  0  1  0  0  0  0  0999 V2000
  183.0200  178.5360  142.5070 C   0  0  1  0  0  3  0  0  0  0  0  0
  182.6790  178.9070  139.9550 C   0  0  2  0  0  3  0  0  0  0  0  0
  182.3930  179.0000  143.8300 C   0  0  0  0  0  2  0  0  0  0  0  0
  182.1170  179.0420  141.3810 C   0  0  1  0  0  3  0  0  0  0  0  0
  182.2060  177.5790  139.3290 C   0  0  2  0  0  3  0  0  0  0  0  0
  186.8020  177.6950  136.2290 N   0  0  0  0  0  1  0  0  0  0  0  0
  184.1660  179.0630  139.8710 C   0  0  1  0  0  3  0  0  0  0  0  0
  184.9630  176.4960  137.2950 C   0  0  0  0  0  2  0  0  0  0  0  0
  183.8430  176.4360  138.3460 C   0  0  0  0  0  2  0  0  0  0  0  0
  180.8150  178.2520  141.5130 C   0  0  2  0  0  3  0  0  0  0  0  0
  182.7810  177.3130  138.0680 O   0  0  0  0  0  0  0  0  0  0  0  0
  180.0520  178.3540  140.3350 O   0  0  0  0  0  0  0  0  0  0  0  0
  180.0860  178.7280  142.7600 C   0  0  0  0  0  2  0  0  0  0  0  0
  185.0180  178.5280  140.9890 C   0  0  0  0  0  2  0  0  0  0  0  0
  184.4690  179.0080  142.3330 C   0  0  2  0  0  3  0  0  0  0  0  0
  184.6280  179.2430  138.6870 N   0  0  0  0  0  2  0  0  0  0  0  0
  180.6450  177.5100  139.3510 C   0  0  1  0  0  3  0  0  0  0  0  0
  180.9680  178.4330  143.9860 C   0  0  0  0  0  2  0  0  0  0  0  0
  185.5870  177.8740  137.0010 C   0  0  1  0  0  3  0  0  0  0  0  0
  185.8870  178.7270  138.2320 C   0  0  0  0  0  2  0  0  0  0  0  0
  186.0550  178.6270  145.7710 C   0  0  0  0  0  0  0  0  0  0  0  0
  185.9390  179.1530  147.0160 F   0  0  0  0  0  0  0  0  0  0  0  0
  185.3560  178.5280  143.4480 C   0  0  0  0  0  0  0  0  0  0  0  0
  187.0040  177.6300  145.5300 C   0  0  0  0  0  3  0  0  0  0  0  0
  186.3120  177.5270  143.2140 C   0  0  0  0  0  3  0  0  0  0  0  0
  185.2300  179.0770  144.7340 C   0  0  0  0  0  0  0  0  0  0  0  0
  184.2870  180.0690  144.9860 O   0  0  0  0  0  1  0  0  0  0  0  0
  187.1380  177.0750  144.2480 C   0  0  0  0  0  0  0  0  0  0  0  0
  189.1440  176.2600  143.0540 C   0  0  0  0  0  1  0  0  0  0  0  0
  188.0780  176.0770  143.9750 O   0  0  0  0  0  0  0  0  0  0  0  0
  180.0320  177.8430  137.9970 C   0  0  0  0  0  2  0  0  0  0  0  0
  179.9720  179.2270  137.8300 O   0  0  0  0  0  1  0  0  0  0  0  0
  1  3  1  1  0  0  0
  2  4  1  0  0  0  0
  3 18  1  0  0  0  0
  4 10  1  0  0  0  0
  4  1  1  0  0  0  0
  5 17  1  0  0  0  0
  5  2  1  0  0  0  0
  6 19  1  0  0  0  0
  7  2  1  0  0  0  0
  7 14  1  0  0  0  0
  8  9  1  0  0  0  0
 10 13  1  0  0  0  0
 11  9  1  0  0  0  0
 11  5  1  0  0  0  0
 12 10  1  0  0  0  0
 13 18  1  0  0  0  0
 14 15  1  0  0  0  0
 15  1  1  0  0  0  0
 15 23  1  0  0  0  0
 16  7  1  0  0  0  0
 17 12  1  0  0  0  0
 19  8  1  0  0  0  0
 19 20  1  0  0  0  0
 20 16  1  0  0  0  0
 21 22  1  0  0  0  0
 23 26  1  0  0  0  0
 24 21  1  0  0  0  0
 25 23  2  0  0  0  0
 25 28  1  0  0  0  0
 26 27  1  0  0  0  0
 26 21  2  0  0  0  0
 28 24  2  0  0  0  0
 29 30  1  0  0  0  0
 30 28  1  0  0  0  0
 31 17  1  0  0  0  0
 32 31  1  0  0  0  0
M  END
>  <MODEL>
8

>  <REMARK>
 VINA RESULT:      -6.3      3.440      6.663
  Name = 
  3 active torsions:
  status: ('A' for Active; 'I' for Inactive)
    1  A    between atoms: C_13  and  C_29
    2  A    between atoms: O_15  and  C_26
    3  A    between atoms: C_16  and  C_27
                            x       y       z     vdW  Elec       q    Type
                         _______ _______ _______ _____ _____    ______ ____

>  <TORSDO>
F 3

$$$$
=
 OpenBabel11052414363D

 32 36  0  0  1  0  0  0  0  0999 V2000
  185.6520  178.1760  144.1090 C   0  0  1  0  0  3  0  0  0  0  0  0
  187.8950  177.1260  144.9050 C   0  0  2  0  0  3  0  0  0  0  0  0
  184.1740  178.1850  144.5280 C   0  0  0  0  0  2  0  0  0  0  0  0
  186.4290  177.4700  145.2210 C   0  0  1  0  0  3  0  0  0  0  0  0
  188.8170  178.2610  145.3950 C   0  0  2  0  0  3  0  0  0  0  0  0
  192.3700  176.7530  141.4150 N   0  0  0  0  0  1  0  0  0  0  0  0
  188.1420  176.7900  143.4670 C   0  0  1  0  0  3  0  0  0  0  0  0
  191.4610  178.4020  142.9660 C   0  0  0  0  0  2  0  0  0  0  0  0
  190.3260  178.8860  143.8830 C   0  0  0  0  0  2  0  0  0  0  0  0
  186.3540  178.4030  146.4310 C   0  0  2  0  0  3  0  0  0  0  0  0
  190.1680  178.0880  145.0300 O   0  0  0  0  0  0  0  0  0  0  0  0
  187.3220  178.0510  147.3890 O   0  0  0  0  0  0  0  0  0  0  0  0
  184.9290  178.3900  146.9630 C   0  0  0  0  0  2  0  0  0  0  0  0
  187.3750  177.5270  142.4050 C   0  0  0  0  0  2  0  0  0  0  0  0
  185.8830  177.5180  142.7440 C   0  0  2  0  0  3  0  0  0  0  0  0
  189.2710  176.2270  143.2270 N   0  0  0  0  0  2  0  0  0  0  0  0
  188.5910  178.5060  146.9220 C   0  0  1  0  0  3  0  0  0  0  0  0
  183.9920  178.9260  145.8670 C   0  0  0  0  0  2  0  0  0  0  0  0
  191.4120  176.9380  142.4880 C   0  0  1  0  0  3  0  0  0  0  0  0
  190.0380  176.4480  142.0350 C   0  0  0  0  0  2  0  0  0  0  0  0
  185.0360  179.2600  139.4680 C   0  0  0  0  0  0  0  0  0  0  0  0
  185.6620  179.6780  138.3400 F   0  0  0  0  0  0  0  0  0  0  0  0
  185.1070  178.1980  141.6510 C   0  0  0  0  0  0  0  0  0  0  0  0
  183.6610  179.4610  139.6090 C   0  0  0  0  0  3  0  0  0  0  0  0
  183.7240  178.4050  141.7840 C   0  0  0  0  0  3  0  0  0  0  0  0
  185.7620  178.6290  140.4860 C   0  0  0  0  0  0  0  0  0  0  0  0
  187.1300  178.4310  140.3350 O   0  0  0  0  0  1  0  0  0  0  0  0
  182.9970  179.0350  140.7700 C   0  0  0  0  0  0  0  0  0  0  0  0
  180.9680  179.0040  142.1820 C   0  0  0  0  0  1  0  0  0  0  0  0
  181.6230  179.2220  140.9410 O   0  0  0  0  0  0  0  0  0  0  0  0
  189.6760  177.8660  147.7780 C   0  0  0  0  0  2  0  0  0  0  0  0
  189.5760  176.4760  147.7140 O   0  0  0  0  0  1  0  0  0  0  0  0
  1  3  1  1  0  0  0
  1  4  1  0  0  0  0
  2  4  1  0  0  0  0
  2  5  1  0  0  0  0
  3 18  1  0  0  0  0
  4 10  1  0  0  0  0
  5 17  1  0  0  0  0
  6 19  1  0  0  0  0
  7  2  1  0  0  0  0
  8  9  1  0  0  0  0
  9 11  1  0  0  0  0
 10 13  1  0  0  0  0
 10 12  1  0  0  0  0
 11  5  1  0  0  0  0
 14 15  1  0  0  0  0
 14  7  1  0  0  0  0
 15  1  1  0  0  0  0
 16  7  1  0  0  0  0
 17 12  1  0  0  0  0
 17 31  1  0  0  0  0
 18 13  1  0  0  0  0
 19  8  1  0  0  0  0
 20 19  1  0  0  0  0
 20 16  1  0  0  0  0
 21 24  2  0  0  0  0
 21 26  1  0  0  0  0
 22 21  1  0  0  0  0
 23 25  1  0  0  0  0
 23 15  1  0  0  0  0
 24 28  1  0  0  0  0
 26 23  2  0  0  0  0
 27 26  1  0  0  0  0
 28 30  1  0  0  0  0
 28 25  2  0  0  0  0
 30 29  1  0  0  0  0
 32 31  1  0  0  0  0
M  END
>  <MODEL>
9

>  <REMARK>
 VINA RESULT:      -6.2      4.032      6.917
  Name = 
  3 active torsions:
  status: ('A' for Active; 'I' for Inactive)
    1  A    between atoms: C_13  and  C_29
    2  A    between atoms: O_15  and  C_26
    3  A    between atoms: C_16  and  C_27
                            x       y       z     vdW  Elec       q    Type
                         _______ _______ _______ _____ _____    ______ ____

>  <TORSDO>
F 3

$$$$
