=
 OpenBabel11052415053D

 55 60  0  0  1  0  0  0  0  0999 V2000
  181.6850  178.6460  143.0070 C   0  0  0  0  0  3  0  0  0  0  0  0
  184.3200  178.6010  143.9460 C   0  0  0  0  0  0  0  0  0  0  0  0
  184.0600  178.4440  142.5820 C   0  0  0  0  0  3  0  0  0  0  0  0
  181.9440  178.7950  144.3740 C   0  0  0  0  0  3  0  0  0  0  0  0
  182.7430  178.4640  142.1110 C   0  0  0  0  0  0  0  0  0  0  0  0
  183.2610  178.7690  144.8440 C   0  0  0  0  0  3  0  0  0  0  0  0
  182.4730  178.3230  140.6540 C   0  0  0  0  0  2  0  0  0  0  0  0
  180.9770  178.3720  140.3960 C   0  0  0  0  0  2  0  0  0  0  0  0
  180.2160  174.3710  136.9280 S   0  0  0  0  0  0  0  0  0  0  0  0
  181.7610  174.6440  134.6890 C   0  0  0  0  0  1  0  0  0  0  0  0
  180.1650  176.9400  136.3810 C   0  0  0  0  0  0  0  0  0  0  0  0
  179.9620  176.3240  135.0470 C   0  0  0  0  0  2  0  0  0  0  0  0
  180.3380  174.8510  135.1710 C   0  0  2  0  0  3  0  0  0  0  0  0
  180.3130  176.0950  137.3860 C   0  0  0  0  0  0  0  0  0  0  0  0
  180.4080  178.8350  137.9550 N   0  0  0  0  0  0  0  0  0  0  0  0
  180.2700  178.4260  136.5480 C   0  0  0  0  0  2  0  0  0  0  0  0
  180.6210  176.5570  138.7550 C   0  0  0  0  0  0  0  0  0  0  0  0
  180.6750  177.8810  139.0090 C   0  0  0  0  0  0  0  0  0  0  0  0
  180.6730  184.3180  137.0660 C   0  0  0  0  0  0  0  0  0  0  0  0
  181.7180  180.9220  137.9760 C   0  0  0  0  0  2  0  0  0  0  0  0
  179.5040  185.0140  136.4550 C   0  0  0  0  0  1  0  0  0  0  0  0
  180.5230  183.0380  137.6980 N   0  0  0  0  0  0  0  0  0  0  0  0
  179.2440  180.9610  137.5080 C   0  0  0  0  0  2  0  0  0  0  0  0
  179.2010  182.4410  137.8790 C   0  0  0  0  0  2  0  0  0  0  0  0
  181.8050  184.8680  137.0090 O   0  0  0  0  0  0  0  0  0  0  0  0
  181.6660  182.4010  138.3500 C   0  0  0  0  0  2  0  0  0  0  0  0
  180.3700  180.2620  138.2700 C   0  0  0  0  0  3  0  0  0  0  0  0
  180.8590  175.5410  139.8380 C   0  0  0  0  0  2  0  0  0  0  0  0
  178.9320  175.7230  141.3640 N   0  0  0  0  0  1  0  0  0  0  0  0
  179.5410  174.9220  140.3100 C   0  0  2  0  0  3  0  0  0  0  0  0
  179.6650  173.5630  140.6780 O   0  0  0  0  0  0  0  0  0  0  0  0
  179.7180  173.4690  142.0790 C   0  0  0  0  0  1  0  0  0  0  0  0
  185.7250  178.5660  144.4410 C   0  0  0  0  0  2  0  0  0  0  0  0
  185.7410  178.4560  145.8350 O   0  0  0  0  0  0  0  0  0  0  0  0
  187.0750  178.6580  146.2020 C   0  0  0  0  0  2  0  0  0  0  0  0
  187.6210  177.4310  146.9110 C   0  0  0  0  0  2  0  0  0  0  0  0
  188.9830  177.0590  146.3560 C   0  0  0  0  0  2  0  0  0  0  0  0
  188.8420  176.6990  144.8850 C   0  0  0  0  0  2  0  0  0  0  0  0
  191.4400  177.2230  141.3740 C   0  0  2  0  0  0  0  0  0  0  0  0
  188.7300  178.9690  140.9400 C   0  0  0  0  0  2  0  0  0  0  0  0
  189.9170  178.2830  143.1420 C   0  0  2  0  0  0  0  0  0  0  0  0
  191.1720  177.2110  144.9210 O   0  0  0  0  0  1  0  0  0  0  0  0
  188.0680  176.9860  142.1200 F   0  0  0  0  0  0  0  0  0  0  0  0
  188.6140  178.2490  142.2880 C   0  0  2  0  0  3  0  0  0  0  0  0
  190.0910  177.0210  144.0510 C   0  0  1  0  0  0  0  0  0  0  0  0
  191.5870  175.9850  142.2690 C   0  0  0  0  0  2  0  0  0  0  0  0
  190.3640  177.0320  140.3160 C   0  0  0  0  0  0  0  0  0  0  0  0
  192.7640  177.4430  140.6690 C   0  0  0  0  0  1  0  0  0  0  0  0
  189.4870  178.1890  139.8470 C   0  0  1  0  0  3  0  0  0  0  0  0
  190.3780  175.7850  143.1880 C   0  0  0  0  0  2  0  0  0  0  0  0
  189.8520  179.4220  143.9490 O   0  0  0  0  0  1  0  0  0  0  0  0
  190.2570  175.9380  139.7770 O   0  0  0  0  0  0  0  0  0  0  0  0
  191.1740  178.4410  142.2610 C   0  0  0  0  0  2  0  0  0  0  0  0
  188.5500  177.8250  138.6960 C   0  0  0  0  0  2  0  0  0  0  0  0
  187.2500  178.2640  138.9570 O   0  0  0  0  0  1  0  0  0  0  0  0
  1  4  1  0  0  0  0
  2 33  1  0  0  0  0
  2  6  1  0  0  0  0
  3  2  2  0  0  0  0
  4  6  2  0  0  0  0
  5  3  1  0  0  0  0
  5  1  2  0  0  0  0
  7  5  1  0  0  0  0
  8  7  1  0  0  0  0
  9 14  1  0  0  0  0
 11 16  1  0  0  0  0
 11 14  2  0  0  0  0
 12 13  1  0  0  0  0
 12 11  1  0  0  0  0
 13 10  1  1  0  0  0
 13  9  1  0  0  0  0
 14 17  1  0  0  0  0
 15 27  1  0  0  0  0
 15 18  1  0  0  0  0
 16 15  1  0  0  0  0
 17 18  2  0  0  0  0
 17 28  1  0  0  0  0
 18  8  1  0  0  0  0
 19 22  1  0  0  0  0
 20 27  1  0  0  0  0
 20 26  1  0  0  0  0
 21 19  1  0  0  0  0
 22 24  1  0  0  0  0
 22 26  1  0  0  0  0
 23 24  1  0  0  0  0
 23 27  1  0  0  0  0
 25 19  2  0  0  0  0
 28 30  1  0  0  0  0
 30 31  1  0  0  0  0
 30 29  1  1  0  0  0
 31 32  1  0  0  0  0
 33 34  1  0  0  0  0
 34 35  1  0  0  0  0
 35 36  1  0  0  0  0
 37 36  1  0  0  0  0
 38 37  1  0  0  0  0
 39 48  1  6  0  0  0
 39 53  1  0  0  0  0
 39 46  1  0  0  0  0
 40 44  1  0  0  0  0
 41 51  1  1  0  0  0
 41 45  1  0  0  0  0
 44 43  1  6  0  0  0
 44 41  1  0  0  0  0
 45 38  1  0  0  0  0
 45 42  1  1  0  0  0
 46 50  1  0  0  0  0
 47 39  1  0  0  0  0
 49 54  1  6  0  0  0
 49 47  1  0  0  0  0
 49 40  1  0  0  0  0
 50 45  1  0  0  0  0
 52 47  2  0  0  0  0
 53 41  1  0  0  0  0
 54 55  1  0  0  0  0
M  END
>  <MODEL>
1

>  <REMARK>
 VINA RESULT:      -7.3      0.000      0.000
  Name = 
  15 active torsions:
  status: ('A' for Active; 'I' for Inactive)
    1  A    between atoms: C_2  and  C_28
    2  A    between atoms: C_2  and  C_44
    3  A    between atoms: O_4  and  C_40
    4  A    between atoms: C_8  and  C_22
    5  A    between atoms: C_8  and  C_43
    6  A    between atoms: C_11  and  C_38
    7  A    between atoms: C_19  and  C_40
    8  A    between atoms: C_19  and  C_45
    9  A    between atoms: C_20  and  C_22
   10  A    between atoms: C_27  and  C_54
   11  A    between atoms: C_28  and  C_49
   12  A    between atoms: N_33  and  C_52
   13  A    between atoms: C_35  and  C_43
   14  A    between atoms: C_35  and  O_51
   15  A    between atoms: O_51  and  C_54
                            x       y       z     vdW  Elec       q    Type
                         _______ _______ _______ _____ _____    ______ ____

>  <TORSDO>
F 15

$$$$
=
 OpenBabel11052415053D

 55 60  0  0  1  0  0  0  0  0999 V2000
  187.2880  177.7610  143.7170 C   0  0  0  0  0  3  0  0  0  0  0  0
  184.7110  178.6100  143.0340 C   0  0  0  0  0  0  0  0  0  0  0  0
  185.7170  178.5750  142.0640 C   0  0  0  0  0  3  0  0  0  0  0  0
  186.2840  177.8050  144.6900 C   0  0  0  0  0  3  0  0  0  0  0  0
  187.0060  178.1520  142.4040 C   0  0  0  0  0  0  0  0  0  0  0  0
  184.9960  178.2320  144.3500 C   0  0  0  0  0  3  0  0  0  0  0  0
  188.0660  178.0900  141.3610 C   0  0  0  0  0  2  0  0  0  0  0  0
  188.8870  176.8230  141.5310 C   0  0  0  0  0  2  0  0  0  0  0  0
  191.0540  176.4920  136.6520 S   0  0  0  0  0  0  0  0  0  0  0  0
  193.1320  174.7180  136.5670 C   0  0  0  0  0  1  0  0  0  0  0  0
  192.3450  176.8570  138.9090 C   0  0  0  0  0  0  0  0  0  0  0  0
  193.4460  176.7830  137.9180 C   0  0  0  0  0  2  0  0  0  0  0  0
  192.8560  176.2080  136.6350 C   0  0  2  0  0  3  0  0  0  0  0  0
  191.1240  176.7210  138.4210 C   0  0  0  0  0  0  0  0  0  0  0  0
  191.3940  177.1210  141.1800 N   0  0  0  0  0  0  0  0  0  0  0  0
  192.6210  177.0030  140.3750 C   0  0  0  0  0  2  0  0  0  0  0  0
  189.9350  176.6750  139.2960 C   0  0  0  0  0  0  0  0  0  0  0  0
  190.0840  176.8570  140.6250 C   0  0  0  0  0  0  0  0  0  0  0  0
  189.8640  177.6010  146.5050 C   0  0  0  0  0  0  0  0  0  0  0  0
  190.5590  178.5260  143.0240 C   0  0  0  0  0  2  0  0  0  0  0  0
  189.7990  176.3780  147.3560 C   0  0  0  0  0  1  0  0  0  0  0  0
  190.6340  177.6160  145.2940 N   0  0  0  0  0  0  0  0  0  0  0  0
  191.3060  176.1580  143.4470 C   0  0  0  0  0  2  0  0  0  0  0  0
  191.4830  176.4820  144.9280 C   0  0  0  0  0  2  0  0  0  0  0  0
  189.2200  178.6230  146.8600 O   0  0  0  0  0  0  0  0  0  0  0  0
  190.7410  178.8430  144.5060 C   0  0  0  0  0  2  0  0  0  0  0  0
  191.5240  177.4170  142.6050 C   0  0  0  0  0  3  0  0  0  0  0  0
  188.5820  176.4340  138.6860 C   0  0  0  0  0  2  0  0  0  0  0  0
  187.7030  178.6790  138.1730 N   0  0  0  0  0  1  0  0  0  0  0  0
  188.2780  177.4680  137.6000 C   0  0  2  0  0  3  0  0  0  0  0  0
  187.4900  176.9520  136.5450 O   0  0  0  0  0  0  0  0  0  0  0  0
  187.0510  175.6620  136.8880 C   0  0  0  0  0  1  0  0  0  0  0  0
  183.3430  179.0740  142.6660 C   0  0  0  0  0  2  0  0  0  0  0  0
  182.4300  178.7150  143.6620 O   0  0  0  0  0  0  0  0  0  0  0  0
  181.2290  179.3310  143.2960 C   0  0  0  0  0  2  0  0  0  0  0  0
  180.1270  178.2970  143.1470 C   0  0  0  0  0  2  0  0  0  0  0  0
  179.5760  178.3070  141.7330 C   0  0  0  0  0  2  0  0  0  0  0  0
  180.1390  177.1180  140.9700 C   0  0  0  0  0  2  0  0  0  0  0  0
  182.8570  176.7260  137.5330 C   0  0  2  0  0  0  0  0  0  0  0  0
  180.2860  174.7890  137.0600 C   0  0  0  0  0  2  0  0  0  0  0  0
  180.4610  177.0010  138.4030 C   0  0  2  0  0  0  0  0  0  0  0  0
  181.1280  178.9110  139.7450 O   0  0  0  0  0  1  0  0  0  0  0  0
  180.7260  174.7550  139.4200 F   0  0  0  0  0  0  0  0  0  0  0  0
  180.1080  175.4840  138.4140 C   0  0  2  0  0  3  0  0  0  0  0  0
  181.0170  177.5140  139.7730 C   0  0  1  0  0  0  0  0  0  0  0  0
  183.3850  177.2150  138.8880 C   0  0  0  0  0  2  0  0  0  0  0  0
  182.8330  175.2070  137.4490 C   0  0  0  0  0  0  0  0  0  0  0  0
  183.7900  177.2450  136.4580 C   0  0  0  0  0  1  0  0  0  0  0  0
  181.7440  174.4640  136.6800 C   0  0  1  0  0  3  0  0  0  0  0  0
  182.4100  176.9250  140.0330 C   0  0  0  0  0  2  0  0  0  0  0  0
  179.2890  177.6960  138.0970 O   0  0  0  0  0  1  0  0  0  0  0  0
  183.7550  174.5760  137.9470 O   0  0  0  0  0  0  0  0  0  0  0  0
  181.4770  177.3440  137.2930 C   0  0  0  0  0  2  0  0  0  0  0  0
  181.9610  172.9530  136.6110 C   0  0  0  0  0  2  0  0  0  0  0  0
  181.0940  172.2880  137.4820 O   0  0  0  0  0  1  0  0  0  0  0  0
  1  4  1  0  0  0  0
  2  6  1  0  0  0  0
  3  5  1  0  0  0  0
  3  2  2  0  0  0  0
  5  1  2  0  0  0  0
  6  4  2  0  0  0  0
  7  8  1  0  0  0  0
  7  5  1  0  0  0  0
  9 14  1  0  0  0  0
 11 16  1  0  0  0  0
 12 11  1  0  0  0  0
 13 10  1  1  0  0  0
 13  9  1  0  0  0  0
 13 12  1  0  0  0  0
 14 11  2  0  0  0  0
 14 17  1  0  0  0  0
 15 27  1  0  0  0  0
 16 15  1  0  0  0  0
 17 18  2  0  0  0  0
 18 15  1  0  0  0  0
 18  8  1  0  0  0  0
 19 25  2  0  0  0  0
 19 21  1  0  0  0  0
 20 26  1  0  0  0  0
 22 19  1  0  0  0  0
 23 24  1  0  0  0  0
 24 22  1  0  0  0  0
 26 22  1  0  0  0  0
 27 20  1  0  0  0  0
 27 23  1  0  0  0  0
 28 17  1  0  0  0  0
 30 29  1  1  0  0  0
 30 28  1  0  0  0  0
 31 32  1  0  0  0  0
 31 30  1  0  0  0  0
 33  2  1  0  0  0  0
 33 34  1  0  0  0  0
 35 34  1  0  0  0  0
 36 35  1  0  0  0  0
 37 36  1  0  0  0  0
 38 37  1  0  0  0  0
 39 48  1  6  0  0  0
 39 46  1  0  0  0  0
 40 44  1  0  0  0  0
 41 51  1  6  0  0  0
 41 44  1  0  0  0  0
 41 45  1  0  0  0  0
 44 43  1  1  0  0  0
 45 42  1  6  0  0  0
 45 50  1  0  0  0  0
 45 38  1  0  0  0  0
 46 50  1  0  0  0  0
 47 39  1  0  0  0  0
 47 52  2  0  0  0  0
 49 54  1  1  0  0  0
 49 40  1  0  0  0  0
 49 47  1  0  0  0  0
 53 39  1  0  0  0  0
 53 41  1  0  0  0  0
 54 55  1  0  0  0  0
M  END
>  <MODEL>
2

>  <REMARK>
 VINA RESULT:      -7.1      3.868     10.092
  Name = 
  15 active torsions:
  status: ('A' for Active; 'I' for Inactive)
    1  A    between atoms: C_2  and  C_28
    2  A    between atoms: C_2  and  C_44
    3  A    between atoms: O_4  and  C_40
    4  A    between atoms: C_8  and  C_22
    5  A    between atoms: C_8  and  C_43
    6  A    between atoms: C_11  and  C_38
    7  A    between atoms: C_19  and  C_40
    8  A    between atoms: C_19  and  C_45
    9  A    between atoms: C_20  and  C_22
   10  A    between atoms: C_27  and  C_54
   11  A    between atoms: C_28  and  C_49
   12  A    between atoms: N_33  and  C_52
   13  A    between atoms: C_35  and  C_43
   14  A    between atoms: C_35  and  O_51
   15  A    between atoms: O_51  and  C_54
                            x       y       z     vdW  Elec       q    Type
                         _______ _______ _______ _____ _____    ______ ____

>  <TORSDO>
F 15

$$$$
=
 OpenBabel11052415053D

 55 60  0  0  1  0  0  0  0  0999 V2000
  188.9110  179.0340  138.6440 C   0  0  0  0  0  3  0  0  0  0  0  0
  187.6400  177.2780  136.8740 C   0  0  0  0  0  0  0  0  0  0  0  0
  187.4550  177.1390  138.2530 C   0  0  0  0  0  3  0  0  0  0  0  0
  189.1040  179.1680  137.2650 C   0  0  0  0  0  3  0  0  0  0  0  0
  188.0910  178.0150  139.1390 C   0  0  0  0  0  0  0  0  0  0  0  0
  188.4710  178.2880  136.3800 C   0  0  0  0  0  3  0  0  0  0  0  0
  187.8680  177.8790  140.6040 C   0  0  0  0  0  2  0  0  0  0  0  0
  188.8340  178.7750  141.3610 C   0  0  0  0  0  2  0  0  0  0  0  0
  189.1560  176.9090  146.3640 S   0  0  0  0  0  0  0  0  0  0  0  0
  191.5690  177.4730  147.5180 C   0  0  0  0  0  1  0  0  0  0  0  0
  190.9190  176.5530  144.4500 C   0  0  0  0  0  0  0  0  0  0  0  0
  191.5610  175.8810  145.6070 C   0  0  0  0  0  2  0  0  0  0  0  0
  190.8150  176.3340  146.8580 C   0  0  2  0  0  3  0  0  0  0  0  0
  189.7430  177.1050  144.6880 C   0  0  0  0  0  0  0  0  0  0  0  0
  190.7800  177.3010  142.0950 N   0  0  0  0  0  0  0  0  0  0  0  0
  191.6100  176.6540  143.1240 C   0  0  0  0  0  2  0  0  0  0  0  0
  189.0290  177.8920  143.6620 C   0  0  0  0  0  0  0  0  0  0  0  0
  189.5490  177.9870  142.4210 C   0  0  0  0  0  0  0  0  0  0  0  0
  193.5130  175.5890  137.5640 C   0  0  0  0  0  0  0  0  0  0  0  0
  192.8040  177.3700  140.6900 C   0  0  0  0  0  2  0  0  0  0  0  0
  192.9110  174.5230  136.7110 C   0  0  0  0  0  1  0  0  0  0  0  0
  192.7030  176.3550  138.4680 N   0  0  0  0  0  0  0  0  0  0  0  0
  190.7470  176.1370  139.9220 C   0  0  0  0  0  2  0  0  0  0  0  0
  191.2480  176.2070  138.4820 C   0  0  0  0  0  2  0  0  0  0  0  0
  194.7520  175.8000  137.4880 O   0  0  0  0  0  0  0  0  0  0  0  0
  193.2960  177.4400  139.2470 C   0  0  0  0  0  2  0  0  0  0  0  0
  191.2760  177.3300  140.7200 C   0  0  0  0  0  3  0  0  0  0  0  0
  187.7330  178.5650  144.0220 C   0  0  0  0  0  2  0  0  0  0  0  0
  185.5400  177.9620  143.0700 N   0  0  0  0  0  1  0  0  0  0  0  0
  186.5750  177.5640  144.0170 C   0  0  2  0  0  3  0  0  0  0  0  0
  186.0500  177.3140  145.3050 O   0  0  0  0  0  0  0  0  0  0  0  0
  185.5630  178.5170  145.8450 C   0  0  0  0  0  1  0  0  0  0  0  0
  186.9690  176.3340  135.9380 C   0  0  0  0  0  2  0  0  0  0  0  0
  186.2400  177.0440  134.9790 O   0  0  0  0  0  0  0  0  0  0  0  0
  185.1200  176.2500  134.7100 C   0  0  0  0  0  2  0  0  0  0  0  0
  185.2120  174.9320  135.4590 C   0  0  0  0  0  2  0  0  0  0  0  0
  183.8990  174.6210  136.1520 C   0  0  0  0  0  2  0  0  0  0  0  0
  183.0970  175.9050  136.3010 C   0  0  0  0  0  2  0  0  0  0  0  0
  182.5320  178.4990  139.8090 C   0  0  2  0  0  0  0  0  0  0  0  0
  180.3060  179.2730  137.5660 C   0  0  0  0  0  2  0  0  0  0  0  0
  181.4880  177.0060  138.0050 C   0  0  2  0  0  0  0  0  0  0  0  0
  182.9990  175.1940  138.5760 O   0  0  0  0  0  1  0  0  0  0  0  0
  182.2940  178.6770  136.3600 F   0  0  0  0  0  0  0  0  0  0  0  0
  181.1790  178.1500  136.9940 C   0  0  2  0  0  3  0  0  0  0  0  0
  182.8770  176.3270  137.7610 C   0  0  1  0  0  0  0  0  0  0  0  0
  183.8900  177.8360  139.5460 C   0  0  0  0  0  2  0  0  0  0  0  0
  182.3850  179.8090  139.0500 C   0  0  0  0  0  0  0  0  0  0  0  0
  182.4430  178.7980  141.2920 C   0  0  0  0  0  1  0  0  0  0  0  0
  181.0420  180.2640  138.4890 C   0  0  1  0  0  3  0  0  0  0  0  0
  184.0100  177.3000  138.1160 C   0  0  0  0  0  2  0  0  0  0  0  0
  180.4810  176.0480  137.8650 O   0  0  0  0  0  1  0  0  0  0  0  0
  183.3570  180.5470  138.9580 O   0  0  0  0  0  0  0  0  0  0  0  0
  181.4240  177.5010  139.4650 C   0  0  0  0  0  2  0  0  0  0  0  0
  181.0740  181.6590  137.8670 C   0  0  0  0  0  2  0  0  0  0  0  0
  180.8260  181.5960  136.4940 O   0  0  0  0  0  1  0  0  0  0  0  0
  1  5  1  0  0  0  0
  2  3  1  0  0  0  0
  3  5  2  0  0  0  0
  4  1  2  0  0  0  0
  5  7  1  0  0  0  0
  6  2  2  0  0  0  0
  6  4  1  0  0  0  0
  7  8  1  0  0  0  0
  8 18  1  0  0  0  0
  9 13  1  0  0  0  0
 11 14  2  0  0  0  0
 11 12  1  0  0  0  0
 12 13  1  0  0  0  0
 13 10  1  6  0  0  0
 14  9  1  0  0  0  0
 15 18  1  0  0  0  0
 15 16  1  0  0  0  0
 16 11  1  0  0  0  0
 17 28  1  0  0  0  0
 17 14  1  0  0  0  0
 18 17  2  0  0  0  0
 19 22  1  0  0  0  0
 20 27  1  0  0  0  0
 21 19  1  0  0  0  0
 22 24  1  0  0  0  0
 22 26  1  0  0  0  0
 23 27  1  0  0  0  0
 24 23  1  0  0  0  0
 25 19  2  0  0  0  0
 26 20  1  0  0  0  0
 27 15  1  0  0  0  0
 30 29  1  6  0  0  0
 30 28  1  0  0  0  0
 30 31  1  0  0  0  0
 31 32  1  0  0  0  0
 33  2  1  0  0  0  0
 34 33  1  0  0  0  0
 35 34  1  0  0  0  0
 35 36  1  0  0  0  0
 36 37  1  0  0  0  0
 37 38  1  0  0  0  0
 38 45  1  0  0  0  0
 39 48  1  1  0  0  0
 40 49  1  0  0  0  0
 41 51  1  6  0  0  0
 41 53  1  0  0  0  0
 44 43  1  1  0  0  0
 44 40  1  0  0  0  0
 44 41  1  0  0  0  0
 45 41  1  0  0  0  0
 45 50  1  0  0  0  0
 45 42  1  1  0  0  0
 46 39  1  0  0  0  0
 47 39  1  0  0  0  0
 49 54  1  6  0  0  0
 49 47  1  0  0  0  0
 50 46  1  0  0  0  0
 52 47  2  0  0  0  0
 53 39  1  0  0  0  0
 55 54  1  0  0  0  0
M  END
>  <MODEL>
3

>  <REMARK>
 VINA RESULT:      -6.9      3.980     10.902
  Name = 
  15 active torsions:
  status: ('A' for Active; 'I' for Inactive)
    1  A    between atoms: C_2  and  C_28
    2  A    between atoms: C_2  and  C_44
    3  A    between atoms: O_4  and  C_40
    4  A    between atoms: C_8  and  C_22
    5  A    between atoms: C_8  and  C_43
    6  A    between atoms: C_11  and  C_38
    7  A    between atoms: C_19  and  C_40
    8  A    between atoms: C_19  and  C_45
    9  A    between atoms: C_20  and  C_22
   10  A    between atoms: C_27  and  C_54
   11  A    between atoms: C_28  and  C_49
   12  A    between atoms: N_33  and  C_52
   13  A    between atoms: C_35  and  C_43
   14  A    between atoms: C_35  and  O_51
   15  A    between atoms: O_51  and  C_54
                            x       y       z     vdW  Elec       q    Type
                         _______ _______ _______ _____ _____    ______ ____

>  <TORSDO>
F 15

$$$$
=
 OpenBabel11052415053D

 55 60  0  0  1  0  0  0  0  0999 V2000
  187.9490  177.5080  145.6240 C   0  0  0  0  0  3  0  0  0  0  0  0
  185.2820  178.3540  145.6800 C   0  0  0  0  0  0  0  0  0  0  0  0
  185.8830  178.0090  144.4650 C   0  0  0  0  0  3  0  0  0  0  0  0
  187.3510  177.8620  146.8390 C   0  0  0  0  0  3  0  0  0  0  0  0
  187.2160  177.5880  144.4350 C   0  0  0  0  0  0  0  0  0  0  0  0
  186.0180  178.2870  146.8660 C   0  0  0  0  0  3  0  0  0  0  0  0
  187.8420  177.1960  143.1430 C   0  0  0  0  0  2  0  0  0  0  0  0
  188.6560  178.3530  142.5890 C   0  0  0  0  0  2  0  0  0  0  0  0
  188.3130  178.3030  137.2520 S   0  0  0  0  0  0  0  0  0  0  0  0
  188.6940  175.8010  136.2200 C   0  0  0  0  0  1  0  0  0  0  0  0
  190.2410  177.2630  138.7000 C   0  0  0  0  0  0  0  0  0  0  0  0
  190.6400  176.8920  137.3200 C   0  0  0  0  0  2  0  0  0  0  0  0
  189.4240  177.1140  136.4270 C   0  0  2  0  0  3  0  0  0  0  0  0
  189.1160  177.9470  138.8060 C   0  0  0  0  0  0  0  0  0  0  0  0
  190.5080  177.3420  141.1590 N   0  0  0  0  0  0  0  0  0  0  0  0
  191.0360  176.8160  139.8900 C   0  0  0  0  0  2  0  0  0  0  0  0
  188.5410  178.3030  140.1200 C   0  0  0  0  0  0  0  0  0  0  0  0
  189.2190  177.9920  141.2440 C   0  0  0  0  0  0  0  0  0  0  0  0
  191.4480  176.5490  146.5830 C   0  0  0  0  0  0  0  0  0  0  0  0
  191.1180  178.2680  143.3600 C   0  0  0  0  0  2  0  0  0  0  0  0
  191.1840  175.2070  147.1790 C   0  0  0  0  0  1  0  0  0  0  0  0
  191.6340  176.7040  145.1680 N   0  0  0  0  0  0  0  0  0  0  0  0
  190.8670  175.7840  143.0350 C   0  0  0  0  0  2  0  0  0  0  0  0
  191.7050  175.5390  144.2870 C   0  0  0  0  0  2  0  0  0  0  0  0
  191.4930  177.5520  147.3430 O   0  0  0  0  0  0  0  0  0  0  0  0
  191.9580  178.0150  144.6090 C   0  0  0  0  0  2  0  0  0  0  0  0
  191.2750  177.1040  142.3810 C   0  0  0  0  0  3  0  0  0  0  0  0
  187.2150  179.0100  140.1750 C   0  0  0  0  0  2  0  0  0  0  0  0
  185.5340  178.4370  138.4650 N   0  0  0  0  0  1  0  0  0  0  0  0
  186.0760  178.0730  139.7680 C   0  0  2  0  0  3  0  0  0  0  0  0
  185.0670  177.9640  140.7530 O   0  0  0  0  0  0  0  0  0  0  0  0
  184.9940  179.1700  141.4710 C   0  0  0  0  0  1  0  0  0  0  0  0
  183.8650  178.8130  145.7010 C   0  0  0  0  0  2  0  0  0  0  0  0
  183.4630  179.1920  144.4170 O   0  0  0  0  0  0  0  0  0  0  0  0
  182.1300  178.7800  144.3150 C   0  0  0  0  0  2  0  0  0  0  0  0
  181.4310  179.5210  143.1880 C   0  0  0  0  0  2  0  0  0  0  0  0
  180.8220  178.5400  142.2040 C   0  0  0  0  0  2  0  0  0  0  0  0
  181.4210  178.7790  140.8260 C   0  0  0  0  0  2  0  0  0  0  0  0
  179.9510  177.3880  136.9210 C   0  0  2  0  0  0  0  0  0  0  0  0
  181.4840  174.9280  138.3990 C   0  0  0  0  0  2  0  0  0  0  0  0
  180.2310  176.9510  139.4310 C   0  0  2  0  0  0  0  0  0  0  0  0
  179.2230  179.0960  139.9550 O   0  0  0  0  0  1  0  0  0  0  0  0
  182.6740  176.9220  139.0070 F   0  0  0  0  0  0  0  0  0  0  0  0
  181.5640  176.1520  139.3180 C   0  0  2  0  0  3  0  0  0  0  0  0
  180.4500  178.4820  139.6740 C   0  0  1  0  0  0  0  0  0  0  0  0
  180.1840  178.8830  137.1730 C   0  0  0  0  0  2  0  0  0  0  0  0
  181.2250  176.6820  136.4830 C   0  0  0  0  0  0  0  0  0  0  0  0
  178.9320  177.2600  135.8060 C   0  0  0  0  0  1  0  0  0  0  0  0
  181.5240  175.2420  136.8900 C   0  0  1  0  0  3  0  0  0  0  0  0
  181.0400  179.1370  138.4170 C   0  0  0  0  0  2  0  0  0  0  0  0
  179.5190  176.4160  140.5060 O   0  0  0  0  0  1  0  0  0  0  0  0
  181.9880  177.2630  135.7220 O   0  0  0  0  0  0  0  0  0  0  0  0
  179.3450  176.7660  138.1810 C   0  0  0  0  0  2  0  0  0  0  0  0
  182.7910  174.6720  136.2530 C   0  0  0  0  0  2  0  0  0  0  0  0
  183.8570  174.7030  137.1560 O   0  0  0  0  0  1  0  0  0  0  0  0
  1  4  1  0  0  0  0
  2 33  1  0  0  0  0
  2  6  1  0  0  0  0
  3  2  2  0  0  0  0
  4  6  2  0  0  0  0
  5  3  1  0  0  0  0
  5  1  2  0  0  0  0
  7  5  1  0  0  0  0
  8  7  1  0  0  0  0
  9 14  1  0  0  0  0
 11 14  2  0  0  0  0
 11 16  1  0  0  0  0
 12 11  1  0  0  0  0
 13 10  1  1  0  0  0
 13  9  1  0  0  0  0
 13 12  1  0  0  0  0
 14 17  1  0  0  0  0
 15 18  1  0  0  0  0
 15 27  1  0  0  0  0
 16 15  1  0  0  0  0
 17 28  1  0  0  0  0
 17 18  2  0  0  0  0
 18  8  1  0  0  0  0
 19 21  1  0  0  0  0
 19 25  2  0  0  0  0
 20 26  1  0  0  0  0
 22 19  1  0  0  0  0
 23 24  1  0  0  0  0
 24 22  1  0  0  0  0
 26 22  1  0  0  0  0
 27 23  1  0  0  0  0
 27 20  1  0  0  0  0
 30 29  1  6  0  0  0
 30 28  1  0  0  0  0
 30 31  1  0  0  0  0
 31 32  1  0  0  0  0
 34 33  1  0  0  0  0
 35 34  1  0  0  0  0
 36 35  1  0  0  0  0
 37 36  1  0  0  0  0
 38 37  1  0  0  0  0
 39 48  1  6  0  0  0
 39 46  1  0  0  0  0
 39 53  1  0  0  0  0
 40 44  1  0  0  0  0
 41 45  1  0  0  0  0
 41 51  1  1  0  0  0
 44 43  1  6  0  0  0
 44 41  1  0  0  0  0
 45 42  1  1  0  0  0
 45 38  1  0  0  0  0
 46 50  1  0  0  0  0
 47 49  1  0  0  0  0
 47 39  1  0  0  0  0
 49 54  1  1  0  0  0
 49 40  1  0  0  0  0
 50 45  1  0  0  0  0
 52 47  2  0  0  0  0
 53 41  1  0  0  0  0
 54 55  1  0  0  0  0
M  END
>  <MODEL>
4

>  <REMARK>
 VINA RESULT:      -6.8      3.489     10.001
  Name = 
  15 active torsions:
  status: ('A' for Active; 'I' for Inactive)
    1  A    between atoms: C_2  and  C_28
    2  A    between atoms: C_2  and  C_44
    3  A    between atoms: O_4  and  C_40
    4  A    between atoms: C_8  and  C_22
    5  A    between atoms: C_8  and  C_43
    6  A    between atoms: C_11  and  C_38
    7  A    between atoms: C_19  and  C_40
    8  A    between atoms: C_19  and  C_45
    9  A    between atoms: C_20  and  C_22
   10  A    between atoms: C_27  and  C_54
   11  A    between atoms: C_28  and  C_49
   12  A    between atoms: N_33  and  C_52
   13  A    between atoms: C_35  and  C_43
   14  A    between atoms: C_35  and  O_51
   15  A    between atoms: O_51  and  C_54
                            x       y       z     vdW  Elec       q    Type
                         _______ _______ _______ _____ _____    ______ ____

>  <TORSDO>
F 15

$$$$
=
 OpenBabel11052415053D

 55 60  0  0  1  0  0  0  0  0999 V2000
  188.8200  178.9980  138.7710 C   0  0  0  0  0  3  0  0  0  0  0  0
  187.5960  177.0930  137.1270 C   0  0  0  0  0  0  0  0  0  0  0  0
  187.4190  177.0390  138.5130 C   0  0  0  0  0  3  0  0  0  0  0  0
  189.0040  179.0460  137.3850 C   0  0  0  0  0  3  0  0  0  0  0  0
  188.0320  177.9900  139.3360 C   0  0  0  0  0  0  0  0  0  0  0  0
  188.3940  178.0920  136.5630 C   0  0  0  0  0  3  0  0  0  0  0  0
  187.8190  177.9440  140.8080 C   0  0  0  0  0  2  0  0  0  0  0  0
  188.8470  178.8160  141.5080 C   0  0  0  0  0  2  0  0  0  0  0  0
  189.1590  176.9410  146.5080 S   0  0  0  0  0  0  0  0  0  0  0  0
  191.5690  177.5030  147.6690 C   0  0  0  0  0  1  0  0  0  0  0  0
  190.9260  176.5880  144.5980 C   0  0  0  0  0  0  0  0  0  0  0  0
  191.5650  175.9140  145.7550 C   0  0  0  0  0  2  0  0  0  0  0  0
  190.8170  176.3650  147.0050 C   0  0  2  0  0  3  0  0  0  0  0  0
  189.7490  177.1400  144.8350 C   0  0  0  0  0  0  0  0  0  0  0  0
  190.7920  177.3410  142.2440 N   0  0  0  0  0  0  0  0  0  0  0  0
  191.6200  176.6920  143.2730 C   0  0  0  0  0  2  0  0  0  0  0  0
  189.0370  177.9290  143.8090 C   0  0  0  0  0  0  0  0  0  0  0  0
  189.5600  178.0260  142.5690 C   0  0  0  0  0  0  0  0  0  0  0  0
  193.4450  175.5870  137.6820 C   0  0  0  0  0  0  0  0  0  0  0  0
  192.8190  177.3400  140.8420 C   0  0  0  0  0  2  0  0  0  0  0  0
  192.7950  174.5680  136.8080 C   0  0  0  0  0  1  0  0  0  0  0  0
  192.6720  176.3730  138.6000 N   0  0  0  0  0  0  0  0  0  0  0  0
  190.7060  176.2220  140.0490 C   0  0  0  0  0  2  0  0  0  0  0  0
  191.2110  176.2960  138.6110 C   0  0  0  0  0  2  0  0  0  0  0  0
  194.6930  175.7400  137.6110 O   0  0  0  0  0  0  0  0  0  0  0  0
  193.3160  177.4130  139.4010 C   0  0  0  0  0  2  0  0  0  0  0  0
  191.2910  177.3720  140.8700 C   0  0  0  0  0  3  0  0  0  0  0  0
  187.7410  178.6010  144.1670 C   0  0  0  0  0  2  0  0  0  0  0  0
  185.5830  177.8770  143.2190 N   0  0  0  0  0  1  0  0  0  0  0  0
  186.5950  177.5880  144.2270 C   0  0  2  0  0  3  0  0  0  0  0  0
  186.0380  177.4550  145.5200 O   0  0  0  0  0  0  0  0  0  0  0  0
  185.8490  178.7330  146.0720 C   0  0  0  0  0  1  0  0  0  0  0  0
  186.9500  176.0690  136.2590 C   0  0  0  0  0  2  0  0  0  0  0  0
  186.2140  176.6930  135.2460 O   0  0  0  0  0  0  0  0  0  0  0  0
  185.1830  175.7980  134.9400 C   0  0  0  0  0  2  0  0  0  0  0  0
  185.0740  174.7280  136.0120 C   0  0  0  0  0  2  0  0  0  0  0  0
  183.6200  174.3900  136.2790 C   0  0  0  0  0  2  0  0  0  0  0  0
  183.2190  174.9460  137.6370 C   0  0  0  0  0  2  0  0  0  0  0  0
  180.4400  178.1020  138.9310 C   0  0  2  0  0  0  0  0  0  0  0  0
  183.3320  178.6160  140.3300 C   0  0  0  0  0  2  0  0  0  0  0  0
  182.7700  177.4580  138.0780 C   0  0  2  0  0  0  0  0  0  0  0  0
  181.7940  176.2350  136.2220 O   0  0  0  0  0  1  0  0  0  0  0  0
  183.0570  176.2340  140.2150 F   0  0  0  0  0  0  0  0  0  0  0  0
  183.4410  177.3450  139.4800 C   0  0  2  0  0  3  0  0  0  0  0  0
  182.2040  176.0960  137.5550 C   0  0  1  0  0  0  0  0  0  0  0  0
  179.9040  176.7550  138.4280 C   0  0  0  0  0  2  0  0  0  0  0  0
  180.7840  178.0560  140.4120 C   0  0  0  0  0  0  0  0  0  0  0  0
  179.3520  179.1380  138.7290 C   0  0  0  0  0  1  0  0  0  0  0  0
  181.9570  178.8450  140.9870 C   0  0  1  0  0  3  0  0  0  0  0  0
  180.9880  175.6740  138.3910 C   0  0  0  0  0  2  0  0  0  0  0  0
  183.7450  177.9180  137.1900 O   0  0  0  0  0  1  0  0  0  0  0  0
  180.0510  177.4310  141.1670 O   0  0  0  0  0  0  0  0  0  0  0  0
  181.6380  178.5070  138.0680 C   0  0  0  0  0  2  0  0  0  0  0  0
  182.0660  178.7650  142.5090 C   0  0  0  0  0  2  0  0  0  0  0  0
  181.2520  179.7250  143.1160 O   0  0  0  0  0  1  0  0  0  0  0  0
  1  5  1  0  0  0  0
  2  3  1  0  0  0  0
  3  5  2  0  0  0  0
  4  1  2  0  0  0  0
  5  7  1  0  0  0  0
  6  2  2  0  0  0  0
  6  4  1  0  0  0  0
  7  8  1  0  0  0  0
  8 18  1  0  0  0  0
  9 13  1  0  0  0  0
 11 14  2  0  0  0  0
 11 12  1  0  0  0  0
 12 13  1  0  0  0  0
 13 10  1  6  0  0  0
 14  9  1  0  0  0  0
 15 18  1  0  0  0  0
 15 16  1  0  0  0  0
 16 11  1  0  0  0  0
 17 28  1  0  0  0  0
 17 14  1  0  0  0  0
 18 17  2  0  0  0  0
 19 22  1  0  0  0  0
 20 27  1  0  0  0  0
 21 19  1  0  0  0  0
 22 24  1  0  0  0  0
 22 26  1  0  0  0  0
 23 27  1  0  0  0  0
 24 23  1  0  0  0  0
 25 19  2  0  0  0  0
 26 20  1  0  0  0  0
 27 15  1  0  0  0  0
 28 30  1  0  0  0  0
 30 29  1  6  0  0  0
 30 31  1  0  0  0  0
 31 32  1  0  0  0  0
 33  2  1  0  0  0  0
 34 33  1  0  0  0  0
 35 34  1  0  0  0  0
 35 36  1  0  0  0  0
 36 37  1  0  0  0  0
 37 38  1  0  0  0  0
 39 48  1  6  0  0  0
 39 47  1  0  0  0  0
 40 49  1  0  0  0  0
 41 51  1  6  0  0  0
 41 44  1  0  0  0  0
 44 43  1  1  0  0  0
 44 40  1  0  0  0  0
 45 42  1  6  0  0  0
 45 38  1  0  0  0  0
 45 41  1  0  0  0  0
 45 50  1  0  0  0  0
 46 39  1  0  0  0  0
 47 49  1  0  0  0  0
 47 52  2  0  0  0  0
 49 54  1  1  0  0  0
 50 46  1  0  0  0  0
 53 41  1  0  0  0  0
 53 39  1  0  0  0  0
 54 55  1  0  0  0  0
M  END
>  <MODEL>
5

>  <REMARK>
 VINA RESULT:      -6.6      3.926     10.988
  Name = 
  15 active torsions:
  status: ('A' for Active; 'I' for Inactive)
    1  A    between atoms: C_2  and  C_28
    2  A    between atoms: C_2  and  C_44
    3  A    between atoms: O_4  and  C_40
    4  A    between atoms: C_8  and  C_22
    5  A    between atoms: C_8  and  C_43
    6  A    between atoms: C_11  and  C_38
    7  A    between atoms: C_19  and  C_40
    8  A    between atoms: C_19  and  C_45
    9  A    between atoms: C_20  and  C_22
   10  A    between atoms: C_27  and  C_54
   11  A    between atoms: C_28  and  C_49
   12  A    between atoms: N_33  and  C_52
   13  A    between atoms: C_35  and  C_43
   14  A    between atoms: C_35  and  O_51
   15  A    between atoms: O_51  and  C_54
                            x       y       z     vdW  Elec       q    Type
                         _______ _______ _______ _____ _____    ______ ____

>  <TORSDO>
F 15

$$$$
=
 OpenBabel11052415053D

 55 60  0  0  1  0  0  0  0  0999 V2000
  187.3680  177.3470  144.8870 C   0  0  0  0  0  3  0  0  0  0  0  0
  184.9170  178.6470  144.5270 C   0  0  0  0  0  0  0  0  0  0  0  0
  185.6630  178.2380  143.4170 C   0  0  0  0  0  3  0  0  0  0  0  0
  186.6270  177.7650  145.9980 C   0  0  0  0  0  3  0  0  0  0  0  0
  186.8890  177.5890  143.5960 C   0  0  0  0  0  0  0  0  0  0  0  0
  185.4020  178.4170  145.8180 C   0  0  0  0  0  3  0  0  0  0  0  0
  187.6660  177.1320  142.4110 C   0  0  0  0  0  2  0  0  0  0  0  0
  188.5280  178.2670  141.8860 C   0  0  0  0  0  2  0  0  0  0  0  0
  189.5130  177.2950  136.7190 S   0  0  0  0  0  0  0  0  0  0  0  0
  190.3570  174.7300  136.2980 C   0  0  0  0  0  1  0  0  0  0  0  0
  191.1110  176.7700  138.7370 C   0  0  0  0  0  0  0  0  0  0  0  0
  191.8680  176.2330  137.5790 C   0  0  0  0  0  2  0  0  0  0  0  0
  190.8940  176.1440  136.4100 C   0  0  2  0  0  3  0  0  0  0  0  0
  189.9380  177.3090  138.4540 C   0  0  0  0  0  0  0  0  0  0  0  0
  190.7570  177.2880  141.1320 N   0  0  0  0  0  0  0  0  0  0  0  0
  191.6250  176.6340  140.1380 C   0  0  0  0  0  2  0  0  0  0  0  0
  189.0290  177.7960  139.5110 C   0  0  0  0  0  0  0  0  0  0  0  0
  189.4340  177.7670  140.7970 C   0  0  0  0  0  0  0  0  0  0  0  0
  190.4710  177.0180  146.6790 C   0  0  0  0  0  0  0  0  0  0  0  0
  190.4550  178.4300  143.2940 C   0  0  0  0  0  2  0  0  0  0  0  0
  190.5010  175.6840  147.3450 C   0  0  0  0  0  1  0  0  0  0  0  0
  190.9560  177.1850  145.3380 N   0  0  0  0  0  0  0  0  0  0  0  0
  191.0950  175.9960  143.2040 C   0  0  0  0  0  2  0  0  0  0  0  0
  191.6150  176.0840  144.6360 C   0  0  0  0  0  2  0  0  0  0  0  0
  189.9990  178.0010  147.3090 O   0  0  0  0  0  0  0  0  0  0  0  0
  190.9800  178.5110  144.7250 C   0  0  0  0  0  2  0  0  0  0  0  0
  191.2180  177.3580  142.5170 C   0  0  0  0  0  3  0  0  0  0  0  0
  187.6720  178.3220  139.1290 C   0  0  0  0  0  2  0  0  0  0  0  0
  186.5490  178.6970  136.9660 N   0  0  0  0  0  1  0  0  0  0  0  0
  187.1940  177.7020  137.8140 C   0  0  2  0  0  3  0  0  0  0  0  0
  186.3850  176.5570  138.0020 O   0  0  0  0  0  0  0  0  0  0  0  0
  186.0640  176.0110  136.7470 C   0  0  0  0  0  1  0  0  0  0  0  0
  183.6170  179.3480  144.3280 C   0  0  0  0  0  2  0  0  0  0  0  0
  182.7960  178.6040  143.4750 O   0  0  0  0  0  0  0  0  0  0  0  0
  181.6450  178.3330  144.2220 C   0  0  0  0  0  2  0  0  0  0  0  0
  180.4350  179.0030  143.5940 C   0  0  0  0  0  2  0  0  0  0  0  0
  179.8760  178.1470  142.4730 C   0  0  0  0  0  2  0  0  0  0  0  0
  179.5410  179.0360  141.2850 C   0  0  0  0  0  2  0  0  0  0  0  0
  180.6610  178.9800  137.0310 C   0  0  2  0  0  0  0  0  0  0  0  0
  181.3930  181.8990  138.2680 C   0  0  0  0  0  2  0  0  0  0  0  0
  181.2750  179.5900  139.4440 C   0  0  2  0  0  0  0  0  0  0  0  0
  180.7880  177.3290  140.1800 O   0  0  0  0  0  1  0  0  0  0  0  0
  179.3820  181.1890  139.3700 F   0  0  0  0  0  0  0  0  0  0  0  0
  180.7630  181.0600  139.3850 C   0  0  2  0  0  3  0  0  0  0  0  0
  180.2000  178.5830  139.9740 C   0  0  1  0  0  0  0  0  0  0  0  0
  179.5990  178.0100  137.5660 C   0  0  0  0  0  2  0  0  0  0  0  0
  180.0610  180.3290  136.6630 C   0  0  0  0  0  0  0  0  0  0  0  0
  181.2560  178.3690  135.7790 C   0  0  0  0  0  1  0  0  0  0  0  0
  180.8350  181.6290  136.8560 C   0  0  1  0  0  3  0  0  0  0  0  0
  179.0730  178.4240  138.9440 C   0  0  0  0  0  2  0  0  0  0  0  0
  182.3790  179.5710  140.3000 O   0  0  0  0  0  1  0  0  0  0  0  0
  178.9610  180.3570  136.1280 O   0  0  0  0  0  0  0  0  0  0  0  0
  181.7790  179.1040  138.0680 C   0  0  0  0  0  2  0  0  0  0  0  0
  180.1130  182.8620  136.3170 C   0  0  0  0  0  2  0  0  0  0  0  0
  180.6310  184.0290  136.8850 O   0  0  0  0  0  1  0  0  0  0  0  0
  1  4  1  0  0  0  0
  2  6  1  0  0  0  0
  3  5  1  0  0  0  0
  3  2  2  0  0  0  0
  5  1  2  0  0  0  0
  6  4  2  0  0  0  0
  7  5  1  0  0  0  0
  8  7  1  0  0  0  0
  9 14  1  0  0  0  0
 11 16  1  0  0  0  0
 12 11  1  0  0  0  0
 13 10  1  1  0  0  0
 13  9  1  0  0  0  0
 13 12  1  0  0  0  0
 14 11  2  0  0  0  0
 14 17  1  0  0  0  0
 15 27  1  0  0  0  0
 16 15  1  0  0  0  0
 17 18  2  0  0  0  0
 18 15  1  0  0  0  0
 18  8  1  0  0  0  0
 19 25  2  0  0  0  0
 19 21  1  0  0  0  0
 20 26  1  0  0  0  0
 22 19  1  0  0  0  0
 23 24  1  0  0  0  0
 24 22  1  0  0  0  0
 26 22  1  0  0  0  0
 27 23  1  0  0  0  0
 27 20  1  0  0  0  0
 28 17  1  0  0  0  0
 30 29  1  1  0  0  0
 30 31  1  0  0  0  0
 30 28  1  0  0  0  0
 32 31  1  0  0  0  0
 33  2  1  0  0  0  0
 34 35  1  0  0  0  0
 34 33  1  0  0  0  0
 36 35  1  0  0  0  0
 37 36  1  0  0  0  0
 38 37  1  0  0  0  0
 39 48  1  6  0  0  0
 39 46  1  0  0  0  0
 39 53  1  0  0  0  0
 40 44  1  0  0  0  0
 41 45  1  0  0  0  0
 41 51  1  1  0  0  0
 44 43  1  6  0  0  0
 44 41  1  0  0  0  0
 45 42  1  1  0  0  0
 45 38  1  0  0  0  0
 46 50  1  0  0  0  0
 47 49  1  0  0  0  0
 47 39  1  0  0  0  0
 49 54  1  1  0  0  0
 49 40  1  0  0  0  0
 50 45  1  0  0  0  0
 52 47  2  0  0  0  0
 53 41  1  0  0  0  0
 54 55  1  0  0  0  0
M  END
>  <MODEL>
6

>  <REMARK>
 VINA RESULT:      -6.4      3.689     10.182
  Name = 
  15 active torsions:
  status: ('A' for Active; 'I' for Inactive)
    1  A    between atoms: C_2  and  C_28
    2  A    between atoms: C_2  and  C_44
    3  A    between atoms: O_4  and  C_40
    4  A    between atoms: C_8  and  C_22
    5  A    between atoms: C_8  and  C_43
    6  A    between atoms: C_11  and  C_38
    7  A    between atoms: C_19  and  C_40
    8  A    between atoms: C_19  and  C_45
    9  A    between atoms: C_20  and  C_22
   10  A    between atoms: C_27  and  C_54
   11  A    between atoms: C_28  and  C_49
   12  A    between atoms: N_33  and  C_52
   13  A    between atoms: C_35  and  C_43
   14  A    between atoms: C_35  and  O_51
   15  A    between atoms: O_51  and  C_54
                            x       y       z     vdW  Elec       q    Type
                         _______ _______ _______ _____ _____    ______ ____

>  <TORSDO>
F 15

$$$$
=
 OpenBabel11052415053D

 55 60  0  0  1  0  0  0  0  0999 V2000
  190.1120  177.4920  140.4380 C   0  0  0  0  0  3  0  0  0  0  0  0
  188.8750  177.7250  137.9390 C   0  0  0  0  0  0  0  0  0  0  0  0
  188.2440  178.2240  139.0820 C   0  0  0  0  0  3  0  0  0  0  0  0
  190.7400  176.9840  139.2950 C   0  0  0  0  0  3  0  0  0  0  0  0
  188.8600  178.1060  140.3330 C   0  0  0  0  0  0  0  0  0  0  0  0
  190.1210  177.0980  138.0460 C   0  0  0  0  0  3  0  0  0  0  0  0
  188.1960  178.6640  141.5420 C   0  0  0  0  0  2  0  0  0  0  0  0
  187.3100  177.6080  142.1800 C   0  0  0  0  0  2  0  0  0  0  0  0
  189.5020  177.3540  147.0530 S   0  0  0  0  0  0  0  0  0  0  0  0
  187.8840  176.0720  148.8430 C   0  0  0  0  0  1  0  0  0  0  0  0
  187.0750  178.1750  146.4760 C   0  0  0  0  0  0  0  0  0  0  0  0
  187.0990  178.2590  147.9570 C   0  0  0  0  0  2  0  0  0  0  0  0
  188.3120  177.4670  148.4310 C   0  0  2  0  0  3  0  0  0  0  0  0
  188.1860  177.7370  145.9090 C   0  0  0  0  0  0  0  0  0  0  0  0
  186.0410  178.4110  144.2400 N   0  0  0  0  0  0  0  0  0  0  0  0
  185.8370  178.4960  145.6950 C   0  0  0  0  0  2  0  0  0  0  0  0
  188.2790  177.5070  144.4530 C   0  0  0  0  0  0  0  0  0  0  0  0
  187.2320  177.8260  143.6640 C   0  0  0  0  0  0  0  0  0  0  0  0
  181.1910  178.1620  141.5300 C   0  0  0  0  0  0  0  0  0  0  0  0
  184.7880  177.8820  142.1840 C   0  0  0  0  0  2  0  0  0  0  0  0
  179.9280  178.4510  142.2700 C   0  0  0  0  0  1  0  0  0  0  0  0
  182.4580  178.6100  142.0310 N   0  0  0  0  0  0  0  0  0  0  0  0
  183.6470  178.9880  144.1370 C   0  0  0  0  0  2  0  0  0  0  0  0
  182.5380  179.4750  143.2080 C   0  0  0  0  0  2  0  0  0  0  0  0
  181.1290  177.5040  140.4590 O   0  0  0  0  0  0  0  0  0  0  0  0
  183.6780  178.3750  141.2610 C   0  0  0  0  0  2  0  0  0  0  0  0
  184.9560  178.8440  143.3600 C   0  0  0  0  0  3  0  0  0  0  0  0
  189.5440  176.9290  143.8800 C   0  0  0  0  0  2  0  0  0  0  0  0
  190.8430  179.0140  143.6730 N   0  0  0  0  0  1  0  0  0  0  0  0
  190.7680  177.7220  144.3430 C   0  0  2  0  0  3  0  0  0  0  0  0
  191.9760  176.9950  144.2340 O   0  0  0  0  0  0  0  0  0  0  0  0
  191.6780  175.6470  143.9690 C   0  0  0  0  0  1  0  0  0  0  0  0
  188.2070  177.8420  136.6130 C   0  0  0  0  0  2  0  0  0  0  0  0
  189.0160  177.2900  135.6160 O   0  0  0  0  0  0  0  0  0  0  0  0
  188.3030  176.1860  135.1360 C   0  0  0  0  0  2  0  0  0  0  0  0
  186.8110  176.4710  135.1550 C   0  0  0  0  0  2  0  0  0  0  0  0
  186.0640  175.3420  135.8420 C   0  0  0  0  0  2  0  0  0  0  0  0
  184.7670  175.0740  135.0940 C   0  0  0  0  0  2  0  0  0  0  0  0
  180.6930  174.5540  136.6680 C   0  0  2  0  0  0  0  0  0  0  0  0
  182.2750  171.7210  136.9020 C   0  0  0  0  0  2  0  0  0  0  0  0
  183.2080  174.1400  136.9380 C   0  0  2  0  0  0  0  0  0  0  0  0
  183.6670  176.5070  136.6520 O   0  0  0  0  0  1  0  0  0  0  0  0
  183.0550  172.7600  134.8840 F   0  0  0  0  0  0  0  0  0  0  0  0
  183.2240  172.7380  136.2600 C   0  0  2  0  0  3  0  0  0  0  0  0
  183.5080  175.3100  135.9420 C   0  0  1  0  0  0  0  0  0  0  0  0
  181.0040  175.6860  135.6810 C   0  0  0  0  0  2  0  0  0  0  0  0
  180.3820  173.2480  135.9530 C   0  0  0  0  0  0  0  0  0  0  0  0
  179.4700  174.9600  137.4670 C   0  0  0  0  0  1  0  0  0  0  0  0
  180.7870  171.8980  136.5380 C   0  0  1  0  0  3  0  0  0  0  0  0
  182.3400  175.4820  134.9620 C   0  0  0  0  0  2  0  0  0  0  0  0
  184.1860  174.1280  137.9360 O   0  0  0  0  0  1  0  0  0  0  0  0
  179.7230  173.2850  134.9220 O   0  0  0  0  0  0  0  0  0  0  0  0
  181.8640  174.4180  137.6440 C   0  0  0  0  0  2  0  0  0  0  0  0
  180.2810  170.7020  135.7330 C   0  0  0  0  0  2  0  0  0  0  0  0
  179.0030  170.3260  136.1530 O   0  0  0  0  0  1  0  0  0  0  0  0
  2  6  2  0  0  0  0
  2  3  1  0  0  0  0
  3  5  2  0  0  0  0
  4  1  2  0  0  0  0
  5  1  1  0  0  0  0
  5  7  1  0  0  0  0
  6  4  1  0  0  0  0
  7  8  1  0  0  0  0
  8 18  1  0  0  0  0
  9 13  1  0  0  0  0
 11 12  1  0  0  0  0
 12 13  1  0  0  0  0
 13 10  1  6  0  0  0
 14 11  2  0  0  0  0
 14  9  1  0  0  0  0
 15 16  1  0  0  0  0
 16 11  1  0  0  0  0
 17 14  1  0  0  0  0
 18 15  1  0  0  0  0
 18 17  2  0  0  0  0
 19 22  1  0  0  0  0
 19 21  1  0  0  0  0
 20 27  1  0  0  0  0
 22 24  1  0  0  0  0
 24 23  1  0  0  0  0
 25 19  2  0  0  0  0
 26 22  1  0  0  0  0
 26 20  1  0  0  0  0
 27 23  1  0  0  0  0
 27 15  1  0  0  0  0
 28 30  1  0  0  0  0
 28 17  1  0  0  0  0
 30 29  1  6  0  0  0
 31 30  1  0  0  0  0
 32 31  1  0  0  0  0
 33  2  1  0  0  0  0
 34 33  1  0  0  0  0
 35 36  1  0  0  0  0
 35 34  1  0  0  0  0
 36 37  1  0  0  0  0
 38 37  1  0  0  0  0
 38 45  1  0  0  0  0
 39 48  1  1  0  0  0
 39 53  1  0  0  0  0
 41 53  1  0  0  0  0
 41 51  1  1  0  0  0
 44 43  1  6  0  0  0
 44 40  1  0  0  0  0
 44 41  1  0  0  0  0
 45 42  1  1  0  0  0
 45 41  1  0  0  0  0
 46 39  1  0  0  0  0
 47 49  1  0  0  0  0
 47 39  1  0  0  0  0
 49 54  1  6  0  0  0
 49 40  1  0  0  0  0
 50 46  1  0  0  0  0
 50 45  1  0  0  0  0
 52 47  2  0  0  0  0
 54 55  1  0  0  0  0
M  END
>  <MODEL>
7

>  <REMARK>
 VINA RESULT:      -6.2      4.100     10.506
  Name = 
  15 active torsions:
  status: ('A' for Active; 'I' for Inactive)
    1  A    between atoms: C_2  and  C_28
    2  A    between atoms: C_2  and  C_44
    3  A    between atoms: O_4  and  C_40
    4  A    between atoms: C_8  and  C_22
    5  A    between atoms: C_8  and  C_43
    6  A    between atoms: C_11  and  C_38
    7  A    between atoms: C_19  and  C_40
    8  A    between atoms: C_19  and  C_45
    9  A    between atoms: C_20  and  C_22
   10  A    between atoms: C_27  and  C_54
   11  A    between atoms: C_28  and  C_49
   12  A    between atoms: N_33  and  C_52
   13  A    between atoms: C_35  and  C_43
   14  A    between atoms: C_35  and  O_51
   15  A    between atoms: O_51  and  C_54
                            x       y       z     vdW  Elec       q    Type
                         _______ _______ _______ _____ _____    ______ ____

>  <TORSDO>
F 15

$$$$
=
 OpenBabel11052415053D

 55 60  0  0  1  0  0  0  0  0999 V2000
  188.3300  177.8810  141.4080 C   0  0  0  0  0  3  0  0  0  0  0  0
  189.4670  177.9210  138.8520 C   0  0  0  0  0  0  0  0  0  0  0  0
  188.1190  178.2500  139.0250 C   0  0  0  0  0  3  0  0  0  0  0  0
  189.6760  177.5430  141.2350 C   0  0  0  0  0  3  0  0  0  0  0  0
  187.5480  178.2280  140.3020 C   0  0  0  0  0  0  0  0  0  0  0  0
  190.2440  177.5600  139.9570 C   0  0  0  0  0  3  0  0  0  0  0  0
  186.1200  178.6050  140.4830 C   0  0  0  0  0  2  0  0  0  0  0  0
  185.9510  179.3900  141.7720 C   0  0  0  0  0  2  0  0  0  0  0  0
  180.6940  178.5360  141.2710 S   0  0  0  0  0  0  0  0  0  0  0  0
  179.2280  180.1570  142.9130 C   0  0  0  0  0  1  0  0  0  0  0  0
  182.0520  178.6270  143.5180 C   0  0  0  0  0  0  0  0  0  0  0  0
  180.6590  178.4320  143.9920 C   0  0  0  0  0  2  0  0  0  0  0  0
  179.7390  178.7320  142.8140 C   0  0  2  0  0  3  0  0  0  0  0  0
  182.2060  178.7040  142.2080 C   0  0  0  0  0  0  0  0  0  0  0  0
  184.4930  178.9150  143.8090 N   0  0  0  0  0  0  0  0  0  0  0  0
  183.1880  178.7990  144.4800 C   0  0  0  0  0  2  0  0  0  0  0  0
  183.5170  178.9930  141.5920 C   0  0  0  0  0  0  0  0  0  0  0  0
  184.6070  179.1050  142.3790 C   0  0  0  0  0  0  0  0  0  0  0  0
  188.1370  177.2330  147.6580 C   0  0  0  0  0  0  0  0  0  0  0  0
  185.3440  179.0430  146.1190 C   0  0  0  0  0  2  0  0  0  0  0  0
  189.0820  176.1260  147.3310 C   0  0  0  0  0  1  0  0  0  0  0  0
  187.4900  177.9810  146.6190 N   0  0  0  0  0  0  0  0  0  0  0  0
  186.5680  177.7090  144.3690 C   0  0  0  0  0  2  0  0  0  0  0  0
  187.8370  177.7720  145.2140 C   0  0  0  0  0  2  0  0  0  0  0  0
  187.9050  177.4950  148.8680 O   0  0  0  0  0  0  0  0  0  0  0  0
  186.6180  179.1060  146.9560 C   0  0  0  0  0  2  0  0  0  0  0  0
  185.6990  178.9390  144.6350 C   0  0  0  0  0  3  0  0  0  0  0  0
  183.6090  179.1500  140.0990 C   0  0  0  0  0  2  0  0  0  0  0  0
  182.9850  177.8250  138.1170 N   0  0  0  0  0  1  0  0  0  0  0  0
  183.6630  177.7870  139.4060 C   0  0  2  0  0  3  0  0  0  0  0  0
  183.1980  176.7290  140.2220 O   0  0  0  0  0  0  0  0  0  0  0  0
  182.3630  175.8950  139.4600 C   0  0  0  0  0  1  0  0  0  0  0  0
  190.0630  177.9340  137.4870 C   0  0  0  0  0  2  0  0  0  0  0  0
  190.6170  176.6850  137.1930 O   0  0  0  0  0  0  0  0  0  0  0  0
  189.7970  176.1470  136.1950 C   0  0  0  0  0  2  0  0  0  0  0  0
  190.6190  175.3200  135.2220 C   0  0  0  0  0  2  0  0  0  0  0  0
  191.9540  175.9890  134.9520 C   0  0  0  0  0  2  0  0  0  0  0  0
  193.0540  174.9380  134.9800 C   0  0  0  0  0  2  0  0  0  0  0  0
  196.0450  174.1300  138.1030 C   0  0  2  0  0  0  0  0  0  0  0  0
  196.8300  172.4360  135.4380 C   0  0  0  0  0  2  0  0  0  0  0  0
  195.5410  174.6770  135.6490 C   0  0  2  0  0  0  0  0  0  0  0  0
  194.1740  176.5690  136.3130 O   0  0  0  0  0  1  0  0  0  0  0  0
  194.4310  172.4630  135.5330 F   0  0  0  0  0  0  0  0  0  0  0  0
  195.5370  173.2040  135.1430 C   0  0  2  0  0  3  0  0  0  0  0  0
  194.1210  175.1940  136.0550 C   0  0  1  0  0  0  0  0  0  0  0  0
  194.6430  174.6240  138.4820 C   0  0  0  0  0  2  0  0  0  0  0  0
  196.0870  172.6190  137.9340 C   0  0  0  0  0  0  0  0  0  0  0  0
  196.9880  174.5070  139.2280 C   0  0  0  0  0  1  0  0  0  0  0  0
  196.9830  171.9530  136.8950 C   0  0  1  0  0  3  0  0  0  0  0  0
  193.6440  174.4830  137.3300 C   0  0  0  0  0  2  0  0  0  0  0  0
  196.0360  175.4690  134.6110 O   0  0  0  0  0  1  0  0  0  0  0  0
  195.4410  171.9230  138.7060 O   0  0  0  0  0  0  0  0  0  0  0  0
  196.5020  174.8690  136.8420 C   0  0  0  0  0  2  0  0  0  0  0  0
  196.9750  170.4270  136.9610 C   0  0  0  0  0  2  0  0  0  0  0  0
  196.6020  169.8790  135.7310 O   0  0  0  0  0  1  0  0  0  0  0  0
  2  3  2  0  0  0  0
  2  6  1  0  0  0  0
  3  5  1  0  0  0  0
  4  1  1  0  0  0  0
  5  7  1  0  0  0  0
  5  1  2  0  0  0  0
  6  4  2  0  0  0  0
  7  8  1  0  0  0  0
  8 18  1  0  0  0  0
  9 14  1  0  0  0  0
  9 13  1  0  0  0  0
 11 12  1  0  0  0  0
 11 16  1  0  0  0  0
 13 10  1  1  0  0  0
 13 12  1  0  0  0  0
 14 11  2  0  0  0  0
 15 16  1  0  0  0  0
 15 27  1  0  0  0  0
 17 14  1  0  0  0  0
 17 18  2  0  0  0  0
 18 15  1  0  0  0  0
 19 25  2  0  0  0  0
 20 26  1  0  0  0  0
 21 19  1  0  0  0  0
 22 26  1  0  0  0  0
 22 19  1  0  0  0  0
 23 27  1  0  0  0  0
 23 24  1  0  0  0  0
 24 22  1  0  0  0  0
 27 20  1  0  0  0  0
 28 17  1  0  0  0  0
 30 29  1  6  0  0  0
 30 28  1  0  0  0  0
 30 31  1  0  0  0  0
 32 31  1  0  0  0  0
 33  2  1  0  0  0  0
 34 33  1  0  0  0  0
 35 34  1  0  0  0  0
 36 35  1  0  0  0  0
 37 38  1  0  0  0  0
 37 36  1  0  0  0  0
 38 45  1  0  0  0  0
 39 46  1  0  0  0  0
 39 48  1  1  0  0  0
 40 49  1  0  0  0  0
 41 51  1  6  0  0  0
 41 45  1  0  0  0  0
 41 53  1  0  0  0  0
 44 40  1  0  0  0  0
 44 43  1  1  0  0  0
 44 41  1  0  0  0  0
 45 42  1  1  0  0  0
 45 50  1  0  0  0  0
 47 39  1  0  0  0  0
 47 52  2  0  0  0  0
 49 54  1  6  0  0  0
 49 47  1  0  0  0  0
 50 46  1  0  0  0  0
 53 39  1  0  0  0  0
 55 54  1  0  0  0  0
M  END
>  <MODEL>
8

>  <REMARK>
 VINA RESULT:      -6.2      4.742      9.173
  Name = 
  15 active torsions:
  status: ('A' for Active; 'I' for Inactive)
    1  A    between atoms: C_2  and  C_28
    2  A    between atoms: C_2  and  C_44
    3  A    between atoms: O_4  and  C_40
    4  A    between atoms: C_8  and  C_22
    5  A    between atoms: C_8  and  C_43
    6  A    between atoms: C_11  and  C_38
    7  A    between atoms: C_19  and  C_40
    8  A    between atoms: C_19  and  C_45
    9  A    between atoms: C_20  and  C_22
   10  A    between atoms: C_27  and  C_54
   11  A    between atoms: C_28  and  C_49
   12  A    between atoms: N_33  and  C_52
   13  A    between atoms: C_35  and  C_43
   14  A    between atoms: C_35  and  O_51
   15  A    between atoms: O_51  and  C_54
                            x       y       z     vdW  Elec       q    Type
                         _______ _______ _______ _____ _____    ______ ____

>  <TORSDO>
F 15

$$$$
=
 OpenBabel11052415053D

 55 60  0  0  1  0  0  0  0  0999 V2000
  190.7330  176.7540  140.9310 C   0  0  0  0  0  3  0  0  0  0  0  0
  188.7340  177.0860  142.8600 C   0  0  0  0  0  0  0  0  0  0  0  0
  188.5140  177.5030  141.5440 C   0  0  0  0  0  3  0  0  0  0  0  0
  190.9570  176.3440  142.2500 C   0  0  0  0  0  3  0  0  0  0  0  0
  189.5130  177.3400  140.5790 C   0  0  0  0  0  0  0  0  0  0  0  0
  189.9590  176.5130  143.2150 C   0  0  0  0  0  3  0  0  0  0  0  0
  189.2620  177.7600  139.1740 C   0  0  0  0  0  2  0  0  0  0  0  0
  190.3730  177.2470  138.2730 C   0  0  0  0  0  2  0  0  0  0  0  0
  186.4540  174.7120  135.6610 S   0  0  0  0  0  0  0  0  0  0  0  0
  186.2220  172.1010  136.4380 C   0  0  0  0  0  1  0  0  0  0  0  0
  188.9250  173.8740  135.9590 C   0  0  0  0  0  0  0  0  0  0  0  0
  188.2930  172.7520  135.2230 C   0  0  0  0  0  2  0  0  0  0  0  0
  186.7840  172.9510  135.3140 C   0  0  2  0  0  3  0  0  0  0  0  0
  188.1320  174.8920  136.2440 C   0  0  0  0  0  0  0  0  0  0  0  0
  190.8050  175.0440  137.0650 N   0  0  0  0  0  0  0  0  0  0  0  0
  190.3540  173.8070  136.4090 C   0  0  0  0  0  2  0  0  0  0  0  0
  188.5940  176.0360  137.0560 C   0  0  0  0  0  0  0  0  0  0  0  0
  189.8820  176.0880  137.4540 C   0  0  0  0  0  0  0  0  0  0  0  0
  196.3150  174.5120  136.5370 C   0  0  0  0  0  0  0  0  0  0  0  0
  192.8680  173.7900  137.5600 C   0  0  0  0  0  2  0  0  0  0  0  0
  197.0550  175.4490  135.6430 C   0  0  0  0  0  1  0  0  0  0  0  0
  195.0130  174.8440  137.0390 N   0  0  0  0  0  0  0  0  0  0  0  0
  192.9670  176.0200  136.3930 C   0  0  0  0  0  2  0  0  0  0  0  0
  194.4300  176.1640  136.8010 C   0  0  0  0  0  2  0  0  0  0  0  0
  196.8490  173.4110  136.8370 O   0  0  0  0  0  0  0  0  0  0  0  0
  194.3310  173.9440  137.9680 C   0  0  0  0  0  2  0  0  0  0  0  0
  192.2180  175.1670  137.4190 C   0  0  0  0  0  3  0  0  0  0  0  0
  187.6190  177.1230  137.4150 C   0  0  0  0  0  2  0  0  0  0  0  0
  186.8020  179.3680  136.8050 N   0  0  0  0  0  1  0  0  0  0  0  0
  187.7540  178.3170  136.4670 C   0  0  2  0  0  3  0  0  0  0  0  0
  187.6840  177.9540  135.1020 O   0  0  0  0  0  0  0  0  0  0  0  0
  186.3990  178.2460  134.6140 C   0  0  0  0  0  1  0  0  0  0  0  0
  187.6690  177.2750  143.8850 C   0  0  0  0  0  2  0  0  0  0  0  0
  186.4460  177.5440  143.2640 O   0  0  0  0  0  0  0  0  0  0  0  0
  185.7340  178.3240  144.1810 C   0  0  0  0  0  2  0  0  0  0  0  0
  184.5280  178.9600  143.5120 C   0  0  0  0  0  2  0  0  0  0  0  0
  184.1920  178.2340  142.2230 C   0  0  0  0  0  2  0  0  0  0  0  0
  183.1050  179.0030  141.4860 C   0  0  0  0  0  2  0  0  0  0  0  0
  182.6820  177.3520  137.4310 C   0  0  2  0  0  0  0  0  0  0  0  0
  179.7540  177.4070  138.8490 C   0  0  0  0  0  2  0  0  0  0  0  0
  181.8100  178.9390  139.2460 C   0  0  2  0  0  0  0  0  0  0  0  0
  184.0100  179.9350  139.4850 O   0  0  0  0  0  1  0  0  0  0  0  0
  181.3330  176.9100  140.5880 F   0  0  0  0  0  0  0  0  0  0  0  0
  180.7750  177.9470  139.8570 C   0  0  2  0  0  3  0  0  0  0  0  0
  183.2030  178.8920  139.9570 C   0  0  1  0  0  0  0  0  0  0  0  0
  184.0360  177.3040  138.1500 C   0  0  0  0  0  2  0  0  0  0  0  0
  181.8010  176.1690  137.8020 C   0  0  0  0  0  0  0  0  0  0  0  0
  182.9480  177.2950  135.9390 C   0  0  0  0  0  1  0  0  0  0  0  0
  180.2850  176.3030  137.9130 C   0  0  1  0  0  3  0  0  0  0  0  0
  183.9070  177.5630  139.6540 C   0  0  0  0  0  2  0  0  0  0  0  0
  181.2750  180.2230  139.3720 O   0  0  0  0  0  1  0  0  0  0  0  0
  182.3200  175.0700  137.9380 O   0  0  0  0  0  0  0  0  0  0  0  0
  182.0120  178.6950  137.7350 C   0  0  0  0  0  2  0  0  0  0  0  0
  179.5680  174.9800  138.1760 C   0  0  0  0  0  2  0  0  0  0  0  0
  179.1590  174.8950  139.5100 O   0  0  0  0  0  1  0  0  0  0  0  0
  1  4  1  0  0  0  0
  2  6  1  0  0  0  0
  2 33  1  0  0  0  0
  3  2  2  0  0  0  0
  4  6  2  0  0  0  0
  5  1  2  0  0  0  0
  5  3  1  0  0  0  0
  7  5  1  0  0  0  0
  8  7  1  0  0  0  0
  9 14  1  0  0  0  0
 11 14  2  0  0  0  0
 11 16  1  0  0  0  0
 12 13  1  0  0  0  0
 12 11  1  0  0  0  0
 13  9  1  0  0  0  0
 13 10  1  1  0  0  0
 14 17  1  0  0  0  0
 15 27  1  0  0  0  0
 15 18  1  0  0  0  0
 16 15  1  0  0  0  0
 17 28  1  0  0  0  0
 17 18  2  0  0  0  0
 18  8  1  0  0  0  0
 19 25  2  0  0  0  0
 19 22  1  0  0  0  0
 20 26  1  0  0  0  0
 21 19  1  0  0  0  0
 22 26  1  0  0  0  0
 23 24  1  0  0  0  0
 23 27  1  0  0  0  0
 24 22  1  0  0  0  0
 27 20  1  0  0  0  0
 30 29  1  1  0  0  0
 30 28  1  0  0  0  0
 31 30  1  0  0  0  0
 32 31  1  0  0  0  0
 34 33  1  0  0  0  0
 34 35  1  0  0  0  0
 36 35  1  0  0  0  0
 37 36  1  0  0  0  0
 38 37  1  0  0  0  0
 39 48  1  6  0  0  0
 39 53  1  0  0  0  0
 39 47  1  0  0  0  0
 39 46  1  0  0  0  0
 40 44  1  0  0  0  0
 41 51  1  1  0  0  0
 41 44  1  0  0  0  0
 41 45  1  0  0  0  0
 44 43  1  6  0  0  0
 45 42  1  6  0  0  0
 45 38  1  0  0  0  0
 46 50  1  0  0  0  0
 47 49  1  0  0  0  0
 47 52  2  0  0  0  0
 49 54  1  1  0  0  0
 49 40  1  0  0  0  0
 50 45  1  0  0  0  0
 53 41  1  0  0  0  0
 54 55  1  0  0  0  0
M  END
>  <MODEL>
9

>  <REMARK>
 VINA RESULT:      -6.1      4.412     10.149
  Name = 
  15 active torsions:
  status: ('A' for Active; 'I' for Inactive)
    1  A    between atoms: C_2  and  C_28
    2  A    between atoms: C_2  and  C_44
    3  A    between atoms: O_4  and  C_40
    4  A    between atoms: C_8  and  C_22
    5  A    between atoms: C_8  and  C_43
    6  A    between atoms: C_11  and  C_38
    7  A    between atoms: C_19  and  C_40
    8  A    between atoms: C_19  and  C_45
    9  A    between atoms: C_20  and  C_22
   10  A    between atoms: C_27  and  C_54
   11  A    between atoms: C_28  and  C_49
   12  A    between atoms: N_33  and  C_52
   13  A    between atoms: C_35  and  C_43
   14  A    between atoms: C_35  and  O_51
   15  A    between atoms: O_51  and  C_54
                            x       y       z     vdW  Elec       q    Type
                         _______ _______ _______ _____ _____    ______ ____

>  <TORSDO>
F 15

$$$$
