=
 OpenBabel11052413333D

 28 32  0  0  1  0  0  0  0  0999 V2000
  184.2950  178.5700  142.8670 C   0  0  0  0  0  0  0  0  0  0  0  0
  189.0700  177.9630  140.9760 C   0  0  0  0  0  2  0  0  0  0  0  0
  187.2120  177.9070  146.8340 C   0  0  0  0  0  1  0  0  0  0  0  0
  190.3600  177.9720  143.0700 C   0  0  2  0  0  3  0  0  0  0  0  0
  187.9490  177.9790  143.2230 N   0  0  1  0  0  0  0  0  0  0  0  0
  191.5290  177.4220  140.9800 C   0  0  0  0  0  0  0  0  0  0  0  0
  189.0640  177.4760  142.4260 C   0  0  1  0  0  3  0  0  0  0  0  0
  189.3570  177.0250  145.0970 C   0  0  0  0  0  2  0  0  0  0  0  0
  191.5590  177.2490  142.4760 C   0  0  0  0  0  2  0  0  0  0  0  0
  185.6940  178.2040  144.8370 C   0  0  0  0  0  0  0  0  0  0  0  0
  186.6670  177.6970  142.5710 C   0  0  0  0  0  2  0  0  0  0  0  0
  190.3480  177.9540  144.5430 N   0  0  0  0  0  2  0  0  0  0  0  0
  183.4330  179.0480  145.0860 C   0  0  0  0  0  3  0  0  0  0  0  0
  186.9570  177.7960  145.4010 N   0  0  0  0  0  0  0  0  0  0  0  0
  184.6430  178.6450  145.6520 C   0  0  0  0  0  3  0  0  0  0  0  0
  192.5720  177.5870  140.3700 O   0  0  0  0  0  0  0  0  0  0  0  0
  190.2300  177.2970  140.2220 C   0  0  0  0  0  2  0  0  0  0  0  0
  187.9470  177.2200  144.4840 C   0  0  1  0  0  3  0  0  0  0  0  0
  183.2610  179.0100  143.7010 C   0  0  0  0  0  3  0  0  0  0  0  0
  185.5250  178.1830  143.4330 C   0  0  0  0  0  0  0  0  0  0  0  0
  184.0690  178.5320  141.3770 C   0  0  0  0  0  2  0  0  0  0  0  0
  182.8040  177.8950  140.9880 N   0  0  0  0  0  0  0  0  0  0  0  0
  181.4530  177.9980  139.1340 C   0  0  0  0  0  0  0  0  0  0  0  0
  183.0810  176.7760  140.2400 O   0  0  0  0  0  0  0  0  0  0  0  0
  180.8740  179.3740  141.0560 C   0  0  0  0  0  1  0  0  0  0  0  0
  181.9980  178.8210  140.2000 C   0  0  1  0  0  3  0  0  0  0  0  0
  181.1060  178.4960  138.0050 N   0  0  0  0  0  2  0  0  0  0  0  0
  182.1040  176.6870  139.2270 C   0  0  0  0  0  2  0  0  0  0  0  0
  1 20  2  0  0  0  0
  1 19  1  0  0  0  0
  4  9  1  6  0  0  0
  4 12  1  0  0  0  0
  5 11  1  6  0  0  0
  5 18  1  0  0  0  0
  6  9  1  0  0  0  0
  7  2  1  6  0  0  0
  7  4  1  0  0  0  0
  7  5  1  0  0  0  0
 10 14  1  0  0  0  0
 10 15  2  0  0  0  0
 11 20  1  0  0  0  0
 12  8  1  0  0  0  0
 13 15  1  0  0  0  0
 14  3  1  0  0  0  0
 16  6  2  0  0  0  0
 17  2  1  0  0  0  0
 17  6  1  0  0  0  0
 18  8  1  1  0  0  0
 18 14  1  0  0  0  0
 19 13  2  0  0  0  0
 20 10  1  0  0  0  0
 21  1  1  0  0  0  0
 22 21  1  0  0  0  0
 23 28  1  0  0  0  0
 23 26  1  0  0  0  0
 24 22  1  0  0  0  0
 26 22  1  0  0  0  0
 26 25  1  1  0  0  0
 27 23  2  0  0  0  0
 28 24  1  0  0  0  0
M  END
>  <MODEL>
1

>  <REMARK>
 VINA RESULT:      -9.5      0.000      0.000
  Name = 
  2 active torsions:
  status: ('A' for Active; 'I' for Inactive)
    1  A    between atoms: C_1  and  C_2
    2  A    between atoms: C_2  and  N_3
                            x       y       z     vdW  Elec       q    Type
                         _______ _______ _______ _____ _____    ______ ____

>  <TORSDO>
F 2

$$$$
=
 OpenBabel11052413333D

 28 32  0  0  1  0  0  0  0  0999 V2000
  185.2250  178.9580  144.1960 C   0  0  0  0  0  0  0  0  0  0  0  0
  188.1500  178.1920  140.0000 C   0  0  0  0  0  2  0  0  0  0  0  0
  189.3030  176.6410  145.8340 C   0  0  0  0  0  1  0  0  0  0  0  0
  190.2010  177.3470  141.0620 C   0  0  2  0  0  3  0  0  0  0  0  0
  188.2630  177.6980  142.4600 N   0  0  1  0  0  0  0  0  0  0  0  0
  190.0420  177.2830  138.6100 C   0  0  0  0  0  0  0  0  0  0  0  0
  188.6730  177.2900  141.1200 C   0  0  1  0  0  3  0  0  0  0  0  0
  190.0230  175.9980  143.1020 C   0  0  0  0  0  2  0  0  0  0  0  0
  190.7100  176.6560  139.8060 C   0  0  0  0  0  2  0  0  0  0  0  0
  187.1970  177.7810  145.0290 C   0  0  0  0  0  0  0  0  0  0  0  0
  186.8070  177.8440  142.5420 C   0  0  0  0  0  2  0  0  0  0  0  0
  190.8690  176.8780  142.2880 N   0  0  0  0  0  2  0  0  0  0  0  0
  185.6780  178.8640  146.5800 C   0  0  0  0  0  3  0  0  0  0  0  0
  188.3910  177.0200  144.7580 N   0  0  0  0  0  0  0  0  0  0  0  0
  186.8310  178.1150  146.3390 C   0  0  0  0  0  3  0  0  0  0  0  0
  190.6780  177.4560  137.5840 O   0  0  0  0  0  0  0  0  0  0  0  0
  188.5690  177.6110  138.6430 C   0  0  0  0  0  2  0  0  0  0  0  0
  188.6200  176.6000  143.3710 C   0  0  1  0  0  3  0  0  0  0  0  0
  184.8800  179.2830  145.5130 C   0  0  0  0  0  3  0  0  0  0  0  0
  186.3990  178.2200  143.9480 C   0  0  0  0  0  0  0  0  0  0  0  0
  184.3330  179.4180  143.0700 C   0  0  0  0  0  2  0  0  0  0  0  0
  183.3010  178.4410  142.6980 N   0  0  0  0  0  0  0  0  0  0  0  0
  181.3050  178.5580  141.5700 C   0  0  0  0  0  0  0  0  0  0  0  0
  183.5470  177.9960  141.4220 O   0  0  0  0  0  0  0  0  0  0  0  0
  181.2530  178.6000  144.0030 C   0  0  0  0  0  1  0  0  0  0  0  0
  181.9820  179.0600  142.7540 C   0  0  1  0  0  3  0  0  0  0  0  0
  180.3500  179.2060  141.0120 N   0  0  0  0  0  2  0  0  0  0  0  0
  182.3030  177.8300  140.7810 C   0  0  0  0  0  2  0  0  0  0  0  0
  1 19  1  0  0  0  0
  4  9  1  6  0  0  0
  4  7  1  0  0  0  0
  4 12  1  0  0  0  0
  5 11  1  6  0  0  0
  5 18  1  0  0  0  0
  6 17  1  0  0  0  0
  6  9  1  0  0  0  0
  7  2  1  6  0  0  0
  7  5  1  0  0  0  0
 10 15  2  0  0  0  0
 11 20  1  0  0  0  0
 12  8  1  0  0  0  0
 14 10  1  0  0  0  0
 14  3  1  0  0  0  0
 15 13  1  0  0  0  0
 16  6  2  0  0  0  0
 17  2  1  0  0  0  0
 18  8  1  1  0  0  0
 18 14  1  0  0  0  0
 19 13  2  0  0  0  0
 20  1  2  0  0  0  0
 20 10  1  0  0  0  0
 21  1  1  0  0  0  0
 22 26  1  0  0  0  0
 22 21  1  0  0  0  0
 23 26  1  0  0  0  0
 24 22  1  0  0  0  0
 26 25  1  1  0  0  0
 27 23  2  0  0  0  0
 28 24  1  0  0  0  0
 28 23  1  0  0  0  0
M  END
>  <MODEL>
2

>  <REMARK>
 VINA RESULT:      -9.3      1.612      2.215
  Name = 
  2 active torsions:
  status: ('A' for Active; 'I' for Inactive)
    1  A    between atoms: C_1  and  C_2
    2  A    between atoms: C_2  and  N_3
                            x       y       z     vdW  Elec       q    Type
                         _______ _______ _______ _____ _____    ______ ____

>  <TORSDO>
F 2

$$$$
=
 OpenBabel11052413333D

 28 32  0  0  1  0  0  0  0  0999 V2000
  187.2310  178.2320  139.5490 C   0  0  0  0  0  0  0  0  0  0  0  0
  187.4990  177.5110  144.6630 C   0  0  0  0  0  2  0  0  0  0  0  0
  192.0170  177.2980  140.5020 C   0  0  0  0  0  1  0  0  0  0  0  0
  189.8340  176.7650  144.8640 C   0  0  2  0  0  3  0  0  0  0  0  0
  189.0700  177.5290  142.7030 N   0  0  1  0  0  0  0  0  0  0  0  0
  188.5670  177.2050  146.9230 C   0  0  0  0  0  0  0  0  0  0  0  0
  188.9160  177.7500  144.1390 C   0  0  1  0  0  3  0  0  0  0  0  0
  191.5170  177.6760  143.3310 C   0  0  0  0  0  2  0  0  0  0  0  0
  189.9510  177.1340  146.3350 C   0  0  0  0  0  2  0  0  0  0  0  0
  189.5990  177.8190  139.9880 C   0  0  0  0  0  0  0  0  0  0  0  0
  188.0910  178.3100  141.9430 C   0  0  0  0  0  2  0  0  0  0  0  0
  191.1410  176.5660  144.2140 N   0  0  0  0  0  2  0  0  0  0  0  0
  188.7470  177.7390  137.7170 C   0  0  0  0  0  3  0  0  0  0  0  0
  190.6810  177.7000  140.9330 N   0  0  0  0  0  0  0  0  0  0  0  0
  189.8100  177.6320  138.6150 C   0  0  0  0  0  3  0  0  0  0  0  0
  188.3690  176.8000  148.0560 O   0  0  0  0  0  0  0  0  0  0  0  0
  187.4450  177.8620  146.1560 C   0  0  0  0  0  2  0  0  0  0  0  0
  190.3940  178.0490  142.3290 C   0  0  1  0  0  3  0  0  0  0  0  0
  187.4650  178.0370  138.1830 C   0  0  0  0  0  3  0  0  0  0  0  0
  188.2980  178.1040  140.4600 C   0  0  0  0  0  0  0  0  0  0  0  0
  185.8360  178.5640  140.0140 C   0  0  0  0  0  2  0  0  0  0  0  0
  184.9270  178.9510  138.9250 N   0  0  0  0  0  0  0  0  0  0  0  0
  182.6550  178.8460  138.6110 C   0  0  0  0  0  0  0  0  0  0  0  0
  184.4400  180.2100  139.1780 O   0  0  0  0  0  0  0  0  0  0  0  0
  184.0300  177.0790  137.6570 C   0  0  0  0  0  1  0  0  0  0  0  0
  183.8200  178.0060  138.8390 C   0  0  1  0  0  3  0  0  0  0  0  0
  181.4770  178.4730  138.9480 N   0  0  0  0  0  2  0  0  0  0  0  0
  183.0930  180.2370  138.7630 C   0  0  0  0  0  2  0  0  0  0  0  0
  1 21  1  0  0  0  0
  1 20  1  0  0  0  0
  2 17  1  0  0  0  0
  3 14  1  0  0  0  0
  4  9  1  1  0  0  0
  5 11  1  6  0  0  0
  5  7  1  0  0  0  0
  6 16  2  0  0  0  0
  7  2  1  1  0  0  0
  7  4  1  0  0  0  0
  8 12  1  0  0  0  0
  9  6  1  0  0  0  0
 10 20  2  0  0  0  0
 10 14  1  0  0  0  0
 12  4  1  0  0  0  0
 13 19  1  0  0  0  0
 13 15  2  0  0  0  0
 14 18  1  0  0  0  0
 15 10  1  0  0  0  0
 17  6  1  0  0  0  0
 18  5  1  0  0  0  0
 18  8  1  1  0  0  0
 19  1  2  0  0  0  0
 20 11  1  0  0  0  0
 22 24  1  0  0  0  0
 22 21  1  0  0  0  0
 23 28  1  0  0  0  0
 23 26  1  0  0  0  0
 23 27  2  0  0  0  0
 26 25  1  6  0  0  0
 26 22  1  0  0  0  0
 28 24  1  0  0  0  0
M  END
>  <MODEL>
3

>  <REMARK>
 VINA RESULT:      -9.0      2.769      4.985
  Name = 
  2 active torsions:
  status: ('A' for Active; 'I' for Inactive)
    1  A    between atoms: C_1  and  C_2
    2  A    between atoms: C_2  and  N_3
                            x       y       z     vdW  Elec       q    Type
                         _______ _______ _______ _____ _____    ______ ____

>  <TORSDO>
F 2

$$$$
=
 OpenBabel11052413333D

 28 32  0  0  1  0  0  0  0  0999 V2000
  187.1160  178.1820  140.8160 C   0  0  0  0  0  0  0  0  0  0  0  0
  190.4810  177.2120  144.6220 C   0  0  0  0  0  2  0  0  0  0  0  0
  184.5250  178.6700  145.0270 C   0  0  0  0  0  1  0  0  0  0  0  0
  189.1030  177.8090  146.5690 C   0  0  2  0  0  3  0  0  0  0  0  0
  188.0490  177.7970  144.3950 N   0  0  1  0  0  0  0  0  0  0  0  0
  191.2860  176.7520  146.9630 C   0  0  0  0  0  0  0  0  0  0  0  0
  189.0670  177.1280  145.2000 C   0  0  1  0  0  3  0  0  0  0  0  0
  186.6850  177.4100  146.4900 C   0  0  0  0  0  2  0  0  0  0  0  0
  189.9190  176.9840  147.5520 C   0  0  0  0  0  2  0  0  0  0  0  0
  185.8020  178.3870  142.8660 C   0  0  0  0  0  0  0  0  0  0  0  0
  188.0780  177.3200  143.0100 C   0  0  0  0  0  2  0  0  0  0  0  0
  187.7780  178.1830  147.0920 N   0  0  0  0  0  2  0  0  0  0  0  0
  184.9180  179.2110  140.7610 C   0  0  0  0  0  3  0  0  0  0  0  0
  185.6820  178.1750  144.2870 N   0  0  0  0  0  0  0  0  0  0  0  0
  184.7770  179.0040  142.1340 C   0  0  0  0  0  3  0  0  0  0  0  0
  192.2680  176.7750  147.6860 O   0  0  0  0  0  0  0  0  0  0  0  0
  191.4390  176.3980  145.5030 C   0  0  0  0  0  2  0  0  0  0  0  0
  186.7420  177.4010  144.9420 C   0  0  1  0  0  3  0  0  0  0  0  0
  186.0810  178.8020  140.1070 C   0  0  0  0  0  3  0  0  0  0  0  0
  186.9870  177.9900  142.2050 C   0  0  0  0  0  0  0  0  0  0  0  0
  188.3530  177.7440  140.0740 C   0  0  0  0  0  2  0  0  0  0  0  0
  188.1430  177.5630  138.6310 N   0  0  0  0  0  0  0  0  0  0  0  0
  189.4950  176.9870  136.8670 C   0  0  0  0  0  0  0  0  0  0  0  0
  187.9100  176.2330  138.3780 O   0  0  0  0  0  0  0  0  0  0  0  0
  189.0550  179.3500  137.2540 C   0  0  0  0  0  1  0  0  0  0  0  0
  189.3240  178.0000  137.8950 C   0  0  1  0  0  3  0  0  0  0  0  0
  190.6390  176.7440  136.3430 N   0  0  0  0  0  2  0  0  0  0  0  0
  188.5390  175.9140  137.1580 C   0  0  0  0  0  2  0  0  0  0  0  0
  1 20  1  0  0  0  0
  2 17  1  0  0  0  0
  4 12  1  0  0  0  0
  4  9  1  1  0  0  0
  5 11  1  6  0  0  0
  5 18  1  0  0  0  0
  5  7  1  0  0  0  0
  6  9  1  0  0  0  0
  6 16  2  0  0  0  0
  7  2  1  6  0  0  0
  7  4  1  0  0  0  0
  8 12  1  0  0  0  0
 10 14  1  0  0  0  0
 13 15  2  0  0  0  0
 14 18  1  0  0  0  0
 14  3  1  0  0  0  0
 15 10  1  0  0  0  0
 17  6  1  0  0  0  0
 18  8  1  1  0  0  0
 19 13  1  0  0  0  0
 19  1  2  0  0  0  0
 20 10  2  0  0  0  0
 20 11  1  0  0  0  0
 21  1  1  0  0  0  0
 22 21  1  0  0  0  0
 23 28  1  0  0  0  0
 23 26  1  0  0  0  0
 24 22  1  0  0  0  0
 26 25  1  6  0  0  0
 26 22  1  0  0  0  0
 27 23  2  0  0  0  0
 28 24  1  0  0  0  0
M  END
>  <MODEL>
4

>  <REMARK>
 VINA RESULT:      -9.0      3.018      5.140
  Name = 
  2 active torsions:
  status: ('A' for Active; 'I' for Inactive)
    1  A    between atoms: C_1  and  C_2
    2  A    between atoms: C_2  and  N_3
                            x       y       z     vdW  Elec       q    Type
                         _______ _______ _______ _____ _____    ______ ____

>  <TORSDO>
F 2

$$$$
=
 OpenBabel11052413333D

 28 32  0  0  1  0  0  0  0  0999 V2000
  190.1600  176.3780  143.8500 C   0  0  0  0  0  0  0  0  0  0  0  0
  185.1850  177.6610  143.2530 C   0  0  0  0  0  2  0  0  0  0  0  0
  188.7090  178.1340  148.2650 C   0  0  0  0  0  1  0  0  0  0  0  0
  184.6010  178.1890  145.5820 C   0  0  2  0  0  3  0  0  0  0  0  0
  186.9160  177.7250  145.0710 N   0  0  1  0  0  0  0  0  0  0  0  0
  182.9520  178.6730  143.8260 C   0  0  0  0  0  0  0  0  0  0  0  0
  185.7010  178.3270  144.5290 C   0  0  1  0  0  3  0  0  0  0  0  0
  186.2990  179.1830  147.0450 C   0  0  0  0  0  2  0  0  0  0  0  0
  183.4020  179.0490  145.2130 C   0  0  0  0  0  2  0  0  0  0  0  0
  189.4920  177.2760  146.0220 C   0  0  0  0  0  0  0  0  0  0  0  0
  187.9680  177.6570  144.0540 C   0  0  0  0  0  2  0  0  0  0  0  0
  185.0590  178.4030  146.9660 N   0  0  0  0  0  2  0  0  0  0  0  0
  191.5690  176.0420  145.7980 C   0  0  0  0  0  3  0  0  0  0  0  0
  188.5340  177.9980  146.8220 N   0  0  0  0  0  0  0  0  0  0  0  0
  190.6610  176.7490  146.5870 C   0  0  0  0  0  3  0  0  0  0  0  0
  181.7620  178.6380  143.5640 O   0  0  0  0  0  0  0  0  0  0  0  0
  183.9660  178.4350  142.7330 C   0  0  0  0  0  2  0  0  0  0  0  0
  187.4120  178.6310  146.1190 C   0  0  1  0  0  3  0  0  0  0  0  0
  191.3190  175.8580  144.4370 C   0  0  0  0  0  3  0  0  0  0  0  0
  189.2310  177.0750  144.6470 C   0  0  0  0  0  0  0  0  0  0  0  0
  189.9290  176.1700  142.3740 C   0  0  0  0  0  2  0  0  0  0  0  0
  190.1460  177.3780  141.5670 N   0  0  0  0  0  0  0  0  0  0  0  0
  190.2610  177.8090  139.3140 C   0  0  0  0  0  0  0  0  0  0  0  0
  188.9260  177.8970  141.2050 O   0  0  0  0  0  0  0  0  0  0  0  0
  192.3460  177.5130  140.5360 C   0  0  0  0  0  1  0  0  0  0  0  0
  190.9100  177.0490  140.3690 C   0  0  1  0  0  3  0  0  0  0  0  0
  190.3140  177.4430  138.0870 N   0  0  0  0  0  2  0  0  0  0  0  0
  189.0460  178.3920  139.8900 C   0  0  0  0  0  2  0  0  0  0  0  0
  1 19  2  0  0  0  0
  1 20  1  0  0  0  0
  4  9  1  6  0  0  0
  4 12  1  0  0  0  0
  5 11  1  6  0  0  0
  5 18  1  0  0  0  0
  6  9  1  0  0  0  0
  7  2  1  6  0  0  0
  7  5  1  0  0  0  0
  7  4  1  0  0  0  0
 10 15  1  0  0  0  0
 10 14  1  0  0  0  0
 11 20  1  0  0  0  0
 12  8  1  0  0  0  0
 13 15  2  0  0  0  0
 14  3  1  0  0  0  0
 16  6  2  0  0  0  0
 17  2  1  0  0  0  0
 17  6  1  0  0  0  0
 18 14  1  0  0  0  0
 18  8  1  1  0  0  0
 19 13  1  0  0  0  0
 20 10  2  0  0  0  0
 21  1  1  0  0  0  0
 22 21  1  0  0  0  0
 23 28  1  0  0  0  0
 23 26  1  0  0  0  0
 24 22  1  0  0  0  0
 26 25  1  1  0  0  0
 26 22  1  0  0  0  0
 27 23  2  0  0  0  0
 28 24  1  0  0  0  0
M  END
>  <MODEL>
5

>  <REMARK>
 VINA RESULT:      -9.0      2.941      6.855
  Name = 
  2 active torsions:
  status: ('A' for Active; 'I' for Inactive)
    1  A    between atoms: C_1  and  C_2
    2  A    between atoms: C_2  and  N_3
                            x       y       z     vdW  Elec       q    Type
                         _______ _______ _______ _____ _____    ______ ____

>  <TORSDO>
F 2

$$$$
=
 OpenBabel11052413333D

 28 32  0  0  1  0  0  0  0  0999 V2000
  184.6760  179.0060  144.1120 C   0  0  0  0  0  0  0  0  0  0  0  0
  187.9920  178.2390  140.2180 C   0  0  0  0  0  2  0  0  0  0  0  0
  181.8610  178.6250  140.0350 C   0  0  0  0  0  1  0  0  0  0  0  0
  186.4070  177.7680  138.3970 C   0  0  2  0  0  3  0  0  0  0  0  0
  185.5110  178.4720  140.5270 N   0  0  1  0  0  0  0  0  0  0  0  0
  188.7860  178.0240  137.8380 C   0  0  0  0  0  0  0  0  0  0  0  0
  186.6440  178.6510  139.6240 C   0  0  1  0  0  3  0  0  0  0  0  0
  184.2290  178.8950  138.3870 C   0  0  0  0  0  2  0  0  0  0  0  0
  187.3870  178.1250  137.2900 C   0  0  0  0  0  2  0  0  0  0  0  0
  183.2650  178.8670  142.1210 C   0  0  0  0  0  0  0  0  0  0  0  0
  185.7480  179.1460  141.8070 C   0  0  0  0  0  2  0  0  0  0  0  0
  185.0080  177.7350  137.9390 N   0  0  0  0  0  2  0  0  0  0  0  0
  182.2750  178.7240  144.3320 C   0  0  0  0  0  3  0  0  0  0  0  0
  183.1480  178.8600  140.6840 N   0  0  0  0  0  0  0  0  0  0  0  0
  182.1380  178.7270  142.9430 C   0  0  0  0  0  3  0  0  0  0  0  0
  189.6800  177.5800  137.1370 O   0  0  0  0  0  0  0  0  0  0  0  0
  189.1080  178.5580  139.2130 C   0  0  0  0  0  2  0  0  0  0  0  0
  184.3600  179.1500  139.9100 C   0  0  1  0  0  3  0  0  0  0  0  0
  183.5370  178.8620  144.9120 C   0  0  0  0  0  3  0  0  0  0  0  0
  184.5450  178.9900  142.7090 C   0  0  0  0  0  0  0  0  0  0  0  0
  186.0220  179.1650  144.7730 C   0  0  0  0  0  2  0  0  0  0  0  0
  186.5740  177.9080  145.2970 N   0  0  0  0  0  0  0  0  0  0  0  0
  188.6860  177.1690  145.8110 C   0  0  0  0  0  0  0  0  0  0  0  0
  186.7030  178.0130  146.6610 O   0  0  0  0  0  0  0  0  0  0  0  0
  187.7530  176.5660  143.6460 C   0  0  0  0  0  1  0  0  0  0  0  0
  187.8790  177.6490  144.7010 C   0  0  1  0  0  3  0  0  0  0  0  0
  189.9620  177.2880  145.8200 N   0  0  0  0  0  2  0  0  0  0  0  0
  187.8900  177.3470  147.0290 C   0  0  0  0  0  2  0  0  0  0  0  0
  1 21  1  0  0  0  0
  1 19  1  0  0  0  0
  3 14  1  0  0  0  0
  4  9  1  6  0  0  0
  4  7  1  0  0  0  0
  5 11  1  1  0  0  0
  6 17  1  0  0  0  0
  7  2  1  1  0  0  0
  7  5  1  0  0  0  0
  9  6  1  0  0  0  0
 10 20  1  0  0  0  0
 10 15  2  0  0  0  0
 11 20  1  0  0  0  0
 12  8  1  0  0  0  0
 12  4  1  0  0  0  0
 13 19  2  0  0  0  0
 14 10  1  0  0  0  0
 15 13  1  0  0  0  0
 16  6  2  0  0  0  0
 17  2  1  0  0  0  0
 18  8  1  6  0  0  0
 18  5  1  0  0  0  0
 18 14  1  0  0  0  0
 20  1  2  0  0  0  0
 21 22  1  0  0  0  0
 22 24  1  0  0  0  0
 23 27  2  0  0  0  0
 23 28  1  0  0  0  0
 24 28  1  0  0  0  0
 26 25  1  6  0  0  0
 26 22  1  0  0  0  0
 26 23  1  0  0  0  0
M  END
>  <MODEL>
6

>  <REMARK>
 VINA RESULT:      -8.7      2.520      6.110
  Name = 
  2 active torsions:
  status: ('A' for Active; 'I' for Inactive)
    1  A    between atoms: C_1  and  C_2
    2  A    between atoms: C_2  and  N_3
                            x       y       z     vdW  Elec       q    Type
                         _______ _______ _______ _____ _____    ______ ____

>  <TORSDO>
F 2

$$$$
=
 OpenBabel11052413333D

 28 32  0  0  1  0  0  0  0  0999 V2000
  190.0260  177.2260  139.5250 C   0  0  0  0  0  0  0  0  0  0  0  0
  191.5930  176.7460  144.4310 C   0  0  0  0  0  2  0  0  0  0  0  0
  186.1180  178.5440  142.2950 C   0  0  0  0  0  1  0  0  0  0  0  0
  189.6620  177.7320  145.5910 C   0  0  2  0  0  3  0  0  0  0  0  0
  189.5040  177.4040  143.2020 N   0  0  1  0  0  0  0  0  0  0  0  0
  191.4080  176.6500  146.9400 C   0  0  0  0  0  0  0  0  0  0  0  0
  190.0660  176.8310  144.4220 C   0  0  1  0  0  3  0  0  0  0  0  0
  187.4210  177.4450  144.6380 C   0  0  0  0  0  2  0  0  0  0  0  0
  189.9550  177.0440  146.9160 C   0  0  0  0  0  2  0  0  0  0  0  0
  188.0720  177.8390  140.8570 C   0  0  0  0  0  0  0  0  0  0  0  0
  189.9960  176.7000  142.0150 C   0  0  0  0  0  2  0  0  0  0  0  0
  188.2870  178.2530  145.5040 N   0  0  0  0  0  2  0  0  0  0  0  0
  188.1360  178.3380  138.4830 C   0  0  0  0  0  3  0  0  0  0  0  0
  187.4070  177.8760  142.1360 N   0  0  0  0  0  0  0  0  0  0  0  0
  187.4700  178.3720  139.7090 C   0  0  0  0  0  3  0  0  0  0  0  0
  192.0440  176.7450  147.9760 O   0  0  0  0  0  0  0  0  0  0  0  0
  192.0550  176.0470  145.7160 C   0  0  0  0  0  2  0  0  0  0  0  0
  188.0520  177.1710  143.2490 C   0  0  1  0  0  3  0  0  0  0  0  0
  189.4070  177.7680  138.3930 C   0  0  0  0  0  3  0  0  0  0  0  0
  189.3660  177.2770  140.7680 C   0  0  0  0  0  0  0  0  0  0  0  0
  191.3950  176.6080  139.3870 C   0  0  0  0  0  2  0  0  0  0  0  0
  191.6430  176.0110  138.0670 N   0  0  0  0  0  0  0  0  0  0  0  0
  193.0850  174.4130  137.2680 C   0  0  0  0  0  0  0  0  0  0  0  0
  190.9180  174.8500  137.9600 O   0  0  0  0  0  0  0  0  0  0  0  0
  193.7020  176.7530  137.0040 C   0  0  0  0  0  1  0  0  0  0  0  0
  193.0630  175.7170  137.9100 C   0  0  1  0  0  3  0  0  0  0  0  0
  194.0810  173.6160  137.3910 N   0  0  0  0  0  2  0  0  0  0  0  0
  191.7050  173.9190  137.2510 C   0  0  0  0  0  2  0  0  0  0  0  0
  1 20  1  0  0  0  0
  2 17  1  0  0  0  0
  4  9  1  1  0  0  0
  5 11  1  6  0  0  0
  5 18  1  0  0  0  0
  5  7  1  0  0  0  0
  6 16  2  0  0  0  0
  7  2  1  6  0  0  0
  7  4  1  0  0  0  0
  8 12  1  0  0  0  0
  9  6  1  0  0  0  0
 10 14  1  0  0  0  0
 12  4  1  0  0  0  0
 13 15  2  0  0  0  0
 14  3  1  0  0  0  0
 14 18  1  0  0  0  0
 15 10  1  0  0  0  0
 17  6  1  0  0  0  0
 18  8  1  1  0  0  0
 19 13  1  0  0  0  0
 19  1  2  0  0  0  0
 20 10  2  0  0  0  0
 20 11  1  0  0  0  0
 21  1  1  0  0  0  0
 22 21  1  0  0  0  0
 23 27  2  0  0  0  0
 23 26  1  0  0  0  0
 24 22  1  0  0  0  0
 26 25  1  6  0  0  0
 26 22  1  0  0  0  0
 28 23  1  0  0  0  0
 28 24  1  0  0  0  0
M  END
>  <MODEL>
7

>  <REMARK>
 VINA RESULT:      -8.7      3.553      7.333
  Name = 
  2 active torsions:
  status: ('A' for Active; 'I' for Inactive)
    1  A    between atoms: C_1  and  C_2
    2  A    between atoms: C_2  and  N_3
                            x       y       z     vdW  Elec       q    Type
                         _______ _______ _______ _____ _____    ______ ____

>  <TORSDO>
F 2

$$$$
=
 OpenBabel11052413333D

 28 32  0  0  1  0  0  0  0  0999 V2000
  186.7270  177.5030  145.6770 C   0  0  0  0  0  0  0  0  0  0  0  0
  188.4150  177.4900  140.7880 C   0  0  0  0  0  2  0  0  0  0  0  0
  191.6800  177.2830  145.9910 C   0  0  0  0  0  1  0  0  0  0  0  0
  190.8350  177.6990  141.1750 C   0  0  2  0  0  3  0  0  0  0  0  0
  189.4020  177.3950  143.0960 N   0  0  1  0  0  0  0  0  0  0  0  0
  190.0500  177.2730  138.8860 C   0  0  0  0  0  0  0  0  0  0  0  0
  189.5600  177.0290  141.6920 C   0  0  1  0  0  3  0  0  0  0  0  0
  191.8220  176.6600  143.1650 C   0  0  0  0  0  2  0  0  0  0  0  0
  191.2220  177.1280  139.8200 C   0  0  0  0  0  2  0  0  0  0  0  0
  189.1580  177.3510  145.8670 C   0  0  0  0  0  0  0  0  0  0  0  0
  188.1090  176.9400  143.6150 C   0  0  0  0  0  2  0  0  0  0  0  0
  191.9490  177.7010  142.1390 N   0  0  0  0  0  2  0  0  0  0  0  0
  187.8140  177.8980  147.8120 C   0  0  0  0  0  3  0  0  0  0  0  0
  190.4370  177.1180  145.2430 N   0  0  0  0  0  0  0  0  0  0  0  0
  189.0610  177.6640  147.2290 C   0  0  0  0  0  3  0  0  0  0  0  0
  190.2400  177.5630  137.7160 O   0  0  0  0  0  0  0  0  0  0  0  0
  188.6510  176.9690  139.3640 C   0  0  0  0  0  2  0  0  0  0  0  0
  190.4310  176.6610  143.8490 C   0  0  1  0  0  3  0  0  0  0  0  0
  186.6540  177.8170  147.0390 C   0  0  0  0  0  3  0  0  0  0  0  0
  187.9850  177.2860  145.0810 C   0  0  0  0  0  0  0  0  0  0  0  0
  185.4520  177.4130  144.8760 C   0  0  0  0  0  2  0  0  0  0  0  0
  184.9640  178.7130  144.3960 N   0  0  0  0  0  0  0  0  0  0  0  0
  183.2980  179.3780  142.9630 C   0  0  0  0  0  0  0  0  0  0  0  0
  183.9100  179.1110  145.1810 O   0  0  0  0  0  0  0  0  0  0  0  0
  185.5660  179.2210  142.0940 C   0  0  0  0  0  1  0  0  0  0  0  0
  184.5260  178.6020  143.0090 C   0  0  1  0  0  3  0  0  0  0  0  0
  182.3840  179.1450  142.0950 N   0  0  0  0  0  2  0  0  0  0  0  0
  182.9700  179.7460  144.3440 C   0  0  0  0  0  2  0  0  0  0  0  0
  1 19  1  0  0  0  0
  4  9  1  6  0  0  0
  4  7  1  0  0  0  0
  4 12  1  0  0  0  0
  5 11  1  1  0  0  0
  5 18  1  0  0  0  0
  6 17  1  0  0  0  0
  6  9  1  0  0  0  0
  7  2  1  6  0  0  0
  7  5  1  0  0  0  0
 10 15  2  0  0  0  0
 11 20  1  0  0  0  0
 12  8  1  0  0  0  0
 14 10  1  0  0  0  0
 14  3  1  0  0  0  0
 15 13  1  0  0  0  0
 16  6  2  0  0  0  0
 17  2  1  0  0  0  0
 18  8  1  6  0  0  0
 18 14  1  0  0  0  0
 19 13  2  0  0  0  0
 20  1  2  0  0  0  0
 20 10  1  0  0  0  0
 21  1  1  0  0  0  0
 22 21  1  0  0  0  0
 22 24  1  0  0  0  0
 23 26  1  0  0  0  0
 23 28  1  0  0  0  0
 26 25  1  6  0  0  0
 26 22  1  0  0  0  0
 27 23  2  0  0  0  0
 28 24  1  0  0  0  0
M  END
>  <MODEL>
8

>  <REMARK>
 VINA RESULT:      -8.6      2.372      3.727
  Name = 
  2 active torsions:
  status: ('A' for Active; 'I' for Inactive)
    1  A    between atoms: C_1  and  C_2
    2  A    between atoms: C_2  and  N_3
                            x       y       z     vdW  Elec       q    Type
                         _______ _______ _______ _____ _____    ______ ____

>  <TORSDO>
F 2

$$$$
=
 OpenBabel11052413333D

 28 32  0  0  1  0  0  0  0  0999 V2000
  185.6820  178.5120  139.5950 C   0  0  0  0  0  0  0  0  0  0  0  0
  186.6430  177.8590  144.6350 C   0  0  0  0  0  2  0  0  0  0  0  0
  190.4470  177.1310  139.8640 C   0  0  0  0  0  1  0  0  0  0  0  0
  188.9000  176.8920  144.5150 C   0  0  2  0  0  3  0  0  0  0  0  0
  187.8970  177.6890  142.4660 N   0  0  1  0  0  0  0  0  0  0  0  0
  188.0020  177.4910  146.7220 C   0  0  0  0  0  0  0  0  0  0  0  0
  187.9810  177.9500  143.9000 C   0  0  1  0  0  3  0  0  0  0  0  0
  190.4130  177.6060  142.7220 C   0  0  0  0  0  2  0  0  0  0  0  0
  189.2700  177.2740  145.9400 C   0  0  0  0  0  2  0  0  0  0  0  0
  188.0400  177.8770  139.6950 C   0  0  0  0  0  0  0  0  0  0  0  0
  186.8940  178.5490  141.8330 C   0  0  0  0  0  2  0  0  0  0  0  0
  190.0700  176.5550  143.6870 N   0  0  0  0  0  2  0  0  0  0  0  0
  186.8540  177.8400  137.5780 C   0  0  0  0  0  3  0  0  0  0  0  0
  189.2350  177.6700  140.4740 N   0  0  0  0  0  0  0  0  0  0  0  0
  188.0240  177.6450  138.3120 C   0  0  0  0  0  3  0  0  0  0  0  0
  187.9380  177.1280  147.8840 O   0  0  0  0  0  0  0  0  0  0  0  0
  186.8450  178.2420  146.1080 C   0  0  0  0  0  2  0  0  0  0  0  0
  189.1940  178.0700  141.8850 C   0  0  1  0  0  3  0  0  0  0  0  0
  185.6900  178.2710  138.2160 C   0  0  0  0  0  3  0  0  0  0  0  0
  186.8560  178.2970  140.3430 C   0  0  0  0  0  0  0  0  0  0  0  0
  184.4090  178.9880  140.2490 C   0  0  0  0  0  2  0  0  0  0  0  0
  183.1950  178.6400  139.4990 N   0  0  0  0  0  0  0  0  0  0  0  0
  181.0750  177.9800  140.0850 C   0  0  0  0  0  0  0  0  0  0  0  0
  182.3980  179.7540  139.4010 O   0  0  0  0  0  0  0  0  0  0  0  0
  182.6840  176.2610  139.4670 C   0  0  0  0  0  1  0  0  0  0  0  0
  182.4680  177.5790  140.1880 C   0  0  1  0  0  3  0  0  0  0  0  0
  180.1970  177.5980  140.9370 N   0  0  0  0  0  2  0  0  0  0  0  0
  181.0580  179.3330  139.5190 C   0  0  0  0  0  2  0  0  0  0  0  0
  1 21  1  0  0  0  0
  1 20  1  0  0  0  0
  2 17  1  0  0  0  0
  3 14  1  0  0  0  0
  4  9  1  1  0  0  0
  5 11  1  6  0  0  0
  5  7  1  0  0  0  0
  6 16  2  0  0  0  0
  7  4  1  0  0  0  0
  7  2  1  1  0  0  0
  8 12  1  0  0  0  0
  9  6  1  0  0  0  0
 10 20  2  0  0  0  0
 10 14  1  0  0  0  0
 12  4  1  0  0  0  0
 13 19  1  0  0  0  0
 13 15  2  0  0  0  0
 14 18  1  0  0  0  0
 15 10  1  0  0  0  0
 17  6  1  0  0  0  0
 18  5  1  0  0  0  0
 18  8  1  1  0  0  0
 19  1  2  0  0  0  0
 20 11  1  0  0  0  0
 22 26  1  0  0  0  0
 22 21  1  0  0  0  0
 23 26  1  0  0  0  0
 23 27  2  0  0  0  0
 24 22  1  0  0  0  0
 24 28  1  0  0  0  0
 26 25  1  6  0  0  0
 28 23  1  0  0  0  0
M  END
>  <MODEL>
9

>  <REMARK>
 VINA RESULT:      -8.5      2.507      4.651
  Name = 
  2 active torsions:
  status: ('A' for Active; 'I' for Inactive)
    1  A    between atoms: C_1  and  C_2
    2  A    between atoms: C_2  and  N_3
                            x       y       z     vdW  Elec       q    Type
                         _______ _______ _______ _____ _____    ______ ____

>  <TORSDO>
F 2

$$$$
